data_functionalizedCrystal
_audit_creation_method	'MofGen! by Chris Wilmer'
_symmetry_space_group_name_H-M	'P1'
_symmetry_Int_Tables_number	1
_symmetry_cell_setting	triclinic
loop_
_symmetry_equiv_pos_as_xyz
  x,y,z
_cell_length_a	10.654534
_cell_length_b	10.868271
_cell_length_c	11.792254
_cell_angle_alpha	89.994692
_cell_angle_beta	84.338501
_cell_angle_gamma	89.994901
loop_
_atom_site_label
_atom_site_type_symbol
_atom_site_fract_x
_atom_site_fract_y
_atom_site_fract_z
O1	O	-1.667410	0.102346	-0.159334
O2	O	-1.417410	0.352346	0.090666
O3	O	-1.167410	0.602346	0.340666
O4	O	-0.917410	0.852346	0.590666
O5	O	-1.301886	0.102344	-0.174541
O6	O	-1.051886	0.352344	0.075459
O7	O	-0.801886	0.602344	0.325459
O8	O	-0.551886	0.852344	0.575459
O9	O	-1.493510	0.102336	-0.001788
O10	O	-1.243510	0.352336	0.248212
O11	O	-0.993510	0.602336	0.498212
O12	O	-0.743510	0.852336	0.748212
O13	O	-1.475786	0.102354	-0.332087
O14	O	-1.225786	0.352354	-0.082087
O15	O	-0.975786	0.602354	0.167913
O16	O	-0.725786	0.852354	0.417913
O17	O	-1.493494	-0.102308	-0.001781
O18	O	-1.243494	0.147692	0.248219
O19	O	-0.993494	0.397692	0.498219
O20	O	-0.743494	0.647692	0.748219
O21	O	-1.301871	-0.102301	-0.174534
O22	O	-1.051871	0.147699	0.075466
O23	O	-0.801871	0.397699	0.325466
O24	O	-0.551871	0.647699	0.575466
O25	O	-1.667394	-0.102299	-0.159327
O26	O	-1.417394	0.147701	0.090673
O27	O	-1.167394	0.397701	0.340673
O28	O	-0.917394	0.647701	0.590673
Zn29	Zn	-1.484630	-0.134792	-0.166929
Zn30	Zn	-1.234630	0.115208	0.083071
Zn31	Zn	-0.984630	0.365208	0.333071
Zn32	Zn	-0.734630	0.615208	0.583071
Zn33	Zn	-1.484651	0.134837	-0.166938
Zn34	Zn	-1.234651	0.384837	0.083062
Zn35	Zn	-0.984651	0.634837	0.333062
Zn36	Zn	-0.734651	0.884837	0.583062
O37	O	-1.475770	-0.102291	-0.332080
O38	O	-1.225770	0.147709	-0.082080
O39	O	-0.975770	0.397709	0.167920
O40	O	-0.725770	0.647709	0.417920
C41	C	-1.255083	0.000021	-0.173425
C42	C	-1.005083	0.250021	0.076575
C43	C	-0.755083	0.500021	0.326575
C44	C	-0.505083	0.750021	0.576575
C45	C	-1.115648	0.000020	-0.170095
C46	C	-0.865648	0.250020	0.079905
C47	C	-0.615648	0.500020	0.329905
C48	C	-0.365648	0.750020	0.579905
N49	N	-1.484625	-0.318806	-0.166923
N50	N	-1.234625	-0.068806	0.083077
N51	N	-0.984625	0.181194	0.333077
N52	N	-0.734625	0.431194	0.583077
C53	C	-1.050139	-0.111534	-0.168524
C54	C	-0.800139	0.138466	0.081476
C55	C	-0.550139	0.388466	0.331476
C56	C	-0.300139	0.638466	0.581476
C57	C	-0.919128	-0.111537	-0.165377
C58	C	-0.669128	0.138463	0.084623
C59	C	-0.419128	0.388463	0.334623
C60	C	-0.169128	0.638463	0.584623
C61	C	-0.919146	0.111578	-0.165377
C62	C	-0.669146	0.361578	0.084623
C63	C	-0.419146	0.611578	0.334623
C64	C	-0.169146	0.861578	0.584623
C65	C	-1.050156	0.111579	-0.168516
C66	C	-0.800156	0.361579	0.081484
C67	C	-0.550156	0.611579	0.331484
C68	C	-0.300156	0.861579	0.581484
C69	C	-1.484644	-0.569812	-0.166936
C70	C	-1.234644	-0.319812	0.083064
C71	C	-0.984644	-0.069812	0.333064
C72	C	-0.734644	0.180188	0.583064
C73	C	-1.484629	-0.430134	-0.166932
C74	C	-1.234629	-0.180134	0.083068
C75	C	-0.984629	0.069866	0.333068
C76	C	-0.734629	0.319866	0.583068
C77	C	-0.714196	0.000022	-0.160452
C78	C	-0.464196	0.250022	0.089548
C79	C	-0.214196	0.500022	0.339548
C80	C	0.035804	0.750022	0.589548
C81	C	-0.853627	0.000015	-0.163809
C82	C	-0.603627	0.250015	0.086191
C83	C	-0.353627	0.500015	0.336191
C84	C	-0.103627	0.750015	0.586191
C85	C	-1.492386	0.000014	0.040509
C86	C	-1.242386	0.250014	0.290509
C87	C	-0.992386	0.500014	0.540509
C88	C	-0.742386	0.750014	0.790509
C89	C	-1.489044	0.000015	0.166529
C90	C	-1.239044	0.250015	0.416529
C91	C	-0.989044	0.500015	0.666529
C92	C	-0.739044	0.750015	0.916529
N93	N	-1.484666	0.318851	-0.166936
N94	N	-1.234666	0.568851	0.083064
N95	N	-0.984666	0.818851	0.333064
N96	N	-0.734666	1.068851	0.583064
C97	C	-1.476895	0.000034	-0.374377
C98	C	-1.226895	0.250034	-0.124377
C99	C	-0.976895	0.500034	0.125623
C100	C	-0.726895	0.750034	0.375623
C101	C	-1.480237	0.000040	-0.500397
C102	C	-1.230237	0.250040	-0.250397
C103	C	-0.980237	0.500040	-0.000397
C104	C	-0.730237	0.750040	0.249603
C105	C	-1.486329	0.000020	0.268872
C106	C	-1.236329	0.250020	0.518872
C107	C	-0.986329	0.500020	0.768872
C108	C	-0.736329	0.750020	1.018872
C109	C	-1.482933	0.000031	0.397266
C110	C	-1.232933	0.250031	0.647266
C111	C	-0.982933	0.500031	0.897266
C112	C	-0.732933	0.750031	1.147266
H113	H	-1.103459	-0.202373	-0.169810
H114	H	-0.853459	0.047627	0.080190
H115	H	-0.603459	0.297627	0.330190
H116	H	-0.353459	0.547627	0.580190
H117	H	-1.103495	0.202425	-0.169792
H118	H	-0.853495	0.452425	0.080208
H119	H	-0.603495	0.702425	0.330208
H120	H	-0.353495	0.952425	0.580208
C121	C	-0.932322	0.332116	-0.165699
C122	C	-0.682322	0.582116	0.084301
C123	C	-0.432322	0.832116	0.334301
C124	C	-0.182322	1.082116	0.584301
C125	C	-0.847151	0.234201	-0.163659
C126	C	-0.597151	0.484201	0.086341
C127	C	-0.347151	0.734201	0.336341
C128	C	-0.097151	0.984201	0.586341
H129	H	-0.887875	0.407819	-0.164637
H130	H	-0.637875	0.657819	0.085363
H131	H	-0.387875	0.907819	0.335363
H132	H	-0.137875	1.157819	0.585363
H133	H	-0.974294	0.327476	-0.232988
H134	H	-0.724294	0.577476	0.017012
H135	H	-0.474294	0.827476	0.267012
H136	H	-0.224294	1.077476	0.517012
H137	H	-0.992549	0.327468	-0.100843
H138	H	-0.742549	0.577468	0.149157
H139	H	-0.492549	0.827468	0.399157
H140	H	-0.242549	1.077468	0.649157
H141	H	-0.786930	0.238844	-0.228520
H142	H	-0.536930	0.488844	0.021480
H143	H	-0.286930	0.738844	0.271480
H144	H	-0.036930	0.988844	0.521480
H145	H	-0.805158	0.238843	-0.096364
H146	H	-0.555158	0.488843	0.153636
H147	H	-0.305158	0.738843	0.403636
H148	H	-0.055158	0.988843	0.653636
H149	H	-0.865796	-0.202376	-0.164098
H150	H	-0.615796	0.047624	0.085902
H151	H	-0.365796	0.297624	0.335902
H152	H	-0.115796	0.547624	0.585902
