data_functionalizedCrystal
_audit_creation_method	'MofGen! by Chris Wilmer'
_symmetry_space_group_name_H-M	'P1'
_symmetry_Int_Tables_number	1
_symmetry_cell_setting	triclinic
loop_
_symmetry_equiv_pos_as_xyz
  x,y,z
_cell_length_a	23.532407
_cell_length_b	23.532407
_cell_length_c	22.610064
_cell_angle_alpha	89.984707
_cell_angle_beta	89.987421
_cell_angle_gamma	97.151322
loop_
_atom_site_label
_atom_site_type_symbol
_atom_site_fract_x
_atom_site_fract_y
_atom_site_fract_z
O1	O	0.755249	-0.069141	0.049117
O2	O	0.589386	-0.079144	0.049135
O3	O	0.677319	0.008789	0.049114
O4	O	0.667316	-0.157074	0.049137
O5	O	0.677332	0.008804	-0.049255
O6	O	0.589399	-0.079129	-0.049234
O7	O	0.755262	-0.069126	-0.049252
Zn8	Zn	0.672333	-0.074125	-0.064862
Zn9	Zn	0.672315	-0.074145	0.064744
O10	O	0.667329	-0.157059	-0.049232
C11	C	0.677071	0.030013	-0.000072
C12	C	0.676305	0.093230	-0.000076
C13	C	0.568176	-0.078882	-0.000048
C14	C	0.504959	-0.078116	-0.000041
N15	N	0.672304	-0.074154	0.153196
C16	C	0.105856	-0.125350	-0.000061
C17	C	0.046456	-0.124638	-0.000065
O18	O	0.009711	-0.168424	-0.000081
N19	N	0.023830	-0.072362	-0.000071
C20	C	0.060607	-0.020794	-0.000080
O21	O	0.035908	0.023737	-0.000086
C22	C	0.120006	-0.021506	-0.000080
C23	C	0.142629	-0.073785	-0.000068
C24	C	0.128479	-0.177625	-0.000050
C25	C	0.187876	-0.178336	-0.000045
C26	C	0.224649	-0.126772	-0.000052
C27	C	0.202025	-0.074496	-0.000063
C28	C	0.156783	0.030062	-0.000093
C29	C	0.216185	0.029345	-0.000094
C30	C	0.238808	-0.022934	-0.000082
C31	C	0.298194	-0.023643	-0.000065
N32	N	0.320820	-0.075920	-0.000059
C33	C	0.284048	-0.127484	-0.000052
C34	C	-0.064135	-0.019302	-0.000080
C35	C	-0.123533	-0.018589	-0.000075
C36	C	-0.137680	-0.122434	-0.000061
C37	C	-0.078281	-0.123146	-0.000062
C38	C	-0.041509	-0.071578	-0.000074
C39	C	0.408784	-0.128974	-0.000042
C40	C	0.468186	-0.129680	-0.000034
C41	C	0.482329	-0.025836	-0.000051
C42	C	0.422932	-0.025129	-0.000055
C43	C	0.386160	-0.076702	-0.000052
O44	O	0.334974	0.020119	-0.000052
O45	O	0.308755	-0.172007	-0.000054
C46	C	0.776472	-0.069388	-0.000069
C47	C	0.839689	-0.070154	-0.000071
C48	C	0.667577	-0.178283	-0.000045
C49	C	0.668343	-0.241500	-0.000036
C50	C	0.723539	0.492333	-0.000049
C51	C	0.722827	0.551733	-0.000044
O52	O	0.766613	0.588478	-0.000027
N53	N	0.670551	0.574359	-0.000039
C54	C	0.618983	0.537582	-0.000032
O55	O	0.574452	0.562281	-0.000027
C56	C	0.619695	0.478182	-0.000033
C57	C	0.671974	0.455560	-0.000044
C58	C	0.775814	0.469710	-0.000060
C59	C	0.776525	0.410313	-0.000065
C60	C	0.724961	0.373540	-0.000060
C61	C	0.672685	0.396164	-0.000050
C62	C	0.568127	0.441406	-0.000022
C63	C	0.568844	0.382004	-0.000021
C64	C	0.621123	0.359381	-0.000033
C65	C	0.621832	0.299995	-0.000050
N66	N	0.674109	0.277369	-0.000056
C67	C	0.725673	0.314141	-0.000061
C68	C	0.617491	0.662324	-0.000031
C69	C	0.616778	0.721722	-0.000034
C70	C	0.720623	0.735869	-0.000045
C71	C	0.721335	0.676470	-0.000046
C72	C	0.669767	0.639698	-0.000036
C73	C	0.727163	0.189405	-0.000073
C74	C	0.727869	0.130003	-0.000081
C75	C	0.624025	0.115860	-0.000067
C76	C	0.623318	0.175257	-0.000062
C77	C	0.674891	0.212029	-0.000063
O78	O	0.578070	0.263215	-0.000065
O79	O	0.770196	0.289434	-0.000058
N80	N	0.672349	-0.074111	-0.153314
C81	C	0.711350	-0.035273	0.561829
C82	C	0.711354	-0.035270	0.623749
O83	O	0.744544	-0.002236	0.655760
N84	N	0.672345	-0.074126	0.654734
C85	C	0.633332	-0.112990	0.623795
O86	O	0.600152	-0.146040	0.655836
C87	C	0.633331	-0.112995	0.561877
C88	C	0.672339	-0.074133	0.530895
C89	C	0.750356	0.003585	0.530847
C90	C	0.750351	0.003583	0.468931
C91	C	0.711340	-0.035278	0.437998
C92	C	0.672334	-0.074136	0.468979
C93	C	0.594321	-0.151862	0.530940
C94	C	0.594324	-0.151864	0.469017
C95	C	0.633332	-0.113002	0.438035
C96	C	0.633318	-0.112998	0.376130
N97	N	0.672328	-0.074143	0.345145
C98	C	0.711339	-0.035283	0.376079
C99	C	0.633338	-0.112977	0.753829
C100	C	0.633336	-0.112970	0.815747
C101	C	0.711359	-0.035251	0.815696
C102	C	0.711358	-0.035256	0.753777
C103	C	0.672348	-0.074122	0.722844
C104	C	0.711325	-0.035290	0.246051
C105	C	0.711314	-0.035294	0.184130
C106	C	0.633293	-0.113015	0.184187
C107	C	0.633301	-0.113009	0.246102
C108	C	0.672322	-0.074144	0.277033
O109	O	0.600147	-0.146017	0.344079
O110	O	0.744518	-0.002244	0.344030
H111	H	0.486602	-0.172255	-0.000024
H112	H	0.526850	0.352066	-0.000013
N113	N	0.591224	-0.154920	0.279519
H114	H	0.612792	-0.180074	0.305208
H115	H	0.566193	-0.133191	0.305178
H116	H	-0.167632	-0.164421	-0.000059
H117	H	0.512280	0.016146	-0.000054
N118	N	0.753396	0.006618	0.150717
H119	H	0.747476	0.000723	0.106797
H120	H	0.747128	0.047010	0.161530
N121	N	-0.147930	0.037797	-0.000077
H122	H	-0.115616	0.070352	-0.000081
H123	H	-0.172255	0.040363	-0.036546
N124	N	0.792429	0.045510	0.564203
H125	H	0.786517	0.039627	0.608132
H126	H	0.832770	0.039062	0.553371
N127	N	0.777722	0.652072	-0.000054
H128	H	0.780338	0.627754	-0.036520
H129	H	0.810243	0.684417	-0.000037
H130	H	0.562557	-0.183515	0.443834
H131	H	0.770444	0.111587	-0.000092
N132	N	0.753410	0.006626	0.279407
H133	H	0.778116	0.031240	0.250377
H134	H	0.731808	0.031744	0.305096
N135	N	0.561868	0.622664	-0.000025
H136	H	0.528647	0.646015	-0.000023
H137	H	0.559904	0.597721	-0.036492
H138	H	0.574207	0.740136	-0.000035
N139	N	0.511739	0.465797	-0.000017
H140	H	0.479187	0.433480	-0.000013
H141	H	0.509171	0.490122	0.036450
H142	H	0.743122	-0.003612	0.728555
H143	H	0.743125	-0.003609	0.840893
H144	H	0.580748	0.193677	-0.000069
N145	N	0.369129	-0.184598	-0.000053
H146	H	0.392482	-0.217818	-0.000048
H147	H	0.344160	-0.186581	0.036409
N148	N	0.832910	0.385913	-0.000063
H149	H	0.835534	0.361594	-0.036527
H150	H	0.865433	0.418257	-0.000039
H151	H	0.769159	0.219337	-0.000071
H152	H	0.246123	0.071339	-0.000104
N153	N	-0.024475	0.036321	-0.000089
H154	H	-0.047826	0.069542	-0.000093
H155	H	0.000471	0.038286	0.036377
N156	N	0.792439	0.045489	0.435527
H157	H	0.770889	0.070652	0.409831
H158	H	0.817138	0.070057	0.464571
H159	H	0.817806	0.499645	-0.000061
N160	N	0.132392	0.086450	-0.000109
H161	H	0.164709	0.119002	-0.000118
H162	H	0.108068	0.089011	-0.036579
N163	N	0.398527	0.031256	-0.000057
H164	H	0.430838	0.063814	-0.000058
H165	H	0.374204	0.033821	-0.036528
N166	N	0.776241	0.775538	-0.000051
H167	H	0.767853	0.816598	-0.000047
H168	H	0.799034	0.768236	0.036413
N169	N	0.568411	0.076193	-0.000078
H170	H	0.576799	0.035133	-0.000085
H171	H	0.545602	0.083466	0.036390
N172	N	0.591254	-0.154875	0.849159
H173	H	0.566541	-0.179490	0.820161
H174	H	0.612856	-0.179992	0.874852
H175	H	0.601529	-0.144653	0.158991
H176	H	0.562557	-0.183507	0.556156
N177	N	0.591253	-0.154892	0.720468
H178	H	0.566541	-0.179501	0.749496
H179	H	0.566247	-0.133162	0.694779
H180	H	0.098544	-0.219617	-0.000046
N181	N	0.212264	-0.234728	-0.000032
H182	H	0.198838	-0.257294	-0.036495
H183	H	0.255470	-0.227320	-0.000008
N184	N	-0.053883	-0.179533	-0.000047
H185	H	-0.086197	-0.212087	-0.000040
H186	H	-0.029539	-0.182090	-0.036513
