data_functionalizedCrystal
_audit_creation_method	'MofGen! by Chris Wilmer'
_symmetry_space_group_name_H-M	'P1'
_symmetry_Int_Tables_number	1
_symmetry_cell_setting	triclinic
loop_
_symmetry_equiv_pos_as_xyz
  x,y,z
_cell_length_a	14.908783
_cell_length_b	18.050590
_cell_length_c	14.908308
_cell_angle_alpha	86.735264
_cell_angle_beta	90.211273
_cell_angle_gamma	93.309344
loop_
_atom_site_label
_atom_site_type_symbol
_atom_site_fract_x
_atom_site_fract_y
_atom_site_fract_z
Zn1	Zn	1.345325	-0.259750	0.587820
Zn2	Zn	1.845325	0.240250	1.087820
Zn3	Zn	1.353911	-0.376401	0.437456
Zn4	Zn	1.853911	0.123599	0.937456
Zn5	Zn	1.203639	-0.258946	0.428792
Zn6	Zn	1.703639	0.241054	0.928792
Zn7	Zn	1.194937	-0.390621	0.579078
Zn8	Zn	1.694937	0.109379	1.079078
O9	O	1.274453	-0.321430	0.508287
O10	O	1.774453	0.178570	1.008287
O11	O	1.472292	-0.269609	0.575159
O12	O	1.972292	0.230391	1.075159
O13	O	1.341212	-0.354532	0.310484
O14	O	1.841212	0.145468	0.810484
O15	O	1.222482	-0.155127	0.449920
O16	O	1.722482	0.344873	0.949920
O17	O	1.478600	-0.355312	0.464688
O18	O	1.978600	0.144688	0.964688
O19	O	1.326579	-0.155718	0.566758
O20	O	1.826579	0.344282	1.066758
O21	O	1.230807	-0.268239	0.304118
O22	O	1.730807	0.231761	0.804118
O23	O	1.076657	-0.282028	0.441442
O24	O	1.576657	0.217972	0.941442
O25	O	1.207652	-0.379549	0.706060
O26	O	1.707652	0.120451	1.206060
O27	O	1.070264	-0.378770	0.551857
O28	O	1.570264	0.121230	1.051857
O29	O	1.318141	-0.283398	0.712484
O30	O	1.818141	0.216602	1.212484
O31	O	1.332774	-0.482212	0.456210
O32	O	1.832774	0.017788	0.956210
O33	O	1.215977	-0.492660	0.560258
O34	O	1.715977	0.007340	1.060258
C35	C	1.040835	-0.331855	0.494761
C36	C	1.540835	0.168145	0.994761
C37	C	0.940890	-0.336335	0.488996
C38	C	1.440890	0.163665	0.988996
C39	C	0.746504	-0.255648	0.593373
C40	C	1.246504	0.244352	1.093373
C41	C	0.652598	-0.259854	0.587960
C42	C	1.152598	0.240146	1.087960
C43	C	0.659169	-0.348949	0.472751
C44	C	1.159169	0.151051	0.972751
C45	C	0.753076	-0.344742	0.478165
C46	C	1.253076	0.155258	0.978165
C47	C	0.796740	-0.298091	0.538479
C48	C	1.296740	0.201909	1.038479
C49	C	0.890648	-0.293890	0.543897
C50	C	1.390648	0.206110	1.043897
C51	C	0.897218	-0.382980	0.428684
C52	C	1.397218	0.117020	0.928684
C53	C	0.803311	-0.387186	0.423271
C54	C	1.303311	0.112814	0.923271
C55	C	1.274386	-0.514383	0.508247
C56	C	1.774386	-0.014383	1.008247
C57	C	1.274438	-0.596927	0.508264
C58	C	1.774438	-0.096927	1.008264
C59	C	1.338072	-0.790668	0.451774
C60	C	1.838072	-0.290668	0.951774
C61	C	1.355299	-0.843138	0.535104
C62	C	1.855299	-0.343138	1.035104
C63	C	1.274487	-0.748057	0.508303
C64	C	1.774487	-0.248057	1.008303
C65	C	1.257349	-0.842666	0.425015
C66	C	1.757349	-0.342666	0.925015
C67	C	1.274536	-0.894041	0.508334
C68	C	1.774536	-0.394041	1.008334
C69	C	1.291753	-0.799440	0.591679
C70	C	1.791753	-0.299440	1.091679
C71	C	1.193768	-0.798963	0.481532
C72	C	1.693768	-0.298963	0.981532
C73	C	1.210961	-0.851415	0.564918
C74	C	1.710961	-0.351415	1.064918
C75	C	1.274461	-0.663959	0.508285
C76	C	1.774461	-0.163959	1.008285
C77	C	1.274562	-0.978138	0.508361
C78	C	1.774562	-0.478138	1.008361
C79	C	1.508984	-0.310964	0.521865
C80	C	2.008984	0.189036	1.021865
C81	C	1.608927	-0.306504	0.527652
C82	C	2.108927	0.193496	1.027652
C83	C	1.260968	-0.333149	0.742809
C84	C	1.760968	0.166851	1.242809
C85	C	1.255222	-0.338144	0.842748
C86	C	1.755222	0.161856	1.342748
C87	C	1.274544	-0.127723	0.508348
C88	C	1.774544	0.372277	1.008348
C89	C	1.274582	-0.045176	0.508374
C90	C	1.774582	0.454824	1.008374
C91	C	1.287937	-0.309699	0.274680
C92	C	1.787937	0.190301	0.774680
C93	C	1.293858	-0.304488	0.174751
C94	C	1.793858	0.195512	0.674751
C95	C	1.359474	-0.247389	1.037235
C96	C	1.859474	0.252611	1.537235
C97	C	1.354077	-0.252079	1.131137
C98	C	1.854077	0.247921	1.631137
C99	C	1.239028	-0.352209	1.124456
C100	C	1.739028	0.147791	1.624456
C101	C	1.244425	-0.347519	1.030554
C102	C	1.744425	0.152481	1.530554
C103	C	1.304651	-0.295108	0.986947
C104	C	1.804651	0.204892	1.486947
C105	C	1.310051	-0.290423	0.893043
C106	C	1.810051	0.209577	1.393043
C107	C	1.194998	-0.390548	0.886363
C108	C	1.694998	0.109452	1.386363
C109	C	1.189602	-0.395238	0.980266
C110	C	1.689602	0.104762	1.480266
H111	H	0.767747	-0.425165	0.374162
H112	H	1.267747	0.074835	0.874162
F113	F	1.412427	-0.201289	1.184654
F114	F	1.912427	0.298711	1.684654
F115	F	0.950688	-0.428159	0.370263
F116	F	1.450688	0.071841	0.870263
F117	F	0.937117	-0.244242	0.608089
F118	F	1.437117	0.255758	1.108089
F119	F	1.423578	-0.191618	0.990824
F120	F	1.923578	0.308382	1.490824
H121	H	0.782056	-0.217666	0.642487
H122	H	1.282056	0.282334	1.142487
F123	F	1.104542	-0.773466	0.451885
F124	F	1.604542	-0.273466	0.951885
F125	F	1.238375	-0.867618	0.332935
F126	F	1.738375	-0.367618	0.832935
F127	F	0.599136	-0.214678	0.646384
F128	F	1.099136	0.285322	1.146384
F129	F	1.174931	-0.407979	1.170880
F130	F	1.674931	0.092021	1.670880
H131	H	1.150359	-0.429407	0.845409
H132	H	1.650359	0.070593	1.345409
F133	F	1.140700	-0.885864	0.627493
F134	F	1.640700	-0.385864	1.127493
F135	F	1.125507	-0.451013	1.026685
F136	F	1.625507	0.048987	1.526685
H137	H	0.623602	-0.386921	0.423637
H138	H	1.123602	0.113079	0.923637
H139	H	1.391859	-0.764182	0.404022
H140	H	1.891859	-0.264182	0.904022
H141	H	1.423582	-0.862630	0.557766
H142	H	1.923582	-0.362630	1.057766
H143	H	1.306197	-0.780449	0.662184
H144	H	1.806197	-0.280449	1.162184
H145	H	1.359091	-0.247748	0.857540
H146	H	1.859091	0.252252	1.357540
