data_functionalizedCrystal
_audit_creation_method	'MofGen! by Chris Wilmer'
_symmetry_space_group_name_H-M	'P1'
_symmetry_Int_Tables_number	1
_symmetry_cell_setting	triclinic
loop_
_symmetry_equiv_pos_as_xyz
  x,y,z
_cell_length_a	8.559649
_cell_length_b	11.792254
_cell_length_c	7.088929
_cell_angle_alpha	83.733108
_cell_angle_beta	95.325015
_cell_angle_gamma	76.988631
loop_
_atom_site_label
_atom_site_type_symbol
_atom_site_fract_x
_atom_site_fract_y
_atom_site_fract_z
O1	O	2.103507	-0.025390	-0.158956
O2	O	1.638813	0.033181	-0.158967
O3	O	1.882428	-0.162306	-0.158948
O4	O	1.859892	0.170098	-0.158976
O5	O	1.914984	-0.188484	0.159030
O6	O	1.671369	0.007004	0.159010
O7	O	2.136063	-0.051567	0.159022
Cu8	Cu	1.906689	-0.024672	0.188050
Cu9	Cu	1.868187	0.006286	-0.187996
O10	O	1.892448	0.143920	0.159002
C11	C	1.595600	0.024531	0.000020
C12	C	1.418335	0.037743	0.000016
C13	C	1.897286	-0.217556	0.000040
C14	C	1.893038	-0.343180	0.000038
C15	C	1.889585	-0.445200	0.000031
C16	C	1.885267	-0.573190	0.000014
C17	C	2.179276	-0.042917	0.000030
C18	C	2.356540	-0.056128	0.000021
C19	C	1.877589	0.199170	0.000010
C20	C	1.881837	0.324795	-0.000001
N21	N	1.933780	-0.046448	0.452540
N22	N	1.841108	0.028052	-0.452486
H23	H	1.439247	-0.146602	0.000019
O24	O	1.319447	0.145599	0.000084
C25	C	1.158528	0.135233	0.000025
H26	H	1.157679	0.041724	0.060233
H27	H	1.094790	0.156247	-0.152530
C28	C	1.071038	0.336689	0.050758
C29	C	1.069995	0.221842	0.124722
H30	H	1.016422	0.390117	0.127669
H31	H	1.179451	0.343675	0.050791
H32	H	1.017926	0.354184	-0.076369
H33	H	1.123124	0.204344	0.251838
H34	H	0.961588	0.214855	0.124713
H35	H	1.745065	0.105256	0.465860
O36	O	2.048283	-0.138689	0.549741
C37	C	2.016141	-0.244659	0.501020
H38	H	1.939801	-0.227238	0.355646
H39	H	1.947741	-0.281944	0.613657
C40	C	2.270312	-0.354977	0.670575
C41	C	2.176562	-0.333582	0.492016
H42	H	2.369266	-0.409831	0.665029
H43	H	2.291965	-0.283584	0.703407
H44	H	2.213294	-0.386042	0.764420
H45	H	2.233572	-0.302504	0.398180
H46	H	2.154922	-0.404972	0.459169
