data_functionalizedCrystal
_audit_creation_method	'MofGen! by Chris Wilmer'
_symmetry_space_group_name_H-M	'P1'
_symmetry_Int_Tables_number	1
_symmetry_cell_setting	triclinic
loop_
_symmetry_equiv_pos_as_xyz
  x,y,z
_cell_length_a	12.811438
_cell_length_b	12.837942
_cell_length_c	14.048226
_cell_angle_alpha	90.002943
_cell_angle_beta	95.436309
_cell_angle_gamma	89.411773
loop_
_atom_site_label
_atom_site_type_symbol
_atom_site_fract_x
_atom_site_fract_y
_atom_site_fract_z
O1	O	1.406651	0.139684	0.200585
O2	O	1.102585	0.154872	0.174339
O3	O	1.247875	-0.003654	0.186874
O4	O	1.261360	0.298210	0.188050
O5	O	1.247860	-0.003655	0.028551
O6	O	1.102569	0.154871	0.016016
O7	O	1.406635	0.139682	0.042262
Zn8	Zn	1.254600	0.147277	0.004002
Zn9	Zn	1.254620	0.147278	0.212599
O10	O	1.261345	0.298209	0.029727
C11	C	1.063388	0.154021	0.091795
C12	C	0.946614	0.151472	0.081716
C13	C	0.782020	0.147879	-0.018787
C14	C	0.891738	0.150274	-0.009321
C15	C	0.891764	0.150277	0.163292
C16	C	0.782045	0.147881	0.153826
C17	C	0.727177	0.146681	0.062783
C18	C	0.617456	0.144278	0.053318
C19	C	0.617483	0.144288	0.225930
C20	C	0.727202	0.146683	0.235396
C21	C	1.243312	-0.042295	0.107320
C22	C	1.229726	-0.157430	0.106149
C23	C	1.393057	-0.397684	0.120267
C24	C	1.380296	-0.505865	0.119167
C25	C	1.191446	-0.481975	0.102856
C26	C	1.204206	-0.373794	0.103956
C27	C	1.305015	-0.331653	0.112660
C28	C	1.317774	-0.223470	0.113753
C29	C	1.128925	-0.199582	0.097449
C30	C	1.116164	-0.307763	0.096350
C31	C	1.445832	0.140534	0.124808
C32	C	1.562606	0.143083	0.134894
C33	C	1.265908	0.336850	0.109283
C34	C	1.279494	0.451985	0.110461
N35	N	1.254593	0.147275	-0.138359
C36	C	1.324569	0.210487	-0.182130
C37	C	1.324582	0.210483	-0.281787
C38	C	1.254614	0.147271	-0.337671
C39	C	1.184635	0.084051	-0.293893
C40	C	1.184628	0.084050	-0.194238
C41	C	1.184653	0.084058	-0.501606
C42	C	1.184658	0.084059	-0.601268
C43	C	1.324607	0.210490	-0.589155
C44	C	1.324600	0.210490	-0.489500
C45	C	1.254620	0.147271	-0.445729
N46	N	1.254634	0.147272	0.354961
H47	H	0.737345	0.146908	-0.092918
H48	H	1.399858	-0.189161	0.120837
H49	H	0.936387	0.151253	-0.075744
H50	H	0.936456	0.151263	0.237414
C51	C	0.628534	0.144518	0.397506
C52	C	0.557199	0.142965	0.315601
H53	H	0.591315	0.143690	0.452862
H54	H	0.669357	0.205857	0.397445
H55	H	0.673299	0.085049	0.397763
H56	H	0.512440	0.202438	0.315340
H57	H	0.516359	0.081619	0.315662
C58	C	0.895406	0.150350	0.326552
C59	C	0.787520	0.147996	0.335466
H60	H	0.932640	0.151151	0.388333
H61	H	0.911413	0.211146	0.292486
H62	H	0.915334	0.090338	0.292802
H63	H	0.767590	0.208013	0.369209
H64	H	0.771506	0.087194	0.369546
C65	C	1.046306	-0.040906	-0.523585
C66	C	1.107725	0.014572	-0.453491
H67	H	0.998809	-0.083793	-0.493879
H68	H	1.090383	-0.083168	-0.558641
H69	H	1.008058	0.006624	-0.565763
H70	H	1.145979	-0.032958	-0.411317
H71	H	1.063642	0.056838	-0.418419
C72	C	1.462942	0.335456	-0.487530
C73	C	1.401511	0.279972	-0.428069
H74	H	1.510429	0.378344	-0.449603
H75	H	1.418871	0.377719	-0.530205
H76	H	1.501200	0.287931	-0.523098
H77	H	1.363246	0.327497	-0.392507
H78	H	1.445588	0.237706	-0.385378
C79	C	1.578446	-0.432160	0.136280
C80	C	1.503861	-0.351355	0.129837
H81	H	1.646852	-0.403557	0.142195
H82	H	1.569542	-0.473856	0.080303
H83	H	1.569536	-0.473858	0.190723
H84	H	1.512766	-0.309661	0.075389
H85	H	1.512769	-0.309641	0.185819
C86	C	1.475509	-0.641368	0.208783
C87	C	1.477075	-0.578447	0.127528
H88	H	1.535264	-0.686171	0.213948
H89	H	1.413658	-0.681949	0.203434
H90	H	1.476562	-0.598652	0.264076
H91	H	1.476015	-0.621162	0.072234
H92	H	1.538942	-0.537862	0.132870
C93	C	1.164178	-0.055454	-0.715124
C94	C	1.107753	0.014569	-0.662694
H95	H	1.116696	-0.098350	-0.753049
H96	H	1.208246	-0.097708	-0.672440
H97	H	1.205846	-0.017790	-0.755454
H98	H	1.066091	-0.023096	-0.622359
H99	H	1.063666	0.056827	-0.705383
H100	H	1.109372	-0.516306	0.095780
C101	C	1.466433	0.217662	-0.057788
C102	C	1.401479	0.279974	-0.120704
H103	H	1.513911	0.260563	-0.019865
H104	H	1.504692	0.170156	-0.093359
H105	H	1.424744	0.180022	-0.017459
H106	H	1.443167	0.317609	-0.161038
H107	H	1.363217	0.327499	-0.085130
H108	H	1.034089	-0.342090	0.089267
H109	H	1.057235	-0.145807	0.091248
C110	C	1.046287	-0.040911	-0.216215
C111	C	1.107704	0.014570	-0.146121
H112	H	0.998795	-0.083803	-0.186508
H113	H	1.090366	-0.083168	-0.251273
H114	H	1.008034	0.006618	-0.258390
H115	H	1.145963	-0.032959	-0.103949
H116	H	1.063619	0.056830	-0.111046
H117	H	1.127670	0.032577	-0.339401
H118	H	1.381565	0.261955	-0.317420
H119	H	0.572784	0.143308	-0.020814
H120	H	1.381584	0.261970	-0.624798
