data_functionalizedCrystal
_audit_creation_method	'MofGen! by Chris Wilmer'
_symmetry_space_group_name_H-M	'P1'
_symmetry_Int_Tables_number	1
_symmetry_cell_setting	triclinic
loop_
_symmetry_equiv_pos_as_xyz
  x,y,z
_cell_length_a	17.699083
_cell_length_b	17.699083
_cell_length_c	16.176319
_cell_angle_alpha	89.992304
_cell_angle_beta	89.998611
_cell_angle_gamma	83.283015
loop_
_atom_site_label
_atom_site_type_symbol
_atom_site_fract_x
_atom_site_fract_y
_atom_site_fract_z
O1	O	1.004079	0.095713	-0.068632
O2	O	0.783700	0.108166	-0.068660
O3	O	0.900116	-0.008250	-0.068638
O4	O	0.887663	0.212129	-0.068654
O5	O	0.900100	-0.008257	0.068855
O6	O	0.783684	0.108158	0.068834
O7	O	1.004063	0.095706	0.068861
Cu8	Cu	0.893872	0.101931	0.081401
Cu9	Cu	0.893891	0.101940	-0.081200
O10	O	0.887647	0.212121	0.068839
C11	C	0.755495	0.107716	0.000084
C12	C	0.671477	0.106377	0.000073
C13	C	0.622856	0.174710	0.000069
C14	C	0.543913	0.173448	0.000079
C15	C	0.513592	0.103852	0.000089
C16	C	0.562219	0.035513	0.000096
C17	C	0.641161	0.036776	0.000091
C18	C	0.243856	0.030418	0.000117
C19	C	0.164908	0.029160	0.000120
C20	C	0.146608	0.167090	0.000105
C21	C	0.225550	0.168353	0.000100
C22	C	0.274170	0.100015	0.000112
C23	C	0.359769	0.101384	0.000102
C24	C	0.427995	0.102481	0.000093
C25	C	0.899662	-0.036451	0.000109
C26	C	0.898323	-0.120469	0.000109
C27	C	0.966656	-0.169090	0.000119
C28	C	0.965394	-0.248033	0.000111
C29	C	0.895798	-0.278354	0.000100
C30	C	0.827459	-0.229727	0.000088
C31	C	0.828722	-0.150785	0.000089
C32	C	0.822364	-0.548090	0.000080
C33	C	0.821106	-0.627038	0.000081
C34	C	0.959036	-0.645338	0.000102
C35	C	0.960299	-0.566396	0.000104
C36	C	0.891961	-0.517776	0.000087
C37	C	0.893330	-0.432177	0.000094
C38	C	0.894427	-0.363951	0.000099
C39	C	1.032268	0.096156	0.000116
C40	C	1.116286	0.097494	0.000121
C41	C	0.888102	0.240322	0.000091
C42	C	0.889440	0.324340	0.000085
N43	N	0.893864	0.101925	0.195767
N44	N	0.893905	0.101941	-0.195565
C45	C	0.945429	0.050397	0.239040
C46	C	0.945432	0.050396	0.325588
C47	C	0.893875	0.101927	0.368859
C48	C	0.842305	0.153457	0.325579
C49	C	0.842299	0.153454	0.239034
C50	C	0.842331	0.153472	0.674608
C51	C	0.842344	0.153473	0.761159
C52	C	0.945465	0.050414	0.761161
C53	C	0.945458	0.050410	0.674616
C54	C	0.893886	0.101937	0.631344
C55	C	0.893882	0.101937	0.537499
C56	C	0.893883	0.101932	0.462702
H57	H	0.680748	-0.018868	0.000095
H58	H	0.987416	0.008438	0.203814
H59	H	0.283434	-0.025228	0.000127
O60	O	0.786717	0.209051	0.627939
H61	H	0.750876	0.244889	0.672571
O62	O	0.755017	-0.098344	0.000087
H63	H	0.752294	-0.061937	-0.055956
H64	H	1.014680	-0.684934	0.000111
H65	H	0.987444	0.008451	0.639387
O66	O	1.001061	-0.005166	0.372265
H67	H	1.036922	-0.040988	0.327636
O68	O	0.746034	-0.659738	0.000064
H69	H	0.742149	-0.695264	0.056109
O70	O	0.258246	0.243422	0.000096
H71	H	0.293767	0.247308	-0.055949
H72	H	0.987456	0.008455	0.796403
H73	H	0.766718	-0.508512	0.000067
O74	O	0.752391	-0.262423	0.000084
H75	H	0.762991	-0.325485	0.000097
O76	O	0.094169	0.240803	0.000111
H77	H	0.034181	0.228237	0.000128
O78	O	0.132203	-0.045909	0.000135
H79	H	0.096669	-0.049773	0.056174
O80	O	1.041726	-0.136395	0.000126
H81	H	1.045603	-0.100880	0.056169
H82	H	1.021038	-0.287618	0.000121
O83	O	0.786745	0.209066	0.807836
H84	H	0.750882	0.244897	0.763208
H85	H	0.800323	0.195413	0.360816
H86	H	0.800309	0.195412	0.203801
H87	H	0.647537	0.231384	0.000060
H88	H	1.016971	-0.541714	0.000117
H89	H	0.537526	-0.021154	0.000116
H90	H	0.504328	0.229092	0.000075
