data_functionalizedCrystal
_audit_creation_method	'MofGen! by Chris Wilmer'
_symmetry_space_group_name_H-M	'P1'
_symmetry_Int_Tables_number	1
_symmetry_cell_setting	triclinic
loop_
_symmetry_equiv_pos_as_xyz
  x,y,z
_cell_length_a	11.169417
_cell_length_b	14.908183
_cell_length_c	11.169409
_cell_angle_alpha	86.666262
_cell_angle_beta	89.980176
_cell_angle_gamma	93.315623
loop_
_atom_site_label
_atom_site_type_symbol
_atom_site_fract_x
_atom_site_fract_y
_atom_site_fract_z
Zn1	Zn	1.807326	-0.359096	-0.650931
Zn2	Zn	1.795601	-0.510002	-0.438644
Zn3	Zn	1.606607	-0.359151	-0.450261
Zn4	Zn	1.595011	-0.509929	-0.639295
O5	O	1.701136	-0.434544	-0.544783
O6	O	1.973719	-0.379122	-0.622779
O7	O	1.770477	-0.490045	-0.272231
O8	O	1.642993	-0.232888	-0.486612
O9	O	1.965105	-0.489992	-0.466812
O10	O	1.790460	-0.232848	-0.634043
O11	O	1.631624	-0.379215	-0.280766
O12	O	1.437120	-0.379144	-0.475329
O13	O	1.623228	-0.489867	-0.808792
O14	O	1.428600	-0.489920	-0.614211
O15	O	1.779215	-0.379050	-0.817341
O16	O	1.759232	-0.636248	-0.455529
O17	O	1.611859	-0.636194	-0.602946
C18	C	1.389312	-0.434531	-0.544768
C19	C	1.255911	-0.434547	-0.544789
C20	C	1.683048	-0.668958	-0.526741
C21	C	1.675419	-0.769241	-0.519062
C22	C	1.587952	-0.910681	-0.431418
C23	C	1.595115	-0.816457	-0.438630
C24	C	1.748562	-0.816256	-0.592291
C25	C	1.741399	-0.910481	-0.585080
C26	C	1.661093	-0.957690	-0.504639
C27	C	1.653937	-1.051917	-0.497422
C28	C	1.807377	-1.051715	-0.651089
C29	C	1.814540	-0.957490	-0.658300
C30	C	2.014177	-0.434559	-0.544798
C31	C	2.147577	-0.434565	-0.544804
C32	C	1.701236	-0.434444	-0.857833
C33	C	1.701278	-0.434402	-0.991236
C34	C	1.719328	-0.199216	-0.562921
C35	C	1.727080	-0.098933	-0.570651
C36	C	1.701111	-0.434579	-0.232955
C37	C	1.701320	-0.434368	-0.099572
H38	H	1.588549	-1.090353	-0.431921
H39	H	1.522570	-0.949120	-0.365913
H40	H	1.535556	-0.778184	-0.379008
H41	H	1.813938	-0.777806	-0.657792
N42	N	1.901162	-0.906575	-0.745053
H43	H	1.881238	-0.922935	-0.829537
H44	H	1.894568	-0.839766	-0.738414
N45	N	1.886248	-1.102397	-0.730118
H46	H	1.973266	-1.085952	-0.712836
H47	H	1.869438	-1.169240	-0.713337
