data_functionalizedCrystal
_audit_creation_method	'MofGen! by Chris Wilmer'
_symmetry_space_group_name_H-M	'P1'
_symmetry_Int_Tables_number	1
_symmetry_cell_setting	triclinic
loop_
_symmetry_equiv_pos_as_xyz
  x,y,z
_cell_length_a	8.559649
_cell_length_b	16.776229
_cell_length_c	17.699092
_cell_angle_alpha	89.995030
_cell_angle_beta	76.532516
_cell_angle_gamma	89.992917
loop_
_atom_site_label
_atom_site_type_symbol
_atom_site_fract_x
_atom_site_fract_y
_atom_site_fract_z
O1	O	2.120232	-0.066276	-0.025680
O2	O	2.620232	0.433724	0.474320
O3	O	1.654879	-0.066279	0.013416
O4	O	2.154879	0.433721	0.513416
O5	O	1.900696	-0.066275	-0.117073
O6	O	2.400696	0.433725	0.382927
O7	O	1.874415	-0.066279	0.104809
O8	O	2.374415	0.433721	0.604809
O9	O	1.900663	0.066301	-0.117079
O10	O	2.400663	0.566301	0.382921
O11	O	1.654846	0.066298	0.013410
O12	O	2.154846	0.566298	0.513410
O13	O	2.120199	0.066301	-0.025686
O14	O	2.620199	0.566301	0.474314
Zn15	Zn	1.887517	0.087349	-0.006138
Zn16	Zn	2.387517	0.587349	0.493862
Zn17	Zn	1.887560	-0.087327	-0.006131
Zn18	Zn	2.387560	0.412673	0.493869
O19	O	1.874382	0.066297	0.104804
O20	O	2.374382	0.566297	0.604804
C21	C	1.595321	0.000009	0.016376
C22	C	2.095321	0.500009	0.516376
C23	C	1.417907	0.000008	0.025195
C24	C	1.917907	0.500008	0.525195
N25	N	1.887500	0.206560	-0.006144
N26	N	2.387500	0.706560	0.493856
N27	N	1.887591	-0.206538	-0.006132
N28	N	2.387591	0.293462	0.493868
C29	C	2.179757	0.000011	-0.028646
C30	C	2.679757	0.500011	0.471354
C31	C	2.357171	0.000008	-0.037465
C32	C	2.857171	0.500008	0.462535
C33	C	1.899735	0.000012	-0.145219
C34	C	2.399735	0.500012	0.354781
C35	C	1.896904	0.000008	-0.229075
C36	C	2.396904	0.500008	0.270925
C37	C	1.996381	0.248279	-0.063906
C38	C	2.496381	0.748279	0.436094
C39	C	1.996390	0.331731	-0.063907
C40	C	2.496390	0.831731	0.436093
C41	C	1.887524	0.373463	-0.006143
C42	C	2.387524	0.873463	0.493857
C43	C	1.778631	0.331738	0.051622
C44	C	2.278631	0.831738	0.551622
C45	C	1.778616	0.248288	0.051619
C46	C	2.278616	0.748288	0.551619
C47	C	1.778689	0.668285	0.051633
C48	C	2.278689	1.168285	0.551633
C49	C	1.778716	0.751742	0.051633
C50	C	2.278716	1.251742	0.551633
C51	C	1.996463	0.751729	-0.063893
C52	C	2.496463	1.251729	0.436107
C53	C	1.996447	0.668278	-0.063895
C54	C	2.496447	1.168278	0.436105
C55	C	1.887550	0.626561	-0.006134
C56	C	2.387550	1.126561	0.493866
C57	C	1.887540	0.536072	-0.006134
C58	C	2.387540	1.036072	0.493866
C59	C	1.887541	0.463950	-0.006139
C60	C	2.387541	0.963950	0.493861
C61	C	1.895595	-0.072260	-0.268463
C62	C	2.395595	0.427740	0.231537
C63	C	1.892924	-0.072261	-0.347253
C64	C	2.392924	0.427739	0.152747
C65	C	1.891573	0.000007	-0.386655
C66	C	2.391573	0.500007	0.113345
C67	C	1.892877	0.072281	-0.347260
C68	C	2.392877	0.572281	0.152740
C69	C	1.895537	0.072281	-0.268470
C70	C	2.395537	0.572281	0.231530
C71	C	1.882150	0.072282	-0.665011
C72	C	2.382150	0.572282	-0.165011
C73	C	1.879495	0.072276	-0.743807
C74	C	2.379495	0.572276	-0.243807
C75	C	1.879536	-0.072260	-0.743794
C76	C	2.379536	0.427740	-0.243794
C77	C	1.882196	-0.072260	-0.665004
C78	C	2.382196	0.427740	-0.165004
C79	C	1.883491	0.000013	-0.625615
C80	C	2.383491	0.500013	-0.125615
C81	C	1.886385	0.000013	-0.540182
C82	C	2.386385	0.500013	-0.040182
C83	C	1.888691	0.000008	-0.472088
C84	C	2.388691	0.500008	0.027912
C85	C	1.875342	0.000009	0.132949
C86	C	2.375342	0.500009	0.632949
C87	C	1.878174	0.000007	0.216805
C88	C	2.378174	0.500007	0.716805
H89	H	1.440898	0.000005	-0.097858
H90	H	1.940898	0.500005	0.402142
C91	C	1.304800	0.000005	0.106787
C92	C	1.804800	0.500005	0.606787
H93	H	1.196394	0.000009	0.102213
H94	H	1.696394	0.500009	0.602213
H95	H	1.324119	-0.046226	0.134244
H96	H	1.824119	0.453774	0.634244
H97	H	1.324092	0.046245	0.134236
H98	H	1.824092	0.546245	0.634236
C99	C	1.883688	-0.151753	-0.621664
C100	C	2.383688	0.348247	-0.121664
H101	H	1.885475	-0.141402	-0.569100
H102	H	2.385475	0.358598	-0.069100
H103	H	1.790101	-0.181451	-0.623387
H104	H	2.290101	0.318549	-0.123387
H105	H	1.976437	-0.181443	-0.645763
H106	H	2.476437	0.318557	-0.145763
C107	C	1.883603	0.151779	-0.621696
C108	C	2.383603	0.651779	-0.121696
H109	H	1.882440	0.194817	-0.656451
H110	H	2.382440	0.694817	-0.156451
H111	H	1.791481	0.154791	-0.579773
H112	H	2.291481	0.654791	-0.079773
H113	H	1.977817	0.154781	-0.602151
H114	H	2.477817	0.654781	-0.102151
C115	C	2.116133	0.202381	-0.127448
C116	C	2.616133	0.702381	0.372552
H117	H	2.180968	0.239182	-0.161853
H118	H	2.680968	0.739182	0.338147
H119	H	2.182547	0.169814	-0.104068
H120	H	2.682547	0.669814	0.395932
H121	H	2.058750	0.169840	-0.155639
H122	H	2.558750	0.669840	0.344361
C123	C	1.658831	0.377637	0.115143
C124	C	2.158831	0.877637	0.615143
H125	H	1.593959	0.340837	0.149533
H126	H	2.093959	0.840837	0.649533
H127	H	1.716151	0.410193	0.143345
H128	H	2.216151	0.910193	0.643345
H129	H	1.592434	0.410189	0.091731
H130	H	2.092434	0.910189	0.591731
H131	H	2.085047	0.365698	-0.110941
H132	H	2.585047	0.865698	0.389059
H133	H	1.891768	0.131123	-0.379346
H134	H	2.391768	0.631123	0.120654
C135	C	1.658854	0.202397	0.115159
C136	C	2.158854	0.702397	0.615159
H137	H	1.594029	0.239202	0.149566
H138	H	2.094029	0.739202	0.649566
H139	H	1.592431	0.169853	0.091774
H140	H	2.092431	0.669853	0.591774
H141	H	1.716223	0.169833	0.143348
H142	H	2.216223	0.669833	0.643348
H143	H	2.085101	0.634302	-0.110930
H144	H	2.585101	1.134302	0.389070
H145	H	1.896703	-0.131110	-0.236389
H146	H	2.396703	0.368890	0.263611
H147	H	1.891864	-0.131109	-0.379321
H148	H	2.391864	0.368891	0.120679
H149	H	1.690024	0.634326	0.098666
H150	H	2.190024	1.134326	0.598666
H151	H	2.085128	0.785704	-0.110928
H152	H	2.585128	1.285704	0.389072
H153	H	1.878473	-0.131109	-0.775873
H154	H	2.378473	0.368891	-0.275873
C155	C	1.658955	0.797650	0.115172
C156	C	2.158955	1.297650	0.615172
H157	H	1.674577	0.853324	0.106903
H158	H	2.174577	1.353324	0.606903
H159	H	1.552326	0.783991	0.113116
H160	H	2.052326	1.283991	0.613116
H161	H	1.676107	0.783964	0.164697
H162	H	2.176107	1.283964	0.664697
H163	H	1.878391	0.131129	-0.775885
H164	H	2.378391	0.631129	-0.275885
C165	C	1.896981	0.151776	-0.225143
C166	C	2.396981	0.651776	0.274857
H167	H	1.895809	0.194817	-0.259894
H168	H	2.395809	0.694817	0.240106
H169	H	1.804855	0.154779	-0.183221
H170	H	2.304855	0.654779	0.316779
H171	H	1.991191	0.154782	-0.205595
H172	H	2.491191	0.654782	0.294405
