data_functionalizedCrystal
_audit_creation_method	'MofGen! by Chris Wilmer'
_symmetry_space_group_name_H-M	'P1'
_symmetry_Int_Tables_number	1
_symmetry_cell_setting	triclinic
loop_
_symmetry_equiv_pos_as_xyz
  x,y,z
_cell_length_a	10.654550
_cell_length_b	15.995350
_cell_length_c	9.130313
_cell_angle_alpha	89.997713
_cell_angle_beta	89.999724
_cell_angle_gamma	83.988653
loop_
_atom_site_label
_atom_site_type_symbol
_atom_site_fract_x
_atom_site_fract_y
_atom_site_fract_z
O1	O	1.666303	0.117603	-0.121682
O2	O	1.300678	0.128807	-0.121708
O3	O	1.493485	0.001375	-0.121693
O4	O	1.473496	0.245034	-0.121697
O5	O	1.493472	0.001371	0.121906
O6	O	1.300665	0.128803	0.121891
O7	O	1.666290	0.117599	0.121917
Cu8	Cu	1.483476	0.123201	0.144146
Cu9	Cu	1.483492	0.123205	-0.143938
O10	O	1.473483	0.245031	0.121902
C11	C	1.253884	0.127982	0.000088
C12	C	1.114473	0.125521	0.000078
C13	C	1.034008	0.200551	0.000080
C14	C	0.903017	0.198233	0.000106
C15	C	0.932971	0.045849	0.000120
C16	C	1.063959	0.048168	0.000105
C17	C	1.492652	-0.029826	0.000103
C18	C	1.490175	-0.122791	0.000095
C19	C	1.481277	-0.460590	0.000099
C20	C	1.343964	-0.413954	-0.000457
C21	C	1.346442	-0.317249	0.000092
C22	C	1.485691	-0.293004	0.000096
C23	C	1.553411	-0.333690	0.139205
C24	C	1.549962	-0.430346	0.139322
C25	C	1.552813	-0.430684	-0.137696
C26	C	1.552781	-0.333738	-0.139534
C27	C	1.488192	-0.198292	0.000100
C28	C	1.478780	-0.555303	0.000106
C29	C	1.713084	0.118423	0.000118
C30	C	1.852495	0.120885	0.000118
C31	C	1.474316	0.276232	0.000102
C32	C	1.476793	0.369197	0.000101
N33	N	1.483475	0.123197	0.346769
N34	N	1.483504	0.123202	-0.346560
C35	C	1.568878	0.066794	0.423427
C36	C	1.568890	0.066794	0.576764
C37	C	1.398091	0.179608	0.576770
C38	C	1.398074	0.179603	0.423436
H39	H	1.129478	-0.012934	0.000106
N40	N	1.687296	-0.312619	-0.150667
H41	H	1.688057	-0.249631	-0.156871
H42	H	1.735943	-0.334509	-0.061231
H43	H	1.075132	0.263537	0.000069
H44	H	0.837506	0.259330	0.000111
H45	H	0.891826	-0.017129	0.000150
N46	N	1.275928	-0.279999	-0.131990
H47	H	1.242950	-0.326396	-0.191095
H48	H	1.202901	-0.239067	-0.098653
N49	N	1.305992	0.240442	0.659474
H50	H	1.353983	0.277816	0.723074
H51	H	1.251903	0.276115	0.587552
H52	H	1.638432	0.020865	0.639175
H53	H	1.289319	-0.433866	0.098738
N54	N	1.660954	0.005937	0.340738
H55	H	1.647983	0.014488	0.231968
H56	H	1.750048	0.016149	0.367513
N57	N	1.305946	0.240433	0.340741
H58	H	1.251852	0.276170	0.412574
H59	H	1.354004	0.277747	0.277100
H60	H	1.289086	-0.432803	-0.100215
N61	N	1.487284	-0.297947	-0.275847
H62	H	1.549037	-0.269540	-0.337623
H63	H	1.454466	-0.344829	-0.333849
N64	N	1.275451	-0.280744	0.132398
H65	H	1.242430	-0.327483	0.190595
H66	H	1.334058	-0.250556	0.195672
N67	N	1.493359	-0.458227	-0.277364
H68	H	1.557755	-0.495574	-0.335144
H69	H	1.419438	-0.490342	-0.252603
H70	H	1.650775	-0.462009	0.145636
N71	N	1.484538	-0.454980	0.277054
H72	H	1.458204	-0.403072	0.337120
H73	H	1.407461	-0.483379	0.249978
H74	H	1.655713	-0.318971	0.144382
N75	N	1.491099	-0.296451	0.276320
H76	H	1.399522	-0.307563	0.277698
H77	H	1.535432	-0.323043	0.365171
H78	H	1.654054	-0.461856	-0.138627
