data_functionalizedCrystal
_audit_creation_method	'MofGen! by Chris Wilmer'
_symmetry_space_group_name_H-M	'P1'
_symmetry_Int_Tables_number	1
_symmetry_cell_setting	triclinic
loop_
_symmetry_equiv_pos_as_xyz
  x,y,z
_cell_length_a	21.606444
_cell_length_b	21.606444
_cell_length_c	21.606444
_cell_angle_alpha	60.001331
_cell_angle_beta	90.002531
_cell_angle_gamma	59.999398
loop_
_atom_site_label
_atom_site_type_symbol
_atom_site_fract_x
_atom_site_fract_y
_atom_site_fract_z
Zr1	Zr	0.596223	0.677450	-0.081192
O2	O	0.497392	0.806573	-0.180016
O3	O	0.626521	0.548331	-0.050900
O4	O	0.626513	0.677455	-0.180018
O5	O	0.497405	0.677445	0.050957
O6	O	0.728365	0.677455	-0.180016
O7	O	0.497400	0.677449	-0.050897
O8	O	0.728379	0.446475	0.050953
O9	O	0.497391	0.908424	-0.180012
O10	O	0.715453	0.601438	-0.037976
O11	O	0.639445	0.601435	0.038036
O12	O	0.639436	0.753462	-0.113985
O13	O	0.563429	0.753459	-0.037973
Zr14	Zr	0.758673	0.677443	0.081256
Zr15	Zr	0.758665	0.677450	-0.081189
Zr16	Zr	0.596231	0.677443	0.081254
Zr17	Zr	0.596221	0.839891	-0.081186
Zr18	Zr	0.758675	0.515003	0.081251
O19	O	0.728375	0.806563	0.050964
O20	O	0.728364	0.806573	-0.180012
O21	O	0.497404	0.806563	0.050961
O22	O	0.857505	0.548321	0.180081
O23	O	0.857493	0.548330	-0.050896
O24	O	0.626533	0.548321	0.180077
O25	O	0.857491	0.677449	-0.050892
O26	O	0.728383	0.677439	0.180083
O27	O	0.626531	0.677439	0.180081
O28	O	0.857497	0.677444	0.050962
O29	O	0.626511	0.908424	-0.180010
O30	O	0.728386	0.446470	0.180075
O31	O	0.857506	0.446470	0.180077
O32	O	0.857499	0.446475	0.050955
O33	O	0.497397	0.908418	-0.050890
O34	O	0.626517	0.908418	-0.050888
O35	O	0.715460	0.601432	0.114049
O36	O	0.791467	0.601435	0.038038
O37	O	0.715451	0.753459	-0.037971
O38	O	0.639444	0.753455	0.038041
C39	C	0.677450	0.474259	0.000026
C40	C	0.677451	0.405299	0.000024
C41	C	0.717124	0.372903	-0.039655
C42	C	0.717127	0.308103	-0.039650
C43	C	0.677452	0.275704	0.000030
C44	C	0.637777	0.308103	0.039713
C45	C	0.637779	0.372897	0.039712
C46	C	0.637768	0.046794	0.039719
C47	C	0.637767	-0.018003	0.039716
C48	C	0.717116	-0.018001	-0.039642
C49	C	0.717118	0.046793	-0.039643
C50	C	0.677447	0.079183	0.000043
C51	C	0.677446	0.149445	0.000038
C52	C	0.677448	0.205448	0.000031
C53	C	0.474258	0.677447	0.000029
C54	C	0.405297	0.677447	0.000028
C55	C	0.372896	0.677452	-0.056086
C56	C	0.308102	0.677448	-0.056083
C57	C	0.275707	0.677445	0.000031
C58	C	0.308114	0.677437	0.056151
C59	C	0.372910	0.677435	0.056151
C60	C	0.046800	0.677443	0.056154
C61	C	-0.018001	0.677448	0.056148
C62	C	-0.018008	0.677456	-0.056080
C63	C	0.046788	0.677454	-0.056081
C64	C	0.079192	0.677442	0.000041
C65	C	0.149449	0.677445	0.000038
C66	C	0.205447	0.677448	0.000032
C67	C	0.880639	0.677447	0.000036
C68	C	0.949599	0.677447	0.000037
C69	C	0.677438	0.677456	-0.203162
C70	C	0.677434	0.677459	-0.272125
C71	C	0.677446	0.880635	0.000039
C72	C	0.677445	0.949595	0.000041
C73	C	0.637754	0.756813	-0.344199
C74	C	0.637761	0.756810	-0.408994
C75	C	0.677443	0.677453	-0.401713
C76	C	0.717129	0.598092	-0.329631
C77	C	0.717126	0.598096	-0.264837
C78	C	0.717141	0.598077	-0.590934
C79	C	0.717138	0.598080	-0.655734
C80	C	0.637775	0.756792	-0.735090
C81	C	0.637773	0.756795	-0.670297
C82	C	0.677461	0.677435	-0.598221
C83	C	0.677454	0.677439	-0.527963
C84	C	0.677446	0.677448	-0.471969
C85	C	0.677459	0.677438	0.203227
C86	C	0.677462	0.677435	0.272189
C87	C	0.880641	0.474259	0.000029
C88	C	0.949602	0.405298	0.000028
C89	C	0.677461	0.474250	0.203220
C90	C	0.677465	0.405287	0.272181
C91	C	0.880651	0.474250	0.203224
C92	C	0.949616	0.405287	0.272185
C93	C	0.474245	0.880644	-0.203159
C94	C	0.405280	0.949607	-0.272120
C95	C	0.474256	0.880635	0.000036
C96	C	0.405294	0.949595	0.000037
C97	C	0.677436	0.880644	-0.203156
C98	C	0.677432	0.949607	-0.272116
C99	C	0.942309	0.372916	-0.039658
C100	C	1.007099	0.308129	-0.039674
C101	C	1.079183	0.275722	0.000000
C102	C	1.086475	0.308111	0.039687
C103	C	1.021685	0.372901	0.039698
C104	C	0.717146	0.372899	0.344250
C105	C	0.717147	0.308110	0.409052
C106	C	0.677471	0.275706	0.401782
C107	C	0.637785	0.308099	0.329705
C108	C	0.637780	0.372892	0.264905
C109	C	1.021685	0.372902	0.264893
C110	C	1.086491	0.308113	0.329683
C111	C	1.079227	0.275705	0.401764
C112	C	1.007151	0.308096	0.409055
C113	C	0.942346	0.372888	0.344266
C114	C	0.333212	0.981999	-0.264828
C115	C	0.268405	1.046808	-0.329618
C116	C	0.275669	1.079220	-0.401700
C117	C	0.347745	1.046825	-0.408990
C118	C	0.412550	0.982022	-0.344201
C119	C	0.412588	0.981985	0.039716
C120	C	0.347797	1.046789	0.039714
C121	C	0.275714	1.079198	0.000038
C122	C	0.268421	1.046806	-0.039646
C123	C	0.333211	0.982008	-0.039648
C124	C	0.717115	0.981991	-0.264822
C125	C	0.717126	1.046781	-0.329611
C126	C	0.677448	1.079189	-0.401693
C127	C	0.637764	1.046798	-0.408986
C128	C	0.637758	0.982006	-0.344197
H129	H	0.605469	0.073154	0.072037
N130	N	0.325358	0.947053	-0.187091
H131	H	0.296740	0.996490	-0.181021
H132	H	0.377366	0.901069	-0.147190
N133	N	1.149122	0.205816	0.471646
H134	H	1.180308	0.228369	0.471673
H135	H	1.180247	0.152080	0.471625
H136	H	0.209724	1.073173	-0.323667
N137	N	0.081757	0.677407	0.116694
H138	H	0.051403	0.677401	0.152242
H139	H	0.081670	0.731365	0.092174
N140	N	0.205772	1.149111	-0.471580
H141	H	0.174588	1.202873	-0.471601
H142	H	0.174648	1.126479	-0.471561
N143	N	0.759919	1.081721	-0.321741
H144	H	0.799856	1.070440	-0.346843
H145	H	0.784997	1.051350	-0.266232
N146	N	0.759924	0.512500	-0.321776
H147	H	0.785061	0.462229	-0.266283
H148	H	0.799813	0.509039	-0.346929
H149	H	0.605477	0.281715	0.072025
N150	N	0.677449	1.149084	-0.471567
H151	H	0.646291	1.164707	-0.518342
H152	H	0.731211	1.126479	-0.471521
N153	N	0.407858	0.677424	0.116680
H154	H	0.369602	0.731387	0.114234
H155	H	0.453829	0.677385	0.108136
N156	N	1.164222	0.273170	0.321806
H157	H	1.204179	0.227206	0.373784
H158	H	1.170220	0.322656	0.293142
H159	H	0.677481	0.222947	0.454553
N160	N	0.594949	0.842406	-0.352055
H161	H	0.569815	0.892676	-0.407548
H162	H	0.631380	0.845864	-0.326898
N163	N	0.759927	0.947033	-0.187082
H164	H	0.753910	0.901070	-0.147138
H165	H	0.739104	0.996514	-0.181074
H166	H	0.471276	0.955602	0.072031
N167	N	0.594986	0.407848	0.082503
H168	H	0.631383	0.396567	0.122431
H169	H	0.569851	0.377480	0.107591
N170	N	0.594981	-0.052959	0.082521
H171	H	0.539473	-0.003528	0.061718
H172	H	0.615865	-0.079862	0.138018
H173	H	0.399264	0.677460	-0.101784
H174	H	0.471230	0.955649	-0.350147
N175	N	0.273155	0.677451	-0.116606
H176	H	0.303506	0.677459	-0.152156
H177	H	0.219285	0.731419	-0.146030
N178	N	0.081724	0.677465	-0.116607
H179	H	0.051366	0.677466	-0.152156
H180	H	0.135593	0.623497	-0.092069
H181	H	0.605456	0.821416	-0.676233
N182	N	-0.052945	0.677456	-0.116611
H183	H	-0.068654	0.731426	-0.168122
H184	H	-0.098880	0.677420	-0.108036
H185	H	-0.044375	0.677444	0.101847
N186	N	0.594985	0.842415	-0.486720
H187	H	0.539475	0.877127	-0.492807
H188	H	0.601066	0.830328	-0.526632
H189	H	0.353651	1.073223	-0.467687
H190	H	0.749438	0.533478	-0.206151
N191	N	0.355668	1.081730	0.082507
H192	H	0.330551	1.070472	0.122433
H193	H	0.330569	1.146761	0.046056
N194	N	0.864566	0.407859	-0.082451
H195	H	0.869788	0.377509	-0.107593
H196	H	0.835951	0.472905	-0.122336
N197	N	0.205836	1.149088	0.000044
H198	H	0.221402	1.164683	0.031205
H199	H	0.174679	1.126490	0.022609
H200	H	0.281737	0.677429	0.101844
H201	H	0.209722	1.073204	-0.071950
H202	H	1.001248	0.281699	0.467753
H203	H	0.327262	0.955638	-0.071958
H204	H	0.605459	1.073196	-0.467684
N205	N	0.594948	0.947089	-0.352077
H206	H	0.539444	0.996538	-0.380707
H207	H	0.601017	0.901112	-0.300077
N208	N	0.759912	0.407851	-0.082458
H209	H	0.785045	0.377492	-0.107592
H210	H	0.799804	0.396574	-0.046028
H211	H	0.605461	0.821410	-0.793784
N212	N	0.759949	0.512484	-0.647882
H213	H	0.785095	0.462209	-0.592390
H214	H	0.799832	0.509041	-0.673041
H215	H	0.605482	0.281706	0.323797
H216	H	0.749432	0.281726	-0.071958
H217	H	0.883667	0.399247	0.350214
H218	H	0.749421	-0.044382	-0.071954
N219	N	0.759909	0.081737	-0.082445
H220	H	0.815416	0.032299	-0.061632
H221	H	0.753830	0.127713	-0.076415
N222	N	0.759945	0.512487	-0.513201
H223	H	0.785081	0.462216	-0.518424
H224	H	0.723516	0.509027	-0.484587
H225	H	1.027635	0.399259	0.072020
H226	H	1.001147	0.281766	-0.071992
H227	H	1.145174	0.281716	0.071988
N228	N	1.149060	0.205843	-0.000017
H229	H	1.133495	0.190250	-0.031179
H230	H	1.180224	0.152115	0.053739
H231	H	0.605470	0.399253	0.206225
H232	H	0.749466	0.281743	0.467734
N233	N	0.759944	0.407840	0.352102
H234	H	0.785076	0.377486	0.407595
H235	H	0.723510	0.472886	0.326944
H236	H	1.027614	0.399280	0.206206
