data_functionalizedCrystal
_audit_creation_method	'MofGen! by Chris Wilmer'
_symmetry_space_group_name_H-M	'P1'
_symmetry_Int_Tables_number	1
_symmetry_cell_setting	triclinic
loop_
_symmetry_equiv_pos_as_xyz
  x,y,z
_cell_length_a	12.759401
_cell_length_b	19.805405
_cell_length_c	12.759393
_cell_angle_alpha	89.962372
_cell_angle_beta	89.981504
_cell_angle_gamma	90.026572
loop_
_atom_site_label
_atom_site_type_symbol
_atom_site_fract_x
_atom_site_fract_y
_atom_site_fract_z
Zn1	Zn	1.606170	-0.269420	-0.593937
Zn2	Zn	1.606028	-0.382625	-0.418239
Zn3	Zn	1.430472	-0.269456	-0.418276
Zn4	Zn	1.430425	-0.382573	-0.593880
O5	O	1.518274	-0.326019	-0.506083
O6	O	1.753172	-0.284444	-0.570638
O7	O	1.582701	-0.367650	-0.271222
O8	O	1.453858	-0.174735	-0.441618
O9	O	1.753068	-0.367615	-0.441553
O10	O	1.582942	-0.174708	-0.570675
O11	O	1.453720	-0.284505	-0.271250
O12	O	1.283445	-0.284454	-0.441563
O13	O	1.453777	-0.367527	-0.740909
O14	O	1.283410	-0.367561	-0.570578
O15	O	1.582896	-0.284394	-0.740951
O16	O	1.582655	-0.477335	-0.441498
O17	O	1.453640	-0.477297	-0.570541
C18	C	1.245306	-0.326006	-0.506069
C19	C	1.128530	-0.326017	-0.506088
C20	C	1.518155	-0.501875	-0.506032
C21	C	1.518201	-0.577107	-0.506046
C22	C	1.073677	-0.369360	-0.573155
C23	C	0.963953	-0.369369	-0.573166
C24	C	0.963944	-0.282689	-0.439034
C25	C	1.073666	-0.282678	-0.439029
C26	C	1.073681	-0.419406	-0.650592
C27	C	0.963957	-0.419414	-0.650603
C28	C	1.585444	-0.612448	-0.438923
C29	C	1.585489	-0.683137	-0.438946
C30	C	1.518284	-0.718482	-0.506088
C31	C	1.451038	-0.683136	-0.573217
C32	C	1.450999	-0.612449	-0.573199
C33	C	1.451193	-0.968209	-0.573295
C34	C	1.451234	-1.038901	-0.573306
C35	C	1.585683	-1.038897	-0.439043
C36	C	1.585644	-0.968210	-0.439024
C37	C	1.518402	-0.932870	-0.506157
C38	C	1.518356	-0.856221	-0.506133
C39	C	1.518324	-0.795129	-0.506108
C40	C	1.792307	-0.326032	-0.506098
C41	C	1.909084	-0.326037	-0.506104
C42	C	1.518347	-0.325950	-0.780117
C43	C	1.518379	-0.325921	-0.896893
C44	C	1.518421	-0.149476	-0.506157
C45	C	1.518484	-0.074244	-0.506189
C46	C	1.585620	-0.282630	-0.951779
C47	C	1.585645	-0.282605	-1.061503
C48	C	1.451184	-0.369170	-1.061446
C49	C	1.451154	-0.369190	-0.951724
C50	C	1.663254	-0.232655	-0.951812
C51	C	1.663279	-0.232630	-1.061537
C52	C	1.518261	-0.326038	-0.233116
C53	C	1.518433	-0.325876	-0.116340
H54	H	1.118323	-0.247379	-0.384423
C55	C	1.378241	-0.721596	-0.646175
C56	C	1.437712	-0.762126	-0.713556
C57	C	1.370684	-0.797570	-0.780769
H58	H	1.338164	-0.690501	-0.686251
H59	H	1.332518	-0.749254	-0.605979
H60	H	1.483418	-0.734470	-0.753748
H61	H	1.477788	-0.793234	-0.673510
H62	H	1.324961	-0.825229	-0.740573
H63	H	1.330610	-0.766470	-0.820837
H64	H	1.411025	-0.825078	-0.826488
C65	C	1.658681	-1.077390	-0.366296
C66	C	1.644368	-1.146860	-0.380709
C67	C	1.711610	-1.182338	-0.313732
H68	H	1.643420	-1.065940	-0.295640
H69	H	1.729272	-1.065789	-0.381758
H70	H	1.573793	-1.158456	-0.365240
H71	H	1.659637	-1.158330	-0.451351
H72	H	1.782201	-1.170737	-0.329194
H73	H	1.696343	-1.170883	-0.243080
H74	H	1.701915	-1.229477	-0.323509
C75	C	0.918482	-0.394580	-0.753747
C76	C	0.856749	-0.445529	-0.798176
C77	C	0.814829	-0.422672	-0.893181
H78	H	0.973849	-0.383328	-0.800387
H79	H	0.876534	-0.355768	-0.741408
H80	H	0.898694	-0.484329	-0.810519
H81	H	0.801365	-0.456787	-0.751566
H82	H	0.772881	-0.383860	-0.880842
H83	H	0.870203	-0.411420	-0.939812
H84	H	0.772931	-0.457235	-0.923334
H85	H	1.396244	-0.583674	-0.627858
C86	C	0.924401	-0.489327	-0.621273
C87	C	1.009898	-0.532083	-0.603320
C88	C	0.973500	-0.596486	-0.576288
H89	H	0.883081	-0.506879	-0.676862
H90	H	0.883045	-0.486460	-0.559505
H91	H	1.051237	-0.534952	-0.665081
H92	H	1.051227	-0.514553	-0.547726
H93	H	0.932144	-0.593618	-0.514520
H94	H	0.932179	-0.614031	-0.631881
H95	H	1.031503	-0.625502	-0.564094
C96	C	1.658524	-0.574198	-0.365982
C97	C	1.717442	-0.620283	-0.307225
C98	C	1.784787	-0.585074	-0.240031
H99	H	1.618461	-0.546667	-0.320070
H100	H	1.704322	-0.546592	-0.406180
H101	H	1.671650	-0.647878	-0.267031
H102	H	1.757526	-0.647815	-0.353110
H103	H	1.830584	-0.557467	-0.280228
H104	H	1.744715	-0.557544	-0.194125
H105	H	1.824777	-0.616336	-0.200163
C106	C	1.658793	-0.721482	-0.366335
C107	C	1.726140	-0.761909	-0.426015
C108	C	1.793770	-0.797208	-0.359203
H109	H	1.618933	-0.749202	-0.320427
H110	H	1.698863	-0.690280	-0.326447
H111	H	1.686073	-0.793108	-0.465885
H112	H	1.766023	-0.734207	-0.471921
H113	H	1.833841	-0.766006	-0.319315
H114	H	1.753902	-0.824924	-0.313298
H115	H	1.839479	-0.824637	-0.399686
H116	H	1.396396	-0.404440	-0.907040
H117	H	1.396450	-0.404396	-1.106103
H118	H	1.396509	-1.067677	-0.627989
H119	H	1.641502	-0.180237	-0.922065
H120	H	1.640365	-0.939434	-0.384348
C121	C	1.771711	-0.251299	-1.101457
C122	C	1.771462	-0.251201	-1.211190
C123	C	1.871331	-0.268382	-1.248001
H124	H	1.789954	-0.294991	-1.076743
H125	H	1.821386	-0.219317	-1.076717
H126	H	1.721804	-0.283182	-1.235919
H127	H	1.753239	-0.207516	-1.235931
H128	H	1.921005	-0.236400	-1.223261
H129	H	1.889565	-0.312073	-1.223280
H130	H	1.871178	-0.268312	-1.322457
C131	C	1.766279	-0.257593	-0.906268
C132	C	1.810882	-0.206699	-0.844573
C133	C	1.905780	-0.229652	-0.802588
H134	H	1.812898	-0.268873	-0.961603
H135	H	1.753771	-0.296404	-0.864282
H136	H	1.823394	-0.167900	-0.886557
H137	H	1.764293	-0.195413	-0.789222
H138	H	1.893272	-0.268464	-0.760602
H139	H	1.952390	-0.240932	-0.857930
H140	H	1.936050	-0.195127	-0.760716
H141	H	1.634181	-0.182825	-1.095593
C142	C	1.378232	-0.929936	-0.646338
C143	C	1.401032	-0.947080	-0.750312
C144	C	1.333824	-0.911842	-0.817627
H145	H	1.387757	-0.882763	-0.636864
H146	H	1.307643	-0.941586	-0.630954
H147	H	1.471603	-0.935425	-0.765690
H148	H	1.391501	-0.994246	-0.759819
H149	H	1.263235	-0.923492	-0.802243
H150	H	1.343354	-0.864671	-0.808143
H151	H	1.349278	-0.923474	-0.888179
C152	C	1.113295	-0.400857	-0.759229
C153	C	1.076559	-0.448132	-0.832035
C154	C	1.113016	-0.431062	-0.932120
H155	H	1.187741	-0.400861	-0.759381
H156	H	1.088479	-0.357205	-0.777589
H157	H	1.101381	-0.491772	-0.813679
H158	H	1.002117	-0.448135	-0.831915
H159	H	1.088200	-0.387410	-0.950481
H160	H	1.187462	-0.431065	-0.932262
H161	H	1.088089	-0.463131	-0.981533
H162	H	0.919260	-0.247404	-0.384438
H163	H	1.107680	-0.469175	-0.621299
