data_functionalizedCrystal
_audit_creation_method	'MofGen! by Chris Wilmer'
_symmetry_space_group_name_H-M	'P1'
_symmetry_Int_Tables_number	1
_symmetry_cell_setting	triclinic
loop_
_symmetry_equiv_pos_as_xyz
  x,y,z
_cell_length_a	8.597340
_cell_length_b	10.540539
_cell_length_c	7.088929
_cell_angle_alpha	83.715612
_cell_angle_beta	103.954719
_cell_angle_gamma	84.930270
loop_
_atom_site_label
_atom_site_type_symbol
_atom_site_fract_x
_atom_site_fract_y
_atom_site_fract_z
O1	O	2.103355	0.174327	0.187508
O2	O	1.638908	0.195048	0.110997
O3	O	1.881728	-0.000108	0.151001
O4	O	1.860535	0.369482	0.147505
O5	O	1.914178	-0.026247	0.474322
O6	O	1.671358	0.168909	0.434318
O7	O	2.135805	0.148187	0.510829
Cu8	Cu	1.906544	0.156161	0.502095
Cu9	Cu	1.868169	0.187074	0.119731
O10	O	1.892985	0.343343	0.470826
C11	C	1.595661	0.181209	0.262860
C12	C	1.418454	0.178902	0.233667
C13	C	1.896363	-0.060467	0.312396
C14	C	1.891607	-0.201374	0.311602
C15	C	1.709337	-0.383226	0.280862
C16	C	1.714230	-0.236707	0.282384
C17	C	1.995500	-0.278670	0.510297
C18	C	1.989462	-0.425176	0.509455
C19	C	1.956168	-0.395999	0.142373
C20	C	1.957557	-0.248833	0.140201
C21	C	2.179051	0.162026	0.358962
C22	C	2.356258	0.164334	0.388142
C23	C	1.878349	0.403702	0.309426
C24	C	1.883104	0.544611	0.310207
N25	N	1.933547	0.134418	0.771032
N26	N	1.841178	0.208807	-0.149204
H27	H	1.336123	0.189610	0.079064
H28	H	2.029295	0.057333	0.868462
H29	H	1.438580	0.153618	0.542735
Br30	Br	2.203478	-0.508035	0.558465
Br31	Br	1.614639	-0.450896	0.480416
Br32	Br	1.580141	-0.146925	0.043345
Br33	Br	1.681620	0.337301	0.688431
Br34	Br	1.623660	-0.184023	0.484766
Br35	Br	1.907395	-0.489906	0.722163
Br36	Br	1.570391	-0.412073	0.040935
H37	H	2.126450	-0.257955	0.538620
Br38	Br	1.919658	-0.225366	0.723029
H39	H	1.884715	-0.415760	-0.007024
H40	H	1.881390	-0.196413	-0.006675
Br41	Br	2.171235	-0.208745	0.157105
Br42	Br	2.169498	-0.476320	0.175476
