data_functionalizedCrystal
_audit_creation_method	'MofGen! by Chris Wilmer'
_symmetry_space_group_name_H-M	'P1'
_symmetry_Int_Tables_number	1
_symmetry_cell_setting	triclinic
loop_
_symmetry_equiv_pos_as_xyz
  x,y,z
_cell_length_a	14.044220
_cell_length_b	15.995292
_cell_length_c	13.101039
_cell_angle_alpha	93.364742
_cell_angle_beta	86.340132
_cell_angle_gamma	88.328747
loop_
_atom_site_label
_atom_site_type_symbol
_atom_site_fract_x
_atom_site_fract_y
_atom_site_fract_z
O1	O	1.262867	0.197639	-0.085092
O2	O	1.762867	0.697639	0.414908
O3	O	0.986901	0.190354	-0.085118
O4	O	1.486901	0.690354	0.414882
O5	O	1.132457	0.072671	-0.085106
O6	O	1.632457	0.572671	0.414894
O7	O	1.117312	0.315322	-0.085104
O8	O	1.617312	0.815322	0.414896
O9	O	1.122013	0.081130	0.085323
O10	O	1.622013	0.581130	0.585323
O11	O	0.976458	0.198812	0.085311
O12	O	1.476458	0.698812	0.585311
O13	O	1.252424	0.206098	0.085337
O14	O	1.752424	0.706098	0.585337
Zn15	Zn	1.112782	0.203798	0.112383
Zn16	Zn	1.612782	0.703798	0.612383
Zn17	Zn	1.126542	0.192653	-0.112164
Zn18	Zn	1.626542	0.692653	0.387836
O19	O	1.106868	0.323781	0.085325
O20	O	1.606868	0.823781	0.585325
C21	C	0.946366	0.191394	0.000093
C22	C	1.446366	0.691394	0.500093
C23	C	0.841143	0.181883	0.000082
C24	C	1.341143	0.681883	0.500082
C25	C	1.126619	0.045659	0.000106
C26	C	1.626619	0.545659	0.500106
C27	C	1.124771	-0.047433	0.000098
C28	C	1.624771	0.452567	0.500098
C29	C	0.648485	0.164495	0.000102
C30	C	1.148485	0.664495	0.500102
C31	C	0.590835	0.231952	0.000107
C32	C	1.090835	0.731952	0.500107
C33	C	0.483633	0.222278	0.000118
C34	C	0.983633	0.722278	0.500118
C35	C	0.755696	0.174169	0.000091
C36	C	1.255696	0.674169	0.500091
C37	C	1.117977	-0.385678	0.000107
C38	C	1.617977	0.114322	0.500107
C39	C	1.223012	-0.354499	0.000498
C40	C	1.723012	0.145501	0.500498
C41	C	1.225032	-0.257694	0.000110
C42	C	1.725032	0.242306	0.500110
C43	C	1.121348	-0.217871	0.000103
C44	C	1.621348	0.282129	0.500103
C45	C	1.074788	-0.255725	-0.097222
C46	C	1.574788	0.244275	0.402778
C47	C	1.073528	-0.352614	-0.097300
C48	C	1.573528	0.147386	0.402700
C49	C	1.059506	-0.343012	0.096509
C50	C	1.559506	0.156988	0.596509
C51	C	1.063321	-0.246165	0.097792
C52	C	1.563321	0.253835	0.597792
C53	C	1.123248	-0.123033	0.000097
C54	C	1.623248	0.376967	0.500097
C55	C	1.116074	-0.480516	0.000105
C56	C	1.616074	0.019484	0.500105
C57	C	1.292959	0.205057	0.000124
C58	C	1.792959	0.705057	0.500124
C59	C	1.398182	0.214569	0.000127
C60	C	1.898182	0.714569	0.500127
C61	C	1.112706	0.350793	0.000111
C62	C	1.612706	0.850793	0.500111
C63	C	1.114554	0.443884	0.000112
C64	C	1.614554	0.943884	0.500112
N65	N	1.103399	0.211404	0.265631
N66	N	1.603399	0.711404	0.765631
N67	N	1.135933	0.185041	-0.265412
N68	N	1.635933	0.685041	0.234588
C69	C	1.090632	0.221760	0.474672
C70	C	1.590632	0.721760	0.974672
C71	C	1.148697	0.174688	0.525553
C72	C	1.648697	0.674688	1.025553
C73	C	1.141594	0.180450	0.641871
C74	C	1.641594	0.680450	1.141871
C75	C	1.097734	0.215999	0.358344
C76	C	1.597734	0.715999	0.858344
H77	H	0.617330	0.099483	0.000108
H78	H	1.117330	0.599483	0.500108
N79	N	0.977240	-0.378373	-0.102831
N80	N	1.477240	0.121627	0.397169
N81	N	0.915220	-0.353562	-0.034208
N82	N	1.415220	0.146438	0.465792
H83	H	0.847218	-0.371753	-0.038114
H84	H	1.347218	0.128247	0.461886
H85	H	1.261893	-0.232134	0.069875
H86	H	1.761893	0.267866	0.569875
H87	H	0.998712	-0.229736	-0.100846
H88	H	1.498712	0.270264	0.399154
N89	N	1.217760	0.118695	0.470637
N90	N	1.717760	0.618695	0.970637
N91	N	1.191225	0.061574	0.410742
N92	N	1.691225	0.561574	0.910742
H93	H	1.240005	0.022032	0.371960
H94	H	1.740005	0.522032	0.871960
H95	H	1.259229	-0.376008	0.070294
H96	H	1.759229	0.123992	0.570294
N97	N	1.126117	-0.231649	-0.188071
N98	N	1.626117	0.268351	0.311929
N99	N	1.196993	-0.186634	-0.181393
N100	N	1.696993	0.313366	0.318607
H101	H	1.233250	-0.169630	-0.245553
H102	H	1.733250	0.330370	0.254447
H103	H	0.621991	0.296970	0.000103
H104	H	1.121991	0.796970	0.500103
H105	H	1.267534	-0.383954	-0.068900
H106	H	1.767534	0.116046	0.431100
N107	N	1.282314	-0.235086	-0.087557
N108	N	1.782314	0.264914	0.412443
N109	N	1.320917	-0.290839	-0.148650
N110	N	1.820917	0.209161	0.351350
H111	H	1.361374	-0.274874	-0.210571
H112	H	1.861374	0.225126	0.289429
N113	N	1.021572	0.277734	0.529608
N114	N	1.521572	0.777734	1.029608
N115	N	0.959086	0.249752	0.589505
N116	N	1.459086	0.749752	1.089505
H117	H	0.910313	0.289283	0.628315
H118	H	1.410313	0.789283	1.128315
N119	N	1.124753	-0.387369	-0.188564
N120	N	1.624753	0.112631	0.311436
N121	N	1.161185	-0.340037	-0.251756
N122	N	1.661185	0.159963	0.248244
H123	H	1.197365	-0.364579	-0.316214
H124	H	1.697365	0.135421	0.183786
H125	H	1.088071	-0.364968	0.170281
H126	H	1.588071	0.135032	0.670281
H127	H	1.097155	-0.221169	0.169793
H128	H	1.597155	0.278831	0.669793
H129	H	0.987282	-0.218557	0.103665
H130	H	1.487282	0.281443	0.603665
H131	H	0.982135	-0.362746	0.097160
H132	H	1.482135	0.137254	0.597160
