data_functionalizedCrystal
_audit_creation_method	'MofGen! by Chris Wilmer'
_symmetry_space_group_name_H-M	'P1'
_symmetry_Int_Tables_number	1
_symmetry_cell_setting	triclinic
loop_
_symmetry_equiv_pos_as_xyz
  x,y,z
_cell_length_a	14.044220
_cell_length_b	19.288864
_cell_length_c	18.366186
_cell_angle_alpha	90.020214
_cell_angle_beta	89.997710
_cell_angle_gamma	91.837439
loop_
_atom_site_label
_atom_site_type_symbol
_atom_site_fract_x
_atom_site_fract_y
_atom_site_fract_z
O1	O	0.118208	-0.928946	-0.060787
O2	O	0.451542	-0.595612	0.272546
O3	O	0.784875	-0.262279	0.605880
O4	O	0.134155	-0.727710	-0.060738
O5	O	0.467489	-0.394376	0.272596
O6	O	0.800822	-0.061043	0.605929
O7	O	-0.011790	-0.825307	-0.060755
O8	O	0.321543	-0.491974	0.272579
O9	O	0.654877	-0.158640	0.605912
O10	O	0.264153	-0.831348	-0.060770
O11	O	0.597487	-0.498015	0.272563
O12	O	0.930820	-0.164682	0.605896
O13	O	-0.011785	-0.825294	0.060345
O14	O	0.321548	-0.491960	0.393678
O15	O	0.654882	-0.158627	0.727012
O16	O	0.134160	-0.727696	0.060362
O17	O	0.467494	-0.394363	0.393695
O18	O	0.800827	-0.061030	0.727028
O19	O	0.118213	-0.928932	0.060312
O20	O	0.451547	-0.595599	0.393646
O21	O	0.784880	-0.262266	0.726979
Zn22	Zn	0.126188	-0.828312	0.079564
Zn23	Zn	0.459521	-0.494979	0.412897
Zn24	Zn	0.792854	-0.161645	0.746231
Zn25	Zn	0.126181	-0.828330	-0.079990
Zn26	Zn	0.459514	-0.494996	0.253344
Zn27	Zn	0.792848	-0.161663	0.586677
O28	O	0.264159	-0.831335	0.060329
O29	O	0.597492	-0.498001	0.393662
O30	O	0.930825	-0.164668	0.726996
C31	C	0.133645	-0.701793	-0.000182
C32	C	0.466978	-0.368460	0.333152
C33	C	0.800311	-0.035127	0.666485
C34	C	0.132104	-0.624591	-0.000163
C35	C	0.465438	-0.291258	0.333171
C36	C	0.798771	0.042076	0.666504
C37	C	-0.047091	-0.822656	-0.000204
C38	C	0.286243	-0.489323	0.333129
C39	C	0.619576	-0.155989	0.666463
C40	C	-0.152283	-0.814768	-0.000201
C41	C	0.181051	-0.481435	0.333132
C42	C	0.514384	-0.148102	0.666466
C43	C	0.118724	-0.954848	-0.000245
C44	C	0.452057	-0.621515	0.333088
C45	C	0.785391	-0.288182	0.666421
C46	C	0.120264	-1.032051	-0.000269
C47	C	0.453598	-0.698718	0.333064
C48	C	0.786931	-0.365384	0.666397
C49	C	-0.344882	-0.800348	-0.000208
C50	C	-0.011549	-0.467014	0.333125
C51	C	0.321784	-0.133681	0.666459
C52	C	-0.402755	-0.856291	-0.000224
C53	C	-0.069421	-0.522958	0.333109
C54	C	0.263912	-0.189624	0.666443
C55	C	-0.509924	-0.848267	-0.000228
C56	C	-0.176590	-0.514934	0.333106
C57	C	0.156743	-0.181601	0.666439
C58	C	-0.237703	-0.808370	-0.000204
C59	C	0.095630	-0.475037	0.333129
C60	C	0.428963	-0.141704	0.666463
C61	C	0.299459	-0.833986	-0.000223
C62	C	0.632792	-0.500653	0.333110
C63	C	0.966126	-0.167319	0.666443
C64	C	0.404651	-0.841874	-0.000231
C65	C	0.737985	-0.508540	0.333102
C66	C	1.071318	-0.175207	0.666436
N67	N	0.126192	-0.828305	0.188455
N68	N	0.459525	-0.494972	0.521789
N69	N	0.792858	-0.161638	0.855122
C70	C	0.217738	-0.585397	-0.000179
C71	C	0.551072	-0.252063	0.333154
C72	C	0.884405	0.081270	0.666488
C73	C	0.216291	-0.512857	-0.000187
C74	C	0.549625	-0.179523	0.333146
C75	C	0.882958	0.153810	0.666480
C76	C	0.129205	-0.479514	-0.000193
C77	C	0.462539	-0.146180	0.333140
C78	C	0.795872	0.187153	0.666474
C79	C	0.043560	-0.518717	-0.000173
C80	C	0.376893	-0.185384	0.333161
C81	C	0.710227	0.147950	0.666494
C82	C	0.045010	-0.591256	-0.000157
C83	C	0.378343	-0.257922	0.333176
C84	C	0.711676	0.075411	0.666509
C85	C	0.060744	-0.366858	-0.042640
C86	C	0.394078	-0.033525	0.290693
C87	C	0.727411	0.299809	0.624027
C88	C	0.059298	-0.294320	-0.042660
C89	C	0.392632	0.039013	0.290673
C90	C	0.725965	0.372346	0.624007
C91	C	0.124731	-0.255781	-0.000237
C92	C	0.458064	0.077553	0.333096
C93	C	0.791398	0.410886	0.666430
C94	C	0.191625	-0.289787	0.042196
C95	C	0.524959	0.043547	0.375530
C96	C	0.858292	0.376880	0.708863
C97	C	0.193075	-0.362325	0.042212
C98	C	0.526408	-0.028992	0.375545
C99	C	0.859742	0.304341	0.708878
C100	C	0.127624	-0.400858	-0.000209
C101	C	0.460957	-0.067525	0.333124
C102	C	0.794291	0.265809	0.666457
C103	C	0.208802	-0.137930	-0.000261
C104	C	0.542135	0.195403	0.333072
C105	C	0.875468	0.528737	0.666406
C106	C	0.207351	-0.065389	-0.000264
C107	C	0.540684	0.267944	0.333069
C108	C	0.874018	0.601278	0.666402
C109	C	0.034617	-0.071251	-0.000257
C110	C	0.367951	0.262083	0.333076
C111	C	0.701284	0.595416	0.666409
C112	C	0.036070	-0.143790	-0.000247
C113	C	0.369404	0.189543	0.333087
C114	C	0.702737	0.522876	0.666420
C115	C	0.123165	-0.177126	-0.000252
C116	C	0.456499	0.156208	0.333082
C117	C	0.789832	0.489541	0.666415
N118	N	0.126169	-0.828342	-0.188881
N119	N	0.459503	-0.495009	0.144453
N120	N	0.792836	-0.161675	0.477786
C121	C	0.183489	-0.874017	0.772990
C122	C	0.516822	-0.540684	1.106324
C123	C	0.850156	-0.207351	1.439657
C124	C	0.183498	-0.874011	0.696763
C125	C	0.516832	-0.540678	1.030096
C126	C	0.850165	-0.207344	1.363429
C127	C	0.126170	-0.828336	0.658667
C128	C	0.459504	-0.495002	0.992000
C129	C	0.792837	-0.161669	1.325333
C130	C	0.068847	-0.782651	0.696805
C131	C	0.402181	-0.449318	1.030138
C132	C	0.735514	-0.115985	1.363471
C133	C	0.068847	-0.782655	0.773031
C134	C	0.402180	-0.449321	1.106364
C135	C	0.735514	-0.115988	1.439698
C136	C	0.040732	-0.821119	0.537907
C137	C	0.374066	-0.487786	0.871240
C138	C	0.707399	-0.154453	1.204573
C139	C	0.040731	-0.821121	0.461682
C140	C	0.374064	-0.487788	0.795015
C141	C	0.707397	-0.154454	1.128348
C142	C	0.126173	-0.828322	0.423559
C143	C	0.459506	-0.494989	0.756892
C144	C	0.792840	-0.161655	1.090226
C145	C	0.211618	-0.835536	0.461671
C146	C	0.544951	-0.502203	0.795004
C147	C	0.878285	-0.168869	1.128337
C148	C	0.211618	-0.835539	0.537897
C149	C	0.544951	-0.502206	0.871230
C150	C	0.878284	-0.168872	1.204564
C151	C	0.126165	-0.828327	0.576012
C152	C	0.459498	-0.494994	0.909345
C153	C	0.792832	-0.161660	1.242678
C154	C	0.183507	-0.873993	0.302775
C155	C	0.516841	-0.540660	0.636109
C156	C	0.850174	-0.207326	0.969442
C157	C	0.183519	-0.873981	0.226546
C158	C	0.516852	-0.540648	0.559879
C159	C	0.850185	-0.207315	0.893213
C160	C	0.068859	-0.782625	0.226589
C161	C	0.402192	-0.449292	0.559923
C162	C	0.735526	-0.115959	0.893256
C163	C	0.068857	-0.782633	0.302817
C164	C	0.402190	-0.449300	0.636151
C165	C	0.735523	-0.115967	0.969484
C166	C	0.126179	-0.828321	0.340906
C167	C	0.459512	-0.494987	0.674239
C168	C	0.792846	-0.161654	1.007572
H169	H	-0.371814	-0.910212	-0.000286
H170	H	-0.038480	-0.576878	0.333047
H171	H	0.294853	-0.243545	0.666381
O172	O	0.299722	-0.023115	-0.000277
O173	O	0.633055	0.310219	0.333057
O174	O	0.966389	0.643552	0.666390
H175	H	0.284085	0.032927	-0.000276
H176	H	0.617418	0.366260	0.333058
H177	H	0.950752	0.699594	0.666391
O178	O	-0.385855	-0.728925	-0.000179
O179	O	-0.052521	-0.395592	0.333154
O180	O	0.280812	-0.062258	0.666488
H181	H	-0.464821	-0.733753	-0.000175
H182	H	-0.131488	-0.400419	0.333159
H183	H	0.201845	-0.067086	0.666492
H184	H	0.247540	-0.390010	0.076765
H185	H	0.580873	-0.056677	0.410098
H186	H	0.914207	0.276657	0.743431
H187	H	0.022169	-0.745459	0.804075
H188	H	0.355503	-0.412125	1.137408
H189	H	0.688836	-0.078792	1.470742
O190	O	0.311671	-0.621353	-0.000164
O191	O	0.645005	-0.288020	0.333170
O192	O	0.978338	0.045313	0.666503
H193	H	0.370976	-0.581907	-0.000165
H194	H	0.704309	-0.248574	0.333168
H195	H	1.037642	0.084759	0.666501
H196	H	0.286027	-0.480939	-0.000198
H197	H	0.619360	-0.147605	0.333135
H198	H	0.952694	0.185728	0.666468
O199	O	-0.059316	-0.035300	-0.000264
O200	O	0.274018	0.298033	0.333069
O201	O	0.607351	0.631367	0.666402
H202	H	-0.045939	0.021726	-0.000281
H203	H	0.287394	0.355059	0.333052
H204	H	0.620728	0.688393	0.666385
H205	H	0.022176	-0.745442	0.333862
H206	H	0.355510	-0.412109	0.667195
H207	H	0.688843	-0.078776	1.000529
H208	H	0.244906	-0.258409	0.076742
H209	H	0.578240	0.074924	0.410075
H210	H	0.911573	0.408258	0.743409
H211	H	0.279719	-0.165073	-0.000254
H212	H	0.613053	0.168260	0.333079
H213	H	0.946386	0.501594	0.666412
H214	H	0.230187	-0.911191	0.333789
H215	H	0.563521	-0.577858	0.667122
H216	H	0.896854	-0.244525	1.000455
H217	H	0.230201	-0.911175	0.195503
H218	H	0.563534	-0.577841	0.528836
H219	H	0.896868	-0.244508	0.862170
H220	H	-0.033662	-0.175703	-0.000237
H221	H	0.299671	0.157630	0.333096
H222	H	0.633004	0.490964	0.666429
O223	O	0.303781	-0.843301	0.420561
O224	O	0.637114	-0.509968	0.753894
O225	O	0.970447	-0.176635	1.087228
H226	H	0.363190	-0.848322	0.459868
H227	H	0.696524	-0.514989	0.793201
H228	H	1.029857	-0.181655	1.126534
H229	H	0.004833	-0.266638	-0.077215
H230	H	0.338166	0.066695	0.256119
H231	H	0.671499	0.400028	0.589452
O232	O	0.007005	-0.733371	0.185513
O233	O	0.340339	-0.400038	0.518846
O234	O	0.673672	-0.066705	0.852179
H235	H	0.016624	-0.741049	0.126101
H236	H	0.349957	-0.407715	0.459434
H237	H	0.683291	-0.074382	0.792768
H238	H	0.007459	-0.398231	-0.077190
H239	H	0.340793	-0.064898	0.256143
H240	H	0.674126	0.268435	0.589476
H241	H	-0.028844	-0.815252	0.430657
H242	H	0.304489	-0.481918	0.763990
H243	H	0.637822	-0.148585	1.097324
O244	O	0.303768	-0.843318	0.579005
O245	O	0.637101	-0.509985	0.912338
O246	O	0.970434	-0.176652	1.245672
H247	H	0.354193	-0.800059	0.564399
H248	H	0.687526	-0.466726	0.897733
H249	H	1.020859	-0.133393	1.231066
H250	H	-0.028849	-0.815249	0.568940
H251	H	0.304484	-0.481915	0.902273
H252	H	0.637818	-0.148582	1.235606
O253	O	-0.050372	-0.482761	-0.000180
O254	O	0.282961	-0.149428	0.333154
O255	O	0.616295	0.183906	0.666487
H256	H	-0.036994	-0.425735	-0.000200
H257	H	0.296339	-0.092401	0.333133
H258	H	0.629673	0.240932	0.666467
H259	H	0.230167	-0.911219	0.803997
H260	H	0.563501	-0.577885	1.137331
H261	H	0.896834	-0.244552	1.470664
O262	O	-0.047356	-0.633537	-0.000143
O263	O	0.285978	-0.300203	0.333190
O264	O	0.619311	0.033130	0.666523
H265	H	-0.108158	-0.598168	-0.000151
H266	H	0.225175	-0.264834	0.333183
H267	H	0.558508	0.068499	0.666516
O268	O	0.245316	-0.923281	0.655623
O269	O	0.578649	-0.589948	0.988957
O270	O	0.911983	-0.256615	1.322290
H271	H	0.285170	-0.955053	0.694915
H272	H	0.618504	-0.621720	1.028248
H273	H	0.951837	-0.288387	1.361582
H274	H	0.022173	-0.745461	0.665782
H275	H	0.355506	-0.412128	0.999115
H276	H	0.688840	-0.078794	1.332448
