data_functionalizedCrystal
_audit_creation_method	'MofGen! by Chris Wilmer'
_symmetry_space_group_name_H-M	'P1'
_symmetry_Int_Tables_number	1
_symmetry_cell_setting	triclinic
loop_
_symmetry_equiv_pos_as_xyz
  x,y,z
_cell_length_a	11.026607
_cell_length_b	11.026644
_cell_length_c	9.482900
_cell_angle_alpha	78.598751
_cell_angle_beta	101.363848
_cell_angle_gamma	108.585082
loop_
_atom_site_label
_atom_site_type_symbol
_atom_site_fract_x
_atom_site_fract_y
_atom_site_fract_z
O1	O	-1.742225	-0.518007	-0.120879
O2	O	-1.242225	-0.018007	0.379121
O3	O	-1.375647	-0.457244	-0.120883
O4	O	-0.875647	0.042756	0.379117
O5	O	-1.528557	-0.304337	-0.120880
O6	O	-1.028557	0.195663	0.379120
O7	O	-1.589315	-0.670914	-0.120881
O8	O	-1.089315	-0.170914	0.379119
O9	O	-1.497533	-0.335555	0.120912
O10	O	-0.997533	0.164445	0.620912
O11	O	-1.344622	-0.488462	0.120909
O12	O	-0.844622	0.011538	0.620909
O13	O	-1.711200	-0.549225	0.120913
O14	O	-1.211200	-0.049225	0.620913
Cu15	Cu	-1.525078	-0.521694	0.142989
Cu16	Cu	-1.025078	-0.021694	0.642989
Cu17	Cu	-1.561769	-0.484775	-0.142958
Cu18	Cu	-1.061769	0.015225	0.357042
O19	O	-1.558290	-0.702132	0.120911
O20	O	-1.058290	-0.202132	0.620911
C21	C	-1.312475	-0.461643	0.000013
C22	C	-0.812475	0.038357	0.500013
C23	C	-1.170462	-0.428226	0.000011
C24	C	-0.670462	0.071774	0.500011
N25	N	-1.499282	-0.547662	0.344109
N26	N	-0.999282	-0.047662	0.844109
C27	C	-1.774373	-0.544826	0.000015
C28	C	-1.274373	-0.044826	0.500015
C29	C	-1.916387	-0.578241	0.000007
C30	C	-1.416387	-0.078241	0.500007
C31	C	-1.501836	-0.272287	0.000013
C32	C	-1.001836	0.227713	0.500013
C33	C	-1.468423	-0.130273	0.000004
C34	C	-0.968423	0.369727	0.500004
C35	C	-1.116811	-0.520495	0.000010
C36	C	-0.616811	-0.020495	0.500010
C37	C	-0.970033	-0.485959	0.000008
C38	C	-0.470033	0.014041	0.500008
C39	C	-1.526165	0.070153	0.000009
C40	C	-1.026165	0.570153	0.500009
C41	C	-1.560704	-0.076625	0.000006
C42	C	-1.060704	0.423375	0.500006
C43	C	-1.585013	0.265818	0.000014
C44	C	-1.085013	0.765818	0.500014
C45	C	-1.618433	0.123805	0.000011
C46	C	-1.118433	0.623805	0.500011
N47	N	-1.587574	-0.458799	-0.344078
N48	N	-1.087574	0.041201	0.155922
C49	C	-1.554150	-0.492426	0.416309
C50	C	-1.054150	0.007574	0.916309
C51	C	-1.532698	-0.514043	0.583726
C52	C	-1.032698	-0.014043	1.083726
H53	H	-1.179542	-0.625058	0.000018
H54	H	-0.679542	-0.125058	0.500018
H55	H	-1.107735	-0.323659	-0.000026
H56	H	-0.607735	0.176341	0.499974
H57	H	-1.436420	-0.610951	0.406238
H58	H	-0.936420	-0.110951	0.906238
H59	H	-1.665280	-0.139343	-0.000046
H60	H	-1.165280	0.360657	0.499954
H61	H	-1.421604	0.132883	0.000001
H62	H	-0.921604	0.632883	0.500001
H63	H	-1.723002	0.061082	-0.000041
H64	H	-1.223002	0.561082	0.499959
H65	H	-1.363854	-0.067548	-0.000003
H66	H	-0.863854	0.432452	0.499997
H67	H	-1.617000	-0.429125	0.354181
H68	H	-1.117000	0.070875	0.854181
H69	H	-1.650428	-0.395494	0.593798
H70	H	-1.150428	0.104506	1.093798
H71	H	-0.907311	-0.381385	-0.000029
H72	H	-0.407311	0.118615	0.499971
H73	H	-0.979111	-0.682812	0.000016
H74	H	-0.479111	-0.182812	0.500016
H75	H	-1.469832	-0.577337	0.645849
H76	H	-0.969832	-0.077337	1.145849
