data_functionalizedCrystal
_audit_creation_method	'MofGen! by Chris Wilmer'
_symmetry_space_group_name_H-M	'P1'
_symmetry_Int_Tables_number	1
_symmetry_cell_setting	triclinic
loop_
_symmetry_equiv_pos_as_xyz
  x,y,z
_cell_length_a	8.559649
_cell_length_b	9.130313
_cell_length_c	8.597304
_cell_angle_alpha	97.699735
_cell_angle_beta	77.624695
_cell_angle_gamma	90.002234
loop_
_atom_site_label
_atom_site_type_symbol
_atom_site_fract_x
_atom_site_fract_y
_atom_site_fract_z
O1	O	2.119295	0.115069	-0.053153
O2	O	1.655355	0.125284	0.027747
O3	O	1.896455	0.091204	-0.242268
O4	O	1.878196	0.149149	0.216862
O5	O	1.896439	-0.152393	-0.242252
O6	O	1.655339	-0.118313	0.027763
O7	O	2.119279	-0.128528	-0.053136
Cu8	Cu	1.887307	-0.145663	-0.012685
Cu9	Cu	1.887327	0.142418	-0.012704
O10	O	1.878179	-0.094448	0.216879
C11	C	1.595913	0.004260	0.033886
C12	C	1.418818	0.006565	0.052135
N13	N	1.887305	-0.348284	-0.012674
C14	C	1.985510	-0.414426	0.070725
C15	C	1.985533	-0.567767	0.070693
C16	C	1.789132	-0.588811	-0.096139
C17	C	1.789119	-0.435474	-0.096116
C18	C	2.083697	-0.327236	0.154167
C19	C	2.181909	-0.393377	0.237575
C20	C	2.181932	-0.546717	0.237543
C21	C	2.083743	-0.633918	0.154103
C22	C	2.178721	-0.007501	-0.059275
C23	C	2.355816	-0.009797	-0.077524
C24	C	1.894486	-0.037941	-0.300495
C25	C	1.888622	-0.059831	-0.474013
N26	N	1.887342	0.345038	-0.012730
C27	C	1.880149	0.034700	0.275105
C28	C	1.886012	0.056599	0.448623
H29	H	1.437360	-0.025561	-0.202492
H30	H	1.886353	-0.176274	-0.540529
H31	H	2.083685	-0.202376	0.154207
Cl32	Cl	2.305354	-0.283759	0.342447
H33	H	2.083784	-0.758779	0.154067
H34	H	1.337265	0.022346	0.177111
Cl35	Cl	1.665696	-0.698433	-0.201018
Cl36	Cl	1.665691	-0.352322	-0.200999
Cl37	Cl	2.305408	-0.629864	0.342382
H38	H	1.888258	0.173035	-0.484863
