data_functionalizedCrystal
_audit_creation_method	'MofGen! by Chris Wilmer'
_symmetry_space_group_name_H-M	'P1'
_symmetry_Int_Tables_number	1
_symmetry_cell_setting	triclinic
loop_
_symmetry_equiv_pos_as_xyz
  x,y,z
_cell_length_a	14.971486
_cell_length_b	10.489746
_cell_length_c	13.448316
_cell_angle_alpha	89.993114
_cell_angle_beta	89.998199
_cell_angle_gamma	84.077715
loop_
_atom_site_label
_atom_site_type_symbol
_atom_site_fract_x
_atom_site_fract_y
_atom_site_fract_z
O1	O	1.187896	0.166222	-0.082578
O2	O	0.927609	0.186127	-0.082605
O3	O	1.063673	-0.009491	-0.082584
O4	O	1.051832	0.361841	-0.082600
O5	O	1.063655	-0.009503	0.082800
O6	O	0.927592	0.186115	0.082778
O7	O	1.187878	0.166210	0.082806
Cu8	Cu	1.057733	0.176161	0.097893
Cu9	Cu	1.057754	0.176176	-0.097693
O10	O	1.051815	0.361829	0.082784
C11	C	0.894271	0.185231	0.000083
C12	C	0.794958	0.182563	0.000073
C13	C	1.062769	-0.057019	0.000108
C14	C	1.060090	-0.198617	0.000107
C15	C	0.738388	0.297484	0.000069
C16	C	0.645075	0.294970	0.000084
C17	C	0.608332	0.177534	0.000096
C18	C	0.664909	0.062604	0.000102
C19	C	0.758221	0.065120	0.000094
C20	C	0.470417	0.057369	0.000116
C21	C	0.377099	0.054853	0.000122
C22	C	0.357270	0.287219	0.000106
C23	C	0.450582	0.289735	0.000098
C24	C	0.507153	0.174805	0.000103
C25	C	0.971931	-0.350454	0.000085
C26	C	1.016016	-0.273566	-0.081451
C27	C	1.016019	-0.273619	0.081605
C28	C	1.099447	-0.374023	-0.081519
C29	C	1.099438	-0.374082	0.081610
C30	C	1.143584	-0.297244	0.000054
C31	C	1.221217	0.167106	0.000115
C32	C	1.320529	0.169774	0.000119
C33	C	1.052719	0.409356	0.000090
C34	C	1.055397	0.550954	0.000085
N35	N	1.057725	0.176151	0.235457
N36	N	1.057769	0.176176	-0.235257
C37	C	1.117994	0.089566	0.287507
C38	C	1.117999	0.089565	0.391610
C39	C	1.057740	0.176156	0.443662
C40	C	0.997466	0.262744	0.391605
C41	C	0.997457	0.262738	0.287503
C42	C	0.997491	0.262753	0.608585
C43	C	0.997501	0.262761	0.712693
C44	C	1.118033	0.089580	0.712692
C45	C	1.118024	0.089574	0.608590
C46	C	1.057750	0.176164	0.556540
H47	H	0.768296	0.393114	0.000059
C48	C	0.532643	-0.069061	0.000118
N49	N	0.579512	-0.164286	0.000112
C50	C	0.968390	-0.214389	0.174733
N51	N	0.932509	-0.169781	0.244875
H52	H	0.599019	0.388550	0.000080
C53	C	0.336685	-0.074332	0.000137
N54	N	0.306245	-0.171637	0.000147
H55	H	0.980788	-0.229678	-0.150393
H56	H	0.899355	-0.374334	-0.000003
C57	C	1.147020	-0.433032	-0.174755
N58	N	1.182847	-0.477480	-0.244982
C59	C	1.146982	-0.433416	0.174752
N60	N	1.182785	-0.478109	0.244915
H61	H	1.216215	-0.273610	0.000017
C62	C	0.295041	0.413644	0.000106
N63	N	0.248166	0.508863	0.000103
C64	C	0.931208	0.358007	0.769948
N65	N	0.881273	0.429746	0.813072
C66	C	1.184284	-0.005692	0.230260
N67	N	1.234213	-0.077448	0.187145
C68	C	1.184277	-0.005715	0.448861
N69	N	1.234192	-0.077496	0.491981
H70	H	0.480494	0.385362	0.000080
C71	C	1.184332	-0.005675	0.769949
N72	N	1.234267	-0.077416	0.813079
H73	H	1.167095	0.019072	0.566210
H74	H	0.948406	0.333260	0.566209
C75	C	0.931172	0.357983	0.448865
N76	N	0.881237	0.429718	0.491992
C77	C	0.931164	0.357998	0.230249
N78	N	0.881231	0.429751	0.187126
H79	H	0.634987	-0.033014	0.000126
H80	H	0.804280	-0.028461	0.000097
