data_functionalizedCrystal
_audit_creation_method	'MofGen! by Chris Wilmer'
_symmetry_space_group_name_H-M	'P1'
_symmetry_Int_Tables_number	1
_symmetry_cell_setting	triclinic
loop_
_symmetry_equiv_pos_as_xyz
  x,y,z
_cell_length_a	10.685980
_cell_length_b	12.827892
_cell_length_c	10.686551
_cell_angle_alpha	94.405282
_cell_angle_beta	98.408259
_cell_angle_gamma	94.382001
loop_
_atom_site_label
_atom_site_type_symbol
_atom_site_fract_x
_atom_site_fract_y
_atom_site_fract_z
Zn1	Zn	1.995787	-0.234228	0.866707
Zn2	Zn	2.495787	0.265772	1.366707
Zn3	Zn	1.979364	-0.423541	0.654445
Zn4	Zn	2.479364	0.076459	1.154445
Zn5	Zn	1.767214	-0.263313	0.638171
Zn6	Zn	2.267214	0.236687	1.138171
Zn7	Zn	1.783487	-0.423440	0.850356
Zn8	Zn	2.283487	0.076560	1.350356
O9	O	1.881463	-0.336130	0.752420
O10	O	2.381463	0.163870	1.252420
O11	O	2.171242	-0.247211	0.852203
O12	O	2.671242	0.252789	1.352203
O13	O	1.937538	-0.414501	0.474655
O14	O	2.437538	0.085499	0.974655
O15	O	1.797597	-0.113213	0.668519
O16	O	2.297597	0.386787	1.168519
O17	O	2.159176	-0.386299	0.696256
O18	O	2.659176	0.113701	1.196256
O19	O	1.965529	-0.091844	0.836423
O20	O	2.465529	0.408156	1.336423
O21	O	1.781672	-0.296782	0.462698
O22	O	2.281672	0.203218	0.962698
O23	O	1.591739	-0.296684	0.652664
O24	O	2.091739	0.203316	1.152664
O25	O	1.825333	-0.386126	1.030157
O26	O	2.325333	0.113874	1.530157
O27	O	1.603695	-0.414328	0.808555
O28	O	2.103695	0.085672	1.308555
O29	O	1.981309	-0.247112	1.042170
O30	O	2.481309	0.252888	1.542170
O31	O	1.953317	-0.569770	0.680401
O32	O	2.453317	-0.069770	1.180401
O33	O	1.809408	-0.569695	0.824336
O34	O	2.309408	-0.069695	1.324336
C35	C	1.551659	-0.358652	0.727070
C36	C	2.051659	0.141348	1.227070
C37	C	1.410569	-0.368310	0.716256
C38	C	1.910569	0.131690	1.216256
C39	C	1.881383	-0.607647	0.752390
C40	C	2.381383	-0.107647	1.252390
C41	C	1.881468	-0.723793	0.752429
C42	C	2.381468	-0.223793	1.252429
C43	C	1.810235	-0.775580	0.823594
C44	C	2.310235	-0.275580	1.323594
C45	C	1.810321	-0.895622	0.823636
C46	C	2.310321	-0.395622	1.323636
C47	C	2.212555	-0.313522	0.777869
C48	C	2.712555	0.186478	1.277869
C49	C	2.353647	-0.303887	0.788714
C50	C	2.853647	0.196113	1.288714
C51	C	1.906968	-0.313363	1.083509
C52	C	2.406968	0.186637	1.583509
C53	C	1.917837	-0.303661	1.224599
C54	C	2.417837	0.196339	1.724599
C55	C	1.881580	-0.063549	0.752480
C56	C	2.381580	0.436451	1.252480
C57	C	1.881630	0.052609	0.752505
C58	C	2.381630	0.552609	1.252505
C59	C	1.856130	-0.358729	0.422624
C60	C	2.356130	0.141271	0.922624
C61	C	1.845507	-0.368119	0.281554
C62	C	2.345507	0.131881	0.781554
H63	H	1.412851	-0.241338	0.859019
H64	H	1.912851	0.258662	1.359019
C65	C	2.029919	-0.958115	0.604486
C66	C	2.529919	-0.458115	1.104486
C67	C	1.963968	-0.887286	0.670247
C68	C	2.463968	-0.387286	1.170247
H69	H	2.080755	-0.921000	0.553710
H70	H	2.580755	-0.421000	1.053710
H71	H	1.970981	-1.007854	0.551613
H72	H	2.470981	-0.507854	1.051613
H73	H	2.082765	-0.993514	0.663544
H74	H	2.582765	-0.493514	1.163544
H75	H	1.911114	-0.851893	0.611188
H76	H	2.411114	-0.351893	1.111188
H77	H	2.022913	-0.837529	0.723124
H78	H	2.522913	-0.337529	1.223124
C79	C	1.259938	-0.520199	0.687013
C80	C	1.759938	-0.020199	1.187013
C81	C	1.330652	-0.452756	0.621332
C82	C	1.830652	0.047244	1.121332
H83	H	1.210609	-0.572334	0.628411
H84	H	1.710609	-0.072334	1.128411
H85	H	1.205326	-0.481078	0.731004
H86	H	1.705326	0.018922	1.231004
H87	H	1.315929	-0.552937	0.746156
H88	H	1.815929	-0.052937	1.246156
H89	H	1.274660	-0.420012	0.562195
H90	H	1.774660	0.079988	1.062195
H91	H	1.385269	-0.491882	0.577320
H92	H	1.885269	0.008118	1.077320
H93	H	1.749179	-0.731050	0.884487
H94	H	2.249179	-0.231050	1.384487
H95	H	1.942513	-0.768327	0.691529
H96	H	2.442513	-0.268327	1.191529
H97	H	1.749341	-0.940157	0.884569
H98	H	2.249341	-0.440157	1.384569
H99	H	1.775271	-0.430730	1.222376
H100	H	2.275271	0.069270	1.722376
H101	H	1.988086	-0.241053	1.283784
H102	H	2.488086	0.258947	1.783784
