data_functionalizedCrystal
_audit_creation_method	'MofGen! by Chris Wilmer'
_symmetry_space_group_name_H-M	'P1'
_symmetry_Int_Tables_number	1
_symmetry_cell_setting	triclinic
loop_
_symmetry_equiv_pos_as_xyz
  x,y,z
_cell_length_a	16.120490
_cell_length_b	16.120444
_cell_length_c	16.120297
_cell_angle_alpha	95.615117
_cell_angle_beta	90.129683
_cell_angle_gamma	90.165174
loop_
_atom_site_label
_atom_site_type_symbol
_atom_site_fract_x
_atom_site_fract_y
_atom_site_fract_z
Zn1	Zn	1.224982	-0.422332	-0.554792
Zn2	Zn	1.224875	-0.555017	-0.422098
Zn3	Zn	1.093721	-0.408241	-0.408037
Zn4	Zn	1.078872	-0.554241	-0.554034
O5	O	1.155613	-0.484958	-0.484740
O6	O	1.341004	-0.446155	-0.543392
O7	O	1.213647	-0.529974	-0.303600
O8	O	1.117393	-0.293479	-0.421937
O9	O	1.340925	-0.543638	-0.445902
O10	O	1.213829	-0.303832	-0.529757
O11	O	1.117289	-0.422138	-0.293270
O12	O	0.975716	-0.421386	-0.421202
O13	O	1.092084	-0.542316	-0.670767
O14	O	0.964806	-0.528652	-0.528465
O15	O	1.199431	-0.445403	-0.671324
O16	O	1.199248	-0.671545	-0.445167
O17	O	1.091980	-0.670975	-0.542100
C18	C	0.940174	-0.473407	-0.473226
C19	C	0.848006	-0.468486	-0.468321
C20	C	0.632811	-0.510476	-0.510185
C21	C	0.679259	-0.459510	-0.459365
C22	C	0.773158	-0.464506	-0.464350
C23	C	0.538902	-0.505481	-0.505201
C24	C	1.144013	-0.701503	-0.495097
C25	C	1.139125	-0.794147	-0.499559
C26	C	1.181163	-1.005308	-0.461782
C27	C	1.130215	-0.963765	-0.507716
C28	C	1.135174	-0.869381	-0.503176
C29	C	1.176206	-1.099701	-0.466320
C30	C	1.371893	-0.496555	-0.496300
C31	C	1.464058	-0.501497	-0.501226
C32	C	1.144113	-0.495345	-0.702133
C33	C	1.139212	-0.499771	-0.794773
C34	C	1.167279	-0.267569	-0.474363
C35	C	1.172251	-0.174931	-0.469941
C36	C	1.130236	-0.507833	-0.964384
C37	C	1.181166	-0.461842	-1.005945
C38	C	1.176172	-0.466327	-1.100323
C39	C	1.135229	-0.503348	-0.869998
C40	C	1.167119	-0.474554	-0.268193
C41	C	1.172192	-0.469901	-0.175551
H42	H	0.663564	-0.557858	-0.557433
N43	N	1.067503	-1.010541	-0.564325
H44	H	1.072803	-1.072313	-0.559584
H45	H	1.009761	-0.991645	-0.547422
N46	N	1.243871	-0.958533	-0.405177
H47	H	1.238564	-0.896762	-0.409919
H48	H	1.233376	-0.970199	-0.345671
N49	N	1.243894	-0.405223	-0.959197
H50	H	1.238617	-0.410005	-0.897426
H51	H	1.301630	-0.422083	-0.978157
H52	H	1.082887	-0.550572	-0.999681
H53	H	0.648504	-0.412124	-0.412113
