data_functionalizedCrystal
_audit_creation_method	'MofGen! by Chris Wilmer'
_symmetry_space_group_name_H-M	'P1'
_symmetry_Int_Tables_number	1
_symmetry_cell_setting	triclinic
loop_
_symmetry_equiv_pos_as_xyz
  x,y,z
_cell_length_a	18.215407
_cell_length_b	21.295417
_cell_length_c	21.295420
_cell_angle_alpha	90.018953
_cell_angle_beta	90.006529
_cell_angle_gamma	90.030955
loop_
_atom_site_label
_atom_site_type_symbol
_atom_site_fract_x
_atom_site_fract_y
_atom_site_fract_z
Zn1	Zn	1.124947	-0.250690	0.355913
Zn2	Zn	1.624947	0.249310	0.855913
Zn3	Zn	1.124871	-0.355937	0.250639
Zn4	Zn	1.624871	0.144063	0.750639
Zn5	Zn	1.001908	-0.250687	0.250658
Zn6	Zn	1.501908	0.249313	0.750658
Zn7	Zn	1.001833	-0.355926	0.355870
Zn8	Zn	1.501833	0.144074	0.855870
O9	O	1.063390	-0.303310	0.303270
O10	O	1.563390	0.196690	0.803270
O11	O	1.227921	-0.264657	0.341958
O12	O	1.727921	0.235343	0.841958
O13	O	1.108560	-0.341978	0.162552
O14	O	1.608560	0.158022	0.662552
O15	O	1.018292	-0.162598	0.264647
O16	O	1.518292	0.337402	0.764647
O17	O	1.227866	-0.341982	0.264614
O18	O	1.727866	0.158018	0.764614
O19	O	1.108688	-0.162600	0.341977
O20	O	1.608688	0.337400	0.841977
O21	O	1.018219	-0.264651	0.162566
O22	O	1.518219	0.235349	0.662566
O23	O	0.898914	-0.264641	0.264605
O24	O	1.398914	0.235359	0.764605
O25	O	1.018164	-0.341964	0.443965
O26	O	1.518164	0.158036	0.943965
O27	O	0.898859	-0.341960	0.341904
O28	O	1.398859	0.158040	0.841904
O29	O	1.108615	-0.264647	0.443997
O30	O	1.608615	0.235353	0.943997
O31	O	1.108487	-0.444025	0.264572
O32	O	1.608487	0.055975	0.764572
O33	O	1.018092	-0.444017	0.341885
O34	O	1.518092	0.055983	0.841885
C35	C	0.872183	-0.303299	0.303252
C36	C	1.372183	0.196701	0.803252
C37	C	0.790384	-0.303310	0.303259
C38	C	1.290384	0.196690	0.803259
C39	C	0.602181	-0.343633	0.343458
C40	C	1.102181	0.156367	0.843458
C41	C	0.525322	-0.343635	0.343466
C42	C	1.025322	0.156365	0.843466
C43	C	0.525350	-0.262998	0.263096
C44	C	1.025350	0.237002	0.763096
C45	C	0.602207	-0.262994	0.263092
C46	C	1.102207	0.237006	0.763092
C47	C	0.640621	-0.303315	0.303272
C48	C	1.140621	0.196685	0.803272
C49	C	0.486905	-0.303321	0.303284
C50	C	0.986905	0.196679	0.803284
C51	C	0.403571	-0.303323	0.303292
C52	C	0.903571	0.196677	0.803292
C53	C	0.723960	-0.303312	0.303265
C54	C	1.223960	0.196688	0.803265
C55	C	1.063293	-0.466862	0.303235
C56	C	1.563293	0.033138	0.803235
C57	C	1.063319	-0.536830	0.303241
C58	C	1.563319	-0.036830	0.803241
C59	C	1.110430	-0.569680	0.263026
C60	C	1.610430	-0.069680	0.763026
C61	C	1.110465	-0.635422	0.263040
C62	C	1.610465	-0.135422	0.763040
C63	C	1.063375	-0.668312	0.303263
C64	C	1.563375	-0.168312	0.803263
C65	C	1.016261	-0.635454	0.343487
C66	C	1.516261	-0.135454	0.843487
C67	C	1.016233	-0.569713	0.343476
C68	C	1.516233	-0.069713	0.843476
N69	N	0.998995	-0.771580	0.308056
N70	N	1.498995	-0.271580	0.808056
N71	N	0.999024	-0.834031	0.308063
N72	N	1.499024	-0.334031	0.808063
C73	C	1.063458	-0.866387	0.303299
C74	C	1.563458	-0.366387	0.803299
N75	N	1.127863	-0.833932	0.298517
N76	N	1.627863	-0.333932	0.798517
N77	N	1.127834	-0.771475	0.298507
N78	N	1.627834	-0.271475	0.798507
C79	C	1.063400	-0.739598	0.303280
C80	C	1.563400	-0.239598	0.803280
C81	C	1.110610	-0.970522	0.263097
C82	C	1.610610	-0.470522	0.763097
C83	C	1.110646	-1.036266	0.263115
C84	C	1.610646	-0.536266	0.763115
C85	C	1.016435	-1.036297	0.343559
C86	C	1.516435	-0.536297	0.843559
C87	C	1.016406	-0.970555	0.343543
C88	C	1.516406	-0.470555	0.843543
C89	C	1.063492	-0.937671	0.303309
C90	C	1.563492	-0.437671	0.803309
C91	C	1.255343	-0.303321	0.303289
C92	C	1.755343	0.196679	0.803289
C93	C	1.337141	-0.303326	0.303296
C94	C	1.837141	0.196674	0.803296
C95	C	1.063390	-0.303304	0.467460
C96	C	1.563390	0.196696	0.967460
C97	C	1.063390	-0.303302	0.537428
C98	C	1.563390	0.196698	1.037428
C99	C	1.063507	-0.139120	0.303319
C100	C	1.563507	0.360880	0.803319
C101	C	1.063556	-0.069152	0.303340
C102	C	1.563556	0.430848	0.803340
C103	C	1.110455	-0.263050	1.036904
C104	C	1.610455	0.236950	1.536904
C105	C	1.110463	-0.263052	0.971161
C106	C	1.610463	0.236948	1.471161
C107	C	1.063372	-0.303305	0.938268
C108	C	1.563372	0.196695	1.438268
C109	C	1.016282	-0.343571	0.971122
C110	C	1.516282	0.156429	1.471122
C111	C	1.016281	-0.343573	1.036864
C112	C	1.516281	0.156427	1.536864
N113	N	0.998951	-0.308127	0.835039
N114	N	1.498951	0.191873	1.335039
N115	N	0.998954	-0.308121	0.772588
N116	N	1.498954	0.191879	1.272588
C117	C	1.063374	-0.303302	0.740193
C118	C	1.563374	0.196698	1.240193
N119	N	1.127791	-0.298476	0.772609
N120	N	1.627791	0.201524	1.272609
N121	N	1.127787	-0.298478	0.835067
N122	N	1.627787	0.201522	1.335067
C123	C	1.063368	-0.303307	0.866983
C124	C	1.563368	0.196693	1.366983
C125	C	1.110472	-0.263042	0.636061
C126	C	1.610472	0.236958	1.136061
C127	C	1.110481	-0.263048	0.570317
C128	C	1.610481	0.236952	1.070317
C129	C	1.016294	-0.343564	0.570280
C130	C	1.516294	0.156436	1.070280
C131	C	1.016291	-0.343562	0.636022
C132	C	1.516291	0.156438	1.136022
C133	C	1.063379	-0.303297	0.668909
C134	C	1.563379	0.196703	1.168909
C135	C	1.063380	-0.303324	1.139719
C136	C	1.563380	0.196676	1.639719
C137	C	1.063369	-0.303309	1.069750
C138	C	1.563369	0.196691	1.569750
H139	H	1.148831	-0.662174	0.230292
H140	H	1.648831	-0.162174	0.730292
H141	H	0.977941	-0.376346	0.944336
H142	H	1.477941	0.123654	1.444336
C143	C	1.161543	-0.219237	1.072524
C144	C	1.661543	0.280763	1.572524
C145	C	1.145568	-0.156955	1.056537
C146	C	1.645568	0.343045	1.556537
C147	C	1.192622	-0.116578	1.089331
C148	C	1.692622	0.383422	1.589331
H149	H	1.154851	-0.224913	1.116393
H150	H	1.654851	0.275087	1.616393
H151	H	1.210995	-0.228412	1.061734
H152	H	1.710995	0.271588	1.561734
H153	H	1.096127	-0.147783	1.067331
H154	H	1.596127	0.352217	1.567331
H155	H	1.152264	-0.151259	1.012674
H156	H	1.652264	0.348741	1.512674
H157	H	1.242074	-0.125753	1.078542
H158	H	1.742074	0.374247	1.578542
H159	H	1.185927	-0.122260	1.133198
H160	H	1.685927	0.377740	1.633198
H161	H	1.181794	-0.074316	1.078485
H162	H	1.681794	0.425684	1.578485
C163	C	0.483734	-0.219264	0.219368
C164	C	0.983734	0.280736	0.719368
C165	C	0.502423	-0.232866	0.157060
C166	C	1.002423	0.267134	0.657060
C167	C	0.464109	-0.192586	0.116759
C168	C	0.964109	0.307414	0.616759
H169	H	0.432444	-0.225003	0.225040
H170	H	0.932444	0.274997	0.725040
H171	H	0.496368	-0.176971	0.228619
H172	H	0.996368	0.323029	0.728619
H173	H	0.489783	-0.275150	0.147812
H174	H	0.989783	0.224850	0.647812
H175	H	0.553706	-0.227124	0.151368
H176	H	1.053706	0.272876	0.651368
H177	H	0.476743	-0.150293	0.126010
H178	H	0.976743	0.349707	0.626010
H179	H	0.412821	-0.198328	0.122437
H180	H	0.912821	0.301672	0.622437
H181	H	0.476789	-0.201806	0.074480
H182	H	0.976789	0.298194	0.574480
H183	H	0.977937	-0.376357	1.063607
H184	H	1.477937	0.123643	1.563607
H185	H	0.977954	-0.376341	0.543498
H186	H	1.477954	0.123659	1.043498
H187	H	1.148814	-0.230257	0.662839
H188	H	1.648814	0.269743	1.162839
C189	C	0.965120	-0.534124	0.387240
C190	C	1.465120	-0.034124	0.887240
C191	C	0.981082	-0.550080	0.449538
C192	C	1.481082	-0.050080	0.949538
C193	C	0.934004	-0.517312	0.489870
C194	C	1.434004	-0.017312	0.989870
H195	H	0.971799	-0.490251	0.381557
H196	H	1.471799	0.009749	0.881557
H197	H	0.915674	-0.544955	0.378029
H198	H	1.415674	-0.044955	0.878029
H199	H	1.030516	-0.539244	0.458746
H200	H	1.530516	-0.039244	0.958746
H201	H	0.974398	-0.593947	0.455242
H202	H	1.474398	-0.093947	0.955242
H203	H	0.884558	-0.528144	0.480659
H204	H	1.384558	-0.028144	0.980659
H205	H	0.940687	-0.473442	0.484181
H206	H	1.440687	0.026558	0.984181
H207	H	0.944823	-0.528138	0.532143
H208	H	1.444823	-0.028138	1.032143
C209	C	0.643927	-0.387481	0.386982
C210	C	1.143927	0.112519	0.886982
C211	C	0.688007	-0.427787	0.351267
C212	C	1.188007	0.072213	0.851267
C213	C	0.726463	-0.468193	0.391341
C214	C	1.226463	0.031807	0.891341
H215	H	0.673988	-0.363512	0.414463
H216	H	1.173988	0.136488	0.914463
H217	H	0.610046	-0.411529	0.410906
H218	H	1.110046	0.088471	0.910906
H219	H	0.721884	-0.403741	0.327353
H220	H	1.221884	0.096259	0.827353
H221	H	0.657964	-0.451770	0.323787
H222	H	1.157964	0.048230	0.823787
H223	H	0.692582	-0.492241	0.415266
H224	H	1.192582	0.007759	0.915266
H225	H	0.756520	-0.444218	0.418820
H226	H	1.256520	0.055782	0.918820
H227	H	0.756371	-0.495548	0.367114
H228	H	1.256371	0.004452	0.867114
C229	C	1.161635	-0.219268	0.534766
C230	C	1.661635	0.280732	1.034766
C231	C	1.202855	-0.183997	0.577642
C232	C	1.702855	0.316003	1.077642
C233	C	1.249979	-0.143654	0.544914
C234	C	1.749979	0.356346	1.044914
H235	H	1.193755	-0.243276	0.509115
H236	H	1.693755	0.256724	1.009115
H237	H	1.133516	-0.191808	0.509139
H238	H	1.633516	0.308192	1.009139
H239	H	1.230972	-0.211453	0.603258
H240	H	1.730972	0.288547	1.103258
H241	H	1.170755	-0.159976	0.603294
H242	H	1.670755	0.340024	1.103294
H243	H	1.221860	-0.116194	0.519287
H244	H	1.721860	0.383806	1.019287
H245	H	1.282094	-0.167667	0.519264
H246	H	1.782094	0.332333	1.019264
H247	H	1.277948	-0.119714	0.574000
H248	H	1.777948	0.380286	1.074000
C249	C	0.644042	-0.219319	0.219420
C250	C	1.144042	0.280681	0.719420
C251	C	0.688153	-0.254899	0.179019
C252	C	1.188153	0.245101	0.679019
C253	C	0.726709	-0.214688	0.138790
C254	C	1.226709	0.285312	0.638790
H255	H	0.610242	-0.195294	0.195428
H256	H	1.110242	0.304706	0.695428
H257	H	0.674086	-0.191936	0.243533
H258	H	1.174086	0.308064	0.743533
H259	H	0.658112	-0.282271	0.154908
H260	H	1.158112	0.217729	0.654908
H261	H	0.721966	-0.278923	0.202994
H262	H	1.221966	0.221077	0.702994
H263	H	0.756753	-0.187305	0.162903
H264	H	1.256753	0.312695	0.662903
H265	H	0.692904	-0.190666	0.114802
H266	H	1.192904	0.309334	0.614802
H267	H	0.756648	-0.238823	0.111377
H268	H	1.256648	0.261177	0.611377
C269	C	0.965080	-0.387290	0.671575
C270	C	1.465080	0.112710	1.171575
C271	C	0.923826	-0.422531	0.628700
C272	C	1.423826	0.077469	1.128700
C273	C	0.876635	-0.462817	0.661428
C274	C	1.376635	0.037183	1.161428
H275	H	0.993130	-0.414775	0.697217
H276	H	1.493130	0.085225	1.197217
H277	H	0.932991	-0.363222	0.697211
H278	H	1.432991	0.136778	1.197211
H279	H	0.955911	-0.446597	0.603074
H280	H	1.455911	0.053403	1.103074
H281	H	0.895761	-0.395063	0.603056
H282	H	1.395761	0.104937	1.103056
H283	H	0.844546	-0.438750	0.687064
H284	H	1.344546	0.061250	1.187064
H285	H	0.904691	-0.490298	0.687069
H286	H	1.404691	0.009702	1.187069
H287	H	0.848634	-0.486730	0.632342
H288	H	1.348634	0.013270	1.132342
C289	C	1.161518	-0.534061	0.219248
C290	C	1.661518	-0.034061	0.719248
C291	C	1.145572	-0.550108	0.156956
C292	C	1.645572	-0.050108	0.656956
C293	C	1.192627	-0.517314	0.116612
C294	C	1.692627	-0.017314	0.616612
H295	H	1.154805	-0.490192	0.224913
H296	H	1.654805	0.009808	0.724913
H297	H	1.210971	-0.544810	0.228466
H298	H	1.710971	-0.044810	0.728466
H299	H	1.096131	-0.539354	0.147741
H300	H	1.596131	-0.039354	0.647741
H301	H	1.152289	-0.593971	0.151270
H302	H	1.652289	-0.093971	0.651270
H303	H	1.242081	-0.528063	0.125830
H304	H	1.742081	-0.028063	0.625830
H305	H	1.185911	-0.473447	0.122283
H306	H	1.685911	0.026553	0.622283
H307	H	1.181819	-0.528201	0.074343
H308	H	1.681819	-0.028201	0.574343
C309	C	0.483721	-0.387481	0.387120
C310	C	0.983721	0.112519	0.887120
C311	C	0.533815	-0.422799	0.422294
C312	C	1.033815	0.077201	0.922294
C313	C	0.495519	-0.463203	0.462511
C314	C	0.995519	0.036797	0.962511
H315	H	0.453756	-0.363514	0.414651
H316	H	0.953756	0.136486	0.914651
H317	H	0.453732	-0.414907	0.363006
H318	H	0.953732	0.085093	0.863006
H319	H	0.563790	-0.395376	0.446406
H320	H	1.063790	0.104624	0.946406
H321	H	0.563781	-0.446778	0.394780
H322	H	1.063781	0.053222	0.894780
H323	H	0.465531	-0.490629	0.438397
H324	H	0.965531	0.009371	0.938397
H325	H	0.465556	-0.439231	0.490037
H326	H	0.965556	0.060769	0.990037
H327	H	0.529502	-0.487175	0.486377
H328	H	1.029502	0.012825	0.986377
C329	C	0.965162	-0.671274	0.387089
C330	C	1.465162	-0.171274	0.887089
C331	C	0.975254	-0.735879	0.378479
C332	C	1.475254	-0.235879	0.878479
C333	C	0.928188	-0.768895	0.418632
C334	C	1.428188	-0.268895	0.918632
H335	H	0.975842	-0.660548	0.429417
H336	H	1.475842	-0.160548	0.929417
H337	H	0.915703	-0.660578	0.377830
H338	H	1.415703	-0.160578	0.877830
H339	H	1.024701	-0.746571	0.387742
H340	H	1.524701	-0.246571	0.887742
H341	H	0.964568	-0.746624	0.336159
H342	H	1.464568	-0.246624	0.836159
H343	H	0.878730	-0.758199	0.409373
H344	H	1.378730	-0.258199	0.909373
H345	H	0.938872	-0.758164	0.460957
H346	H	1.438872	-0.258164	0.960957
H347	H	0.935025	-0.812733	0.412791
H348	H	1.435025	-0.312733	0.912791
H349	H	1.148953	-0.943748	0.230337
H350	H	1.648953	-0.443748	0.730337
C351	C	1.161827	-1.071821	0.219381
C352	C	1.661827	-0.571821	0.719381
C353	C	1.203039	-1.028948	0.184134
C354	C	1.703039	-0.528948	0.684134
C355	C	1.250188	-1.061679	0.143833
C356	C	1.750188	-0.561679	0.643833
H357	H	1.193950	-1.097430	0.243419
H358	H	1.693950	-0.597430	0.743419
H359	H	1.133726	-1.097490	0.191905
H360	H	1.633726	-0.597490	0.691905
H361	H	1.231138	-1.003290	0.211607
H362	H	1.731138	-0.503290	0.711607
H363	H	1.170936	-1.003338	0.160084
H364	H	1.670936	-0.503338	0.660084
H365	H	1.222087	-1.087349	0.116357
H366	H	1.722087	-0.587349	0.616357
H367	H	1.282306	-1.087287	0.167876
H368	H	1.782306	-0.587287	0.667876
H369	H	1.278151	-1.032595	0.119909
H370	H	1.778151	-0.532595	0.619909
H371	H	0.978097	-1.063076	0.376312
H372	H	1.478097	-0.563076	0.876312
C373	C	0.965167	-0.934998	0.387224
C374	C	1.465167	-0.434998	0.887224
C375	C	0.923919	-0.977870	0.422442
C376	C	1.423919	-0.477870	0.922442
C377	C	0.876702	-0.945139	0.462684
C378	C	1.376702	-0.445139	0.962684
H379	H	0.993197	-0.909313	0.414726
H380	H	1.493197	-0.409313	0.914726
H381	H	0.933074	-0.909404	0.363126
H382	H	1.433074	-0.409404	0.863126
H383	H	0.956008	-1.003453	0.446539
H384	H	1.456008	-0.503453	0.946539
H385	H	0.895874	-1.003557	0.394957
H386	H	1.395874	-0.503557	0.894957
H387	H	0.844610	-0.919545	0.438585
H388	H	1.344610	-0.419545	0.938585
H389	H	0.904738	-0.919455	0.490182
H390	H	1.404738	-0.419455	0.990182
H391	H	0.848706	-0.974223	0.486580
H392	H	1.348706	-0.474223	0.986580
H393	H	1.148806	-0.230266	0.944413
H394	H	1.648806	0.269734	1.444413
