data_functionalizedCrystal
_audit_creation_method	'MofGen! by Chris Wilmer'
_symmetry_space_group_name_H-M	'P1'
_symmetry_Int_Tables_number	1
_symmetry_cell_setting	triclinic
loop_
_symmetry_equiv_pos_as_xyz
  x,y,z
_cell_length_a	18.215407
_cell_length_b	13.897447
_cell_length_c	18.215399
_cell_angle_alpha	89.974944
_cell_angle_beta	89.983101
_cell_angle_gamma	90.016989
loop_
_atom_site_label
_atom_site_type_symbol
_atom_site_fract_x
_atom_site_fract_y
_atom_site_fract_z
Zn1	Zn	1.125099	-0.384090	-0.416073
Zn2	Zn	1.458433	-0.050757	-0.082740
Zn3	Zn	1.791766	0.282576	0.250594
Zn4	Zn	1.125019	-0.545400	-0.293013
Zn5	Zn	1.458353	-0.212067	0.040320
Zn6	Zn	1.791686	0.121267	0.373654
Zn7	Zn	1.002032	-0.384113	-0.293027
Zn8	Zn	1.335365	-0.050780	0.040307
Zn9	Zn	1.668699	0.282553	0.373640
Zn10	Zn	1.002009	-0.545338	-0.416044
Zn11	Zn	1.335343	-0.212004	-0.082711
Zn12	Zn	1.668676	0.121329	0.250622
O13	O	1.063540	-0.464735	-0.354539
O14	O	1.396873	-0.131402	-0.021206
O15	O	1.730207	0.201931	0.312127
O16	O	1.228073	-0.405505	-0.399755
O17	O	1.561406	-0.072171	-0.066422
O18	O	1.894740	0.261162	0.266911
O19	O	1.108681	-0.524041	-0.190030
O20	O	1.442014	-0.190707	0.143303
O21	O	1.775347	0.142626	0.476636
O22	O	1.018400	-0.249129	-0.309367
O23	O	1.351733	0.084205	0.023966
O24	O	1.685067	0.417538	0.357300
O25	O	1.228014	-0.524018	-0.309343
O26	O	1.561347	-0.190685	0.023990
O27	O	1.894681	0.142649	0.357323
O28	O	1.108817	-0.249112	-0.399769
O29	O	1.442150	0.084222	-0.066435
O30	O	1.775484	0.417555	0.266898
O31	O	1.018322	-0.405544	-0.190041
O32	O	1.351656	-0.072211	0.143293
O33	O	1.684989	0.261123	0.476626
O34	O	0.899045	-0.405484	-0.309339
O35	O	1.232378	-0.072150	0.023994
O36	O	1.565711	0.261183	0.357328
O37	O	1.018361	-0.523912	-0.519032
O38	O	1.351695	-0.190579	-0.185699
O39	O	1.685028	0.142754	0.147634
O40	O	0.899028	-0.523935	-0.399719
O41	O	1.232361	-0.190601	-0.066386
O42	O	1.565695	0.142732	0.266947
O43	O	1.108795	-0.405444	-0.519054
O44	O	1.442129	-0.072111	-0.185720
O45	O	1.775462	0.261222	0.147613
O46	O	1.108659	-0.680373	-0.309315
O47	O	1.441992	-0.347040	0.024018
O48	O	1.775325	-0.013707	0.357351
O49	O	1.018284	-0.680328	-0.399706
O50	O	1.351617	-0.346994	-0.066373
O51	O	1.684950	-0.013661	0.266961
C52	C	0.872334	-0.464706	-0.354528
C53	C	1.205667	-0.131372	-0.021195
C54	C	1.539000	0.201961	0.312139
C55	C	0.790535	-0.464716	-0.354541
C56	C	1.123868	-0.131383	-0.021207
C57	C	1.457201	0.201950	0.312126
C58	C	1.063480	-0.715350	-0.354522
C59	C	1.396813	-0.382016	-0.021189
C60	C	1.730147	-0.048683	0.312144
C61	C	1.063522	-0.822564	-0.354539
C62	C	1.396855	-0.489230	-0.021206
C63	C	1.730188	-0.155897	0.312127
C64	C	0.525488	-0.526514	-0.401536
C65	C	0.858821	-0.193181	-0.068202
C66	C	1.192154	0.140153	0.265131
C67	C	0.602347	-0.526506	-0.401532
C68	C	0.935680	-0.193172	-0.068199
C69	C	1.269013	0.140161	0.265135
C70	C	0.602333	-0.402978	-0.307556
C71	C	0.935667	-0.069645	0.025778
C72	C	1.269000	0.263688	0.359111
C73	C	0.525476	-0.402992	-0.307556
C74	C	0.858809	-0.069659	0.025777
C75	C	1.192143	0.263675	0.359111
C76	C	0.487055	-0.464758	-0.354550
C77	C	0.820389	-0.131425	-0.021217
C78	C	1.153722	0.201908	0.312116
C79	C	0.640771	-0.464736	-0.354546
C80	C	0.974105	-0.131403	-0.021213
C81	C	1.307438	0.201930	0.312120
C82	C	0.724105	-0.464727	-0.354542
C83	C	1.057438	-0.131394	-0.021209
C84	C	1.390772	0.201940	0.312125
C85	C	0.403716	-0.464769	-0.354554
C86	C	0.737050	-0.131436	-0.021220
C87	C	1.070383	0.201897	0.312113
C88	C	1.063557	-0.909633	-0.354556
C89	C	1.396891	-0.576300	-0.021223
C90	C	1.730224	-0.242967	0.312110
C91	C	1.063609	-1.018866	-0.354575
C92	C	1.396942	-0.685532	-0.021242
C93	C	1.730276	-0.352199	0.312091
C94	C	1.255493	-0.464766	-0.354551
C95	C	1.588826	-0.131432	-0.021218
C96	C	1.922159	0.201901	0.312116
C97	C	1.337292	-0.464779	-0.354556
C98	C	1.670625	-0.131445	-0.021223
C99	C	2.003958	0.201888	0.312111
C100	C	1.063585	-0.464669	-0.546492
C101	C	1.396918	-0.131335	-0.213159
C102	C	1.730251	0.201998	0.120174
C103	C	1.063604	-0.464640	-0.628291
C104	C	1.396937	-0.131307	-0.294958
C105	C	1.730271	0.202026	0.038376
C106	C	1.063620	-0.213142	-0.354572
C107	C	1.396953	0.120191	-0.021239
C108	C	1.730287	0.453524	0.312094
C109	C	1.063654	-0.105928	-0.354587
C110	C	1.396988	0.227405	-0.021253
C111	C	1.730321	0.560738	0.312080
C112	C	1.110710	-0.402897	-0.816497
C113	C	1.444043	-0.069563	-0.483164
C114	C	1.777376	0.263770	-0.149831
C115	C	1.110718	-0.402868	-0.893356
C116	C	1.444052	-0.069535	-0.560023
C117	C	1.777385	0.263798	-0.226690
C118	C	1.016550	-0.526235	-0.893323
C119	C	1.349883	-0.192902	-0.559990
C120	C	1.683217	0.140431	-0.226656
C121	C	1.016538	-0.526258	-0.816465
C122	C	1.349872	-0.192924	-0.483132
C123	C	1.683205	0.140409	-0.149799
C124	C	1.063622	-0.464590	-0.778055
C125	C	1.396955	-0.131257	-0.444721
C126	C	1.730289	0.202077	-0.111388
C127	C	1.063643	-0.464539	-0.931771
C128	C	1.396976	-0.131206	-0.598438
C129	C	1.730309	0.202127	-0.265104
C130	C	1.063652	-0.464509	-1.015105
C131	C	1.396985	-0.131176	-0.681771
C132	C	1.730319	0.202157	-0.348438
C133	C	1.063612	-0.464618	-0.694716
C134	C	1.396945	-0.131285	-0.361382
C135	C	1.730279	0.202048	-0.028049
C136	C	1.063538	-0.464732	-0.163333
C137	C	1.396871	-0.131399	0.170000
C138	C	1.730204	0.201935	0.503334
C139	C	1.063661	-0.464489	-0.081534
C140	C	1.396994	-0.131155	0.251799
C141	C	1.730328	0.202178	0.585132
H142	H	0.633635	-0.576794	-0.439792
H143	H	0.966968	-0.243461	-0.106458
H144	H	1.300302	0.089872	0.226875
H145	H	0.494208	-0.576809	-0.439801
H146	H	0.827541	-0.243475	-0.106468
H147	H	1.160875	0.089858	0.226866
C148	C	0.644598	-0.335032	-0.255873
C149	C	0.977932	-0.001699	0.077460
C150	C	1.311265	0.331635	0.410793
H151	H	0.695877	-0.343860	-0.262607
H152	H	1.029210	-0.010527	0.070726
H153	H	1.362543	0.322807	0.404059
H154	H	0.631988	-0.349067	-0.206408
H155	H	0.965321	-0.015734	0.126925
H156	H	1.298655	0.317599	0.460259
H157	H	0.632011	-0.270239	-0.266733
H158	H	0.965345	0.063094	0.066600
H159	H	1.298678	0.396427	0.399933
H160	H	0.494183	-0.352702	-0.269291
H161	H	0.827517	-0.019369	0.064042
H162	H	1.160850	0.313965	0.397375
C163	C	1.162490	-0.335053	-0.774248
C164	C	1.495823	-0.001720	-0.440915
C165	C	1.829157	0.331614	-0.107581
H166	H	1.190529	-0.298300	-0.808154
H167	H	1.523862	0.035034	-0.474820
H168	H	1.857195	0.368367	-0.141487
H169	H	1.194543	-0.371956	-0.744262
H170	H	1.527876	-0.038622	-0.410928
H171	H	1.861209	0.294711	-0.077595
H172	H	1.134337	-0.293029	-0.744272
H173	H	1.467670	0.040304	-0.410939
H174	H	1.801004	0.373638	-0.077605
C175	C	1.162518	-0.335010	-0.935640
C176	C	1.495851	-0.001677	-0.602307
C177	C	1.829185	0.331656	-0.268973
H178	H	1.190560	-0.298294	-0.901754
H179	H	1.523893	0.035039	-0.568421
H180	H	1.857226	0.368372	-0.235087
H181	H	1.134387	-0.292967	-0.965625
H182	H	1.467720	0.040367	-0.632291
H183	H	1.801053	0.373700	-0.298958
H184	H	1.194579	-0.371912	-0.965620
H185	H	1.527912	-0.038578	-0.632287
H186	H	1.861245	0.294755	-0.298953
H187	H	0.978218	-0.576445	-0.924606
H188	H	1.311551	-0.243112	-0.591273
H189	H	1.644884	0.090222	-0.257940
C190	C	0.964744	-0.594130	-0.774176
C191	C	1.298077	-0.260797	-0.440842
C192	C	1.631411	0.072537	-0.107509
H193	H	0.936713	-0.630865	-0.808058
H194	H	1.270046	-0.297532	-0.474725
H195	H	1.603380	0.035802	-0.141391
H196	H	0.932685	-0.557240	-0.744193
H197	H	1.266018	-0.223907	-0.410859
H198	H	1.599352	0.109426	-0.077526
H199	H	0.992888	-0.636170	-0.744193
H200	H	1.326222	-0.302837	-0.410860
H201	H	1.659555	0.030496	-0.077527
