data_functionalizedCrystal
_audit_creation_method	'MofGen! by Chris Wilmer'
_symmetry_space_group_name_H-M	'P1'
_symmetry_Int_Tables_number	1
_symmetry_cell_setting	triclinic
loop_
_symmetry_equiv_pos_as_xyz
  x,y,z
_cell_length_a	23.096457
_cell_length_b	20.919309
_cell_length_c	20.919292
_cell_angle_alpha	59.202373
_cell_angle_beta	93.153764
_cell_angle_gamma	62.591463
loop_
_atom_site_label
_atom_site_type_symbol
_atom_site_fract_x
_atom_site_fract_y
_atom_site_fract_z
Zr1	Zr	0.576916	0.700777	-0.111347
O2	O	0.483819	0.834340	-0.218774
O3	O	0.602370	0.567214	-0.074806
O4	O	0.600159	0.700779	-0.213575
O5	O	0.491284	0.700773	0.025353
O6	O	0.695439	0.700781	-0.213579
O7	O	0.486030	0.700775	-0.080005
O8	O	0.699395	0.461858	0.034654
O9	O	0.487328	0.939696	-0.222880
O10	O	0.688060	0.622152	-0.063584
O11	O	0.620874	0.622149	0.015046
O12	O	0.618271	0.779405	-0.148337
O13	O	0.551084	0.779402	-0.069706
Zr14	Zr	0.737255	0.700777	0.056681
Zr15	Zr	0.728877	0.700780	-0.111353
Zr16	Zr	0.585294	0.700774	0.056687
Zr17	Zr	0.582513	0.868809	-0.117895
Zr18	Zr	0.731659	0.532746	0.063228
O19	O	0.711801	0.834340	0.020139
O20	O	0.699888	0.834344	-0.218783
O21	O	0.495732	0.834336	0.020148
O22	O	0.830352	0.567214	0.164108
O23	O	0.818439	0.567219	-0.074814
O24	O	0.614283	0.567210	0.164117
O25	O	0.822888	0.700781	-0.080019
O26	O	0.714012	0.700775	0.158909
O27	O	0.618732	0.700773	0.158912
O28	O	0.828141	0.700779	0.025339
O29	O	0.608117	0.939698	-0.222885
O30	O	0.706054	0.461856	0.168219
O31	O	0.826843	0.461858	0.168214
O32	O	0.820183	0.461860	0.034649
O33	O	0.493988	0.939694	-0.089315
O34	O	0.614777	0.939696	-0.089320
O35	O	0.695901	0.622149	0.093671
O36	O	0.763087	0.622152	0.015040
O37	O	0.693298	0.779405	-0.069712
O38	O	0.626112	0.779402	0.008918
C39	C	0.650085	0.490595	-0.019143
C40	C	0.647709	0.419262	-0.016363
C41	C	0.467006	0.700774	-0.027325
C42	C	0.402494	0.700772	-0.027323
C43	C	0.681661	0.385750	-0.056102
C44	C	0.679431	0.318720	-0.053482
C45	C	0.643243	0.285207	-0.011129
C46	C	0.609290	0.318721	0.028615
C47	C	0.611525	0.385745	0.026000
C48	C	0.634745	0.082831	-0.001175
C49	C	0.632510	0.015804	0.001435
C50	C	0.702652	0.015807	-0.080661
C51	C	0.704880	0.082836	-0.083276
C52	C	0.670930	0.116341	-0.043529
C53	C	0.640961	0.216693	-0.008452
C54	C	0.673218	0.184849	-0.046201
C55	C	0.408617	0.618691	0.016910
C56	C	0.348002	0.618689	0.016913
C57	C	0.281263	0.700774	-0.027331
C58	C	0.275143	0.782867	-0.071566
C59	C	0.335758	0.782866	-0.071561
N60	N	0.157172	0.761876	-0.096512
N61	N	0.099592	0.761871	-0.096514
C62	C	0.098630	0.700783	-0.027345
N63	N	0.157429	0.639685	0.041825
N64	N	0.215015	0.639687	0.041826
C65	C	0.215532	0.700785	-0.027340
C66	C	0.039030	0.618694	0.016895
C67	C	-0.021588	0.618696	0.016900
C68	C	-0.094447	0.782876	-0.071586
C69	C	-0.033830	0.782872	-0.071584
C70	C	0.032906	0.700778	-0.027345
C71	C	0.847166	0.700781	-0.027341
C72	C	0.911677	0.700782	-0.027344
C73	C	0.646605	0.700781	-0.237518
C74	C	0.643048	0.700782	-0.308853
C75	C	0.664087	0.910959	-0.035523
C76	C	0.666463	0.982293	-0.038303
C77	C	0.693868	0.700784	-0.342368
C78	C	0.690527	0.700777	-0.409390
C79	C	0.636364	0.700775	-0.442900
C80	C	0.585542	0.700769	-0.409378
C81	C	0.588886	0.700770	-0.342354
C82	C	0.623645	0.700768	-0.645267
C83	C	0.620304	0.700770	-0.712298
C84	C	0.725290	0.700776	-0.712305
C85	C	0.728626	0.700782	-0.645282
C86	C	0.677807	0.700772	-0.611764
C87	C	0.632947	0.700771	-0.511409
C88	C	0.681227	0.700770	-0.543252
C89	C	0.667566	0.700774	0.182852
C90	C	0.671123	0.700772	0.254187
C91	C	0.840165	0.490599	-0.019151
C92	C	0.902300	0.419266	-0.016374
C93	C	0.660565	0.490592	0.191042
C94	C	0.661746	0.419257	0.265156
C95	C	0.850645	0.490595	0.191034
C96	C	0.916338	0.419262	0.265146
C97	C	0.463526	0.910959	-0.245700
C98	C	0.397834	0.982293	-0.319812
C99	C	0.474006	0.910955	-0.035516
C100	C	0.411871	0.982288	-0.038293
C101	C	0.653606	0.910962	-0.245708
C102	C	0.652425	0.982297	-0.319823
C103	C	0.892316	0.385768	-0.056118
C104	C	0.950693	0.318753	-0.053525
C105	C	1.019053	0.285232	-0.011182
C106	C	1.029036	0.318738	0.028563
C107	C	0.970660	0.385756	0.025965
C108	C	0.701464	0.385757	0.341010
C109	C	0.702572	0.318740	0.410654
C110	C	0.663965	0.285219	0.404444
C111	C	0.624242	0.318725	0.328583
C112	C	0.623131	0.385746	0.258940
C113	C	0.982264	0.385764	0.258905
C114	C	1.043995	0.318748	0.328535
C115	C	1.039797	0.285226	0.404404
C116	C	0.973864	0.318730	0.410642
C117	C	0.912135	0.385750	0.341014
C118	C	0.331908	1.015798	-0.313572
C119	C	0.270177	1.082836	-0.383202
C120	C	0.274375	1.116361	-0.459071
C121	C	0.340309	1.082852	-0.465310
C122	C	0.402037	1.015821	-0.395681
C123	C	0.421855	1.015793	0.001444
C124	C	0.363478	1.082827	-0.001168
C125	C	0.295118	1.116350	-0.043513
C126	C	0.285135	1.082841	-0.083255
C127	C	0.343511	1.015813	-0.080647
C128	C	0.691040	1.015797	-0.313586
C129	C	0.689945	1.082815	-0.383218
C130	C	0.650229	1.116336	-0.459085
C131	C	0.611613	1.082830	-0.465320
C132	C	0.612713	1.015809	-0.395689
H133	H	0.711125	0.413036	-0.090595
C134	C	0.206472	1.190090	-0.535658
H135	H	0.218409	1.205266	-0.581741
H136	H	0.178320	1.168117	-0.534797
H137	H	0.180799	1.242382	-0.537689
H138	H	0.335372	0.988535	-0.113003
H139	H	0.588846	0.700771	-0.538699
C140	C	0.817127	0.422633	-0.102703
H141	H	0.819552	0.393084	-0.126006
H142	H	0.793334	0.411646	-0.066853
H143	H	0.792113	0.485916	-0.144008
C144	C	0.597393	0.119687	0.042536
H145	H	0.575515	0.090134	0.068125
H146	H	0.630999	0.108702	0.081803
H147	H	0.562607	0.182969	0.004638
C148	C	0.482024	0.528394	0.065579
H149	H	0.517250	0.540146	0.059244
H150	H	0.488904	0.494666	0.120888
H151	H	0.485210	0.494668	0.046617
H152	H	0.707078	0.291435	-0.085840
C153	C	0.740000	-0.021053	-0.124373
H154	H	0.761868	0.008510	-0.149975
H155	H	0.774782	-0.084332	-0.086482
H156	H	0.706387	-0.010061	-0.163643
H157	H	0.592809	0.291422	0.323538
C158	C	0.579443	0.422582	0.175506
H159	H	0.556617	0.393009	0.181789
H160	H	0.545034	0.485861	0.145177
H161	H	0.609731	0.411583	0.148083
C162	C	0.939699	0.281900	-0.097236
H163	H	0.890625	0.311453	-0.122811
H164	H	0.960219	0.292889	-0.136515
H165	H	0.961461	0.218617	-0.059340
C166	C	0.567740	0.700768	-0.608412
H167	H	0.535001	0.700777	-0.637976
H168	H	0.590163	0.648256	-0.553963
H169	H	0.543554	0.753288	-0.610573
C170	C	0.112441	0.528399	0.065559
H171	H	0.147665	0.540154	0.059218
H172	H	0.119327	0.494669	0.120870
H173	H	0.115623	0.494673	0.046599
H174	H	0.576194	0.700768	-0.739579
C175	C	0.713024	0.221706	-0.092786
H176	H	0.732931	0.192147	-0.116077
H177	H	0.681158	0.284985	-0.134086
H178	H	0.749554	0.210711	-0.056925
H179	H	0.547505	0.700766	-0.315065
H180	H	0.970457	0.291426	0.472424
H181	H	0.371621	1.110098	0.031198
C182	C	0.525963	0.700769	-0.446238
H183	H	0.531245	0.700779	-0.490961
H184	H	0.528246	0.648257	-0.406951
H185	H	0.481637	0.753289	-0.463556
H186	H	0.664875	0.230646	0.461158
H187	H	0.330767	0.849709	-0.107579
H188	H	0.247591	1.170928	-0.045630
H189	H	0.343718	1.110158	-0.527091
C190	C	0.839619	0.422580	0.347889
H191	H	0.845967	0.393005	0.403048
H192	H	0.815306	0.485859	0.320987
H193	H	0.812852	0.411577	0.323887
C194	C	1.107701	0.211507	0.480990
H195	H	1.095764	0.196341	0.527073
H196	H	1.133383	0.159217	0.483026
H197	H	1.135845	0.233496	0.480124
C198	C	0.570225	0.978977	-0.402559
H199	H	0.546411	1.008551	-0.457717
H200	H	0.601360	0.915698	-0.375658
H201	H	0.536676	0.989979	-0.378554
H202	H	0.477513	0.988505	0.035932
H203	H	0.725329	0.700767	-0.515965
C204	C	0.474553	0.978937	-0.402549
H205	H	0.510720	0.934209	-0.350219
H206	H	0.477578	0.952803	-0.429386
H207	H	0.480101	1.027042	-0.432275
H208	H	-0.016595	0.551852	0.052925
C209	C	1.083260	0.211506	-0.008322
H210	H	1.067517	0.196354	-0.038051
H211	H	1.110324	0.233464	-0.031152
H212	H	1.111544	0.159202	0.046009
C213	C	0.567924	1.119717	-0.548776
H214	H	0.572797	1.164438	-0.589347
H215	H	0.584346	1.071615	-0.552799
H216	H	0.519665	1.145879	-0.555676
H217	H	-0.148786	0.849712	-0.107612
H218	H	0.737971	0.700792	-0.315092
H219	H	1.084703	0.291436	0.063037
H220	H	0.978800	0.413022	0.058334
H221	H	0.985695	0.413048	0.197135
H222	H	1.097675	0.291475	0.323441
C223	C	0.743932	0.422624	0.347853
H224	H	0.737591	0.467334	0.295516
H225	H	0.727857	0.448775	0.374680
H226	H	0.792553	0.374504	0.377579
C227	C	0.592705	-0.021064	0.048027
H228	H	0.596230	-0.065772	0.043882
H229	H	0.612857	-0.047217	0.103043
H230	H	0.544462	0.027057	0.025882
H231	H	0.328476	0.988506	-0.251802
C232	C	0.746271	0.281888	0.494093
H233	H	0.741401	0.237179	0.534685
H234	H	0.794525	0.255739	0.500984
H235	H	0.729836	0.330016	0.498087
H236	H	0.229468	1.110146	-0.117732
H237	H	0.579830	0.291424	0.063105
H238	H	0.216498	1.110107	-0.378106
C239	C	0.734732	0.978930	-0.230140
H240	H	0.729858	0.934220	-0.189555
H241	H	0.782985	0.952780	-0.223245
H242	H	0.718297	1.027051	-0.226135
C243	C	0.732415	1.119670	-0.376346
H244	H	0.756213	1.090116	-0.321189
H245	H	0.765965	1.108684	-0.400348
H246	H	0.701262	1.182953	-0.403252
H247	H	0.583876	0.413032	0.058357
C248	C	0.744687	0.119696	-0.129865
H249	H	0.764592	0.090133	-0.153153
H250	H	0.712819	0.182974	-0.171168
H251	H	0.781216	0.108706	-0.094009
C252	C	0.354732	0.528396	0.065566
H253	H	0.403158	0.479505	0.091910
H254	H	0.334449	0.524978	0.104537
H255	H	0.330749	0.524995	0.030259
C256	C	0.746423	0.700793	-0.446262
H257	H	0.779153	0.700809	-0.416713
H258	H	0.770613	0.648282	-0.444108
H259	H	0.723986	0.753314	-0.500713
H260	H	0.649340	1.170910	-0.515777
H261	H	0.611497	0.189399	0.026032
H262	H	0.220800	0.849702	-0.107589
H263	H	-0.038819	0.849712	-0.107609
H264	H	0.766666	0.700783	-0.739601
C265	C	0.788209	0.700777	-0.608422
H266	H	0.818002	0.700769	-0.637978
H267	H	0.768392	0.753288	-0.610576
H268	H	0.815002	0.648256	-0.553971
