data_functionalizedCrystal
_audit_creation_method	'MofGen! by Chris Wilmer'
_symmetry_space_group_name_H-M	'P1'
_symmetry_Int_Tables_number	1
_symmetry_cell_setting	triclinic
loop_
_symmetry_equiv_pos_as_xyz
  x,y,z
_cell_length_a	14.560438
_cell_length_b	12.970454
_cell_length_c	12.970454
_cell_angle_alpha	60.000396
_cell_angle_beta	90.001163
_cell_angle_gamma	60.001416
loop_
_atom_site_label
_atom_site_type_symbol
_atom_site_fract_x
_atom_site_fract_y
_atom_site_fract_z
Zr1	Zr	0.884757	1.128528	-0.135274
O2	O	0.738113	1.343613	-0.299898
O3	O	0.929711	0.913440	-0.084809
O4	O	0.929713	1.128528	-0.299897
O5	O	0.738110	1.128526	0.084856
O6	O	1.080851	1.128530	-0.299894
O7	O	0.738111	1.128525	-0.084810
O8	O	1.080848	0.743778	0.084859
O9	O	0.738113	1.513279	-0.299897
O10	O	1.061677	1.001912	-0.063282
O11	O	0.948883	1.001910	0.063336
O12	O	0.948885	1.255148	-0.189903
O13	O	0.836092	1.255147	-0.063284
Zr14	Zr	1.125803	1.128534	0.135329
Zr15	Zr	1.125805	1.128532	-0.135269
Zr16	Zr	0.884755	1.128529	0.135325
Zr17	Zr	0.884758	1.399125	-0.135271
Zr18	Zr	1.125803	0.857936	0.135327
O19	O	1.080849	1.343622	0.084864
O20	O	1.080852	1.343619	-0.299892
O21	O	0.738110	1.343615	0.084858
O22	O	1.272448	0.913448	0.299954
O23	O	1.272450	0.913446	-0.084803
O24	O	0.929709	0.913442	0.299948
O25	O	1.272451	1.128535	-0.084801
O26	O	1.080847	1.128534	0.299952
O27	O	0.929709	1.128531	0.299949
O28	O	1.272450	1.128536	0.084866
O29	O	0.929714	1.513283	-0.299893
O30	O	1.080846	0.743779	0.299949
O31	O	1.272447	0.743782	0.299952
O32	O	1.272449	0.743781	0.084863
O33	O	0.738112	1.513280	-0.084807
O34	O	0.929713	1.513284	-0.084804
O35	O	1.061675	1.001913	0.189958
O36	O	1.174469	1.001914	0.063340
O37	O	1.061677	1.255151	-0.063280
O38	O	0.948884	1.255150	0.063338
C39	C	1.005279	0.790054	0.000025
C40	C	1.005279	0.675178	0.000024
C41	C	0.703766	1.128525	0.000022
C42	C	0.601435	1.128523	0.000020
C43	C	0.612232	0.996338	0.066115
C44	C	0.516077	0.996345	0.066126
C45	C	0.398331	1.260733	-0.066061
C46	C	0.494485	1.260725	-0.066064
C47	C	0.719182	0.864137	0.132199
C48	C	0.729984	0.731941	0.198298
C49	C	0.633829	0.731948	0.198309
C50	C	0.526872	0.864151	0.132222
C51	C	1.306795	1.128536	0.000033
C52	C	1.409126	1.128538	0.000035
C53	C	1.005282	1.128529	-0.338450
C54	C	1.005283	1.128528	-0.453326
C55	C	1.005281	1.467007	0.000031
C56	C	1.005282	1.581883	0.000032
C57	C	1.005278	1.128532	0.338505
C58	C	1.005277	1.128533	0.453381
C59	C	1.306793	0.790060	0.000030
C60	C	1.409124	0.675186	0.000031
C61	C	1.005277	0.790056	0.338502
C62	C	1.005276	0.675181	0.453378
C63	C	1.306791	0.790062	0.338508
C64	C	1.409122	0.675189	0.453385
C65	C	0.703769	1.466999	-0.338452
C66	C	0.601439	1.581873	-0.453329
C67	C	0.703767	1.467001	0.000025
C68	C	0.601436	1.581875	0.000024
C69	C	1.005283	1.467005	-0.338447
C70	C	1.005284	1.581880	-0.453322
C71	C	1.457180	0.527756	0.093507
C72	C	1.553321	0.419805	0.093512
C73	C	1.601409	0.459287	0.000045
C74	C	1.553345	0.606732	-0.093439
C75	C	1.457201	0.714680	-0.093449
C76	C	1.457184	0.527759	0.507331
C77	C	1.553345	0.419806	0.615258
C78	C	1.601437	0.459287	0.669242
C79	C	1.553369	0.606732	0.615287
C80	C	1.457215	0.714681	0.507356
C81	C	0.553384	1.729303	-0.507285
C82	C	0.457245	1.837255	-0.615236
C83	C	0.409157	1.797773	-0.669224
C84	C	0.457220	1.650329	-0.615263
C85	C	0.553363	1.542380	-0.507320
C86	C	0.553378	1.542347	0.093507
C87	C	0.457237	1.650268	0.093532
C88	C	0.409151	1.797716	0.000068
C89	C	0.457217	1.837244	-0.093420
C90	C	0.553361	1.729324	-0.093439
H91	H	0.817073	0.624308	0.252112
H92	H	0.797483	0.864116	0.132195
H93	H	1.592512	0.638859	-0.169537
H94	H	0.642629	0.624309	0.252139
H95	H	0.448581	0.864146	0.132244
N96	N	0.405344	1.607746	-0.673483
H97	H	0.462103	1.548095	-0.699654
H98	H	0.337136	1.698574	-0.750000
H99	H	1.679693	0.371374	0.000065
H100	H	1.418086	0.834724	0.463446
N101	N	0.305448	1.914212	-0.785636
H102	H	0.282304	2.013597	-0.811610
H103	H	0.242320	1.903384	-0.766595
H104	H	0.592480	1.761529	-0.169569
H105	H	1.418040	0.495585	0.463391
H106	H	0.592522	1.761477	-0.463338
N107	N	0.282979	1.403314	-0.137334
H108	H	0.223704	1.383261	-0.127304
H109	H	0.274069	1.461044	-0.229768
H110	H	1.418085	0.834723	-0.169566
N111	N	1.605118	0.260794	0.194342
H112	H	1.628422	0.238715	0.280156
H113	H	1.673276	0.198470	0.180072
N114	N	1.605171	0.260785	0.673455
H115	H	1.685098	0.211825	0.673278
H116	H	1.560022	0.252285	0.622847
H117	H	0.592477	1.422337	-0.463392
H118	H	1.679731	0.371373	0.757127
N119	N	0.605224	1.383321	0.194314
H120	H	0.560181	1.374678	0.253532
H121	H	0.685161	1.334460	0.243335
H122	H	1.418039	0.495581	0.169621
H123	H	1.592541	0.638858	0.659257
N124	N	0.305453	1.914101	0.000104
H125	H	0.242262	1.903380	-0.008137
H126	H	0.282371	2.013457	-0.073286
H127	H	0.418123	1.957303	-0.659153
N128	N	0.405345	1.996290	-0.194185
H129	H	0.325405	2.045244	-0.243284
H130	H	0.450443	2.004883	-0.253340
N131	N	0.482849	1.403291	-0.137342
H132	H	0.400508	1.487041	-0.179212
H133	H	0.520176	1.409049	-0.203791
H134	H	0.418113	1.618056	0.169661
