data_functionalizedCrystal
_audit_creation_method	'MofGen! by Chris Wilmer'
_symmetry_space_group_name_H-M	'P1'
_symmetry_Int_Tables_number	1
_symmetry_cell_setting	triclinic
loop_
_symmetry_equiv_pos_as_xyz
  x,y,z
_cell_length_a	12.811457
_cell_length_b	12.837942
_cell_length_c	11.892095
_cell_angle_alpha	85.697431
_cell_angle_beta	91.498327
_cell_angle_gamma	90.588063
loop_
_atom_site_label
_atom_site_type_symbol
_atom_site_fract_x
_atom_site_fract_y
_atom_site_fract_z
O1	O	1.403418	-0.143175	0.049870
O2	O	1.101350	-0.156192	0.018901
O3	O	1.245685	0.001296	0.033706
O4	O	1.259082	-0.300663	0.035066
O5	O	1.233649	-0.011815	0.220479
O6	O	1.089313	-0.169303	0.205674
O7	O	1.391381	-0.156286	0.236643
Zn8	Zn	1.238436	-0.164876	0.250813
Zn9	Zn	1.254295	-0.147602	0.004732
O10	O	1.247046	-0.313774	0.221838
C11	C	1.056400	-0.161616	0.108296
C12	C	0.940394	-0.158233	0.096403
C13	C	0.709282	-0.166152	0.277697
C14	C	0.600284	-0.162973	0.266528
C15	C	0.613398	-0.148690	0.062897
C16	C	0.722396	-0.151869	0.074066
C17	C	0.770334	-0.160601	0.181470
C18	C	0.879334	-0.163787	0.192638
C19	C	0.892446	-0.149497	-0.010992
C20	C	0.783448	-0.146318	-0.022161
C21	C	1.235142	0.033413	0.126628
C22	C	1.221645	0.148646	0.125242
C23	C	1.436332	-0.150862	0.147246
C24	C	1.552338	-0.154244	0.159132
C25	C	1.257590	-0.345891	0.128914
C26	C	1.271087	-0.461124	0.130292
N27	N	1.227621	-0.176664	0.418758
C28	C	1.383903	0.387735	0.141854
C29	C	1.371227	0.496007	0.140552
C30	C	1.183617	0.473465	0.121330
C31	C	1.196293	0.365193	0.122631
C32	C	1.296440	0.322332	0.132895
C33	C	1.309115	0.214057	0.134205
C34	C	1.121506	0.191518	0.114974
C35	C	1.108830	0.299790	0.113673
N36	N	1.265118	-0.135806	-0.163212
C37	C	1.340371	-0.053718	0.666970
C38	C	1.332819	-0.061965	0.784538
C39	C	1.204961	-0.201401	0.771461
C40	C	1.212513	-0.193154	0.653894
C41	C	1.280221	-0.119311	0.601653
C42	C	1.287778	-0.111069	0.484084
C43	C	1.159914	-0.250499	0.471009
C44	C	1.152363	-0.258747	0.588576
H45	H	0.550579	-0.167498	0.344887
H46	H	0.942166	-0.144984	-0.089348
N47	N	0.561680	-0.139281	-0.052935
H48	H	0.616894	-0.136250	-0.112205
H49	H	0.518816	-0.073452	-0.061792
H50	H	1.027293	0.334703	0.105312
N51	N	1.095022	-0.321239	0.400555
H52	H	1.050985	-0.369266	0.451494
H53	H	1.142645	-0.364182	0.356326
H54	H	1.097233	-0.318866	0.631124
N55	N	1.131948	-0.281039	0.827835
H56	H	1.152593	-0.353408	0.809362
H57	H	1.058060	-0.266678	0.799668
H58	H	1.050286	0.138254	0.107688
H59	H	1.390659	0.179162	0.142567
H60	H	0.918363	-0.170904	0.280091
H61	H	0.748313	-0.173275	0.365149
N62	N	0.731731	-0.136895	-0.137993
H63	H	0.684725	-0.199452	-0.147375
H64	H	0.787009	-0.133828	-0.197191
H65	H	1.395509	0.006402	0.624436
H66	H	1.465446	0.352836	0.150222
N67	N	1.465561	0.566551	0.150213
H68	H	1.530923	0.522965	0.156912
H69	H	1.459930	0.607108	0.219331
N70	N	1.360806	-0.031432	0.427734
H71	H	1.397762	0.008871	0.486956
H72	H	1.319446	0.018350	0.374402
H73	H	1.102083	0.508383	0.112961
N74	N	1.397704	0.008772	0.854991
H75	H	1.441743	0.056796	0.804053
H76	H	1.444630	-0.034948	0.908883
