data_functionalizedCrystal
_audit_creation_method	'MofGen! by Chris Wilmer'
_symmetry_space_group_name_H-M	'P1'
_symmetry_Int_Tables_number	1
_symmetry_cell_setting	triclinic
loop_
_symmetry_equiv_pos_as_xyz
  x,y,z
_cell_length_a	9.730217
_cell_length_b	16.992694
_cell_length_c	16.992695
_cell_angle_alpha	90.668223
_cell_angle_beta	89.996317
_cell_angle_gamma	90.004200
loop_
_atom_site_label
_atom_site_type_symbol
_atom_site_fract_x
_atom_site_fract_y
_atom_site_fract_z
O1	O	0.114119	-1.050847	-0.166915
O2	O	0.614119	-0.550847	0.333085
O3	O	0.114159	-0.822447	-0.165084
O4	O	0.614159	-0.322447	0.334916
O5	O	0.114128	-0.935731	-0.051799
O6	O	0.614128	-0.435731	0.448201
O7	O	0.114150	-0.937563	-0.280199
O8	O	0.614150	-0.437563	0.219801
O9	O	-0.114452	-0.935728	-0.051798
O10	O	0.385548	-0.435728	0.448202
O11	O	-0.114421	-0.822443	-0.165083
O12	O	0.385579	-0.322443	0.334917
O13	O	-0.114461	-1.050843	-0.166914
O14	O	0.385539	-0.550843	0.333086
Zn15	Zn	-0.150733	-0.936643	-0.165998
Zn16	Zn	0.349267	-0.436643	0.334002
Zn17	Zn	0.150431	-0.936648	-0.166000
Zn18	Zn	0.650431	-0.436648	0.334000
O19	O	-0.114430	-0.937559	-0.280198
O20	O	0.385570	-0.437559	0.219802
C21	C	-0.000125	-0.793085	-0.162727
C22	C	0.499875	-0.293085	0.337273
C23	C	-0.000110	-0.705600	-0.155699
C24	C	0.499890	-0.205600	0.344301
N25	N	-0.356269	-0.936645	-0.165997
N26	N	0.143731	-0.436645	0.334003
C27	C	-0.000161	-0.933374	-0.022439
C28	C	0.499839	-0.433374	0.477561
C29	C	-0.000159	-0.926345	0.065046
C30	C	0.499841	-0.426345	0.565046
C31	C	-0.356287	-1.037004	-0.065717
C32	C	0.143713	-0.537004	0.434283
C33	C	-0.428236	-1.087189	-0.015579
C34	C	0.071764	-0.587189	0.484421
C35	C	-0.572116	-1.087197	-0.015579
C36	C	-0.072116	-0.587197	0.484421
C37	C	-0.644050	-1.037013	-0.065720
C38	C	-0.144050	-0.537013	0.434280
C39	C	-0.572101	-0.986828	-0.115858
C40	C	-0.072101	-0.486828	0.384142
C41	C	-0.428218	-0.986827	-0.115854
C42	C	0.071782	-0.486827	0.384146
C43	C	-0.572083	-0.886466	-0.216132
C44	C	-0.072083	-0.386466	0.283868
C45	C	-0.428204	-0.886461	-0.216138
C46	C	0.071796	-0.386461	0.283862
C47	C	-0.644018	-0.836283	-0.266274
C48	C	-0.144018	-0.336283	0.233726
C49	C	-0.572069	-0.786101	-0.316416
C50	C	-0.072069	-0.286101	0.183584
C51	C	-0.428180	-0.786095	-0.316415
C52	C	0.071820	-0.286095	0.183585
C53	C	-0.356255	-0.836276	-0.266275
C54	C	0.143745	-0.336276	0.233725
N55	N	0.355968	-0.936651	-0.165995
N56	N	0.855968	-0.436651	0.334005
C57	C	-0.000173	-1.080205	-0.169270
C58	C	0.499827	-0.580205	0.330730
C59	C	-0.000179	-1.167690	-0.176299
C60	C	0.499821	-0.667690	0.323701
C61	C	-0.000105	-0.659610	-0.223517
C62	C	0.499895	-0.159610	0.276483
C63	C	-0.000125	-0.577409	-0.216908
C64	C	0.499875	-0.077409	0.283092
C65	C	-0.000140	-0.541201	-0.142480
C66	C	0.499860	-0.041201	0.357520
C67	C	-0.000149	-0.587198	-0.074657
C68	C	0.499851	-0.087198	0.425343
C69	C	-0.000139	-0.669397	-0.081267
C70	C	0.499861	-0.169397	0.418733
C71	C	-0.000179	-0.295886	-0.115086
C72	C	0.499821	0.204114	0.384914
C73	C	-0.000185	-0.213681	-0.108481
C74	C	0.499815	0.286319	0.391519
C75	C	-0.000163	-0.203898	-0.250732
C76	C	0.499837	0.296102	0.249268
C77	C	-0.000145	-0.286099	-0.257336
C78	C	0.499855	0.213901	0.242664
C79	C	-0.000161	-0.332089	-0.189512
C80	C	0.499839	0.167911	0.310488
N81	N	-0.000155	-0.457178	-0.135723
N82	N	0.499845	0.042822	0.364277
N83	N	-0.000155	-0.416110	-0.196270
N84	N	0.499845	0.083890	0.303730
C85	C	-0.000138	-0.939917	-0.309559
C86	C	0.499862	-0.439917	0.190441
C87	C	-0.000130	-0.946945	-0.397044
C88	C	0.499870	-0.446945	0.102956
C89	C	-0.000173	-0.994163	0.111037
C90	C	0.499827	-0.494163	0.611037
C91	C	-0.000159	-0.987554	0.193238
C92	C	0.499841	-0.487554	0.693238
C93	C	-0.000141	-0.913127	0.229446
C94	C	0.499859	-0.413127	0.729446
C95	C	-0.000123	-0.845303	0.183449
C96	C	0.499877	-0.345303	0.683449
C97	C	-0.000128	-0.851913	0.101250
C98	C	0.499872	-0.351913	0.601250
C99	C	-0.000117	-0.885732	0.474760
C100	C	0.499883	-0.385732	0.974760
C101	C	-0.000117	-0.879127	0.556966
C102	C	0.499883	-0.379127	1.056966
C103	C	-0.000150	-1.021379	0.566749
C104	C	0.499850	-0.521379	1.066749
C105	C	-0.000162	-1.027982	0.484547
C106	C	0.499838	-0.527982	0.984547
C107	C	-0.000137	-0.960159	0.438558
C108	C	0.499863	-0.460159	0.938558
N109	N	-0.000131	-0.906369	0.313468
N110	N	0.499869	-0.406369	0.813468
N111	N	-0.000138	-0.966917	0.354537
N112	N	0.499862	-0.466917	0.854537
H113	H	-0.239133	-1.037009	-0.065719
H114	H	0.260867	-0.537009	0.434281
H115	H	-0.761205	-1.037015	-0.065710
H116	H	-0.261205	-0.537015	0.434290
H117	H	-0.000092	-0.689084	-0.284124
H118	H	0.499908	-0.189084	0.215876
C119	C	-0.000192	-1.076034	0.071215
C120	C	0.499808	-0.576034	0.571215
H121	H	-0.000186	-1.115477	0.110381
H122	H	0.499814	-0.615477	0.610381
H123	H	-0.079904	-1.081570	0.039356
H124	H	0.420096	-0.581570	0.539356
H125	H	0.079528	-1.081570	0.039350
H126	H	0.579528	-0.581570	0.539350
C127	C	-0.000151	-0.153312	-0.325333
C128	C	0.499849	0.346688	0.174667
H129	H	-0.000131	-0.186649	-0.370605
H130	H	0.499869	0.313351	0.129395
H131	H	-0.079863	-0.121046	-0.325715
H132	H	0.420137	0.378954	0.174285
H133	H	0.079569	-0.121039	-0.325710
H134	H	0.579569	0.378961	0.174290
C135	C	-0.000204	-0.173853	-0.026607
C136	C	0.499796	0.326147	0.473393
H137	H	-0.000223	-0.213015	0.012840
H138	H	0.499777	0.286985	0.512840
H139	H	0.079506	-0.141987	-0.021072
H140	H	0.579506	0.358013	0.478928
H141	H	-0.079926	-0.141994	-0.021078
H142	H	0.420074	0.358006	0.478922
H143	H	-0.000177	-1.088589	0.455073
H144	H	0.499823	-0.588589	0.955073
H145	H	-0.630697	-1.128058	0.025250
H146	H	-0.130697	-0.628058	0.525250
C147	C	-0.000187	-1.062154	0.243824
C148	C	0.499813	-0.562154	0.743824
H149	H	-0.000219	-1.107427	0.210487
H150	H	0.499781	-0.607427	0.710487
H151	H	0.079523	-1.062542	0.276091
H152	H	0.579523	-0.562542	0.776091
H153	H	-0.079909	-1.062525	0.276096
H154	H	0.420091	-0.562525	0.776096
C155	C	-0.349047	-0.730892	-0.371568
C156	C	0.150953	-0.230892	0.128432
H157	H	-0.412499	-0.701013	-0.401431
H158	H	0.087501	-0.201013	0.098569
H159	H	-0.292917	-0.696353	-0.341177
H160	H	0.207083	-0.196353	0.158823
H161	H	-0.292922	-0.761260	-0.406137
H162	H	0.207078	-0.261260	0.093863
C163	C	-0.000157	-1.095977	0.617338
C164	C	0.499843	-0.595977	1.117338
H165	H	-0.000139	-1.081384	0.671479
H166	H	0.499861	-0.581384	1.171479
H167	H	-0.079870	-1.126286	0.605883
H168	H	0.420130	-0.626286	1.105883
H169	H	0.079562	-1.126280	0.605871
H170	H	0.579562	-0.626280	1.105871
C171	C	-0.000114	-0.811129	0.424182
C172	C	0.499886	-0.311129	0.924182
H173	H	-0.000122	-0.765859	0.457521
H174	H	0.499878	-0.265859	0.957521
H175	H	0.079593	-0.810745	0.391906
H176	H	0.579593	-0.310745	0.891906
H177	H	-0.079839	-0.810752	0.391919
H178	H	0.420161	-0.310752	0.891919
H179	H	-0.000181	-0.557710	-0.014056
H180	H	0.499819	-0.057710	0.485944
H181	H	-0.761172	-0.836288	-0.266268
H182	H	-0.261172	-0.336288	0.233732
H183	H	-0.000194	-0.333322	-0.059859
H184	H	0.499806	0.166678	0.440141
H185	H	-0.000124	-0.818517	0.586443
H186	H	0.499876	-0.318517	1.086443
H187	H	-0.630646	-0.745241	-0.357234
H188	H	-0.130646	-0.245241	0.142766
H189	H	-0.000143	-0.706842	-0.026042
H190	H	0.499857	-0.206842	0.473958
C191	C	-0.000108	-0.763435	0.223276
C192	C	0.499892	-0.263435	0.723276
H193	H	-0.000122	-0.769210	0.278818
H194	H	0.499878	-0.269210	0.778818
H195	H	0.079607	-0.735293	0.207792
H196	H	0.579607	-0.235293	0.707792
H197	H	-0.079825	-0.735296	0.207795
H198	H	0.420175	-0.235296	0.707795
C199	C	-0.000116	-0.777314	0.050660
C200	C	0.499884	-0.277314	0.550660
H201	H	-0.000117	-0.732040	0.083995
H202	H	0.499883	-0.232040	0.583995
H203	H	0.079594	-0.776938	0.018387
H204	H	0.579594	-0.276938	0.518387
H205	H	-0.079838	-0.776933	0.018395
H206	H	0.420162	-0.276933	0.518395
C207	C	-0.349114	-1.142389	0.039572
C208	C	0.150886	-0.642389	0.539572
H209	H	-0.412572	-1.172272	0.069436
H210	H	0.087428	-0.672272	0.569436
H211	H	-0.292981	-1.176924	0.009180
H212	H	0.207019	-0.676924	0.509180
H213	H	-0.292994	-1.112017	0.074140
H214	H	0.207006	-0.612017	0.574140
H215	H	-0.000116	-0.315574	-0.317942
H216	H	0.499884	0.184426	0.182058
C217	C	-0.197991	-0.836273	-0.266270
C218	C	0.302009	-0.336273	0.233730
H219	H	-0.165460	-0.873342	-0.229225
H220	H	0.334540	-0.373342	0.270775
H221	H	-0.165428	-0.850186	-0.317265
H222	H	0.334572	-0.350186	0.182735
H223	H	-0.165447	-0.785284	-0.252300
H224	H	0.334553	-0.285284	0.247700
C225	C	-0.000105	-0.526819	-0.291505
C226	C	0.499895	-0.026819	0.208495
H227	H	-0.000126	-0.472678	-0.276912
H228	H	0.499874	0.027322	0.223088
H229	H	0.079617	-0.538273	-0.321807
H230	H	0.579617	-0.038273	0.178193
H231	H	-0.079815	-0.538286	-0.321816
H232	H	0.420185	-0.038286	0.178184
