data_functionalizedCrystal
_audit_creation_method	'MofGen! by Chris Wilmer'
_symmetry_space_group_name_H-M	'P1'
_symmetry_Int_Tables_number	1
_symmetry_cell_setting	triclinic
loop_
_symmetry_equiv_pos_as_xyz
  x,y,z
_cell_length_a	11.792241
_cell_length_b	16.109301
_cell_length_c	14.586319
_cell_angle_alpha	90.005214
_cell_angle_beta	89.997362
_cell_angle_gamma	96.172552
loop_
_atom_site_label
_atom_site_type_symbol
_atom_site_fract_x
_atom_site_fract_y
_atom_site_fract_z
O1	O	1.505908	-0.113953	-0.076225
O2	O	1.175464	-0.125697	-0.076231
O3	O	1.349763	0.001163	-0.076219
O4	O	1.331608	-0.240814	-0.076238
O5	O	1.349751	0.001165	0.076262
O6	O	1.175452	-0.125695	0.076249
O7	O	1.505896	-0.113951	0.076255
Cu8	Cu	1.340673	-0.119823	0.090175
Cu9	Cu	1.340687	-0.119825	-0.090151
O10	O	1.331596	-0.240812	0.076243
C11	C	1.133173	-0.124959	0.000008
C12	C	1.007179	-0.122751	0.000006
C13	C	1.548186	-0.114690	0.000014
C14	C	1.674181	-0.116898	0.000010
C15	C	1.349022	0.032142	0.000022
C16	C	1.346817	0.124448	0.000023
C17	C	1.904857	-0.120958	0.000010
C18	C	1.776492	-0.118702	0.000010
C19	C	1.332338	-0.271791	0.000000
C20	C	1.334542	-0.364097	-0.000007
N21	N	1.340671	-0.119821	0.217007
C22	C	1.445116	0.346258	0.000010
C23	C	1.443036	0.432988	0.000003
C24	C	1.236235	0.414087	0.000003
C25	C	1.238317	0.327358	0.000004
C26	C	1.342761	0.293446	0.000012
C27	C	1.338599	0.466905	0.000004
C28	C	1.336342	0.560942	-0.000005
C29	C	1.345018	0.199404	0.000019
N30	N	1.340698	-0.119821	-0.216983
C31	C	1.417876	-0.063666	0.452019
C32	C	1.417879	-0.063664	0.548000
C33	C	1.263484	-0.175978	0.547998
C34	C	1.263476	-0.175976	0.452019
C35	C	1.340679	-0.119821	0.404032
C36	C	1.340690	-0.119821	0.595992
C37	C	1.340693	-0.119820	0.700059
C38	C	1.340675	-0.119821	0.299958
H39	H	1.530161	0.318650	0.000016
H40	H	1.200607	-0.221704	0.412945
H41	H	1.526384	0.475984	-0.000000
H42	H	1.151201	0.441709	-0.000003
Br43	Br	1.099396	0.255679	-0.000006
H44	H	1.480738	-0.017940	0.412950
H45	H	1.480739	-0.017937	0.587069
H46	H	1.200629	-0.221700	0.587079
