data_functionalizedCrystal
_audit_creation_method	'MofGen! by Chris Wilmer'
_symmetry_space_group_name_H-M	'P1'
_symmetry_Int_Tables_number	1
_symmetry_cell_setting	triclinic
loop_
_symmetry_equiv_pos_as_xyz
  x,y,z
_cell_length_a	15.944493
_cell_length_b	15.944493
_cell_length_c	14.586319
_cell_angle_alpha	90.002083
_cell_angle_beta	89.997059
_cell_angle_gamma	83.475044
loop_
_atom_site_label
_atom_site_type_symbol
_atom_site_fract_x
_atom_site_fract_y
_atom_site_fract_z
O1	O	1.114531	0.108102	-0.076216
O2	O	0.869972	0.121509	-0.076219
O3	O	0.998955	-0.007474	-0.076225
O4	O	0.985548	0.237085	-0.076210
O5	O	0.998946	-0.007476	0.076256
O6	O	0.869963	0.121508	0.076262
O7	O	1.114522	0.108100	0.076265
Cu8	Cu	0.992242	0.114804	0.090186
Cu9	Cu	0.992252	0.114806	-0.090140
O10	O	0.985539	0.237083	0.076271
C11	C	0.838673	0.120961	0.000021
C12	C	0.745424	0.119318	0.000019
C13	C	0.509649	0.195240	0.000023
C14	C	0.459094	0.154297	0.075205
C15	C	0.574704	0.116273	0.000021
C16	C	0.459108	0.154280	-0.075129
C17	C	0.409795	0.113339	0.000018
C18	C	0.525378	0.075352	0.075265
C19	C	0.525395	0.075347	-0.075137
C20	C	0.474873	0.034346	0.000064
C21	C	0.669704	0.117966	0.000023
C22	C	0.314798	0.111640	0.000022
C23	C	0.998403	-0.038769	0.000011
C24	C	0.996760	-0.132018	-0.000000
C25	C	1.072682	-0.367793	0.000018
C26	C	1.031744	-0.418352	-0.075163
C27	C	0.993716	-0.302738	0.000011
C28	C	1.031717	-0.418330	0.075171
C29	C	0.990781	-0.467647	0.000026
C30	C	0.952799	-0.352068	-0.075232
C31	C	0.952783	-0.352043	0.075169
C32	C	0.911788	-0.402569	-0.000030
C33	C	0.995408	-0.207739	0.000002
C34	C	0.989082	-0.562644	0.000028
C35	C	1.145821	0.108649	0.000023
C36	C	1.239069	0.110292	0.000019
C37	C	0.986091	0.268379	0.000032
C38	C	0.987734	0.361627	0.000038
N39	N	0.992240	0.114802	0.217018
N40	N	0.992260	0.114801	-0.216972
C41	C	1.049373	0.057707	0.452021
C42	C	1.049375	0.057705	0.548003
C43	C	0.935121	0.171899	0.548017
C44	C	0.935116	0.171896	0.452038
C45	C	0.992246	0.114801	0.404042
C46	C	0.992254	0.114802	0.596003
C47	C	0.992257	0.114800	0.700070
C48	C	0.992243	0.114802	0.299969
H49	H	0.554209	0.042022	0.138889
C50	C	1.076778	-0.457415	0.161035
H51	H	1.133902	-0.445763	0.160936
H52	H	1.074948	-0.516756	0.160720
H53	H	1.049291	-0.433820	0.214423
C54	C	1.112218	-0.005096	0.600776
H55	H	1.146243	-0.039093	0.558442
H56	H	1.082015	-0.040077	0.638221
H57	H	1.147181	0.025143	0.638212
H58	H	1.095891	0.011216	0.412946
H59	H	0.459422	-0.033727	0.000103
H60	H	0.843715	-0.418021	-0.000072
H61	H	0.525258	0.263261	0.000097
C62	C	0.564531	0.030341	-0.161007
H63	H	0.541729	0.058492	-0.214374
H64	H	0.552025	-0.026503	-0.161552
H65	H	0.623992	0.031288	-0.160084
H66	H	0.888608	0.218385	0.587105
H67	H	0.888592	0.218389	0.412971
H68	H	0.430166	0.187646	-0.138681
C69	C	0.419981	0.199344	0.161071
H70	H	0.431615	0.256474	0.160984
H71	H	0.443555	0.171855	0.214456
H72	H	0.360636	0.197510	0.160733
H73	H	1.140702	-0.352179	-0.000057
H74	H	0.919473	-0.323241	-0.138860
C75	C	1.076798	-0.457472	-0.161022
H76	H	1.133928	-0.445839	-0.160932
H77	H	1.049313	-0.433903	-0.214411
H78	H	1.074964	-0.516817	-0.160677
H79	H	0.919460	-0.323076	0.138732
