data_functionalizedCrystal
_audit_creation_method	'MofGen! by Chris Wilmer'
_symmetry_space_group_name_H-M	'P1'
_symmetry_Int_Tables_number	1
_symmetry_cell_setting	triclinic
loop_
_symmetry_equiv_pos_as_xyz
  x,y,z
_cell_length_a	14.908571
_cell_length_b	16.959454
_cell_length_c	14.908404
_cell_angle_alpha	86.650199
_cell_angle_beta	89.784600
_cell_angle_gamma	86.716421
loop_
_atom_site_label
_atom_site_type_symbol
_atom_site_fract_x
_atom_site_fract_y
_atom_site_fract_z
Zn1	Zn	1.345416	-0.352857	-0.587646
Zn2	Zn	1.845416	0.147143	-0.087646
Zn3	Zn	1.353966	-0.493142	-0.437282
Zn4	Zn	1.853966	0.006858	0.062718
Zn5	Zn	1.203699	-0.353813	-0.428632
Zn6	Zn	1.703699	0.146187	0.071368
Zn7	Zn	1.195023	-0.477825	-0.578944
Zn8	Zn	1.695023	0.022175	-0.078944
O9	O	1.274526	-0.419409	-0.508126
O10	O	1.774526	0.080591	-0.008126
O11	O	1.472377	-0.377476	-0.574962
O12	O	1.972377	0.122524	-0.074962
O13	O	1.341242	-0.481469	-0.310300
O14	O	1.841242	0.018531	0.189700
O15	O	1.222550	-0.243077	-0.449747
O16	O	1.722550	0.256923	0.050253
O17	O	1.478659	-0.480542	-0.464490
O18	O	1.978659	0.019458	0.035510
O19	O	1.326669	-0.242374	-0.566575
O20	O	1.826669	0.257626	-0.066575
O21	O	1.230842	-0.379105	-0.303945
O22	O	1.730842	0.120895	0.196055
O23	O	1.076720	-0.364254	-0.441309
O24	O	1.576720	0.135746	0.058691
O25	O	1.207763	-0.454438	-0.705933
O26	O	1.707763	0.045562	-0.205933
O27	O	1.070346	-0.455365	-0.551743
O28	O	1.570346	0.044635	-0.051743
O29	O	1.318256	-0.362624	-0.712326
O30	O	1.818256	0.137376	-0.212326
O31	O	1.332829	-0.601719	-0.456052
O32	O	1.832829	-0.101719	0.043948
O33	O	1.216054	-0.590467	-0.560130
O34	O	1.716054	-0.090467	-0.060130
C35	C	1.040907	-0.408252	-0.494643
C36	C	1.540907	0.091748	0.005357
C37	C	0.940963	-0.403496	-0.488897
C38	C	1.440963	0.096504	0.011103
C39	C	1.274451	-0.624773	-0.508106
C40	C	1.774451	-0.124773	-0.008106
C41	C	1.274500	-0.712630	-0.508133
C42	C	1.774500	-0.212630	-0.008133
C43	C	0.746577	-0.489600	-0.592938
C44	C	1.246577	0.010400	-0.092938
C45	C	0.652671	-0.485134	-0.587542
C46	C	1.152671	0.014866	-0.087542
C47	C	0.659241	-0.390095	-0.472713
C48	C	1.159241	0.109905	0.027287
C49	C	0.753148	-0.394561	-0.478109
C50	C	1.253148	0.105439	0.021891
C51	C	0.796813	-0.444316	-0.538223
C52	C	1.296813	0.055684	-0.038223
C53	C	0.890721	-0.448786	-0.543614
C54	C	1.390721	0.051214	-0.043614
C55	C	0.897290	-0.353743	-0.428790
C56	C	1.397290	0.146257	0.071210
C57	C	0.803383	-0.349277	-0.423394
C58	C	1.303383	0.150723	0.076606
C59	C	1.213805	-1.078283	-0.562318
C60	C	1.713805	-0.578283	-0.062318
C61	C	1.335492	-1.089940	-0.454040
C62	C	1.835492	-0.589940	0.045960
C63	C	1.335461	-1.007393	-0.454029
C64	C	1.835461	-0.507393	0.045971
C65	C	1.274600	-0.960287	-0.508164
C66	C	1.774600	-0.460287	-0.008164
C67	C	1.213770	-0.995728	-0.562308
C68	C	1.713770	-0.495728	-0.062308
C69	C	1.396284	-0.971945	-0.399879
C70	C	1.896284	-0.471945	0.100121
C71	C	1.396255	-0.889394	-0.399866
C72	C	1.896255	-0.389394	0.100134
C73	C	1.335397	-0.842286	-0.454006
C74	C	1.835397	-0.342286	0.045994
C75	C	1.274566	-0.877732	-0.508153
C76	C	1.774566	-0.377732	-0.008153
C77	C	1.213705	-0.830626	-0.562287
C78	C	1.713705	-0.330626	-0.062287
C79	C	1.152876	-0.866070	-0.616440
C80	C	1.652876	-0.366070	-0.116440
C81	C	1.152913	-0.948620	-0.616447
C82	C	1.652913	-0.448620	-0.116447
C83	C	1.335361	-0.759736	-0.453999
C84	C	1.835361	-0.259736	0.046001
C85	C	1.213670	-0.748071	-0.562277
C86	C	1.713670	-0.248071	-0.062277
C87	C	1.509056	-0.430611	-0.521662
C88	C	2.009056	0.069389	-0.021662
C89	C	1.608999	-0.435384	-0.527430
C90	C	2.108999	0.064616	-0.027430
C91	C	1.261088	-0.406716	-0.742669
C92	C	1.761088	0.093284	-0.242669
C93	C	1.255362	-0.401307	-0.842618
C94	C	1.755362	0.098693	-0.342618
C95	C	1.274624	-0.213244	-0.508167
C96	C	1.774624	0.286756	-0.008167
C97	C	1.274666	-0.125389	-0.508184
C98	C	1.774666	0.374611	-0.008184
C99	C	1.287963	-0.431998	-0.274498
C100	C	1.787963	0.068002	0.225502
C101	C	1.293864	-0.437193	-0.174560
C102	C	1.793864	0.062807	0.325440
C103	C	1.189156	-0.341037	0.019813
C104	C	1.689156	0.158963	0.519813
C105	C	1.194697	-0.345915	0.113714
C106	C	1.694697	0.154085	0.613714
C107	C	1.310491	-0.451823	0.107143
C108	C	1.810491	0.048177	0.607143
C109	C	1.304950	-0.446945	0.013243
C110	C	1.804950	0.053055	0.513243
C111	C	1.244279	-0.391551	-0.030419
C112	C	1.744279	0.108449	0.469581
C113	C	1.238734	-0.386677	-0.124321
C114	C	1.738734	0.113323	0.375679
C115	C	1.354532	-0.492581	-0.130890
C116	C	1.854532	0.007419	0.369110
C117	C	1.360073	-0.497459	-0.036990
C118	C	1.860073	0.002541	0.463010
H119	H	0.926271	-0.489300	-0.592560
H120	H	1.426271	0.010700	-0.092560
H121	H	1.409472	-0.542557	-0.001428
H122	H	1.909472	-0.042557	0.498572
H123	H	1.399422	-0.533710	-0.171800
H124	H	1.899422	-0.033710	0.328200
C125	C	0.611204	-0.335364	-0.406601
C126	C	1.111204	0.164636	0.093399
H127	H	0.654570	-0.309026	-0.374789
H128	H	1.154570	0.190974	0.125211
H129	H	0.576795	-0.365924	-0.365260
H130	H	1.076795	0.134076	0.134740
H131	H	0.572619	-0.297360	-0.438974
H132	H	1.072619	0.202640	0.061026
H133	H	0.611772	-0.522008	-0.632098
H134	H	1.111772	-0.022008	-0.132098
H135	H	1.445827	-1.010305	-0.355799
H136	H	1.945827	-0.510305	0.144201
C137	C	0.794611	-0.544329	-0.659055
C138	C	1.294611	-0.044329	-0.159055
H139	H	0.751242	-0.570658	-0.690872
H140	H	1.251242	-0.070658	-0.190872
H141	H	0.833205	-0.582327	-0.626695
H142	H	1.333205	-0.082327	-0.126695
H143	H	0.829009	-0.513759	-0.700403
H144	H	1.329009	-0.013759	-0.200403
C145	C	1.085934	-0.814249	-0.675984
C146	C	1.585934	-0.314249	-0.175984
H147	H	1.094632	-0.760010	-0.668221
H148	H	1.594632	-0.260010	-0.168221
H149	H	1.026291	-0.825652	-0.659298
H150	H	1.526291	-0.325652	-0.159298
H151	H	1.095597	-0.825105	-0.737177
H152	H	1.595597	-0.325105	-0.237177
C153	C	1.086005	-0.987607	-0.676006
C154	C	1.586005	-0.487607	-0.176006
H155	H	1.049758	-0.947731	-0.708253
H156	H	1.549758	-0.447731	-0.208253
H157	H	1.048842	-1.019837	-0.639320
H158	H	1.548842	-0.519837	-0.139320
H159	H	1.118143	-1.019297	-0.717203
H160	H	1.618143	-0.519297	-0.217203
C161	C	0.755352	-0.294550	-0.357273
C162	C	1.255352	0.205450	0.142727
H163	H	0.798722	-0.268217	-0.325463
H164	H	1.298722	0.231783	0.174537
H165	H	0.720947	-0.325115	-0.315933
H166	H	1.220947	0.174885	0.184067
H167	H	0.716764	-0.256543	-0.389637
H168	H	1.216764	0.243457	0.110363
H169	H	0.938202	-0.316871	-0.384235
H170	H	1.438202	0.183129	0.115765
H171	H	1.164112	-0.709722	-0.606363
H172	H	1.664112	-0.209722	-0.106363
H173	H	1.164282	-1.107145	-0.606411
H174	H	1.664282	-0.607145	-0.106411
C175	C	1.402432	-1.141750	-0.394492
C176	C	1.902432	-0.641750	0.105508
H177	H	1.438650	-1.108818	-0.362240
H178	H	1.938650	-0.608818	0.137760
H179	H	1.439620	-1.173929	-0.431183
H180	H	1.939620	-0.673929	0.068817
H181	H	1.370319	-1.174460	-0.353300
H182	H	1.870319	-0.674460	0.146700
C183	C	1.463169	-0.850412	-0.340311
C184	C	1.963169	-0.350412	0.159689
H185	H	1.499424	-0.890290	-0.308078
H186	H	1.999424	-0.390290	0.191922
H187	H	1.431045	-0.818717	-0.299116
H188	H	1.931045	-0.318717	0.200884
H189	H	1.500337	-0.818186	-0.377008
H190	H	2.000337	-0.318186	0.122992
H191	H	1.384882	-0.730881	-0.409904
H192	H	1.884882	-0.230881	0.090096
C193	C	1.171998	-0.325752	-0.172352
C194	C	1.671998	0.174248	0.327648
H195	H	1.176584	-0.330085	-0.235470
H196	H	1.676584	0.169915	0.264530
H197	H	1.185641	-0.273958	-0.157887
H198	H	1.685641	0.226042	0.342113
H199	H	1.112589	-0.335636	-0.153337
H200	H	1.612589	0.164364	0.346663
H201	H	1.139752	-0.295936	-0.015736
H202	H	1.639752	0.204064	0.484264
C203	C	1.134053	-0.290357	0.168967
C204	C	1.634053	0.209643	0.668967
H205	H	1.097123	-0.256674	0.129513
H206	H	1.597123	0.243326	0.629513
H207	H	1.170329	-0.259223	0.203468
H208	H	1.670329	0.240777	0.703468
H209	H	1.097278	-0.320901	0.208001
H210	H	1.597278	0.179099	0.708001
H211	H	1.359892	-0.496917	0.142708
H212	H	1.859892	0.003083	0.642708
