data_functionalizedCrystal
_audit_creation_method	'MofGen! by Chris Wilmer'
_symmetry_space_group_name_H-M	'P1'
_symmetry_Int_Tables_number	1
_symmetry_cell_setting	triclinic
loop_
_symmetry_equiv_pos_as_xyz
  x,y,z
_cell_length_a	19.288867
_cell_length_b	14.044220
_cell_length_c	17.766277
_cell_angle_alpha	89.993125
_cell_angle_beta	89.992126
_cell_angle_gamma	88.162973
loop_
_atom_site_label
_atom_site_type_symbol
_atom_site_fract_x
_atom_site_fract_y
_atom_site_fract_z
O1	O	0.928948	0.118224	-0.062570
O2	O	1.428948	0.618224	0.437430
O3	O	0.727712	0.134169	-0.062577
O4	O	1.227712	0.634169	0.437423
O5	O	0.825310	-0.011776	-0.062566
O6	O	1.325310	0.488224	0.437434
O7	O	0.831351	0.264168	-0.062581
O8	O	1.331351	0.764168	0.437419
O9	O	0.825290	-0.011783	0.062622
O10	O	1.325290	0.488217	0.562622
O11	O	0.727693	0.134161	0.062611
O12	O	1.227693	0.634161	0.562611
O13	O	0.928929	0.118216	0.062619
O14	O	1.428929	0.618216	0.562619
Cu15	Cu	0.828309	0.126188	0.074046
Cu16	Cu	1.328309	0.626188	0.574046
Cu17	Cu	0.828332	0.126197	-0.074004
Cu18	Cu	1.328332	0.626197	0.425996
O19	O	0.831332	0.264161	0.062608
O20	O	1.331332	0.764161	0.562608
C21	C	0.701793	0.133652	0.000016
C22	C	1.201793	0.633652	0.500016
C23	C	0.624591	0.132110	0.000013
C24	C	1.124591	0.632110	0.500013
C25	C	0.068323	0.121014	-0.068218
C26	C	0.568323	0.621014	0.431782
C27	C	0.140863	0.122456	-0.068220
C28	C	0.640863	0.622456	0.431780
C29	C	0.177128	0.123178	0.000020
C30	C	0.677128	0.623178	0.500020
C31	C	0.140847	0.122433	0.068268
C32	C	0.640847	0.622433	0.568268
C33	C	0.068308	0.120981	0.068269
C34	C	0.568308	0.620981	0.568269
C35	C	0.290161	0.180977	0.052297
C36	C	0.790161	0.680977	0.552297
C37	C	0.362698	0.182435	0.052294
C38	C	0.862698	0.682435	0.552294
C39	C	0.400861	0.127652	0.000020
C40	C	0.900861	0.627652	0.500020
C41	C	0.366477	0.071423	-0.052263
C42	C	0.866477	0.571423	0.447737
C43	C	0.293939	0.069971	-0.052262
C44	C	0.793939	0.569971	0.447738
C45	C	0.255783	0.124752	0.000026
C46	C	0.755783	0.624752	0.500026
C47	C	0.515789	0.129954	-0.068227
C48	C	1.015789	0.629954	0.431773
C49	C	0.588331	0.131391	-0.068227
C50	C	1.088331	0.631391	0.431773
C51	C	0.588313	0.131376	0.068263
C52	C	1.088313	0.631376	0.568263
C53	C	0.515773	0.129930	0.068261
C54	C	1.015773	0.629930	0.568261
C55	C	0.479515	0.129224	0.000014
C56	C	0.979515	0.629224	0.500014
C57	C	0.822656	-0.047082	0.000028
C58	C	1.322656	0.452918	0.500028
C59	C	0.814768	-0.152275	0.000029
C60	C	1.314768	0.347725	0.500029
C61	C	0.800347	-0.344875	0.000018
C62	C	1.300347	0.155125	0.500018
C63	C	0.856291	-0.402746	0.000017
C64	C	1.356291	0.097254	0.500017
C65	C	0.848267	-0.509915	0.000011
C66	C	1.348267	-0.009915	0.500011
C67	C	0.808370	-0.237695	0.000024
C68	C	1.308370	0.262305	0.500024
C69	C	0.954848	0.118733	0.000024
C70	C	1.454848	0.618733	0.500024
C71	C	1.032050	0.120274	0.000021
C72	C	1.532050	0.620274	0.500021
C73	C	0.833986	0.299467	0.000012
C74	C	1.333986	0.799467	0.500012
C75	C	0.841873	0.404660	0.000006
C76	C	1.341873	0.904660	0.500006
N77	N	0.828298	0.126181	0.178176
N78	N	1.328298	0.626181	0.678176
N79	N	0.828348	0.126196	-0.178135
N80	N	1.328348	0.626196	0.321865
C81	C	0.871532	0.061589	0.217568
C82	C	1.371532	0.561589	0.717568
C83	C	0.871535	0.061584	0.296370
C84	C	1.371535	0.561584	0.796370
C85	C	0.828313	0.126189	0.335777
C86	C	1.328313	0.626189	0.835777
C87	C	0.785071	0.190786	0.296375
C88	C	1.285071	0.690786	0.796375
C89	C	0.785064	0.190783	0.217575
C90	C	1.285064	0.690783	0.717575
C91	C	0.824562	0.212532	0.460610
C92	C	1.324562	0.712532	0.960610
C93	C	0.824575	0.212537	0.539409
C94	C	1.324575	0.712537	1.039409
C95	C	0.828333	0.126200	0.578823
C96	C	1.328333	0.626200	1.078823
C97	C	0.832093	0.039855	0.539429
C98	C	1.332093	0.539855	1.039429
C99	C	0.832085	0.039851	0.460628
C100	C	1.332085	0.539851	0.960628
C101	C	0.828316	0.126200	0.421222
C102	C	1.328316	0.626200	0.921222
C103	C	0.871572	0.061598	0.703661
C104	C	1.371572	0.561598	1.203661
C105	C	0.871571	0.061592	0.782464
C106	C	1.371571	0.561592	1.282464
C107	C	0.785111	0.190802	0.782468
C108	C	1.285111	0.690802	1.282468
C109	C	0.785108	0.190800	0.703666
C110	C	1.285108	0.690800	1.203666
C111	C	0.828343	0.126198	0.664267
C112	C	1.328343	0.626198	1.164267
H113	H	0.038806	0.120435	-0.123790
H114	H	0.538806	0.620435	0.376210
H115	H	0.821518	0.282844	0.571477
H116	H	1.321518	0.782844	1.071477
H117	H	0.821490	0.282842	0.428525
H118	H	1.321490	0.782842	0.928525
Br119	Br	0.726434	0.278468	0.650200
Br120	Br	1.226434	0.778468	1.150200
H121	H	0.910211	-0.371805	-0.000031
H122	H	1.410211	0.128195	0.499969
H123	H	0.617863	0.131986	-0.123798
H124	H	1.117863	0.631986	0.376202
Br125	Br	0.710481	-0.396443	0.000008
Br126	Br	1.210481	0.103557	0.500008
H127	H	0.486240	0.129331	0.123828
H128	H	0.986240	0.629331	0.623828
H129	H	0.906734	0.008985	0.185492
H130	H	1.406734	0.508985	0.685492
Br131	Br	0.837181	-0.077325	0.407167
Br132	Br	1.337181	0.422675	0.907167
H133	H	0.170401	0.123064	-0.123791
H134	H	0.670401	0.623064	0.376209
Br135	Br	0.930213	-0.026086	0.349840
Br136	Br	1.430213	0.473914	0.849840
H137	H	0.835152	-0.030449	0.571518
H138	H	1.335152	0.469551	1.071518
H139	H	0.906774	0.008992	0.671581
H140	H	1.406774	0.508992	1.171581
H141	H	0.906775	0.008988	0.814537
H142	H	1.406775	0.508988	1.314537
H143	H	0.390686	0.228242	0.094850
H144	H	0.890686	0.728242	0.594850
Br145	Br	0.726444	0.278470	0.835942
Br146	Br	1.226444	0.778470	1.335942
H147	H	0.259094	0.225583	0.094873
H148	H	0.759094	0.725583	0.594873
Br149	Br	0.726385	0.278449	0.164110
Br150	Br	1.226385	0.778449	0.664110
H151	H	0.749878	0.243387	0.328464
H152	H	1.249878	0.743387	0.828464
H153	H	0.397548	0.026817	-0.094832
H154	H	0.897548	0.526817	0.405168
Br155	Br	0.466578	0.128991	-0.160845
Br156	Br	0.966578	0.628991	0.339155
Br157	Br	0.637522	0.132335	0.160876
Br158	Br	1.137522	0.632335	0.660876
Br159	Br	0.190061	0.123404	0.160880
Br160	Br	0.690061	0.623404	0.660880
Br161	Br	0.247277	-0.006337	-0.123212
Br162	Br	0.747277	0.493663	0.376788
H163	H	0.038776	0.120382	0.123839
H164	H	0.538776	0.620382	0.623839
