data_functionalizedCrystal
_audit_creation_method	'MofGen! by Chris Wilmer'
_symmetry_space_group_name_H-M	'P1'
_symmetry_Int_Tables_number	1
_symmetry_cell_setting	triclinic
loop_
_symmetry_equiv_pos_as_xyz
  x,y,z
_cell_length_a	8.597304
_cell_length_b	9.065218
_cell_length_c	8.140239
_cell_angle_alpha	89.997198
_cell_angle_beta	82.296592
_cell_angle_gamma	85.172810
loop_
_atom_site_label
_atom_site_type_symbol
_atom_site_fract_x
_atom_site_fract_y
_atom_site_fract_z
O1	O	0.230168	1.960827	-0.169189
O2	O	0.249048	1.531577	-0.171862
O3	O	0.011261	1.754650	-0.138202
O4	O	0.467955	1.737755	-0.202849
O5	O	0.011258	1.754637	0.135026
O6	O	0.249045	1.531565	0.101365
O7	O	0.230165	1.960815	0.104039
Zn8	Zn	0.239605	1.746188	0.146083
Zn9	Zn	0.239608	1.746204	-0.213906
O10	O	0.467952	1.737742	0.070378
C11	C	0.247232	1.476581	-0.034992
C12	C	0.241807	1.312728	-0.034225
C13	C	-0.047238	1.752829	0.006689
C14	C	-0.221541	1.747404	0.031352
C15	C	0.526450	1.739563	-0.074516
C16	C	0.700754	1.744988	-0.099190
C17	C	0.231981	2.015811	-0.032835
C18	C	0.237406	2.179664	-0.033613
N19	N	0.239601	1.746187	0.391766
N20	N	0.239600	1.746216	-0.459588
H21	H	-0.232424	1.747065	-0.229832
H22	H	-0.288369	1.745306	0.162002
