data_functionalizedCrystal
_audit_creation_method	'MofGen! by Chris Wilmer'
_symmetry_space_group_name_H-M	'P1'
_symmetry_Int_Tables_number	1
_symmetry_cell_setting	triclinic
loop_
_symmetry_equiv_pos_as_xyz
  x,y,z
_cell_length_a	19.077236
_cell_length_b	13.897448
_cell_length_c	19.076919
_cell_angle_alpha	87.724536
_cell_angle_beta	89.887323
_cell_angle_gamma	87.687493
loop_
_atom_site_label
_atom_site_type_symbol
_atom_site_fract_x
_atom_site_fract_y
_atom_site_fract_z
Zn1	Zn	1.058312	0.350147	-0.440559
Zn2	Zn	1.558312	0.850147	0.059441
Zn3	Zn	1.062962	0.504728	-0.323060
Zn4	Zn	1.562962	1.004728	0.176940
Zn5	Zn	0.945528	0.349641	-0.318339
Zn6	Zn	1.445528	0.849641	0.181661
Zn7	Zn	0.940782	0.517597	-0.435799
Zn8	Zn	1.440782	1.017597	0.064201
O9	O	1.001896	0.430528	-0.379439
O10	O	1.501896	0.930528	0.120561
O11	O	1.157263	0.365478	-0.428941
O12	O	1.657263	0.865478	0.071059
O13	O	1.051316	0.478558	-0.224103
O14	O	1.551316	0.978558	0.275897
O15	O	0.960530	0.214725	-0.334568
O16	O	1.460530	0.714725	0.165432
O17	O	1.160678	0.479049	-0.342614
O18	O	1.660678	0.979049	0.157386
O19	O	1.043392	0.215097	-0.424363
O20	O	1.543392	0.715097	0.075637
O21	O	0.965038	0.364616	-0.220634
O22	O	1.465038	0.864616	0.279366
O23	O	0.846565	0.377095	-0.329953
O24	O	1.346565	0.877095	0.170047
O25	O	0.952441	0.500981	-0.534761
O26	O	1.452441	1.000981	-0.034761
O27	O	0.843078	0.500491	-0.416250
O28	O	1.343078	1.000491	0.083750
O29	O	1.038790	0.377957	-0.538259
O30	O	1.538790	0.877957	-0.038259
O31	O	1.046714	0.641418	-0.337999
O32	O	1.546714	1.141418	0.162001
O33	O	0.956949	0.650873	-0.420827
O34	O	1.456949	1.150873	0.079173
C35	C	0.819325	0.440135	-0.372073
C36	C	1.319325	0.940135	0.127927
C37	C	0.741219	0.444269	-0.368938
C38	C	1.241219	0.944269	0.131062
C39	C	0.702745	0.387183	-0.412479
C40	C	1.202745	0.887183	0.087521
C41	C	0.629356	0.391062	-0.409528
C42	C	1.129356	0.891062	0.090472
C43	C	0.594444	0.452034	-0.363038
C44	C	1.094444	0.952034	0.136962
C45	C	0.632924	0.509122	-0.319492
C46	C	1.132924	1.009122	0.180508
C47	C	0.706311	0.505237	-0.322440
C48	C	1.206311	1.005237	0.177560
C49	C	0.375152	0.469978	-0.349389
C50	C	0.875152	0.969978	0.150611
C51	C	0.301760	0.473861	-0.346446
C52	C	0.801760	0.973861	0.153554
C53	C	0.298197	0.355800	-0.436481
C54	C	0.798197	0.855800	0.063519
C55	C	0.371585	0.351924	-0.439428
C56	C	0.871585	0.851924	0.060572
C57	C	0.410059	0.409009	-0.395880
C58	C	0.910059	0.909009	0.104120
N59	N	0.519430	0.456003	-0.360021
N60	N	1.019430	0.956003	0.139979
N61	N	0.485072	0.405034	-0.398893
N62	N	0.985072	0.905034	0.101107
C63	C	1.001839	0.681145	-0.379425
C64	C	1.501839	1.181145	0.120575
C65	C	1.001878	0.788358	-0.379445
C66	C	1.501878	1.288358	0.120555
C67	C	1.001945	0.984652	-0.379498
C68	C	1.501945	1.484652	0.120502
C69	C	1.001906	0.875420	-0.379471
C70	C	1.501906	1.375420	0.120529
C71	C	1.185180	0.420884	-0.386835
C72	C	1.685180	0.920884	0.113165
C73	C	1.263285	0.416775	-0.389987
C74	C	1.763285	0.916775	0.110013
C75	C	0.994567	0.440961	-0.562719
C76	C	1.494567	0.940961	-0.062719
C77	C	0.991444	0.445407	-0.640822
C78	C	1.491444	0.945407	-0.140822
C79	C	1.001965	1.178933	-0.379478
C80	C	1.501965	1.678933	0.120522
C81	C	1.001979	1.071721	-0.379515
C82	C	1.501979	1.571721	0.120485
C83	C	1.034932	0.383446	-0.679337
C84	C	1.534932	0.883446	-0.179337
C85	C	1.031989	0.387620	-0.752723
C86	C	1.531989	0.887620	-0.252723
C87	C	0.985561	0.453760	-0.787592
C88	C	1.485561	0.953760	-0.287592
C89	C	0.942068	0.515724	-0.749072
C90	C	1.442068	1.015724	-0.249072
C91	C	0.945008	0.511544	-0.675688
C92	C	1.445008	1.011544	-0.175688
C93	C	0.971944	0.473124	-1.006873
C94	C	1.471944	0.973124	-0.506873
C95	C	0.969008	0.477300	-1.080262
C96	C	1.469008	0.977300	-0.580262
C97	C	1.058928	0.349195	-1.083908
C98	C	1.558928	0.849195	-0.583908
C99	C	1.061867	0.345025	-1.010522
C100	C	1.561867	0.845025	-0.510522
C101	C	1.018372	0.406985	-0.972008
C102	C	1.518372	0.906985	-0.472008
N103	N	0.982553	0.458030	-0.862604
N104	N	1.482553	0.958030	-0.362604
N105	N	1.021377	0.402710	-0.896997
N106	N	1.521377	0.902710	-0.396997
C107	C	1.009237	0.420064	-0.196874
C108	C	1.509237	0.920064	0.303126
C109	C	1.012496	0.415340	-0.118777
C110	C	1.512496	0.915340	0.381223
H111	H	1.072741	0.329590	-0.650952
H112	H	1.572741	0.829590	-0.150952
H113	H	0.406468	0.516461	-0.313930
H114	H	0.906468	1.016461	0.186070
H115	H	0.909589	0.561990	-0.644329
H116	H	1.409589	1.061990	-0.144329
N117	N	0.597265	0.571387	-0.271993
N118	N	1.097265	1.071387	0.228007
N119	N	0.558100	0.536974	-0.225613
N120	N	1.058100	1.036974	0.274387
H121	H	0.532916	0.580951	-0.192066
H122	H	1.032916	1.080951	0.307934
N123	N	0.738392	0.324902	-0.459976
N124	N	1.238392	0.824902	0.040024
N125	N	0.704027	0.273936	-0.498846
N126	N	1.204027	0.773936	0.001154
H127	H	0.729201	0.229945	-0.532391
H128	H	1.229201	0.729945	-0.032391
H129	H	0.273336	0.523516	-0.308588
H130	H	0.773336	1.023516	0.191412
H131	H	0.266864	0.309324	-0.471934
H132	H	0.766864	0.809324	0.028066
N133	N	0.745604	0.563547	-0.277954
N134	N	1.245604	1.063547	0.222046
N135	N	0.714426	0.617979	-0.236446
N136	N	1.214426	1.117979	0.263554
H137	H	0.742176	0.659159	-0.205022
H138	H	1.242176	1.159159	0.294978
H139	H	1.067403	0.337167	-0.784078
H140	H	1.567403	0.837167	-0.284078
N141	N	0.590067	0.332716	-0.453990
N142	N	1.090067	0.832716	0.046010
N143	N	0.621247	0.278269	-0.495486
N144	N	1.121247	0.778269	0.004514
H145	H	0.593501	0.237048	-0.526883
H146	H	1.093501	0.737048	-0.026883
H147	H	1.099676	0.291169	-0.982136
H148	H	1.599676	0.791169	-0.482136
H149	H	0.904263	0.569573	-0.777469
H150	H	1.404263	1.069573	-0.277469
H151	H	0.400006	0.302279	-0.477287
H152	H	0.900006	0.802279	0.022713
H153	H	1.094339	0.298749	-1.115273
H154	H	1.594339	0.798749	-0.615273
H155	H	0.931199	0.531162	-1.108651
H156	H	1.431199	1.031162	-0.608651
H157	H	0.936537	0.523590	-0.975524
H158	H	1.436537	1.023590	-0.475524
