data_functionalizedCrystal
_audit_creation_method	'MofGen! by Chris Wilmer'
_symmetry_space_group_name_H-M	'P1'
_symmetry_Int_Tables_number	1
_symmetry_cell_setting	triclinic
loop_
_symmetry_equiv_pos_as_xyz
  x,y,z
_cell_length_a	19.377372
_cell_length_b	20.875641
_cell_length_c	20.875641
_cell_angle_alpha	60.089808
_cell_angle_beta	89.257912
_cell_angle_gamma	74.261708
loop_
_atom_site_label
_atom_site_type_symbol
_atom_site_fract_x
_atom_site_fract_y
_atom_site_fract_z
Zr1	Zr	0.618518	0.890095	-0.210831
O2	O	0.528696	0.987909	-0.298838
O3	O	0.642693	0.766491	-0.180005
O4	O	0.651719	0.893371	-0.315011
O5	O	0.516373	0.867439	-0.061713
O6	O	0.752585	0.925293	-0.332143
O7	O	0.519670	0.861029	-0.163832
O8	O	0.736439	0.698328	-0.090644
O9	O	0.532519	1.094404	-0.303213
O10	O	0.732339	0.850706	-0.184292
O11	O	0.654603	0.831667	-0.095295
O12	O	0.665230	0.981052	-0.254247
O13	O	0.587495	0.962013	-0.165250
Zr14	Zr	0.774129	0.951230	-0.075287
Zr15	Zr	0.779388	0.941007	-0.238155
Zr16	Zr	0.613260	0.900318	-0.047962
Zr17	Zr	0.624616	1.059943	-0.217809
Zr18	Zr	0.768032	0.781383	-0.068309
O19	O	0.749954	1.074835	-0.106112
O20	O	0.757432	1.060299	-0.337690
O21	O	0.521219	1.002445	-0.067260
O22	O	0.863951	0.853417	0.012720
O23	O	0.871428	0.838881	-0.218858
O24	O	0.635216	0.781027	0.051573
O25	O	0.876275	0.973887	-0.224404
O26	O	0.740928	0.947955	0.028893
O27	O	0.640062	0.916033	0.046026
O28	O	0.872978	0.980297	-0.122285
O29	O	0.660389	1.134872	-0.324933
O30	O	0.732259	0.706454	0.038815
O31	O	0.860128	0.746922	0.017095
O32	O	0.864308	0.738796	-0.112363
O33	O	0.528339	1.102530	-0.173754
O34	O	0.656209	1.142998	-0.195474
O35	O	0.727417	0.860274	-0.031871
O36	O	0.805153	0.879313	-0.120867
O37	O	0.738045	1.009659	-0.190822
O38	O	0.660309	0.990619	-0.101826
C39	C	0.688697	0.708210	-0.134330
C40	C	0.686109	0.636105	-0.131368
C41	C	0.725468	0.612168	-0.176431
C42	C	0.723037	0.544414	-0.173640
C43	C	0.681243	0.500602	-0.125790
C44	C	0.641883	0.524542	-0.080722
C45	C	0.644318	0.592291	-0.083509
C46	C	0.669613	0.296910	-0.112469
C47	C	0.667180	0.229158	-0.109687
C48	C	0.748336	0.249034	-0.202605
C49	C	0.750763	0.316787	-0.205391
C50	C	0.711406	0.340719	-0.160320
N51	N	0.678756	0.431348	-0.122938
N52	N	0.713898	0.409969	-0.163168
C53	C	0.495101	0.856980	-0.108880
C54	C	0.426808	0.835367	-0.097279
C55	C	0.027055	1.104469	-0.241708
C56	C	-0.037108	1.084142	-0.230797
C57	C	0.032958	0.948072	-0.157770
C58	C	0.097128	0.968387	-0.168671
C59	C	0.094170	1.046588	-0.210641
C60	C	0.164242	0.910506	-0.137605
C61	C	0.228407	0.930820	-0.148508
C62	C	0.225456	1.009016	-0.190479
C63	C	0.158334	1.066902	-0.221545
C64	C	0.167199	0.832306	-0.095639
C65	C	0.234313	0.774424	-0.064572
C66	C	0.298479	0.794738	-0.075472
C67	C	0.295529	0.872934	-0.117442
C68	C	0.365601	0.736852	-0.044405
C69	C	0.429765	0.757166	-0.055309
C70	C	0.359693	0.893248	-0.128346
C71	C	0.897547	0.984346	-0.177238
C72	C	0.965840	1.005959	-0.188838
C73	C	0.702902	0.907875	-0.346782
C74	C	0.705134	0.903535	-0.415924
C75	C	0.703950	1.133116	-0.151787
C76	C	0.706539	1.205221	-0.154750
C77	C	0.671154	0.969534	-0.484923
C78	C	0.673261	0.965454	-0.549888
C79	C	0.709344	0.895373	-0.545852
C80	C	0.743328	0.829370	-0.476846
C81	C	0.741225	0.833453	-0.411883
C82	C	0.719395	0.875870	-0.736225
C83	C	0.721493	0.871792	-0.801195
C84	C	0.651427	1.007876	-0.874233
C85	C	0.649323	1.011951	-0.809265
C86	C	0.683311	0.945949	-0.740265
N87	N	0.711497	0.891200	-0.612255
N88	N	0.681162	0.950124	-0.673864
C89	C	0.689746	0.933450	0.060665
C90	C	0.687513	0.937790	0.129807
C91	C	0.889920	0.771893	-0.168509
C92	C	0.955625	0.721401	-0.177147
C93	C	0.682119	0.720997	0.069393
C94	C	0.677298	0.653233	0.141498
C95	C	0.883342	0.784680	0.035214
C96	C	0.946815	0.738529	0.095718
C97	C	0.509305	1.056645	-0.321332
C98	C	0.445833	1.102797	-0.381836
C99	C	0.502727	1.069433	-0.117608
C100	C	0.437023	1.119924	-0.108971
C101	C	0.710528	1.120328	-0.355511
C102	C	0.715349	1.188093	-0.427615
C103	C	0.948472	0.682757	-0.214317
C104	C	1.010204	0.635322	-0.222448
C105	C	1.079087	0.626527	-0.193403
C106	C	1.086238	0.665178	-0.156232
C107	C	1.024507	0.712616	-0.148106
C108	C	0.713042	0.636342	0.208472
C109	C	0.708510	0.572679	0.276228
C110	C	0.668237	0.525904	0.277007
C111	C	0.632489	0.542799	0.210026
C112	C	0.637017	0.606464	0.142272
C113	C	1.017206	0.726796	0.077675
C114	C	1.076852	0.683443	0.134518
C115	C	1.066104	0.651819	0.209403
C116	C	0.995706	0.663556	0.227445
C117	C	0.936062	0.706913	0.170603
C118	C	0.375442	1.114538	-0.363793
C119	C	0.315797	1.157912	-0.420637
C120	C	0.326544	1.189540	-0.495522
C121	C	0.396943	1.177798	-0.513564
C122	C	0.456586	1.134430	-0.456722
C123	C	0.444175	1.158575	-0.071808
C124	C	0.382445	1.206028	-0.063696
C125	C	0.313563	1.214825	-0.092743
C126	C	0.306411	1.176171	-0.129911
C127	C	0.368141	1.128724	-0.138027
C128	C	0.755628	1.234851	-0.428370
C129	C	0.760172	1.298519	-0.496116
C130	C	0.724432	1.315431	-0.563105
C131	C	0.684152	1.268667	-0.562348
C132	C	0.679613	1.204997	-0.494604
H133	H	0.357282	0.956928	-0.162500
H134	H	1.142330	0.658010	-0.132586
Br135	Br	0.765487	0.786285	-0.642585
Br136	Br	0.854997	0.694682	-0.253745
H137	H	1.030341	0.744076	-0.117835
H138	H	0.755087	0.524925	-0.210334
Br139	Br	0.585175	0.465072	-0.015768
H140	H	0.784732	1.221092	-0.373831
Br141	Br	0.792302	0.734261	-0.471367
Br142	Br	0.757032	0.549765	0.367121
H143	H	0.655054	1.282447	-0.616899
Br144	Br	0.730599	1.401846	-0.655038
Br145	Br	0.981132	0.620632	0.329080
H146	H	0.646810	1.166931	-0.493999
Br147	Br	0.807479	0.376248	-0.270340
Br148	Br	0.662098	0.439503	0.368967
Br149	Br	1.172383	0.667523	0.110015
Br150	Br	0.622179	1.064647	-0.490410
Br151	Br	1.031812	0.769712	-0.023950
H152	H	0.362307	1.097253	-0.168286
Br153	Br	0.801748	0.216550	-0.263768
H154	H	0.500257	1.151417	-0.048147
H155	H	0.599699	0.504706	0.210671
H156	H	0.792971	1.336590	-0.496718
H157	H	0.759498	0.647839	-0.215399
Br158	Br	0.610450	0.169700	-0.044747
Br159	Br	0.588504	0.629374	0.051381
Br160	Br	0.616205	0.329377	-0.051296
Br161	Br	0.036964	0.841947	-0.100815
Br162	Br	1.147058	0.592979	0.286538
H163	H	0.277704	1.025554	-0.199357
Br164	Br	0.590904	0.624775	-0.022345
Br165	Br	1.000481	0.582875	-0.272894
Br166	Br	0.605304	1.097445	-0.967875
H167	H	0.768895	0.779710	-0.355701
H168	H	0.155923	1.130582	-0.255700
Br169	Br	0.238320	0.668299	-0.007618
H170	H	0.405685	1.203555	-0.574542
H171	H	0.878748	0.716457	0.185305
Br172	Br	0.520855	0.678612	-0.013153
Br173	Br	0.360836	1.071619	-0.262168
Br174	Br	-0.128195	1.162705	-0.272974
Br175	Br	0.552115	1.118498	-0.481222
Br176	Br	0.392168	1.258475	-0.013250
Br177	Br	0.767707	0.699808	0.207435
Br178	Br	0.245591	1.248396	-0.572658
Br179	Br	0.023047	1.210600	-0.298656
Br180	Br	0.627144	1.055027	-0.643530
H181	H	0.114950	0.815768	-0.086768
H182	H	0.258481	1.167462	-0.405932
H183	H	0.367998	0.673182	-0.010239
Br184	Br	0.229793	1.279222	-0.081721
H185	H	0.250319	1.183342	-0.153559
Br186	Br	0.600311	1.107051	-0.814742
H187	H	1.129345	0.587897	-0.200024
Br188	Br	0.770465	0.776676	-0.795713
