data_functionalizedCrystal
_audit_creation_method	'MofGen! by Chris Wilmer'
_symmetry_space_group_name_H-M	'P1'
_symmetry_Int_Tables_number	1
_symmetry_cell_setting	triclinic
loop_
_symmetry_equiv_pos_as_xyz
  x,y,z
_cell_length_a	18.215407
_cell_length_b	13.897447
_cell_length_c	18.215399
_cell_angle_alpha	89.972535
_cell_angle_beta	89.983176
_cell_angle_gamma	90.019978
loop_
_atom_site_label
_atom_site_type_symbol
_atom_site_fract_x
_atom_site_fract_y
_atom_site_fract_z
Zn1	Zn	1.125077	-0.383990	-0.416131
Zn2	Zn	1.458411	-0.050657	-0.082797
Zn3	Zn	1.791744	0.282676	0.250536
Zn4	Zn	1.125004	-0.545307	-0.293071
Zn5	Zn	1.458337	-0.211973	0.040263
Zn6	Zn	1.791671	0.121360	0.373596
Zn7	Zn	1.002017	-0.384029	-0.293078
Zn8	Zn	1.335350	-0.050695	0.040255
Zn9	Zn	1.668683	0.282638	0.373589
Zn10	Zn	1.001987	-0.545246	-0.416096
Zn11	Zn	1.335321	-0.211913	-0.082762
Zn12	Zn	1.668654	0.121420	0.250571
O13	O	1.063521	-0.464643	-0.354594
O14	O	1.396855	-0.131310	-0.021260
O15	O	1.730188	0.202024	0.312073
O16	O	1.228052	-0.405399	-0.399818
O17	O	1.561385	-0.072065	-0.066485
O18	O	1.894719	0.261268	0.266849
O19	O	1.108671	-0.523954	-0.190087
O20	O	1.442004	-0.190621	0.143246
O21	O	1.775337	0.142712	0.476579
O22	O	1.018384	-0.249042	-0.309419
O23	O	1.351717	0.084291	0.023914
O24	O	1.685050	0.417625	0.357248
O25	O	1.227998	-0.523917	-0.309406
O26	O	1.561331	-0.190584	0.023927
O27	O	1.894665	0.142750	0.357260
O28	O	1.108796	-0.249014	-0.399825
O29	O	1.442130	0.084320	-0.066492
O30	O	1.775463	0.417653	0.266841
O31	O	1.018312	-0.405464	-0.190093
O32	O	1.351646	-0.072131	0.143241
O33	O	1.684979	0.261203	0.476574
O34	O	0.899028	-0.405405	-0.309385
O35	O	1.232362	-0.072072	0.023948
O36	O	1.565695	0.261261	0.357282
O37	O	1.018334	-0.523814	-0.519084
O38	O	1.351668	-0.190481	-0.185751
O39	O	1.685001	0.142853	0.147582
O40	O	0.899007	-0.523851	-0.399765
O41	O	1.232340	-0.190518	-0.066432
O42	O	1.565674	0.142815	0.266901
O43	O	1.108768	-0.405340	-0.519110
O44	O	1.442101	-0.072007	-0.185777
O45	O	1.775435	0.261327	0.147556
O46	O	1.108642	-0.680280	-0.309372
O47	O	1.441976	-0.346947	0.023961
O48	O	1.775309	-0.013614	0.357294
O49	O	1.018263	-0.680236	-0.399758
O50	O	1.351596	-0.346903	-0.066425
O51	O	1.684930	-0.013569	0.266909
C52	C	0.872315	-0.464627	-0.354573
C53	C	1.205648	-0.131293	-0.021239
C54	C	1.538982	0.202040	0.312094
C55	C	0.790516	-0.464643	-0.354581
C56	C	1.123850	-0.131309	-0.021248
C57	C	1.457183	0.202024	0.312086
C58	C	1.063461	-0.715257	-0.354577
C59	C	1.396795	-0.381924	-0.021243
C60	C	1.730128	-0.048591	0.312090
C61	C	1.063503	-0.822471	-0.354594
C62	C	1.396837	-0.489138	-0.021261
C63	C	1.730170	-0.155805	0.312073
C64	C	0.602330	-0.526414	-0.401583
C65	C	0.935664	-0.193081	-0.068250
C66	C	1.268997	0.140252	0.265084
C67	C	0.525472	-0.526417	-0.401592
C68	C	0.858805	-0.193084	-0.068259
C69	C	1.192138	0.140249	0.265074
C70	C	0.525464	-0.402889	-0.307620
C71	C	0.858798	-0.069556	0.025713
C72	C	1.192131	0.263778	0.359046
C73	C	0.602322	-0.402882	-0.307616
C74	C	0.935655	-0.069549	0.025718
C75	C	1.268988	0.263785	0.359051
C76	C	0.640753	-0.464650	-0.354596
C77	C	0.974086	-0.131317	-0.021262
C78	C	1.307419	0.202017	0.312071
C79	C	0.487037	-0.464660	-0.354610
C80	C	0.820370	-0.131327	-0.021276
C81	C	1.153703	0.202006	0.312057
C82	C	0.403703	-0.464663	-0.354619
C83	C	0.737036	-0.131330	-0.021286
C84	C	1.070370	0.202004	0.312047
C85	C	0.724092	-0.464646	-0.354587
C86	C	1.057425	-0.131313	-0.021254
C87	C	1.390758	0.202020	0.312079
C88	C	1.063539	-0.909541	-0.354611
C89	C	1.396872	-0.576208	-0.021277
C90	C	1.730205	-0.242874	0.312056
C91	C	1.063590	-1.018773	-0.354630
C92	C	1.396924	-0.685440	-0.021296
C93	C	1.730257	-0.352107	0.312037
C94	C	1.255474	-0.464660	-0.354615
C95	C	1.588808	-0.131327	-0.021282
C96	C	1.922141	0.202006	0.312051
C97	C	1.337273	-0.464668	-0.354625
C98	C	1.670606	-0.131334	-0.021291
C99	C	2.003940	0.201999	0.312042
C100	C	1.063556	-0.464566	-0.546547
C101	C	1.396889	-0.131233	-0.213213
C102	C	1.730223	0.202101	0.120120
C103	C	1.063571	-0.464533	-0.628346
C104	C	1.396904	-0.131200	-0.295012
C105	C	1.730238	0.202134	0.038321
C106	C	1.063601	-0.213050	-0.354627
C107	C	1.396935	0.120283	-0.021294
C108	C	1.730268	0.453617	0.312040
C109	C	1.063636	-0.105836	-0.354641
C110	C	1.396969	0.227497	-0.021308
C111	C	1.730302	0.560831	0.312026
C112	C	1.016561	-0.402794	-0.816543
C113	C	1.349894	-0.069460	-0.483210
C114	C	1.683228	0.263873	-0.149877
C115	C	1.016574	-0.402774	-0.893402
C116	C	1.349907	-0.069441	-0.560069
C117	C	1.683241	0.263893	-0.226736
C118	C	1.110669	-0.526158	-0.893386
C119	C	1.444002	-0.192824	-0.560052
C120	C	1.777335	0.140509	-0.226719
C121	C	1.110652	-0.526181	-0.816528
C122	C	1.443985	-0.192848	-0.483195
C123	C	1.777318	0.140485	-0.149862
C124	C	1.063599	-0.464494	-0.778109
C125	C	1.396932	-0.131160	-0.444776
C126	C	1.730266	0.202173	-0.111443
C127	C	1.063629	-0.464451	-0.931825
C128	C	1.396962	-0.131117	-0.598492
C129	C	1.730295	0.202216	-0.265159
C130	C	1.063643	-0.464430	-1.015159
C131	C	1.396976	-0.131097	-0.681826
C132	C	1.730310	0.202237	-0.348492
C133	C	1.063584	-0.464515	-0.694770
C134	C	1.396917	-0.131182	-0.361437
C135	C	1.730250	0.202151	-0.028104
C136	C	1.063529	-0.464650	-0.163387
C137	C	1.396862	-0.131317	0.169946
C138	C	1.730196	0.202016	0.503279
C139	C	1.063657	-0.464411	-0.081589
C140	C	1.396990	-0.131078	0.251744
C141	C	1.730324	0.202255	0.585078
H142	H	0.633619	-0.576708	-0.439839
H143	H	0.966952	-0.243374	-0.106506
H144	H	1.300285	0.089959	0.226827
H145	H	1.148957	-0.576429	-0.785234
H146	H	1.482291	-0.243095	-0.451901
H147	H	1.815624	0.090238	-0.118568
O148	O	1.161417	-0.592690	-0.934824
O149	O	1.494750	-0.259357	-0.601490
O150	O	1.828084	0.073977	-0.268157
H151	H	1.219177	-0.576162	-0.920073
H152	H	1.552511	-0.242829	-0.586740
H153	H	1.885844	0.090505	-0.253407
O154	O	0.484009	-0.336277	-0.256949
O155	O	0.817342	-0.002943	0.076384
O156	O	1.150675	0.330390	0.409718
H157	H	0.523641	-0.293319	-0.224280
H158	H	0.856974	0.040014	0.109053
H159	H	1.190308	0.373347	0.442386
O160	O	0.965808	-0.336267	-0.775106
O161	O	1.299141	-0.002933	-0.441773
O162	O	1.632475	0.330400	-0.108440
H163	H	0.998754	-0.287196	-0.740109
H164	H	1.332088	0.046137	-0.406775
H165	H	1.665421	0.379470	-0.073442
H166	H	0.494192	-0.576711	-0.439855
H167	H	0.827525	-0.243378	-0.106522
H168	H	1.160858	0.089956	0.226812
H169	H	0.633606	-0.352580	-0.269353
H170	H	0.966939	-0.019247	0.063981
H171	H	1.300273	0.314087	0.397314
O172	O	0.965846	-0.336220	-0.934859
O173	O	1.299179	-0.002886	-0.601526
O174	O	1.632513	0.330447	-0.268193
H175	H	0.933132	-0.293326	-0.895229
H176	H	1.266465	0.040008	-0.561896
H177	H	1.599798	0.373341	-0.228562
