data_functionalizedCrystal
_audit_creation_method	'MofGen! by Chris Wilmer'
_symmetry_space_group_name_H-M	'P1'
_symmetry_Int_Tables_number	1
_symmetry_cell_setting	triclinic
loop_
_symmetry_equiv_pos_as_xyz
  x,y,z
_cell_length_a	19.188905
_cell_length_b	19.188930
_cell_length_c	13.596369
_cell_angle_alpha	89.988893
_cell_angle_beta	89.987547
_cell_angle_gamma	83.139668
loop_
_atom_site_label
_atom_site_type_symbol
_atom_site_fract_x
_atom_site_fract_y
_atom_site_fract_z
O1	O	0.926157	0.087086	-0.081964
O2	O	1.426157	0.587086	0.418036
O3	O	0.722843	0.098838	-0.081932
O4	O	1.222843	0.598838	0.418068
O5	O	0.830367	-0.008694	-0.081930
O6	O	1.330367	0.491306	0.418070
O7	O	0.818633	0.194618	-0.081967
O8	O	1.318633	0.694618	0.418033
O9	O	0.830356	-0.008700	0.081653
O10	O	1.330356	0.491300	0.581653
O11	O	0.722832	0.098832	0.081651
O12	O	1.222832	0.598832	0.581651
O13	O	0.926146	0.087080	0.081618
O14	O	1.426146	0.587080	0.581618
Zn15	Zn	0.824487	0.092955	0.107607
Zn16	Zn	1.324487	0.592955	0.607607
Zn17	Zn	0.824501	0.092963	-0.107921
Zn18	Zn	1.324501	0.592963	0.392079
O19	O	0.818622	0.194612	0.081616
O20	O	1.318622	0.694612	0.581616
C21	C	0.696826	0.098458	-0.000136
C22	C	1.196826	0.598458	0.499864
C23	C	0.619321	0.097324	-0.000123
C24	C	1.119321	0.597324	0.499877
C25	C	0.582935	0.096782	-0.089295
C26	C	1.082935	0.596782	0.410705
C27	C	0.510111	0.095709	-0.089307
C28	C	1.010111	0.595709	0.410693
C29	C	0.473678	0.095164	-0.000142
C30	C	0.973678	0.595164	0.499858
C31	C	0.510072	0.095709	0.089041
C32	C	1.010072	0.595709	0.589041
C33	C	0.582894	0.096789	0.089050
C34	C	1.082894	0.596789	0.589050
N35	N	0.364654	0.053733	0.066222
N36	N	0.864654	0.553733	0.566222
N37	N	0.295477	0.052705	0.066207
N38	N	0.795477	0.552705	0.566207
C39	C	0.254272	0.091911	-0.000166
C40	C	0.754272	0.591911	0.499834
N41	N	0.284858	0.132174	-0.066537
N42	N	0.784858	0.632174	0.433463
N43	N	0.354042	0.133199	-0.066525
N44	N	0.854042	0.633199	0.433475
C45	C	0.394716	0.093993	-0.000143
C46	C	0.894716	0.593993	0.499857
C47	C	0.138922	0.090207	-0.089356
C48	C	0.638922	0.590207	0.410644
C49	C	0.066096	0.089138	-0.089365
C50	C	0.566096	0.589138	0.410635
C51	C	0.066060	0.089131	0.088986
C52	C	0.566060	0.589131	0.588986
C53	C	0.138883	0.090207	0.088992
C54	C	0.638883	0.590207	0.588992
C55	C	0.175310	0.090742	-0.000182
C56	C	0.675310	0.590742	0.499818
C57	C	0.829982	-0.034708	-0.000136
C58	C	1.329982	0.465292	0.499864
C59	C	0.828841	-0.112213	-0.000127
C60	C	1.328841	0.387787	0.499873
C61	C	0.891933	-0.157142	-0.000132
C62	C	1.391933	0.342858	0.499868
C63	C	0.890861	-0.229966	-0.000148
C64	C	1.390861	0.270034	0.499852
C65	C	0.826694	-0.257857	-0.000139
C66	C	1.326694	0.242143	0.499861
C67	C	0.763594	-0.212917	-0.000139
C68	C	1.263594	0.287083	0.499861
C69	C	0.764668	-0.140095	-0.000133
C70	C	1.264668	0.359905	0.499867
N71	N	0.777642	-0.365859	0.055540
N72	N	1.277642	0.134141	0.555540
N73	N	0.776627	-0.435038	0.055536
N74	N	1.276627	0.064962	0.555536
C75	C	0.823456	-0.477265	-0.000158
C76	C	1.323456	0.022735	0.499842
N77	N	0.871349	-0.447702	-0.055836
N78	N	1.371349	0.052298	0.444164
N79	N	0.872367	-0.378517	-0.055829
N80	N	1.372367	0.121483	0.444171
C81	C	0.825523	-0.336819	-0.000145
C82	C	1.325523	0.163181	0.499855
C83	C	0.885390	-0.601159	-0.000181
C84	C	1.385390	-0.101159	0.499819
C85	C	0.884315	-0.673984	-0.000203
C86	C	1.384315	-0.173984	0.499797
C87	C	0.757047	-0.656933	-0.000184
C88	C	1.257047	-0.156933	0.499816
C89	C	0.758123	-0.584110	-0.000172
C90	C	1.258123	-0.084110	0.499828
C91	C	0.822296	-0.556228	-0.000166
C92	C	1.322296	-0.056228	0.499834
C93	C	0.952163	0.087460	-0.000180
C94	C	1.452163	0.587460	0.499820
C95	C	1.029668	0.088594	-0.000199
C96	C	1.529668	0.588594	0.499801
C97	C	0.819007	0.220626	-0.000180
C98	C	1.319007	0.720626	0.499820
C99	C	0.820148	0.298131	-0.000195
C100	C	1.320148	0.798131	0.499805
N101	N	0.824483	0.092950	0.254699
N102	N	1.324483	0.592950	0.754699
N103	N	0.824511	0.092963	-0.255013
N104	N	1.324511	0.592963	0.244987
C105	C	0.824501	0.092963	0.655990
C106	C	1.324501	0.592963	1.155990
C107	C	0.824494	0.092962	0.544338
C108	C	1.324494	0.592962	1.044338
C109	C	0.824492	0.092957	0.455348
C110	C	1.324492	0.592957	0.955348
C111	C	0.824484	0.092955	0.343689
C112	C	1.324484	0.592955	0.843689
H113	H	0.036471	0.088702	-0.161982
H114	H	0.536471	0.588702	0.338018
N115	N	0.622224	0.097356	-0.185471
N116	N	1.122224	0.597356	0.314529
H117	H	0.588119	0.096849	-0.241963
H118	H	1.088119	0.596849	0.258037
H119	H	0.646640	0.141076	-0.189367
H120	H	1.146640	0.641076	0.310633
N121	N	0.958912	-0.278438	-0.000156
N122	N	1.458912	0.221562	0.499844
H123	H	0.999727	-0.249724	-0.000153
H124	H	1.499727	0.250276	0.499847
H125	H	0.961227	-0.309032	0.060485
H126	H	1.461227	0.190968	0.560485
H127	H	0.480404	0.095267	0.161639
H128	H	0.980404	0.595267	0.661639
H129	H	0.480480	0.095269	-0.161923
H130	H	0.980480	0.595269	0.338077
N131	N	0.690076	-0.535641	-0.000155
N132	N	1.190076	-0.035641	0.499845
H133	H	0.662073	-0.544577	-0.060791
H134	H	1.162073	-0.044577	0.439209
H135	H	0.662122	-0.544620	0.060530
H136	H	1.162122	-0.044620	0.560530
N137	N	0.954601	-0.571080	-0.000175
N138	N	1.454601	-0.071080	0.499825
H139	H	0.957890	-0.541228	-0.060806
H140	H	1.457890	-0.041228	0.439194
H141	H	0.957830	-0.541297	0.060515
H142	H	1.457830	-0.041297	0.560515
H143	H	0.612519	0.097231	0.161667
H144	H	1.112519	0.597231	0.661667
H145	H	0.935694	-0.710565	-0.000213
H146	H	1.435694	-0.210565	0.499787
H147	H	0.944187	-0.134445	-0.000131
H148	H	1.444187	0.365555	0.499869
N149	N	0.178217	0.090787	-0.185530
N150	N	0.678217	0.590787	0.314470
H151	H	0.144112	0.090287	-0.242024
H152	H	0.644112	0.590287	0.257976
H153	H	0.202635	0.134507	-0.189417
H154	H	0.702635	0.634507	0.310583
N155	N	0.178133	0.090775	0.185172
N156	N	0.678133	0.590775	0.685172
H157	H	0.229793	0.091541	0.171649
H158	H	0.729793	0.591541	0.671649
H159	H	0.159597	0.133857	0.224107
H160	H	0.659597	0.633857	0.724107
N161	N	0.696620	-0.091625	-0.000120
N162	N	1.196620	0.408375	0.499880
H163	H	0.668616	-0.100556	-0.060758
H164	H	1.168616	0.399444	0.439242
H165	H	0.668664	-0.100604	0.060563
H166	H	1.168664	0.399396	0.560563
N167	N	0.694389	-0.243002	-0.000121
N168	N	1.194389	0.256998	0.499879
H169	H	0.666752	-0.226610	0.060523
H170	H	1.166752	0.273390	0.560523
H171	H	0.666815	-0.226588	-0.060798
H172	H	1.166815	0.273412	0.439202
H173	H	0.036396	0.088692	0.161586
H174	H	0.536396	0.588692	0.661586
N175	N	0.687836	-0.687005	-0.000185
N176	N	1.187836	-0.187005	0.499815
H177	H	0.696729	-0.739955	-0.000193
H178	H	1.196729	-0.239955	0.499807
H179	H	0.660231	-0.670565	0.060461
H180	H	1.160231	-0.170565	0.560461
