data_functionalizedCrystal
_audit_creation_method	'MofGen! by Chris Wilmer'
_symmetry_space_group_name_H-M	'P1'
_symmetry_Int_Tables_number	1
_symmetry_cell_setting	triclinic
loop_
_symmetry_equiv_pos_as_xyz
  x,y,z
_cell_length_a	19.288840
_cell_length_b	13.185407
_cell_length_c	18.366186
_cell_angle_alpha	89.992747
_cell_angle_beta	89.983729
_cell_angle_gamma	67.549750
loop_
_atom_site_label
_atom_site_type_symbol
_atom_site_fract_x
_atom_site_fract_y
_atom_site_fract_z
O1	O	0.896205	0.136038	-0.060666
O2	O	1.396205	0.636038	0.439334
O3	O	0.690539	0.154435	-0.060640
O4	O	1.190539	0.654435	0.439360
O5	O	0.828609	-0.013690	-0.060655
O6	O	1.328609	0.486310	0.439345
O7	O	0.758136	0.304163	-0.060651
O8	O	1.258136	0.804163	0.439349
O9	O	0.828592	-0.013698	0.060444
O10	O	1.328592	0.486302	0.560444
O11	O	0.690523	0.154427	0.060459
O12	O	1.190523	0.654427	0.560459
O13	O	0.896188	0.136030	0.060433
O14	O	1.396188	0.636030	0.560433
Zn15	Zn	0.793353	0.145227	0.079673
Zn16	Zn	1.293353	0.645227	0.579673
Zn17	Zn	0.793375	0.145238	-0.079880
Zn18	Zn	1.293375	0.645238	0.420120
O19	O	0.758119	0.304155	0.060448
O20	O	1.258119	0.804155	0.560448
C21	C	0.664763	0.153844	-0.000087
C22	C	1.164763	0.653844	0.499913
C23	C	0.587985	0.152080	-0.000078
C24	C	1.087985	0.652080	0.499922
C25	C	0.551947	0.151238	-0.066091
C26	C	1.051947	0.651238	0.433909
C27	C	0.479808	0.149569	-0.066100
C28	C	0.979808	0.649569	0.433900
C29	C	0.443717	0.148720	-0.000092
C30	C	0.943717	0.648720	0.499908
C31	C	0.479762	0.149569	0.065930
C32	C	0.979762	0.649569	0.565930
C33	C	0.551895	0.151249	0.065937
C34	C	1.051895	0.651249	0.565937
C35	C	0.346699	0.082121	0.050469
C36	C	0.846699	0.582121	0.550469
C37	C	0.274568	0.080434	0.050459
C38	C	0.774568	0.580434	0.550459
C39	C	0.221230	0.143544	-0.000111
C40	C	0.721230	0.643544	0.499889
C41	C	0.240037	0.208327	-0.050683
C42	C	0.740037	0.708327	0.449317
C43	C	0.312170	0.210007	-0.050676
C44	C	0.812170	0.710007	0.449324
C45	C	0.365499	0.146900	-0.000092
C46	C	0.865499	0.646900	0.499908
C47	C	0.106972	0.140893	-0.066138
C48	C	0.606972	0.640893	0.433862
C49	C	0.034830	0.139231	-0.066144
C50	C	0.534830	0.639231	0.433856
C51	C	0.034788	0.139220	0.065887
C52	C	0.534788	0.639220	0.565887
C53	C	0.106925	0.140894	0.065892
C54	C	0.606925	0.640894	0.565892
C55	C	0.143014	0.141725	-0.000123
C56	C	0.643014	0.641725	0.499877
C57	C	0.835745	-0.054359	-0.000107
C58	C	1.335745	0.445641	0.499893
C59	C	0.857025	-0.175527	-0.000113
C60	C	1.357025	0.324473	0.499887
C61	C	0.653936	-0.463755	-0.000094
C62	C	1.153936	0.036245	0.499906
C63	C	0.633940	-0.349912	-0.000096
C64	C	1.133940	0.150088	0.499904
C65	C	0.689709	-0.306310	-0.000100
C66	C	1.189709	0.193690	0.499900
C67	C	0.765478	-0.376563	-0.000102
C68	C	1.265478	0.123437	0.499898
C69	C	0.785476	-0.490418	-0.000105
C70	C	1.285476	0.009582	0.499895
C71	C	0.821250	-0.332972	-0.000112
C72	C	1.321250	0.167028	0.499888
C73	C	0.897018	-0.403225	-0.000114
C74	C	1.397018	0.096775	0.499886
C75	C	0.917013	-0.517069	-0.000117
C76	C	1.417013	-0.017069	0.499883
C77	C	0.861243	-0.560671	-0.000113
C78	C	1.361243	-0.060671	0.499887
C79	C	0.801252	-0.219117	-0.000108
C80	C	1.301252	0.280883	0.499892
C81	C	0.932792	-0.245780	-0.000120
C82	C	1.432792	0.254220	0.499880
C83	C	0.952788	-0.359623	-0.000118
C84	C	1.452788	0.140377	0.499882
C85	C	0.921965	0.136621	-0.000121
C86	C	1.421965	0.636621	0.499879
C87	C	0.998743	0.138384	-0.000136
C88	C	1.498743	0.638384	0.499864
C89	C	0.750983	0.344824	-0.000101
C90	C	1.250983	0.844824	0.499899
C91	C	0.729703	0.465992	-0.000101
C92	C	1.229703	0.965992	0.499899
N93	N	0.793343	0.145219	0.188564
N94	N	1.293343	0.645219	0.688564
N95	N	0.793392	0.145237	-0.188772
N96	N	1.293392	0.645237	0.311228
C97	C	0.854489	0.070809	0.226658
C98	C	1.354489	0.570809	0.726658
C99	C	0.854494	0.070805	0.302886
C100	C	1.354494	0.570805	0.802886
C101	C	0.793357	0.145228	0.341017
C102	C	1.293357	0.645228	0.841017
C103	C	0.732201	0.219643	0.302914
C104	C	1.232201	0.719643	0.802914
C105	C	0.732194	0.219639	0.226688
C106	C	1.232194	0.719639	0.726688
C107	C	0.765665	0.244686	0.461779
C108	C	1.265665	0.744686	0.961779
C109	C	0.765676	0.244692	0.538004
C110	C	1.265676	0.744692	1.038004
C111	C	0.793374	0.145242	0.576125
C112	C	1.293374	0.645242	1.076125
C113	C	0.821076	0.045781	0.538011
C114	C	1.321076	0.545781	1.038011
C115	C	0.821069	0.045777	0.461784
C116	C	1.321069	0.545777	0.961784
C117	C	0.793357	0.145241	0.423672
C118	C	1.293357	0.645241	0.923672
C119	C	0.854529	0.070821	0.696873
C120	C	1.354529	0.570821	1.196873
C121	C	0.854530	0.070814	0.773103
C122	C	1.354530	0.570814	1.273103
C123	C	0.732239	0.219662	0.773129
C124	C	1.232239	0.719662	1.273129
C125	C	0.732236	0.219659	0.696901
C126	C	1.232236	0.719659	1.196901
C127	C	0.793385	0.145240	0.658778
C128	C	1.293385	0.645240	1.158778
H129	H	0.581237	0.151937	0.119695
H130	H	1.081237	0.651937	0.619695
H131	H	0.572249	-0.292719	-0.000096
H132	H	1.072249	0.207281	0.499904
H133	H	0.136354	0.141581	-0.119891
H134	H	0.636354	0.641581	0.380109
H135	H	0.682458	0.280255	0.804175
H136	H	1.182458	0.780255	1.304175
H137	H	0.739560	-0.161928	-0.000106
H138	H	1.239560	0.338072	0.499894
Br139	Br	1.008484	-0.186616	-0.000132
Br140	Br	1.508484	0.313384	0.499868
Br141	Br	0.649224	0.320640	0.354660
Br142	Br	1.149224	0.820640	0.854660
H143	H	0.450370	0.148881	0.119674
H144	H	0.950370	0.648881	0.619674
H145	H	0.843623	-0.035207	0.430755
H146	H	1.343623	0.464793	0.930755
Br147	Br	0.662571	-0.151805	-0.000103
Br148	Br	1.162571	0.348195	0.499897
H149	H	0.196608	0.259721	-0.091859
H150	H	0.696608	0.759721	0.408141
Br151	Br	0.649251	0.320651	0.645197
Br152	Br	1.149251	0.820651	1.145197
Br153	Br	0.155838	0.142034	0.155486
Br154	Br	0.655838	0.642034	0.655486
H155	H	0.978708	-0.574267	-0.000126
H156	H	1.478708	-0.074267	0.499874
H157	H	0.005488	0.138551	-0.119902
H158	H	0.505488	0.638551	0.380098
H159	H	0.390123	0.030726	0.091652
H160	H	0.890123	0.530726	0.591652
Br161	Br	0.858677	-0.089197	0.589735
Br162	Br	1.358677	0.410803	1.089735
H163	H	0.904321	0.010215	0.804119
H164	H	1.404321	0.510215	1.304119
H165	H	0.608537	-0.499268	-0.000096
H166	H	1.108537	0.000732	0.499904
Br167	Br	0.888378	-0.715179	-0.000102
Br168	Br	1.388378	-0.215179	0.499898
Br169	Br	1.055614	-0.454978	-0.000117
Br170	Br	1.555614	0.045022	0.499883
Br171	Br	0.249045	-0.007457	0.119106
Br172	Br	0.749045	0.492543	0.619106
Br173	Br	0.937472	-0.030189	0.174919
Br174	Br	1.437472	0.469811	0.674919
Br175	Br	0.937484	-0.030190	0.354594
Br176	Br	1.437484	0.469810	0.854594
Br177	Br	0.937514	-0.030180	0.645133
Br178	Br	1.437514	0.469820	1.145133
H179	H	0.743124	0.325678	0.569031
H180	H	1.243124	0.825678	1.069031
Br181	Br	0.728141	0.379669	0.410052
Br182	Br	1.228141	0.879669	0.910052
H183	H	0.682401	0.280233	0.195671
H184	H	1.182401	0.780233	0.695671
H185	H	0.581326	0.151915	-0.119845
H186	H	1.081326	0.651915	0.380155
H187	H	0.327478	0.262757	-0.091852
H188	H	0.827478	0.762757	0.408148
Br189	Br	0.430888	0.148428	-0.155695
Br190	Br	0.930888	0.648428	0.344305
H191	H	0.005401	0.138536	0.119632
H192	H	0.505401	0.638536	0.619632
