data_functionalizedCrystal
_audit_creation_method	'MofGen! by Chris Wilmer'
_symmetry_space_group_name_H-M	'P1'
_symmetry_Int_Tables_number	1
_symmetry_cell_setting	triclinic
loop_
_symmetry_equiv_pos_as_xyz
  x,y,z
_cell_length_a	6.817900
_cell_length_b	16.417825
_cell_length_c	17.982856
_cell_angle_alpha	95.673532
_cell_angle_beta	102.449936
_cell_angle_gamma	103.385495
loop_
_atom_site_label
_atom_site_type_symbol
_atom_site_fract_x
_atom_site_fract_y
_atom_site_fract_z
V1	V	-4.014574	-0.116681	-0.237818
O2	O	-4.002826	0.004789	-0.233016
O3	O	-3.965687	-0.230572	-0.236456
O4	O	-3.961080	-0.115245	-0.341419
O5	O	-4.007465	-0.111336	-0.127327
V6	V	-4.498925	-0.102109	-0.224571
O7	O	-4.274016	-0.148645	-0.266878
O8	O	-4.689680	-0.070145	-0.195511
O9	O	-4.324606	0.011782	-0.225933
O10	O	-4.628070	-0.223580	-0.229372
O11	O	-4.623431	-0.107454	-0.335062
O12	O	-4.329212	-0.103545	-0.120970
C13	C	-3.810734	-0.258325	-0.232773
C14	C	-3.852015	-0.351435	-0.232349
C15	C	-3.910279	-0.553463	-0.161591
C16	C	-3.949090	-0.640951	-0.161200
C17	C	-4.022599	-0.665328	-0.300806
C18	C	-3.983803	-0.577842	-0.301197
C19	C	-3.927633	-0.521911	-0.231587
C20	C	-4.005240	-0.696885	-0.230804
C21	C	-4.047320	-0.791743	-0.230380
C22	C	-3.885553	-0.427046	-0.232011
C23	C	-3.804857	-0.111213	-0.366662
C24	C	-3.842400	-0.110792	-0.451357
C25	C	-3.899371	-0.187335	-0.502204
C26	C	-3.934655	-0.186938	-0.581785
C27	C	-3.912953	-0.109998	-0.610516
C28	C	-3.855983	-0.033450	-0.559663
C29	C	-3.820714	-0.033848	-0.480084
C30	C	-3.998219	-0.031845	-0.880593
C31	C	-4.033487	-0.031453	-0.960178
C32	C	-4.112160	-0.184935	-0.982294
C33	C	-4.076891	-0.185333	-0.902715
C34	C	-4.019935	-0.108786	-0.851869
C35	C	-3.981680	-0.109216	-0.765579
C36	C	-3.951192	-0.109566	-0.696804
C37	C	-4.142901	0.039531	-0.229614
C38	C	-4.080857	0.132640	-0.230043
C39	C	-4.148778	-0.107580	-0.095723
C40	C	-4.090473	-0.107996	-0.011027
H41	H	-3.917033	-0.249988	-0.478818
O42	O	-3.765442	0.040427	-0.430584
C43	C	-3.738922	0.023580	-0.354184
H44	H	-3.831090	-0.043886	-0.354174
H45	H	-3.566951	0.030798	-0.327650
C46	C	-3.704552	0.169424	-0.306599
C47	C	-3.817769	0.086564	-0.306586
H48	H	-3.753179	0.208278	-0.277237
H49	H	-3.722411	0.180776	-0.358071
H50	H	-3.561251	0.175427	-0.284490
H51	H	-3.961062	0.080560	-0.328705
H52	H	-3.799936	0.075213	-0.255117
O53	O	-3.855992	-0.499052	-0.094032
C54	C	-4.004217	-0.451797	-0.093703
H55	H	-4.087927	-0.450629	-0.155576
H56	H	-4.122064	-0.482345	-0.061647
C57	C	-3.791046	-0.361925	0.022927
C58	C	-3.893848	-0.360484	-0.053067
H59	H	-3.722970	-0.305600	0.047996
H60	H	-3.691186	-0.393763	0.022707
H61	H	-3.889270	-0.387385	0.049631
H62	H	-3.795622	-0.335034	-0.079771
H63	H	-3.993689	-0.328639	-0.052850
H64	H	-3.934959	-0.666635	-0.104202
O65	O	-4.076867	-0.719569	-0.368465
C66	C	-3.916891	-0.701554	-0.407393
H67	H	-3.820650	-0.633214	-0.386619
H68	H	-3.812606	-0.746258	-0.394961
C69	C	-4.131225	-0.797743	-0.520285
C70	C	-4.013031	-0.713803	-0.494775
H71	H	-4.190524	-0.805301	-0.574186
H72	H	-4.239002	-0.809882	-0.494058
H73	H	-4.044302	-0.834986	-0.509918
H74	H	-4.099959	-0.676561	-0.505133
H75	H	-3.905270	-0.701657	-0.521005
O76	O	-3.989877	-0.261365	-0.631068
C77	C	-4.001499	-0.329359	-0.588645
H78	H	-3.901651	-0.305683	-0.527325
H79	H	-4.169939	-0.356697	-0.587008
C80	C	-4.044172	-0.427765	-0.702665
C81	C	-3.921523	-0.398687	-0.627352
H82	H	-3.994849	-0.470532	-0.726543
H83	H	-4.036351	-0.381957	-0.731247
H84	H	-4.184530	-0.450541	-0.701291
H85	H	-3.781174	-0.375902	-0.628729
H86	H	-3.929320	-0.444493	-0.598771
H87	H	-3.997948	-0.552153	-0.358200
H88	H	-4.094557	-0.247985	-0.879327
H89	H	-4.158548	-0.247264	-1.023703
O90	O	-3.834903	0.041217	-0.587697
C91	C	-3.878291	0.025156	-0.668839
H92	H	-3.853739	-0.039287	-0.687862
H93	H	-4.046531	0.025216	-0.694324
C94	C	-3.761740	0.173733	-0.673988
C95	C	-3.731568	0.094586	-0.697352
H96	H	-3.671243	0.216562	-0.691577
H97	H	-3.732516	0.184555	-0.619321
H98	H	-3.901945	0.173771	-0.695227
H99	H	-3.591374	0.094545	-0.676105
H100	H	-3.760766	0.083766	-0.752016
O101	O	-4.012421	0.043364	-0.987962
C102	C	-3.954545	0.110843	-0.926020
H103	H	-4.004110	0.086607	-0.873886
H104	H	-3.778604	0.138098	-0.910730
C105	C	-4.001166	0.210242	-1.013467
C106	C	-4.062057	0.180476	-0.949437
H107	H	-4.067475	0.253197	-1.027912
H108	H	-4.040150	0.164781	-1.055200
H109	H	-3.854548	0.232949	-1.000718
H110	H	-4.208668	0.157761	-0.962190
H111	H	-4.023100	0.225935	-0.907707
H112	H	-3.951844	0.030485	-0.839203
