data_functionalizedCrystal
_audit_creation_method	'MofGen! by Chris Wilmer'
_symmetry_space_group_name_H-M	'P1'
_symmetry_Int_Tables_number	1
_symmetry_cell_setting	triclinic
loop_
_symmetry_equiv_pos_as_xyz
  x,y,z
_cell_length_a	18.050591
_cell_length_b	18.050589
_cell_length_c	18.050582
_cell_angle_alpha	89.981795
_cell_angle_beta	89.980240
_cell_angle_gamma	90.024669
loop_
_atom_site_label
_atom_site_type_symbol
_atom_site_fract_x
_atom_site_fract_y
_atom_site_fract_z
Zn1	Zn	1.135293	-0.295777	-0.420031
Zn2	Zn	1.135203	-0.419960	-0.295850
Zn3	Zn	1.011112	-0.295781	-0.295845
Zn4	Zn	1.011060	-0.419922	-0.419988
O5	O	1.073167	-0.357860	-0.357929
O6	O	1.239205	-0.312265	-0.403578
O7	O	1.118727	-0.403505	-0.191925
O8	O	1.027644	-0.191856	-0.312333
O9	O	1.239140	-0.403501	-0.312343
O10	O	1.118879	-0.191853	-0.403573
O11	O	1.027557	-0.312271	-0.191921
O12	O	0.907180	-0.312234	-0.312292
O13	O	1.027555	-0.403436	-0.523919
O14	O	0.907142	-0.403440	-0.403500
O15	O	1.118828	-0.312227	-0.523950
O16	O	1.118676	-0.523880	-0.312302
O17	O	1.027468	-0.523852	-0.403506
C18	C	0.880215	-0.357834	-0.357891
C19	C	0.797669	-0.357841	-0.357893
C20	C	0.548843	-0.308192	-0.308412
C21	C	0.598275	-0.290110	-0.376186
C22	C	0.500548	-0.357879	-0.357954
C23	C	0.598198	-0.375906	-0.290153
C24	C	0.646534	-0.357858	-0.357920
C25	C	0.548893	-0.339763	-0.425765
C26	C	0.548813	-0.425589	-0.339686
C27	C	0.598222	-0.407534	-0.407507
C28	C	0.416450	-0.357888	-0.357972
C29	C	0.730630	-0.357848	-0.357910
C30	C	1.073077	-0.550812	-0.357916
C31	C	1.073107	-0.633358	-0.357936
C32	C	1.023557	-0.832820	-0.407515
C33	C	1.005459	-0.882253	-0.339746
C34	C	1.073180	-0.784488	-0.357945
C35	C	1.091314	-0.882137	-0.425722
C36	C	1.073249	-0.930473	-0.357961
C37	C	1.055046	-0.832834	-0.290141
C38	C	1.140933	-0.832714	-0.376162
C39	C	1.122861	-0.882124	-0.308347
C40	C	1.073138	-0.700390	-0.357938
C41	C	1.073291	-1.014570	-0.357961
C42	C	1.266872	-0.357887	-0.357966
C43	C	1.349418	-0.357898	-0.357982
C44	C	1.073196	-0.357827	-0.551634
C45	C	1.073208	-0.357813	-0.634180
C46	C	1.073277	-0.164154	-0.357957
C47	C	1.073324	-0.081609	-0.357969
C48	C	1.023612	-0.407345	-0.833614
C49	C	1.091367	-0.425502	-0.883012
C50	C	1.073245	-0.357756	-0.785311
C51	C	1.005527	-0.339578	-0.882994
C52	C	1.073274	-0.357703	-0.931296
C53	C	1.141036	-0.375950	-0.833622
C54	C	1.055150	-0.289994	-0.833599
C55	C	1.122952	-0.308126	-0.882975
C56	C	1.073227	-0.357789	-0.701212
C57	C	1.073300	-0.357670	-1.015392
C58	C	1.073181	-0.357839	-0.164976
C59	C	1.073312	-0.357644	-0.082431
H60	H	0.981531	-0.811171	-0.449375
C61	C	0.896265	-0.445701	-0.830347
C62	C	0.967003	-0.464025	-0.804349
H63	H	0.861322	-0.480697	-0.812282
H64	H	0.883288	-0.397606	-0.813423
H65	H	0.896211	-0.446386	-0.882969
H66	H	0.967058	-0.463334	-0.751726
H67	H	0.979983	-0.512132	-0.821269
C68	C	0.602693	-0.160864	-0.345098
C69	C	0.627613	-0.212801	-0.397032
H70	H	0.620808	-0.113137	-0.357963
H71	H	0.550078	-0.160198	-0.344823
H72	H	0.620304	-0.174028	-0.297289
H73	H	0.609997	-0.199640	-0.444841
H74	H	0.680238	-0.213465	-0.397315
C75	C	1.112495	-0.501790	-0.989890
C76	C	1.112049	-0.502828	-0.912324
H77	H	1.125262	-0.549528	-1.007983
H78	H	1.064723	-0.488554	-1.007511
H79	H	1.147812	-0.466591	-1.006777
H80	H	1.076728	-0.538023	-0.895437
H81	H	1.159828	-0.516073	-0.894695
H82	H	1.039807	-0.232728	-0.811878
C83	C	0.671038	-0.427941	-0.516948
C84	C	0.627317	-0.464246	-0.464107
H85	H	0.689004	-0.462952	-0.551887
H86	H	0.642088	-0.391682	-0.541751
H87	H	0.711682	-0.404578	-0.493040
H88	H	0.586669	-0.487604	-0.488014
H89	H	0.656268	-0.500518	-0.439301
C90	C	1.217658	-0.396647	-0.726905
C91	C	1.218384	-0.396775	-0.804474
H92	H	1.265407	-0.409510	-0.708911
H93	H	1.204721	-0.348684	-0.709579
H94	H	1.182360	-0.431671	-0.709617
H95	H	1.253678	-0.361747	-0.821762
H96	H	1.231330	-0.444744	-0.821806
H97	H	0.948246	-0.324225	-0.904682
C98	C	0.442214	-0.319238	-0.502480
C99	C	0.519784	-0.319071	-0.503173
H100	H	0.424244	-0.306458	-0.550266
H101	H	0.424872	-0.367190	-0.489441
H102	H	0.424920	-0.284168	-0.467270
H103	H	0.537079	-0.354144	-0.538379
H104	H	0.537133	-0.271112	-0.516222
H105	H	0.527163	-0.266150	-0.266581
H106	H	0.527071	-0.482843	-0.324224
C107	C	0.602501	-0.344409	-0.161005
C108	C	0.627434	-0.396509	-0.212769
H109	H	0.620545	-0.357129	-0.113230
H110	H	0.620169	-0.296649	-0.174309
H111	H	0.549879	-0.344126	-0.160362
H112	H	0.680056	-0.396789	-0.213416
H113	H	0.609770	-0.444282	-0.199461
H114	H	1.164986	-0.266168	-0.904512
C115	C	0.900718	-0.955410	-0.376799
C116	C	0.928153	-0.911634	-0.318947
H117	H	0.852994	-0.973549	-0.363958
H118	H	0.897309	-0.926441	-0.420601
H119	H	0.933241	-0.995936	-0.385062
H120	H	0.895633	-0.871104	-0.310687
H121	H	0.931557	-0.940604	-0.275132
C122	C	1.034400	-0.726156	-0.213453
C123	C	1.034281	-0.803726	-0.212750
H124	H	1.021574	-0.708187	-0.165678
H125	H	1.082350	-0.708786	-0.226461
H126	H	0.999345	-0.708889	-0.248690
H127	H	1.069340	-0.820993	-0.177517
H128	H	0.986324	-0.821103	-0.199733
H129	H	1.164855	-0.903636	-0.266386
C130	C	1.237063	-0.828150	-0.468013
C131	C	1.218218	-0.803309	-0.396987
H132	H	1.284774	-0.809991	-0.480875
H133	H	1.237542	-0.880764	-0.468613
H134	H	1.201659	-0.810531	-0.502721
H135	H	1.253619	-0.820933	-0.362277
H136	H	1.217745	-0.750684	-0.396381
C137	C	1.059910	-0.886479	-0.554891
C138	C	1.111989	-0.911372	-0.503089
H139	H	1.072674	-0.904522	-0.602655
H140	H	1.012151	-0.904173	-0.541617
H141	H	1.059594	-0.833857	-0.555541
H142	H	1.112301	-0.963994	-0.502436
H143	H	1.159760	-0.893681	-0.516367
