data_functionalizedCrystal
_audit_creation_method	'MofGen! by Chris Wilmer'
_symmetry_space_group_name_H-M	'P1'
_symmetry_Int_Tables_number	1
_symmetry_cell_setting	triclinic
loop_
_symmetry_equiv_pos_as_xyz
  x,y,z
_cell_length_a	18.101395
_cell_length_b	16.625547
_cell_length_c	16.625539
_cell_angle_alpha	90.023545
_cell_angle_beta	89.971371
_cell_angle_gamma	89.968863
loop_
_atom_site_label
_atom_site_type_symbol
_atom_site_fract_x
_atom_site_fract_y
_atom_site_fract_z
Zn1	Zn	-0.294858	-1.232599	-0.456037
Zn2	Zn	0.205142	-0.732599	0.043963
Zn3	Zn	-0.418703	-1.232489	-0.321199
Zn4	Zn	0.081297	-0.732489	0.178801
Zn5	Zn	-0.294878	-1.097769	-0.321202
Zn6	Zn	0.205122	-0.597769	0.178798
Zn7	Zn	-0.418660	-1.097709	-0.455973
Zn8	Zn	0.081340	-0.597709	0.044027
O9	O	-0.356775	-1.165142	-0.388603
O10	O	0.143225	-0.665142	0.111397
O11	O	-0.311296	-1.345417	-0.438175
O12	O	0.188704	-0.845417	0.061825
O13	O	-0.402304	-1.214597	-0.208367
O14	O	0.097696	-0.714597	0.291633
O15	O	-0.191242	-1.115727	-0.339116
O16	O	0.308758	-0.615727	0.160884
O17	O	-0.402284	-1.345336	-0.339110
O18	O	0.097716	-0.845336	0.160890
O19	O	-0.191228	-1.214785	-0.438178
O20	O	0.308772	-0.714785	0.061822
O21	O	-0.311330	-1.115619	-0.208369
O22	O	0.188670	-0.615619	0.291631
O23	O	-0.311289	-0.984929	-0.339054
O24	O	0.188711	-0.484929	0.160946
O25	O	-0.402212	-1.115624	-0.568814
O26	O	0.097788	-0.615624	-0.068814
O27	O	-0.402231	-0.984885	-0.438070
O28	O	0.097769	-0.484885	0.061930
O29	O	-0.311254	-1.214727	-0.568861
O30	O	0.188746	-0.714727	-0.068861
O31	O	-0.522330	-1.214538	-0.339049
O32	O	-0.022330	-0.714538	0.160951
O33	O	-0.522299	-1.115517	-0.438067
O34	O	-0.022299	-0.615517	0.061933
C35	C	-0.356758	-0.955651	-0.388556
C36	C	0.143242	-0.455651	0.111444
C37	C	-0.356769	-0.866030	-0.388556
C38	C	0.143231	-0.366030	0.111444
C39	C	-0.356769	-0.793247	-0.388563
C40	C	0.143231	-0.293247	0.111437
C41	C	-0.356772	-0.701939	-0.388579
C42	C	0.143228	-0.201939	0.111421
C43	C	-0.356778	-0.629162	-0.388597
C44	C	0.143222	-0.129162	0.111403
C45	C	-0.356782	-0.537848	-0.388613
C46	C	0.143218	-0.037848	0.111387
C47	C	-0.549185	-1.165031	-0.388569
C48	C	-0.049185	-0.665031	0.111431
C49	C	-0.631500	-1.165057	-0.388581
C50	C	-0.131500	-0.665057	0.111419
C51	C	-0.782208	-1.165150	-0.388613
C52	C	-0.282208	-0.665150	0.111387
C53	C	-0.813573	-1.102816	-0.450865
C54	C	-0.313573	-0.602816	0.049135
C55	C	-0.899191	-1.103051	-0.451127
C56	C	-0.399191	-0.603051	0.048873
C57	C	-0.930590	-1.165239	-0.388645
C58	C	-0.430590	-0.665239	0.111355
C59	C	-0.899409	-1.250244	-0.411514
C60	C	-0.399409	-0.750244	0.088486
C61	C	-0.813764	-1.249832	-0.411947
C62	C	-0.313764	-0.749832	0.088053
C63	C	-0.813844	-1.143241	-0.303343
C64	C	-0.313844	-0.643241	0.196657
C65	C	-0.899496	-1.141418	-0.303815
C66	C	-0.399496	-0.641418	0.196185
C67	C	-1.014450	-1.165295	-0.388661
C68	C	-0.514450	-0.665295	0.111339
C69	C	-0.698348	-1.165099	-0.388598
C70	C	-0.198348	-0.665099	0.111402
C71	C	-0.163613	-1.165275	-0.388655
C72	C	0.336387	-0.665275	0.111345
C73	C	-0.081299	-1.165332	-0.388677
C74	C	0.418701	-0.665332	0.111323
C75	C	-0.356726	-1.165181	-0.598912
C76	C	0.143274	-0.665181	-0.098912
C77	C	-0.356705	-1.165198	-0.688533
C78	C	0.143295	-0.665198	-0.188533
C79	C	-0.356789	-0.375451	-0.388640
C80	C	0.143211	0.124549	0.111360
C81	C	-0.356788	-0.465072	-0.388631
C82	C	0.143212	0.034928	0.111369
C83	C	-0.356689	-1.165211	-0.761315
C84	C	0.143311	-0.665211	-0.261315
C85	C	-0.356661	-1.165230	-0.852624
C86	C	0.143339	-0.665230	-0.352624
C87	C	-0.356635	-1.165249	-0.925400
C88	C	0.143365	-0.665249	-0.425400
C89	C	-0.356608	-1.165269	-1.016715
C90	C	0.143392	-0.665269	-0.516715
C91	C	-0.356770	-1.165149	-0.179112
C92	C	0.143230	-0.665149	0.320888
C93	C	-0.356582	-1.165288	-0.089491
C94	C	0.143418	-0.665288	0.410509
H95	H	-0.920279	-1.040026	-0.436832
H96	H	-0.420279	-0.540026	0.063168
H97	H	-0.793551	-1.188636	-0.256962
H98	H	-0.293551	-0.688636	0.243038
H99	H	-0.919741	-1.297982	-0.367576
H100	H	-0.419741	-0.797982	0.132424
O101	O	-0.789826	-1.272082	-0.486248
O102	O	-0.289826	-0.772082	0.013752
C103	C	-0.746379	-1.342199	-0.479861
C104	C	-0.246379	-0.842199	0.020139
H105	H	-0.761408	-1.375592	-0.422262
H106	H	-0.261408	-0.875592	0.077738
H107	H	-0.757152	-1.382732	-0.533915
H108	H	-0.257152	-0.882732	-0.033915
H109	H	-0.685445	-1.324974	-0.478240
H110	H	-0.185445	-0.824974	0.021760
H111	H	-0.793052	-1.039566	-0.436730
H112	H	-0.293052	-0.539566	0.063270
O113	O	-0.787804	-1.120054	-0.525767
O114	O	-0.287804	-0.620054	-0.025767
C115	C	-0.741509	-1.188184	-0.522154
C116	C	-0.241509	-0.688184	-0.022154
H117	H	-0.755816	-1.225169	-0.466569
H118	H	-0.255816	-0.725169	0.033431
H119	H	-0.749878	-1.226413	-0.578351
H120	H	-0.249878	-0.726413	-0.078351
H121	H	-0.681399	-1.168062	-0.518619
H122	H	-0.181399	-0.668062	-0.018619
O123	O	-0.924843	-1.272682	-0.485131
O124	O	-0.424843	-0.772682	0.014869
C125	C	-0.901898	-1.216142	-0.543168
C126	C	-0.401898	-0.716142	-0.043168
H127	H	-0.850943	-1.182971	-0.520347
H128	H	-0.350943	-0.682971	-0.020347
H129	H	-0.887910	-1.248598	-0.601643
H130	H	-0.387910	-0.748598	-0.101643
H131	H	-0.948287	-1.171137	-0.554445
H132	H	-0.448287	-0.671137	-0.054445
O133	O	-0.923707	-1.120364	-0.526472
O134	O	-0.423707	-0.620364	-0.026472
C135	C	-1.001596	-1.120667	-0.527003
C136	C	-0.501596	-0.620667	-0.027003
H137	H	-1.023053	-1.082746	-0.474834
H138	H	-0.523053	-0.582746	0.025166
H139	H	-1.022322	-1.094456	-0.586194
H140	H	-0.522322	-0.594456	-0.086194
H141	H	-1.022394	-1.185041	-0.520412
H142	H	-0.522394	-0.685041	-0.020412
H143	H	-0.793009	-1.297872	-0.368568
H144	H	-0.293009	-0.797872	0.131432
O145	O	-0.923853	-1.066824	-0.283144
O146	O	-0.423853	-0.566824	0.216856
C147	C	-0.965129	-1.071589	-0.211364
C148	C	-0.465129	-0.571589	0.288636
H149	H	-0.948282	-1.127796	-0.176653
H150	H	-0.448282	-0.627796	0.323347
H151	H	-0.953974	-1.016050	-0.173020
H152	H	-0.453974	-0.516050	0.326980
H153	H	-1.026504	-1.074774	-0.226374
H154	H	-0.526504	-0.574774	0.273626
H155	H	-0.792311	-1.082286	-0.282480
H156	H	-0.292311	-0.582286	0.217520
O157	O	-0.925031	-1.191737	-0.245650
O158	O	-0.425031	-0.691737	0.254350
C159	C	-0.971828	-1.249834	-0.280542
C160	C	-0.471828	-0.749834	0.219458
H161	H	-0.958053	-1.256354	-0.347143
H162	H	-0.458053	-0.756354	0.152857
H163	H	-0.963461	-1.310072	-0.249095
H164	H	-0.463461	-0.810072	0.250905
H165	H	-1.031808	-1.230054	-0.273603
H166	H	-0.531808	-0.730054	0.226397
