data_functionalizedCrystal
_audit_creation_method	'MofGen! by Chris Wilmer'
_symmetry_space_group_name_H-M	'P1'
_symmetry_Int_Tables_number	1
_symmetry_cell_setting	triclinic
loop_
_symmetry_equiv_pos_as_xyz
  x,y,z
_cell_length_a	21.295419
_cell_length_b	21.295418
_cell_length_c	21.295411
_cell_angle_alpha	89.956262
_cell_angle_beta	90.004176
_cell_angle_gamma	89.982124
loop_
_atom_site_label
_atom_site_type_symbol
_atom_site_fract_x
_atom_site_fract_y
_atom_site_fract_z
Zn1	Zn	-0.250415	-0.962480	0.356310
Zn2	Zn	-0.355667	-0.962435	0.251068
Zn3	Zn	-0.250445	-0.857203	0.251020
Zn4	Zn	-0.355679	-0.857225	0.356264
O5	O	-0.303052	-0.909836	0.303665
O6	O	-0.264359	-1.050564	0.342389
O7	O	-0.341716	-0.948448	0.162972
O8	O	-0.162351	-0.871178	0.264986
O9	O	-0.341687	-1.050530	0.265067
O10	O	-0.162330	-0.948525	0.342342
O11	O	-0.264410	-0.871135	0.162937
O12	O	-0.264422	-0.769117	0.264942
O13	O	-0.341709	-0.871215	0.444360
O14	O	-0.341737	-0.769133	0.342264
O15	O	-0.264372	-0.948546	0.444393
O16	O	-0.443758	-0.948469	0.265023
O17	O	-0.443767	-0.871171	0.342310
C18	C	-0.303085	-0.746284	0.303593
C19	C	-0.303114	-0.676316	0.303577
C20	C	-0.466603	-0.909835	0.303680
C21	C	-0.536571	-0.909892	0.303708
C22	C	-0.138861	-0.909854	0.303664
C23	C	-0.068893	-0.909862	0.303664
C24	C	-0.036037	-0.869599	0.263389
C25	C	0.029706	-0.869598	0.263397
C26	C	0.062589	-0.909872	0.303672
C27	C	0.029725	-0.950137	0.343954
C28	C	-0.036016	-0.950133	0.343950
N29	N	0.165822	-0.964983	0.308530
N30	N	0.228274	-0.964986	0.308530
C31	C	0.260664	-0.909888	0.303688
N32	N	0.228244	-0.854786	0.298833
N33	N	0.165786	-0.854783	0.298829
C34	C	0.133875	-0.909881	0.303681
C35	C	0.364806	-0.869621	0.263420
C36	C	0.430550	-0.869619	0.263432
C37	C	0.430568	-0.950163	0.343986
C38	C	0.364825	-0.950159	0.343977
C39	C	0.331948	-0.909889	0.303691
C40	C	-0.303038	-0.909888	0.467856
C41	C	-0.303033	-0.909910	0.537824
C42	C	-0.303019	-1.074026	0.303738
C43	C	-0.303005	-1.143994	0.303770
C44	C	-0.343425	-0.643474	0.343779
C45	C	-0.343410	-0.577732	0.343807
C46	C	-0.303090	-0.544834	0.303622
C47	C	-0.262770	-0.577683	0.263418
C48	C	-0.262782	-0.643425	0.263395
N49	N	-0.298162	-0.441555	0.248563
N50	N	-0.298155	-0.379104	0.248586
C51	C	-0.303049	-0.346759	0.303689
N52	N	-0.307965	-0.379225	0.358769
N53	N	-0.307976	-0.441682	0.358744
C54	C	-0.303072	-0.473548	0.303643
C55	C	-0.343346	-0.242632	0.343925
C56	C	-0.343326	-0.176888	0.343954
C57	C	-0.262690	-0.176841	0.263559
C58	C	-0.262707	-0.242583	0.263536
C59	C	-0.303038	-0.275475	0.303717
C60	C	-0.303019	-0.909820	0.140114
C61	C	-0.302848	-0.909920	0.070146
C62	C	-0.262761	-0.950175	0.570709
C63	C	-0.262734	-0.950174	0.636452
C64	C	-0.302989	-0.909915	0.669306
C65	C	-0.343263	-0.869643	0.636413
C66	C	-0.343285	-0.869641	0.570672
N67	N	-0.358058	-0.905086	0.772537
N68	N	-0.358036	-0.905092	0.834988
C69	C	-0.302925	-0.909919	0.867381
N70	N	-0.247837	-0.914753	0.834963
N71	N	-0.247860	-0.914750	0.772506
C72	C	-0.302970	-0.909913	0.740592
C73	C	-0.262621	-0.950185	0.971552
C74	C	-0.262593	-0.950179	1.037296
C75	C	-0.343128	-0.869652	1.037256
C76	C	-0.343150	-0.869654	0.971514
C77	C	-0.302898	-0.909924	0.938666
H78	H	0.056462	-0.836810	0.230599
H79	H	-0.229954	-0.670164	0.230658
C80	C	0.065343	-0.993965	0.387647
C81	C	0.049352	-1.056242	0.373982
C82	C	0.082142	-1.096631	0.414230
H83	H	0.109212	-0.988289	0.381923
H84	H	0.054553	-0.984799	0.429948
H85	H	0.060146	-1.065405	0.331692
H86	H	0.005488	-1.061938	0.379711
H87	H	0.071353	-1.087465	0.456530
H88	H	0.126010	-1.090950	0.408502
H89	H	0.071293	-1.138890	0.404967
H90	H	-0.062767	-0.982919	0.376749
C91	C	-0.386910	-0.825848	0.534932
C92	C	-0.351290	-0.785495	0.497159
C93	C	-0.391458	-0.745140	0.464232
H94	H	-0.414355	-0.849853	0.509262
H95	H	-0.410870	-0.801833	0.563893
H96	H	-0.327341	-0.809507	0.468202
H97	H	-0.323847	-0.761476	0.522814
H98	H	-0.415417	-0.721125	0.493194
H99	H	-0.418900	-0.769150	0.438566
H100	H	-0.367295	-0.717752	0.438605
C101	C	-0.218843	-0.141245	0.219906
C102	C	-0.183532	-0.184082	0.184701
C103	C	-0.143124	-0.151311	0.144488
H104	H	-0.242806	-0.115553	0.192394
H105	H	-0.191411	-0.115654	0.244025
H106	H	-0.210960	-0.209661	0.160584
H107	H	-0.159556	-0.209775	0.212196
H108	H	-0.115693	-0.125721	0.168607
H109	H	-0.167093	-0.125620	0.116981
H110	H	-0.119158	-0.180371	0.120601
C111	C	-0.218783	-0.993790	1.073032
C112	C	-0.178414	-0.958151	1.110719
C113	C	-0.138040	-0.998302	1.143642
H114	H	-0.242772	-1.021227	1.098760
H115	H	-0.194779	-1.017757	1.044069
H116	H	-0.202415	-0.934194	1.139680
H117	H	-0.154411	-0.930715	1.085007
H118	H	-0.114036	-1.022270	1.114678
H119	H	-0.162034	-1.025738	1.169366
H120	H	-0.110641	-0.974127	1.169211
C121	C	0.329219	-0.825825	0.219665
C122	C	0.372069	-0.790546	0.184411
C123	C	0.339311	-0.750189	0.144105
H124	H	0.303578	-0.849823	0.192188
H125	H	0.303579	-0.798371	0.243719
H126	H	0.397698	-0.817996	0.160360
H127	H	0.397711	-0.766535	0.211871
H128	H	0.313671	-0.722735	0.168159
H129	H	0.313671	-0.774192	0.116633
H130	H	0.368379	-0.726243	0.120185
H131	H	-0.375898	-0.836866	1.064006
C132	C	-0.387149	-0.278234	0.387625
C133	C	-0.422433	-0.235397	0.422856
C134	C	-0.462784	-0.268169	0.463126
H135	H	-0.414605	-0.303841	0.363565
H136	H	-0.363126	-0.303910	0.415112
H137	H	-0.446455	-0.209733	0.395372
H138	H	-0.394995	-0.209789	0.446928
H139	H	-0.438761	-0.293845	0.490614
H140	H	-0.490235	-0.293775	0.439062
H141	H	-0.486725	-0.239110	0.487040
H142	H	-0.376152	-0.150149	0.376695
H143	H	-0.376266	-0.670250	0.376499
C144	C	-0.218940	-0.993811	0.535089
C145	C	-0.156660	-0.980091	0.551058
C146	C	-0.116270	-1.020269	0.518255
H147	H	-0.228055	-1.036128	0.545872
H148	H	-0.224667	-0.988044	0.491218
H149	H	-0.150936	-0.985863	0.594920
H150	H	-0.147526	-0.937782	0.540274
H151	H	-0.121997	-1.014502	0.474383
H152	H	-0.125391	-1.062583	0.529040
H153	H	-0.074008	-1.010962	0.529080
H154	H	0.338073	-0.982949	0.376769
C155	C	0.466257	-0.825822	0.219807
C156	C	0.503974	-0.785473	0.255432
C157	C	0.536870	-0.745113	0.215267
H158	H	0.491962	-0.849823	0.192382
H159	H	0.437278	-0.801804	0.195826
H160	H	0.532950	-0.809488	0.279402
H161	H	0.478285	-0.761458	0.282856
H162	H	0.507891	-0.721095	0.191286
H163	H	0.562572	-0.769119	0.187844
H164	H	0.562460	-0.717727	0.239433
H165	H	-0.062801	-0.836807	0.230586
C166	C	-0.386813	-0.825968	0.935692
C167	C	-0.378206	-0.834571	0.871087
C168	C	-0.418411	-0.794329	0.838069
H169	H	-0.429128	-0.835137	0.946408
H170	H	-0.377599	-0.783660	0.946395
H171	H	-0.387423	-0.876870	0.860388
H172	H	-0.335899	-0.825398	0.860352
H173	H	-0.409198	-0.752021	0.848773
H174	H	-0.460724	-0.803502	0.848790
H175	H	-0.412573	-0.800157	0.794231
C176	C	-0.218935	-0.993790	0.672200
C177	C	-0.178570	-0.958159	0.709897
C178	C	-0.138211	-0.998317	0.742829
H179	H	-0.242935	-1.021224	0.697921
H180	H	-0.194928	-1.017762	0.643242
H181	H	-0.202574	-0.934198	0.738852
H182	H	-0.154556	-0.930727	0.684192
H183	H	-0.114204	-1.022289	0.713871
H184	H	-0.162216	-1.025749	0.768547
H185	H	-0.110814	-0.974147	0.768406
H186	H	-0.229842	-0.982971	0.944806
C187	C	-0.218868	-0.278279	0.219986
C188	C	-0.178569	-0.316069	0.255677
C189	C	-0.138168	-0.348954	0.215581
H190	H	-0.242840	-0.303933	0.192500
H191	H	-0.194814	-0.249292	0.196067
H192	H	-0.202620	-0.345052	0.279585
H193	H	-0.154582	-0.290431	0.283161
H194	H	-0.114115	-0.319968	0.191661
H195	H	-0.162146	-0.374605	0.188097
H196	H	-0.110817	-0.374595	0.239791
H197	H	-0.376037	-0.836862	0.663168
H198	H	0.457341	-0.982952	0.376781
C199	C	-0.387075	-0.542028	0.387531
C200	C	-0.351485	-0.504359	0.427956
C201	C	-0.391685	-0.471467	0.468248
H202	H	-0.414470	-0.516291	0.363485
H203	H	-0.411086	-0.571010	0.411498
H204	H	-0.327484	-0.475380	0.403992
H205	H	-0.324091	-0.530080	0.452017
H206	H	-0.415696	-0.500449	0.492215
H207	H	-0.419079	-0.445734	0.444197
H208	H	-0.367543	-0.445909	0.495685
C209	C	-0.219101	-0.541937	0.219705
C210	C	-0.254681	-0.504149	0.179304
C211	C	-0.214472	-0.471219	0.139022
H212	H	-0.191691	-0.516277	0.243760
H213	H	-0.195106	-0.570897	0.195721
H214	H	-0.278665	-0.475193	0.203285
H215	H	-0.282089	-0.529794	0.155236
H216	H	-0.190477	-0.500179	0.115037
H217	H	-0.187064	-0.445563	0.163081
H218	H	-0.238607	-0.445581	0.111601
