data_functionalizedCrystal
_audit_creation_method	'MofGen! by Chris Wilmer'
_symmetry_space_group_name_H-M	'P1'
_symmetry_Int_Tables_number	1
_symmetry_cell_setting	triclinic
loop_
_symmetry_equiv_pos_as_xyz
  x,y,z
_cell_length_a	10.489746
_cell_length_b	10.489716
_cell_length_c	9.730217
_cell_angle_alpha	90.001068
_cell_angle_beta	90.000789
_cell_angle_gamma	84.535218
loop_
_atom_site_label
_atom_site_type_symbol
_atom_site_fract_x
_atom_site_fract_y
_atom_site_fract_z
O1	O	1.694033	0.180002	0.114184
O2	O	1.322836	0.196888	0.114206
O3	O	1.516897	0.002846	0.114199
O4	O	1.499972	0.374045	0.114190
O5	O	1.516883	0.002838	-0.114381
O6	O	1.322822	0.196881	-0.114374
O7	O	1.694019	0.179994	-0.114396
Zn8	Zn	1.508418	0.188436	-0.150677
Zn9	Zn	1.508437	0.188447	0.150487
O10	O	1.499958	0.374037	-0.114390
C11	C	1.275298	0.195608	-0.000081
C12	C	1.133669	0.191788	-0.000072
C13	C	0.980822	0.066063	-0.000089
C14	C	1.058204	0.128916	-0.112788
C15	C	1.058173	0.128954	0.112574
C16	C	0.958702	0.247899	-0.112898
C17	C	0.958665	0.247919	0.112565
C18	C	1.035998	0.310860	-0.000162
C19	C	1.515618	-0.044690	-0.000086
C20	C	1.511814	-0.186322	-0.000074
C21	C	1.630818	-0.283993	-0.000093
C22	C	1.567940	-0.361351	0.112609
C23	C	1.567899	-0.361323	-0.112753
C24	C	1.448986	-0.261814	0.112721
C25	C	1.448962	-0.261780	-0.112742
C26	C	1.385997	-0.339089	-0.000012
C27	C	1.741557	0.181275	-0.000106
C28	C	1.883186	0.185095	-0.000106
C29	C	1.501236	0.421573	-0.000101
C30	C	1.505041	0.563204	-0.000104
N31	N	1.508415	0.188428	-0.356214
C32	C	1.352303	0.032165	-0.356256
C33	C	1.274262	-0.045970	-0.428218
C34	C	1.274280	-0.045970	-0.572097
C35	C	1.352347	0.032176	-0.644019
C36	C	1.430389	0.110310	-0.572058
C37	C	1.430364	0.110299	-0.428175
C38	C	1.586492	0.266579	-0.572015
C39	C	1.586481	0.266574	-0.428136
C40	C	1.664558	0.344724	-0.643937
C41	C	1.742609	0.422854	-0.571976
C42	C	1.742588	0.422850	-0.428088
C43	C	1.664523	0.344708	-0.356174
N44	N	1.508450	0.188444	0.356023
H45	H	1.101679	0.078664	-0.208068
C46	C	0.947425	-0.073760	-0.000241
N47	N	0.922266	-0.179071	-0.000364
C48	C	1.188581	-0.132114	-0.349093
N49	N	1.124115	-0.197066	-0.289500
H50	H	1.210726	-0.109587	-0.630688
C51	C	1.635817	-0.420118	0.241317
N52	N	1.686950	-0.464381	0.338254
H53	H	1.398782	-0.218508	0.208108
C54	C	0.900225	0.315725	-0.241771
N55	N	0.856177	0.366805	-0.338840
C56	C	1.246052	-0.372103	0.000076
N57	N	1.140646	-0.396971	0.000150
C58	C	1.381141	-0.203002	-0.241466
N59	N	1.330063	-0.158734	-0.338432
H60	H	1.734331	-0.259315	0.000015
C61	C	1.635787	-0.420041	-0.241480
N62	N	1.686928	-0.464263	-0.338432
H63	H	0.915167	0.298126	0.207848
C64	C	1.352284	0.032149	-0.197985
N65	N	1.352266	0.032137	-0.078772
H66	H	1.352344	0.032180	-0.761174
C67	C	1.664575	0.344724	-0.802209
N68	N	1.664593	0.344721	-0.921421
H69	H	1.806158	0.486480	-0.630546
C70	C	1.828442	0.508805	-0.348942
N71	N	1.893112	0.573547	-0.289334
C72	C	1.664492	0.344698	-0.197903
N73	N	1.664460	0.344690	-0.078690
H74	H	1.101626	0.078685	0.207855
H75	H	1.060465	0.414440	-0.000227
