data_functionalizedCrystal
_audit_creation_method	'MofGen! by Chris Wilmer'
_symmetry_space_group_name_H-M	'P1'
_symmetry_Int_Tables_number	1
_symmetry_cell_setting	triclinic
loop_
_symmetry_equiv_pos_as_xyz
  x,y,z
_cell_length_a	13.032721
_cell_length_b	12.759401
_cell_length_c	12.759393
_cell_angle_alpha	89.981504
_cell_angle_beta	97.148028
_cell_angle_gamma	97.204304
loop_
_atom_site_label
_atom_site_type_symbol
_atom_site_fract_x
_atom_site_fract_y
_atom_site_fract_z
Zn1	Zn	0.415970	-1.553098	0.647064
Zn2	Zn	0.915970	-1.053098	1.147064
Zn3	Zn	0.590752	-1.530656	0.493688
Zn4	Zn	1.090752	-1.030656	0.993688
Zn5	Zn	0.416025	-1.377393	0.471410
Zn6	Zn	0.916025	-0.877393	0.971410
Zn7	Zn	0.590671	-1.355063	0.669319
Zn8	Zn	1.090671	-0.855063	1.169319
O9	O	0.503355	-1.454052	0.570370
O10	O	1.003355	-0.954052	1.070370
O11	O	0.439166	-1.697140	0.626728
O12	O	0.939166	-1.197140	1.126728
O13	O	0.567631	-1.510279	0.343719
O14	O	1.067631	-1.010279	0.843719
O15	O	0.269780	-1.419437	0.476074
O16	O	0.769780	-0.919437	0.976074
O17	O	0.567577	-1.680653	0.514043
O18	O	1.067577	-1.180653	1.014043
O19	O	0.269740	-1.548527	0.605126
O20	O	0.769740	-1.048527	1.105126
O21	O	0.439259	-1.397677	0.327352
O22	O	0.939259	-0.897677	0.827352
O23	O	0.439181	-1.227411	0.497654
O24	O	0.939181	-0.727411	0.997654
O25	O	0.567440	-1.381379	0.813381
O26	O	1.067440	-0.881379	1.313381
O27	O	0.567493	-1.211005	0.643057
O28	O	1.067493	-0.711005	1.143057
O29	O	0.439088	-1.526875	0.797030
O30	O	0.939088	-1.026875	1.297030
O31	O	0.736978	-1.488626	0.535623
O32	O	1.236978	-0.988626	1.035623
O33	O	0.736919	-1.359619	0.664659
O34	O	1.236919	-0.859619	1.164659
C35	C	0.503335	-1.181087	0.570354
C36	C	1.003335	-0.681087	1.070354
C37	C	0.503352	-1.064309	0.570375
C38	C	1.003352	-0.564309	1.070375
C39	C	0.774866	-1.419293	0.604997
C40	C	1.274866	-0.919293	1.104997
C41	C	0.891020	-1.404519	0.619845
C42	C	1.391020	-0.904519	1.119845
C43	C	0.230782	-1.488976	0.535632
C44	C	0.730782	-0.988976	1.035632
C45	C	0.114628	-1.503859	0.520829
C46	C	0.614628	-1.003859	1.020829
C47	C	0.942800	-1.461819	0.562668
C48	C	1.442800	-0.961819	1.062668
C49	C	1.062851	-1.446551	0.578013
C50	C	1.562851	-0.946551	1.078013
C51	C	0.503249	-1.454139	0.844390
C52	C	1.003249	-0.954139	1.344390
C53	C	0.503204	-1.454176	0.961161
C54	C	1.003204	-0.954176	1.461161
C55	C	0.503375	-1.728083	0.570388
C56	C	1.003375	-1.228083	1.070388
C57	C	0.503383	-1.844859	0.570395
C58	C	1.003383	-1.344859	1.070395
C59	C	0.570271	-1.000918	0.645989
C60	C	1.070271	-0.500918	1.145989
C61	C	0.570285	-0.891192	0.646002
C62	C	1.070285	-0.391192	1.146002
C63	C	0.436457	-0.908258	0.494778
C64	C	0.936457	-0.408258	0.994778
C65	C	0.436439	-1.017982	0.494770
C66	C	0.936439	-0.517982	0.994770
C67	C	0.647539	-0.991064	0.733294
C68	C	1.147539	-0.491064	1.233294
C69	C	0.647552	-0.881338	0.733307
C70	C	1.147552	-0.381338	1.233307
C71	C	0.503384	-1.454036	0.297407
C72	C	1.003384	-0.954036	0.797407
C73	C	0.503135	-1.454240	0.180599
C74	C	1.003135	-0.954240	0.680599
C75	C	0.436365	-1.529946	1.007510
C76	C	0.936365	-1.029946	1.507510
C77	C	0.436327	-1.529976	1.117230
C78	C	0.936327	-1.029976	1.617230
C79	C	0.569977	-1.378462	1.134243
C80	C	1.069977	-0.878462	1.634243
C81	C	0.570009	-1.378429	1.024525
C82	C	1.070009	-0.878429	1.524525
C83	C	0.359206	-1.617424	0.997689
C84	C	0.859206	-1.117424	1.497689
C85	C	0.359168	-1.617454	1.107409
C86	C	0.859168	-1.117454	1.607409
H87	H	1.107394	-1.386190	0.638333
H88	H	1.607394	-0.886190	1.138333
H89	H	0.388219	-1.690988	0.967356
H90	H	0.888219	-1.190988	1.467356
H91	H	0.282271	-1.598167	1.131644
H92	H	0.782271	-1.098167	1.631644
H93	H	0.380844	-1.696054	1.139953
H94	H	0.880844	-1.196054	1.639953
H95	H	1.070087	-1.564228	0.460517
H96	H	1.570087	-1.064228	0.960517
H97	H	0.898256	-1.522184	0.502360
H98	H	1.398256	-1.022184	1.002360
H99	H	0.624432	-1.316727	0.986792
H100	H	1.124432	-0.816727	1.486792
O101	O	0.364313	-0.858290	0.413211
O102	O	0.864313	-0.358290	0.913211
H103	H	0.375577	-0.771340	0.425909
H104	H	0.875577	-0.271340	0.925909
O105	O	0.950012	-1.324551	0.699730
O106	O	1.450012	-0.824551	1.199730
H107	H	1.035048	-1.325098	0.699237
H108	H	1.535048	-0.825098	1.199237
H109	H	0.618663	-0.851032	0.806972
H110	H	1.118663	-0.351032	1.306972
O111	O	0.364275	-1.086357	0.413206
O112	O	0.864275	-0.586357	0.913206
H113	H	0.317765	-1.035705	0.360626
H114	H	0.817765	-0.535705	0.860626
O115	O	0.618937	-1.034220	0.837466
O116	O	1.118937	-0.534220	1.337466
H117	H	0.604937	-0.968330	0.888470
H118	H	1.104937	-0.468330	1.388470
H119	H	0.728468	-0.841202	0.721700
H120	H	1.228468	-0.341202	1.221700
O121	O	0.749319	-1.023129	0.707499
O122	O	1.249319	-0.523129	1.207499
H123	H	0.803296	-0.951393	0.693835
H124	H	1.303296	-0.451393	1.193835
H125	H	0.624365	-1.316790	1.185846
H126	H	1.124365	-0.816790	1.685846
H127	H	0.278276	-1.605997	0.957606
H128	H	0.778276	-1.105997	1.457606
