data_functionalizedCrystal
_audit_creation_method	'MofGen! by Chris Wilmer'
_symmetry_space_group_name_H-M	'P1'
_symmetry_Int_Tables_number	1
_symmetry_cell_setting	triclinic
loop_
_symmetry_equiv_pos_as_xyz
  x,y,z
_cell_length_a	27.731993
_cell_length_b	27.732025
_cell_length_c	14.185569
_cell_angle_alpha	76.971783
_cell_angle_beta	103.051260
_cell_angle_gamma	82.626929
loop_
_atom_site_label
_atom_site_type_symbol
_atom_site_fract_x
_atom_site_fract_y
_atom_site_fract_z
O1	O	0.629931	0.068396	-0.083117
O2	O	0.489126	0.077177	-0.083174
O3	O	0.563903	0.002392	-0.083174
O4	O	0.555154	0.143181	-0.083117
O5	O	0.585993	-0.019698	0.083660
O6	O	0.511216	0.055087	0.083660
O7	O	0.652021	0.046306	0.083717
Cu8	Cu	0.583636	0.048680	0.098922
Cu9	Cu	0.557512	0.074803	-0.098379
O10	O	0.577244	0.121091	0.083718
C11	C	0.482162	0.065953	0.000235
C12	C	0.428503	0.065414	0.000212
C13	C	0.033308	0.073518	-0.090682
C14	C	0.234962	0.075588	-0.090709
O15	O	0.250794	0.086077	-0.168053
N16	N	0.272223	0.063806	0.000231
C17	C	0.259069	0.051502	0.091183
O18	O	0.295390	0.041523	0.168532
C19	C	0.057417	0.049428	0.091209
C20	C	0.020157	0.061216	0.000263
C21	C	-0.003951	0.085304	-0.181620
C22	C	-0.054361	0.084789	-0.181613
C23	C	-0.067513	0.072488	-0.090667
C24	C	-0.030254	0.060701	0.000271
C25	C	0.044264	0.037121	0.182160
C26	C	-0.006153	0.036602	0.182158
C27	C	-0.043413	0.048390	0.091213
C28	C	-0.093816	0.047885	0.091224
N29	N	-0.131077	0.059667	0.000284
C30	C	-0.117926	0.071968	-0.090661
C31	C	0.364939	0.052593	0.091164
C32	C	0.415351	0.053112	0.091157
C33	C	0.391241	0.077197	-0.090735
C34	C	0.340827	0.076682	-0.090728
C35	C	0.327677	0.064375	0.000224
C36	C	-0.223791	0.070886	-0.090639
C37	C	-0.274205	0.070372	-0.090623
C38	C	-0.250090	0.046284	0.091269
C39	C	-0.199680	0.046801	0.091254
C40	C	-0.186533	0.059101	0.000292
O41	O	-0.109684	0.037396	0.168527
O42	O	-0.154252	0.081935	-0.167999
C43	C	0.083719	0.074033	-0.090690
C44	C	0.120978	0.062247	0.000248
C45	C	0.107826	0.049945	0.091194
C46	C	0.171391	0.062766	0.000242
C47	C	0.184542	0.075067	-0.090704
C48	C	0.147281	0.086850	-0.181643
C49	C	0.096871	0.086334	-0.181636
C50	C	0.145088	0.038163	0.182133
C51	C	0.195497	0.038679	0.182118
C52	C	0.208649	0.050981	0.091173
C53	C	0.574765	-0.026659	0.000233
C54	C	0.574212	-0.080310	0.000203
C55	C	0.558282	-0.451441	-0.090682
C56	C	0.560330	-0.249778	-0.090713
O57	O	0.550374	-0.213470	-0.168058
N58	N	0.572628	-0.236598	0.000226
C59	C	0.584417	-0.273838	0.091179
O60	O	0.594929	-0.258000	0.168527
C61	C	0.582372	-0.475500	0.091209
C62	C	0.570069	-0.488676	0.000264
C63	C	0.545980	-0.464619	-0.181619
C64	C	0.545466	-0.515031	-0.181610
C65	C	0.557253	-0.552266	-0.090664
C66	C	0.569554	-0.539089	0.000273
C67	C	0.594165	-0.512739	0.182161
C68	C	0.593654	-0.563157	0.182161
C69	C	0.581351	-0.576334	0.091216
C70	C	0.580827	-0.626737	0.091228
N71	N	0.568529	-0.639917	0.000289
C72	C	0.556742	-0.602682	-0.090657
C73	C	0.585489	-0.167961	0.091156
C74	C	0.586000	-0.117545	0.091149
C75	C	0.561914	-0.093489	-0.090743
C76	C	0.561400	-0.143906	-0.090735
C77	C	0.573192	-0.181141	0.000218
C78	C	0.555662	-0.708553	-0.090632
C79	C	0.555147	-0.758970	-0.090615
C80	C	0.579235	-0.783022	0.091277
C81	C	0.579748	-0.732608	0.091261
C82	C	0.567962	-0.695374	0.000298
O83	O	0.590783	-0.663071	0.168532
O84	O	0.546243	-0.618531	-0.167994
C85	C	0.558797	-0.401029	-0.090691
C86	C	0.571098	-0.387851	0.000247
C87	C	0.582885	-0.425086	0.091193
C88	C	0.571609	-0.337436	0.000239
C89	C	0.559822	-0.300201	-0.090707
C90	C	0.547524	-0.313381	-0.181646
C91	C	0.547010	-0.363794	-0.181637
C92	C	0.595183	-0.411906	0.182132
C93	C	0.595696	-0.361492	0.182116
C94	C	0.583909	-0.324257	0.091169
C95	C	0.658985	0.057531	0.000306
C96	C	0.712643	0.058071	0.000322
C97	C	0.566382	0.150142	0.000308
C98	C	0.566934	0.203794	0.000331
N99	N	0.602013	0.030305	0.237693
N100	N	0.539138	0.093174	-0.237150
C101	C	0.485144	0.147137	0.605344
C102	C	0.499069	0.133222	0.710365
C103	C	0.565297	0.067024	0.710326
C104	C	0.551377	0.080932	0.605302
C105	C	0.511301	0.120989	0.552819
C106	C	0.577533	0.054784	0.552778
C107	C	0.563616	0.068693	0.447763
C108	C	0.523542	0.108749	0.395273
C109	C	0.497383	0.134898	0.447805
C110	C	0.617612	0.014729	0.605263
C111	C	0.643768	-0.011418	0.552738
C112	C	0.629848	0.002488	0.447722
C113	C	0.589774	0.042544	0.395232
C114	C	0.656007	-0.023660	0.395190
C115	C	0.642089	-0.009752	0.290176
C116	C	0.575857	0.056453	0.290217
H117	H	-0.169343	0.037212	0.165309
H118	H	0.552313	-0.063163	-0.164795
C119	C	-0.209337	0.084420	-0.190701
N120	N	-0.198451	0.094618	-0.266069
C121	C	0.236479	0.025710	0.282173
N122	N	0.267346	0.015938	0.357532
H123	H	0.512212	0.120075	0.309764
H124	H	0.401957	0.087215	-0.164786
H125	H	0.545126	-0.769694	-0.164676
C126	C	0.453278	0.178943	0.390068
N127	N	0.420053	0.212111	0.346580
H128	H	0.676400	-0.044032	0.595482
C129	C	0.456332	0.040150	0.191205
N130	N	0.487198	0.030383	0.266564
H131	H	0.477766	0.154518	0.753125
H132	H	0.663389	-0.031044	0.247410
H133	H	0.134387	0.028143	0.256194
H134	H	0.074594	0.027521	0.256218
H135	H	0.536383	-0.434305	-0.255683
H136	H	0.546065	-0.678241	-0.164702
C137	C	0.350481	0.039064	0.191225
N138	N	0.339593	0.028880	0.266592
H139	H	-0.016856	0.026585	0.256224
C140	C	0.441039	0.191182	0.547607
N141	N	0.407814	0.224350	0.504119
C142	C	-0.264567	0.032752	0.191304
N143	N	-0.275472	0.022555	0.266651
C144	C	0.700092	-0.067720	0.452936
N145	N	0.733296	-0.100907	0.496429
C146	C	0.608145	-0.452859	0.282186
N147	N	0.617906	-0.483703	0.357553
C148	C	0.010506	0.098837	-0.281677
N149	N	0.021390	0.109034	-0.357046
H150	H	0.604189	-0.502022	0.256219
C151	C	0.592198	-0.823990	0.191313
N152	N	0.601965	-0.854848	0.266661
H153	H	0.597929	0.034410	0.753069
H154	H	0.066537	0.095933	-0.255693
C155	C	0.161758	0.100380	-0.281684
N156	N	0.172665	0.110566	-0.357030
H157	H	0.535451	-0.525754	-0.255667
C158	C	0.547876	-0.158395	-0.190780
N159	N	0.537694	-0.169307	-0.266139
C160	C	0.299845	0.089644	-0.190774
N161	N	0.268980	0.099405	-0.266133
C162	C	0.599527	-0.103057	0.191195
N163	N	0.609720	-0.092147	0.266554
H164	H	0.628943	0.003408	0.690772
H165	H	0.595092	-0.198275	0.165225
C166	C	0.593280	-0.718114	0.191304
N167	N	0.603477	-0.707201	0.266659
C168	C	-0.315189	0.083337	-0.190674
N169	N	-0.346056	0.093099	-0.266031
C170	C	-0.095341	0.097747	-0.281661
N171	N	-0.126203	0.107503	-0.357023
H172	H	0.603257	-0.593474	0.256227
C173	C	0.534561	-0.272413	-0.281687
N174	N	0.524802	-0.241555	-0.357033
C175	C	0.533496	-0.378283	-0.281684
N176	N	0.523324	-0.389193	-0.357045
C177	C	0.609230	-0.347006	0.282169
N178	N	0.619428	-0.336097	0.357528
H179	H	0.543219	0.089068	0.247484
