data_functionalizedCrystal
_audit_creation_method	'MofGen! by Chris Wilmer'
_symmetry_space_group_name_H-M	'P1'
_symmetry_Int_Tables_number	1
_symmetry_cell_setting	triclinic
loop_
_symmetry_equiv_pos_as_xyz
  x,y,z
_cell_length_a	16.959455
_cell_length_b	12.759400
_cell_length_c	12.759393
_cell_angle_alpha	89.969552
_cell_angle_beta	90.026410
_cell_angle_gamma	89.988295
loop_
_atom_site_label
_atom_site_type_symbol
_atom_site_fract_x
_atom_site_fract_y
_atom_site_fract_z
Zn1	Zn	1.208461	0.418299	0.594209
Zn2	Zn	1.708461	0.918299	1.094209
Zn3	Zn	1.208382	0.594015	0.418529
Zn4	Zn	1.708382	1.094015	0.918529
Zn5	Zn	1.076275	0.418341	0.418523
Zn6	Zn	1.576275	0.918341	0.918523
Zn7	Zn	1.076266	0.593928	0.594146
Zn8	Zn	1.576266	1.093928	1.094146
O9	O	1.142346	0.506146	0.506352
O10	O	1.642346	1.006146	1.006352
O11	O	1.319061	0.441627	0.570933
O12	O	1.819061	0.941627	1.070933
O13	O	1.190828	0.570765	0.271507
O14	O	1.690828	1.070765	0.771507
O15	O	1.093847	0.271315	0.441853
O16	O	1.593847	0.771315	0.941853
O17	O	1.319003	0.570725	0.441862
O18	O	1.819003	1.070725	0.941862
O19	O	1.190963	0.271284	0.570928
O20	O	1.690963	0.771284	1.070928
O21	O	1.093770	0.441699	0.271503
O22	O	1.593770	0.941699	0.771503
O23	O	0.965663	0.441614	0.441791
O24	O	1.465663	0.941614	0.941791
O25	O	1.093831	0.570576	0.741175
O26	O	1.593831	1.070576	1.241175
O27	O	0.965656	0.570617	0.570820
O28	O	1.465656	1.070617	1.070820
O29	O	1.190954	0.441543	0.741222
O30	O	1.690954	0.941543	1.241222
O31	O	1.190819	0.741024	0.441801
O32	O	1.690819	1.241024	0.941801
O33	O	1.093755	0.740960	0.570826
O34	O	1.593755	1.240960	1.070826
C35	C	0.936980	0.506111	0.506299
C36	C	1.436980	1.006111	1.006299
C37	C	0.849123	0.506122	0.506301
C38	C	1.349123	1.006122	1.006301
C39	C	1.142299	0.779113	0.506330
C40	C	1.642299	1.279113	1.006330
C41	C	1.142351	0.895890	0.506356
C42	C	1.642351	1.395890	1.006356
C43	C	1.142400	0.506045	0.780385
C44	C	1.642400	1.006045	1.280385
C45	C	1.142424	0.506002	0.897162
C46	C	1.642424	1.006002	1.397162
C47	C	0.477606	0.573300	0.439110
C48	C	0.977606	1.073300	0.939110
C49	C	0.477688	0.439079	0.573721
C50	C	0.977688	0.939079	1.073721
C51	C	0.560234	0.439061	0.573696
C52	C	1.060234	0.939061	1.073696
C53	C	0.601470	0.506166	0.506377
C54	C	1.101470	1.006166	1.006377
C55	C	0.560160	0.573287	0.439085
C56	C	1.060160	1.073287	0.939085
C57	C	0.601550	0.371948	0.640995
C58	C	1.101550	0.871948	1.140995
C59	C	0.684101	0.371929	0.640973
C60	C	1.184101	0.871929	1.140973
C61	C	0.725339	0.439029	0.573648
C62	C	1.225339	0.939029	1.073648
C63	C	0.684024	0.506153	0.506352
C64	C	1.184024	1.006153	1.006352
C65	C	0.725259	0.573257	0.439034
C66	C	1.225259	1.073257	0.939034
C67	C	0.683946	0.640376	0.371731
C68	C	1.183946	1.140376	0.871731
C69	C	0.601397	0.640387	0.371760
C70	C	1.101397	1.140387	0.871760
C71	C	0.807887	0.439018	0.573619
C72	C	1.307887	0.939018	1.073619
C73	C	0.807813	0.573244	0.439008
C74	C	1.307813	1.073244	0.939008
C75	C	1.348514	0.506181	0.506405
C76	C	1.848514	1.006181	1.006405
C77	C	1.436371	0.506196	0.506428
C78	C	1.936371	1.006196	1.006428
C79	C	1.142414	0.232112	0.506397
C80	C	1.642414	0.732112	1.006397
C81	C	1.142444	0.115336	0.506416
C82	C	1.642444	0.615336	1.006416
C83	C	1.192949	0.950750	0.439247
C84	C	1.692949	1.450750	0.939247
C85	C	1.192997	1.060474	0.439279
C86	C	1.692997	1.560474	0.939279
C87	C	1.091844	1.060468	0.573532
C88	C	1.591844	1.560468	1.073532
C89	C	1.091800	0.950746	0.573504
C90	C	1.591800	1.450746	1.073504
C91	C	1.251347	0.950755	0.361733
C92	C	1.751347	1.450755	0.861733
C93	C	1.251395	1.060479	0.361766
C94	C	1.751395	1.560479	0.861766
C95	C	1.142337	0.506170	0.233384
C96	C	1.642337	1.006170	0.733384
C97	C	1.142467	0.505917	0.116608
C98	C	1.642467	1.005917	0.616608
C99	C	1.192964	0.573182	0.952023
C100	C	1.692964	1.073182	1.452023
C101	C	1.192988	0.573137	1.061748
C102	C	1.692988	1.073137	1.561748
C103	C	1.091924	0.438730	1.061739
C104	C	1.591924	0.938730	1.561739
C105	C	1.091905	0.438771	0.952017
C106	C	1.591905	0.938771	1.452017
C107	C	1.251311	0.650783	0.952029
C108	C	1.751311	1.150783	1.452029
C109	C	1.251334	0.650739	1.061754
C110	C	1.751334	1.150739	1.561754
H111	H	0.841381	0.627885	0.384185
H112	H	1.341381	1.127885	0.884185
Cl113	Cl	1.217409	0.770125	0.899447
Cl114	Cl	1.717409	1.270125	1.399447
Cl115	Cl	0.425672	0.657670	0.354501
Cl116	Cl	0.925672	1.157670	0.854501
H117	H	1.234920	0.732094	1.091515
H118	H	1.734920	1.232094	1.591515
H119	H	1.050607	0.906079	0.628159
H120	H	1.550607	1.406079	1.128159
Cl121	Cl	1.345829	0.904656	0.395489
Cl122	Cl	1.845829	1.404656	0.895489
H123	H	1.309504	0.621596	1.095805
H124	H	1.809504	1.121596	1.595805
H125	H	1.229435	0.916805	0.284403
H126	H	1.729435	1.416805	0.784403
H127	H	1.309555	1.094428	0.390989
H128	H	1.809555	1.594428	0.890989
Cl129	Cl	1.028377	0.354298	0.883051
Cl130	Cl	1.528377	0.854298	1.383051
Cl131	Cl	0.736031	0.287551	0.725578
Cl132	Cl	1.236031	0.787551	1.225578
Cl133	Cl	0.735795	0.724739	0.287113
Cl134	Cl	1.235795	1.224739	0.787113
Cl135	Cl	0.859820	0.354652	0.658226
Cl136	Cl	1.359820	0.854652	1.158226
Cl137	Cl	1.226148	1.106588	0.236121
Cl138	Cl	1.726148	1.606588	0.736121
Cl139	Cl	0.549708	0.287609	0.725631
Cl140	Cl	1.049708	0.787609	1.225631
Cl141	Cl	0.549456	0.724760	0.287163
Cl142	Cl	1.049456	1.224760	0.787163
H143	H	1.050794	0.383992	1.106415
H144	H	1.550794	0.883992	1.606415
H145	H	0.444109	0.384451	0.628535
H146	H	0.944109	0.884451	1.128535
Cl147	Cl	1.345825	0.617177	0.906083
Cl148	Cl	1.845825	1.117177	1.406083
H149	H	1.050687	1.105145	0.628203
H150	H	1.550687	1.605145	1.128203
