data_functionalizedCrystal
_audit_creation_method	'MofGen! by Chris Wilmer'
_symmetry_space_group_name_H-M	'P1'
_symmetry_Int_Tables_number	1
_symmetry_cell_setting	triclinic
loop_
_symmetry_equiv_pos_as_xyz
  x,y,z
_cell_length_a	13.635800
_cell_length_b	7.190339
_cell_length_c	17.457951
_cell_angle_alpha	74.589353
_cell_angle_beta	106.366297
_cell_angle_gamma	119.388276
loop_
_atom_site_label
_atom_site_type_symbol
_atom_site_fract_x
_atom_site_fract_y
_atom_site_fract_z
V1	V	1.894936	0.299375	-0.248588
V2	V	2.394936	0.799375	0.251412
O3	O	1.845735	-0.009972	-0.244437
O4	O	2.345735	0.490028	0.255563
O5	O	1.914989	0.589364	-0.246328
O6	O	2.414989	1.089364	0.253672
O7	O	1.799240	0.296706	-0.357260
O8	O	2.299240	0.796706	0.142740
O9	O	1.962286	0.284712	-0.132737
O10	O	2.462286	0.784712	0.367263
V11	V	2.140281	0.262144	-0.234799
V12	V	2.640281	0.762144	0.265201
O13	O	2.017707	0.381042	-0.278834
O14	O	2.517707	0.881042	0.221166
O15	O	2.242609	0.180477	-0.204552
O16	O	2.742609	0.680477	0.295448
O17	O	2.008624	-0.027845	-0.237058
O18	O	2.508624	0.472155	0.262942
O19	O	2.248181	0.571491	-0.238950
O20	O	2.748181	1.071491	0.261050
O21	O	2.131630	0.276807	-0.350650
O22	O	2.631630	0.776807	0.149350
O23	O	2.124374	0.264812	-0.126126
O24	O	2.624374	0.764812	0.373874
V25	V	2.394936	0.299375	-0.248588
V26	V	2.894936	0.799375	0.251412
O27	O	2.345735	-0.009972	-0.244437
O28	O	2.845735	0.490028	0.255563
O29	O	2.414989	0.589364	-0.246328
O30	O	2.914989	1.089364	0.253672
O31	O	2.299240	0.296706	-0.357260
O32	O	2.799240	0.796706	0.142740
O33	O	2.462286	0.284712	-0.132737
O34	O	2.962286	0.784712	0.367263
V35	V	2.640281	0.262144	-0.234799
V36	V	3.140281	0.762144	0.265201
O37	O	2.517707	0.381042	-0.278834
O38	O	3.017707	0.881042	0.221166
O39	O	2.742609	0.180477	-0.204552
O40	O	3.242609	0.680477	0.295448
O41	O	2.508624	-0.027845	-0.237058
O42	O	3.008624	0.472155	0.262942
O43	O	2.748181	0.571491	-0.238950
O44	O	3.248181	1.071491	0.261050
O45	O	2.631630	0.276807	-0.350650
O46	O	3.131630	0.776807	0.149350
O47	O	2.624374	0.264812	-0.126126
O48	O	3.124374	0.764812	0.373874
C49	C	1.850574	0.660000	-0.242266
C50	C	2.350574	1.160000	0.257734
C51	C	1.908199	0.901539	-0.241124
C52	C	2.408199	1.401539	0.258876
C53	C	2.408194	0.901537	-0.241132
C54	C	2.908194	1.401537	0.258868
C55	C	2.350566	0.659991	-0.242262
C56	C	2.850566	1.159991	0.257738
C57	C	1.702918	0.286680	-0.383766
C58	C	2.202918	0.786680	0.116234
C59	C	1.665610	0.286417	-0.472603
C60	C	2.165610	0.786417	0.027397
C61	C	2.052370	0.274846	-0.099616
C62	C	2.552370	0.774846	0.400384
C63	C	2.079297	0.275098	-0.010778
C64	C	2.579297	0.775098	0.489222
C65	C	2.202918	0.286680	-0.383766
C66	C	2.702918	0.786680	0.116234
C67	C	2.165610	0.286417	-0.472603
C68	C	2.665610	0.786417	0.027397
C69	C	2.552370	0.274846	-0.099616
C70	C	3.052370	0.774846	0.400384
C71	C	2.579297	0.275098	-0.010778
C72	C	3.079297	0.775098	0.489222
C73	C	1.738082	0.296998	-0.518375
C74	C	2.238082	0.796998	-0.018375
C75	C	1.703035	0.296723	-0.601845
C76	C	2.203035	0.796723	-0.101845
C77	C	1.595519	0.285883	-0.639543
C78	C	2.095519	0.785883	-0.139543
C79	C	1.523040	0.275295	-0.593765
C80	C	2.023040	0.775295	-0.093765
C81	C	1.558085	0.275555	-0.510296
C82	C	2.058085	0.775555	-0.010296
C83	C	2.004588	0.285945	0.026912
C84	C	2.504588	0.785945	0.526912
C85	C	2.029900	0.286204	0.110383
C86	C	2.529900	0.786204	0.610383
C87	C	2.129925	0.275631	0.156162
C88	C	2.629925	0.775631	0.656162
C89	C	2.204636	0.264776	0.118466
C90	C	2.704636	0.764776	0.618466
C91	C	2.179320	0.264502	0.034997
C92	C	2.679320	0.764502	0.534997
C93	C	2.215005	0.275288	0.406233
C94	C	2.715005	0.775288	0.906233
C95	C	2.240318	0.275570	0.489707
C96	C	2.740318	0.775570	0.989707
C97	C	2.065579	0.296994	0.481618
C98	C	2.565579	0.796994	0.981618
C99	C	2.040274	0.296732	0.398147
C100	C	2.540274	0.796732	0.898147
C101	C	2.114984	0.285866	0.360459
C102	C	2.614984	0.785866	0.860459
N103	N	2.155801	0.275902	0.241483
N104	N	2.655801	0.775902	0.741483
N105	N	2.089102	0.285579	0.275141
N106	N	2.589102	0.785579	0.775141
C107	C	2.504566	0.285914	0.026899
C108	C	3.004566	0.785914	0.526899
C109	C	2.529845	0.286125	0.110372
C110	C	3.029845	0.786125	0.610372
C111	C	2.629860	0.275536	0.156166
C112	C	3.129860	0.775536	0.656166
C113	C	2.704594	0.264712	0.118483
C114	C	3.204594	0.764712	0.618483
C115	C	2.679310	0.264486	0.035012
C116	C	3.179310	0.764486	0.535012
H117	H	1.825633	0.305831	-0.487692
H118	H	2.325633	0.805831	0.012308
F119	F	2.450297	0.297659	0.150461
F120	F	2.950297	0.797659	0.650461
F121	F	2.656756	0.275784	0.245003
F122	F	3.156756	0.775784	0.745003
F123	F	1.933818	0.307994	0.349431
F124	F	2.433818	0.807994	0.849431
H125	H	2.786025	0.256084	0.155780
H126	H	3.286025	0.756084	0.655780
F127	F	1.480944	0.264316	-0.461592
F128	F	1.980944	0.764316	0.038408
F129	F	2.398115	0.297185	-0.021823
F130	F	2.898115	0.797185	0.478177
F131	F	2.758865	0.253000	-0.005080
F132	F	3.258865	0.753000	0.494920
F133	F	1.558238	0.285614	-0.728382
F134	F	2.058238	0.785614	-0.228382
F135	F	1.408619	0.263780	-0.633900
F136	F	1.908619	0.763780	-0.133900
F137	F	1.898134	0.297214	-0.021803
F138	F	2.398134	0.797214	0.478197
H139	H	1.969070	0.295064	0.141065
H140	H	2.469070	0.795064	0.641065
H141	H	1.762067	0.305353	-0.639107
H142	H	2.262067	0.805353	-0.139107
F143	F	2.311090	0.253518	0.167190
F144	F	2.811090	0.753518	0.667190
F145	F	1.986073	0.308552	0.521734
F146	F	2.486073	0.808552	1.021734
H147	H	2.275841	0.266434	0.375558
H148	H	2.775841	0.766434	0.875558
F149	F	2.346781	0.264315	0.538427
F150	F	2.846781	0.764315	1.038427
F151	F	2.258830	0.252937	-0.005114
F152	F	2.758830	0.752937	0.494886
