data_functionalizedCrystal
_audit_creation_method	'MofGen! by Chris Wilmer'
_symmetry_space_group_name_H-M	'P1'
_symmetry_Int_Tables_number	1
_symmetry_cell_setting	triclinic
loop_
_symmetry_equiv_pos_as_xyz
  x,y,z
_cell_length_a	19.077105
_cell_length_b	17.640280
_cell_length_c	19.076919
_cell_angle_alpha	81.491119
_cell_angle_beta	90.076224
_cell_angle_gamma	76.093206
loop_
_atom_site_label
_atom_site_type_symbol
_atom_site_fract_x
_atom_site_fract_y
_atom_site_fract_z
Zn1	Zn	1.129876	-0.382634	-0.374495
Zn2	Zn	1.629876	0.117366	0.125505
Zn3	Zn	1.158314	-0.509803	-0.235079
Zn4	Zn	1.658314	-0.009803	0.264921
Zn5	Zn	1.015111	-0.372039	-0.254114
Zn6	Zn	1.515111	0.127961	0.245886
Zn7	Zn	1.036046	-0.509326	-0.347913
Zn8	Zn	1.536046	-0.009326	0.152087
O9	O	1.084837	-0.443450	-0.302900
O10	O	1.584837	0.056550	0.197100
O11	O	1.232847	-0.404137	-0.359159
O12	O	1.732847	0.095863	0.140841
O13	O	1.142458	-0.487294	-0.140002
O14	O	1.642458	0.012706	0.359998
O15	O	1.009672	-0.262768	-0.289173
O16	O	1.509672	0.237232	0.210827
O17	O	1.253740	-0.497568	-0.256731
O18	O	1.753740	0.002432	0.243269
O19	O	1.093989	-0.270552	-0.377617
O20	O	1.593989	0.229448	0.122383
O21	O	1.037247	-0.386079	-0.153987
O22	O	1.537247	0.113921	0.346013
O23	O	0.918689	-0.385616	-0.263398
O24	O	1.418689	0.114384	0.236602
O25	O	1.045353	-0.496755	-0.449041
O26	O	1.545353	0.003245	0.050959
O27	O	0.934070	-0.486481	-0.332312
O28	O	1.434070	0.013519	0.167688
O29	O	1.114289	-0.403674	-0.468571
O30	O	1.614289	0.096326	0.031429
O31	O	1.162758	-0.620416	-0.230956
O32	O	1.662758	-0.120416	0.269044
O33	O	1.072929	-0.620066	-0.313855
O34	O	1.572929	-0.120066	0.186145
C35	C	0.900659	-0.434848	-0.297037
C36	C	1.400659	0.065152	0.202963
C37	C	0.821869	-0.431187	-0.294542
C38	C	1.321869	0.068813	0.205458
C39	C	1.123220	-0.648940	-0.267471
C40	C	1.623220	-0.148940	0.232529
C41	C	1.139704	-0.736853	-0.252340
C42	C	1.639704	-0.236853	0.247660
C43	C	0.792897	-0.482056	-0.329166
C44	C	1.292897	0.017944	0.170834
C45	C	0.718864	-0.478606	-0.326827
C46	C	1.218864	0.021394	0.173173
C47	C	0.673806	-0.424291	-0.289859
C48	C	1.173806	0.075709	0.210141
C49	C	0.702782	-0.373417	-0.255233
C50	C	1.202782	0.126583	0.244767
C51	C	0.776813	-0.376864	-0.257577
C52	C	1.276813	0.123136	0.242423
C53	C	0.451534	-0.408341	-0.279014
C54	C	0.951534	0.091659	0.220986
C55	C	0.377499	-0.404900	-0.276671
C56	C	0.877499	0.095100	0.223329
C57	C	0.393586	-0.510088	-0.348266
C58	C	0.893586	-0.010088	0.151734
C59	C	0.467618	-0.513532	-0.350603
C60	C	0.967618	-0.013532	0.149397
C61	C	0.496587	-0.462656	-0.315981
C62	C	0.996587	0.037344	0.184019
N63	N	0.598132	-0.420765	-0.287465
N64	N	1.098132	0.079235	0.212535
N65	N	0.572258	-0.466178	-0.318379
N66	N	1.072258	0.033822	0.181621
C67	C	0.959888	-1.025193	-0.418115
C68	C	1.459888	-0.525193	0.081885
C69	C	0.975380	-1.107800	-0.403874
C70	C	1.475380	-0.607800	0.096126
C71	C	1.068973	-1.108106	-0.317643
C72	C	1.568973	-0.608106	0.182357
C73	C	1.053491	-1.025498	-0.331879
C74	C	1.553491	-0.525498	0.168121
C75	C	0.998948	-0.984048	-0.382115
C76	C	1.498948	-0.484048	0.117885
C77	C	1.092551	-0.984353	-0.295879
C78	C	1.592551	-0.484353	0.204121
C79	C	1.077068	-0.901751	-0.310111
C80	C	1.577068	-0.401751	0.189889
C81	C	1.022525	-0.860295	-0.360343
C82	C	1.522525	-0.360295	0.139657
C83	C	0.983465	-0.901447	-0.396347
C84	C	1.483465	-0.401447	0.103653
C85	C	1.147091	-1.025804	-0.245640
C86	C	1.647091	-0.525804	0.254360
C87	C	1.186150	-0.984658	-0.209640
C88	C	1.686150	-0.484658	0.290360
C89	C	1.170671	-0.902056	-0.223875
C90	C	1.670671	-0.402056	0.276125
C91	C	1.116128	-0.860600	-0.274107
C92	C	1.616128	-0.360600	0.225893
C93	C	1.209731	-0.860904	-0.187872
C94	C	1.709731	-0.360904	0.312128
C95	C	1.194248	-0.778303	-0.202104
C96	C	1.694248	-0.278303	0.297896
C97	C	1.100645	-0.777998	-0.288339
C98	C	1.600645	-0.277998	0.211661
C99	C	1.269734	-0.452087	-0.308787
C100	C	1.769734	0.047913	0.191213
C101	C	1.348526	-0.455768	-0.311295
C102	C	1.848526	0.044232	0.188705
C103	C	1.078984	-0.451343	-0.484821
C104	C	1.578984	0.048657	0.015179
C105	C	1.076490	-0.454707	-0.562344
C106	C	1.576490	0.045293	-0.062344
C107	C	1.046323	-0.237160	-0.338484
C108	C	1.546323	0.262840	0.161516
C109	C	1.029910	-0.149252	-0.353647
C110	C	1.529910	0.350748	0.146353
C111	C	1.111208	-0.407827	-0.608934
C112	C	1.611208	0.092173	-0.108934
C113	C	1.108856	-0.410984	-0.681775
C114	C	1.608856	0.089016	-0.181775
C115	C	1.071789	-0.461025	-0.708026
C116	C	1.571789	0.038975	-0.208026
C117	C	1.037067	-0.507907	-0.661431
C118	C	1.537067	-0.007907	-0.161431
C119	C	1.039416	-0.504745	-0.588591
C120	C	1.539416	-0.004745	-0.088591
C121	C	1.060912	-0.475673	-0.924783
C122	C	1.560912	0.024327	-0.424783
C123	C	1.058568	-0.478833	-0.997629
C124	C	1.558568	0.021167	-0.497629
C125	C	1.130356	-0.381909	-1.017969
C126	C	1.630356	0.118091	-0.517969
C127	C	1.132705	-0.378755	-0.945126
C128	C	1.632705	0.121245	-0.445126
C129	C	1.097980	-0.425634	-0.898538
C130	C	1.597980	0.074366	-0.398538
N131	N	1.069386	-0.464255	-0.782482
N132	N	1.569386	0.035745	-0.282482
N133	N	1.100379	-0.422399	-0.824084
N134	N	1.600379	0.077601	-0.324084
C135	C	1.090696	-0.435533	-0.121699
C136	C	1.590696	0.064467	0.378301
C137	C	1.093286	-0.431953	-0.044218
C138	C	1.593286	0.068047	0.455782
H139	H	0.829580	-0.526287	-0.359267
H140	H	1.329580	-0.026287	0.140733
F141	F	1.244198	-1.028781	-0.156178
F142	F	1.744198	-0.528781	0.343822
F143	F	1.163587	-1.113718	-0.230514
F144	F	1.663587	-0.613718	0.269486
H145	H	0.504301	-0.557763	-0.380705
H146	H	1.004301	-0.057763	0.119295
F147	F	0.933797	-1.151587	-0.442188
F148	F	1.433797	-0.651587	0.057812
H149	H	1.006884	-0.548648	-0.682810
H150	H	1.506884	-0.048648	-0.182810
F151	F	1.006170	-0.772394	-0.375620
F152	F	1.506170	-0.272394	0.124380
F153	F	0.807646	-0.322721	-0.220727
F154	F	1.307646	0.177279	0.279273
F155	F	0.329545	-0.347092	-0.237317
F156	F	0.829545	0.152908	0.262683
F157	F	0.925419	-0.857328	-0.449820
F158	F	1.425419	-0.357328	0.050180
F159	F	1.042599	-0.733880	-0.341813
F160	F	1.542599	-0.233880	0.158187
H161	H	0.695279	-0.520029	-0.355021
H162	H	1.195279	-0.020029	0.144979
H163	H	1.011136	-0.542911	-0.550659
H164	H	1.511136	-0.042911	-0.050659
H165	H	1.137129	-0.372812	-0.719706
H166	H	1.637129	0.127188	-0.219706
F167	F	0.362749	-0.564231	-0.385109
F168	F	0.862749	-0.064231	0.114891
F169	F	1.023954	-0.525566	-0.875210
F170	F	1.523954	-0.025566	-0.375210
H171	H	0.475112	-0.366919	-0.250816
H172	H	0.975112	0.133081	0.249184
H173	H	0.915478	-0.991444	-0.459027
H174	H	1.415478	-0.491444	0.040973
H175	H	1.113380	-1.141866	-0.276739
H176	H	1.613380	-0.641866	0.223261
H177	H	1.254135	-0.894665	-0.146965
H178	H	1.754135	-0.394665	0.353035
F179	F	1.172156	-0.325495	-0.917194
F180	F	1.672156	0.174505	-0.417194
H181	H	0.666089	-0.329190	-0.225136
H182	H	1.166089	0.170810	0.274864
H183	H	1.226054	-0.744802	-0.172788
H184	H	1.726054	-0.244802	0.327212
H185	H	1.158626	-0.343742	-1.055908
H186	H	1.658626	0.156258	-0.555908
H187	H	1.028383	-0.519584	-1.018998
H188	H	1.528383	-0.019584	-0.518998
F189	F	1.150664	-0.354570	-0.581002
F190	F	1.650664	0.145430	-0.081002
