data_functionalizedCrystal
_audit_creation_method	'MofGen! by Chris Wilmer'
_symmetry_space_group_name_H-M	'P1'
_symmetry_Int_Tables_number	1
_symmetry_cell_setting	triclinic
loop_
_symmetry_equiv_pos_as_xyz
  x,y,z
_cell_length_a	12.594517
_cell_length_b	12.594516
_cell_length_c	12.827893
_cell_angle_alpha	90.005531
_cell_angle_beta	89.999251
_cell_angle_gamma	90.016010
loop_
_atom_site_label
_atom_site_type_symbol
_atom_site_fract_x
_atom_site_fract_y
_atom_site_fract_z
Zn1	Zn	1.627109	-0.423928	0.590729
Zn2	Zn	2.127109	0.076072	1.090729
Zn3	Zn	1.627046	-0.601874	0.415995
Zn4	Zn	2.127046	-0.101874	0.915995
Zn5	Zn	1.449159	-0.423910	0.416017
Zn6	Zn	1.949159	0.076090	0.916017
Zn7	Zn	1.449095	-0.601865	0.590709
Zn8	Zn	1.949095	-0.101865	1.090709
O9	O	1.538102	-0.512895	0.503362
O10	O	2.038102	-0.012895	1.003362
O11	O	1.776046	-0.447545	0.567549
O12	O	2.276046	0.052455	1.067549
O13	O	1.603450	-0.578263	0.269762
O14	O	2.103450	-0.078263	0.769762
O15	O	1.472818	-0.274967	0.439211
O16	O	1.972818	0.225033	0.939211
O17	O	1.776000	-0.578281	0.439173
O18	O	2.276000	-0.078281	0.939173
O19	O	1.603556	-0.274980	0.567571
O20	O	2.103556	0.225020	1.067571
O21	O	1.472757	-0.447514	0.269778
O22	O	1.972757	0.052486	0.769778
O23	O	1.300205	-0.447505	0.439191
O24	O	1.800205	0.052495	0.939191
O25	O	1.472708	-0.578265	0.736948
O26	O	1.972708	-0.078265	1.236948
O27	O	1.300158	-0.578248	0.567537
O28	O	1.800158	-0.078248	1.067537
O29	O	1.603494	-0.447536	0.736962
O30	O	2.103494	0.052464	1.236962
O31	O	1.603388	-0.750819	0.439153
O32	O	2.103388	-0.250819	0.939153
O33	O	1.472647	-0.750812	0.567515
O34	O	1.972647	-0.250812	1.067515
C35	C	1.261561	-0.512874	0.503365
C36	C	1.761561	-0.012874	1.003365
C37	C	1.143256	-0.512891	0.503391
C38	C	1.643256	-0.012891	1.003391
C39	C	1.003244	-0.584131	0.573068
C40	C	1.503244	-0.084131	1.073068
C41	C	1.074040	-0.610003	0.477695
C42	C	1.574040	-0.110003	0.977695
C43	C	1.074031	-0.487065	0.598754
C44	C	1.574031	0.012935	1.098754
C45	C	1.003266	-0.538848	0.407936
C46	C	1.503266	-0.038848	0.907936
C47	C	1.003251	-0.415865	0.529059
C48	C	1.503251	0.084135	1.029059
C49	C	1.074015	-0.441701	0.433620
C50	C	1.574015	0.058299	0.933620
C51	C	1.538033	-0.789436	0.503352
C52	C	2.038033	-0.289436	1.003352
C53	C	1.538100	-0.907741	0.503383
C54	C	2.038100	-0.407741	1.003383
C55	C	1.466984	-0.977029	0.573150
C56	C	1.966984	-0.477029	1.073150
C57	C	1.441076	-1.047859	0.477797
C58	C	1.941076	-0.547859	0.977797
C59	C	1.564105	-1.047710	0.598752
C60	C	2.064105	-0.547710	1.098752
C61	C	1.512141	-0.977013	0.407979
C62	C	2.012141	-0.477013	0.907979
C63	C	1.635215	-0.976857	0.528999
C64	C	2.135215	-0.476857	1.028999
C65	C	1.609344	-1.047655	0.433580
C66	C	2.109344	-0.547655	0.933580
C67	C	1.815723	-0.512916	0.503361
C68	C	2.315723	-0.012916	1.003361
C69	C	1.934029	-0.512925	0.503360
C70	C	2.434029	-0.012925	1.003360
C71	C	1.538101	-0.512902	0.775933
C72	C	2.038101	-0.012902	1.275933
C73	C	1.538100	-0.512904	0.892086
C74	C	2.038100	-0.012904	1.392086
C75	C	1.538201	-0.235274	0.503396
C76	C	2.038201	0.264726	1.003396
C77	C	1.538244	-0.116968	0.503410
C78	C	2.038244	0.383032	1.003410
C79	C	1.602761	-0.577599	1.063907
C80	C	2.102761	-0.077599	1.563907
C81	C	1.602764	-0.577598	0.943856
C82	C	2.102764	-0.077598	1.443856
C83	C	1.538096	-0.512911	1.231853
C84	C	2.038096	-0.012911	1.731853
C85	C	1.538097	-0.512908	1.115699
C86	C	2.038097	-0.012908	1.615699
H87	H	0.972171	-0.644407	0.631932
H88	H	1.472171	-0.144407	1.131932
F89	F	1.742452	-0.936063	0.557349
F90	F	2.242452	-0.436063	1.057349
F91	F	1.592777	-1.088303	0.704155
F92	F	2.092777	-0.588303	1.204155
F93	F	1.675134	-0.649987	0.885642
F94	F	2.175134	-0.149987	1.385642
H95	H	1.482740	-0.457513	0.936620
H96	H	1.982740	0.042487	1.436620
H97	H	1.406735	-0.946016	0.632063
H98	H	1.906735	-0.446016	1.132063
F99	F	1.114688	-0.717268	0.449292
F100	F	1.614688	-0.217268	0.949292
F101	F	1.465729	-0.440518	1.057495
F102	F	1.965729	0.059482	1.557495
H103	H	0.972312	-0.560805	0.327254
H104	H	1.472312	-0.060805	0.827254
H105	H	1.658116	-0.632990	1.108442
H106	H	2.158116	-0.132990	1.608442
F107	F	1.483346	-0.936596	0.302544
F108	F	1.983346	-0.436596	0.802544
F109	F	0.962574	-0.308629	0.557498
F110	F	1.462574	0.191371	1.057498
F111	F	1.114368	-0.362967	0.356500
F112	F	1.614368	0.137033	0.856500
H113	H	1.359014	-1.079070	0.456152
H114	H	1.859014	-0.579070	0.956152
F115	F	1.688036	-1.087935	0.356393
F116	F	2.188036	-0.587935	0.856393
F117	F	1.114664	-0.458495	0.704181
F118	F	1.614664	0.041505	1.204181
