data_functionalizedCrystal
_audit_creation_method	'MofGen! by Chris Wilmer'
_symmetry_space_group_name_H-M	'P1'
_symmetry_Int_Tables_number	1
_symmetry_cell_setting	triclinic
loop_
_symmetry_equiv_pos_as_xyz
  x,y,z
_cell_length_a	23.532355
_cell_length_b	22.010155
_cell_length_c	10.654550
_cell_angle_alpha	90.003220
_cell_angle_beta	83.656201
_cell_angle_gamma	90.009876
loop_
_atom_site_label
_atom_site_type_symbol
_atom_site_fract_x
_atom_site_fract_y
_atom_site_fract_z
O1	O	0.756279	0.050441	0.152125
O2	O	1.256279	0.550441	0.652125
O3	O	0.590556	0.050460	0.174250
O4	O	1.090556	0.550460	0.674250
O5	O	0.677228	0.050448	-0.019674
O6	O	1.177228	0.550448	0.480326
O7	O	0.669607	0.050453	0.346049
O8	O	1.169607	0.550453	0.846049
O9	O	0.677201	-0.050602	-0.019674
O10	O	1.177201	0.449398	0.480326
O11	O	0.590529	-0.050590	0.174250
O12	O	1.090529	0.449410	0.674250
O13	O	0.756253	-0.050609	0.152125
O14	O	1.256253	0.449391	0.652125
Cu15	Cu	0.673389	-0.059826	0.163187
Cu16	Cu	1.173389	0.440174	0.663187
Cu17	Cu	0.673420	0.059677	0.163187
Cu18	Cu	1.173420	0.559677	0.663187
O19	O	0.669581	-0.050597	0.346049
O20	O	1.169581	0.449403	0.846049
C21	C	0.569322	-0.000063	0.173697
C22	C	1.069322	0.499937	0.673697
C23	C	0.506093	-0.000055	0.172034
C24	C	1.006093	0.499945	0.672034
N25	N	0.673371	-0.143879	0.163186
N26	N	1.173371	0.356121	0.663186
C27	C	0.113997	-0.055163	0.161587
C28	C	0.613997	0.444837	0.661587
C29	C	0.054587	-0.055166	0.160005
C30	C	0.554587	0.444834	0.660005
O31	O	0.023851	-0.102011	0.159144
O32	O	0.523851	0.397989	0.659144
N33	N	0.024888	-0.000083	0.159220
N34	N	0.524888	0.499917	0.659220
C35	C	0.054602	0.055005	0.160005
C36	C	0.554602	0.555005	0.660005
O37	O	0.023885	0.101857	0.159191
O38	O	0.523885	0.601857	0.659191
C39	C	0.114011	0.055007	0.161578
C40	C	0.614011	0.555007	0.661578
C41	C	0.143707	-0.000079	0.162375
C42	C	0.643707	0.499921	0.662375
C43	C	0.143692	-0.110245	0.162382
C44	C	0.643692	0.389755	0.662382
C45	C	0.203098	-0.110242	0.163967
C46	C	0.703098	0.389758	0.663967
C47	C	0.232808	-0.055158	0.164755
C48	C	0.732808	0.444842	0.664755
C49	C	0.203112	-0.000077	0.163959
C50	C	0.703112	0.499923	0.663959
C51	C	0.143725	0.110094	0.162354
C52	C	0.643725	0.610094	0.662354
C53	C	0.203138	0.110091	0.163926
C54	C	0.703138	0.610091	0.663926
C55	C	0.232834	0.055005	0.164723
C56	C	0.732834	0.555005	0.664723
C57	C	0.292228	0.055010	0.166332
C58	C	0.792228	0.555010	0.666332
N59	N	0.321927	-0.000072	0.167116
N60	N	0.821927	0.499928	0.667116
C61	C	0.292217	-0.055156	0.166328
C62	C	0.792217	0.444844	0.666328
C63	C	-0.070161	0.054997	0.156700
C64	C	0.429839	0.554997	0.656700
C65	C	-0.129570	0.054996	0.155136
C66	C	0.370430	0.554996	0.655136
C67	C	-0.129580	-0.055175	0.155133
C68	C	0.370420	0.444825	0.655133
C69	C	-0.070171	-0.055173	0.156706
C70	C	0.429829	0.444827	0.656706
C71	C	-0.040462	-0.000085	0.157484
C72	C	0.459538	0.499915	0.657484
C73	C	0.416973	-0.055147	0.169656
C74	C	0.916973	0.444853	0.669656
C75	C	0.476383	-0.055139	0.171245
C76	C	0.976383	0.444861	0.671245
C77	C	0.476389	0.055031	0.171241
C78	C	0.976389	0.555031	0.671241
C79	C	0.416983	0.055024	0.169659
C80	C	0.916983	0.555024	0.669659
C81	C	0.387277	-0.000070	0.168862
C82	C	0.887277	0.499930	0.668862
O83	O	0.323002	0.101831	0.167189
O84	O	0.823002	0.601831	0.667189
O85	O	0.322942	-0.102000	0.167125
O86	O	0.822942	0.398000	0.667125
C87	C	0.708260	-0.563661	0.238936
C88	C	1.208260	-0.063661	0.738936
C89	C	0.708267	-0.627269	0.238933
C90	C	1.208267	-0.127269	0.738933
O91	O	0.737910	-0.660163	0.303329
O92	O	1.237910	-0.160163	0.803329
N93	N	0.673431	-0.659086	0.163173
N94	N	1.173431	-0.159086	0.663173
C95	C	0.638591	-0.627292	0.087401
C96	C	1.138591	-0.127292	0.587401
O97	O	0.608961	-0.660196	0.022960
O98	O	1.108961	-0.160196	0.522960
C99	C	0.638588	-0.563686	0.087399
C100	C	1.138588	-0.063686	0.587399
C101	C	0.673421	-0.531872	0.163173
C102	C	1.173421	-0.031872	0.663173
C103	C	0.743091	-0.531848	0.314703
C104	C	1.243091	-0.031848	0.814703
C105	C	0.743083	-0.468244	0.314708
C106	C	1.243083	0.031756	0.814708
C107	C	0.708245	-0.436455	0.238945
C108	C	1.208245	0.063545	0.738945
C109	C	0.673413	-0.468269	0.163178
C110	C	1.173413	0.031731	0.663178
C111	C	0.603751	-0.531893	0.011621
C112	C	1.103751	-0.031893	0.511621
C113	C	0.603751	-0.468282	0.011625
C114	C	1.103751	0.031718	0.511625
C115	C	0.638584	-0.436468	0.087399
C116	C	1.138584	0.063532	0.587399
C117	C	0.638567	-0.372876	0.087420
C118	C	1.138567	0.127124	0.587420
N119	N	0.673403	-0.341059	0.163180
N120	N	1.173403	0.158941	0.663180
C121	C	0.708241	-0.372849	0.238943
C122	C	1.208241	0.127151	0.738943
C123	C	0.638601	-0.760870	0.087411
C124	C	1.138601	-0.260870	0.587411
C125	C	0.638601	-0.824475	0.087420
C126	C	1.138601	-0.324475	0.587420
C127	C	0.708278	-0.824448	0.238950
C128	C	1.208278	-0.324448	0.738950
C129	C	0.708274	-0.760841	0.238947
C130	C	1.208274	-0.260841	0.738947
C131	C	0.673437	-0.729053	0.163171
C132	C	1.173437	-0.229053	0.663171
C133	C	0.708222	-0.239277	0.238947
C134	C	1.208222	0.260723	0.738947
C135	C	0.708210	-0.175668	0.238949
C136	C	1.208210	0.324332	0.738949
C137	C	0.638536	-0.175701	0.087415
C138	C	1.138536	0.324299	0.587415
C139	C	0.638546	-0.239305	0.087417
C140	C	1.138546	0.260695	0.587417
C141	C	0.673394	-0.271091	0.163187
C142	C	1.173394	0.228909	0.663187
O143	O	0.608941	-0.339942	0.023052
O144	O	1.108941	0.160058	0.523052
O145	O	0.737871	-0.339937	0.303360
O146	O	1.237871	0.160063	0.803360
C147	C	0.777486	-0.000085	0.152678
C148	C	1.277486	0.499915	0.652678
C149	C	0.840716	-0.000089	0.154341
C150	C	1.340716	0.499911	0.654341
C151	C	0.676655	-0.000076	-0.066454
C152	C	1.176655	0.499924	0.433546
C153	C	0.674981	-0.000074	-0.205844
C154	C	1.174981	0.499926	0.294156
N155	N	0.673442	0.143730	0.163178
N156	N	1.173442	0.643730	0.663178
C157	C	0.726012	-0.000082	-0.286967
C158	C	1.226012	0.499918	0.213033
C159	C	0.724436	-0.000077	-0.417937
C160	C	1.224436	0.499923	0.082063
C161	C	0.620793	-0.000060	-0.386648
C162	C	1.120793	0.499940	0.113352
C163	C	0.622370	-0.000060	-0.255680
C164	C	1.122370	0.499940	0.244320
C165	C	0.778624	-0.000096	-0.237131
C166	C	1.278624	0.499904	0.262869
C167	C	0.829659	-0.000104	-0.318256
C168	C	1.329659	0.499896	0.181744
C169	C	0.828082	-0.000100	-0.449226
C170	C	1.328082	0.499900	0.050774
C171	C	0.775471	-0.000087	-0.499071
C172	C	1.275471	0.499913	0.000929
C173	C	0.670154	-0.000071	0.392829
C174	C	1.170154	0.499929	0.892829
C175	C	0.671828	-0.000070	0.532218
C176	C	1.171828	0.499930	1.032218
H177	H	0.500558	-0.099999	0.171899
H178	H	1.000558	0.400001	0.671899
H179	H	0.577959	-0.000051	-0.427243
H180	H	1.077959	0.499949	0.072757
N181	N	0.567330	-0.000074	-0.168176
N182	N	1.067330	0.499926	0.331824
H183	H	0.576313	-0.000079	-0.077648
H184	H	1.076313	0.499921	0.422352
H185	H	0.544425	0.037385	-0.184217
H186	H	1.044425	0.537385	0.315783
H187	H	0.392792	-0.100009	0.169018
H188	H	0.892792	0.399991	0.669018
H189	H	0.736599	-0.265150	0.300646
H190	H	1.236599	0.234850	0.800646
H191	H	0.119557	0.154951	0.161703
H192	H	0.619557	0.654951	0.661703
N193	N	0.235122	-0.169656	0.164826
N194	N	0.735122	0.330344	0.664826
H195	H	0.207279	-0.204547	0.164085
H196	H	0.707279	0.295453	0.664085
H197	H	0.264084	-0.172061	0.087623
H198	H	0.764084	0.327939	0.587623
H199	H	0.610226	-0.734992	0.025710
H200	H	1.110226	-0.234992	0.525710
N201	N	0.235178	0.169511	0.164759
N202	N	0.735178	0.669511	0.664759
H203	H	0.220527	0.193596	0.242336
H204	H	0.720527	0.693596	0.742336
H205	H	0.277313	0.161111	0.165832
H206	H	0.777313	0.661111	0.665832
N207	N	0.111654	-0.169662	0.161528
N208	N	0.611654	0.330338	0.661528
H209	H	0.139536	-0.204549	0.161414
H210	H	0.639536	0.295451	0.661414
H211	H	0.082960	-0.172243	0.239167
H212	H	0.582960	0.327757	0.739167
N213	N	0.508437	0.114443	0.172086
N214	N	1.008437	0.614443	0.672086
H215	H	0.528776	0.116902	0.250591
H216	H	1.028776	0.616902	0.750591
H217	H	0.537368	0.116853	0.094829
H218	H	1.037368	0.616853	0.594829
H219	H	0.779913	-0.000101	-0.130490
H220	H	1.279913	0.499899	0.369510
H221	H	0.610174	-0.265209	0.025732
H222	H	1.110174	0.234791	0.525732
N223	N	0.745782	-0.141355	0.320679
N224	N	1.245782	0.358645	0.820679
H225	H	0.767855	-0.171149	0.368667
H226	H	1.267855	0.328851	0.868667
H227	H	0.773403	-0.114958	0.265603
H228	H	1.273403	0.385042	0.765603
N229	N	0.780684	-0.566117	0.396413
N230	N	1.280684	-0.066117	0.896413
H231	H	0.769812	-0.555041	0.487908
H232	H	1.269812	-0.055041	0.987908
H233	H	0.775401	-0.611232	0.384836
H234	H	1.275401	-0.111232	0.884836
H235	H	0.872493	-0.000099	-0.277662
H236	H	1.372493	0.499901	0.222338
N237	N	-0.038145	-0.114586	0.157568
N238	N	0.461855	0.385414	0.657568
H239	H	-0.065986	-0.149479	0.156834
H240	H	0.434014	0.350521	0.656834
H241	H	-0.009185	-0.116991	0.080363
H242	H	0.490815	0.383009	0.580363
H243	H	0.869638	-0.000100	-0.515275
H244	H	1.369638	0.499900	-0.015275
H245	H	0.774191	-0.000077	-0.605717
H246	H	1.274191	0.499923	-0.105717
H247	H	-0.153781	-0.100027	0.154489
H248	H	0.346219	0.399973	0.654489
N249	N	-0.161596	0.114410	0.154296
N250	N	0.338404	0.614410	0.654296
H251	H	-0.133755	0.149302	0.155036
H252	H	0.366245	0.649302	0.655036
H253	H	-0.181929	0.116809	0.075781
H254	H	0.318071	0.616809	0.575781
H255	H	-0.045976	0.099859	0.157345
H256	H	0.454024	0.599859	0.657345
N257	N	0.384949	0.114436	0.168825
N258	N	0.884949	0.614436	0.668825
H259	H	0.412787	0.149331	0.169572
H260	H	0.912787	0.649331	0.669572
H261	H	0.364617	0.116836	0.090307
H262	H	0.864617	0.616836	0.590307
H263	H	0.736639	-0.734943	0.300650
H264	H	1.236639	-0.234943	0.800650
N265	N	0.780661	-0.433936	0.396421
N266	N	1.280661	0.066064	0.896421
H267	H	0.802732	-0.463734	0.444402
H268	H	1.302732	0.036266	0.944402
H269	H	0.808283	-0.407543	0.341336
H270	H	1.308283	0.092457	0.841336
H271	H	0.610169	-0.149807	0.025734
H272	H	1.110169	0.350193	0.525734
H273	H	0.736645	-0.850342	0.300642
H274	H	1.236645	-0.350342	0.800642
N275	N	0.601029	-0.858783	0.005692
N276	N	1.101029	-0.358783	0.505692
H277	H	0.606316	-0.903902	0.017176
H278	H	1.106316	-0.403902	0.517176
H279	H	0.559710	-0.847675	0.030984
H280	H	1.059710	-0.347675	0.530984
N281	N	0.566194	-0.566196	-0.070139
N282	N	1.066194	-0.066196	0.429861
H283	H	0.544134	-0.536397	-0.118143
H284	H	1.044134	-0.036397	0.381857
H285	H	0.590799	-0.592572	-0.131811
H286	H	1.090799	-0.092572	0.368189
H287	H	0.575381	-0.442403	-0.050084
H288	H	1.075381	0.057597	0.449916
