data_functionalizedCrystal
_audit_creation_method	'MofGen! by Chris Wilmer'
_symmetry_space_group_name_H-M	'P1'
_symmetry_Int_Tables_number	1
_symmetry_cell_setting	triclinic
loop_
_symmetry_equiv_pos_as_xyz
  x,y,z
_cell_length_a	19.288867
_cell_length_b	18.366186
_cell_length_c	19.288865
_cell_angle_alpha	89.988521
_cell_angle_beta	83.136658
_cell_angle_gamma	89.992441
loop_
_atom_site_label
_atom_site_type_symbol
_atom_site_fract_x
_atom_site_fract_y
_atom_site_fract_z
O1	O	0.921352	-0.060532	0.086655
O2	O	1.421352	0.439468	0.586655
O3	O	0.719091	-0.060541	0.098343
O4	O	1.219091	0.439459	0.598343
O5	O	0.826066	-0.060522	-0.008631
O6	O	1.326066	0.439478	0.491369
O7	O	0.814377	-0.060551	0.193629
O8	O	1.314377	0.439449	0.693629
O9	O	0.826048	0.060578	-0.008637
O10	O	1.326048	0.560578	0.491363
O11	O	0.719073	0.060559	0.098337
O12	O	1.219073	0.560559	0.598337
O13	O	0.921334	0.060567	0.086650
O14	O	1.421334	0.560567	0.586650
Zn15	Zn	0.820201	0.079790	0.092493
Zn16	Zn	1.320201	0.579790	0.592493
Zn17	Zn	0.820224	-0.079764	0.092500
Zn18	Zn	1.320224	0.420236	0.592500
O19	O	0.814359	0.060548	0.193624
O20	O	1.314359	0.560548	0.693624
C21	C	0.693206	0.000008	0.097964
C22	C	1.193206	0.500008	0.597964
C23	C	0.616102	0.000006	0.096834
C24	C	1.116102	0.500006	0.596834
C25	C	0.825681	0.000030	-0.034510
C26	C	1.325681	0.500030	0.465490
C27	C	0.824552	0.000036	-0.111614
C28	C	1.324552	0.500036	0.388386
C29	C	0.060547	-0.065996	0.088701
C30	C	0.560547	0.434004	0.588701
C31	C	0.132994	-0.065999	0.089758
C32	C	0.632994	0.434001	0.589758
C33	C	0.169213	0.000012	0.090287
C34	C	0.669213	0.500012	0.590287
C35	C	0.132981	0.066031	0.089741
C36	C	0.632981	0.566031	0.589741
C37	C	0.060535	0.066032	0.088677
C38	C	0.560535	0.566032	0.588677
C39	C	0.278533	0.050579	0.132652
C40	C	0.778533	0.550579	0.632652
C41	C	0.350976	0.050575	0.133721
C42	C	0.850976	0.550575	0.633721
C43	C	0.392659	0.000012	0.093566
C44	C	0.892659	0.500012	0.593566
C45	C	0.361888	-0.050560	0.052352
C46	C	0.861888	0.449440	0.552352
C47	C	0.289443	-0.050559	0.051287
C48	C	0.789443	0.449441	0.551287
C49	C	0.247768	0.000019	0.091440
C50	C	0.747768	0.500019	0.591440
C51	C	0.507439	-0.066006	0.095253
C52	C	1.007439	0.433994	0.595253
C53	C	0.579889	-0.066006	0.096306
C54	C	1.079889	0.433994	0.596306
C55	C	0.579872	0.066026	0.096296
C56	C	1.079872	0.566026	0.596296
C57	C	0.507425	0.066024	0.095236
C58	C	1.007425	0.566024	0.595236
C59	C	0.471213	0.000006	0.094718
C60	C	0.971213	0.500006	0.594718
C61	C	0.947219	0.000016	0.087029
C62	C	1.447219	0.500016	0.587029
C63	C	1.024323	0.000014	0.088159
C64	C	1.524323	0.500014	0.588159
N65	N	0.820189	0.188681	0.092488
N66	N	1.320189	0.688681	0.592488
N67	N	0.820241	-0.188655	0.092499
N68	N	1.320241	0.311345	0.592499
C69	C	0.867573	0.226790	0.045143
C70	C	1.367573	0.726790	0.545143
C71	C	0.867578	0.303018	0.045140
C72	C	1.367578	0.803018	0.545140
C73	C	0.820205	0.341134	0.092493
C74	C	1.320205	0.841134	0.592493
C75	C	0.772812	0.303016	0.139842
C76	C	1.272812	0.803016	0.639842
C77	C	0.772804	0.226790	0.139839
C78	C	1.272804	0.726790	0.639839
C79	C	0.810907	0.461885	0.155781
C80	C	1.310907	0.961885	0.655781
C81	C	0.810919	0.538110	0.155785
C82	C	1.310919	1.038110	0.655785
C83	C	0.820224	0.576241	0.092502
C84	C	1.320224	1.076241	0.592502
C85	C	0.829532	0.538139	0.029213
C86	C	1.329532	1.038139	0.529213
C87	C	0.829524	0.461912	0.029210
C88	C	1.329524	0.961912	0.529210
C89	C	0.820208	0.423789	0.092502
C90	C	1.320208	0.923789	0.592502
C91	C	0.867616	0.697005	0.045150
C92	C	1.367616	1.197005	0.545150
C93	C	0.867615	0.773234	0.045146
C94	C	1.367615	1.273234	0.545146
C95	C	0.772853	0.773231	0.139854
C96	C	1.272853	1.273231	0.639854
C97	C	0.772850	0.697003	0.139852
C98	C	1.272850	1.197003	0.639852
C99	C	0.820235	0.658895	0.092501
C100	C	1.320235	1.158895	0.592501
C101	C	0.887320	0.000042	-0.156310
C102	C	1.387320	0.500042	0.343690
C103	C	0.886259	0.000031	-0.228757
C104	C	1.386259	0.500031	0.271243
C105	C	0.822427	0.000028	-0.256505
C106	C	1.322427	0.500028	0.243495
C107	C	0.759651	0.000018	-0.211799
C108	C	1.259651	0.500018	0.288201
C109	C	0.760713	0.000022	-0.139354
C110	C	1.260713	0.500022	0.360646
C111	C	0.772241	0.042444	-0.364795
C112	C	1.272241	0.542444	0.135205
C113	C	0.771181	0.042445	-0.437239
C114	C	1.271181	0.542445	0.062761
C115	C	0.819147	0.000011	-0.479951
C116	C	1.319147	0.500011	0.020049
C117	C	0.868185	-0.042413	-0.450210
C118	C	1.368185	0.457587	0.049790
C119	C	0.869247	-0.042408	-0.377765
C120	C	1.369247	0.457592	0.122235
C121	C	0.821268	0.000023	-0.335059
C122	C	1.321268	0.500023	0.164941
C123	C	0.880769	0.000004	-0.603202
C124	C	1.380769	0.500004	-0.103202
C125	C	0.879706	-0.000012	-0.675650
C126	C	1.379706	0.499988	-0.175650
C127	C	0.753096	-0.000018	-0.658691
C128	C	1.253096	0.499982	-0.158691
C129	C	0.754161	-0.000009	-0.586245
C130	C	1.254161	0.499991	-0.086245
C131	C	0.818000	0.000005	-0.558505
C132	C	1.318000	0.500005	-0.058505
C133	C	0.814744	-0.000005	0.219503
C134	C	1.314744	0.499995	0.719503
C135	C	0.815873	-0.000016	0.296607
C136	C	1.315873	0.499984	0.796607
H137	H	0.031067	-0.119753	0.088276
H138	H	0.531067	0.380247	0.588276
H139	H	0.734218	0.195761	0.178394
H140	H	1.234218	0.695761	0.678394
H141	H	0.162493	-0.119754	0.090203
H142	H	0.662493	0.380246	0.590203
H143	H	0.906197	0.665976	0.006591
H144	H	1.406197	1.165976	0.506591
H145	H	0.734239	0.334054	0.178397
H146	H	1.234239	0.834054	0.678397
H147	H	0.909174	-0.076953	-0.353553
H148	H	1.409174	0.423047	0.146447
H149	H	0.907243	-0.076966	-0.484985
H150	H	1.407243	0.423034	0.015015
H151	H	0.932750	0.000012	-0.580616
H152	H	1.432750	0.500012	-0.080616
H153	H	0.609382	-0.119761	0.096742
H154	H	1.109382	0.380239	0.596742
H155	H	0.837101	0.430892	-0.022322
H156	H	1.337101	0.930892	0.477678
H157	H	0.264392	-0.091735	0.017728
H158	H	0.764392	0.408265	0.517728
H159	H	0.477931	0.119777	0.094797
H160	H	0.977931	0.619777	0.594797
H161	H	0.930821	-0.000011	-0.712042
H162	H	1.430821	0.499989	-0.212042
H163	H	0.709598	0.000017	-0.102962
H164	H	1.209598	0.500017	0.397038
H165	H	0.031042	0.119787	0.088238
H166	H	0.531042	0.619787	0.588238
H167	H	0.701123	-0.000024	-0.681283
H168	H	1.201123	0.499976	-0.181283
H169	H	0.395824	-0.091736	0.019656
H170	H	0.895824	0.408264	0.519656
H171	H	0.906164	0.334051	0.006584
H172	H	1.406164	0.834051	0.506584
H173	H	0.803345	0.569127	0.207319
H174	H	1.303345	1.069127	0.707319
H175	H	0.939302	0.000052	-0.133729
H176	H	1.439302	0.500052	0.366271
H177	H	0.376022	0.091739	0.167297
H178	H	0.876022	0.591739	0.667297
H179	H	0.477953	-0.119761	0.094829
H180	H	0.977953	0.380239	0.594829
H181	H	0.803317	0.430844	0.207317
H182	H	1.303317	0.930844	0.707317
H183	H	0.707678	0.000014	-0.234396
H184	H	1.207678	0.500014	0.265604
H185	H	0.734269	0.665973	0.178408
H186	H	1.234269	1.165973	0.678408
H187	H	0.906155	0.195764	0.006585
H188	H	1.406155	0.695764	0.506585
H189	H	0.906199	0.804263	0.006588
H190	H	1.406199	1.304263	0.506588
H191	H	0.609361	0.119773	0.096724
H192	H	1.109361	0.619773	0.596724
H193	H	0.244601	0.091762	0.165348
H194	H	0.744601	0.591762	0.665348
H195	H	0.837109	0.569184	-0.022318
H196	H	1.337109	1.069184	0.477682
H197	H	0.734279	0.804265	0.178408
H198	H	1.234279	1.304265	0.678408
H199	H	0.703049	-0.000010	-0.549852
H200	H	1.203049	0.499990	-0.049852
H201	H	0.937374	0.000033	-0.265155
H202	H	1.437374	0.500033	0.234845
H203	H	0.731249	0.076984	-0.461447
H204	H	1.231249	0.576984	0.038553
H205	H	0.162475	0.119778	0.090170
H206	H	0.662475	0.619778	0.590170
H207	H	0.733179	0.077002	-0.330024
H208	H	1.233179	0.577002	0.169976
