data_functionalizedCrystal
_audit_creation_method	'MofGen! by Chris Wilmer'
_symmetry_space_group_name_H-M	'P1'
_symmetry_Int_Tables_number	1
_symmetry_cell_setting	triclinic
loop_
_symmetry_equiv_pos_as_xyz
  x,y,z
_cell_length_a	19.288867
_cell_length_b	14.971486
_cell_length_c	18.366186
_cell_angle_alpha	90.001758
_cell_angle_beta	90.004879
_cell_angle_gamma	83.375599
loop_
_atom_site_label
_atom_site_type_symbol
_atom_site_fract_x
_atom_site_fract_y
_atom_site_fract_z
O1	O	0.921713	0.111584	0.060524
O2	O	1.171713	0.361584	0.310524
O3	O	1.421713	0.611584	0.560524
O4	O	1.671713	0.861584	0.810524
O5	O	0.719502	0.126634	0.060532
O6	O	0.969502	0.376634	0.310532
O7	O	1.219502	0.626634	0.560532
O8	O	1.469502	0.876634	0.810532
O9	O	0.826028	-0.011121	0.060523
O10	O	1.076028	0.238879	0.310523
O11	O	1.326028	0.488879	0.560523
O12	O	1.576028	0.738879	0.810523
O13	O	0.815188	0.249338	0.060533
O14	O	1.065188	0.499338	0.310533
O15	O	1.315188	0.749338	0.560533
O16	O	1.565188	0.999338	0.810533
O17	O	0.826014	-0.011116	-0.060577
O18	O	1.076014	0.238884	0.189423
O19	O	1.326014	0.488884	0.439423
O20	O	1.576014	0.738884	0.689423
O21	O	0.719488	0.126639	-0.060568
O22	O	0.969488	0.376639	0.189432
O23	O	1.219488	0.626639	0.439432
O24	O	1.469488	0.876639	0.689432
O25	O	0.921700	0.111588	-0.060575
O26	O	1.171700	0.361588	0.189425
O27	O	1.421700	0.611588	0.439425
O28	O	1.671700	0.861588	0.689425
Zn29	Zn	0.820592	0.119114	-0.079798
Zn30	Zn	1.070592	0.369114	0.170202
Zn31	Zn	1.320592	0.619114	0.420202
Zn32	Zn	1.570592	0.869114	0.670202
Zn33	Zn	0.820610	0.119108	0.079755
Zn34	Zn	1.070610	0.369108	0.329755
Zn35	Zn	1.320610	0.619108	0.579755
Zn36	Zn	1.570610	0.869108	0.829755
O37	O	0.815174	0.249343	-0.060566
O38	O	1.065174	0.499343	0.189434
O39	O	1.315174	0.749343	0.439434
O40	O	1.565174	0.999343	0.689434
C41	C	0.693617	0.126152	-0.000017
C42	C	0.943617	0.376152	0.249983
C43	C	1.193617	0.626152	0.499983
C44	C	1.443617	0.876152	0.749983
C45	C	0.616509	0.124697	-0.000015
C46	C	0.866509	0.374697	0.249985
C47	C	1.116509	0.624697	0.499985
C48	C	1.366509	0.874697	0.749985
C49	C	0.060917	0.114217	0.065988
C50	C	0.310917	0.364217	0.315988
C51	C	0.560917	0.614217	0.565988
C52	C	0.810917	0.864217	0.815988
C53	C	0.133369	0.115578	0.065991
C54	C	0.383369	0.365578	0.315991
C55	C	0.633369	0.615578	0.565991
C56	C	0.883369	0.865578	0.815991
C57	C	0.169592	0.116266	-0.000021
C58	C	0.419592	0.366266	0.249979
C59	C	0.669592	0.616266	0.499979
C60	C	0.919592	0.866266	0.749979
C61	C	0.133360	0.115569	-0.066039
C62	C	0.383360	0.365569	0.183961
C63	C	0.633360	0.615569	0.433961
C64	C	0.883360	0.865569	0.683961
C65	C	0.060910	0.114198	-0.066040
C66	C	0.310910	0.364198	0.183960
C67	C	0.560910	0.614198	0.433960
C68	C	0.810910	0.864198	0.683960
C69	C	0.279092	0.170826	-0.050591
C70	C	0.529092	0.420826	0.199409
C71	C	0.779092	0.670826	0.449409
C72	C	1.029092	0.920826	0.699409
C73	C	0.351539	0.172202	-0.050588
C74	C	0.601539	0.422202	0.199412
C75	C	0.851539	0.672202	0.449412
C76	C	1.101539	0.922202	0.699412
C77	C	0.393052	0.120488	-0.000021
C78	C	0.643052	0.370488	0.249979
C79	C	0.893052	0.620488	0.499979
C80	C	1.143052	0.870488	0.749979
C81	C	0.362106	0.067410	0.050555
C82	C	0.612106	0.317410	0.300555
C83	C	0.862106	0.567410	0.550555
C84	C	1.112106	0.817410	0.800555
C85	C	0.289656	0.066040	0.050554
C86	C	0.539656	0.316040	0.300554
C87	C	0.789656	0.566040	0.550554
C88	C	1.039656	0.816040	0.800554
C89	C	0.248152	0.117751	-0.000027
C90	C	0.498152	0.367751	0.249973
C91	C	0.748152	0.617751	0.499973
C92	C	0.998152	0.867751	0.749973
C93	C	0.507837	0.122655	0.065997
C94	C	0.757837	0.372655	0.315997
C95	C	1.007837	0.622655	0.565997
C96	C	1.257837	0.872655	0.815997
C97	C	0.580290	0.124011	0.065997
C98	C	0.830290	0.374011	0.315997
C99	C	1.080290	0.624011	0.565997
C100	C	1.330290	0.874011	0.815997
C101	C	0.580279	0.124011	-0.066035
C102	C	0.830279	0.374011	0.183965
C103	C	1.080279	0.624011	0.433965
C104	C	1.330279	0.874011	0.683965
C105	C	0.507828	0.122646	-0.066033
C106	C	0.757828	0.372646	0.183967
C107	C	1.007828	0.622646	0.433967
C108	C	1.257828	0.872646	0.683967
C109	C	0.471610	0.121972	-0.000015
C110	C	0.721610	0.371972	0.249985
C111	C	0.971610	0.621972	0.499985
C112	C	1.221610	0.871972	0.749985
C113	C	0.825536	-0.044440	-0.000027
C114	C	1.075536	0.205560	0.249973
C115	C	1.325536	0.455560	0.499973
C116	C	1.575536	0.705560	0.749973
C117	C	0.824083	-0.143730	-0.000026
C118	C	1.074083	0.106270	0.249974
C119	C	1.324083	0.356270	0.499974
C120	C	1.574083	0.606270	0.749974
C121	C	0.947585	0.112071	-0.000024
C122	C	1.197585	0.362071	0.249976
C123	C	1.447585	0.612071	0.499976
C124	C	1.697585	0.862071	0.749976
C125	C	1.024693	0.113525	-0.000022
C126	C	1.274693	0.363525	0.249978
C127	C	1.524693	0.613525	0.499978
C128	C	1.774693	0.863525	0.749978
C129	C	0.886664	-0.201293	-0.000029
C130	C	1.136664	0.048707	0.249971
C131	C	1.386664	0.298707	0.499971
C132	C	1.636664	0.548707	0.749971
C133	C	0.885295	-0.294585	-0.000021
C134	C	1.135295	-0.044585	0.249979
C135	C	1.385295	0.205415	0.499979
C136	C	1.635295	0.455415	0.749979
C137	C	0.821344	-0.330312	-0.000017
C138	C	1.071344	-0.080312	0.249983
C139	C	1.321344	0.169688	0.499983
C140	C	1.571344	0.419688	0.749983
C141	C	0.758759	-0.272741	-0.000012
C142	C	1.008759	-0.022741	0.249988
C143	C	1.258759	0.227259	0.499988
C144	C	1.508759	0.477259	0.749988
C145	C	0.760128	-0.179451	-0.000014
C146	C	1.010128	0.070549	0.249986
C147	C	1.260128	0.320549	0.499986
C148	C	1.510128	0.570549	0.749986
C149	C	0.755908	-0.467189	-0.000009
C150	C	1.005908	-0.217189	0.249991
C151	C	1.255908	0.032811	0.499991
C152	C	1.505908	0.282811	0.749991
C153	C	0.754538	-0.560485	-0.000008
C154	C	1.004538	-0.310485	0.249992
C155	C	1.254538	-0.060485	0.499992
C156	C	1.504538	0.189515	0.749992
C157	C	0.881074	-0.582322	-0.000017
C158	C	1.131074	-0.332322	0.249983
C159	C	1.381074	-0.082322	0.499983
C160	C	1.631074	0.167678	0.749983
C161	C	0.882444	-0.489032	-0.000019
C162	C	1.132444	-0.239032	0.249981
C163	C	1.382444	0.010968	0.499981
C164	C	1.632444	0.260968	0.749981
C165	C	0.819858	-0.431468	-0.000015
C166	C	1.069858	-0.181468	0.249985
C167	C	1.319858	0.068532	0.499985
C168	C	1.569858	0.318532	0.749985
C169	C	0.815666	0.282662	-0.000015
C170	C	1.065666	0.532662	0.249985
C171	C	1.315666	0.782662	0.499985
C172	C	1.565666	1.032662	0.749985
C173	C	0.817119	0.381952	-0.000011
C174	C	1.067119	0.631952	0.249989
C175	C	1.317119	0.881952	0.499989
C176	C	1.567119	1.131952	0.749989
N177	N	0.820584	0.119118	-0.188690
N178	N	1.070584	0.369118	0.061310
N179	N	1.320584	0.619118	0.311310
N180	N	1.570584	0.869118	0.561310
C181	C	0.862792	0.173200	-0.773238
C182	C	1.112792	0.423200	-0.523238
C183	C	1.362792	0.673200	-0.273238
C184	C	1.612792	0.923200	-0.023238
C185	C	0.862785	0.173209	-0.697011
C186	C	1.112785	0.423209	-0.447011
C187	C	1.362785	0.673209	-0.197011
C188	C	1.612785	0.923209	0.052989
C189	C	0.820616	0.119098	-0.658901
C190	C	1.070616	0.369098	-0.408901
C191	C	1.320616	0.619098	-0.158901
C192	C	1.570616	0.869098	0.091099
C193	C	0.778439	0.064991	-0.697025
C194	C	1.028439	0.314991	-0.447025
C195	C	1.278439	0.564991	-0.197025
C196	C	1.528439	0.814991	0.052975
C197	C	0.778442	0.064991	-0.773252
C198	C	1.028442	0.314991	-0.523252
C199	C	1.278442	0.564991	-0.273252
C200	C	1.528442	0.814991	-0.023252
C201	C	0.818627	0.038454	-0.538138
C202	C	1.068627	0.288454	-0.288138
C203	C	1.318627	0.538454	-0.038138
C204	C	1.568627	0.788454	0.211862
C205	C	0.818628	0.038453	-0.461913
C206	C	1.068628	0.288453	-0.211913
C207	C	1.318628	0.538453	0.038087
C208	C	1.568628	0.788453	0.288087
C209	C	0.820603	0.119100	-0.423793
C210	C	1.070603	0.369100	-0.173793
C211	C	1.320603	0.619100	0.076207
C212	C	1.570603	0.869100	0.326207
C213	C	0.822590	0.199751	-0.461908
C214	C	1.072590	0.449751	-0.211908
C215	C	1.322590	0.699751	0.038092
C216	C	1.572590	0.949751	0.288092
C217	C	0.822593	0.199750	-0.538135
C218	C	1.072593	0.449750	-0.288135
C219	C	1.322593	0.699750	-0.038135
C220	C	1.572593	0.949750	0.211865
C221	C	0.820608	0.119093	-0.576246
C222	C	1.070608	0.369093	-0.326246
C223	C	1.320608	0.619093	-0.076246
C224	C	1.570608	0.869093	0.173754
C225	C	0.862766	0.173218	-0.303023
C226	C	1.112766	0.423218	-0.053023
C227	C	1.362766	0.673218	0.196977
C228	C	1.612766	0.923218	0.446977
C229	C	0.862754	0.173229	-0.226794
C230	C	1.112754	0.423229	0.023206
C231	C	1.362754	0.673229	0.273206
C232	C	1.612754	0.923229	0.523206
C233	C	0.778412	0.065002	-0.226810
C234	C	1.028412	0.315002	0.023190
C235	C	1.278412	0.565002	0.273190
C236	C	1.528412	0.815002	0.523190
C237	C	0.778420	0.065000	-0.303038
C238	C	1.028420	0.315000	-0.053038
C239	C	1.278420	0.565000	0.196962
C240	C	1.528420	0.815000	0.446962
C241	C	0.820601	0.119106	-0.341140
C242	C	1.070601	0.369106	-0.091140
C243	C	1.320601	0.619106	0.158860
C244	C	1.570601	0.869106	0.408860
N245	N	0.820623	0.119097	0.188646
N246	N	1.070623	0.369097	0.438646
N247	N	1.320623	0.619097	0.688646
N248	N	1.570623	0.869097	0.938646
H249	H	0.478347	0.122104	0.119753
H250	H	0.728347	0.372104	0.369753
H251	H	0.978347	0.622104	0.619753
H252	H	1.228347	0.872104	0.869753
F253	F	0.384467	0.228699	-0.104409
F254	F	0.634467	0.478699	0.145591
F255	F	0.884467	0.728699	0.395591
F256	F	1.134467	0.978699	0.645591
F257	F	0.816526	-0.047388	-0.578700
F258	F	1.066526	0.202612	-0.328700
F259	F	1.316526	0.452612	-0.078700
F260	F	1.566526	0.702612	0.171300
F261	F	0.406280	0.012372	0.104379
F262	F	0.656280	0.262372	0.354379
F263	F	0.906280	0.512372	0.604379
F264	F	1.156280	0.762372	0.854379
H265	H	0.744104	0.020936	-0.665992
H266	H	0.994104	0.270936	-0.415992
H267	H	1.244104	0.520936	-0.165992
H268	H	1.494104	0.770936	0.084008
H269	H	0.938740	-0.172212	-0.000037
H270	H	1.188740	0.077788	0.249963
H271	H	1.438740	0.327788	0.499963
H272	H	1.688740	0.577788	0.749963
H273	H	0.162858	0.116127	-0.119786
H274	H	0.412858	0.366127	0.130214
H275	H	0.662858	0.616127	0.380214
H276	H	0.912858	0.866127	0.630214
H277	H	0.824209	0.265419	-0.569165
H278	H	1.074209	0.515419	-0.319165
H279	H	1.324209	0.765419	-0.069165
H280	H	1.574209	1.015419	0.180835
F281	F	0.733558	0.007404	-0.813818
F282	F	0.983558	0.257404	-0.563818
F283	F	1.233558	0.507404	-0.313818
F284	F	1.483558	0.757404	-0.063818
H285	H	0.744085	0.020939	-0.334072
H286	H	0.994085	0.270939	-0.084072
H287	H	1.244085	0.520939	0.165928
H288	H	1.494085	0.770939	0.415928
F289	F	0.951902	-0.355844	-0.000026
F290	F	1.201902	-0.105844	0.249974
F291	F	1.451902	0.144156	0.499974
F292	F	1.701902	0.394156	0.749974
H293	H	0.031434	0.113665	0.119745
H294	H	0.281434	0.363665	0.369745
H295	H	0.531434	0.613665	0.619745
H296	H	0.781434	0.863665	0.869745
H297	H	0.706689	-0.301838	-0.000003
H298	H	0.956689	-0.051838	0.249997
H299	H	1.206689	0.198162	0.499997
H300	H	1.456689	0.448162	0.749997
F301	F	0.171929	0.116316	0.136250
F302	F	0.421929	0.366316	0.386250
F303	F	0.671929	0.616316	0.636250
F304	F	0.921929	0.866316	0.886250
F305	F	0.256724	0.009550	0.104377
F306	F	0.506724	0.259550	0.354377
F307	F	0.756724	0.509550	0.604377
F308	F	1.006724	0.759550	0.854377
F309	F	0.693521	-0.118188	-0.000009
F310	F	0.943521	0.131812	0.249991
F311	F	1.193521	0.381812	0.499991
F312	F	1.443521	0.631812	0.749991
H313	H	0.031417	0.113638	-0.119795
H314	H	0.281417	0.363638	0.130205
H315	H	0.531417	0.613638	0.380205
H316	H	0.781417	0.863638	0.630205
H317	H	0.817015	-0.027218	-0.430886
H318	H	1.067015	0.222782	-0.180886
H319	H	1.317015	0.472782	0.069114
H320	H	1.567015	0.722782	0.319114
H321	H	0.744074	0.020949	-0.195782
H322	H	0.994074	0.270949	0.054218
H323	H	1.244074	0.520949	0.304218
H324	H	1.494074	0.770949	0.554218
F325	F	0.947683	-0.643587	-0.000017
F326	F	1.197683	-0.393587	0.249983
F327	F	1.447683	-0.143587	0.499983
F328	F	1.697683	0.106413	0.749983
F329	F	0.618844	0.124739	0.136258
F330	F	0.868844	0.374739	0.386258
F331	F	1.118844	0.624739	0.636258
F332	F	1.368844	0.874739	0.886258
F333	F	0.618827	0.124730	-0.136289
F334	F	0.868827	0.374730	0.113711
F335	F	1.118827	0.624730	0.363711
F336	F	1.368827	0.874730	0.613711
H337	H	0.704944	-0.420322	-0.000004
H338	H	0.954944	-0.170322	0.249996
H339	H	1.204944	0.079678	0.499996
H340	H	1.454944	0.329678	0.749996
H341	H	0.824197	0.265422	-0.430873
H342	H	1.074197	0.515422	-0.180873
H343	H	1.324197	0.765422	0.069127
H344	H	1.574197	1.015422	0.319127
F345	F	0.469272	0.121921	-0.136291
F346	F	0.719272	0.371921	0.113709
F347	F	0.969272	0.621921	0.363709
F348	F	1.219272	0.871921	0.613709
F349	F	0.234919	0.225862	-0.104422
F350	F	0.484919	0.475862	0.145578
F351	F	0.734919	0.725862	0.395578
F352	F	0.984919	0.975862	0.645578
H353	H	0.934518	-0.459946	-0.000028
H354	H	1.184518	-0.209946	0.249972
H355	H	1.434518	0.040054	0.499972
H356	H	1.684518	0.290054	0.749972
F357	F	0.686474	-0.598507	-0.000004
F358	F	0.936474	-0.348507	0.249996
F359	F	1.186474	-0.098507	0.499996
F360	F	1.436474	0.151493	0.749996
F361	F	0.907680	0.230791	-0.813785
F362	F	1.157680	0.480791	-0.563785
F363	F	1.407680	0.730791	-0.313785
F364	F	1.657680	0.980791	-0.063785
H365	H	0.897123	0.217271	-0.665971
H366	H	1.147123	0.467271	-0.415971
H367	H	1.397123	0.717271	-0.165971
H368	H	1.647123	0.967271	0.084029
H369	H	0.897109	0.217279	-0.334047
H370	H	1.147109	0.467279	-0.084047
H371	H	1.397109	0.717279	0.165953
H372	H	1.647109	0.967279	0.415953
F373	F	0.907625	0.230833	-0.186229
F374	F	1.157625	0.480833	0.063771
F375	F	1.407625	0.730833	0.313771
F376	F	1.657625	0.980833	0.563771
