data_functionalizedCrystal
_audit_creation_method	'MofGen! by Chris Wilmer'
_symmetry_space_group_name_H-M	'P1'
_symmetry_Int_Tables_number	1
_symmetry_cell_setting	triclinic
loop_
_symmetry_equiv_pos_as_xyz
  x,y,z
_cell_length_a	12.759401
_cell_length_b	19.076808
_cell_length_c	12.759393
_cell_angle_alpha	87.665862
_cell_angle_beta	89.979062
_cell_angle_gamma	92.325019
loop_
_atom_site_label
_atom_site_type_symbol
_atom_site_fract_x
_atom_site_fract_y
_atom_site_fract_z
Zn1	Zn	1.589386	-0.280155	-0.577177
Zn2	Zn	1.922719	0.053178	-0.243844
Zn3	Zn	2.256053	0.386511	0.089489
Zn4	Zn	1.582184	-0.397876	-0.394420
Zn5	Zn	1.915517	-0.064543	-0.061087
Zn6	Zn	2.248851	0.268790	0.272247
Zn7	Zn	1.413683	-0.280193	-0.401510
Zn8	Zn	1.747016	0.053140	-0.068177
Zn9	Zn	2.080349	0.386474	0.265156
Zn10	Zn	1.406587	-0.397827	-0.570060
Zn11	Zn	1.739920	-0.064494	-0.236727
Zn12	Zn	2.073253	0.268839	0.096606
O13	O	1.497960	-0.339013	-0.485792
O14	O	1.831293	-0.005680	-0.152459
O15	O	2.164626	0.327654	0.180875
O16	O	1.735451	-0.295776	-0.552945
O17	O	2.068785	0.037557	-0.219612
O18	O	2.402118	0.370890	0.113721
O19	O	1.559788	-0.382302	-0.248337
O20	O	1.893121	-0.048968	0.084996
O21	O	2.226454	0.284365	0.418329
O22	O	1.442974	-0.181691	-0.430759
O23	O	1.776307	0.151642	-0.097425
O24	O	2.109640	0.484976	0.235908
O25	O	1.730160	-0.382265	-0.418675
O26	O	2.063493	-0.048932	-0.085341
O27	O	2.396827	0.284401	0.247992
O28	O	1.572062	-0.181663	-0.559820
O29	O	1.905396	0.151670	-0.226487
O30	O	2.238729	0.485003	0.106846
O31	O	1.435990	-0.295840	-0.253546
O32	O	1.769324	0.037493	0.079787
O33	O	2.102657	0.370826	0.413120
O34	O	1.265721	-0.295792	-0.423858
O35	O	1.599054	0.037541	-0.090524
O36	O	1.932387	0.370874	0.242809
O37	O	1.430880	-0.382182	-0.718028
O38	O	1.764213	-0.048848	-0.384694
O39	O	2.097546	0.284485	-0.051361
O40	O	1.260507	-0.382218	-0.547691
O41	O	1.593840	-0.048885	-0.214357
O42	O	1.927174	0.284449	0.118976
O43	O	1.565182	-0.295729	-0.723257
O44	O	1.898515	0.037605	-0.389923
O45	O	2.231848	0.370938	-0.056590
O46	O	1.552907	-0.496367	-0.411773
O47	O	1.886240	-0.163034	-0.078440
O48	O	2.219574	0.170300	0.254893
O49	O	1.423896	-0.496331	-0.540816
O50	O	1.757230	-0.162997	-0.207482
O51	O	2.090563	0.170336	0.125851
C52	C	1.224993	-0.339004	-0.485772
C53	C	1.558326	-0.005671	-0.152438
C54	C	1.891660	0.327662	0.180895
C55	C	1.108216	-0.339018	-0.485787
C56	C	1.441549	-0.005684	-0.152454
C57	C	1.774882	0.327649	0.180880
C58	C	1.050662	-0.384088	-0.550157
C59	C	1.383996	-0.050755	-0.216824
C60	C	1.717329	0.282579	0.116510
C61	C	0.940938	-0.384091	-0.550178
C62	C	1.274271	-0.050757	-0.216844
C63	C	1.607605	0.282576	0.116489
C64	C	0.946330	-0.293951	-0.421449
C65	C	1.279663	0.039382	-0.088116
C66	C	1.612997	0.372716	0.245217
C67	C	1.056052	-0.293945	-0.421435
C68	C	1.389386	0.039388	-0.088102
C69	C	1.722719	0.372721	0.245232
C70	C	1.486879	-0.521888	-0.474776
C71	C	1.820212	-0.188555	-0.141442
C72	C	2.153545	0.144779	0.191891
C73	C	1.482234	-0.600123	-0.470098
C74	C	1.815567	-0.266789	-0.136765
C75	C	2.148901	0.066544	0.196569
C76	C	1.547211	-0.636803	-0.535150
C77	C	1.880545	-0.303469	-0.201817
C78	C	2.213878	0.029864	0.131516
C79	C	1.542843	-0.710312	-0.530757
C80	C	1.876176	-0.376979	-0.197424
C81	C	2.209510	-0.043646	0.135910
C82	C	1.473502	-0.747141	-0.461305
C83	C	1.806835	-0.413808	-0.127972
C84	C	2.140169	-0.080474	0.205361
C85	C	1.408518	-0.710456	-0.396250
C86	C	1.741851	-0.377122	-0.062917
C87	C	2.075184	-0.043789	0.270416
C88	C	1.412881	-0.636947	-0.400650
C89	C	1.746215	-0.303614	-0.067316
C90	C	2.079548	0.029719	0.266017
C91	C	1.453245	-0.966996	-0.440941
C92	C	1.786578	-0.633662	-0.107608
C93	C	2.119912	-0.300329	0.225725
C94	C	1.448889	-1.040509	-0.436545
C95	C	1.782222	-0.707176	-0.103211
C96	C	2.115555	-0.373843	0.230122
C97	C	1.583213	-1.040361	-0.571053
C98	C	1.916546	-0.707027	-0.237720
C99	C	2.249880	-0.373694	0.095613
C100	C	1.587575	-0.966851	-0.575442
C101	C	1.920908	-0.633518	-0.242109
C102	C	2.254242	-0.300184	0.091225
C103	C	1.522587	-0.930172	-0.510391
C104	C	1.855920	-0.596839	-0.177058
C105	C	2.189253	-0.263506	0.156276
N106	N	1.469038	-0.822280	-0.456811
N107	N	1.802371	-0.488946	-0.123477
N108	N	2.135704	-0.155613	0.209856
N109	N	1.527047	-0.855035	-0.514892
N110	N	1.860380	-0.521701	-0.181558
N111	N	2.193713	-0.188368	0.151775
C112	C	1.771992	-0.339022	-0.485813
C113	C	2.105326	-0.005689	-0.152480
C114	C	2.438659	0.327644	0.180854
C115	C	1.888769	-0.339026	-0.485822
C116	C	2.222102	-0.005693	-0.152489
C117	C	2.555436	0.327641	0.180845
C118	C	1.498042	-0.338945	-0.759830
C119	C	1.831376	-0.005612	-0.426496
C120	C	2.164709	0.327721	-0.093163
C121	C	1.498078	-0.338917	-0.876608
C122	C	1.831411	-0.005583	-0.543275
C123	C	2.164744	0.327750	-0.209941
C124	C	1.509113	-0.155424	-0.496874
C125	C	1.842446	0.177909	-0.163541
C126	C	2.175780	0.511243	0.169792
C127	C	1.513866	-0.077189	-0.501597
C128	C	1.847199	0.256144	-0.168264
C129	C	2.180532	0.589477	0.165070
C130	C	1.568014	-0.293893	-0.934195
C131	C	1.901348	0.039440	-0.600861
C132	C	2.234681	0.372773	-0.267528
C133	C	1.568034	-0.293863	-1.043921
C134	C	1.901367	0.039470	-0.710587
C135	C	2.234700	0.372804	-0.377254
C136	C	1.428177	-0.383885	-1.038463
C137	C	1.761510	-0.050552	-0.705130
C138	C	2.094844	0.282781	-0.371796
C139	C	1.428153	-0.383912	-0.928739
C140	C	1.761487	-0.050578	-0.595406
C141	C	2.094820	0.282755	-0.262073
C142	C	1.497941	-0.339030	-0.212824
C143	C	1.831274	-0.005696	0.120510
C144	C	2.164608	0.327637	0.453843
C145	C	1.498121	-0.338860	-0.096058
C146	C	1.831455	-0.005527	0.237276
C147	C	2.164788	0.327807	0.570609
H148	H	0.894083	-0.420790	-0.602596
H149	H	1.227416	-0.087457	-0.269262
H150	H	1.560750	0.245876	0.064071
Br151	Br	1.354784	-1.090491	-0.342275
Br152	Br	1.688117	-0.757158	-0.008942
Br153	Br	2.021450	-0.423824	0.324391
H154	H	1.102914	-0.257239	-0.369017
H155	H	1.436247	0.076094	-0.035684
H156	H	1.769581	0.409427	0.297649
Br157	Br	1.641330	-0.586828	-0.629403
Br158	Br	1.974663	-0.253495	-0.296070
Br159	Br	2.307997	0.079838	0.037264
H160	H	1.636121	-1.070233	-0.624015
H161	H	1.969455	-0.736899	-0.290682
H162	H	2.302788	-0.403566	0.042651
H163	H	1.595763	-0.740174	-0.583722
H164	H	1.929096	-0.406841	-0.250388
H165	H	2.262429	-0.073507	0.082945
Br166	Br	1.681685	-0.916874	-0.669700
Br167	Br	2.015019	-0.583541	-0.336367
Br168	Br	2.348352	-0.250208	-0.003034
Br169	Br	1.121452	-0.445256	-0.637493
Br170	Br	1.454786	-0.111922	-0.304160
Br171	Br	1.788119	0.221411	0.029173
Br172	Br	1.662959	-0.232762	-1.122070
Br173	Br	1.996293	0.100571	-0.788737
Br174	Br	2.329626	0.433904	-0.455404
Br175	Br	0.875531	-0.232784	-0.334119
Br176	Br	1.208864	0.100549	-0.000785
Br177	Br	1.542197	0.433882	0.332548
H178	H	1.400331	-0.937138	-0.387972
H179	H	1.733664	-0.603804	-0.054639
H180	H	2.066998	-0.270471	0.278695
Br181	Br	1.314397	-0.760436	-0.302007
Br182	Br	1.647730	-0.427103	0.031327
Br183	Br	1.981064	-0.093770	0.364660
Br184	Br	1.333288	-0.444949	-1.109219
Br185	Br	1.666621	-0.111616	-0.775886
Br186	Br	1.999955	0.221717	-0.442553
Br187	Br	1.324690	-0.587166	-0.312365
Br188	Br	1.658023	-0.253833	0.020968
Br189	Br	1.991357	0.079500	0.354302
Br190	Br	1.662909	-0.232828	-0.863448
Br191	Br	1.996242	0.100505	-0.530115
Br192	Br	2.329576	0.433839	-0.196781
Br193	Br	1.333223	-0.445013	-0.850579
Br194	Br	1.666557	-0.111679	-0.517246
Br195	Br	1.999890	0.221654	-0.183912
