data_functionalizedCrystal
_audit_creation_method	'MofGen! by Chris Wilmer'
_symmetry_space_group_name_H-M	'P1'
_symmetry_Int_Tables_number	1
_symmetry_cell_setting	triclinic
loop_
_symmetry_equiv_pos_as_xyz
  x,y,z
_cell_length_a	15.944551
_cell_length_b	15.944545
_cell_length_c	9.198806
_cell_angle_alpha	90.005272
_cell_angle_beta	89.999188
_cell_angle_gamma	83.497456
loop_
_atom_site_label
_atom_site_type_symbol
_atom_site_fract_x
_atom_site_fract_y
_atom_site_fract_z
O1	O	1.114521	0.108331	0.120748
O2	O	0.869971	0.121687	0.120785
O3	O	0.998927	-0.007267	0.120748
O4	O	0.985565	0.237284	0.120785
O5	O	0.998917	-0.007267	-0.121037
O6	O	0.869961	0.121686	-0.121000
O7	O	1.114511	0.108330	-0.121037
Cu8	Cu	0.992236	0.115008	-0.143096
Cu9	Cu	0.992247	0.115009	0.142843
O10	O	0.985556	0.237284	-0.121000
C11	C	0.838672	0.121132	-0.000103
C12	C	0.745426	0.119470	-0.000090
C13	C	0.998368	-0.038561	-0.000146
C14	C	0.996708	-0.131807	-0.000150
C15	C	0.911814	-0.402440	-0.000107
C16	C	0.952748	-0.351854	0.119100
C17	C	0.990787	-0.467451	-0.000108
C18	C	0.952760	-0.351882	-0.119281
C19	C	0.993692	-0.302537	-0.000131
C20	C	1.031700	-0.418093	0.119198
C21	C	1.031700	-0.418124	-0.119290
C22	C	1.072692	-0.367571	-0.000054
C23	C	0.989112	-0.562453	-0.000093
C24	C	0.995374	-0.207538	-0.000135
C25	C	0.530571	0.035565	-0.000131
C26	C	0.469555	0.074528	0.119088
C27	C	0.574700	0.116463	-0.000107
C28	C	0.469568	0.074547	-0.119293
C29	C	0.409788	0.113552	-0.000131
C30	C	0.514912	0.155447	0.119210
C31	C	0.514932	0.155455	-0.119278
C32	C	0.453933	0.194476	-0.000031
C33	C	0.669703	0.118137	-0.000093
C34	C	0.314787	0.111884	-0.000135
C35	C	1.145810	0.108885	-0.000146
C36	C	1.239056	0.110547	-0.000150
C37	C	0.986114	0.268578	-0.000103
C38	C	0.987774	0.361824	-0.000090
N39	N	0.992234	0.115008	-0.344210
C40	C	0.943678	0.066713	-0.416441
C41	C	0.943689	0.066710	-0.583853
N42	N	0.992255	0.115003	0.343957
H43	H	0.919400	-0.322920	0.219891
H44	H	0.843802	-0.418092	0.000019
H45	H	1.065032	-0.446899	0.220090
H46	H	0.902097	0.025371	-0.354341
H47	H	0.902122	0.025360	-0.645970
N48	N	1.162850	-0.347051	0.000002
H49	H	1.192572	-0.371381	0.090080
H50	H	1.163413	-0.283778	-0.000912
N51	N	1.075841	-0.456476	-0.252797
H52	H	1.045940	-0.432272	-0.342801
H53	H	1.074867	-0.519693	-0.251157
N54	N	0.908565	-0.313578	-0.252774
H55	H	0.847834	-0.325974	-0.252653
H56	H	0.937829	-0.338638	-0.342744
H57	H	1.033830	0.156349	-0.593935
H58	H	0.563906	-0.031573	0.000007
H59	H	0.449479	0.040315	-0.220080
N60	N	0.442919	0.029213	0.252587
H61	H	0.471080	-0.030806	0.252493
H62	H	0.379605	0.028973	0.251996
H63	H	1.033807	0.156357	-0.406310
H64	H	0.534903	0.189638	0.220110
H65	H	0.420773	0.261684	0.000046
H66	H	0.535058	0.189643	-0.220064
