data_functionalizedCrystal
_audit_creation_method	'MofGen! by Chris Wilmer'
_symmetry_space_group_name_H-M	'P1'
_symmetry_Int_Tables_number	1
_symmetry_cell_setting	triclinic
loop_
_symmetry_equiv_pos_as_xyz
  x,y,z
_cell_length_a	17.077404
_cell_length_b	17.077402
_cell_length_c	16.120297
_cell_angle_alpha	92.870792
_cell_angle_beta	92.878347
_cell_angle_gamma	90.023108
loop_
_atom_site_label
_atom_site_type_symbol
_atom_site_fract_x
_atom_site_fract_y
_atom_site_fract_z
Zn1	Zn	-1.177551	0.335028	0.471375
Zn2	Zn	-1.184114	0.459641	0.331961
Zn3	Zn	-1.052937	0.328395	0.331979
Zn4	Zn	-1.046253	0.466254	0.471326
O5	O	-1.115214	0.397330	0.401660
O6	O	-1.288268	0.351567	0.452894
O7	O	-1.172257	0.436687	0.215300
O8	O	-1.069519	0.219429	0.350497
O9	O	-1.293089	0.443120	0.350467
O10	O	-1.161072	0.224303	0.452911
O11	O	-1.075882	0.340261	0.215313
O12	O	-0.942204	0.346674	0.350451
O13	O	-1.058126	0.454391	0.587995
O14	O	-0.937293	0.447958	0.452829
O15	O	-1.154590	0.357980	0.588031
O16	O	-1.165775	0.570364	0.350420
O17	O	-1.064489	0.575223	0.452811
C18	C	-0.911267	0.397314	0.401637
C19	C	-0.824017	0.397328	0.401647
C20	C	-1.115140	0.601276	0.401627
C21	C	-1.115178	0.688526	0.401640
C22	C	-1.104880	0.407663	0.619108
C23	C	-1.100476	0.412066	0.711772
C24	C	-1.319957	0.397346	0.401684
C25	C	-1.407206	0.397352	0.401694
C26	C	-0.780494	0.450138	0.454870
C27	C	-0.698513	0.450141	0.454883
C28	C	-0.660056	0.397335	0.401669
C29	C	-0.703585	0.344519	0.348444
C30	C	-0.785564	0.344514	0.348435
C31	C	-0.532714	0.344536	0.348464
C32	C	-0.450729	0.344542	0.348471
C33	C	-0.445662	0.450162	0.454912
C34	C	-0.527642	0.450157	0.454903
C35	C	-0.571165	0.397341	0.401677
C36	C	-1.115309	0.192588	0.401712
C37	C	-1.115349	0.105339	0.401734
C38	C	-1.167966	0.726963	0.348382
C39	C	-1.168004	0.808945	0.348404
C40	C	-1.115249	0.852488	0.401679
C41	C	-1.062458	0.814045	0.454943
C42	C	-1.062425	0.732065	0.454925
C43	C	-1.062529	0.984917	0.454975
C44	C	-1.062561	1.066902	0.454992
C45	C	-1.168108	1.061796	0.348453
C46	C	-1.168075	0.979816	0.348435
C47	C	-1.115283	0.941379	0.401698
C48	C	-1.125552	0.386980	0.185058
C49	C	-1.130108	0.382356	0.092395
C50	C	-1.092408	0.420088	0.881429
C51	C	-1.138174	0.374336	0.922743
C52	C	-1.133685	0.378800	1.017146
C53	C	-1.096896	0.415626	0.787017
H54	H	-0.811799	0.493141	0.498200
H55	H	-0.558951	0.493160	0.498230
H56	H	-0.419419	0.301534	0.305149
H57	H	-0.663080	0.493145	0.498222
O58	O	-0.403268	0.501390	0.506594
C59	C	-0.322666	0.490084	0.495183
H60	H	-0.312776	0.428173	0.467999
H61	H	-0.301488	0.534466	0.450700
C62	C	-0.288733	0.577455	0.612915
C63	C	-0.276586	0.501412	0.579534
H64	H	-0.260308	0.584446	0.664945
H65	H	-0.343037	0.585074	0.620602
H66	H	-0.271086	0.614431	0.575838
H67	H	-0.294243	0.464438	0.616605
H68	H	-0.222284	0.493787	0.571855
H69	H	-0.568148	0.301521	0.305128
H70	H	-0.820999	0.301506	0.305100
O71	O	-0.666320	0.293256	0.296637
C72	C	-0.690266	0.306349	0.213510
H73	H	-0.749864	0.336430	0.211717
H74	H	-0.645447	0.345332	0.185359
C75	C	-0.623259	0.190409	0.165361
C76	C	-0.696461	0.227350	0.163158
H77	H	-0.627077	0.141680	0.134299
H78	H	-0.607123	0.181590	0.221364
H79	H	-0.585917	0.222903	0.141903
H80	H	-0.733799	0.194860	0.186625
H81	H	-0.712603	0.236162	0.107157
O82	O	-1.219287	0.684789	0.296601
C83	C	-1.265873	0.736298	0.249584
H84	H	-1.266966	0.796341	0.283749
H85	H	-1.240188	0.742059	0.186243
C86	C	-1.348638	0.629927	0.195678
C87	C	-1.349986	0.703671	0.237643
H88	H	-1.400522	0.609800	0.188309
H89	H	-1.317251	0.595223	0.227351
H90	H	-1.327230	0.634737	0.142898
H91	H	-1.371384	0.698858	0.290426
H92	H	-1.381379	0.738373	0.205979
H93	H	-1.210988	0.840236	0.305035
O94	O	-1.041538	0.470734	0.923769
C95	C	-0.964297	0.452613	0.902538
H96	H	-0.961471	0.388792	0.878539
H97	H	-0.946112	0.492362	0.852067
C98	C	-0.911774	0.543723	1.009420
C99	C	-0.908302	0.465335	0.979950
H100	H	-0.877233	0.551574	1.057169
H101	H	-0.963813	0.555934	1.023722
H102	H	-0.896622	0.576838	0.967353
H103	H	-0.923464	0.432222	1.022012
H104	H	-0.856265	0.453119	0.965657
H105	H	-1.211028	0.944363	0.305050
O106	O	-1.219442	1.099258	0.296881
C107	C	-1.208194	1.180954	0.308354
H108	H	-1.179279	1.195172	0.372625
H109	H	-1.168904	1.201992	0.258803
C110	C	-1.323553	1.205106	0.222060
C111	C	-1.288046	1.222569	0.301003
H112	H	-1.372809	1.230778	0.217523
H113	H	-1.331130	1.150067	0.214328
H114	H	-1.290804	1.222639	0.180777
H115	H	-1.320791	1.205028	0.342284
H116	H	-1.280476	1.277608	0.308742
H117	H	-1.019507	0.849505	0.498325
H118	H	-1.019617	1.102353	0.498389
H119	H	-1.019543	0.953625	0.498350
O120	O	-1.011074	0.694848	0.506689
C121	C	-0.964532	0.750858	0.553733
H122	H	-0.963479	0.807688	0.519593
H123	H	-0.990229	0.762542	0.617075
C124	C	-0.881694	0.649690	0.607604
C125	C	-0.880395	0.719487	0.565669
H126	H	-0.829796	0.630339	0.614971
H127	H	-0.913052	0.611954	0.575913
H128	H	-0.903112	0.659436	0.660385
H129	H	-0.858987	0.709738	0.512886
H130	H	-0.849032	0.757221	0.597352
H131	H	-1.180727	0.331814	0.887214
