data_functionalizedCrystal
_audit_creation_method	'MofGen! by Chris Wilmer'
_symmetry_space_group_name_H-M	'P1'
_symmetry_Int_Tables_number	1
_symmetry_cell_setting	triclinic
loop_
_symmetry_equiv_pos_as_xyz
  x,y,z
_cell_length_a	16.109301
_cell_length_b	8.965430
_cell_length_c	16.109301
_cell_angle_alpha	89.997898
_cell_angle_beta	96.538519
_cell_angle_gamma	89.994369
loop_
_atom_site_label
_atom_site_type_symbol
_atom_site_fract_x
_atom_site_fract_y
_atom_site_fract_z
O1	O	1.103123	0.123950	-0.106863
O2	O	1.603123	0.623950	0.393137
O3	O	0.861061	0.123974	-0.120163
O4	O	1.361061	0.623974	0.379837
O5	O	0.988742	0.123946	0.007518
O6	O	1.488742	0.623946	0.507518
O7	O	0.975443	0.123978	-0.234544
O8	O	1.475443	0.623978	0.265456
O9	O	0.988748	-0.124133	0.007514
O10	O	1.488748	0.375867	0.507514
O11	O	0.861067	-0.124105	-0.120166
O12	O	1.361067	0.375895	0.379834
O13	O	1.103129	-0.124129	-0.106867
O14	O	1.603129	0.375871	0.393133
Cu15	Cu	0.982099	-0.146768	-0.113517
Cu16	Cu	1.482099	0.353232	0.386483
Cu17	Cu	0.982092	0.146614	-0.113512
Cu18	Cu	1.482092	0.646614	0.386488
O19	O	0.975449	-0.124101	-0.234548
O20	O	1.475449	0.375899	0.265452
C21	C	0.830090	-0.000062	-0.119626
C22	C	1.330090	0.499938	0.380374
C23	C	0.737794	-0.000054	-0.118011
C24	C	1.237794	0.499946	0.381989
N25	N	0.982110	-0.353118	-0.113520
N26	N	1.482110	0.146882	0.386480
C27	C	0.515522	-0.000061	-0.190018
C28	C	1.015522	0.499939	0.309982
C29	C	0.428801	-0.000071	-0.188494
C30	C	0.928801	0.499929	0.311506
C31	C	0.448676	-0.000085	-0.037006
C32	C	0.948676	0.499915	0.462994
C33	C	0.535394	-0.000086	-0.038530
C34	C	1.035394	0.499914	0.461470
C35	C	0.568815	-0.000067	-0.115039
C36	C	1.068815	0.499933	0.384961
C37	C	0.395376	-0.000075	-0.111990
C38	C	0.895376	0.499925	0.388010
C39	C	0.301350	-0.000086	-0.110337
C40	C	0.801350	0.499914	0.389663
C41	C	0.662847	-0.000059	-0.116693
C42	C	1.162847	0.499941	0.383307
C43	C	1.041177	-0.450396	-0.054476
C44	C	1.541177	0.049604	0.445524
C45	C	0.966052	-0.549796	-0.038348
C46	C	1.466052	-0.049796	0.461652
C47	C	1.057205	-0.549846	-0.129594
C48	C	1.557205	-0.049846	0.370406
C49	C	0.906948	-0.450328	-0.097355
C50	C	1.406948	0.049672	0.402645
C51	C	0.998150	-0.450369	-0.188634
C52	C	1.498150	0.049631	0.311366
C53	C	0.922971	-0.549724	-0.172538
C54	C	1.422971	-0.049724	0.327462
C55	C	1.134101	-0.000089	-0.107404
C56	C	1.634101	0.499911	0.392596
C57	C	1.226397	-0.000088	-0.109019
C58	C	1.726397	0.499912	0.390981
C59	C	0.988206	-0.000094	0.038491
C60	C	1.488206	0.499906	0.538491
C61	C	0.986591	-0.000096	0.130786
C62	C	1.486591	0.499904	0.630786
N63	N	0.982087	0.352963	-0.113503
N64	N	1.482087	0.852963	0.386497
C65	C	0.975984	-0.000058	-0.265521
C66	C	1.475984	0.499942	0.234479
C67	C	0.977600	-0.000046	-0.357816
C68	C	1.477600	0.499954	0.142184
C69	C	1.058599	-0.000080	0.353059
C70	C	1.558599	0.499920	0.853059
C71	C	1.057075	-0.000067	0.439779
C72	C	1.557075	0.499933	0.939779
C73	C	0.905586	-0.000058	0.419905
C74	C	1.405586	0.499942	0.919905
C75	C	0.907111	-0.000060	0.333186
C76	C	1.407111	0.499940	0.833186
C77	C	0.983620	-0.000078	0.299766
C78	C	1.483620	0.499922	0.799766
C79	C	0.980571	-0.000064	0.473205
C80	C	1.480571	0.499936	0.973205
C81	C	0.978918	-0.000050	0.567231
C82	C	1.478918	0.499950	1.067231
C83	C	0.985273	-0.000089	0.205734
C84	C	1.485273	0.499911	0.705734
H85	H	0.542730	-0.000057	-0.252317
H86	H	1.042730	0.499943	0.247683
H87	H	0.843295	-0.000046	0.447127
H88	H	1.343295	0.499954	0.947127
N89	N	0.948055	-0.607668	0.045796
N90	N	1.448055	-0.107668	0.545796
H91	H	0.940436	-0.520870	0.084171
H92	H	1.440436	-0.020870	0.584171
H93	H	0.996331	-0.671294	0.070701
H94	H	1.496331	-0.171294	0.570701
H95	H	0.846050	-0.000054	0.289792
H96	H	1.346050	0.499946	0.789792
H97	H	0.385413	-0.000070	-0.249550
H98	H	0.885413	0.499930	0.250450
H99	H	1.011756	-0.406663	-0.252143
H100	H	1.511756	0.093337	0.247857
N101	N	1.141340	-0.607741	-0.147615
N102	N	1.641340	-0.107741	0.352385
H103	H	1.153924	-0.570020	-0.203922
H104	H	1.653924	-0.070020	0.296078
H105	H	1.140491	-0.720380	-0.147968
H106	H	1.640491	-0.220380	0.352032
N107	N	0.592887	-0.000082	0.042341
N108	N	1.092887	0.499918	0.542341
H109	H	0.629312	-0.092048	0.045081
H110	H	1.129312	0.407952	0.545081
H111	H	0.558503	-0.000026	0.090996
H112	H	1.058503	0.499974	0.590996
N113	N	1.141115	-0.000097	0.317010
N114	N	1.641115	0.499903	0.817010
H115	H	1.188382	-0.000094	0.363933
H116	H	1.688382	0.499906	0.863933
H117	H	1.145043	0.091866	0.281459
H118	H	1.645043	0.591866	0.781459
N119	N	1.137945	-0.000068	0.497261
N120	N	1.637945	0.499932	0.997261
H121	H	1.186640	-0.000081	0.462927
H122	H	1.686640	0.499919	0.962927
H123	H	1.140613	-0.092032	0.533678
H124	H	1.640613	0.407968	1.033678
H125	H	0.421454	-0.000110	0.025285
H126	H	0.921454	0.499890	0.525285
H127	H	0.843416	-0.406798	-0.083680
H128	H	1.343416	0.093202	0.416320
N129	N	1.107284	-0.392620	0.011690
N130	N	1.607284	0.107380	0.511690
H131	H	1.095046	-0.428790	0.068415
H132	H	1.595046	0.071210	0.568415
H133	H	1.107152	-0.279981	0.010789
H134	H	1.607152	0.220019	0.510789
N135	N	0.856728	-0.607141	-0.238675
N136	N	1.356728	-0.107141	0.261325
H137	H	0.800052	-0.570742	-0.226417
H138	H	1.300052	-0.070742	0.273583
H139	H	0.857477	-0.719784	-0.238603
H140	H	1.357477	-0.219784	0.261397
