data_functionalizedCrystal
_audit_creation_method	'MofGen! by Chris Wilmer'
_symmetry_space_group_name_H-M	'P1'
_symmetry_Int_Tables_number	1
_symmetry_cell_setting	triclinic
loop_
_symmetry_equiv_pos_as_xyz
  x,y,z
_cell_length_a	14.519731
_cell_length_b	14.519709
_cell_length_c	16.053802
_cell_angle_alpha	92.569364
_cell_angle_beta	87.413705
_cell_angle_gamma	83.684499
loop_
_atom_site_label
_atom_site_type_symbol
_atom_site_fract_x
_atom_site_fract_y
_atom_site_fract_z
O1	O	1.227740	0.117108	-0.069433
O2	O	1.477740	0.367108	0.180567
O3	O	1.727740	0.617108	0.430567
O4	O	1.977740	0.867108	0.680567
O5	O	0.959266	0.131324	-0.069434
O6	O	1.209266	0.381324	0.180566
O7	O	1.459266	0.631324	0.430566
O8	O	1.709266	0.881324	0.680566
O9	O	1.100620	-0.010021	-0.069426
O10	O	1.350620	0.239979	0.180574
O11	O	1.600620	0.489979	0.430574
O12	O	1.850620	0.739979	0.680574
O13	O	1.086385	0.258454	-0.069441
O14	O	1.336385	0.508454	0.180559
O15	O	1.586385	0.758454	0.430559
O16	O	1.836385	1.008454	0.680559
O17	O	1.092840	-0.002273	0.069432
O18	O	1.342840	0.247727	0.319432
O19	O	1.592840	0.497727	0.569432
O20	O	1.842840	0.747727	0.819432
O21	O	0.951485	0.139072	0.069424
O22	O	1.201485	0.389072	0.319424
O23	O	1.451485	0.639072	0.569424
O24	O	1.701485	0.889072	0.819424
O25	O	1.219959	0.124856	0.069426
O26	O	1.469959	0.374856	0.319426
O27	O	1.719959	0.624856	0.569426
O28	O	1.969959	0.874856	0.819426
Zn29	Zn	1.084487	0.133194	0.091472
Zn30	Zn	1.334487	0.383194	0.341472
Zn31	Zn	1.584487	0.633194	0.591472
Zn32	Zn	1.834487	0.883194	0.841472
Zn33	Zn	1.094738	0.122986	-0.091480
Zn34	Zn	1.344738	0.372986	0.158520
Zn35	Zn	1.594738	0.622986	0.408520
Zn36	Zn	1.844738	0.872986	0.658520
O37	O	1.078604	0.266202	0.069417
O38	O	1.328604	0.516202	0.319417
O39	O	1.578604	0.766202	0.569417
O40	O	1.828604	1.016202	0.819417
C41	C	0.921016	0.134532	-0.000005
C42	C	1.171016	0.384532	0.249995
C43	C	1.421016	0.634532	0.499995
C44	C	1.671016	0.884532	0.749995
C45	C	0.818636	0.132536	-0.000006
C46	C	1.068636	0.382536	0.249994
C47	C	1.318636	0.632536	0.499994
C48	C	1.568636	0.882536	0.749994
C49	C	1.096067	-0.040507	0.000003
C50	C	1.346067	0.209493	0.250003
C51	C	1.596067	0.459493	0.500003
C52	C	1.846067	0.709493	0.750003
C53	C	1.094078	-0.142888	0.000004
C54	C	1.344078	0.107112	0.250004
C55	C	1.594078	0.357112	0.500004
C56	C	1.844078	0.607112	0.750004
C57	C	0.735492	0.130914	-0.000009
C58	C	0.985492	0.380914	0.249991
C59	C	1.235492	0.630914	0.499991
C60	C	1.485492	0.880914	0.749991
C61	C	0.631183	0.128887	-0.000009
C62	C	0.881183	0.378887	0.249991
C63	C	1.131183	0.628887	0.499991
C64	C	1.381183	0.878887	0.749991
C65	C	0.548044	0.127279	-0.000009
C66	C	0.798044	0.377279	0.249991
C67	C	1.048044	0.627279	0.499991
C68	C	1.298044	0.877279	0.749991
C69	C	0.443729	0.125253	-0.000011
C70	C	0.693729	0.375253	0.249989
C71	C	0.943729	0.625253	0.499989
C72	C	1.193729	0.875253	0.749989
C73	C	1.086760	-0.517786	-0.000018
C74	C	1.336760	-0.267786	0.249982
C75	C	1.586760	-0.017786	0.499982
C76	C	1.836760	0.232214	0.749982
C77	C	1.088793	-0.413477	-0.000012
C78	C	1.338793	-0.163477	0.249988
C79	C	1.588793	0.086523	0.499988
C80	C	1.838793	0.336523	0.749988
C81	C	1.090419	-0.330340	-0.000006
C82	C	1.340419	-0.080340	0.249994
C83	C	1.590419	0.169660	0.499994
C84	C	1.840419	0.419660	0.749994
C85	C	1.092452	-0.226025	-0.000002
C86	C	1.342452	0.023975	0.249998
C87	C	1.592452	0.273975	0.499998
C88	C	1.842452	0.523975	0.749998
C89	C	1.258209	0.121648	-0.000005
C90	C	1.508209	0.371648	0.249995
C91	C	1.758209	0.621648	0.499995
C92	C	2.008209	0.871648	0.749995
C93	C	1.360590	0.123644	-0.000010
C94	C	1.610590	0.373644	0.249990
C95	C	1.860590	0.623644	0.499990
C96	C	2.110590	0.873644	0.749990
C97	C	1.083158	0.296688	-0.000014
C98	C	1.333158	0.546688	0.249986
C99	C	1.583158	0.796688	0.499986
C100	C	1.833158	1.046688	0.749986
C101	C	1.085147	0.399069	-0.000020
C102	C	1.335147	0.649069	0.249980
C103	C	1.585147	0.899069	0.499980
C104	C	1.835147	1.149069	0.749980
N105	N	1.077497	0.140161	0.216332
N106	N	1.327497	0.390161	0.466332
N107	N	1.577497	0.640161	0.716332
N108	N	1.827497	0.890161	0.966332
N109	N	1.101735	0.116013	-0.216340
N110	N	1.351735	0.366013	0.033660
N111	N	1.601735	0.616013	0.283660
N112	N	1.851735	0.866013	0.533660
C113	C	1.137666	0.080040	0.260029
C114	C	1.387666	0.330040	0.510029
C115	C	1.637666	0.580040	0.760029
C116	C	1.887666	0.830040	1.010029
C117	C	1.132785	0.084921	0.347436
C118	C	1.382785	0.334921	0.597436
C119	C	1.632785	0.584921	0.847436
C120	C	1.882785	0.834921	1.097436
C121	C	1.067740	0.149929	0.391143
C122	C	1.317740	0.399929	0.641143
C123	C	1.567740	0.649929	0.891143
C124	C	1.817740	0.899929	1.141143
C125	C	1.007565	0.210053	0.347439
C126	C	1.257565	0.460053	0.597439
C127	C	1.507565	0.710053	0.847439
C128	C	1.757565	0.960053	1.097439
C129	C	1.012442	0.205166	0.260034
C130	C	1.262442	0.455166	0.510034
C131	C	1.512442	0.705166	0.760034
C132	C	1.762442	0.955166	1.010034
C133	C	1.046437	0.171250	0.652551
C134	C	1.296437	0.421250	0.902551
C135	C	1.546437	0.671250	1.152551
C136	C	1.796437	0.921250	1.402551
C137	C	1.041566	0.176134	0.739962
C138	C	1.291566	0.426134	0.989962
C139	C	1.541566	0.676134	1.239962
C140	C	1.791566	0.926134	1.489962
C141	C	1.166786	0.051000	0.739952
C142	C	1.416786	0.301000	0.989952
C143	C	1.666786	0.551000	1.239952
C144	C	1.916786	0.801000	1.489952
C145	C	1.171661	0.046123	0.652546
C146	C	1.421661	0.296123	0.902546
C147	C	1.671661	0.546123	1.152546
C148	C	1.921661	0.796123	1.402546
C149	C	1.111483	0.106243	0.608850
C150	C	1.361483	0.356243	0.858850
C151	C	1.611483	0.606243	1.108850
C152	C	1.861483	0.856243	1.358850
N153	N	1.062751	0.154923	0.480486
N154	N	1.312751	0.404923	0.730486
N155	N	1.562751	0.654923	0.980486
N156	N	1.812751	0.904923	1.230486
N157	N	1.116467	0.101245	0.519508
N158	N	1.366467	0.351245	0.769508
N159	N	1.616467	0.601245	1.019508
N160	N	1.866467	0.851245	1.269508
H161	H	1.190637	0.027107	0.224448
H162	H	1.440637	0.277107	0.474448
H163	H	1.690637	0.527107	0.724448
H164	H	1.940637	0.777107	0.974448
O165	O	0.947532	0.270011	0.212911
O166	O	1.197532	0.520011	0.462911
O167	O	1.447532	0.770011	0.712911
O168	O	1.697532	1.020011	0.962911
H169	H	0.904866	0.228850	0.173119
H170	H	1.154866	0.478850	0.423119
H171	H	1.404866	0.728850	0.673119
H172	H	1.654866	0.978850	0.923119
O173	O	1.197701	0.020087	0.394559
O174	O	1.447701	0.270087	0.644559
O175	O	1.697701	0.520087	0.894559
O176	O	1.947701	0.770087	1.144559
H177	H	1.186793	-0.052776	0.377791
H178	H	1.436793	0.197224	0.627791
H179	H	1.686793	0.447224	0.877791
H180	H	1.936793	0.697224	1.127791
O181	O	1.241809	-0.024001	0.605403
O182	O	1.491809	0.225999	0.855403
O183	O	1.741809	0.475999	1.105403
O184	O	1.991809	0.725999	1.355403
H185	H	1.282823	-0.064995	0.650474
H186	H	1.532823	0.185005	0.900474
H187	H	1.782823	0.435005	1.150474
H188	H	2.032823	0.685005	1.400474
O189	O	1.231684	-0.013850	0.787079
O190	O	1.481684	0.236150	1.037079
O191	O	1.731684	0.486150	1.287079
O192	O	1.981684	0.736150	1.537079
H193	H	1.217363	0.000460	0.855200
H194	H	1.467363	0.250460	1.105200
H195	H	1.717363	0.500460	1.355200
H196	H	1.967363	0.750460	1.605200
O197	O	0.971396	0.246242	0.787109
O198	O	1.221396	0.496242	1.037109
O199	O	1.471396	0.746242	1.287109
O200	O	1.721396	0.996242	1.537109
H201	H	0.930360	0.287219	0.742042
H202	H	1.180360	0.537219	0.992042
H203	H	1.430360	0.787219	1.242042
H204	H	1.680360	1.037219	1.492042
H205	H	0.997439	0.220204	0.616981
H206	H	1.247439	0.470204	0.866981
H207	H	1.497439	0.720204	1.116981
H208	H	1.747439	0.970204	1.366981
O209	O	0.937409	0.280176	0.394575
O210	O	1.187409	0.530176	0.644575
O211	O	1.437409	0.780176	0.894575
O212	O	1.687409	1.030176	1.144575
H213	H	0.944133	0.273483	0.462695
H214	H	1.194133	0.523483	0.712695
H215	H	1.444133	0.773483	0.962695
H216	H	1.694133	1.023483	1.212695
