data_functionalizedCrystal
_audit_creation_method	'MofGen! by Chris Wilmer'
_symmetry_space_group_name_H-M	'P1'
_symmetry_Int_Tables_number	1
_symmetry_cell_setting	triclinic
loop_
_symmetry_equiv_pos_as_xyz
  x,y,z
_cell_length_a	18.215407
_cell_length_b	13.897448
_cell_length_c	18.215399
_cell_angle_alpha	90.023741
_cell_angle_beta	89.983101
_cell_angle_gamma	89.982972
loop_
_atom_site_label
_atom_site_type_symbol
_atom_site_fract_x
_atom_site_fract_y
_atom_site_fract_z
Zn1	Zn	1.125099	0.384090	-0.416080
Zn2	Zn	1.125019	0.545400	-0.293023
Zn3	Zn	1.002032	0.384113	-0.293033
Zn4	Zn	1.002009	0.545338	-0.416054
O5	O	1.063540	0.464735	-0.354547
O6	O	1.228073	0.405505	-0.399762
O7	O	1.108680	0.524041	-0.190040
O8	O	1.018400	0.249129	-0.309371
O9	O	1.228014	0.524018	-0.309353
O10	O	1.108817	0.249112	-0.399773
O11	O	1.018322	0.405544	-0.190048
O12	O	0.899044	0.405484	-0.309346
O13	O	1.018361	0.523912	-0.519041
O14	O	0.899028	0.523935	-0.399728
O15	O	1.108795	0.405444	-0.519061
O16	O	1.108658	0.680373	-0.309327
O17	O	1.018283	0.680328	-0.399718
C18	C	0.872333	0.464706	-0.354536
C19	C	0.790535	0.464716	-0.354549
C20	C	1.063480	0.715350	-0.354535
C21	C	1.063521	0.822564	-0.354554
C22	C	0.525488	0.526514	-0.401545
C23	C	0.602346	0.526506	-0.401541
C24	C	0.602333	0.402978	-0.307563
C25	C	0.525476	0.402992	-0.307563
C26	C	0.487055	0.464758	-0.354558
C27	C	0.640771	0.464736	-0.354554
C28	C	0.724105	0.464727	-0.354550
C29	C	0.403716	0.464769	-0.354562
C30	C	1.063594	1.018859	-0.354607
C31	C	1.063551	0.909626	-0.354580
C32	C	1.255493	0.464766	-0.354559
C33	C	1.337291	0.464779	-0.354564
C34	C	1.063614	1.213142	-0.354585
C35	C	1.063629	1.105928	-0.354623
C36	C	1.063585	0.464669	-0.546500
C37	C	1.063604	0.464640	-0.628299
C38	C	1.110709	0.402897	-0.816504
C39	C	1.110718	0.402868	-0.893363
C40	C	1.016550	0.526235	-0.893332
C41	C	1.016538	0.526258	-0.816475
C42	C	1.063622	0.464590	-0.778063
C43	C	1.063643	0.464539	-0.931779
C44	C	1.063652	0.464509	-1.015113
C45	C	1.063612	0.464618	-0.694724
C46	C	1.063537	0.464732	-0.163341
C47	C	1.063661	0.464489	-0.081543
H48	H	0.494208	0.576809	-0.439811
H49	H	1.149060	0.352630	-0.924659
H50	H	0.633635	0.576794	-0.439802
H51	H	0.978188	0.576495	-0.785175
Br52	Br	0.654480	0.319153	-0.243789
Br53	Br	0.473312	0.319181	-0.243786
Br54	Br	0.952656	0.609927	-0.945467
Br55	Br	1.174607	0.319203	-0.764376
