data_functionalizedCrystal
_audit_creation_method	'MofGen! by Chris Wilmer'
_symmetry_space_group_name_H-M	'P1'
_symmetry_Int_Tables_number	1
_symmetry_cell_setting	triclinic
loop_
_symmetry_equiv_pos_as_xyz
  x,y,z
_cell_length_a	8.559649
_cell_length_b	18.366186
_cell_length_c	19.288865
_cell_angle_alpha	90.011479
_cell_angle_beta	103.542544
_cell_angle_gamma	89.991101
loop_
_atom_site_label
_atom_site_type_symbol
_atom_site_fract_x
_atom_site_fract_y
_atom_site_fract_z
O1	O	2.120308	-0.060535	0.023572
O2	O	2.620308	0.439465	0.523572
O3	O	1.654846	-0.060543	-0.012313
O4	O	2.154846	0.439457	0.487687
O5	O	1.901026	-0.060524	0.107459
O6	O	2.401026	0.439476	0.607459
O7	O	1.874127	-0.060554	-0.096200
O8	O	2.374127	0.439446	0.403800
O9	O	1.900985	0.060575	0.107462
O10	O	2.400985	0.560575	0.607462
O11	O	1.654804	0.060557	-0.012310
O12	O	2.154804	0.560557	0.487690
O13	O	2.120266	0.060564	0.023575
O14	O	2.620266	0.560564	0.523575
Zn15	Zn	1.887529	0.079788	0.005633
Zn16	Zn	2.387529	0.579788	0.505633
Zn17	Zn	1.887583	-0.079766	0.005629
Zn18	Zn	2.387583	0.420234	0.505629
O19	O	1.874085	0.060546	-0.096197
O20	O	2.374085	0.560546	0.403803
C21	C	1.595275	0.000006	-0.015031
C22	C	2.095275	0.500006	0.484969
C23	C	1.417837	0.000004	-0.023126
C24	C	1.917837	0.500004	0.476874
N25	N	1.887503	0.188679	0.005637
N26	N	2.387503	0.688679	0.505637
N27	N	1.887622	-0.188657	0.005631
N28	N	2.387622	0.311343	0.505631
C29	C	2.179837	0.000014	0.026293
C30	C	2.679837	0.500014	0.526293
C31	C	2.357275	0.000011	0.034388
C32	C	2.857275	0.500011	0.534388
C33	C	1.900140	0.000028	0.133292
C34	C	2.400140	0.500028	0.633292
C35	C	1.897542	0.000034	0.210261
C36	C	2.397542	0.500034	0.710261
C37	C	1.996547	0.226787	0.058651
C38	C	2.496547	0.726787	0.558651
C39	C	1.996557	0.303015	0.058654
C40	C	2.496557	0.803015	0.558654
C41	C	1.887538	0.341132	0.005633
C42	C	2.387538	0.841132	0.505633
C43	C	1.778473	0.303014	-0.047385
C44	C	2.278473	0.803014	0.452615
C45	C	1.778456	0.226787	-0.047383
C46	C	2.278456	0.726787	0.452617
C47	C	1.866140	0.461882	-0.058767
C48	C	2.366140	0.961882	0.441233
C49	C	1.866169	0.538107	-0.058769
C50	C	2.366169	1.038107	0.441231
C51	C	1.887584	0.576239	0.005627
C52	C	2.387584	1.076239	0.505627
C53	C	1.909003	0.538136	0.070030
C54	C	2.409003	1.038136	0.570030
C55	C	1.908985	0.461910	0.070032
C56	C	2.408985	0.961910	0.570032
C57	C	1.887545	0.423786	0.005625
C58	C	2.387545	0.923786	0.505625
C59	C	1.996645	0.697003	0.058649
C60	C	2.496645	1.197003	0.558649
C61	C	1.996644	0.773232	0.058653
C62	C	2.496644	1.273232	0.558653
C63	C	1.778568	0.773229	-0.047393
C64	C	2.278568	1.273229	0.452607
C65	C	1.778561	0.697001	-0.047391
C66	C	2.278561	1.197001	0.452609
C67	C	1.887608	0.658893	0.005629
C68	C	2.387608	1.158893	0.505629
C69	C	1.874972	-0.000008	-0.122030
C70	C	2.374972	0.499992	0.377970
C71	C	1.877570	-0.000019	-0.198998
C72	C	2.377570	0.499981	0.301002
C73	C	2.041990	0.000040	0.262466
C74	C	2.541990	0.500040	0.762466
C75	C	2.039549	0.000028	0.334786
C76	C	2.539549	0.500028	0.834786
C77	C	1.892652	0.000025	0.354897
C78	C	2.392652	0.500025	0.854897
C79	C	1.748185	0.000015	0.302681
C80	C	2.248185	0.500015	0.802681
C81	C	1.750630	0.000020	0.230363
C82	C	2.250630	0.500020	0.730363
C83	C	1.777159	0.042442	0.457183
C84	C	2.277159	0.542442	0.957183
C85	C	1.774720	0.042442	0.529500
C86	C	2.274720	0.542442	1.029500
C87	C	1.885104	0.000009	0.577950
C88	C	2.385104	0.500009	1.077950
C89	C	1.997955	-0.042415	0.554077
C90	C	2.497955	0.457585	1.054077
C91	C	2.000400	-0.042411	0.481759
C92	C	2.500400	0.457589	0.981759
C93	C	1.889984	0.000020	0.433313
C94	C	2.389984	0.500020	0.933313
C95	C	2.026915	0.000001	0.708575
C96	C	2.526915	0.500001	1.208575
C97	C	2.024468	-0.000015	0.780895
C98	C	2.524468	0.499985	1.280895
C99	C	1.733101	-0.000020	0.748789
C100	C	2.233101	0.499980	1.248789
C101	C	1.735552	-0.000011	0.676470
C102	C	2.235552	0.499989	1.176470
C103	C	1.882463	0.000003	0.656368
C104	C	2.382463	0.500003	1.156368
H105	H	1.441171	0.000016	0.089821
H106	H	1.941171	0.500016	0.589821
Br107	Br	1.630571	0.645276	-0.119343
Br108	Br	2.130571	1.145276	0.380657
Br109	Br	1.278003	-0.000020	-0.115526
Br110	Br	1.778003	0.499980	0.384474
H111	H	1.689706	0.334052	-0.090555
H112	H	2.189706	0.834052	0.409445
H113	H	2.085436	0.804260	0.101826
H114	H	2.585436	1.304260	0.601826
H115	H	1.926422	0.430890	0.122470
H116	H	2.426422	0.930890	0.622470
H117	H	1.633000	0.000015	0.187855
H118	H	2.133000	0.500015	0.687855
H119	H	1.682824	0.076982	0.548931
H120	H	2.182824	0.576982	1.048931
Br121	Br	2.144529	0.175068	0.130606
Br122	Br	2.644529	0.675068	0.630606
H123	H	2.085357	0.334049	0.101826
H124	H	2.585357	0.834049	0.601826
H125	H	2.142100	-0.000014	0.823402
H126	H	2.642100	0.499986	1.323402
Br127	Br	1.938087	0.589876	0.157432
Br128	Br	2.438087	1.089876	0.657432
Br129	Br	2.144630	0.645282	0.130606
Br130	Br	2.644630	1.145282	0.630606
Br131	Br	1.630595	0.824952	-0.119344
Br132	Br	2.130595	1.324952	0.380656
H133	H	1.848738	0.569125	-0.111209
H134	H	2.348738	1.069125	0.388791
H135	H	1.848674	0.430842	-0.111211
H136	H	2.348674	0.930842	0.388789
Br137	Br	1.630454	0.175064	-0.119335
Br138	Br	2.130454	0.675064	0.380665
H139	H	1.617926	-0.000012	0.633962
H140	H	2.117926	0.499988	1.133962
Br141	Br	2.241368	0.000039	0.235187
Br142	Br	2.741368	0.500039	0.735187
Br143	Br	2.147775	-0.100007	0.619822
Br144	Br	2.647775	0.399993	1.119822
H145	H	2.157179	0.000030	0.377299
H146	H	2.657179	0.500030	0.877299
Br147	Br	1.627338	0.100036	0.391435
Br148	Br	2.127338	0.600036	0.891435
H149	H	2.092284	-0.076955	0.462324
H150	H	2.592284	0.423045	0.962324
Br151	Br	1.533736	-0.000031	0.776074
Br152	Br	2.033736	0.499969	1.276074
Br153	Br	2.226290	0.000028	0.681288
Br154	Br	2.726290	0.500028	1.181288
Br155	Br	1.548823	0.000002	0.329973
Br156	Br	2.048823	0.500002	0.829973
