data_functionalizedCrystal
_audit_creation_method	'MofGen! by Chris Wilmer'
_symmetry_space_group_name_H-M	'P1'
_symmetry_Int_Tables_number	1
_symmetry_cell_setting	triclinic
loop_
_symmetry_equiv_pos_as_xyz
  x,y,z
_cell_length_a	14.971486
_cell_length_b	12.376457
_cell_length_c	14.971486
_cell_angle_alpha	78.710113
_cell_angle_beta	83.614129
_cell_angle_gamma	101.301993
loop_
_atom_site_label
_atom_site_type_symbol
_atom_site_fract_x
_atom_site_fract_y
_atom_site_fract_z
O1	O	1.204056	0.093874	0.099461
O2	O	0.943661	0.093904	0.113414
O3	O	1.080836	0.093880	-0.023761
O4	O	1.066881	0.093898	0.236636
O5	O	1.046555	-0.094126	0.010486
O6	O	0.909380	-0.094102	0.147661
O7	O	1.169774	-0.094133	0.133708
Zn8	Zn	1.034134	-0.123967	0.146122
Zn9	Zn	1.079302	0.123739	0.101000
O10	O	1.032599	-0.094108	0.270883
C11	C	0.893197	-0.000095	0.129912
C12	C	0.793902	-0.000083	0.128040
N13	N	1.003315	-0.293020	0.176916
C14	C	0.736677	-0.000079	0.208628
C15	C	0.643374	-0.000096	0.206868
C16	C	0.607300	-0.000109	0.124517
C17	C	0.664531	-0.000116	0.043923
C18	C	0.757830	-0.000107	0.045685
C19	C	0.470066	-0.000132	0.040255
C20	C	0.376761	-0.000139	0.038492
C21	C	0.355610	-0.000121	0.201437
C22	C	0.448909	-0.000112	0.203200
C23	C	0.506134	-0.000117	0.122605
C24	C	1.181669	-0.648037	-0.001302
C25	C	1.203234	-0.529701	-0.022854
C26	C	1.153256	-0.470525	0.027086
C27	C	1.081709	-0.529696	0.098584
C28	C	1.060146	-0.648044	0.120143
C29	C	1.031734	-0.470532	0.148531
C30	C	0.960187	-0.529704	0.220028
C31	C	0.938627	-0.648040	0.241584
C32	C	0.988606	-0.707216	0.191644
C33	C	1.053296	-0.352184	0.126971
C34	C	0.931774	-0.352192	0.248416
C35	C	0.910209	-0.470528	0.269969
C36	C	1.220240	-0.000131	0.117209
C37	C	1.319536	-0.000135	0.119080
C38	C	1.063072	-0.000123	-0.039963
C39	C	1.061201	-0.000121	-0.139260
N40	N	1.110128	0.292792	0.070199
C41	C	1.141788	-0.000132	-0.196483
C42	C	1.140027	-0.000120	-0.289785
C43	C	1.057677	-0.000106	-0.325860
C44	C	0.977084	-0.000092	-0.268630
C45	C	0.978847	-0.000096	-0.175331
C46	C	0.973414	-0.000088	-0.463093
C47	C	0.971649	-0.000087	-0.556397
C48	C	1.134594	-0.000112	-0.577546
C49	C	1.136357	-0.000116	-0.484248
C50	C	1.055763	-0.000104	-0.427024
C51	C	1.050365	-0.000103	0.287084
C52	C	1.052237	-0.000097	0.386379
H53	H	0.766041	-0.000068	0.275688
O54	O	0.299964	0.000032	0.279644
C55	C	0.263123	0.097411	0.265767
H56	H	0.264238	0.129857	0.188853
H57	H	0.189049	0.075511	0.303005
H58	H	0.306287	0.165606	0.294222
H59	H	1.222359	-0.696225	-0.041952
O60	O	1.216437	-0.000084	-0.449360
C61	C	1.287188	-0.000121	-0.519866
H62	H	1.268545	0.035480	-0.589756
H63	H	1.354630	0.054451	-0.510241
H64	H	1.295602	-0.090321	-0.516615
H65	H	0.913225	-0.000087	-0.128740
H66	H	0.635149	-0.000143	-0.023126
O67	O	0.840654	-0.528139	0.339323
C68	C	0.772948	-0.596581	0.303788
H69	H	0.805275	-0.614302	0.237082
H70	H	0.743677	-0.679802	0.356253
H71	H	0.715144	-0.550986	0.289297
O72	O	1.174033	-0.355574	0.006157
C73	C	1.096325	-0.316050	-0.019394
H74	H	1.031221	-0.384253	0.011268
H75	H	1.092479	-0.236878	0.007647
H76	H	1.102438	-0.295058	-0.097755
O77	O	1.272727	-0.472400	-0.092358
C78	C	1.312230	-0.550002	-0.131801
H79	H	1.260188	-0.634363	-0.117506
H80	H	1.332034	-0.515814	-0.209439
H81	H	1.376409	-0.562578	-0.100354
H82	H	0.880377	-0.696217	0.299808
O83	O	1.218382	-0.000188	-0.345233
C84	C	1.291448	-0.000183	-0.293389
H85	H	1.262326	-0.035774	-0.217301
H86	H	1.337960	-0.054779	-0.317802
H87	H	1.333140	0.090006	-0.303143
H88	H	0.971045	-0.803575	0.209189
O89	O	0.525658	0.000068	-0.038095
C90	C	0.527018	0.097422	-0.105829
H91	H	0.507575	0.165473	-0.071036
H92	H	0.599130	0.130115	-0.147576
H93	H	0.475450	0.075402	-0.153646
H94	H	0.596786	-0.000092	0.272491
O95	O	0.891590	-0.000005	-0.591306
C96	C	0.820831	-0.000008	-0.520793
H97	H	0.852462	0.035570	-0.463864
H98	H	0.773310	0.054601	-0.550299
H99	H	0.779505	-0.090195	-0.491197
O100	O	0.813304	-0.000055	-0.032692
C101	C	0.761455	-0.000094	-0.105751
H102	H	0.698332	0.035496	-0.089607
H103	H	0.805757	0.054488	-0.172165
H104	H	0.738350	-0.090292	-0.114559
O105	O	1.122731	-0.294538	0.057519
C106	C	1.131005	-0.177398	0.049148
H107	H	1.100676	-0.161200	0.117281
H108	H	1.206912	-0.132379	0.031008
H109	H	1.092119	-0.143892	-0.007610
O110	O	0.484043	-0.000231	0.283159
C111	C	0.519626	-0.097601	0.306806
H112	H	0.536857	-0.130084	0.242252
H113	H	0.584759	-0.075674	0.338516
H114	H	0.466038	-0.165778	0.358771
O115	O	1.221757	0.000006	-0.161365
C116	C	1.245418	0.097388	-0.125783
H117	H	1.180864	0.129856	-0.108532
H118	H	1.277147	0.075484	-0.060665
H119	H	1.297374	0.165568	-0.179376
H120	H	0.891079	-0.304011	0.289084
H121	H	1.200217	-0.000118	-0.624144
O122	O	0.895156	-0.000229	-0.407387
C123	C	0.873534	-0.097615	-0.335069
H124	H	0.938616	-0.130084	-0.324365
H125	H	0.844284	-0.075717	-0.268972
H126	H	0.820220	-0.165792	-0.353392
H127	H	0.347392	-0.000151	-0.028565
H128	H	0.910033	-0.000074	-0.298010
