data_functionalizedCrystal
_audit_creation_method	'MofGen! by Chris Wilmer'
_symmetry_space_group_name_H-M	'P1'
_symmetry_Int_Tables_number	1
_symmetry_cell_setting	triclinic
loop_
_symmetry_equiv_pos_as_xyz
  x,y,z
_cell_length_a	17.699083
_cell_length_b	27.732048
_cell_length_c	16.176319
_cell_angle_alpha	90.008398
_cell_angle_beta	89.999950
_cell_angle_gamma	82.962835
loop_
_atom_site_label
_atom_site_type_symbol
_atom_site_fract_x
_atom_site_fract_y
_atom_site_fract_z
O1	O	1.003539	0.061125	0.068640
O2	O	0.783090	0.069077	0.068668
O3	O	0.900161	-0.005271	0.068637
O4	O	0.886468	0.135473	0.068670
O5	O	0.900147	-0.005271	-0.068856
O6	O	0.783077	0.069077	-0.068825
O7	O	1.003525	0.061125	-0.068853
Cu8	Cu	0.893300	0.065101	-0.081394
Cu9	Cu	0.893316	0.065101	0.081208
O10	O	0.886454	0.135473	-0.068823
C11	C	0.754889	0.068792	-0.000075
C12	C	0.670878	0.067938	-0.000065
C13	C	0.621873	0.111579	-0.000055
C14	C	0.542936	0.110772	-0.000066
C15	C	0.513007	0.066325	-0.000081
C16	C	0.562019	0.022680	-0.000094
C17	C	0.640954	0.023487	-0.000089
C18	C	0.243685	0.019426	-0.000115
C19	C	0.164744	0.018623	-0.000117
C20	C	0.145667	0.106712	-0.000092
C21	C	0.224602	0.107518	-0.000087
C22	C	0.273607	0.063874	-0.000104
C23	C	0.359199	0.064749	-0.000094
C24	C	0.427418	0.065450	-0.000085
C25	C	0.899867	-0.023279	-0.000112
C26	C	0.899001	-0.076937	-0.000118
C27	C	0.962734	-0.415523	-0.000084
C28	C	0.959522	-0.617194	-0.000072
O29	O	1.017801	-0.648240	-0.000043
N30	N	0.890104	-0.636567	-0.000064
C31	C	0.821484	-0.605520	-0.000053
O32	O	0.762366	-0.626625	-0.000038
C33	C	0.824696	-0.403849	-0.000059
C34	C	0.894119	-0.384479	-0.000076
C35	C	1.032151	-0.396152	-0.000100
C36	C	1.032953	-0.345737	-0.000107
C37	C	0.964338	-0.314693	-0.000099
C38	C	0.894921	-0.334064	-0.000083
C39	C	0.756076	-0.372802	-0.000043
C40	C	0.756886	-0.322382	-0.000042
C41	C	0.826308	-0.303012	-0.000059
C42	C	0.827108	-0.252605	-0.000083
N43	N	0.896526	-0.233232	-0.000091
C44	C	0.965141	-0.264276	-0.000099
C45	C	0.819802	-0.711400	-0.000052
C46	C	0.818999	-0.761817	-0.000052
C47	C	0.957038	-0.773488	-0.000069
C48	C	0.957840	-0.723070	-0.000075
C49	C	0.889220	-0.692026	-0.000060
C50	C	0.966820	-0.158401	-0.000115
C51	C	0.967616	-0.107981	-0.000126
C52	C	0.829578	-0.096314	-0.000105
C53	C	0.828781	-0.146730	-0.000098
C54	C	0.897409	-0.177772	-0.000101
O55	O	0.768860	-0.221531	-0.000102
O56	O	1.024251	-0.243161	-0.000096
C57	C	0.961931	-0.465938	-0.000077
C58	C	0.892514	-0.485309	-0.000061
C59	C	0.823899	-0.454265	-0.000053
C60	C	0.891711	-0.535726	-0.000061
C61	C	0.960326	-0.566770	-0.000069
C62	C	1.029744	-0.547397	-0.000077
C63	C	1.030546	-0.496982	-0.000085
C64	C	0.754481	-0.473638	-0.000045
C65	C	0.753685	-0.524053	-0.000038
C66	C	0.822300	-0.555097	-0.000046
C67	C	1.031726	0.061410	-0.000108
C68	C	1.115737	0.062264	-0.000113
C69	C	0.886748	0.153481	-0.000072
C70	C	0.887614	0.207139	-0.000060
N71	N	0.893294	0.065100	-0.195759
C72	C	0.938850	0.094382	-0.239018
C73	C	0.938859	0.094380	-0.325565
C74	C	0.893305	0.065099	-0.368851
C75	C	0.847747	0.035814	-0.325586
C76	C	0.847743	0.035814	-0.239040
C77	C	0.847761	0.035815	-0.674614
C78	C	0.847766	0.035819	-0.761166
C79	C	0.938876	0.094381	-0.761139
C80	C	0.938873	0.094380	-0.674594
C81	C	0.893317	0.065094	-0.631336
C82	C	0.893310	0.065096	-0.537491
C83	C	0.893308	0.065100	-0.462694
N84	N	0.893328	0.065098	0.195573
H85	H	0.646234	0.147773	-0.000042
H86	H	0.105758	0.142249	-0.000083
H87	H	0.503039	0.146309	-0.000057
H88	H	0.248965	0.143712	-0.000071
H89	H	0.680855	-0.012050	-0.000096
H90	H	0.283576	-0.016112	-0.000129
H91	H	0.763920	-0.686128	-0.000040
C92	C	0.131824	-0.030272	-0.000142
H93	H	0.172314	-0.056149	-0.000160
H94	H	0.101426	-0.032420	0.047802
H95	H	0.101429	-0.032411	-0.048097
H96	H	0.537645	-0.013510	-0.000118
H97	H	0.810667	0.011968	-0.639404
C98	C	1.106912	-0.475681	-0.000094
H99	H	1.147656	-0.501396	-0.000091
H100	H	1.110098	-0.456260	-0.048041
H101	H	1.110102	-0.456253	0.047859
H102	H	1.085613	-0.572682	-0.000087
H103	H	1.014370	-0.707302	-0.000088
C104	C	1.043984	-0.086676	-0.000140
H105	H	1.084732	-0.112389	-0.000134
H106	H	1.047166	-0.067257	-0.048088
H107	H	1.047171	-0.067247	0.047811
C108	C	1.032512	-0.807642	-0.000065
H109	H	1.022085	-0.840442	-0.000054
H110	H	1.061012	-0.801789	-0.048009
H111	H	1.060996	-0.801773	0.047891
H112	H	1.022703	-0.183670	-0.000114
H113	H	1.089484	-0.329971	-0.000117
C114	C	0.742634	-0.783119	-0.000040
H115	H	0.701889	-0.757406	-0.000027
H116	H	0.739440	-0.802549	-0.047984
H117	H	0.739457	-0.802538	0.047916
C118	C	0.679710	-0.394099	-0.000018
H119	H	0.638968	-0.368383	-0.000002
H120	H	0.676509	-0.413529	-0.047960
H121	H	0.676534	-0.413516	0.047940
C122	C	0.681402	-0.288237	-0.000029
H123	H	0.639946	-0.306998	-0.000025
H124	H	0.678849	-0.268320	0.047915
H125	H	0.678837	-0.268333	-0.047985
H126	H	1.088028	-0.421424	-0.000103
C127	C	0.988994	0.126591	-0.808725
H128	H	0.982481	0.122395	-0.866468
H129	H	0.974540	0.159675	-0.794533
H130	H	1.040885	0.117566	-0.794538
C131	C	0.752419	-0.168038	-0.000078
H132	H	0.711670	-0.142327	-0.000069
H133	H	0.749224	-0.187474	-0.048015
H134	H	0.749248	-0.187452	0.047884
H135	H	0.810661	0.011971	-0.360836
C136	C	0.754108	-0.062160	-0.000091
H137	H	0.764534	-0.029360	-0.000088
H138	H	0.725604	-0.068025	-0.048029
H139	H	0.725629	-0.068019	0.047871
C140	C	0.677315	-0.545355	-0.000017
H141	H	0.636569	-0.519641	-0.000005
H142	H	0.674116	-0.564788	-0.047957
H143	H	0.674141	-0.564771	0.047943
H144	H	0.698605	-0.448366	-0.000036
C145	C	0.988964	0.126588	-0.191411
H146	H	1.016103	0.144023	-0.229574
H147	H	0.957691	0.148860	-0.157642
H148	H	1.024029	0.106747	-0.157657
H149	H	0.975957	0.118222	-0.360783
C150	C	0.797660	0.003607	-0.808783
H151	H	0.804182	0.007807	-0.866521
H152	H	0.812114	-0.029478	-0.794613
H153	H	0.745767	0.012630	-0.794600
H154	H	0.975964	0.118226	-0.639354
H155	H	0.810646	0.011970	-0.203820
