data_functionalizedCrystal
_audit_creation_method	'MofGen! by Chris Wilmer'
_symmetry_space_group_name_H-M	'P1'
_symmetry_Int_Tables_number	1
_symmetry_cell_setting	triclinic
loop_
_symmetry_equiv_pos_as_xyz
  x,y,z
_cell_length_a	13.897449
_cell_length_b	18.101395
_cell_length_c	13.897441
_cell_angle_alpha	89.970274
_cell_angle_beta	89.978743
_cell_angle_gamma	90.031931
loop_
_atom_site_label
_atom_site_type_symbol
_atom_site_fract_x
_atom_site_fract_y
_atom_site_fract_z
Zn1	Zn	1.474592	-0.294797	-0.545449
Zn2	Zn	1.974592	0.205203	-0.045449
Zn3	Zn	1.474455	-0.418650	-0.384150
Zn4	Zn	1.974455	0.081350	0.115850
Zn5	Zn	1.313288	-0.294829	-0.384160
Zn6	Zn	1.813288	0.205171	0.115840
Zn7	Zn	1.313226	-0.418603	-0.545395
Zn8	Zn	1.813226	0.081397	-0.045395
O9	O	1.393890	-0.356720	-0.464789
O10	O	1.893890	0.143280	0.035211
O11	O	1.609556	-0.311233	-0.524071
O12	O	2.109556	0.188767	-0.024071
O13	O	1.453044	-0.402258	-0.249170
O14	O	1.953044	0.097742	0.250830
O15	O	1.334769	-0.191192	-0.405582
O16	O	1.834769	0.308808	0.094418
O17	O	1.609455	-0.402227	-0.405565
O18	O	2.109455	0.097773	0.094435
O19	O	1.453279	-0.191168	-0.524080
O20	O	1.953279	0.308832	-0.024080
O21	O	1.334635	-0.311287	-0.249177
O22	O	1.834635	0.188713	0.250823
O23	O	1.178298	-0.311241	-0.405530
O24	O	1.678298	0.188759	0.094470
O25	O	1.334663	-0.402146	-0.680384
O26	O	1.834663	0.097854	-0.180384
O27	O	1.178252	-0.402177	-0.523989
O28	O	1.678252	0.097823	-0.023989
O29	O	1.453218	-0.311187	-0.680424
O30	O	1.953218	0.188813	-0.180424
O31	O	1.452984	-0.522277	-0.405513
O32	O	1.952984	-0.022277	0.094487
O33	O	1.334529	-0.522242	-0.523979
O34	O	1.834529	-0.022242	-0.023979
C35	C	1.143276	-0.356708	-0.464755
C36	C	1.643276	0.143292	0.035245
C37	C	1.036062	-0.356721	-0.464763
C38	C	1.536062	0.143279	0.035237
C39	C	0.948992	-0.356724	-0.464779
C40	C	1.448992	0.143276	0.035221
C41	C	0.839760	-0.356729	-0.464809
C42	C	1.339760	0.143271	0.035191
C43	C	1.393761	-0.549130	-0.464760
C44	C	1.893761	-0.049130	0.035240
C45	C	1.393794	-0.631444	-0.464780
C46	C	1.893794	-0.131444	0.035220
C47	C	1.394006	-0.930535	-0.464832
C48	C	1.894006	-0.430535	0.035168
C49	C	1.319650	-0.899219	-0.539553
C50	C	1.819650	-0.399219	-0.039553
C51	C	1.319297	-0.813601	-0.539319
C52	C	1.819297	-0.313601	-0.039319
C53	C	1.393901	-0.782153	-0.464807
C54	C	1.893901	-0.282153	0.035193
C55	C	1.366379	-0.813308	-0.363147
C56	C	1.866379	-0.313308	0.136853
C57	C	1.365899	-0.898953	-0.363594
C58	C	1.865899	-0.398953	0.136406
C59	C	1.496046	-0.898877	-0.490877
C60	C	1.996046	-0.398877	0.009123
C61	C	1.495446	-0.813226	-0.493106
C62	C	1.995446	-0.313226	0.006894
C63	C	1.393843	-0.698293	-0.464787
C64	C	1.893843	-0.198293	0.035213
C65	C	1.394061	-1.014395	-0.464846
C66	C	1.894061	-0.514395	0.035154
C67	C	1.645483	-0.356732	-0.464823
C68	C	2.145483	0.143268	0.035177
C69	C	1.752697	-0.356737	-0.464837
C70	C	2.252697	0.143263	0.035163
C71	C	1.393949	-0.356658	-0.716382
C72	C	1.893949	0.143342	-0.216382
C73	C	1.393974	-0.356631	-0.823596
C74	C	1.893974	0.143369	-0.323596
C75	C	1.394046	-0.163558	-0.464838
C76	C	1.894046	0.336442	0.035162
C77	C	1.394112	-0.081244	-0.464859
C78	C	1.894112	0.418756	0.035141
C79	C	1.393994	-0.356610	-0.910665
C80	C	1.893994	0.143390	-0.410665
C81	C	1.394022	-0.356577	-1.019898
C82	C	1.894022	0.143423	-0.519898
C83	C	1.393887	-0.356728	-0.214174
C84	C	1.893887	0.143272	0.285826
C85	C	1.394048	-0.356546	-0.106961
C86	C	1.894048	0.143454	0.393039
H87	H	1.336699	-0.919764	-0.615177
H88	H	1.836699	-0.419764	-0.115177
H89	H	1.292578	-0.791924	-0.340690
H90	H	1.792578	-0.291924	0.159310
H91	H	1.243662	-0.793179	-0.522067
H92	H	1.743662	-0.293179	-0.022067
H93	H	1.418832	-0.792939	-0.305956
H94	H	1.918832	-0.292939	0.194044
N95	N	1.225349	-0.926308	-0.518181
N96	N	1.725349	-0.426308	-0.018181
N97	N	1.212665	-0.968577	-0.448158
N98	N	1.712665	-0.468577	0.051842
H99	H	1.146065	-0.987711	-0.433061
H100	H	1.646065	-0.487711	0.066939
N101	N	1.430870	-0.924938	-0.291351
N102	N	1.930870	-0.424938	0.208649
N103	N	1.476419	-0.879818	-0.240759
N104	N	1.976419	-0.379818	0.259241
H105	H	1.522293	-0.898167	-0.189727
H106	H	2.022293	-0.398167	0.310273
N107	N	1.565561	-0.924283	-0.422628
N108	N	2.065561	-0.424283	0.077372
N109	N	1.651674	-0.905247	-0.430548
N110	N	2.151674	-0.405247	0.069452
H111	H	1.700765	-0.923194	-0.382347
H112	H	2.200765	-0.423194	0.117653
N113	N	1.272325	-0.924092	-0.335911
N114	N	1.772325	-0.424092	0.164089
N115	N	1.207827	-0.878384	-0.316397
N116	N	1.707827	-0.378384	0.183603
H117	H	1.141737	-0.896135	-0.296844
H118	H	1.641737	-0.396135	0.203156
N119	N	1.527518	-0.925913	-0.582285
N120	N	2.027518	-0.425913	-0.082285
N121	N	1.475116	-0.968848	-0.629350
N122	N	1.975116	-0.468848	-0.129350
H123	H	1.497334	-0.987945	-0.693910
H124	H	1.997334	-0.487945	-0.193910
N125	N	1.521480	-0.787658	-0.586954
N126	N	2.021480	-0.287658	-0.086954
N127	N	1.528456	-0.719925	-0.603085
N128	N	2.028456	-0.219925	-0.103085
H129	H	1.546838	-0.701862	-0.669366
H130	H	2.046838	-0.201862	-0.169366
N131	N	1.340900	-0.787179	-0.633885
N132	N	1.840900	-0.287179	-0.133885
N133	N	1.356342	-0.831992	-0.700519
N134	N	1.856342	-0.331992	-0.200519
H135	H	1.371596	-0.813336	-0.767311
H136	H	1.871596	-0.313336	-0.267311
N137	N	1.568613	-0.786365	-0.429802
N138	N	2.068613	-0.286365	0.070198
N139	N	1.547012	-0.743696	-0.362496
N140	N	2.047012	-0.243696	0.137504
H141	H	1.598683	-0.724728	-0.317777
H142	H	2.098683	-0.224728	0.182223
