data_functionalizedCrystal
_audit_creation_method	'MofGen! by Chris Wilmer'
_symmetry_space_group_name_H-M	'P1'
_symmetry_Int_Tables_number	1
_symmetry_cell_setting	triclinic
loop_
_symmetry_equiv_pos_as_xyz
  x,y,z
_cell_length_a	9.198806
_cell_length_b	17.699083
_cell_length_c	17.699083
_cell_angle_alpha	83.283015
_cell_angle_beta	89.995927
_cell_angle_gamma	90.002089
loop_
_atom_site_label
_atom_site_type_symbol
_atom_site_fract_x
_atom_site_fract_y
_atom_site_fract_z
O1	O	0.120692	-1.004075	-0.095710
O2	O	0.620692	-0.504075	0.404290
O3	O	0.120740	-0.783697	-0.108162
O4	O	0.620740	-0.283697	0.391838
O5	O	0.120701	-0.900112	0.008253
O6	O	0.620701	-0.400112	0.508253
O7	O	0.120730	-0.887660	-0.212125
O8	O	0.620730	-0.387660	0.287875
O9	O	-0.121084	-0.900103	0.008254
O10	O	0.378916	-0.400103	0.508254
O11	O	-0.121046	-0.783688	-0.108162
O12	O	0.378954	-0.283688	0.391838
O13	O	-0.121094	-1.004066	-0.095709
O14	O	0.378906	-0.504066	0.404291
Cu15	Cu	-0.143146	-0.893876	-0.101936
Cu16	Cu	0.356854	-0.393876	0.398064
Cu17	Cu	0.142792	-0.893887	-0.101936
Cu18	Cu	0.642792	-0.393887	0.398064
O19	O	-0.121055	-0.887651	-0.212125
O20	O	0.378945	-0.387651	0.287875
C21	C	-0.000147	-0.755495	-0.107716
C22	C	0.499853	-0.255495	0.392284
C23	C	-0.000129	-0.671477	-0.106377
C24	C	0.499871	-0.171477	0.393623
C25	C	-0.000191	-0.899662	0.036451
C26	C	0.499809	-0.399662	0.536451
C27	C	-0.000192	-0.898323	0.120469
C28	C	0.499808	-0.398323	0.620469
N29	N	-0.344260	-0.893874	-0.101935
N30	N	0.155740	-0.393874	0.398065
C31	C	-0.416473	-0.942756	-0.052842
C32	C	0.083527	-0.442756	0.447158
C33	C	-0.583886	-0.942768	-0.052839
C34	C	-0.083886	-0.442768	0.447161
N35	N	0.343906	-0.893895	-0.101930
N36	N	0.843906	-0.393895	0.398070
C37	C	-0.000204	-1.032268	-0.096156
C38	C	0.499796	-0.532268	0.403844
C39	C	-0.000212	-1.116286	-0.097494
C40	C	0.499788	-0.616286	0.402506
C41	C	-0.000121	-0.622856	-0.174710
C42	C	0.499879	-0.122856	0.325290
C43	C	-0.000140	-0.543913	-0.173448
C44	C	0.499860	-0.043913	0.326552
C45	C	-0.000157	-0.513592	-0.103852
C46	C	0.499843	-0.013592	0.396148
C47	C	-0.000169	-0.562219	-0.035513
C48	C	0.499831	-0.062219	0.464487
C49	C	-0.000161	-0.641161	-0.036776
C50	C	0.499839	-0.141161	0.463224
C51	C	-0.000206	-0.243856	-0.030418
C52	C	0.499794	0.256144	0.469582
C53	C	-0.000210	-0.164908	-0.029160
C54	C	0.499790	0.335092	0.470840
C55	C	-0.000185	-0.146608	-0.167090
C56	C	0.499815	0.353392	0.332910
C57	C	-0.000176	-0.225550	-0.168353
C58	C	0.499824	0.274450	0.331647
C59	C	-0.000197	-0.274170	-0.100015
C60	C	0.499803	0.225830	0.399985
C61	C	-0.000179	-0.359769	-0.101384
C62	C	0.499821	0.140231	0.398616
C63	C	-0.000164	-0.427995	-0.102481
C64	C	0.499836	0.072005	0.397519
C65	C	-0.000160	-0.888102	-0.240322
C66	C	0.499840	-0.388102	0.259678
C67	C	-0.000150	-0.889440	-0.324340
C68	C	0.499850	-0.389440	0.175660
C69	C	-0.000209	-0.966656	0.169090
C70	C	0.499791	-0.466656	0.669090
C71	C	-0.000195	-0.965394	0.248033
C72	C	0.499805	-0.465394	0.748033
C73	C	-0.000176	-0.895798	0.278354
C74	C	0.499824	-0.395798	0.778354
C75	C	-0.000154	-0.827459	0.229727
C76	C	0.499846	-0.327459	0.729727
C77	C	-0.000157	-0.828722	0.150785
C78	C	0.499843	-0.328722	0.650785
C79	C	-0.000141	-0.822364	0.548090
C80	C	0.499859	-0.322364	1.048090
C81	C	-0.000143	-0.821106	0.627038
C82	C	0.499857	-0.321106	1.127038
C83	C	-0.000180	-0.959036	0.645338
C84	C	0.499820	-0.459036	1.145338
C85	C	-0.000182	-0.960299	0.566396
C86	C	0.499818	-0.460299	1.066396
C87	C	-0.000154	-0.891961	0.517776
C88	C	0.499846	-0.391961	1.017776
C89	C	-0.000165	-0.893330	0.432177
C90	C	0.499835	-0.393330	0.932177
C91	C	-0.000175	-0.894427	0.363951
C92	C	0.499825	-0.394427	0.863951
H93	H	-0.354361	-0.984594	-0.010811
H94	H	0.145639	-0.484594	0.489189
C95	C	-0.428153	-0.837337	-0.158704
C96	C	0.071847	-0.337337	0.341296
H97	H	-0.361137	-0.806661	-0.189499
H98	H	0.138863	-0.306661	0.310501
H99	H	-0.487536	-0.864621	-0.190063
H100	H	0.012464	-0.364621	0.309937
H101	H	-0.487522	-0.805832	-0.131567
H102	H	0.012478	-0.305832	0.368433
C103	C	-0.667768	-0.999303	0.003944
C104	C	-0.167768	-0.499303	0.503944
H105	H	-0.769283	-0.991890	-0.003499
H106	H	-0.269283	-0.491890	0.496501
H107	H	-0.642886	-1.049848	-0.004052
H108	H	-0.142886	-0.549848	0.495948
H109	H	-0.642902	-0.991038	0.054422
H110	H	-0.142902	-0.491038	0.554422
H111	H	-0.594003	-0.852046	-0.143966
H112	H	-0.094003	-0.352046	0.356034
H113	H	-0.000204	-0.537526	0.021154
H114	H	0.499796	-0.037526	0.521154
H115	H	-0.000106	-0.647537	-0.231384
H116	H	0.499894	-0.147537	0.268616
C117	C	-0.000126	-0.490433	-0.248615
C118	C	0.499874	0.009567	0.251385
H119	H	-0.000096	-0.519797	-0.290244
H120	H	0.499904	-0.019797	0.209756
H121	H	-0.084446	-0.459262	-0.250994
H122	H	0.415554	0.040738	0.249006
H123	H	0.084196	-0.459253	-0.250987
H124	H	0.584196	0.040747	0.249013
C125	C	-0.000155	-0.694644	0.038390
C126	C	0.499845	-0.194644	0.538390
H127	H	-0.000151	-0.665282	0.080021
H128	H	0.499849	-0.165282	0.580021
H129	H	-0.084466	-0.725826	0.040767
H130	H	0.415534	-0.225826	0.540767
H131	H	0.084177	-0.725813	0.040762
H132	H	0.584177	-0.225813	0.540762
H133	H	-0.000233	-1.023330	0.144409
H134	H	0.499767	-0.523330	0.644409
H135	H	-0.000156	-0.250232	-0.225025
H136	H	0.499844	0.249768	0.274975
H137	H	-0.000176	-0.107012	-0.222734
H138	H	0.499824	0.392988	0.277266
H139	H	-0.000212	-1.021038	0.287618
H140	H	0.499788	-0.521038	0.787618
C141	C	-0.000110	-0.744548	0.660393
C142	C	0.499890	-0.244548	1.160393
H143	H	-0.000128	-0.753587	0.714371
H144	H	0.499872	-0.253587	1.214371
H145	H	0.084218	-0.716424	0.643696
H146	H	0.584218	-0.216424	1.143696
H147	H	-0.084424	-0.716411	0.643698
H148	H	0.415576	-0.216411	1.143698
H149	H	-0.000226	-0.140225	0.027517
H150	H	0.499774	0.359775	0.527517
H151	H	-0.000118	-0.766718	0.508512
H152	H	0.499882	-0.266718	1.008512
C153	C	-0.000218	-0.297328	0.044751
C154	C	0.499782	0.202672	0.544751
H155	H	-0.000214	-0.267962	0.086379
H156	H	0.499786	0.232038	0.586379
H157	H	-0.084533	-0.328507	0.047128
H158	H	0.415467	0.171493	0.547128
H159	H	0.084109	-0.328501	0.047128
H160	H	0.584109	0.171499	0.547128
H161	H	-0.000206	-1.016971	0.541714
H162	H	0.499794	-0.516971	1.041714
H163	H	-0.000196	-1.014680	0.684934
H164	H	0.499804	-0.514680	1.184934
C165	C	-0.000137	-0.750904	0.263077
C166	C	0.499863	-0.250904	0.763077
H167	H	-0.000154	-0.759938	0.317056
H168	H	0.499846	-0.259938	0.817056
H169	H	0.084183	-0.722775	0.246378
H170	H	0.584183	-0.222775	0.746378
H171	H	-0.084459	-0.722774	0.246381
H172	H	0.415541	-0.222774	0.746381
C173	C	-0.000138	-0.753558	0.097298
C174	C	0.499862	-0.253558	0.597298
H175	H	-0.000127	-0.764277	0.045941
H176	H	0.499873	-0.264277	0.545941
H177	H	-0.084443	-0.725006	0.106476
H178	H	0.415557	-0.225006	0.606476
H179	H	0.084199	-0.725022	0.106474
H180	H	0.584199	-0.225022	0.606474
