data_functionalizedCrystal
_audit_creation_method	'MofGen! by Chris Wilmer'
_symmetry_space_group_name_H-M	'P1'
_symmetry_Int_Tables_number	1
_symmetry_cell_setting	triclinic
loop_
_symmetry_equiv_pos_as_xyz
  x,y,z
_cell_length_a	17.019238
_cell_length_b	14.044220
_cell_length_c	13.101039
_cell_angle_alpha	93.667477
_cell_angle_beta	97.226290
_cell_angle_gamma	91.726076
loop_
_atom_site_label
_atom_site_type_symbol
_atom_site_fract_x
_atom_site_fract_y
_atom_site_fract_z
O1	O	1.063536	-0.109605	0.179113
O2	O	1.563536	0.390395	0.679113
O3	O	0.834007	-0.126277	0.158851
O4	O	1.334007	0.373723	0.658851
O5	O	0.945326	0.020019	0.168668
O6	O	1.445326	0.520019	0.668668
O7	O	0.952217	-0.255901	0.169296
O8	O	1.452217	0.244099	0.669296
O9	O	0.937340	0.009505	-0.002466
O10	O	1.437340	0.509505	0.497534
O11	O	0.826021	-0.136791	-0.012283
O12	O	1.326021	0.363209	0.487717
O13	O	1.055550	-0.120119	0.007979
O14	O	1.555550	0.379881	0.507979
Zn15	Zn	0.939518	-0.130124	-0.029323
Zn16	Zn	1.439518	0.369876	0.470677
Zn17	Zn	0.950039	-0.116272	0.196153
Zn18	Zn	1.450039	0.383728	0.696153
O19	O	0.944231	-0.266415	-0.001838
O20	O	1.444231	0.233585	0.498162
C21	C	0.800462	-0.131115	0.070675
C22	C	1.300462	0.368885	0.570675
C23	C	0.712405	-0.129852	0.062902
C24	C	1.212405	0.370148	0.562902
C25	C	0.938317	0.050056	0.082834
C26	C	1.438317	0.550056	0.582834
C27	C	0.929320	0.155219	0.082039
C28	C	1.429320	0.655219	0.582039
C29	C	1.089095	-0.115282	0.096157
C30	C	1.589095	0.384718	0.596157
C31	C	1.177152	-0.116543	0.103938
C32	C	1.677152	0.383457	0.603938
C33	C	1.675396	-0.123521	0.152539
C34	C	2.175396	0.376479	0.652539
C35	C	1.592658	-0.122319	0.145239
C36	C	2.092658	0.377681	0.645239
C37	C	1.546931	-0.127442	0.048303
C38	C	2.046931	0.372558	0.548303
C39	C	1.583946	-0.133777	-0.041341
C40	C	2.083946	0.366223	0.458659
C41	C	1.666682	-0.134986	-0.034041
C42	C	2.166682	0.365014	0.465959
C43	C	1.296903	-0.124087	0.021594
C44	C	1.796903	0.375913	0.521594
C45	C	1.214162	-0.122875	0.014301
C46	C	1.714162	0.377125	0.514301
C47	C	1.222879	-0.111419	0.200882
C48	C	1.722879	0.388581	0.700882
C49	C	1.305617	-0.112622	0.208173
C50	C	1.805617	0.387378	0.708173
C51	C	1.342624	-0.118962	0.118530
C52	C	1.842624	0.381038	0.618530
C53	C	1.462360	-0.126211	0.040839
C54	C	1.962360	0.373789	0.540839
C55	C	1.427194	-0.120199	0.125994
C56	C	1.927194	0.379801	0.625994
C57	C	0.951241	-0.296452	0.083998
C58	C	1.451241	0.203548	0.583998
C59	C	0.960238	-0.401615	0.084801
C60	C	1.460238	0.098385	0.584801
N61	N	0.932343	-0.139578	-0.183204
N62	N	1.432343	0.360422	0.316796
C63	C	0.912873	0.347768	0.080602
C64	C	1.412873	0.847768	0.580602
C65	C	0.976681	0.405842	0.086237
C66	C	1.476681	0.905842	0.586237
C67	C	0.967530	0.512983	0.085438
C68	C	1.467530	1.012983	0.585438
C69	C	0.922023	0.240617	0.081401
C70	C	1.422023	0.740617	0.581401
C71	C	0.922582	-0.152448	-0.393108
C72	C	1.422582	0.347552	0.106892
C73	C	0.966979	-0.093944	-0.440068
C74	C	1.466979	0.406056	0.059932
C75	C	0.961548	-0.101105	-0.556866
C76	C	1.461548	0.398895	-0.056866
C77	C	0.928012	-0.145288	-0.276300
C78	C	1.428012	0.354712	0.223700
N79	N	0.957220	-0.106811	0.350035
N80	N	1.457220	0.393189	0.850035
H81	H	1.712621	-0.119346	0.231475
H82	H	2.212621	0.380654	0.731475
H83	H	0.880496	-0.207910	-0.440616
H84	H	1.380496	0.292090	0.059384
H85	H	1.464428	-0.116034	0.204920
H86	H	1.964428	0.383966	0.704920
H87	H	1.009068	-0.038480	-0.392554
H88	H	1.509068	0.461520	0.107446
H89	H	1.562529	-0.117164	0.218231
H90	H	2.062529	0.382836	0.718231
O91	O	1.336823	-0.130924	-0.075081
O92	O	1.836823	0.369076	0.424919
H93	H	1.371789	-0.196339	-0.076428
H94	H	1.871789	0.303661	0.423572
O95	O	1.354937	-0.107101	0.312726
O96	O	1.854937	0.392899	0.812726
H97	H	1.315301	-0.102503	0.373832
H98	H	1.815301	0.397497	0.873832
H99	H	0.851376	0.378513	0.075175
H100	H	1.351376	0.878513	0.575175
H101	H	1.192738	-0.106259	0.273864
H102	H	1.692738	0.393741	0.773864
H103	H	1.176932	-0.127074	-0.064641
H104	H	1.676932	0.372926	0.435359
H105	H	1.546709	-0.137954	-0.120269
H106	H	2.046709	0.362046	0.379731
H107	H	1.038186	0.375100	0.091736
H108	H	1.538186	0.875100	0.591736
O109	O	1.706603	-0.141825	-0.130721
O110	O	2.206603	0.358175	0.369279
H111	H	1.691153	-0.079758	-0.176640
H112	H	2.191153	0.420242	0.323360
O113	O	1.412808	-0.132254	-0.063567
O114	O	1.912808	0.367746	0.436433
H115	H	1.377185	-0.067600	-0.071387
H116	H	1.877185	0.432400	0.428613
