data_functionalizedCrystal
_audit_creation_method	'MofGen! by Chris Wilmer'
_symmetry_space_group_name_H-M	'P1'
_symmetry_Int_Tables_number	1
_symmetry_cell_setting	triclinic
loop_
_symmetry_equiv_pos_as_xyz
  x,y,z
_cell_length_a	8.597340
_cell_length_b	10.723023
_cell_length_c	7.681481
_cell_angle_alpha	84.204195
_cell_angle_beta	103.474906
_cell_angle_gamma	84.901714
loop_
_atom_site_label
_atom_site_type_symbol
_atom_site_fract_x
_atom_site_fract_y
_atom_site_fract_z
O1	O	2.101733	0.172565	0.172446
O2	O	1.637889	0.192447	0.102069
O3	O	1.880512	0.000857	0.138888
O4	O	1.859111	0.364155	0.135627
O5	O	1.910374	-0.022778	0.436278
O6	O	1.667752	0.168812	0.399459
O7	O	2.131595	0.148930	0.469835
Zn8	Zn	1.904415	0.155118	0.481864
Zn9	Zn	1.865070	0.186258	0.090040
O10	O	1.888973	0.340520	0.433016
C11	C	1.593428	0.179811	0.241753
C12	C	1.416457	0.177357	0.214902
C13	C	1.893886	-0.057450	0.287345
C14	C	1.889227	-0.195972	0.286632
C15	C	1.871680	-0.245480	0.132258
C16	C	1.866864	-0.388650	0.131518
C17	C	2.176056	0.161566	0.330148
C18	C	2.353026	0.164021	0.356987
C19	C	1.875599	0.398827	0.284556
C20	C	1.880256	0.537350	0.285256
N21	N	1.931278	0.133865	0.749275
N22	N	1.838219	0.207502	-0.177369
H23	H	1.434111	0.154472	0.499181
H24	H	1.335365	0.186898	0.072698
H25	H	1.860216	-0.181872	0.000640
O26	O	1.897973	-0.411941	0.443023
C27	C	1.768983	-0.437338	0.520597
H28	H	1.715256	-0.523517	0.467220
H29	H	1.814713	-0.456627	0.673591
H30	H	1.672680	-0.352410	0.483713
H31	H	1.851842	-0.431273	-0.000647
O32	O	2.044530	0.044040	0.855976
C33	C	2.012475	-0.075856	0.806237
H34	H	1.937472	-0.064943	0.660968
H35	H	2.130895	-0.136895	0.818065
H36	H	1.943141	-0.122683	0.899457
H37	H	1.900673	-0.259578	0.418248
H38	H	1.743225	0.282662	0.733019
