data_functionalizedCrystal
_audit_creation_method	'MofGen! by Chris Wilmer'
_symmetry_space_group_name_H-M	'P1'
_symmetry_Int_Tables_number	1
_symmetry_cell_setting	triclinic
loop_
_symmetry_equiv_pos_as_xyz
  x,y,z
_cell_length_a	15.995350
_cell_length_b	11.804365
_cell_length_c	13.339070
_cell_angle_alpha	105.112168
_cell_angle_beta	99.560835
_cell_angle_gamma	78.155245
loop_
_atom_site_label
_atom_site_type_symbol
_atom_site_fract_x
_atom_site_fract_y
_atom_site_fract_z
O1	O	1.153436	-0.098919	0.109993
O2	O	1.653436	0.401081	0.609993
O3	O	0.913404	-0.098942	0.126090
O4	O	1.413404	0.401058	0.626090
O5	O	1.005872	-0.098930	-0.029222
O6	O	1.505872	0.401070	0.470778
O7	O	1.060968	-0.098931	0.265305
O8	O	1.560968	0.401069	0.765305
O9	O	0.981519	0.099123	0.011624
O10	O	1.481519	0.599123	0.511624
O11	O	0.889052	0.099110	0.166936
O12	O	1.389052	0.599110	0.666936
O13	O	1.129083	0.099134	0.150839
O14	O	1.629083	0.599134	0.650839
Cu15	Cu	1.006844	0.117206	0.162617
Cu16	Cu	1.506844	0.617206	0.662617
Cu17	Cu	1.035644	-0.117014	0.114312
Cu18	Cu	1.535644	0.382986	0.614312
O19	O	1.036616	0.099121	0.306151
O20	O	1.536616	0.599121	0.806151
C21	C	0.869879	0.000081	0.145847
C22	C	1.369879	0.500081	0.645847
C23	C	0.776466	0.000072	0.143849
C24	C	1.276466	0.500072	0.643849
N25	N	0.986593	0.281944	0.196592
N26	N	1.486593	0.781944	0.696592
N27	N	1.055899	-0.281752	0.080328
N28	N	1.555899	0.218248	0.580328
C29	C	0.437050	0.000097	0.136687
C30	C	0.937050	0.500097	0.636687
C31	C	0.458733	0.000539	0.026166
C32	C	0.958733	0.500539	0.526166
C33	C	0.555943	0.000084	0.028068
C34	C	1.055943	0.500084	0.528068
C35	C	0.605438	0.000085	0.140240
C36	C	1.105438	0.500085	0.640240
C37	C	0.590932	-0.113008	0.171473
C38	C	1.090932	0.386992	0.671473
C39	C	0.493661	-0.113095	0.168676
C40	C	0.993661	0.386905	0.668676
C41	C	0.466160	0.112128	0.217412
C42	C	0.966160	0.612128	0.717412
C43	C	0.562916	0.113614	0.217692
C44	C	1.062916	0.613614	0.717692
C45	C	0.700605	0.000074	0.142253
C46	C	1.200605	0.500074	0.642253
C47	C	0.341885	0.000099	0.134676
C48	C	0.841885	0.500099	0.634676
C49	C	1.172609	0.000108	0.131082
C50	C	1.672609	0.500108	0.631082
C51	C	1.266023	0.000110	0.133078
C52	C	1.766023	0.500110	0.633078
C53	C	0.984389	0.000094	-0.046489
C54	C	1.484389	0.500094	0.453511
C55	C	0.956648	0.000087	-0.158792
C56	C	1.456648	0.500087	0.341208
C57	C	1.104523	0.655909	-0.001277
C58	C	1.604523	1.155909	0.498723
C59	C	1.119840	0.531249	-0.026984
C60	C	1.619840	1.031249	0.473016
C61	C	1.086529	0.468917	0.028908
C62	C	1.586529	0.968917	0.528908
C63	C	1.037899	0.531256	0.110511
C64	C	1.537899	1.031256	0.610511
C65	C	1.022586	0.655928	0.136225
C66	C	1.522586	1.155928	0.636225
C67	C	1.004593	0.468936	0.166410
C68	C	1.504593	0.968936	0.666410
C69	C	0.955963	0.531275	0.248013
C70	C	1.455963	1.031275	0.748013
C71	C	0.940652	0.655935	0.273723
C72	C	1.440652	1.155935	0.773723
C73	C	0.973962	0.718267	0.217831
C74	C	1.473962	1.218267	0.717831
C75	C	1.019906	0.344264	0.140696
C76	C	1.519906	0.844264	0.640696
C77	C	0.937970	0.344283	0.278198
C78	C	1.437970	0.844283	0.778198
C79	C	0.922652	0.468943	0.303905
C80	C	1.422652	0.968943	0.803905
C81	C	1.172349	0.000109	-0.523580
C82	C	1.672349	0.500109	-0.023580
C83	C	1.198415	0.000122	-0.418065
C84	C	1.698415	0.500122	0.081935
C85	C	1.137975	0.000113	-0.353242
C86	C	1.637975	0.500113	0.146758
C87	C	1.051466	0.000091	-0.393944
C88	C	1.551466	0.500091	0.106056
C89	C	1.025397	0.000086	-0.499468
C90	C	1.525397	0.500086	0.000532
C91	C	0.991023	0.000091	-0.329129
C92	C	1.491023	0.500091	0.170871
C93	C	0.904514	0.000068	-0.369832
C94	C	1.404514	0.500068	0.130168
C95	C	0.878449	0.000063	-0.475346
C96	C	1.378449	0.500063	0.024654
C97	C	0.938888	0.000072	-0.540169
C98	C	1.438888	0.500072	-0.040169
C99	C	1.017092	0.000095	-0.223605
C100	C	1.517092	0.500095	0.276395
C101	C	0.870140	0.000073	-0.199493
C102	C	1.370140	0.500073	0.300507
C103	C	0.844074	0.000059	-0.305009
C104	C	1.344074	0.500059	0.194991
C105	C	1.058099	0.000095	0.323417
C106	C	1.558099	0.500095	0.823417
C107	C	1.085841	0.000095	0.435719
C108	C	1.585841	0.500095	0.935719
H109	H	0.564440	0.081155	0.001903
H110	H	1.064440	0.581155	0.501903
Br111	Br	0.892767	0.259698	0.354063
Br112	Br	1.392767	0.759698	0.854063
H113	H	0.917670	0.000057	-0.626090
H114	H	1.417670	0.500057	-0.126090
Br115	Br	1.134493	0.000129	-0.168378
Br116	Br	1.634493	0.500129	0.331622
Br117	Br	1.185837	0.446647	-0.137721
Br118	Br	1.685837	0.946647	0.362279
Br119	Br	1.149738	0.740502	-0.077112
Br120	Br	1.649738	1.240502	0.422888
Br121	Br	1.107317	0.299733	-0.005981
Br122	Br	1.607317	0.799733	0.494019
H123	H	0.480910	-0.118227	0.248828
H124	H	0.980910	0.381773	0.748828
Br125	Br	0.953165	0.887456	0.252714
Br126	Br	1.453165	1.387456	0.752714
H127	H	0.901062	0.706692	0.340176
H128	H	1.401062	1.206692	0.840176
H129	H	0.820924	0.000071	-0.146712
H130	H	1.320924	0.500071	0.353288
H131	H	0.620852	-0.197175	0.116221
H132	H	1.120852	0.302825	0.616221
H133	H	1.159203	0.000124	-0.267327
H134	H	1.659203	0.500124	0.232673
H135	H	0.883057	0.519715	0.370348
H136	H	1.383057	1.019715	0.870348
H137	H	1.268850	0.000142	-0.384932
H138	H	1.768850	0.500142	0.115068
Br139	Br	0.761041	0.000056	-0.530579
Br140	Br	1.261041	0.500056	-0.030579
Br141	Br	0.394115	0.135720	-0.019651
Br142	Br	0.894115	0.635720	0.480349
H143	H	1.221548	0.000126	-0.576366
H144	H	1.721548	0.500126	-0.076366
H145	H	0.453251	0.112893	0.299123
H146	H	0.953251	0.612893	0.799123
H147	H	0.596445	0.120446	0.300900
H148	H	1.096445	0.620446	0.800900
H149	H	0.583756	-0.081126	-0.031856
H150	H	1.083756	0.418874	0.468144
Br151	Br	0.425555	-0.133882	-0.074923
Br152	Br	0.925555	0.366118	0.425077
H153	H	0.773637	0.000042	-0.338163
H154	H	1.273637	0.500042	0.161837
H155	H	0.624719	-0.117213	0.253015
H156	H	1.124719	0.382787	0.753015
Br157	Br	0.465062	-0.254001	0.073305
Br158	Br	0.965062	0.245999	0.573305
Br159	Br	0.400367	0.255006	0.186605
Br160	Br	0.900367	0.755006	0.686605
H161	H	1.059501	0.293518	0.074255
H162	H	1.559501	0.793518	0.574255
Br163	Br	0.575734	0.253065	0.179958
Br164	Br	1.075734	0.753065	0.679958
