data_functionalizedCrystal
_audit_creation_method	'MofGen! by Chris Wilmer'
_symmetry_space_group_name_H-M	'P1'
_symmetry_Int_Tables_number	1
_symmetry_cell_setting	triclinic
loop_
_symmetry_equiv_pos_as_xyz
  x,y,z
_cell_length_a	6.817900
_cell_length_b	12.908943
_cell_length_c	17.982783
_cell_angle_alpha	95.935216
_cell_angle_beta	102.448572
_cell_angle_gamma	100.860631
loop_
_atom_site_label
_atom_site_type_symbol
_atom_site_fract_x
_atom_site_fract_y
_atom_site_fract_z
V1	V	-3.991103	-0.329116	-0.104460
O2	O	-3.984603	-0.322400	0.005998
O3	O	-3.937759	-0.327298	-0.208067
O4	O	-3.929480	-0.472457	-0.102423
O5	O	-3.992940	-0.176236	-0.100377
V6	V	-4.477085	-0.310777	-0.091298
O7	O	-4.246967	-0.369342	-0.133330
O8	O	-4.671418	-0.270551	-0.062428
O9	O	-4.307223	-0.312595	0.012309
O10	O	-4.600982	-0.317493	-0.201756
O11	O	-4.592645	-0.463657	-0.095381
O12	O	-4.315502	-0.167436	-0.093335
C13	C	-3.781985	-0.322218	-0.233338
C14	C	-3.819568	-0.321687	-0.318036
C15	C	-3.806468	-0.224856	-0.347226
C16	C	-3.841802	-0.224361	-0.426809
C17	C	-3.890220	-0.320697	-0.477200
C18	C	-3.903326	-0.417536	-0.448006
C19	C	-3.868008	-0.418030	-0.368424
C20	C	-4.045766	-0.415544	-0.768949
C21	C	-4.081078	-0.415042	-0.848536
C22	C	-4.019559	-0.221875	-0.827334
C23	C	-3.984241	-0.222369	-0.747753
C24	C	-3.997360	-0.319207	-0.718565
C25	C	-3.959051	-0.319743	-0.632272
C26	C	-3.928515	-0.320162	-0.563492
C27	C	-3.771423	-0.507381	-0.098578
C28	C	-3.802290	-0.624566	-0.097599
C29	C	-4.223182	-0.855536	-0.103319
C30	C	-4.252193	-0.965642	-0.102399
C31	C	-3.889324	-0.954885	-0.094834
C32	C	-3.860313	-0.844779	-0.095754
C33	C	-4.027250	-0.795109	-0.099998
C34	C	-3.998239	-0.685002	-0.100923
C35	C	-3.635370	-0.674245	-0.093352
C36	C	-3.664381	-0.784351	-0.092432
C37	C	-4.126339	-0.317673	0.037576
C38	C	-4.067993	-0.318210	0.122273
C39	C	-4.136901	-0.132507	-0.097183
C40	C	-4.085273	-0.015321	-0.098158
H41	H	-4.008888	-0.143024	-0.851108
H42	H	-4.120507	-0.493495	-0.889564
H43	H	-3.767027	-0.146407	-0.306201
H44	H	-4.056425	-0.494394	-0.745194
H45	H	-3.753419	-0.995344	-0.091374
H46	H	-3.831137	-0.145512	-0.450571
H47	H	-3.528472	-0.824807	-0.088974
H48	H	-3.475825	-0.625034	-0.090650
H49	H	-4.359113	-0.815096	-0.106783
H50	H	-3.878698	-0.496880	-0.344660
H51	H	-3.942766	-0.495975	-0.489041
H52	H	-4.411737	-1.014839	-0.105104
H53	H	-4.134171	-0.644563	-0.104381
H54	H	-3.944807	-0.143922	-0.706727
