data_functionalizedCrystal
_audit_creation_method	'MofGen! by Chris Wilmer'
_symmetry_space_group_name_H-M	'P1'
_symmetry_Int_Tables_number	1
_symmetry_cell_setting	triclinic
loop_
_symmetry_equiv_pos_as_xyz
  x,y,z
_cell_length_a	10.967819
_cell_length_b	10.908878
_cell_length_c	16.776229
_cell_angle_alpha	89.993177
_cell_angle_beta	77.863565
_cell_angle_gamma	72.685094
loop_
_atom_site_label
_atom_site_type_symbol
_atom_site_fract_x
_atom_site_fract_y
_atom_site_fract_z
O1	O	1.618426	0.179824	-0.288609
O2	O	1.251551	0.197022	-0.238213
O3	O	1.483622	0.001920	-0.270089
O4	O	1.386354	0.374925	-0.256733
O5	O	1.483599	0.001908	-0.137509
O6	O	1.251528	0.197009	-0.105633
O7	O	1.618403	0.179811	-0.156030
Zn8	Zn	1.434962	0.188408	-0.109782
Zn9	Zn	1.434992	0.188425	-0.284461
O10	O	1.386331	0.374913	-0.124154
C11	C	1.205309	0.195762	-0.165573
C12	C	1.067560	0.192012	-0.146651
C13	C	0.863792	0.186483	-0.187353
C14	C	1.006165	0.190350	-0.206905
C15	C	1.492701	-0.045847	-0.205049
C16	C	1.519772	-0.188160	-0.208770
C17	C	1.420995	-0.238042	-0.195203
C18	C	1.448972	-0.385130	-0.199049
C19	C	1.664645	0.181071	-0.228672
C20	C	1.802393	0.184821	-0.247599
C21	C	1.377253	0.422680	-0.189196
C22	C	1.350182	0.564994	-0.185480
N23	N	1.434950	0.188397	0.009431
N24	N	1.435015	0.188426	-0.403675
C25	C	1.537730	0.102042	0.037031
C26	C	1.537737	0.102041	0.120482
C27	C	1.434968	0.188402	0.176332
C28	C	1.332179	0.274761	0.148727
C29	C	1.332168	0.274754	0.065278
C30	C	1.332218	0.274786	0.485269
C31	C	1.332239	0.274788	0.568723
C32	C	1.537788	0.102073	0.540473
C33	C	1.537777	0.102066	0.457024
C34	C	1.434985	0.188420	0.429427
C35	C	1.434977	0.188419	0.338940
C36	C	1.434979	0.188411	0.266817
H37	H	1.315718	-0.171854	-0.180736
F38	F	1.075214	0.192242	-0.293249
H39	H	0.810951	0.185049	-0.121299
F40	F	1.222772	0.366662	0.035907
H41	H	1.554257	-0.451314	-0.213509
F42	F	1.657381	-0.274667	-0.227668
F43	F	1.647160	0.010155	0.397587
F44	F	1.647187	0.010162	0.569850
F45	F	1.647118	0.010129	-0.022402
F46	F	1.212564	-0.348506	-0.166567
F47	F	0.998508	0.190137	-0.060306
F48	F	1.647125	0.010131	0.149856
F49	F	0.871447	0.186713	-0.333938
F50	F	1.222852	0.366709	0.628162
F51	F	1.222824	0.366692	0.455904
F52	F	1.222798	0.366668	0.208168
