data_functionalizedCrystal
_audit_creation_method	'MofGen! by Chris Wilmer'
_symmetry_space_group_name_H-M	'P1'
_symmetry_Int_Tables_number	1
_symmetry_cell_setting	triclinic
loop_
_symmetry_equiv_pos_as_xyz
  x,y,z
_cell_length_a	23.532409
_cell_length_b	14.971482
_cell_length_c	13.448316
_cell_angle_alpha	89.993798
_cell_angle_beta	89.996452
_cell_angle_gamma	83.231084
loop_
_atom_site_label
_atom_site_type_symbol
_atom_site_fract_x
_atom_site_fract_y
_atom_site_fract_z
O1	O	0.074206	1.186166	-0.082672
O2	O	0.083096	0.925672	-0.082676
O3	O	-0.004247	1.063773	-0.082675
O4	O	0.161549	1.048065	-0.082673
O5	O	-0.004252	1.063756	0.082709
O6	O	0.083091	0.925655	0.082708
O7	O	0.074201	1.186149	0.082712
Cu8	Cu	0.078645	1.055900	0.097811
Cu9	Cu	0.078652	1.055921	-0.097775
O10	O	0.161544	1.048048	0.082711
C11	C	0.082696	0.892343	0.000015
C12	C	0.081506	0.793058	0.000014
C13	C	0.080942	0.746410	0.090165
C14	C	0.079815	0.653123	0.090166
C15	C	0.079255	0.606486	0.000015
C16	C	0.079817	0.653141	-0.090144
C17	C	0.080940	0.746426	-0.090144
C18	C	0.077477	0.458704	-0.090138
C19	C	0.076355	0.365411	-0.090138
C20	C	0.076352	0.365400	0.090173
C21	C	0.077475	0.458686	0.090173
C22	C	0.078038	0.505334	0.000014
C23	C	-0.025467	1.063364	0.000014
C24	C	-0.088689	1.062161	0.000007
C25	C	-0.361953	1.057052	-0.090148
C26	C	-0.302548	1.058170	-0.090148
O27	O	-0.271819	1.058787	-0.166815
N28	N	-0.272847	1.058713	0.000004
C29	C	-0.302554	1.058149	0.090162
O30	O	-0.271836	1.058715	0.166844
C31	C	-0.361958	1.057037	0.090161
C32	C	-0.391656	1.056485	0.000003
C33	C	-0.391651	1.056500	-0.180299
C34	C	-0.451052	1.055381	-0.180298
C35	C	-0.480755	1.054813	-0.090147
C36	C	-0.451057	1.055365	0.000004
C37	C	-0.391665	1.056479	0.180319
C38	C	-0.451074	1.055368	0.180310
C39	C	-0.480771	1.054816	0.090152
C40	C	-0.540161	1.053679	0.090156
N41	N	-0.569862	1.053135	0.000003
C42	C	-0.540159	1.053702	-0.090148
C43	C	-0.177801	1.060484	0.090157
C44	C	-0.118397	1.061589	0.090159
C45	C	-0.118396	1.061611	-0.090152
C46	C	-0.177800	1.060500	-0.090153
C47	C	-0.207502	1.059940	0.000005
C48	C	-0.664905	1.051351	-0.090140
C49	C	-0.724311	1.050228	-0.090131
C50	C	-0.724307	1.050210	0.090179
C51	C	-0.664907	1.051328	0.090171
C52	C	-0.635207	1.051902	0.000004
O53	O	-0.570928	1.053064	0.166783
O54	O	-0.570886	1.053148	-0.166816
C55	C	0.182764	1.048457	0.000019
C56	C	0.245986	1.049660	0.000020
C57	C	0.074601	1.219478	0.000018
C58	C	0.075791	1.318763	0.000014
N59	N	0.078640	1.055893	0.235375
N60	N	0.078652	1.055936	-0.235339
C61	C	0.039981	1.117063	0.287416
C62	C	0.039981	1.117068	0.391519
C63	C	0.078643	1.055907	0.443580
C64	C	0.117304	0.994731	0.391532
C65	C	0.117301	0.994722	0.287430
C66	C	0.117308	0.994756	0.608512
C67	C	0.117312	0.994766	0.712620
C68	C	0.039987	1.117102	0.712600
C69	C	0.039984	1.117093	0.608499
C70	C	0.078647	1.055917	0.556458
H71	H	0.081400	0.784406	-0.163555
C72	C	-0.210466	1.059900	-0.189327
C73	C	-0.208694	1.137740	-0.263698
C74	C	-0.241356	1.137143	-0.362877
C75	C	-0.275790	1.058705	-0.387684
C76	C	-0.277564	0.980859	-0.313311
C77	C	-0.244901	0.981457	-0.214132
H78	H	-0.183202	1.195809	-0.245336
H79	H	-0.240043	1.194770	-0.417933
H80	H	-0.299969	1.058263	-0.461102
H81	H	-0.303055	0.922790	-0.331673
H82	H	-0.246214	0.923830	-0.159076
C83	C	0.078098	0.510021	-0.189311
C84	C	0.028535	0.507805	-0.263695
C85	C	0.029160	0.559123	-0.362864
C86	C	0.079349	0.612657	-0.387650
C87	C	0.128916	0.614874	-0.313264
C88	C	0.128290	0.563556	-0.214095
H89	H	-0.008621	0.468175	-0.245348
H90	H	-0.007533	0.557482	-0.417929
H91	H	0.079812	0.650645	-0.461061
H92	H	0.166071	0.654505	-0.331610
H93	H	0.164983	0.565198	-0.159030
H94	H	-0.367496	1.056939	0.253735
C95	C	0.159829	0.927435	0.230182
C96	C	0.202377	0.860190	0.287443
C97	C	0.244904	0.792897	0.230197
C98	C	0.244882	0.792850	0.115690
C99	C	0.202333	0.860098	0.058422
C100	C	0.159806	0.927390	0.115668
H101	H	0.202394	0.860222	0.372214
H102	H	0.276402	0.743116	0.272591
H103	H	0.276363	0.743036	0.073312
H104	H	0.202316	0.860065	-0.026349
H105	H	0.128308	0.977172	0.073275
H106	H	-0.094200	1.062070	-0.163558
H107	H	-0.201980	1.060020	0.163579
C108	C	-0.756979	1.049625	-0.189310
C109	C	-0.791408	0.971181	-0.214116
C110	C	-0.824073	0.970582	-0.313291
C111	C	-0.822310	1.048426	-0.387660
C112	C	-0.787880	1.126875	-0.362856
C113	C	-0.755214	1.127475	-0.263681
H114	H	-0.792714	0.913551	-0.159062
H115	H	-0.849561	0.912508	-0.331652
H116	H	-0.846491	1.047982	-0.461075
H117	H	-0.786573	1.184505	-0.417910
H118	H	-0.729726	1.185549	-0.245320
H119	H	0.075899	0.327441	-0.163548
H120	H	0.081403	0.784375	0.163578
H121	H	0.079347	0.615149	0.163577
H122	H	0.148789	0.944937	0.566143
C123	C	-0.002543	1.184369	0.551227
C124	C	-0.046132	1.149800	0.479673
C125	C	-0.088660	1.217075	0.422399
C126	C	-0.087599	1.318918	0.436680
C127	C	-0.044008	1.353492	0.508237
C128	C	-0.001480	1.286218	0.565511
H129	H	-0.046918	1.074405	0.469098
H130	H	-0.120928	1.191480	0.369427
H131	H	-0.119081	1.368719	0.394282
H132	H	-0.043221	1.428887	0.518811
H133	H	0.030789	1.311812	0.618482
H134	H	0.008507	1.166913	0.754978
H135	H	0.079357	0.615162	-0.163547
H136	H	-0.640731	1.051818	-0.163563
H137	H	0.148782	0.944928	0.433925
H138	H	-0.475227	1.054937	-0.253714
C139	C	-0.085732	1.062187	0.189334
C140	C	-0.051303	1.140630	0.214138
C141	C	-0.018640	1.141234	0.313317
C142	C	-0.020407	1.063395	0.387690
C143	C	-0.054838	0.984945	0.362888
C144	C	-0.087501	0.984341	0.263709
H145	H	-0.049993	1.198257	0.159081
H146	H	0.006848	1.199308	0.331677
H147	H	0.003771	1.063842	0.461108
H148	H	-0.056148	0.927319	0.417945
H149	H	-0.112989	0.926267	0.245349
C150	C	0.078078	0.509982	0.189345
C151	C	0.127325	0.486555	0.263744
C152	C	0.127921	0.537848	0.362920
C153	C	0.079269	0.612569	0.387699
C154	C	0.030018	0.636000	0.313299
C155	C	0.029423	0.584706	0.214122
H156	H	0.163344	0.431239	0.245402
H157	H	0.164380	0.520503	0.417996
H158	H	0.079709	0.650539	0.461116
H159	H	-0.006001	0.691315	0.331640
H160	H	-0.007036	0.602052	0.159047
C161	C	-0.483747	1.054741	0.279486
C162	C	-0.469171	0.977205	0.353855
C163	C	-0.501843	0.976572	0.453027
C164	C	-0.549092	1.053475	0.477831
C165	C	-0.563670	1.131017	0.403460
C166	C	-0.530997	1.131650	0.304287
H167	H	-0.434193	0.920272	0.335495
H168	H	-0.491051	0.919170	0.508081
H169	H	-0.573278	1.053006	0.551245
H170	H	-0.598648	1.187950	0.421820
H171	H	-0.541789	1.189052	0.249233
H172	H	0.075893	0.327415	0.163584
H173	H	-0.367474	1.056965	-0.253715
H174	H	-0.640722	1.051743	0.163585
C175	C	-0.756994	1.049583	0.189336
C176	C	-0.791432	0.971137	0.214110
C177	C	-0.824124	0.970515	0.313264
C178	C	-0.822378	1.048340	0.387644
C179	C	-0.787938	1.126792	0.362872
C180	C	-0.755246	1.127414	0.263717
H181	H	-0.792726	0.913521	0.159048
H182	H	-0.849619	0.912439	0.331602
H183	H	-0.846578	1.047880	0.461044
H184	H	-0.786644	1.184408	0.417934
H185	H	-0.729752	1.185490	0.245380
H186	H	0.008500	1.166870	0.245035
H187	H	0.008501	1.166877	0.433890
H188	H	0.148794	0.944961	0.755003
