data_functionalizedCrystal
_audit_creation_method	'MofGen! by Chris Wilmer'
_symmetry_space_group_name_H-M	'P1'
_symmetry_Int_Tables_number	1
_symmetry_cell_setting	triclinic
loop_
_symmetry_equiv_pos_as_xyz
  x,y,z
_cell_length_a	13.897449
_cell_length_b	13.897447
_cell_length_c	19.076919
_cell_angle_alpha	87.725848
_cell_angle_beta	87.720573
_cell_angle_gamma	90.020357
loop_
_atom_site_label
_atom_site_type_symbol
_atom_site_fract_x
_atom_site_fract_y
_atom_site_fract_z
Zn1	Zn	1.452731	-0.405928	0.397992
Zn2	Zn	1.952731	0.094072	0.897992
Zn3	Zn	1.459113	-0.560755	0.280304
Zn4	Zn	1.959113	-0.060755	0.780304
Zn5	Zn	1.297913	-0.399478	0.280308
Zn6	Zn	1.797913	0.100522	0.780308
Zn7	Zn	1.291399	-0.567183	0.397956
Zn8	Zn	1.791399	-0.067183	0.897956
O9	O	1.375289	-0.483336	0.339140
O10	O	1.875289	0.016664	0.839140
O11	O	1.588558	-0.426476	0.382394
O12	O	2.088558	0.073524	0.882394
O13	O	1.443127	-0.533971	0.181815
O14	O	1.943127	-0.033971	0.681815
O15	O	1.318506	-0.265353	0.295936
O16	O	1.818506	0.234647	0.795936
O17	O	1.593248	-0.540226	0.295929
O18	O	2.093248	-0.040226	0.795929
O19	O	1.432249	-0.270092	0.382398
O20	O	1.932249	0.229908	0.882398
O21	O	1.324694	-0.415482	0.181818
O22	O	1.824694	0.084518	0.681818
O23	O	1.162068	-0.421715	0.295901
O24	O	1.662068	0.078285	0.795901
O25	O	1.307402	-0.551183	0.496450
O26	O	1.807402	-0.051183	0.996450
O27	O	1.157282	-0.544928	0.382336
O28	O	1.657282	-0.044928	0.882336
O29	O	1.425932	-0.432709	0.496477
O30	O	1.925932	0.067291	0.996477
O31	O	1.436810	-0.696588	0.295894
O32	O	1.936810	-0.196588	0.795894
O33	O	1.313591	-0.701311	0.382332
O34	O	1.813591	-0.201311	0.882332
C35	C	1.124676	-0.483320	0.339116
C36	C	1.624676	0.016680	0.839116
C37	C	1.017462	-0.483337	0.339122
C38	C	1.517462	0.016663	0.839122
C39	C	0.930391	-0.483341	0.339133
C40	C	1.430391	0.016659	0.839133
C41	C	0.821158	-0.483349	0.339155
C42	C	1.321158	0.016651	0.839155
C43	C	1.375212	-0.733950	0.339124
C44	C	1.875212	-0.233950	0.839124
C45	C	1.375265	-0.841164	0.339140
C46	C	1.875265	-0.341164	0.839140
C47	C	1.375311	-0.928235	0.339156
C48	C	1.875311	-0.428235	0.839156
C49	C	1.375378	-1.037468	0.339174
C50	C	1.875378	-0.537468	0.839174
C51	C	1.626881	-0.483353	0.339165
C52	C	2.126881	0.016647	0.839165
C53	C	1.734094	-0.483360	0.339176
C54	C	2.234094	0.016640	0.839176
C55	C	1.365229	-0.493383	0.522714
C56	C	1.865229	0.006617	1.022714
C57	C	1.360942	-0.497664	0.600943
C58	C	1.860942	0.002336	1.100943
C59	C	1.375392	-0.231745	0.339172
C60	C	1.875392	0.268255	0.839172
C61	C	1.375436	-0.124532	0.339185
C62	C	1.875436	0.375468	0.839185
C63	C	1.385366	-0.473259	0.156280
C64	C	1.885366	0.026741	0.656280
C65	C	1.389840	-0.468706	0.078052
C66	C	1.889840	0.031294	0.578052
C67	C	1.420637	-0.437995	0.637710
C68	C	1.920637	0.062005	1.137710
C69	C	1.416597	-0.442014	0.711214
C70	C	1.916597	0.057986	1.211214
C71	C	1.352866	-0.505707	0.747949
C72	C	1.852866	-0.005707	1.247949
C73	C	1.293164	-0.565378	0.711177
C74	C	1.793164	-0.065378	1.211177
C75	C	1.297200	-0.561354	0.637675
C76	C	1.797200	-0.061354	1.137675
C77	C	1.334174	-0.524353	0.967777
C78	C	1.834174	-0.024353	1.467777
C79	C	1.330145	-0.528375	1.041285
C80	C	1.830145	-0.028375	1.541285
C81	C	1.453576	-0.405009	1.041316
C82	C	1.953576	0.094991	1.541316
C83	C	1.457611	-0.400994	0.967812
C84	C	1.957611	0.099006	1.467812
C85	C	1.397905	-0.460662	0.931047
C86	C	1.897905	0.039338	1.431047
N87	N	1.348737	-0.509819	0.823082
N88	N	1.848737	-0.009819	1.323082
N89	N	1.402030	-0.456544	0.855915
N90	N	1.902030	0.043456	1.355915
H91	H	1.472536	-0.386132	0.607805
H92	H	1.972536	0.113868	1.107805
H93	H	1.509510	-0.349131	0.937907
H94	H	2.009510	0.150869	1.437907
H95	H	1.465209	-0.393428	0.741146
H96	H	1.965209	0.106572	1.241146
Br97	Br	1.243644	-0.614818	1.091140
Br98	Br	1.743644	-0.114818	1.591140
Br99	Br	1.534598	-0.324035	1.091216
Br100	Br	2.034598	0.175965	1.591216
Br101	Br	1.206665	-0.651814	0.761032
Br102	Br	1.706665	-0.151814	1.261032
Br103	Br	1.253143	-0.605329	0.917890
Br104	Br	1.753143	-0.105329	1.417890
Br105	Br	1.216176	-0.642330	0.587776
Br106	Br	1.716176	-0.142330	1.087776
