data_functionalizedCrystal
_audit_creation_method	'MofGen! by Chris Wilmer'
_symmetry_space_group_name_H-M	'P1'
_symmetry_Int_Tables_number	1
_symmetry_cell_setting	triclinic
loop_
_symmetry_equiv_pos_as_xyz
  x,y,z
_cell_length_a	14.044191
_cell_length_b	15.944493
_cell_length_c	13.101039
_cell_angle_alpha	93.367629
_cell_angle_beta	86.337551
_cell_angle_gamma	88.333410
loop_
_atom_site_label
_atom_site_type_symbol
_atom_site_fract_x
_atom_site_fract_y
_atom_site_fract_z
O1	O	1.262884	0.198294	-0.085140
O2	O	1.596218	0.531628	0.248193
O3	O	1.929551	0.864961	0.581527
O4	O	0.986917	0.190980	-0.085154
O5	O	1.320250	0.524313	0.248180
O6	O	1.653583	0.857647	0.581513
O7	O	1.132466	0.072925	-0.085155
O8	O	1.465799	0.406259	0.248178
O9	O	1.799132	0.739592	0.581512
O10	O	1.117335	0.316349	-0.085139
O11	O	1.450669	0.649683	0.248195
O12	O	1.784002	0.983016	0.581528
O13	O	1.122023	0.081411	0.085275
O14	O	1.455356	0.414744	0.418608
O15	O	1.788689	0.748078	0.751942
O16	O	0.976474	0.199466	0.085276
O17	O	1.309807	0.532799	0.418610
O18	O	1.643141	0.866132	0.751943
O19	O	1.252441	0.206780	0.085290
O20	O	1.585775	0.540113	0.418623
O21	O	1.919108	0.873447	0.751957
Zn22	Zn	1.112800	0.204470	0.112343
Zn23	Zn	1.446133	0.537803	0.445676
Zn24	Zn	1.779466	0.871137	0.779009
Zn25	Zn	1.126559	0.193290	-0.112206
Zn26	Zn	1.459892	0.526623	0.221127
Zn27	Zn	1.793225	0.859957	0.554460
O28	O	1.106892	0.324835	0.085291
O29	O	1.440226	0.658168	0.418625
O30	O	1.773559	0.991501	0.751958
C31	C	0.946382	0.192023	0.000059
C32	C	1.279715	0.525357	0.333393
C33	C	1.613048	0.858690	0.666726
C34	C	0.841158	0.182479	0.000053
C35	C	1.174491	0.515812	0.333387
C36	C	1.507824	0.849146	0.666720
C37	C	0.590862	0.232718	0.000067
C38	C	0.924195	0.566052	0.333400
C39	C	1.257528	0.899385	0.666734
C40	C	0.648503	0.165045	0.000061
C41	C	0.981836	0.498378	0.333394
C42	C	1.315169	0.831712	0.666727
C43	C	0.755706	0.174748	0.000056
C44	C	1.089039	0.508081	0.333390
C45	C	1.422372	0.841414	0.666723
C46	C	0.483649	0.223017	0.000071
C47	C	0.816982	0.556350	0.333404
C48	C	1.150315	0.889684	0.666738
C49	C	1.126626	0.045827	0.000056
C50	C	1.459960	0.379160	0.333389
C51	C	1.793293	0.712493	0.666722
C52	C	1.124773	-0.047561	0.000043
C53	C	1.458106	0.285772	0.333376
C54	C	1.791440	0.619105	0.666709
C55	C	1.210445	-0.276903	0.000066
C56	C	1.543778	0.056430	0.333400
C57	C	1.877112	0.389764	0.666733
C58	C	1.169394	-0.335115	-0.083966
C59	C	1.502727	-0.001782	0.249367
C60	C	1.836060	0.331551	0.582700
C61	C	1.121337	-0.218539	0.000055
C62	C	1.454671	0.114794	0.333388
C63	C	1.788004	0.448128	0.666722
C64	C	1.159077	-0.326727	0.084064
C65	C	1.492410	0.006606	0.417398
C66	C	1.825744	0.339940	0.750731
C67	C	1.118025	-0.383696	0.000071
C68	C	1.451358	-0.050363	0.333405
C69	C	1.784691	0.282971	0.666738
C70	C	1.080314	-0.275525	-0.084047
C71	C	1.413647	0.057808	0.249286
C72	C	1.746981	0.391142	0.582620
C73	C	1.070006	-0.267128	0.084059
C74	C	1.403339	0.066205	0.417392
C75	C	1.736672	0.399538	0.750726
C76	C	1.028890	-0.325314	0.000006
C77	C	1.362224	0.008020	0.333339
C78	C	1.695557	0.341353	0.666672
C79	C	1.123248	-0.123397	0.000045
C80	C	1.456581	0.209937	0.333378
C81	C	1.789915	0.543270	0.666711
C82	C	1.116107	-0.478836	0.000074
C83	C	1.449441	-0.145503	0.333408
C84	C	1.782774	0.187830	0.666741
C85	C	1.292977	0.205737	0.000075
C86	C	1.626310	0.539070	0.333408
C87	C	1.959643	0.872403	0.666742
C88	C	1.398201	0.215280	0.000074
C89	C	1.731534	0.548614	0.333407
C90	C	2.064868	0.881947	0.666741
C91	C	1.112732	0.351933	0.000078
C92	C	1.446065	0.685267	0.333412
C93	C	1.779399	1.018600	0.666745
C94	C	1.114586	0.445321	0.000085
C95	C	1.447919	0.778654	0.333418
C96	C	1.781252	1.111988	0.666752
N97	N	1.103416	0.212100	0.265591
N98	N	1.436750	0.545434	0.598925
N99	N	1.770083	0.878767	0.932258
N100	N	1.135949	0.185654	-0.265455
N101	N	1.469283	0.518987	0.067879
N102	N	1.802616	0.852320	0.401212
C103	C	1.090650	0.222489	0.474634
C104	C	1.423983	0.555822	0.807967
C105	C	1.757317	0.889156	1.141301
C106	C	1.148713	0.175267	0.525509
C107	C	1.482046	0.508601	0.858842
C108	C	1.815379	0.841934	1.192176
C109	C	1.141609	0.181048	0.641828
C110	C	1.474943	0.514381	0.975161
C111	C	1.808276	0.847715	1.308494
C112	C	1.097752	0.216710	0.358305
C113	C	1.431085	0.550043	0.691638
C114	C	1.764419	0.883376	1.024972
H115	H	0.617343	0.099818	-0.000016
H116	H	0.950676	0.433151	0.333317
H117	H	1.284010	0.766484	0.666651
H118	H	1.028053	-0.237447	0.155102
H119	H	1.361387	0.095887	0.488435
H120	H	1.694720	0.429220	0.821769
O121	O	0.632133	0.319112	0.000070
O122	O	0.965466	0.652445	0.333403
O123	O	1.298800	0.985778	0.666737
H124	H	0.612042	0.350253	-0.069390
H125	H	0.945376	0.683586	0.263944
H126	H	1.278709	1.016919	0.597277
O127	O	1.312114	-0.248571	-0.000038
O128	O	1.645447	0.084763	0.333296
O129	O	1.978781	0.418096	0.666629
H130	H	1.353169	-0.275970	-0.069900
H131	H	1.686502	0.057363	0.263433
H132	H	2.019835	0.390696	0.596766
H133	H	1.211378	-0.364780	-0.155007
H134	H	1.544712	-0.031446	0.178326
H135	H	1.878045	0.301887	0.511660
H136	H	1.047062	-0.253063	-0.155166
H137	H	1.380395	0.080270	0.178167
H138	H	1.713728	0.413603	0.511501
O139	O	1.203167	-0.356620	0.178175
O140	O	1.536501	-0.023287	0.511508
O141	O	1.869834	0.310046	0.844842
H142	H	1.278481	-0.337337	0.177994
H143	H	1.611814	-0.004004	0.511327
H144	H	1.945147	0.329330	0.844660
H145	H	0.952078	-0.346536	-0.000044
H146	H	1.285411	-0.013202	0.333289
H147	H	1.618745	0.320131	0.666623
O148	O	1.221630	0.115964	0.467501
O149	O	1.554963	0.449297	0.800834
O150	O	1.888296	0.782631	1.134167
H151	H	1.215844	0.120675	0.383918
H152	H	1.549178	0.454008	0.717252
H153	H	1.882511	0.787341	1.050585
O154	O	1.017750	0.281799	0.532642
O155	O	1.351083	0.615133	0.865975
O156	O	1.684416	0.948466	1.199308
H157	H	1.023552	0.277096	0.616223
H158	H	1.356886	0.610429	0.949556
H159	H	1.690219	0.943763	1.282889
