data_functionalizedCrystal
_audit_creation_method	'MofGen! by Chris Wilmer'
_symmetry_space_group_name_H-M	'P1'
_symmetry_Int_Tables_number	1
_symmetry_cell_setting	triclinic
loop_
_symmetry_equiv_pos_as_xyz
  x,y,z
_cell_length_a	10.723024
_cell_length_b	15.944551
_cell_length_c	9.798715
_cell_angle_alpha	90.004100
_cell_angle_beta	90.003391
_cell_angle_gamma	83.983304
loop_
_atom_site_label
_atom_site_type_symbol
_atom_site_fract_x
_atom_site_fract_y
_atom_site_fract_z
O1	O	1.655699	0.117808	0.113485
O2	O	1.292404	0.129085	0.113490
O3	O	1.483972	0.001228	0.113475
O4	O	1.464131	0.245664	0.113500
O5	O	1.483958	0.001228	-0.113507
O6	O	1.292390	0.129084	-0.113492
O7	O	1.655685	0.117808	-0.113497
Zn8	Zn	1.474035	0.123446	-0.149533
Zn9	Zn	1.474054	0.123446	0.149526
O10	O	1.464116	0.245664	-0.113482
C11	C	1.245908	0.128264	-0.000000
C12	C	1.107384	0.125809	0.000001
C13	C	1.031498	0.197350	0.000009
C14	C	0.888327	0.194814	0.000011
C15	C	1.483141	-0.030070	-0.000016
C16	C	1.480672	-0.123331	-0.000017
C17	C	1.356026	-0.338901	0.000004
C18	C	1.413901	-0.399587	-0.111913
C19	C	1.476205	-0.294082	-0.000006
C20	C	1.413943	-0.399570	0.111874
C21	C	1.471880	-0.459020	0.000010
C22	C	1.534112	-0.353540	-0.112015
C23	C	1.534137	-0.353517	0.111872
C24	C	1.592099	-0.414184	-0.000072
C25	C	1.478692	-0.199066	-0.000016
C26	C	1.469402	-0.554035	0.000011
C27	C	1.702181	0.118629	-0.000003
C28	C	1.840704	0.121084	0.000004
C29	C	1.464947	0.276963	0.000012
C30	C	1.467417	0.370223	0.000022
N31	N	1.474031	0.123445	-0.353632
C32	C	1.554469	0.069525	-0.421415
C33	C	1.554489	0.069522	-0.578578
N34	N	1.474067	0.123441	0.353626
H35	H	1.256273	-0.306164	-0.000106
H36	H	0.823120	0.256060	0.000024
C37	C	1.086427	0.281444	0.000080
C38	C	1.217512	0.267241	0.000107
C39	C	1.268150	0.344690	0.000187
H40	H	1.059174	0.312555	-0.079050
H41	H	1.059123	0.312502	0.079268
H42	H	1.244804	0.236196	-0.079074
H43	H	1.244799	0.236143	0.079230
H44	H	1.240846	0.375748	0.079375
H45	H	1.240889	0.375795	-0.078944
H46	H	1.357096	0.335064	0.000218
H47	H	1.066360	0.062682	0.000030
C48	C	1.345888	-0.426729	-0.237954
C49	C	1.222350	-0.388285	-0.237425
C50	C	1.159648	-0.413272	-0.353497
H51	H	1.387618	-0.410213	-0.317526
H52	H	1.345406	-0.486278	-0.237463
H53	H	1.222839	-0.328749	-0.237929
H54	H	1.180586	-0.404796	-0.157879
H55	H	1.159166	-0.472822	-0.353006
H56	H	1.201388	-0.396755	-0.433060
H57	H	1.075818	-0.387198	-0.353147
H58	H	1.623316	0.023361	-0.363098
C59	C	0.927779	0.039476	0.000209
C60	C	1.003393	0.036409	0.116970
C61	C	1.083642	-0.038749	0.117196
H62	H	0.879486	-0.007178	0.000275
H63	H	0.979238	0.037236	-0.078903
H64	H	0.951940	0.038640	0.196062
H65	H	1.051712	0.083046	0.116929
H66	H	1.135101	-0.040989	0.038084
H67	H	1.035339	-0.085398	0.117258
H68	H	1.134963	-0.040837	0.196410
H69	H	1.623359	0.023362	-0.636869
H70	H	1.584893	-0.333259	-0.206736
C71	C	1.725245	-0.457601	-0.000433
C72	C	1.787562	-0.434258	-0.117819
C73	C	1.910209	-0.474247	-0.118214
H74	H	1.768410	-0.441162	0.078221
H75	H	1.723004	-0.517008	0.000246
H76	H	1.789810	-0.374865	-0.118486
H77	H	1.744436	-0.450699	-0.196492
H78	H	1.907968	-0.533654	-0.117534
H79	H	1.953361	-0.457805	-0.039555
H80	H	1.952502	-0.458421	-0.197864
C81	C	1.601652	-0.326306	0.238197
C82	C	1.538311	-0.349359	0.355067
C83	C	1.600448	-0.324293	0.471474
H84	H	1.685049	-0.353105	0.239192
H85	H	1.603351	-0.266857	0.236899
H86	H	1.536625	-0.408797	0.356366
H87	H	1.454918	-0.322562	0.354118
H88	H	1.602147	-0.264844	0.470175
H89	H	1.683843	-0.351095	0.472454
H90	H	1.557474	-0.339924	0.550783
H91	H	1.363103	-0.419938	0.206497
C92	C	1.382434	0.185044	-0.568496
C93	C	1.449199	0.236672	-0.486421
C94	C	1.364830	0.293423	-0.414638
H95	H	1.331947	0.218952	-0.631262
H96	H	1.330411	0.154606	-0.512686
H97	H	1.501201	0.267107	-0.542226
H98	H	1.499682	0.202787	-0.423630
H99	H	1.312807	0.262986	-0.358828
H100	H	1.314348	0.327325	-0.477413
H101	H	1.410118	0.328454	-0.358932
H102	H	1.405176	0.169603	-0.411951
