data_functionalizedCrystal
_audit_creation_method	'MofGen! by Chris Wilmer'
_symmetry_space_group_name_H-M	'P1'
_symmetry_Int_Tables_number	1
_symmetry_cell_setting	triclinic
loop_
_symmetry_equiv_pos_as_xyz
  x,y,z
_cell_length_a	10.685661
_cell_length_b	13.897447
_cell_length_c	10.685314
_cell_angle_alpha	94.335458
_cell_angle_beta	90.318062
_cell_angle_gamma	85.641070
loop_
_atom_site_label
_atom_site_type_symbol
_atom_site_fract_x
_atom_site_fract_y
_atom_site_fract_z
Zn1	Zn	1.863535	-0.543425	-0.856028
Zn2	Zn	1.879476	-0.693402	-0.646252
Zn3	Zn	1.669824	-0.518885	-0.630228
Zn4	Zn	1.653714	-0.691426	-0.839918
O5	O	1.766637	-0.611785	-0.743107
O6	O	2.041200	-0.574417	-0.841648
O7	O	1.865078	-0.660809	-0.468578
O8	O	1.695592	-0.387165	-0.660217
O9	O	2.052912	-0.684605	-0.687527
O10	O	1.837910	-0.405194	-0.826111
O11	O	1.711049	-0.532592	-0.456806
O12	O	1.492137	-0.530676	-0.644596
O13	O	1.668134	-0.681236	-1.017604
O14	O	1.480301	-0.657441	-0.798655
O15	O	1.822289	-0.572500	-1.029439
O16	O	1.849457	-0.828116	-0.671906
O17	O	1.683591	-0.826664	-0.814192
C18	C	1.440700	-0.591182	-0.718139
C19	C	1.301261	-0.582393	-0.707488
C20	C	1.766538	-0.862391	-0.743070
C21	C	1.766606	-0.969611	-0.743105
C22	C	1.766665	-1.056686	-0.743138
C23	C	1.766750	-1.165926	-0.743177
C24	C	2.093847	-0.632468	-0.768172
C25	C	2.233284	-0.641283	-0.778853
C26	C	1.741636	-0.629385	-1.070312
C27	C	1.730982	-0.636886	-1.209747
C28	C	1.766770	-0.360203	-0.743174
C29	C	1.766826	-0.252994	-0.743202
C30	C	1.791614	-0.594187	-0.417180
C31	C	1.802511	-0.586431	-0.277764
H32	H	1.281768	-0.698426	-0.848107
Cl33	Cl	1.909635	-0.510859	-1.202974
Cl34	Cl	1.623849	-0.712443	-1.284531
Cl35	Cl	1.226418	-0.494158	-0.600584
