data_functionalizedCrystal
_audit_creation_method	'MofGen! by Chris Wilmer'
_symmetry_space_group_name_H-M	'P1'
_symmetry_Int_Tables_number	1
_symmetry_cell_setting	triclinic
loop_
_symmetry_equiv_pos_as_xyz
  x,y,z
_cell_length_a	16.704494
_cell_length_b	14.560438
_cell_length_c	14.560438
_cell_angle_alpha	119.998503
_cell_angle_beta	90.001405
_cell_angle_gamma	123.369455
loop_
_atom_site_label
_atom_site_type_symbol
_atom_site_fract_x
_atom_site_fract_y
_atom_site_fract_z
Zr1	Zr	0.815175	-0.909271	-0.072489
O2	O	0.680049	-1.116793	-0.227093
O3	O	0.856602	-0.712787	-0.025098
O4	O	0.856593	-0.904395	-0.216698
O5	O	0.680062	-0.925182	0.115649
O6	O	0.995850	-0.887992	-0.208496
O7	O	0.680058	-0.925185	-0.035492
O8	O	0.995866	-0.545241	0.134243
O9	O	0.680045	-1.267933	-0.227090
O10	O	0.978192	-0.777274	0.001239
O11	O	0.874269	-0.789513	0.107912
O12	O	0.874258	-1.015106	-0.117673
O13	O	0.770335	-1.027345	-0.010999
Zr14	Zr	1.037280	-0.883105	0.181645
Zr15	Zr	1.037274	-0.883110	-0.059407
Zr16	Zr	0.815181	-0.909266	0.168563
Zr17	Zr	0.815170	-1.150322	-0.072485
Zr18	Zr	1.037286	-0.642054	0.181640
O19	O	0.995853	-1.079589	0.134253
O20	O	0.995845	-1.079595	-0.208492
O21	O	0.680057	-1.116786	0.115653
O22	O	1.172406	-0.675583	0.336249
O23	O	1.172398	-0.675590	-0.006497
O24	O	0.856610	-0.712781	0.317648
O25	O	1.172394	-0.867194	-0.006493
O26	O	0.995863	-0.887981	0.325854
O27	O	0.856605	-0.904384	0.317652
O28	O	1.172397	-0.867191	0.144648
O29	O	0.856585	-1.247139	-0.216692
O30	O	0.995871	-0.545237	0.325847
O31	O	1.172410	-0.524443	0.336246
O32	O	1.172405	-0.524447	0.144641
O33	O	0.680050	-1.267929	-0.035485
O34	O	0.856589	-1.247135	-0.025087
O35	O	0.978197	-0.777270	0.226829
O36	O	1.082121	-0.765030	0.120155
O37	O	0.978187	-1.002863	0.001243
O38	O	0.874263	-1.015102	0.107917
C39	C	0.926235	-0.594670	0.054572
C40	C	0.926237	-0.492337	0.054570
C41	C	0.980485	-0.341710	-0.001107
C42	C	0.980482	-0.437867	-0.001115
C43	C	0.871982	-0.450656	0.110256
C44	C	0.871979	-0.354507	0.110256
C45	C	0.648415	-0.928911	0.038214
C46	C	0.554129	-0.940017	0.032661
C47	C	0.485469	-0.712567	0.146396
C48	C	0.396881	-0.722996	0.141181
C49	C	0.288363	-0.971302	0.017023
C50	C	0.376951	-0.960873	0.022238
C51	C	0.475503	-0.831502	0.086925
C52	C	0.564092	-0.821074	0.092133
C53	C	0.455574	-1.069378	-0.032018
C54	C	0.366986	-1.079807	-0.037233
C55	C	1.204040	-0.863465	0.070941
C56	C	1.298327	-0.852359	0.076495
C57	C	0.926225	-0.197704	0.054582
C58	C	0.926236	-0.300031	0.054578
C59	C	0.926221	-0.896194	-0.246942
C60	C	0.926218	-0.896196	-0.349275
C61	C	0.871967	-1.020339	-0.459422
C62	C	0.871979	-1.020332	-0.555570
C63	C	0.980495	-0.772026	-0.431411
C64	C	0.980489	-0.772035	-0.335265
C65	C	0.926235	-0.896182	0.356098
C66	C	0.926237	-0.896180	0.458431
C67	C	1.204047	-0.561946	0.070935
C68	C	1.298336	-0.448508	0.076487
C69	C	0.926242	-0.594664	0.356092
C70	C	0.926247	-0.492329	0.458423
C71	C	1.204054	-0.561940	0.372455
C72	C	1.298346	-0.448500	0.480340
C73	C	0.648401	-1.230435	-0.263300
C74	C	0.554110	-1.343876	-0.371184
C75	C	0.648408	-1.230430	0.038220
C76	C	0.554119	-1.343868	0.032669
C77	C	0.926213	-1.197712	-0.246936
C78	C	0.926209	-1.300047	-0.349267
C79	C	1.288366	-0.401627	0.017011
C80	C	1.376952	-0.295054	0.022204
C81	C	1.475508	-0.235357	0.086881
C82	C	1.485476	-0.282247	0.146358
C83	C	1.396891	-0.388825	0.141158
C84	C	1.396882	-0.388837	0.475322
C85	C	1.485488	-0.282260	0.576682
C86	C	1.475555	-0.235341	0.683059
C87	C	1.377008	-0.295015	0.688075
C88	C	1.288404	-0.401596	0.586716
C89	C	0.455573	-1.403550	-0.366166
C90	C	0.366967	-1.510157	-0.467527
C91	C	0.376901	-1.557081	-0.573904
C92	C	0.475448	-1.497402	-0.578919
C93	C	0.564051	-1.390803	-0.477560
C94	C	0.564089	-1.390759	0.092135
C95	C	0.475503	-1.497359	0.086915
C96	C	0.376947	-1.557059	0.022235
C97	C	0.366979	-1.510164	-0.037238
C98	C	0.455564	-1.403573	-0.032024
C99	C	0.980498	-0.437859	0.568571
C100	C	0.980490	-0.341715	0.664717
C101	C	0.871980	-0.354516	0.540553
C102	C	0.871982	-0.450665	0.444409
H103	H	0.644335	-0.715733	0.144812
H104	H	0.286723	-1.558788	-0.089900
Cl105	Cl	1.364397	-0.236123	-0.052569
H106	H	1.024665	-0.297372	0.754402
H107	H	0.286735	-1.558732	-0.463421
Cl108	Cl	0.443012	-1.344629	-0.106782
Cl109	Cl	0.609363	-0.549935	0.227700
Cl110	Cl	0.243089	-1.242436	-0.118545
H111	H	1.024680	-0.471783	0.579988
Cl112	Cl	0.803776	-1.176405	-0.694040
Cl113	Cl	0.687922	-1.315787	-0.483888
H114	H	0.304746	-1.643881	-0.656428
H115	H	1.405024	-0.426982	0.189598
Cl116	Cl	1.048680	-0.490262	-0.071125
Cl117	Cl	0.803768	-0.302127	0.522947
Cl118	Cl	1.048694	-0.615956	-0.196783
Cl119	Cl	1.409397	-0.447806	0.341603
H120	H	0.304824	-1.643852	0.017999
H121	H	1.024662	-0.297359	-0.046445
H122	H	0.827810	-0.495019	0.155589
Cl123	Cl	1.048708	-0.615948	-0.413809
Cl124	Cl	1.164478	-0.476658	-0.064311
Cl125	Cl	1.609384	-0.207179	0.227667
Cl126	Cl	1.586864	-0.101369	0.093409
Cl127	Cl	1.609363	-0.207258	0.570351
H128	H	0.644331	-1.342159	0.144812
H129	H	0.827799	-0.495020	0.354714
H130	H	1.547710	-0.148554	0.765584
H131	H	0.827798	-0.320577	0.155600
H132	H	0.447465	-1.166224	-0.080447
H133	H	0.827777	-1.121439	-0.470836
H134	H	1.368935	-0.256797	0.774701
Cl135	Cl	0.409414	-0.573472	0.215951
H136	H	1.208175	-0.450161	0.590817
H137	H	0.208111	-1.076629	-0.035627
H138	H	0.447465	-1.365352	-0.279558
H139	H	0.483523	-1.535621	-0.665544
Cl140	Cl	0.488059	-1.556284	0.161694
