data_functionalizedCrystal
_audit_creation_method	'MofGen! by Chris Wilmer'
_symmetry_space_group_name_H-M	'P1'
_symmetry_Int_Tables_number	1
_symmetry_cell_setting	triclinic
loop_
_symmetry_equiv_pos_as_xyz
  x,y,z
_cell_length_a	15.944499
_cell_length_b	17.038272
_cell_length_c	14.421503
_cell_angle_alpha	90.004327
_cell_angle_beta	89.989779
_cell_angle_gamma	87.294583
loop_
_atom_site_label
_atom_site_type_symbol
_atom_site_fract_x
_atom_site_fract_y
_atom_site_fract_z
O1	O	1.121742	0.100633	-0.077169
O2	O	1.371742	0.350633	0.172831
O3	O	1.621742	0.600633	0.422831
O4	O	1.871742	0.850633	0.672831
O5	O	0.878077	0.113107	-0.077158
O6	O	1.128077	0.363107	0.172842
O7	O	1.378077	0.613107	0.422842
O8	O	1.628077	0.863107	0.672842
O9	O	0.998461	-0.006945	-0.077156
O10	O	1.248461	0.243055	0.172844
O11	O	1.498461	0.493055	0.422844
O12	O	1.748461	0.743055	0.672844
O13	O	1.001357	0.220686	-0.077171
O14	O	1.251357	0.470686	0.172829
O15	O	1.501357	0.720686	0.422829
O16	O	1.751357	0.970686	0.672829
O17	O	0.998441	-0.006927	0.077067
O18	O	1.248441	0.243073	0.327067
O19	O	1.498441	0.493073	0.577067
O20	O	1.748441	0.743073	0.827067
O21	O	0.878057	0.113125	0.077065
O22	O	1.128057	0.363125	0.327065
O23	O	1.378057	0.613125	0.577065
O24	O	1.628057	0.863125	0.827065
O25	O	1.121721	0.100651	0.077055
O26	O	1.371721	0.350651	0.327055
O27	O	1.621721	0.600651	0.577055
O28	O	1.871721	0.850651	0.827055
Cu29	Cu	0.999887	0.106890	0.091142
Cu30	Cu	1.249887	0.356890	0.341142
Cu31	Cu	1.499887	0.606890	0.591142
Cu32	Cu	1.749887	0.856890	0.841142
Cu33	Cu	0.999911	0.106869	-0.091245
Cu34	Cu	1.249911	0.356869	0.158755
Cu35	Cu	1.499911	0.606869	0.408755
Cu36	Cu	1.749911	0.856869	0.658755
O37	O	1.001337	0.220704	0.077052
O38	O	1.251337	0.470704	0.327052
O39	O	1.501337	0.720704	0.577052
O40	O	1.751337	0.970704	0.827052
C41	C	0.846735	0.112606	-0.000045
C42	C	1.096735	0.362606	0.249955
C43	C	1.346735	0.612606	0.499955
C44	C	1.596735	0.862606	0.749955
C45	C	0.753378	0.111074	-0.000041
C46	C	1.003378	0.361074	0.249959
C47	C	1.253378	0.611074	0.499959
C48	C	1.503378	0.861074	0.749959
C49	C	0.466822	0.180822	-0.000060
C50	C	0.716822	0.430822	0.249940
C51	C	0.966822	0.680822	0.499940
C52	C	1.216822	0.930822	0.749940
C53	C	0.525272	0.144557	-0.076099
C54	C	0.775272	0.394557	0.173901
C55	C	1.025272	0.644557	0.423901
C56	C	1.275272	0.894557	0.673901
C57	C	0.417344	0.105512	-0.000062
C58	C	0.667344	0.355512	0.249938
C59	C	0.917344	0.605512	0.499938
C60	C	1.167344	0.855512	0.749938
C61	C	0.525237	0.144554	0.075953
C62	C	0.775237	0.394554	0.325953
C63	C	1.025237	0.644554	0.575953
C64	C	1.275237	0.894554	0.825953
C65	C	0.582448	0.108249	-0.000050
C66	C	0.832448	0.358249	0.249950
C67	C	1.082448	0.608249	0.499950
C68	C	1.332448	0.858249	0.749950
C69	C	0.474565	0.069226	-0.076165
C70	C	0.724565	0.319226	0.173835
C71	C	0.974565	0.569226	0.423835
C72	C	1.224565	0.819226	0.673835
C73	C	0.474524	0.069233	0.075956
C74	C	0.724524	0.319233	0.325956
C75	C	0.974524	0.569233	0.575956
C76	C	1.224524	0.819233	0.825956
C77	C	0.532953	0.032913	-0.000102
C78	C	0.782953	0.282913	0.249898
C79	C	1.032953	0.532913	0.499898
C80	C	1.282953	0.782913	0.749898
C81	C	0.322232	0.103937	-0.000070
C82	C	0.572232	0.353937	0.249930
C83	C	0.822232	0.603937	0.499930
C84	C	1.072232	0.853937	0.749930
C85	C	0.677559	0.109818	-0.000049
C86	C	0.927559	0.359818	0.249951
C87	C	1.177559	0.609818	0.499951
C88	C	1.427559	0.859818	0.749951
C89	C	0.995817	-0.036065	-0.000044
C90	C	1.245817	0.213935	0.249956
C91	C	1.495817	0.463935	0.499956
C92	C	1.745817	0.713935	0.749956
C93	C	0.987957	-0.122859	-0.000044
C94	C	1.237957	0.127141	0.249956
C95	C	1.487957	0.377141	0.499956
C96	C	1.737957	0.627141	0.749956
C97	C	1.060116	-0.172964	-0.000046
C98	C	1.310116	0.077036	0.249954
C99	C	1.560116	0.327036	0.499954
C100	C	1.810116	0.577036	0.749954
C101	C	1.052726	-0.254516	-0.000055
C102	C	1.302726	-0.004516	0.249945
C103	C	1.552726	0.245484	0.499945
C104	C	1.802726	0.495484	0.749945
C105	C	0.973177	-0.285960	-0.000055
C106	C	1.223177	-0.035960	0.249945
C107	C	1.473177	0.214040	0.499945
C108	C	1.723177	0.464040	0.749945
C109	C	0.901013	-0.235849	-0.000055
C110	C	1.151013	0.014151	0.249945
C111	C	1.401013	0.264151	0.499945
C112	C	1.651013	0.514151	0.749945
C113	C	0.908404	-0.154299	-0.000054
C114	C	1.158404	0.095701	0.249946
C115	C	1.408404	0.345701	0.499946
C116	C	1.658404	0.595701	0.749946
C117	C	0.947068	-0.531721	-0.000066
C118	C	1.197068	-0.281721	0.249934
C119	C	1.447068	-0.031721	0.499934
C120	C	1.697068	0.218279	0.749934
C121	C	0.939682	-0.613278	-0.000065
C122	C	1.189682	-0.363278	0.249935
C123	C	1.439682	-0.113278	0.499935
C124	C	1.689682	0.136722	0.749935
C125	C	1.091396	-0.631939	-0.000067
C126	C	1.341396	-0.381939	0.249933
C127	C	1.591396	-0.131939	0.499933
C128	C	1.841396	0.118061	0.749933
C129	C	1.098780	-0.550387	-0.000059
C130	C	1.348780	-0.300387	0.249941
C131	C	1.598780	-0.050387	0.499941
C132	C	1.848780	0.199613	0.749941
C133	C	1.026616	-0.500282	-0.000065
C134	C	1.276616	-0.250282	0.249935
C135	C	1.526616	-0.000282	0.499935
C136	C	1.776616	0.249718	0.749935
C137	C	0.965622	-0.369319	-0.000060
C138	C	1.215622	-0.119319	0.249940
C139	C	1.465622	0.130681	0.499940
C140	C	1.715622	0.380681	0.749940
C141	C	1.034172	-0.416925	-0.000066
C142	C	1.284172	-0.166925	0.249934
C143	C	1.534172	0.083075	0.499934
C144	C	1.784172	0.333075	0.749934
C145	C	1.153063	0.101153	-0.000060
C146	C	1.403063	0.351153	0.249940
C147	C	1.653063	0.601153	0.499940
C148	C	1.903063	0.851153	0.749940
C149	C	1.246420	0.102684	-0.000071
C150	C	1.496420	0.352684	0.249929
C151	C	1.746420	0.602684	0.499929
C152	C	1.996420	0.852684	0.749929
C153	C	1.003981	0.249823	-0.000061
C154	C	1.253981	0.499823	0.249939
C155	C	1.503981	0.749823	0.499939
C156	C	1.753981	0.999823	0.749939
C157	C	1.011841	0.336617	-0.000067
C158	C	1.261841	0.586617	0.249933
C159	C	1.511841	0.836617	0.499933
C160	C	1.761841	1.086617	0.749933
N161	N	0.999877	0.106904	0.219423
N162	N	1.249877	0.356904	0.469423
N163	N	1.499877	0.606904	0.719423
N164	N	1.749877	0.856904	0.969423
N165	N	0.999928	0.106848	-0.219527
N166	N	1.249928	0.356848	0.030473
N167	N	1.499928	0.606848	0.280473
N168	N	1.749928	0.856848	0.530473
C169	C	0.944199	0.162391	0.469076
C170	C	1.194199	0.412391	0.719076
C171	C	1.444199	0.662391	0.969076
C172	C	1.694199	0.912391	1.219076
C173	C	1.021183	0.177557	0.530874
C174	C	1.271183	0.427557	0.780874
C175	C	1.521183	0.677557	1.030874
C176	C	1.771183	0.927557	1.280874
C177	C	0.999896	0.106885	0.408584
C178	C	1.249896	0.356885	0.658584
C179	C	1.499896	0.606885	0.908584
C180	C	1.749896	0.856885	1.158584
C181	C	0.922932	0.091738	0.530880
C182	C	1.172932	0.341738	0.780880
C183	C	1.422932	0.591738	1.030880
C184	C	1.672932	0.841738	1.280880
C185	C	0.999907	0.106869	0.591306
C186	C	1.249907	0.356869	0.841306
C187	C	1.499907	0.606869	1.091306
C188	C	1.749907	0.856869	1.341306
C189	C	1.076921	0.122086	0.469022
C190	C	1.326921	0.372086	0.719022
C191	C	1.576921	0.622086	0.969022
C192	C	1.826921	0.872086	1.219022
C193	C	0.978618	0.036236	0.469023
C194	C	1.228618	0.286236	0.719023
C195	C	1.478618	0.536236	0.969023
C196	C	1.728618	0.786236	1.219023
C197	C	1.055655	0.051372	0.530793
C198	C	1.305655	0.301372	0.780793
C199	C	1.555655	0.551372	1.030793
C200	C	1.805655	0.801372	1.280793
C201	C	0.999888	0.106897	0.303323
C202	C	1.249888	0.356897	0.553323
C203	C	1.499888	0.606897	0.803323
C204	C	1.749888	0.856897	1.053323
C205	C	0.999924	0.106857	0.696565
C206	C	1.249924	0.356857	0.946565
C207	C	1.499924	0.606857	1.196565
C208	C	1.749924	0.856857	1.446565
H209	H	0.547579	0.176427	0.140236
H210	H	0.797579	0.426427	0.390236
H211	H	1.047579	0.676427	0.640236
H212	H	1.297579	0.926427	0.890236
H213	H	0.960587	-0.023484	0.441833
H214	H	1.210587	0.226516	0.691833
H215	H	1.460587	0.476516	0.941833
H216	H	1.710587	0.726516	1.191833
H217	H	0.452126	0.037414	0.140247
H218	H	0.702126	0.287414	0.390247
H219	H	0.952126	0.537414	0.640247
H220	H	1.202126	0.787414	0.890247
H221	H	0.452322	0.037394	-0.140522
H222	H	0.702322	0.287394	0.109478
H223	H	0.952322	0.537394	0.359478
H224	H	1.202322	0.787394	0.609478
H225	H	1.142032	0.134963	0.441965
H226	H	1.392032	0.384963	0.691965
H227	H	1.642032	0.634963	0.941965
H228	H	1.892032	0.884963	1.191965
H229	H	1.039191	0.237297	0.558041
H230	H	1.289191	0.487297	0.808041
H231	H	1.539191	0.737297	1.058041
H232	H	1.789191	0.987297	1.308041
H233	H	1.102816	0.004423	0.557722
H234	H	1.352816	0.254423	0.807722
H235	H	1.602816	0.504423	1.057722
H236	H	1.852816	0.754423	1.307722
H237	H	1.124893	-0.147369	-0.000041
H238	H	1.374893	0.102631	0.249959
H239	H	1.624893	0.352631	0.499959
H240	H	1.874893	0.602631	0.749959
H241	H	0.561664	-0.029643	-0.000139
H242	H	0.811664	0.220357	0.249861
H243	H	1.061664	0.470357	0.499861
H244	H	1.311664	0.720357	0.749861
H245	H	0.897151	0.209369	0.441977
H246	H	1.147151	0.459369	0.691977
H247	H	1.397151	0.709369	0.941977
H248	H	1.647151	0.959369	1.191977
H249	H	1.111485	-0.295309	-0.000055
H250	H	1.361485	-0.045309	0.249945
H251	H	1.611485	0.204691	0.499945
H252	H	1.861485	0.454691	0.749945
H253	H	0.857840	0.078933	0.558054
H254	H	1.107840	0.328933	0.808054
H255	H	1.357840	0.578933	1.058054
H256	H	1.607840	0.828933	1.308054
H257	H	1.163557	-0.524791	-0.000059
H258	H	1.413557	-0.274791	0.249941
H259	H	1.663557	-0.024791	0.499941
H260	H	1.913557	0.225209	0.749941
H261	H	1.150147	-0.672743	-0.000064
H262	H	1.400147	-0.422743	0.249936
H263	H	1.650147	-0.172743	0.499936
H264	H	1.900147	0.077257	0.749936
H265	H	0.547653	0.176405	-0.140385
H266	H	0.797653	0.426405	0.109615
H267	H	1.047653	0.676405	0.359615
H268	H	1.297653	0.926405	0.609615
H269	H	0.437954	0.243322	-0.000137
H270	H	0.687954	0.493322	0.249863
H271	H	0.937954	0.743322	0.499863
H272	H	1.187954	0.993322	0.749863
H273	H	0.874901	-0.638876	-0.000050
H274	H	1.124901	-0.388876	0.249950
H275	H	1.374901	-0.138876	0.499950
H276	H	1.624901	0.111124	0.749950
H277	H	0.888306	-0.490935	-0.000071
H278	H	1.138306	-0.240935	0.249929
H279	H	1.388306	0.009065	0.499929
H280	H	1.638306	0.259065	0.749929
H281	H	0.836243	-0.261457	-0.000061
H282	H	1.086243	-0.011457	0.249939
H283	H	1.336243	0.238543	0.499939
H284	H	1.586243	0.488543	0.749939
H285	H	1.098940	-0.391320	-0.000086
H286	H	1.348940	-0.141320	0.249914
H287	H	1.598940	0.108680	0.499914
H288	H	1.848940	0.358680	0.749914
H289	H	0.849644	-0.113503	-0.000052
H290	H	1.099644	0.136497	0.249948
H291	H	1.349644	0.386497	0.499948
H292	H	1.599644	0.636497	0.749948
H293	H	0.900852	-0.394930	-0.000058
H294	H	1.150852	-0.144930	0.249942
H295	H	1.400852	0.105070	0.499942
H296	H	1.650852	0.355070	0.749942
