data_functionalizedCrystal
_audit_creation_method	'MofGen! by Chris Wilmer'
_symmetry_space_group_name_H-M	'P1'
_symmetry_Int_Tables_number	1
_symmetry_cell_setting	triclinic
loop_
_symmetry_equiv_pos_as_xyz
  x,y,z
_cell_length_a	19.805407
_cell_length_b	19.076808
_cell_length_c	19.805399
_cell_angle_alpha	92.327057
_cell_angle_beta	90.019573
_cell_angle_gamma	92.323385
loop_
_atom_site_label
_atom_site_type_symbol
_atom_site_fract_x
_atom_site_fract_y
_atom_site_fract_z
Zn1	Zn	1.023914	-0.280233	0.371886
Zn2	Zn	1.019283	-0.397938	0.254147
Zn3	Zn	0.910727	-0.280252	0.258710
Zn4	Zn	0.906148	-0.397901	0.367295
O5	O	0.965018	-0.339081	0.313009
O6	O	1.118016	-0.295854	0.356279
O7	O	1.004861	-0.382351	0.160035
O8	O	0.929597	-0.181753	0.277553
O9	O	1.114613	-0.382332	0.269777
O10	O	1.012754	-0.181739	0.360703
O11	O	0.925106	-0.295887	0.163387
O12	O	0.815404	-0.295851	0.273102
O13	O	0.921791	-0.382268	0.462622
O14	O	0.812039	-0.382287	0.352879
O15	O	1.008313	-0.295818	0.465994
O16	O	1.000421	-0.496429	0.265326
O17	O	0.917301	-0.496402	0.348455
C18	C	0.789162	-0.339067	0.312988
C19	C	0.713930	-0.339079	0.312994
C20	C	0.676849	-0.384154	0.354462
C21	C	0.606160	-0.384155	0.354471
C22	C	0.572554	-0.339084	0.313009
C23	C	0.609640	-0.294004	0.271540
C24	C	0.680328	-0.294000	0.271535
C25	C	0.324567	-0.294020	0.271562
C26	C	0.253874	-0.294029	0.271569
C27	C	0.250399	-0.384175	0.354498
C28	C	0.321086	-0.384170	0.354493
C29	C	0.358167	-0.339088	0.313027
C30	C	0.434815	-0.339086	0.313018
C31	C	0.495907	-0.339089	0.313014
C32	C	0.957879	-0.521955	0.305912
C33	C	0.954888	-0.600189	0.302898
C34	C	0.996745	-0.636876	0.344809
C35	C	0.993931	-0.710385	0.341979
C36	C	0.949263	-0.747206	0.297233
C37	C	0.907400	-0.710515	0.255321
C38	C	0.910211	-0.637007	0.258155
C39	C	0.936213	-0.967059	0.284114
C40	C	0.933407	-1.040572	0.281281
C41	C	1.019937	-1.040437	0.367940
C42	C	1.022747	-0.966928	0.370768
C43	C	0.980882	-0.930243	0.328858
N44	N	0.946387	-0.822345	0.294338
N45	N	0.983755	-0.855106	0.331757
C46	C	1.141560	-0.339095	0.313031
C47	C	1.216792	-0.339101	0.313041
C48	C	0.965058	-0.339037	0.489554
C49	C	0.965074	-0.339018	0.564787
C50	C	0.972203	-0.155493	0.320149
C51	C	0.975264	-0.077259	0.323192
C52	C	0.965019	-0.339074	0.137154
C53	C	0.965141	-0.338895	0.061929
C54	C	1.010128	-0.294001	0.601888
C55	C	1.010135	-0.293980	0.672577
C56	C	0.965093	-0.338981	0.706164
C57	C	0.920035	-0.384000	0.669057
C58	C	0.920024	-0.384016	0.598369
C59	C	0.920075	-0.383934	0.954133
C60	C	0.920091	-0.383916	1.024826
C61	C	1.010187	-0.293899	1.028341
C62	C	1.010176	-0.293915	0.957653
C63	C	0.965116	-0.338931	0.920553
C64	C	0.965107	-0.338951	0.843904
C65	C	0.965104	-0.338964	0.782812
H66	H	0.575972	-0.420860	0.388237
H67	H	0.876126	-0.607137	0.224028
H68	H	0.354749	-0.257317	0.237792
O69	O	0.871459	-0.432486	0.914145
H70	H	0.900321	-0.468319	0.880541
H71	H	0.582273	-0.257304	0.237784
O72	O	1.065079	-1.080003	0.413153
H73	H	1.055617	-1.137304	0.403673
H74	H	1.046857	-0.257273	0.930311
O75	O	0.885222	-1.080291	0.233023
H76	H	0.856577	-1.042433	0.204361
O77	O	0.871431	-0.432568	0.558348
H78	H	0.838223	-0.401060	0.527369
O79	O	0.871447	-0.432534	0.705277
H80	H	0.879025	-0.424964	0.760665
O81	O	1.039078	-0.749957	0.387181
H82	H	1.070616	-0.712003	0.418766
O83	O	0.357330	-0.432780	0.399218
H84	H	0.390777	-0.401315	0.434916
O85	O	0.210407	-0.432794	0.399234
H86	H	0.155608	-0.425221	0.392282
H87	H	0.226514	-0.257323	0.237806
H88	H	1.046809	-0.257358	0.574547
H89	H	0.902127	-0.937196	0.249987
H90	H	0.704206	-0.420858	0.388223
H91	H	1.046874	-0.257242	1.058557
H92	H	0.871028	-0.740500	0.218891
O93	O	0.720328	-0.245392	0.226802
H94	H	0.685085	-0.214059	0.197964
H95	H	1.033122	-0.606900	0.381243
O96	O	1.070926	-0.927219	0.419031
H97	H	1.065854	-0.869940	0.413956
O98	O	1.058732	-0.245431	0.712597
H99	H	1.090058	-0.214150	0.677366
H100	H	0.883409	-0.420562	1.052170
