data_functionalizedCrystal
_audit_creation_method	'MofGen! by Chris Wilmer'
_symmetry_space_group_name_H-M	'P1'
_symmetry_Int_Tables_number	1
_symmetry_cell_setting	triclinic
loop_
_symmetry_equiv_pos_as_xyz
  x,y,z
_cell_length_a	23.532407
_cell_length_b	15.944493
_cell_length_c	15.021413
_cell_angle_alpha	89.993251
_cell_angle_beta	89.999348
_cell_angle_gamma	83.161861
loop_
_atom_site_label
_atom_site_type_symbol
_atom_site_fract_x
_atom_site_fract_y
_atom_site_fract_z
O1	O	0.073285	1.113942	-0.074030
O2	O	0.323285	1.363942	0.175970
O3	O	0.573285	1.613942	0.425970
O4	O	0.823285	1.863942	0.675970
O5	O	0.082375	0.869309	-0.074035
O6	O	0.332375	1.119309	0.175965
O7	O	0.582375	1.369309	0.425965
O8	O	0.832375	1.619309	0.675965
O9	O	-0.005074	0.999002	-0.074016
O10	O	0.244926	1.249002	0.175984
O11	O	0.494926	1.499002	0.425984
O12	O	0.744926	1.749002	0.675984
O13	O	0.160734	0.984248	-0.074049
O14	O	0.410734	1.234248	0.175951
O15	O	0.660734	1.484248	0.425951
O16	O	0.910734	1.734248	0.675951
O17	O	-0.005062	0.998981	0.074048
O18	O	0.244938	1.248981	0.324048
O19	O	0.494938	1.498981	0.574048
O20	O	0.744938	1.748981	0.824048
O21	O	0.082388	0.869288	0.074029
O22	O	0.332388	1.119288	0.324029
O23	O	0.582388	1.369288	0.574029
O24	O	0.832388	1.619288	0.824029
O25	O	0.073298	1.113921	0.074035
O26	O	0.323298	1.363921	0.324035
O27	O	0.573298	1.613921	0.574035
O28	O	0.823298	1.863921	0.824035
Zn29	Zn	0.077845	0.991601	0.097540
Zn30	Zn	0.327845	1.241601	0.347540
Zn31	Zn	0.577845	1.491601	0.597540
Zn32	Zn	0.827845	1.741601	0.847540
Zn33	Zn	0.077828	0.991628	-0.097541
Zn34	Zn	0.327828	1.241628	0.152459
Zn35	Zn	0.577828	1.491628	0.402459
Zn36	Zn	0.827828	1.741628	0.652459
O37	O	0.160747	0.984228	0.074015
O38	O	0.410747	1.234228	0.324015
O39	O	0.660747	1.484228	0.574015
O40	O	0.910747	1.734228	0.824015
C41	C	0.082010	0.838007	-0.000003
C42	C	0.332010	1.088007	0.249997
C43	C	0.582010	1.338007	0.499997
C44	C	0.832010	1.588007	0.749997
C45	C	0.080896	0.744768	-0.000005
C46	C	0.330896	0.994768	0.249995
C47	C	0.580896	1.244768	0.499995
C48	C	0.830896	1.494768	0.749995
C49	C	0.132371	0.508574	-0.000016
C50	C	0.382371	0.758574	0.249984
C51	C	0.632371	1.008574	0.499984
C52	C	0.882371	1.258574	0.749984
C53	C	0.104619	0.458239	0.072997
C54	C	0.354619	0.708239	0.322997
C55	C	0.604619	0.958239	0.572997
C56	C	0.854619	1.208239	0.822997
C57	C	0.078832	0.574064	-0.000003
C58	C	0.328832	0.824064	0.249997
C59	C	0.578832	1.074064	0.499997
C60	C	0.828832	1.324064	0.749997
C61	C	0.104594	0.458264	-0.072983
C62	C	0.354594	0.708264	0.177017
C63	C	0.604594	0.958264	0.427017
C64	C	0.854594	1.208264	0.677017
C65	C	0.076843	0.409171	-0.000004
C66	C	0.326843	0.659171	0.249996
C67	C	0.576843	0.909171	0.499996
C68	C	0.826843	1.159171	0.749996
C69	C	0.051095	0.524957	0.073070
C70	C	0.301095	0.774957	0.323070
C71	C	0.551095	1.024957	0.573070
C72	C	0.801095	1.274957	0.823070
C73	C	0.051077	0.524986	-0.072975
C74	C	0.301077	0.774986	0.177025
C75	C	0.551077	1.024986	0.427025
C76	C	0.801077	1.274986	0.677025
C77	C	0.023286	0.474684	0.000056
C78	C	0.273286	0.724684	0.250056
C79	C	0.523286	0.974684	0.500056
C80	C	0.773286	1.224684	0.750056
C81	C	0.079980	0.669054	-0.000001
C82	C	0.329980	0.919054	0.249999
C83	C	0.579980	1.169054	0.499999
C84	C	0.829980	1.419054	0.749999
C85	C	0.075691	0.314184	0.000000
C86	C	0.325691	0.564184	0.250000
C87	C	0.575691	0.814184	0.500000
C88	C	0.825691	1.064184	0.750000
C89	C	-0.026285	0.998616	0.000019
C90	C	0.223715	1.248616	0.250019
C91	C	0.473715	1.498616	0.500019
C92	C	0.723715	1.748616	0.750019
C93	C	-0.089506	0.997486	0.000025
C94	C	0.160494	1.247486	0.250025
C95	C	0.410494	1.497486	0.500025
C96	C	0.660494	1.747486	0.750025
C97	C	-0.488350	1.067151	-0.000022
C98	C	-0.238350	1.317151	0.249978
C99	C	0.011650	1.567151	0.499978
C100	C	0.261650	1.817151	0.749978
C101	C	-0.547754	1.066102	-0.000029
C102	C	-0.297754	1.316102	0.249971
C103	C	-0.047754	1.566102	0.499971
C104	C	0.202246	1.816102	0.749971
O105	O	-0.584257	1.130682	-0.000060
O106	O	-0.334257	1.380682	0.249940
O107	O	-0.084257	1.630682	0.499940
O108	O	0.165743	1.880682	0.749940
N109	N	-0.570668	0.988999	-0.000030
N110	N	-0.320668	1.238999	0.249970
N111	N	-0.070668	1.488999	0.499970
N112	N	0.179332	1.738999	0.749970
C113	C	-0.534174	0.912941	-0.000033
C114	C	-0.284174	1.162941	0.249967
C115	C	-0.034174	1.412941	0.499967
C116	C	0.215826	1.662941	0.749967
O117	O	-0.559119	0.847263	-0.000035
O118	O	-0.309119	1.097263	0.249965
O119	O	-0.059119	1.347263	0.499965
O120	O	0.190881	1.597263	0.749965
C121	C	-0.474771	0.913991	-0.000033
C122	C	-0.224771	1.163991	0.249967
C123	C	0.025229	1.413991	0.499967
C124	C	0.275229	1.663991	0.749967
C125	C	-0.451861	0.991099	-0.000023
C126	C	-0.201861	1.241099	0.249977
C127	C	0.048139	1.491099	0.499977
C128	C	0.298139	1.741099	0.749977
C129	C	-0.465439	1.144253	-0.000013
C130	C	-0.215439	1.394253	0.249987
C131	C	0.034561	1.644253	0.499987
C132	C	0.284561	1.894253	0.749987
C133	C	-0.406038	1.145302	-0.000004
C134	C	-0.156038	1.395302	0.249996
C135	C	0.093962	1.645302	0.499996
C136	C	0.343962	1.895302	0.749996
C137	C	-0.369549	1.069249	-0.000005
C138	C	-0.119549	1.319249	0.249995
C139	C	0.130451	1.569249	0.499995
C140	C	0.380451	1.819249	0.749995
C141	C	-0.392460	0.992148	-0.000014
C142	C	-0.142460	1.242148	0.249986
C143	C	0.107540	1.492148	0.499986
C144	C	0.357540	1.742148	0.749986
C145	C	-0.438278	0.837934	-0.000042
C146	C	-0.188278	1.087934	0.249958
C147	C	0.061722	1.337934	0.499958
C148	C	0.311722	1.587934	0.749958
C149	C	-0.378872	0.838991	-0.000043
C150	C	-0.128872	1.088991	0.249957
C151	C	0.121128	1.338991	0.499957
C152	C	0.371128	1.588991	0.749957
C153	C	-0.355962	0.916098	-0.000033
C154	C	-0.105962	1.166098	0.249967
C155	C	0.144038	1.416098	0.499967
C156	C	0.394038	1.666098	0.749967
C157	C	-0.296571	0.917144	-0.000006
C158	C	-0.046571	1.167144	0.249994
C159	C	0.203429	1.417144	0.499994
C160	C	0.453429	1.667144	0.749994
N161	N	-0.273657	0.994247	-0.000005
N162	N	-0.023657	1.244247	0.249995
N163	N	0.226343	1.494247	0.499995
N164	N	0.476343	1.744247	0.749995
C165	C	-0.310146	1.070300	-0.000005
C166	C	-0.060146	1.320300	0.249995
C167	C	0.189854	1.570300	0.499995
C168	C	0.439854	1.820300	0.749995
C169	C	-0.658925	0.910741	-0.000036
C170	C	-0.408925	1.160741	0.249964
C171	C	-0.158925	1.410741	0.499964
C172	C	0.091075	1.660741	0.749964
C173	C	-0.718327	0.909690	-0.000030
C174	C	-0.468327	1.159690	0.249970
C175	C	-0.218327	1.409690	0.499970
C176	C	0.031673	1.659690	0.749970
C177	C	-0.731902	1.062852	-0.000027
C178	C	-0.481902	1.312852	0.249973
C179	C	-0.231902	1.562852	0.499973
C180	C	0.018098	1.812852	0.749973
C181	C	-0.672499	1.063902	-0.000026
C182	C	-0.422499	1.313902	0.249974
C183	C	-0.172499	1.563902	0.499974
C184	C	0.077501	1.813902	0.749974
C185	C	-0.636011	0.987844	-0.000034
C186	C	-0.386011	1.237844	0.249966
C187	C	-0.136011	1.487844	0.499966
C188	C	0.113989	1.737844	0.749966
C189	C	-0.185401	1.072497	0.000014
C190	C	0.064599	1.322497	0.250014
C191	C	0.314599	1.572497	0.500014
C192	C	0.564599	1.822497	0.750014
C193	C	-0.125996	1.073539	0.000026
C194	C	0.124004	1.323539	0.250026
C195	C	0.374004	1.573539	0.500026
C196	C	0.624004	1.823539	0.750026
C197	C	-0.112425	0.920378	0.000019
C198	C	0.137575	1.170378	0.250019
C199	C	0.387575	1.420378	0.500019
C200	C	0.637575	1.670378	0.750019
C201	C	-0.171826	0.919335	0.000011
C202	C	0.078174	1.169335	0.250011
C203	C	0.328174	1.419335	0.500011
C204	C	0.578174	1.669335	0.750011
C205	C	-0.208313	0.995402	0.000006
C206	C	0.041687	1.245402	0.250006
C207	C	0.291687	1.495402	0.500006
C208	C	0.541687	1.745402	0.750006
O209	O	-0.260033	0.852598	0.000021
O210	O	-0.010033	1.102598	0.250021
O211	O	0.239967	1.352598	0.500021
O212	O	0.489967	1.602598	0.750021
O213	O	-0.285193	1.135967	-0.000014
O214	O	-0.035193	1.385967	0.249986
O215	O	0.214807	1.635967	0.499986
O216	O	0.464807	1.885967	0.749986
C217	C	0.181958	0.984614	-0.000021
C218	C	0.431958	1.234614	0.249979
C219	C	0.681958	1.484614	0.499979
C220	C	0.931958	1.734614	0.749979
C221	C	0.245179	0.985743	-0.000034
C222	C	0.495179	1.235743	0.249966
C223	C	0.745179	1.485743	0.499966
C224	C	0.995179	1.735743	0.749966
C225	C	0.073663	1.145223	0.000001
C226	C	0.323663	1.395223	0.250001
C227	C	0.573663	1.645223	0.500001
C228	C	0.823663	1.895223	0.750001
C229	C	0.074777	1.238462	-0.000003
C230	C	0.324777	1.488462	0.249997
C231	C	0.574777	1.738462	0.499997
C232	C	0.824777	1.988462	0.749997
N233	N	0.077855	0.991589	0.230678
N234	N	0.327855	1.241589	0.480678
N235	N	0.577855	1.491589	0.730678
N236	N	0.827855	1.741589	0.980678
N237	N	0.077813	0.991648	-0.230678
N238	N	0.327813	1.241648	0.019322
N239	N	0.577813	1.491648	0.269322
N240	N	0.827813	1.741648	0.519322
C241	C	0.118273	0.931610	0.470352
C242	C	0.368273	1.181610	0.720352
C243	C	0.618273	1.431610	0.970352
C244	C	0.868273	1.681610	1.220352
C245	C	0.129319	1.007419	0.529686
C246	C	0.379319	1.257419	0.779686
C247	C	0.629319	1.507419	1.029686
C248	C	0.879319	1.757419	1.279686
C249	C	0.077841	0.991610	0.412285
C250	C	0.327841	1.241610	0.662285
C251	C	0.577841	1.491610	0.912285
C252	C	0.827841	1.741610	1.162285
C253	C	0.066808	0.915822	0.529693
C254	C	0.316808	1.165822	0.779693
C255	C	0.566808	1.415822	1.029693
C256	C	0.816808	1.665822	1.279693
C257	C	0.077829	0.991625	0.587709
C258	C	0.327829	1.241625	0.837709
C259	C	0.577829	1.491625	1.087709
C260	C	0.827829	1.741625	1.337709
C261	C	0.088912	1.067458	0.470312
C262	C	0.338912	1.317458	0.720312
C263	C	0.588912	1.567458	0.970312
C264	C	0.838912	1.817458	1.220312
C265	C	0.026380	0.975811	0.470314
C266	C	0.276380	1.225811	0.720314
C267	C	0.526380	1.475811	0.970314
C268	C	0.776380	1.725811	1.220314
C269	C	0.037404	1.051675	0.529621
C270	C	0.287404	1.301675	0.779621
C271	C	0.537404	1.551675	1.029621
C272	C	0.787404	1.801675	1.279621
C273	C	0.077850	0.991601	0.311227
C274	C	0.327850	1.241601	0.561227
C275	C	0.577850	1.491601	0.811227
C276	C	0.827850	1.741601	1.061227
C277	C	0.077820	0.991643	0.688764
C278	C	0.327820	1.241643	0.938764
C279	C	0.577820	1.491643	1.188764
C280	C	0.827820	1.741643	1.438764
H281	H	0.028479	0.554131	-0.134695
H282	H	0.278479	0.804131	0.115305
H283	H	0.528479	1.054131	0.365305
H284	H	0.778479	1.304131	0.615305
H285	H	0.127209	0.429144	-0.134700
H286	H	0.377209	0.679144	0.115300
H287	H	0.627209	0.929144	0.365300
H288	H	0.877209	1.179144	0.615300
F289	F	0.101169	1.151260	0.436366
F290	F	0.351169	1.401260	0.686366
F291	F	0.601169	1.651260	0.936366
F292	F	0.851169	1.901260	1.186366
F293	F	-0.101617	1.155611	0.000036
F294	F	0.148383	1.405611	0.250036
F295	F	0.398383	1.655611	0.500036
F296	F	0.648383	1.905611	0.750036
F297	F	0.021567	0.562872	0.153833
F298	F	0.271567	0.812872	0.403833
F299	F	0.521567	1.062872	0.653833
F300	F	0.771567	1.312872	0.903833
F301	F	-0.620095	0.829785	-0.000036
F302	F	-0.370095	1.079785	0.249964
F303	F	-0.120095	1.329785	0.499964
F304	F	0.129905	1.579785	0.749964
H305	H	0.152492	0.880920	0.444329
H306	H	0.402492	1.130920	0.694329
H307	H	0.652492	1.380920	0.944329
H308	H	0.902492	1.630920	1.194329
H309	H	-0.022867	0.459607	0.000107
H310	H	0.227133	0.709607	0.250107
H311	H	0.477133	0.959607	0.500107
H312	H	0.727133	1.209607	0.750107
H313	H	0.127234	0.429103	0.134714
H314	H	0.377234	0.679103	0.384714
H315	H	0.627234	0.929103	0.634714
H316	H	0.877234	1.179103	0.884714
F317	F	-0.007297	1.118075	0.563426
F318	F	0.242703	1.368075	0.813426
F319	F	0.492703	1.618075	1.063426
F320	F	0.742703	1.868075	1.313426
H321	H	-0.736975	0.846902	-0.000022
H322	H	-0.486975	1.096902	0.249978
H323	H	-0.236975	1.346902	0.499978
H324	H	0.013025	1.596902	0.749978
F325	F	-0.224226	1.153455	0.000008
F326	F	0.025774	1.403455	0.250008
F327	F	0.275774	1.653455	0.500008
F328	F	0.525774	1.903455	0.750008
H329	H	0.178488	0.523809	0.000043
H330	H	0.428488	0.773809	0.250043
H331	H	0.678488	1.023809	0.500043
H332	H	0.928488	1.273809	0.750043
F333	F	-0.030479	0.958296	0.436198
F334	F	0.219521	1.208296	0.686198
F335	F	0.469521	1.458296	0.936198
F336	F	0.719521	1.708296	1.186198
H337	H	0.057482	0.851722	0.555779
H338	H	0.307482	1.101722	0.805779
H339	H	0.557482	1.351722	1.055779
H340	H	0.807482	1.601722	1.305779
F341	F	0.186194	1.024904	0.563774
F342	F	0.436194	1.274904	0.813774
F343	F	0.686194	1.524904	1.063774
F344	F	0.936194	1.774904	1.313774
H345	H	-0.653850	1.126690	-0.000019
H346	H	-0.403850	1.376690	0.249981
H347	H	-0.153850	1.626690	0.499981
H348	H	0.096150	1.876690	0.749981
F349	F	-0.381663	1.227371	-0.000013
F350	F	-0.131663	1.477371	0.249987
F351	F	0.118337	1.727371	0.499987
F352	F	0.368337	1.977371	0.749987
F353	F	-0.340041	0.758037	-0.000053
F354	F	-0.090041	1.008037	0.249947
F355	F	0.159959	1.258037	0.499947
F356	F	0.409959	1.508037	0.749947
F357	F	-0.196210	0.837269	0.000016
F358	F	0.053790	1.087269	0.250016
F359	F	0.303790	1.337269	0.500016
F360	F	0.553790	1.587269	0.750016
F361	F	-0.504265	1.225206	-0.000013
F362	F	-0.254265	1.475206	0.249987
F363	F	-0.004265	1.725206	0.499987
F364	F	0.245735	1.975206	0.749987
H365	H	-0.456921	0.775145	-0.000056
H366	H	-0.206921	1.025145	0.249944
H367	H	0.043079	1.275145	0.499944
H368	H	0.293079	1.525145	0.749944
F369	F	-0.770747	1.143794	-0.000031
F370	F	-0.520747	1.393794	0.249969
F371	F	-0.270747	1.643794	0.499969
F372	F	-0.020747	1.893794	0.749969
F373	F	-0.073581	0.839442	0.000018
F374	F	0.176419	1.089442	0.250018
F375	F	0.426419	1.339442	0.500018
F376	F	0.676419	1.589442	0.750018
