data_functionalizedCrystal
_audit_creation_method	'MofGen! by Chris Wilmer'
_symmetry_space_group_name_H-M	'P1'
_symmetry_Int_Tables_number	1
_symmetry_cell_setting	triclinic
loop_
_symmetry_equiv_pos_as_xyz
  x,y,z
_cell_length_a	16.974800
_cell_length_b	10.654551
_cell_length_c	15.455313
_cell_angle_alpha	92.693835
_cell_angle_beta	90.973911
_cell_angle_gamma	83.936367
loop_
_atom_site_label
_atom_site_type_symbol
_atom_site_fract_x
_atom_site_fract_y
_atom_site_fract_z
O1	O	1.049950	0.160091	0.001606
O2	O	0.820622	0.179269	-0.014500
O3	O	0.940558	-0.013114	-0.006077
O4	O	0.930013	0.352474	-0.006817
O5	O	0.933699	-0.002158	0.137703
O6	O	0.813763	0.190225	0.129281
O7	O	1.043091	0.171046	0.145386
Cu8	Cu	0.927801	0.181636	0.150462
Cu9	Cu	0.935912	0.168680	-0.019575
O10	O	0.923155	0.363430	0.136964
C11	C	0.787828	0.183817	0.055328
C12	C	0.700331	0.181030	0.049183
C13	C	0.655491	0.185690	0.124673
C14	C	0.573280	0.183052	0.118902
C15	C	0.535910	0.175763	0.037640
C16	C	0.580756	0.171099	-0.037856
C17	C	0.662967	0.173728	-0.032083
C18	C	0.290439	0.167250	0.011972
C19	C	0.208222	0.164625	0.006206
C20	C	0.200751	0.176576	0.162964
C21	C	0.282963	0.179212	0.168729
C22	C	0.327803	0.174542	0.093233
N23	N	0.451876	0.173070	0.031739
N24	N	0.411835	0.177225	0.099136
C25	C	0.936354	-0.054426	0.065757
C26	C	0.934038	-0.193846	0.065588
C27	C	0.936689	-0.265318	-0.012861
C28	C	0.934505	-0.396316	-0.013011
C29	C	0.927021	-0.384356	0.143746
C30	C	0.929199	-0.253360	0.143894
C31	C	0.941528	-0.205804	-0.091167
C32	C	0.944180	-0.277277	-0.169623
C33	C	0.941997	-0.408275	-0.169773
C34	C	0.937160	-0.467799	-0.091466
C35	C	1.075885	0.166499	0.075556
C36	C	1.163382	0.169285	0.081695
C37	C	0.927358	0.404742	0.065128
C38	C	0.929675	0.544161	0.065291
N39	N	0.922101	0.190748	0.270057
N40	N	0.941617	0.159557	-0.139170
C41	C	0.973073	0.109048	0.319031
C42	C	0.968770	0.115950	0.409536
C43	C	0.913499	0.204561	0.451067
C44	C	0.862523	0.286265	0.402087
C45	C	0.866822	0.279356	0.311582
C46	C	0.894940	0.234352	0.721345
C47	C	0.890646	0.241258	0.811856
C48	C	0.996893	0.070941	0.819299
C49	C	1.001191	0.064044	0.728793
C50	C	0.950212	0.145744	0.679821
N51	N	0.909101	0.211622	0.543578
N52	N	0.954606	0.138676	0.587311
H53	H	0.536776	0.186826	0.180374
H54	H	0.853432	0.300878	0.681479
H55	H	0.923084	-0.432832	0.207499
H56	H	0.817516	0.358410	0.435906
C57	C	0.859678	-0.085221	0.230226
C58	C	0.926281	-0.174775	0.230122
H59	H	0.857871	-0.036707	0.283461
H60	H	0.862873	-0.031047	0.183612
H61	H	0.813117	-0.127178	0.223689
H62	H	0.972842	-0.132817	0.236652
H63	H	0.923092	-0.228956	0.276749
C64	C	0.761378	0.448411	0.313310
C65	C	0.810797	0.369170	0.257747
H66	H	0.726792	0.503862	0.280074
H67	H	0.731073	0.398705	0.346609
H68	H	0.792758	0.496424	0.350921
H69	H	0.779418	0.321150	0.220140
H70	H	0.841105	0.418882	0.224434
H71	H	1.038397	0.004423	0.859181
H72	H	0.685911	0.191636	0.190845
H73	H	0.313384	0.185142	0.234901
C74	C	0.071413	0.177838	0.223723
C75	C	0.151463	0.181691	0.245945
H76	H	0.040987	0.180985	0.274956
H77	H	0.053865	0.248119	0.190190
H78	H	0.065098	0.101784	0.190964
H79	H	0.157780	0.257750	0.278698
H80	H	0.169017	0.111404	0.279492
H81	H	0.699475	0.169936	-0.093555
C82	C	0.786032	0.408892	0.795411
C83	C	0.829877	0.338649	0.857508
H84	H	0.748514	0.469004	0.823597
H85	H	0.820747	0.451534	0.762424
H86	H	0.759088	0.353772	0.758109
H87	H	0.856825	0.393767	0.894807
H88	H	0.795157	0.296004	0.890510
C89	C	0.223860	0.153074	-0.148171
C90	C	0.167143	0.156618	-0.083124
H91	H	0.198497	0.148131	-0.203315
H92	H	0.250162	0.227504	-0.143054
H93	H	0.261379	0.081169	-0.142265
H94	H	0.129627	0.228529	-0.089027
H95	H	0.140828	0.082181	-0.088244
C96	C	1.074241	-0.053058	0.407804
C97	C	1.024811	0.026161	0.463369
H98	H	1.108845	-0.108483	0.441040
H99	H	1.042877	-0.101088	0.370202
H100	H	1.104535	-0.003325	0.374497
H101	H	0.994514	-0.023572	0.496672
H102	H	1.056179	0.074195	0.500986
H103	H	1.046197	-0.008110	0.694981
H104	H	0.944149	-0.466463	-0.233656
H105	H	0.550324	0.165155	-0.104021
H106	H	0.943308	-0.099140	-0.091054
H107	H	0.948111	-0.228802	-0.233378
C108	C	0.378944	0.271131	-0.073064
C109	C	0.339717	0.162131	-0.071013
H110	H	0.409371	0.267965	-0.124297
H111	H	0.341106	0.343507	-0.072449
H112	H	0.412968	0.275829	-0.023842
H113	H	0.305688	0.157437	-0.120231
H114	H	0.377559	0.089735	-0.071636
H115	H	0.935370	-0.574464	-0.091595
H116	H	1.018083	0.036897	0.285223
