data_functionalizedCrystal
_audit_creation_method	'MofGen! by Chris Wilmer'
_symmetry_space_group_name_H-M	'P1'
_symmetry_Int_Tables_number	1
_symmetry_cell_setting	triclinic
loop_
_symmetry_equiv_pos_as_xyz
  x,y,z
_cell_length_a	16.120490
_cell_length_b	13.897447
_cell_length_c	13.897441
_cell_angle_alpha	89.970673
_cell_angle_beta	87.082329
_cell_angle_gamma	87.112011
loop_
_atom_site_label
_atom_site_type_symbol
_atom_site_fract_x
_atom_site_fract_y
_atom_site_fract_z
Zn1	Zn	1.274600	-0.458940	-0.620074
Zn2	Zn	1.274503	-0.620256	-0.458773
Zn3	Zn	1.135176	-0.450783	-0.450623
Zn4	Zn	1.135156	-0.611994	-0.611861
O5	O	1.204859	-0.535493	-0.535333
O6	O	1.391254	-0.487210	-0.605525
O7	O	1.255990	-0.597819	-0.322709
O8	O	1.153719	-0.316886	-0.473127
O9	O	1.391183	-0.605728	-0.487018
O10	O	1.256153	-0.322879	-0.597622
O11	O	1.153626	-0.473308	-0.316721
O12	O	1.018506	-0.465297	-0.465163
O13	O	1.153685	-0.591647	-0.747934
O14	O	1.018491	-0.583738	-0.583624
O15	O	1.256134	-0.479199	-0.753968
O16	O	1.255970	-0.754139	-0.479055
O17	O	1.153592	-0.748069	-0.591527
C18	C	0.988248	-0.522737	-0.522619
C19	C	0.895582	-0.517302	-0.517202
C20	C	1.204791	-0.786104	-0.535307
C21	C	1.204838	-0.893320	-0.535332
C22	C	1.204878	-0.980393	-0.535356
C23	C	1.204937	-1.089628	-0.535385
C24	C	0.684645	-0.563674	-0.563430
C25	C	0.725924	-0.507390	-0.507312
C26	C	0.820330	-0.512907	-0.512817
C27	C	0.590230	-0.558158	-0.557926
C28	C	1.422315	-0.548301	-0.548097
C29	C	1.514981	-0.553758	-0.553537
C30	C	1.204918	-0.535412	-0.786929
C31	C	1.204943	-0.535377	-0.894145
C32	C	1.204949	-0.283906	-0.535382
C33	C	1.204988	-0.176694	-0.535403
C34	C	1.204966	-0.535313	-1.090441
C35	C	1.204950	-0.535351	-0.981208
C36	C	1.204848	-0.535508	-0.284718
C37	C	1.204984	-0.535281	-0.177512
H38	H	0.690362	-0.455061	-0.455135
H39	H	0.720204	-0.616000	-0.615602
