data_functionalizedCrystal
_audit_creation_method	'MofGen! by Chris Wilmer'
_symmetry_space_group_name_H-M	'P1'
_symmetry_Int_Tables_number	1
_symmetry_cell_setting	triclinic
loop_
_symmetry_equiv_pos_as_xyz
  x,y,z
_cell_length_a	12.811457
_cell_length_b	15.995343
_cell_length_c	11.892095
_cell_angle_alpha	93.884387
_cell_angle_beta	91.498327
_cell_angle_gamma	83.768102
loop_
_atom_site_label
_atom_site_type_symbol
_atom_site_fract_x
_atom_site_fract_y
_atom_site_fract_z
O1	O	1.389199	0.115513	0.048399
O2	O	1.085838	0.126015	0.017296
O3	O	1.245814	-0.001045	0.033719
O4	O	1.229223	0.242574	0.031976
O5	O	1.232476	0.009532	0.220357
O6	O	1.072500	0.136593	0.203935
O7	O	1.375861	0.126091	0.235037
Zn8	Zn	1.222063	0.133021	0.249119
Zn9	Zn	1.239636	0.119085	0.003215
O10	O	1.215885	0.253151	0.218615
C11	C	1.040350	0.130391	0.106636
C12	C	0.924680	0.127662	0.094777
C13	C	0.692782	0.134050	0.275990
C14	C	0.584099	0.131486	0.264853
C15	C	0.598631	0.119963	0.061369
C16	C	0.707314	0.122527	0.072506
C17	C	0.754385	0.129572	0.179819
C18	C	0.863068	0.132143	0.190955
C19	C	0.877599	0.120613	-0.012528
C20	C	0.768917	0.118049	-0.023665
C21	C	1.238460	-0.026958	0.126971
C22	C	1.236407	-0.119927	0.126770
C23	C	1.232684	-0.290150	0.126362
C24	C	1.117205	-0.314571	0.114520
C25	C	1.115063	-0.411294	0.113861
C26	C	1.229016	-0.457745	0.125962
C27	C	1.294683	-0.434133	0.025550
C28	C	1.296058	-0.337332	0.025614
C29	C	1.282579	-0.325392	0.238037
C30	C	1.278217	-0.421848	0.238985
C31	C	1.226950	-0.552464	0.125733
C32	C	1.234754	-0.195432	0.126584
C33	C	1.421349	0.121715	0.145696
C34	C	1.537020	0.124443	0.157547
C35	C	1.223239	0.279063	0.125360
C36	C	1.225293	0.372032	0.125554
N37	N	1.210076	0.142532	0.416942
N38	N	1.251631	0.109567	-0.164608
C39	C	1.335036	0.043339	0.666419
C40	C	1.326666	0.049993	0.783901
C41	C	1.184960	0.162490	0.769392
C42	C	1.193331	0.155836	0.651909
C43	C	1.268372	0.096259	0.600427
C44	C	1.276747	0.089610	0.482943
C45	C	1.135037	0.202101	0.468435
C46	C	1.126667	0.208756	0.585918
H47	H	0.901391	0.137884	0.278335
H48	H	1.367502	-0.310521	0.247785
N49	N	1.068799	-0.284122	0.013317
N50	N	1.118980	-0.244514	-0.050124
H51	H	1.084796	-0.223005	-0.121599
N52	N	1.054184	-0.274532	0.204408
N53	N	0.959645	-0.286536	0.209108
H54	H	0.915131	-0.258249	0.272589
N55	N	0.940544	0.116029	-0.110760
N56	N	1.037581	0.118313	-0.100806
H57	H	1.082038	0.115072	-0.170179
H58	H	0.533945	0.135137	0.343166
H59	H	1.240382	-0.292896	0.314951
H60	H	1.380949	0.006900	0.837629
H61	H	1.123856	0.210990	0.811323
H62	H	0.560289	0.114213	-0.026000
H63	H	0.731106	0.139798	0.363369
H64	H	1.075309	-0.434494	0.032524
N65	N	1.051222	-0.430265	0.203661
N66	N	1.007937	-0.371995	0.267258
H67	H	0.962847	-0.385388	0.330685
N68	N	1.353333	0.028716	0.430325
N69	N	1.350892	-0.047939	0.443309
H70	H	1.404958	-0.090961	0.406135
H71	H	1.381066	-0.322227	0.029763
H72	H	1.378831	-0.465405	0.030493
N73	N	1.218113	-0.440041	0.332257
N74	N	1.139328	-0.479295	0.315641
H75	H	1.096876	-0.492150	0.381512
H76	H	0.730577	0.112309	-0.111037
N77	N	1.253361	-0.309870	-0.079627
N78	N	1.222754	-0.362190	-0.152609
H79	H	1.192598	-0.342799	-0.226938
H80	H	1.260521	-0.459093	-0.057996
H81	H	1.360909	-0.453640	0.254255
H82	H	1.396145	-0.005165	0.624502
N83	N	1.050018	0.269599	0.638528
N84	N	1.042549	0.275531	0.743423
H85	H	0.988415	0.318503	0.780579
H86	H	1.080758	0.245195	0.414692
