data_functionalizedCrystal
_audit_creation_method	'MofGen! by Chris Wilmer'
_symmetry_space_group_name_H-M	'P1'
_symmetry_Int_Tables_number	1
_symmetry_cell_setting	triclinic
loop_
_symmetry_equiv_pos_as_xyz
  x,y,z
_cell_length_a	15.995350
_cell_length_b	15.995292
_cell_length_c	18.366186
_cell_angle_alpha	89.996953
_cell_angle_beta	89.994601
_cell_angle_gamma	83.480495
loop_
_atom_site_label
_atom_site_type_symbol
_atom_site_fract_x
_atom_site_fract_y
_atom_site_fract_z
O1	O	1.110968	0.107931	-0.060483
O2	O	0.867190	0.121259	-0.060497
O3	O	0.995769	-0.007296	-0.060491
O4	O	0.982390	0.236486	-0.060489
O5	O	0.995747	-0.007303	0.060609
O6	O	0.867168	0.121252	0.060602
O7	O	1.110947	0.107924	0.060617
Zn8	Zn	0.989054	0.114587	0.079837
Zn9	Zn	0.989083	0.114596	-0.079717
O10	O	0.982368	0.236479	0.060610
C11	C	0.835985	0.120704	0.000051
C12	C	0.743035	0.119053	0.000045
C13	C	0.405288	0.113120	0.000060
C14	C	0.452742	0.021566	0.000330
C15	C	0.549431	0.023218	0.000052
C16	C	0.572848	0.116063	0.000053
C17	C	0.531764	0.161224	-0.069097
C18	C	0.435129	0.158924	-0.069150
C19	C	0.434765	0.160809	0.068562
C20	C	0.531710	0.160787	0.069471
C21	C	0.667546	0.117731	0.000047
C22	C	0.310591	0.111455	0.000062
C23	C	0.995213	-0.038495	0.000057
C24	C	0.993581	-0.131448	0.000052
C25	C	0.987580	-0.469186	0.000058
C26	C	1.080384	-0.445874	0.000334
C27	C	1.082148	-0.349199	0.000059
C28	C	0.990557	-0.301631	0.000055
C29	C	0.944172	-0.330728	-0.069099
C30	C	0.943055	-0.427518	-0.069154
C31	C	0.941135	-0.427383	0.068558
C32	C	0.944574	-0.330890	0.069470
C33	C	0.992235	-0.206934	0.000051
C34	C	0.985899	-0.563882	0.000057
C35	C	1.142152	0.108479	0.000067
C36	C	1.235102	0.110130	0.000068
C37	C	0.982924	0.267678	0.000061
C38	C	0.984556	0.360631	0.000062
N39	N	0.989040	0.114581	0.188728
N40	N	0.989103	0.114595	-0.188608
C41	C	1.045994	0.057685	0.226831
C42	C	1.045999	0.057681	0.303059
C43	C	0.989059	0.114588	0.341180
C44	C	0.932095	0.171488	0.303068
C45	C	0.932086	0.171485	0.226842
C46	C	0.978073	0.190847	0.461941
C47	C	0.978088	0.190851	0.538166
C48	C	0.989083	0.114599	0.576288
C49	C	1.000080	0.038338	0.538176
C50	C	1.000071	0.038334	0.461950
C51	C	0.989062	0.114598	0.423835
C52	C	1.046045	0.057694	0.697046
C53	C	1.046044	0.057689	0.773275
C54	C	0.932145	0.171503	0.773283
C55	C	0.932141	0.171501	0.697055
C56	C	0.989096	0.114597	0.658941
H57	H	0.402867	0.226142	-0.072288
N58	N	0.552032	0.250474	0.075008
H59	H	0.583232	0.258038	0.121928
H60	H	0.588326	0.263384	0.032371
H61	H	0.885768	0.217834	0.666030
H62	H	0.876774	-0.298860	-0.071672
H63	H	0.559024	0.127819	0.120629
N64	N	1.011929	-0.043911	0.420844
H65	H	1.010258	-0.032339	0.366772
H66	H	1.068075	-0.075606	0.434162
H67	H	1.092367	0.011349	0.195801
N68	N	1.107428	-0.003683	0.344174
H69	H	1.097809	-0.063122	0.330919
H70	H	1.166819	0.006074	0.330883
H71	H	0.969106	0.252945	0.430908
N72	N	0.392681	0.250224	0.069188
H73	H	0.354704	0.259831	0.025339
H74	H	0.358234	0.260222	0.115096
H75	H	0.433164	-0.014860	-0.048988
H76	H	0.545876	0.229435	-0.071668
H77	H	0.970351	-0.455474	0.120977
N78	N	1.130546	-0.324805	-0.065730
H79	H	1.131889	-0.261831	-0.066186
H80	H	1.189948	-0.353854	-0.063578
N81	N	0.870676	0.232863	0.344179
H82	H	0.879325	0.224234	0.398251
H83	H	0.880327	0.292270	0.330847
H84	H	0.560154	0.129862	-0.120562
H85	H	0.975197	-0.454332	-0.120846
N86	N	0.852929	-0.446802	-0.073325
H87	H	0.814100	-0.392447	-0.075122
H88	H	0.845009	-0.480769	-0.118653
H89	H	1.116146	-0.473874	0.049928
N90	N	0.870653	0.232851	0.185739
H91	H	0.834578	0.268900	0.221453
H92	H	0.902691	0.269889	0.154104
N93	N	1.011944	-0.043914	0.579281
H94	H	1.010278	-0.032344	0.633353
H95	H	0.965404	-0.078814	0.565964
H96	H	0.577859	-0.012281	0.049622
H97	H	0.434218	-0.015033	0.049920
H98	H	1.118476	-0.330176	0.049630
H99	H	0.577306	-0.012516	-0.049605
N100	N	0.410890	0.115306	-0.137619
H101	H	0.462956	0.097750	-0.167483
H102	H	0.382949	0.063914	-0.124156
H103	H	0.414226	0.130875	0.120977
H104	H	1.092418	0.011356	0.666013
N105	N	1.107489	-0.003667	0.814377
H106	H	1.143573	-0.039705	0.778662
H107	H	1.144485	0.028437	0.845987
H108	H	0.969139	0.252947	0.569191
H109	H	1.115965	-0.474889	-0.048977
H110	H	0.976401	-0.310665	-0.120560
H111	H	0.978349	-0.312328	0.120629
N112	N	0.856007	-0.287250	0.074990
H113	H	0.844384	-0.247715	0.032382
H114	H	0.814811	-0.330646	0.074390
H115	H	0.872824	-0.441373	0.069022
H116	H	0.885780	0.217835	0.804321
