data_functionalizedCrystal
_audit_creation_method	'MofGen! by Chris Wilmer'
_symmetry_space_group_name_H-M	'P1'
_symmetry_Int_Tables_number	1
_symmetry_cell_setting	triclinic
loop_
_symmetry_equiv_pos_as_xyz
  x,y,z
_cell_length_a	15.995350
_cell_length_b	17.699083
_cell_length_c	16.776229
_cell_angle_alpha	89.991718
_cell_angle_beta	90.002446
_cell_angle_gamma	83.387695
loop_
_atom_site_label
_atom_site_type_symbol
_atom_site_fract_x
_atom_site_fract_y
_atom_site_fract_z
O1	O	-1.110783	-0.097561	0.066222
O2	O	-0.610783	0.402439	0.566222
O3	O	-0.866983	-0.109608	0.066239
O4	O	-0.366983	0.390392	0.566239
O5	O	-0.995771	0.006593	0.066223
O6	O	-0.495771	0.506593	0.566223
O7	O	-0.981995	-0.213763	0.066238
O8	O	-0.481995	0.286237	0.566238
O9	O	-0.995768	0.006603	-0.066353
O10	O	-0.495768	0.506603	0.433647
O11	O	-0.866981	-0.109598	-0.066338
O12	O	-0.366981	0.390402	0.433662
O13	O	-1.110780	-0.097551	-0.066354
O14	O	-0.610780	0.402449	0.433646
Zn15	Zn	-0.988880	-0.103573	-0.087395
Zn16	Zn	-0.488880	0.396427	0.412605
Zn17	Zn	-0.988883	-0.103587	0.087280
Zn18	Zn	-0.488883	0.396413	0.587280
O19	O	-0.981993	-0.213752	-0.066338
O20	O	-0.481993	0.286248	0.433662
C21	C	-0.835788	-0.109105	-0.000047
C22	C	-0.335788	0.390895	0.499953
C23	C	-0.742841	-0.107612	-0.000041
C24	C	-0.242841	0.392388	0.499959
C25	C	-0.995276	0.034796	-0.000065
C26	C	-0.495276	0.534796	0.499935
C27	C	-0.993795	0.118816	-0.000065
C28	C	-0.493795	0.618816	0.499935
C29	C	-1.141975	-0.098054	-0.000066
C30	C	-0.641975	0.401946	0.499934
C31	C	-1.234923	-0.099547	-0.000067
C32	C	-0.734923	0.400453	0.499933
C33	C	-0.405104	-0.102250	-0.000058
C34	C	0.094896	0.397750	0.499942
C35	C	-0.452706	-0.019493	-0.000360
C36	C	0.047294	0.480507	0.499640
C37	C	-0.549394	-0.020987	-0.000055
C38	C	-0.049394	0.479013	0.499945
C39	C	-0.572659	-0.104910	-0.000050
C40	C	-0.072659	0.395090	0.499950
C41	C	-0.531490	-0.145734	0.075657
C42	C	-0.031490	0.354266	0.575657
C43	C	-0.434859	-0.143655	0.075715
C44	C	0.065141	0.356345	0.575715
C45	C	-0.434514	-0.145353	-0.075049
C46	C	0.065486	0.354647	0.424951
C47	C	-0.531459	-0.145333	-0.076044
C48	C	-0.031459	0.354667	0.423956
C49	C	-0.667354	-0.106417	-0.000043
C50	C	-0.167354	0.393583	0.499957
C51	C	-0.310409	-0.100745	-0.000060
C52	C	0.189591	0.399255	0.499940
C53	C	-0.982487	-0.241955	-0.000048
C54	C	-0.482487	0.258045	0.499952
C55	C	-0.983968	-0.325976	-0.000043
C56	C	-0.483968	0.174024	0.499957
N57	N	-0.988884	-0.103563	-0.206607
N58	N	-0.488884	0.396437	0.293393
C59	C	-1.069391	0.167312	-0.000072
C60	C	-0.569391	0.667312	0.499928
C61	C	-1.067994	0.246257	-0.000065
C62	C	-0.567994	0.746257	0.499935
C63	C	-0.991001	0.276706	-0.000057
C64	C	-0.491001	0.776706	0.499943
C65	C	-0.915400	0.228205	-0.000048
C66	C	-0.415400	0.728205	0.499952
C67	C	-0.916797	0.149261	-0.000050
C68	C	-0.416797	0.649261	0.499950
C69	C	-0.909763	0.546577	-0.000041
C70	C	-0.409763	1.046577	0.499959
C71	C	-0.908372	0.625527	-0.000042
C72	C	-0.408372	1.125527	0.499958
C73	C	-1.060960	0.643574	-0.000056
C74	C	-0.560960	1.143574	0.499944
C75	C	-1.062358	0.564630	-0.000058
C76	C	-0.562358	1.064630	0.499942
C77	C	-0.986757	0.516135	-0.000045
C78	C	-0.486757	1.016135	0.499955
C79	C	-0.988272	0.430533	-0.000051
C80	C	-0.488272	0.930533	0.499949
C81	C	-0.989485	0.362306	-0.000056
C82	C	-0.489485	0.862306	0.499944
N83	N	-0.988886	-0.103590	0.206491
N84	N	-0.488886	0.396410	0.706491
C85	C	-1.046019	-0.052238	0.248201
C86	C	-0.546019	0.447762	0.748201
C87	C	-1.046022	-0.052236	0.331653
C88	C	-0.546022	0.447764	0.831653
C89	C	-0.988887	-0.103583	0.373394
C90	C	-0.488887	0.396417	0.873394
C91	C	-0.931752	-0.154941	0.331678
C92	C	-0.431752	0.345059	0.831678
C93	C	-0.931753	-0.154946	0.248227
C94	C	-0.431753	0.345054	0.748227
C95	C	-0.931745	-0.154923	0.668225
C96	C	-0.431745	0.345077	1.168225
C97	C	-0.931747	-0.154913	0.751682
C98	C	-0.431747	0.345087	1.251682
C99	C	-1.046014	-0.052213	0.751651
C100	C	-0.546014	0.447787	1.251651
C101	C	-1.046015	-0.052218	0.668201
C102	C	-0.546015	0.447782	1.168201
C103	C	-0.988883	-0.103578	0.626492
C104	C	-0.488883	0.396422	1.126492
C105	C	-0.988881	-0.103580	0.536004
C106	C	-0.488881	0.396420	1.036004
C107	C	-0.988884	-0.103578	0.463881
C108	C	-0.488884	0.396422	0.963881
H109	H	-0.577887	0.011103	-0.054326
H110	H	-0.077887	0.511103	0.445674
H111	H	-0.852711	0.253002	-0.000037
H112	H	-0.352711	0.753002	0.499963
H113	H	-1.125053	0.539843	-0.000068
H114	H	-0.625053	1.039843	0.499932
H115	H	-0.577318	0.011311	0.054305
H116	H	-0.077318	0.511311	0.554305
C117	C	-0.868905	-0.211426	0.377587
C118	C	-0.368905	0.288574	0.877587
H119	H	-0.834884	-0.242015	0.340791
H120	H	-0.334884	0.257985	0.840791
H121	H	-0.834172	-0.184115	0.410136
H122	H	-0.334172	0.315885	0.910136
H123	H	-0.898891	-0.243006	0.410146
H124	H	-0.398891	0.256994	0.910146
C125	C	-0.427768	0.025208	-0.073697
C126	C	0.072232	0.525208	0.426303
H127	H	-0.457181	0.074994	-0.072764
H128	H	0.042819	0.574994	0.427236
H129	H	-0.368895	0.028373	-0.072691
H130	H	0.131105	0.528373	0.427309
H131	H	-0.441856	-0.000163	-0.120886
H132	H	0.058144	0.499837	0.379114
H133	H	-1.092537	-0.010394	0.785619
H134	H	-0.592537	0.489606	1.285619
C135	C	-0.868919	-0.211432	0.622356
C136	C	-0.368919	0.288568	1.122356
H137	H	-0.834894	-0.242011	0.659170
H138	H	-0.334894	0.257989	1.159170
H139	H	-0.898919	-0.243009	0.589821
H140	H	-0.398919	0.256991	1.089821
H141	H	-0.834176	-0.184141	0.589785
H142	H	-0.334176	0.315859	1.089785
C143	C	-0.568434	-0.105074	-0.151708
C144	C	-0.068434	0.394926	0.348292
H145	H	-0.608815	-0.063805	-0.137056
H146	H	-0.108815	0.436195	0.362944
H147	H	-0.524578	-0.086481	-0.181442
H148	H	-0.024578	0.413519	0.318558
H149	H	-0.594742	-0.140103	-0.183301
H150	H	-0.094742	0.359897	0.316699
H151	H	-0.402628	-0.206369	-0.075558
H152	H	0.097372	0.293631	0.424442
H153	H	-1.122518	0.683068	-0.000063
H154	H	-0.622518	1.183068	0.499937
H155	H	-0.885219	-0.196729	0.785666
H156	H	-0.385219	0.303271	1.285666
H157	H	-1.092537	-0.010403	0.634218
H158	H	-0.592537	0.489597	1.134218
C159	C	-0.868887	-0.211416	0.202346
C160	C	-0.368887	0.288584	0.702346
H161	H	-0.834849	-0.241987	0.239156
H162	H	-0.334849	0.258013	0.739156
H163	H	-0.898850	-0.243005	0.169789
H164	H	-0.398850	0.256995	0.669789
H165	H	-0.834161	-0.184087	0.169797
H166	H	-0.334161	0.315913	0.669797
H167	H	-0.559923	-0.117388	0.131997
H168	H	-0.059923	0.382612	0.631997
H169	H	-1.132087	0.142527	-0.000083
H170	H	-0.632087	0.642527	0.499917
C171	C	-0.550408	-0.229022	0.079481
C172	C	-0.050408	0.270978	0.579481
H173	H	-0.524933	-0.252632	0.125701
H174	H	-0.024933	0.247368	0.625701
H175	H	-0.609544	-0.230461	0.081755
H176	H	-0.109544	0.269539	0.581755
H177	H	-0.528405	-0.255361	0.033348
H178	H	-0.028405	0.244639	0.533348
C179	C	-0.823675	0.659020	-0.000023
C180	C	-0.323675	1.159020	0.499977
H181	H	-0.778850	0.618832	-0.000007
H182	H	-0.278850	1.118832	0.499993
H183	H	-0.819952	0.689448	-0.046254
H184	H	-0.319952	1.189448	0.453746
H185	H	-0.819972	0.689434	0.046217
H186	H	-0.319972	1.189434	0.546217
H187	H	-0.546700	-0.206532	-0.080614
H188	H	-0.046700	0.293468	0.419386
C189	C	-0.833642	0.095916	-0.000045
C190	C	-0.333642	0.595916	0.499955
H191	H	-0.787587	0.125355	-0.000047
H192	H	-0.287587	0.625355	0.499953
H193	H	-0.831017	0.064738	0.046188
H194	H	-0.331017	0.564738	0.546188
H195	H	-0.831014	0.064752	-0.046283
H196	H	-0.331014	0.564752	0.453717
C197	C	-1.151150	0.299599	-0.000080
C198	C	-0.651150	0.799599	0.499920
H199	H	-1.197203	0.270158	-0.000096
H200	H	-0.697203	0.770158	0.499904
H201	H	-1.153786	0.330765	0.046152
H202	H	-0.653786	0.830765	0.546152
H203	H	-1.153769	0.330775	-0.046318
H204	H	-0.653769	0.830775	0.453682
H205	H	-0.848204	0.507102	-0.000031
H206	H	-0.348204	1.007102	0.499969
H207	H	-1.092540	-0.010421	0.214222
H208	H	-0.592540	0.489579	0.714222
H209	H	-0.433181	0.013430	0.053630
H210	H	0.066819	0.513430	0.553630
C211	C	-0.406848	-0.108801	-0.152571
C212	C	0.093152	0.391199	0.347429
H213	H	-0.377101	-0.066905	-0.139924
H214	H	0.122899	0.433095	0.360076
H215	H	-0.371302	-0.145320	-0.182126
H216	H	0.128698	0.354680	0.317874
H217	H	-0.455079	-0.091609	-0.183480
H218	H	0.044921	0.408391	0.316520
C219	C	-0.410205	-0.103444	0.152156
C220	C	0.089795	0.396556	0.652156
H221	H	-0.459224	-0.088527	0.182880
H222	H	0.040776	0.411473	0.682880
H223	H	-0.372162	-0.137260	0.182425
H224	H	0.127838	0.362740	0.682425
H225	H	-0.384032	-0.059723	0.138319
H226	H	0.115968	0.440277	0.638319
H227	H	-1.092544	-0.010421	0.365613
H228	H	-0.592544	0.489579	0.865613
C229	C	-0.391123	-0.225729	0.080382
C230	C	0.108877	0.274271	0.580382
H231	H	-0.432436	-0.260193	0.082240
H232	H	0.067564	0.239807	0.582240
H233	H	-0.356585	-0.236173	0.034734
H234	H	0.143415	0.263827	0.534734
H235	H	-0.357377	-0.231456	0.127072
H236	H	0.142623	0.268544	0.627072
