data_functionalizedCrystal
_audit_creation_method	'MofGen! by Chris Wilmer'
_symmetry_space_group_name_H-M	'P1'
_symmetry_Int_Tables_number	1
_symmetry_cell_setting	triclinic
loop_
_symmetry_equiv_pos_as_xyz
  x,y,z
_cell_length_a	17.077402
_cell_length_b	16.959455
_cell_length_c	17.077396
_cell_angle_alpha	90.019870
_cell_angle_beta	89.972472
_cell_angle_gamma	89.977893
loop_
_atom_site_label
_atom_site_type_symbol
_atom_site_fract_x
_atom_site_fract_y
_atom_site_fract_z
Zn1	Zn	-0.312537	-1.208397	-0.443856
Zn2	Zn	-0.443812	-1.208302	-0.312592
Zn3	Zn	-0.312561	-1.076216	-0.312603
Zn4	Zn	-0.443762	-1.076183	-0.443815
O5	O	-0.378168	-1.142275	-0.378216
O6	O	-0.329962	-1.318996	-0.426456
O7	O	-0.426432	-1.190755	-0.202746
O8	O	-0.202711	-1.093804	-0.330035
O9	O	-0.426409	-1.318926	-0.330017
O10	O	-0.202693	-1.190917	-0.426466
O11	O	-0.330003	-1.093712	-0.202754
O12	O	-0.329954	-0.965601	-0.329996
O13	O	-0.426323	-1.093747	-0.553667
O14	O	-0.426347	-0.965576	-0.426396
O15	O	-0.329913	-1.190884	-0.553697
O16	O	-0.553652	-1.190723	-0.329977
O17	O	-0.553615	-1.093655	-0.426386
C18	C	-0.378148	-0.936908	-0.378193
C19	C	-0.378158	-0.849052	-0.378202
C20	C	-0.428302	-0.807740	-0.327919
C21	C	-0.328020	-0.807810	-0.428490
C22	C	-0.328025	-0.725265	-0.428498
C23	C	-0.378168	-0.683952	-0.378215
C24	C	-0.428307	-0.725186	-0.327923
C25	C	-0.277882	-0.684025	-0.478783
C26	C	-0.277884	-0.601474	-0.478792
C27	C	-0.328032	-0.560160	-0.428512
C28	C	-0.378173	-0.601399	-0.378219
C29	C	-0.428317	-0.560087	-0.327936
C30	C	-0.478462	-0.601324	-0.277646
C31	C	-0.478455	-0.683872	-0.277643
C32	C	-0.328040	-0.477612	-0.428516
C33	C	-0.428322	-0.477533	-0.327941
C34	C	-0.582116	-1.142196	-0.378193
C35	C	-0.669366	-1.142235	-0.378209
C36	C	-0.710279	-1.192774	-0.428461
C37	C	-0.792260	-1.192807	-0.428478
C38	C	-0.833325	-1.142305	-0.378238
C39	C	-0.792406	-1.091760	-0.327984
C40	C	-0.710427	-1.091723	-0.327972
C41	C	-0.963276	-1.091841	-0.328011
C42	C	-1.045260	-1.091879	-0.328022
C43	C	-1.045109	-1.192925	-0.428517
C44	C	-0.963130	-1.192888	-0.428505
C45	C	-0.922216	-1.142345	-0.378250
C46	C	-0.173424	-1.142375	-0.378257
C47	C	-0.086174	-1.142418	-0.378274
C48	C	-0.378110	-1.142322	-0.582961
C49	C	-0.378086	-1.142343	-0.670210
C50	C	-0.378185	-0.348443	-0.378235
C51	C	-0.378183	-0.436299	-0.378232
C52	C	-0.327881	-1.192924	-0.711218
C53	C	-0.327854	-1.192934	-0.793198
C54	C	-0.378038	-1.142365	-0.834170
C55	C	-0.428245	-1.091778	-0.793157
C56	C	-0.428267	-1.091765	-0.711178
C57	C	-0.428198	-1.091810	-0.964027
C58	C	-0.428177	-1.091824	-1.046012
C59	C	-0.327786	-1.192979	-1.046047
C60	C	-0.327807	-1.192966	-0.964068
C61	C	-0.378016	-1.142379	-0.923061
C62	C	-0.378169	-1.142273	-0.174268
C63	C	-0.377972	-1.142405	-0.087019
H64	H	-0.237054	-0.567905	-0.519742
F65	F	-0.666581	-1.246531	-0.481930
H66	H	-0.237055	-0.717667	-0.519718
F67	F	-0.481651	-1.037956	-0.836764
F68	F	-0.919426	-1.246643	-0.481972
H69	H	-0.287206	-0.444040	-0.469455
F70	F	-0.531816	-0.727765	-0.224124
F71	F	-0.274350	-1.246817	-1.089691
H72	H	-0.469131	-0.841319	-0.286976
F73	F	-1.088652	-1.246720	-0.482002
H74	H	-0.677116	-1.050568	-0.287052
F75	F	-0.835799	-1.246589	-0.481971
F76	F	-1.088964	-1.038129	-0.274551
H77	H	-0.469141	-1.050569	-0.677791
F78	F	-0.274654	-0.851780	-0.482000
H79	H	-0.929967	-1.050680	-0.287090
H80	H	-0.825848	-1.050637	-0.287081
F81	F	-0.481582	-1.037997	-1.089616
F82	F	-0.274472	-1.246751	-0.667619
H83	H	-0.286974	-1.234124	-0.826582
H84	H	-0.286948	-1.234147	-0.930711
F85	F	-0.481634	-1.037969	-0.920386
H86	H	-0.469158	-0.443903	-0.286996
H87	H	-0.519286	-0.567677	-0.236703
