data_functionalizedCrystal
_audit_creation_method	'MofGen! by Chris Wilmer'
_symmetry_space_group_name_H-M	'P1'
_symmetry_Int_Tables_number	1
_symmetry_cell_setting	triclinic
loop_
_symmetry_equiv_pos_as_xyz
  x,y,z
_cell_length_a	6.817900
_cell_length_b	12.000032
_cell_length_c	14.858572
_cell_angle_alpha	90.996126
_cell_angle_beta	104.524003
_cell_angle_gamma	119.142083
loop_
_atom_site_label
_atom_site_type_symbol
_atom_site_fract_x
_atom_site_fract_y
_atom_site_fract_z
V1	V	-4.125924	-0.177674	-0.291535
V2	V	-3.625924	0.322326	0.208465
O3	O	-4.021811	0.007710	-0.284372
O4	O	-3.521811	0.507710	0.215628
O5	O	-4.163070	-0.351502	-0.291094
O6	O	-3.663070	0.148498	0.208906
O7	O	-4.081395	-0.175305	-0.417976
O8	O	-3.581395	0.324695	0.082024
O9	O	-4.104051	-0.169707	-0.156611
O10	O	-3.604051	0.330293	0.343389
V11	V	-4.597965	-0.155457	-0.275209
V12	V	-4.097965	0.344543	0.224791
O13	O	-4.412368	-0.226409	-0.327349
O14	O	-3.912368	0.273591	0.172651
O15	O	-4.761719	-0.106722	-0.239395
O16	O	-4.261719	0.393278	0.260605
O17	O	-4.337613	0.018371	-0.275651
O18	O	-3.837613	0.518371	0.224349
O19	O	-4.819475	-0.340842	-0.282372
O20	O	-4.319475	0.159158	0.217628
O21	O	-4.737235	-0.163425	-0.410133
O22	O	-4.237235	0.336575	0.089867
O23	O	-4.419287	-0.157827	-0.148768
O24	O	-3.919287	0.342173	0.351232
C25	C	-4.028756	-0.393867	-0.286895
C26	C	-3.528756	0.106133	0.213105
C27	C	-4.140440	-0.535976	-0.287376
C28	C	-3.640440	-0.035976	0.212624
C29	C	-4.013932	-0.593134	-0.283125
C30	C	-3.513932	-0.093134	0.216875
C31	C	-4.129359	-0.740010	-0.283623
C32	C	-3.629359	-0.240010	0.216377
C33	C	-3.924571	-0.169107	-0.448745
C34	C	-3.424571	0.330893	0.051255
C35	C	-3.970013	-0.168320	-0.552121
C36	C	-3.470013	0.331680	-0.052121
C37	C	-4.136337	-0.165443	-0.930664
C38	C	-3.636337	0.334557	-0.430664
C39	C	-4.090052	-0.166243	-0.825341
C40	C	-3.590052	0.333757	-0.325341
C41	C	-4.053177	-0.166882	-0.741396
C42	C	-3.553177	0.333118	-0.241396
C43	C	-4.006888	-0.167681	-0.636067
C44	C	-3.506888	0.332319	-0.136067
C45	C	-4.135271	0.060728	-0.279847
C46	C	-3.635271	0.560728	0.220153
C47	C	-4.002827	0.202836	-0.279372
C48	C	-3.502827	0.702836	0.220628
C49	C	-4.239456	-0.164029	-0.117994
C50	C	-3.739456	0.335971	0.382006
C51	C	-4.173249	-0.164810	-0.014617
C52	C	-3.673249	0.335190	0.485383
H53	H	-3.809053	-0.737368	-0.275361
H54	H	-3.309053	-0.237368	0.224639
N55	N	-4.372441	-0.814992	-0.288644
N56	N	-3.872441	-0.314992	0.211356
N57	N	-4.444252	-0.790243	-0.225758
N58	N	-3.944252	-0.290243	0.274242
H59	H	-4.615928	-0.843198	-0.229304
H60	H	-4.115928	-0.343198	0.270696
H61	H	-4.334197	-0.595775	-0.291374
H62	H	-3.834197	-0.095775	0.208626
H63	H	-3.820166	-0.533330	-0.279112
H64	H	-3.320166	-0.033330	0.220888
