data_functionalizedCrystal
_audit_creation_method	'MofGen! by Chris Wilmer'
_symmetry_space_group_name_H-M	'P1'
_symmetry_Int_Tables_number	1
_symmetry_cell_setting	triclinic
loop_
_symmetry_equiv_pos_as_xyz
  x,y,z
_cell_length_a	6.817900
_cell_length_b	12.200722
_cell_length_c	14.125465
_cell_angle_alpha	94.993976
_cell_angle_beta	100.398878
_cell_angle_gamma	107.140920
loop_
_atom_site_label
_atom_site_type_symbol
_atom_site_fract_x
_atom_site_fract_y
_atom_site_fract_z
V1	V	-4.009703	-0.157727	-0.300078
V2	V	-3.676369	0.175606	0.033255
V3	V	-3.343036	0.508939	0.366589
O4	O	-3.978506	0.008593	-0.294261
O5	O	-3.645173	0.341927	0.039073
O6	O	-3.311840	0.675260	0.372406
O7	O	-3.979643	-0.313722	-0.298127
O8	O	-3.646310	0.019612	0.035207
O9	O	-3.312976	0.352945	0.368540
O10	O	-3.945510	-0.154856	-0.430906
O11	O	-3.612177	0.178477	-0.097573
O12	O	-3.278844	0.511811	0.235761
O13	O	-4.012876	-0.151372	-0.160562
O14	O	-3.679542	0.181961	0.172771
O15	O	-3.346209	0.515295	0.506105
V16	V	-4.493001	-0.137886	-0.283378
V17	V	-4.159667	0.195447	0.049955
V18	V	-3.826334	0.528781	0.383288
O19	O	-4.271455	-0.201251	-0.336710
O20	O	-3.938122	0.132083	-0.003376
O21	O	-3.604788	0.465416	0.329957
O22	O	-4.681446	-0.094362	-0.246747
O23	O	-4.348112	0.238971	0.086587
O24	O	-4.014779	0.572304	0.419920
O25	O	-4.299854	0.018109	-0.285330
O26	O	-3.966521	0.351442	0.048004
O27	O	-3.633187	0.684775	0.381337
O28	O	-4.641594	-0.304206	-0.289196
O29	O	-4.308260	0.029127	0.044137
O30	O	-3.974927	0.362460	0.377471
O31	O	-4.607225	-0.144241	-0.422894
O32	O	-4.273891	0.189092	-0.089561
O33	O	-3.940558	0.522426	0.243772
O34	O	-4.333987	-0.140757	-0.152550
O35	O	-4.000653	0.192576	0.180783
O36	O	-3.667320	0.525910	0.514116
C37	C	-3.829616	-0.351764	-0.293419
C38	C	-3.496283	-0.018430	0.039914
C39	C	-3.162950	0.314903	0.373248
C40	C	-3.886221	-0.479288	-0.292696
C41	C	-3.552887	-0.145955	0.040638
C42	C	-3.219554	0.187378	0.373971
C43	C	-3.932184	-0.582851	-0.292099
C44	C	-3.598851	-0.249518	0.041234
C45	C	-3.265517	0.083816	0.374567
C46	C	-3.989867	-0.712776	-0.291356
C47	C	-3.656533	-0.379443	0.041977
C48	C	-3.323200	-0.046109	0.375311
C49	C	-3.786076	-0.149113	-0.462791
C50	C	-3.452742	0.184220	-0.129458
C51	C	-3.119409	0.517553	0.203876
C52	C	-3.814996	-0.147798	-0.569744
C53	C	-3.481663	0.185535	-0.236411
C54	C	-3.148329	0.518869	0.096922
C55	C	-3.868005	-0.145386	-0.765566
C56	C	-3.534672	0.187947	-0.432233
C57	C	-3.201339	0.521281	-0.098899
C58	C	-4.054067	-0.150225	-0.817890
C59	C	-3.720733	0.183109	-0.484557
C60	C	-3.387400	0.516442	-0.151224
C61	C	-4.083564	-0.148882	-0.926852
C62	C	-3.750230	0.184451	-0.593519
C63	C	-3.416897	0.517784	-0.260186
C64	C	-3.838500	-0.146728	-0.656594
C65	C	-3.505167	0.186605	-0.323261
C66	C	-3.171834	0.519938	0.010073
C67	C	-4.113223	0.056145	-0.290035
C68	C	-3.779890	0.389478	0.043299
C69	C	-3.446557	0.722811	0.376632
C70	C	-4.035857	0.183668	-0.290764
C71	C	-3.702524	0.517002	0.042569
C72	C	-3.369190	0.850335	0.375902
C73	C	-4.156764	-0.146503	-0.120660
C74	C	-3.823431	0.186830	0.212673
C75	C	-3.490098	0.520163	0.546006
C76	C	-4.107082	-0.147813	-0.013706
C77	C	-3.773749	0.185520	0.319627
C78	C	-3.440415	0.518854	0.652961
H79	H	-4.191212	-0.155386	-0.780855
H80	H	-3.857879	0.177947	-0.447522
H81	H	-3.524545	0.511280	-0.114189
Cl82	Cl	-3.656291	-0.137448	-0.822746
Cl83	Cl	-3.322957	0.195885	-0.489413
Cl84	Cl	-2.989624	0.529218	-0.156080
