data_functionalizedCrystal
_audit_creation_method	'MofGen! by Chris Wilmer'
_symmetry_space_group_name_H-M	'P1'
_symmetry_Int_Tables_number	1
_symmetry_cell_setting	triclinic
loop_
_symmetry_equiv_pos_as_xyz
  x,y,z
_cell_length_a	29.839134
_cell_length_b	13.032721
_cell_length_c	13.032268
_cell_angle_alpha	103.289627
_cell_angle_beta	97.153304
_cell_angle_gamma	97.200673
loop_
_atom_site_label
_atom_site_type_symbol
_atom_site_fract_x
_atom_site_fract_y
_atom_site_fract_z
Zn1	Zn	0.623808	-0.499249	-0.654486
Zn2	Zn	0.623759	-0.654333	-0.499434
Zn3	Zn	0.559612	-0.476727	-0.476877
Zn4	Zn	0.537746	-0.676784	-0.676937
O5	O	0.586232	-0.576773	-0.576934
O6	O	0.686665	-0.519851	-0.633963
O7	O	0.624381	-0.611952	-0.347826
O8	O	0.577300	-0.331086	-0.481601
O9	O	0.686629	-0.633791	-0.520047
O10	O	0.624464	-0.347633	-0.612090
O11	O	0.577252	-0.481465	-0.331253
O12	O	0.493849	-0.503235	-0.503370
O13	O	0.540032	-0.672055	-0.822574
O14	O	0.477784	-0.650216	-0.650354
O15	O	0.603261	-0.541621	-0.806080
O16	O	0.603178	-0.805939	-0.541816
O17	O	0.539984	-0.822434	-0.672227
C18	C	0.569214	-0.852727	-0.611929
C19	C	0.561972	-0.970786	-0.626935
C20	C	0.469516	-0.576718	-0.576851
C21	C	0.419582	-0.576724	-0.576844
C22	C	0.590032	-1.015231	-0.569149
C23	C	0.582548	-1.137251	-0.584658
C24	C	0.101574	-0.653396	-0.653397
C25	C	-0.086103	-0.653432	-0.653448
O26	O	-0.117474	-0.718566	-0.718485
N27	N	-0.101218	-0.576822	-0.577018
C28	C	-0.069409	-0.500194	-0.500575
O29	O	-0.086572	-0.435026	-0.435574
C30	C	0.118267	-0.500154	-0.500529
C31	C	0.133379	-0.576776	-0.576957
C32	C	0.116687	-0.730011	-0.729820
C33	C	0.163603	-0.730005	-0.729803
C34	C	0.195408	-0.653384	-0.653363
C35	C	0.180296	-0.576769	-0.576940
C36	C	0.150075	-0.423522	-0.424091
C37	C	0.196996	-0.423517	-0.424088
C38	C	0.212108	-0.500138	-0.500516
C39	C	0.259017	-0.500142	-0.500483
N40	N	0.274131	-0.576752	-0.576913
C41	C	0.242327	-0.653373	-0.653353
C42	C	-0.167943	-0.500221	-0.500603
C43	C	-0.214862	-0.500232	-0.500613
C44	C	-0.231553	-0.653470	-0.653488
C45	C	-0.184633	-0.653463	-0.653472
C46	C	-0.152829	-0.576831	-0.577033
C47	C	0.340856	-0.653355	-0.653311
C48	C	0.387778	-0.653345	-0.653284
C49	C	0.404464	-0.500104	-0.500413
C50	C	0.357547	-0.500117	-0.500436
C51	C	0.325743	-0.576747	-0.576894
O52	O	0.290413	-0.435035	-0.435489
O53	O	0.259498	-0.718516	-0.718358
C54	C	0.054658	-0.653403	-0.653414
C55	C	0.039545	-0.576788	-0.576992
C56	C	0.071350	-0.500167	-0.500552
C57	C	-0.007374	-0.576799	-0.577002
C58	C	-0.039178	-0.653420	-0.653441
C59	C	-0.024064	-0.730029	-0.729871
C60	C	0.022853	-0.730023	-0.729854
C61	C	0.056235	-0.423557	-0.424122
C62	C	0.009318	-0.423571	-0.424145
C63	C	-0.022486	-0.500191	-0.500584
C64	C	0.703402	-0.576829	-0.577017
C65	C	0.753333	-0.576853	-0.577052
C66	C	0.569213	-0.611855	-0.853939
C67	C	0.561960	-0.626804	-0.971982
C68	C	0.603327	-0.299745	-0.541825
C69	C	0.610612	-0.181692	-0.526864
C70	C	0.590012	-0.568933	-1.016449
C71	C	0.582517	-0.584382	-1.138453
C72	C	0.603215	-0.541752	-0.300996
C73	C	0.610572	-0.526503	-0.182915
H74	H	0.552984	-1.189532	-0.645620
H75	H	0.222890	-0.361107	-0.361846
H76	H	0.532410	-1.023071	-0.687893
C77	C	0.501159	-0.640409	-1.179320
C78	C	0.542602	-0.666715	-1.208982
H79	H	0.476519	-0.691234	-1.222869
H80	H	0.500961	-0.640836	-1.106595
H81	H	0.497888	-0.571320	-1.188398
H82	H	0.545875	-0.735801	-1.199897
H83	H	0.542801	-0.666299	-1.281725
C84	C	0.650178	-0.444769	-1.005176
C85	C	0.650480	-0.444149	-1.112388
H86	H	0.674814	-0.393925	-0.961638
H87	H	0.622058	-0.426950	-0.985081
H88	H	0.653463	-0.513851	-0.996099
H89	H	0.647191	-0.375069	-1.121467
H90	H	0.678607	-0.461962	-1.132490
C91	C	0.625111	-0.958130	-0.385040
C92	C	0.629942	-0.944660	-0.486857
H93	H	0.649752	-0.914567	-0.334237
H94	H	0.596994	-0.938083	-0.367151
H95	H	0.625319	-1.030875	-0.384679
H96	H	0.629731	-0.871916	-0.487220
H97	H	0.658066	-0.964700	-0.504750
H98	H	0.640179	-1.129413	-0.465909
H99	H	0.400078	-0.715743	-0.715523
H100	H	0.314966	-0.715752	-0.715572
H101	H	0.175902	-0.792396	-0.792041
C102	C	0.104915	-0.881483	-0.880911
C103	C	0.081731	-0.814248	-0.813847
H104	H	0.083336	-0.933499	-0.932780
H105	H	0.123564	-0.840417	-0.915744
H106	H	0.123561	-0.916146	-0.839688
H107	H	0.063088	-0.779579	-0.855069
H108	H	0.063074	-0.855320	-0.779012
H109	H	-0.049967	-0.792420	-0.792109
H110	H	0.430368	-0.437724	-0.438175
C111	C	-0.243351	-0.804938	-0.804612
C112	C	-0.266518	-0.737691	-0.737517
H113	H	-0.264939	-0.856929	-0.856484
H114	H	-0.224697	-0.763875	-0.839441
H115	H	-0.224710	-0.839631	-0.763413
H116	H	-0.285157	-0.702991	-0.778716
H117	H	-0.285179	-0.778760	-0.702686
C118	C	0.526884	-0.810961	-1.029110
C119	C	0.522047	-0.709136	-1.042507
H120	H	0.502241	-0.861788	-1.072643
H121	H	0.554999	-0.828790	-1.049232
H122	H	0.526686	-0.811363	-0.956369
H123	H	0.522249	-0.708731	-1.115247
H124	H	0.493926	-0.691302	-1.022392
C125	C	-0.141549	-0.686522	-0.798198
C126	C	-0.168023	-0.737678	-0.737489
H127	H	-0.131295	-0.738516	-0.850065
H128	H	-0.159501	-0.645476	-0.833034
H129	H	-0.115890	-0.640893	-0.752666
H130	H	-0.193683	-0.783302	-0.783020
H131	H	-0.150070	-0.778743	-0.702651
H132	H	-0.227161	-0.437848	-0.438368
C133	C	0.171305	-0.272035	-0.273009
C134	C	0.133473	-0.339287	-0.340085
H135	H	0.161056	-0.220024	-0.221150
H136	H	0.189248	-0.313091	-0.238163
H137	H	0.189265	-0.237368	-0.314225
H138	H	0.115515	-0.373961	-0.298870
H139	H	0.115523	-0.298226	-0.374933
C140	C	-0.156168	-0.348759	-0.349489
C141	C	-0.132987	-0.415986	-0.416566
H142	H	-0.134588	-0.296763	-0.297603
H143	H	-0.174808	-0.314081	-0.390692
H144	H	-0.174824	-0.389842	-0.314668
H145	H	-0.114334	-0.374904	-0.451393
H146	H	-0.114339	-0.450666	-0.375357
C147	C	0.378760	-0.348648	-0.349324
C148	C	0.340933	-0.415899	-0.416422
H149	H	0.368505	-0.296648	-0.297466
H150	H	0.396701	-0.389707	-0.314478
H151	H	0.396723	-0.313968	-0.390524
H152	H	0.322972	-0.450586	-0.375223
H153	H	0.322984	-0.374835	-0.451270
H154	H	0.035152	-0.792416	-0.792090
H155	H	-0.002980	-0.361176	-0.361898
H156	H	0.082127	-0.361162	-0.361874
H157	H	0.619575	-0.507946	-0.964195
