data_functionalizedCrystal
_audit_creation_method	'MofGen! by Chris Wilmer'
_symmetry_space_group_name_H-M	'P1'
_symmetry_Int_Tables_number	1
_symmetry_cell_setting	triclinic
loop_
_symmetry_equiv_pos_as_xyz
  x,y,z
_cell_length_a	27.732048
_cell_length_b	27.732048
_cell_length_c	26.809956
_cell_angle_alpha	89.999364
_cell_angle_beta	89.996742
_cell_angle_gamma	82.642655
loop_
_atom_site_label
_atom_site_type_symbol
_atom_site_fract_x
_atom_site_fract_y
_atom_site_fract_z
O1	O	0.640931	0.057510	-0.041421
O2	O	1.140931	0.557510	0.458579
O3	O	0.500138	0.066256	-0.041436
O4	O	1.000138	0.566256	0.458564
O5	O	0.574907	-0.008514	-0.041419
O6	O	1.074907	0.491486	0.458581
O7	O	0.566162	0.132280	-0.041439
O8	O	1.066162	0.632280	0.458561
O9	O	0.574893	-0.008502	0.041541
O10	O	1.074893	0.491498	0.541541
O11	O	0.500123	0.066267	0.041523
O12	O	1.000123	0.566267	0.541523
O13	O	0.640917	0.057522	0.041539
O14	O	1.140917	0.557522	0.541539
Zn15	Zn	0.570518	0.061896	0.054702
Zn16	Zn	1.070518	0.561896	0.554702
Zn17	Zn	0.570536	0.061881	-0.054600
Zn18	Zn	1.070536	0.561881	0.445400
O19	O	0.566147	0.132291	0.041521
O20	O	1.066147	0.632291	0.541521
C21	C	0.574716	-0.026515	0.000062
C22	C	1.074716	0.473485	0.500062
C23	C	0.574164	-0.080170	0.000066
C24	C	1.074164	0.419830	0.500066
C25	C	0.482124	0.066078	0.000041
C26	C	0.982124	0.566078	0.500041
C27	C	0.428469	0.065525	0.000036
C28	C	0.928469	0.565525	0.500036
C29	C	0.614867	-0.418985	0.000045
C30	C	1.114867	0.081015	0.500045
C31	C	0.612816	-0.620645	0.000038
C32	C	1.112816	-0.120645	0.500038
O33	O	0.650037	-0.651900	0.000021
O34	O	1.150037	-0.151900	0.500021
N35	N	0.568481	-0.639768	0.000034
N36	N	1.068481	-0.139768	0.500034
C37	C	0.524656	-0.608474	0.000028
C38	C	1.024656	-0.108474	0.500028
O39	O	0.486899	-0.629367	0.000019
O40	O	0.986899	-0.129367	0.500019
C41	C	0.526707	-0.406815	0.000031
C42	C	1.026707	0.093185	0.500031
C43	C	0.571045	-0.387694	0.000041
C44	C	1.071045	0.112306	0.500041
C45	C	0.659202	-0.399864	0.000054
C46	C	1.159202	0.100136	0.500054
C47	C	0.659714	-0.349452	0.000059
C48	C	1.159714	0.150548	0.500059
C49	C	0.615892	-0.318161	0.000054
C50	C	1.115892	0.181839	0.500054
C51	C	0.571557	-0.337282	0.000045
C52	C	1.071557	0.162718	0.500045
C53	C	0.482882	-0.375521	0.000022
C54	C	0.982882	0.124479	0.500022
C55	C	0.483399	-0.325104	0.000021
C56	C	0.983399	0.174896	0.500021
C57	C	0.527737	-0.305983	0.000031
C58	C	1.027737	0.194017	0.500031
C59	C	0.528247	-0.255580	0.000045
C60	C	1.028247	0.244420	0.500045
N61	N	0.572583	-0.236456	0.000050
N62	N	1.072583	0.263544	0.500050
C63	C	0.616405	-0.267747	0.000054
C64	C	1.116405	0.232253	0.500054
C65	C	0.523582	-0.714348	0.000027
C66	C	1.023582	-0.214348	0.500027
C67	C	0.523069	-0.764762	0.000027
C68	C	1.023069	-0.264762	0.500027
C69	C	0.611230	-0.776930	0.000036
C70	C	1.111230	-0.276930	0.500036
C71	C	0.611742	-0.726514	0.000040
C72	C	1.111742	-0.226514	0.500040
C73	C	0.567917	-0.695224	0.000031
C74	C	1.067917	-0.195224	0.500031
C75	C	0.617477	-0.161878	0.000064
C76	C	1.117477	0.338122	0.500064
C77	C	0.617986	-0.111461	0.000071
C78	C	1.117986	0.388539	0.500071
C79	C	0.529825	-0.099298	0.000059
C80	C	1.029825	0.400702	0.500059
C81	C	0.529316	-0.149710	0.000055
C82	C	1.029316	0.350290	0.500055
C83	C	0.573147	-0.180999	0.000056
C84	C	1.073147	0.319001	0.500056
O85	O	0.491047	-0.224296	0.000057
O86	O	0.991047	0.275704	0.500057
O87	O	0.654156	-0.246844	0.000053
O88	O	1.154156	0.253156	0.500053
C89	C	0.614355	-0.469397	0.000041
C90	C	1.114355	0.030603	0.500041
C91	C	0.570021	-0.488518	0.000032
C92	C	1.070021	0.011482	0.500032
C93	C	0.526198	-0.457228	0.000027
C94	C	1.026198	0.042772	0.500027
C95	C	0.569508	-0.538933	0.000032
C96	C	1.069508	-0.038933	0.500032
C97	C	0.613330	-0.570223	0.000036
C98	C	1.113330	-0.070223	0.500036
C99	C	0.657665	-0.551100	0.000041
C100	C	1.157665	-0.051100	0.500041
C101	C	0.658177	-0.500688	0.000045
C102	C	1.158177	-0.000688	0.500045
C103	C	0.481863	-0.476351	0.000023
C104	C	0.981863	0.023649	0.500023
C105	C	0.481355	-0.526764	0.000019
C106	C	0.981355	-0.026764	0.500019
C107	C	0.525177	-0.558054	0.000023
C108	C	1.025177	-0.058054	0.500023
C109	C	0.089654	0.106229	0.000051
C110	C	0.589654	0.606229	0.500051
C111	C	-0.112006	0.104178	0.000056
C112	C	0.387994	0.604178	0.500056
O113	O	-0.143262	0.141398	0.000073
O114	O	0.356738	0.641398	0.500073
N115	N	-0.131130	0.059843	0.000062
N116	N	0.368870	0.559843	0.500062
C117	C	-0.099835	0.016017	0.000069
C118	C	0.400165	0.516017	0.500069
O119	O	-0.120728	-0.021740	0.000079
O120	O	0.379272	0.478260	0.500079
C121	C	0.101824	0.018068	0.000068
C122	C	0.601824	0.518068	0.500068
C123	C	0.120944	0.062407	0.000057
C124	C	0.620944	0.562407	0.500057
C125	C	0.108775	0.150563	0.000042
C126	C	0.608775	0.650563	0.500042
C127	C	0.159187	0.151076	0.000038
C128	C	0.659187	0.651076	0.500038
C129	C	0.190477	0.107253	0.000044
C130	C	0.690477	0.607253	0.500044
C131	C	0.171356	0.062919	0.000054
C132	C	0.671356	0.562919	0.500054
C133	C	0.133117	-0.025757	0.000079
C134	C	0.633117	0.474243	0.500079
C135	C	0.183535	-0.025240	0.000080
C136	C	0.683535	0.474760	0.500080
C137	C	0.202655	0.019098	0.000069
C138	C	0.702655	0.519098	0.500069
C139	C	0.253059	0.019609	0.000056
C140	C	0.753059	0.519609	0.500056
N141	N	0.272183	0.063944	0.000050
N142	N	0.772183	0.563944	0.500050
C143	C	0.240892	0.107766	0.000044
C144	C	0.740892	0.607766	0.500044
C145	C	-0.205709	0.014943	0.000069
C146	C	0.294291	0.514943	0.500069
C147	C	-0.256124	0.014430	0.000068
C148	C	0.243876	0.514430	0.500068
C149	C	-0.268291	0.102591	0.000056
C150	C	0.231709	0.602591	0.500056
C151	C	-0.217876	0.103104	0.000053
C152	C	0.282124	0.603104	0.500053
C153	C	-0.186585	0.059278	0.000063
C154	C	0.313415	0.559278	0.500063
C155	C	0.346761	0.108839	0.000036
C156	C	0.846761	0.608839	0.500036
C157	C	0.397178	0.109347	0.000030
C158	C	0.897178	0.609347	0.500030
C159	C	0.409341	0.021186	0.000044
C160	C	0.909341	0.521186	0.500044
C161	C	0.358929	0.020678	0.000048
C162	C	0.858929	0.520678	0.500048
C163	C	0.327639	0.064508	0.000045
C164	C	0.827639	0.564508	0.500045
O165	O	0.284343	-0.017592	0.000045
O166	O	0.784343	0.482408	0.500045
O167	O	0.261794	0.145518	0.000045
O168	O	0.761794	0.645518	0.500045
C169	C	0.039242	0.105716	0.000055
C170	C	0.539242	0.605716	0.500055
C171	C	0.020120	0.061382	0.000065
C172	C	0.520120	0.561382	0.500065
C173	C	0.051411	0.017560	0.000071
C174	C	0.551411	0.517560	0.500071
C175	C	-0.030294	0.060869	0.000065
C176	C	0.469706	0.560869	0.500065
C177	C	-0.061585	0.104691	0.000059
C178	C	0.438415	0.604691	0.500059
C179	C	-0.042461	0.149026	0.000053
C180	C	0.457539	0.649026	0.500053
C181	C	0.007951	0.149539	0.000049
C182	C	0.507951	0.649539	0.500049
C183	C	0.032287	-0.026775	0.000077
C184	C	0.532287	0.473225	0.500077
C185	C	-0.018125	-0.027284	0.000080
C186	C	0.481875	0.472716	0.500080
C187	C	-0.049416	0.016538	0.000074
C188	C	0.450584	0.516538	0.500074
C189	C	0.658931	0.057699	0.000060
C190	C	1.158931	0.557699	0.500060
C191	C	0.712586	0.058252	0.000062
C192	C	1.212586	0.558252	0.500062
C193	C	0.566338	0.150292	0.000039
C194	C	1.066338	0.650292	0.500039
C195	C	0.566891	0.203947	0.000031
C196	C	1.066891	0.703947	0.500031
N197	N	0.570509	0.061906	0.129298
N198	N	1.070509	0.561906	0.629298
N199	N	0.570549	0.061867	-0.129196
N200	N	1.070549	0.561867	0.370804
C201	C	0.603640	0.028781	0.473932
C202	C	1.103640	0.528781	0.973932
C203	C	0.603652	0.028774	0.682810
C204	C	1.103652	0.528774	1.182810
O205	O	0.631801	0.000613	0.709820
O206	O	1.131801	0.500613	1.209820
N207	N	0.570539	0.061870	0.708925
N208	N	1.070539	0.561870	1.208925
C209	C	0.537419	0.094969	0.682818
C210	C	1.037419	0.594969	1.182818
O211	O	0.509252	0.123116	0.709824
O212	O	1.009252	0.623116	1.209824
C213	C	0.537406	0.094974	0.473941
C214	C	1.037406	0.594974	0.973941
C215	C	0.570524	0.061878	0.447829
C216	C	1.070524	0.561878	0.947829
C217	C	0.636755	-0.004312	0.447819
C218	C	1.136755	0.495688	0.947819
C219	C	0.636754	-0.004308	0.395603
C220	C	1.136754	0.495692	0.895603
C221	C	0.603637	0.028789	0.369500
C222	C	1.103637	0.528789	0.869500
C223	C	0.570522	0.061882	0.395612
C224	C	1.070522	0.561882	0.895612
C225	C	0.504284	0.128070	0.447835
C226	C	1.004284	0.628070	0.947835
C227	C	0.504283	0.128067	0.395613
C228	C	1.004283	0.628067	0.895613
C229	C	0.537401	0.094972	0.369500
C230	C	1.037401	0.594972	0.869500
C231	C	0.537405	0.094983	0.317293
C232	C	1.037405	0.594983	0.817293
N233	N	0.570517	0.061887	0.291177
N234	N	1.070517	0.561887	0.791177
C235	C	0.603633	0.028790	0.317281
C236	C	1.103633	0.528790	0.817281
C237	C	0.537429	0.094965	0.792481
C238	C	1.037429	0.594965	1.292481
C239	C	0.537433	0.094964	0.844700
C240	C	1.037433	0.594964	1.344700
C241	C	0.603665	0.028768	0.844689
C242	C	1.103665	0.528768	1.344689
C243	C	0.603663	0.028772	0.792469
C244	C	1.103663	0.528772	1.292469
C245	C	0.570542	0.061868	0.766366
C246	C	1.070542	0.561868	1.266366
C247	C	0.603628	0.028801	0.207623
C248	C	1.103628	0.528801	0.707623
C249	C	0.603625	0.028809	0.155402
C250	C	1.103625	0.528809	0.655402
C251	C	0.537392	0.095003	0.155418
C252	C	1.037392	0.595003	0.655418
C253	C	0.537396	0.094997	0.207635
C254	C	1.037396	0.594997	0.707635
C255	C	0.570516	0.061892	0.233735
C256	C	1.070516	0.561892	0.733735
O257	O	0.509266	0.123126	0.290250
O258	O	1.009266	0.623126	0.790250
O259	O	0.631789	0.000640	0.290266
O260	O	1.131789	0.500640	0.790266
C261	C	0.603642	0.028777	0.526149
C262	C	1.103642	0.528777	1.026149
C263	C	0.570527	0.061870	0.552261
C264	C	1.070527	0.561870	1.052261
C265	C	0.537410	0.094968	0.526158
C266	C	1.037410	0.594968	1.026158
C267	C	0.570531	0.061870	0.604480
C268	C	1.070531	0.561870	1.104480
C269	C	0.603647	0.028773	0.630584
C270	C	1.103647	0.528773	1.130584
C271	C	0.636759	-0.004324	0.604468
C272	C	1.136759	0.495676	1.104468
C273	C	0.636758	-0.004320	0.552252
C274	C	1.136758	0.495680	1.052252
C275	C	0.504298	0.128064	0.552273
C276	C	1.004298	0.628064	1.052273
C277	C	0.504303	0.128058	0.604489
C278	C	1.004303	0.628058	1.104489
C279	C	0.537419	0.094961	0.630593
C280	C	1.037419	0.594961	1.130593
H281	H	0.653168	-0.187348	0.000063
H282	H	1.153168	0.312652	0.500063
N283	N	0.028564	0.197364	0.000043
N284	N	0.528564	0.697364	0.500043
H285	H	0.049208	0.199550	0.030795
H286	H	0.549208	0.699550	0.530795
H287	H	0.049186	0.199515	-0.030732
H288	H	0.549186	0.699515	0.469268
H289	H	-0.033688	-0.063392	0.000085
H290	H	0.466312	0.436608	0.500085
H291	H	0.647846	-0.710950	0.000047
H292	H	1.147846	-0.210950	0.500047
N293	N	0.672470	-0.040007	0.367441
N294	N	1.172470	0.459993	0.867441
H295	H	0.706734	-0.034677	0.376529
H296	H	1.206734	0.465323	0.876529
H297	H	0.667116	-0.074259	0.376544
H298	H	1.167116	0.425741	0.876544
H299	H	0.445246	-0.542327	0.000015
H300	H	0.945246	-0.042327	0.500015
H301	H	0.486964	-0.780325	0.000028
H302	H	0.986964	-0.280325	0.500028
N303	N	0.501675	0.130699	0.127259
N304	N	1.001675	0.630699	0.627259
H305	H	0.506700	0.125675	0.090217
H306	H	1.006700	0.625675	0.590217
H307	H	0.467428	0.125347	0.136389
H308	H	0.967428	0.625347	0.636389
N309	N	0.468576	0.163754	0.632649
N310	N	0.968576	0.663754	1.132649
H311	H	0.473597	0.158732	0.669692
H312	H	0.973597	0.658732	1.169692
H313	H	0.473898	0.198010	0.623523
H314	H	0.973898	0.698010	1.123523
H315	H	0.663722	-0.031266	0.469068
H316	H	1.163722	0.468734	0.969068
H317	H	0.117558	-0.061861	0.000088
H318	H	0.617558	0.438139	0.500088
N319	N	0.217283	-0.072510	0.000094
N320	N	0.717283	0.427490	0.500094
H321	H	0.197517	-0.100672	0.000101
H322	H	0.697517	0.399328	0.500101
H323	H	0.238467	-0.074226	-0.030660
H324	H	0.738467	0.425774	0.469340
N325	N	0.501686	0.130699	0.235803
N326	N	1.001686	0.630699	0.735803
H327	H	0.480709	0.151668	0.211340
H328	H	0.980709	0.651668	0.711340
H329	H	0.480454	0.112340	0.257468
H330	H	0.980454	0.612340	0.757468
N331	N	0.468575	0.163761	0.524123
N332	N	0.968575	0.663761	1.024123
H333	H	0.447601	0.184723	0.548595
H334	H	0.947601	0.684723	1.048595
H335	H	0.486916	0.185008	0.502456
H336	H	0.986916	0.685008	1.002456
N337	N	-0.276744	-0.033391	0.000070
N338	N	0.223256	0.466609	0.500070
H339	H	-0.249267	-0.061072	0.000076
H340	H	0.250733	0.438928	0.500076
H341	H	-0.297398	-0.035522	0.030825
H342	H	0.202602	0.464478	0.530825
H343	H	0.630630	0.001820	0.865951
H344	H	1.130630	0.501820	1.365951
N345	N	0.672470	-0.040021	0.524088
N346	N	1.172470	0.459979	1.024088
H347	H	0.693735	-0.021700	0.502420
H348	H	1.193735	0.478300	1.002420
H349	H	0.693414	-0.060979	0.548584
H350	H	1.193414	0.439021	1.048584
N351	N	0.658496	-0.810684	0.000043
N352	N	1.158496	-0.310684	0.500043
H353	H	0.651439	-0.845521	0.000041
H354	H	1.151439	-0.345521	0.500041
H355	H	0.677838	-0.804531	-0.030711
H356	H	1.177838	-0.304531	0.469289
H357	H	0.510471	0.121919	0.865958
H358	H	1.010471	0.621919	1.365958
N359	N	0.672481	-0.040020	0.632628
N360	N	1.172481	0.459980	1.132628
H361	H	0.667453	-0.034996	0.669670
H362	H	1.167453	0.465004	1.169670
H363	H	0.667155	-0.074274	0.623502
H364	H	1.167155	0.425726	1.123502
H365	H	0.321291	0.144530	0.000035
H366	H	0.821291	0.644530	0.500035
N367	N	-0.171963	-0.032329	0.000082
N368	N	0.328037	0.467671	0.500082
H369	H	-0.191733	-0.060489	0.000085
H370	H	0.308267	0.439511	0.500085
H371	H	-0.150777	-0.034045	-0.030671
H372	H	0.349223	0.465955	0.469329
N373	N	0.481495	-0.170333	0.000048
N374	N	0.981495	0.329667	0.500048
H375	H	0.479322	-0.190975	-0.030709
H376	H	0.979322	0.309025	0.469291
H377	H	0.479339	-0.190959	0.030818
H378	H	0.979339	0.309041	0.530818
N379	N	0.476311	-0.680600	0.000021
N380	N	0.976311	-0.180600	0.500021
H381	H	0.456955	-0.686717	-0.030732
H382	H	0.956955	-0.186717	0.469268
H383	H	0.456988	-0.686733	0.030794
H384	H	0.956988	-0.186733	0.530794
N385	N	0.665809	-0.090838	0.000084
N386	N	1.165809	0.409162	0.500084
H387	H	0.693491	-0.118313	0.000085
H388	H	1.193491	0.381687	0.500085
H389	H	0.667949	-0.070183	-0.030667
H390	H	1.167949	0.429817	0.469333
H391	H	0.434827	-0.014492	0.000047
H392	H	0.934827	0.485508	0.500047
N393	N	0.707536	-0.328832	0.000068
N394	N	1.207536	0.171168	0.500068
H395	H	0.735215	-0.356310	0.000069
H396	H	1.235215	0.143690	0.500069
H397	H	0.709676	-0.308181	-0.030686
H398	H	1.209676	0.191819	0.469314
H399	H	0.694889	-0.425336	0.000056
H400	H	1.194889	0.074664	0.500056
N401	N	0.435060	-0.396136	0.000018
N402	N	0.935060	0.103864	0.500018
H403	H	0.407381	-0.368657	0.000014
H404	H	0.907381	0.131343	0.500014
H405	H	0.432927	-0.416788	-0.030736
H406	H	0.932927	0.083212	0.469264
N407	N	0.338302	-0.027142	0.000049
N408	N	0.838302	0.472858	0.500049
H409	H	0.365776	-0.054825	0.000050
H410	H	0.865776	0.445175	0.500050
H411	H	0.317651	-0.029272	0.030807
H412	H	0.817651	0.470728	0.530807
H413	H	0.630597	0.001843	0.228868
H414	H	1.130597	0.501843	0.728868
H415	H	0.174750	0.187180	0.000029
H416	H	0.674750	0.687180	0.500029
N417	N	0.704932	-0.584852	0.000042
N418	N	1.204932	-0.084852	0.500042
H419	H	0.724290	-0.578744	0.030798
H420	H	1.224290	-0.078744	0.530798
H421	H	0.697836	-0.619675	0.000019
H422	H	1.197836	-0.119675	0.500019
N423	N	0.436129	-0.291355	0.000010
N424	N	0.936129	0.208645	0.500010
H425	H	0.407967	-0.311122	0.000003
H426	H	0.907967	0.188878	0.500003
H427	H	0.434412	-0.270174	0.030765
H428	H	0.934412	0.229826	0.530765
N429	N	0.482561	-0.065544	0.000067
N430	N	0.982561	0.434456	0.500067
H431	H	0.489618	-0.030706	0.000073
H432	H	0.989618	0.469294	0.500073
H433	H	0.463222	-0.071690	-0.030687
H434	H	0.963222	0.428310	0.469313
N435	N	0.501705	0.130671	0.764337
N436	N	1.001705	0.630671	1.264337
H437	H	0.520011	0.151949	0.742670
H438	H	1.020011	0.651949	1.242670
H439	H	0.480443	0.112317	0.742704
H440	H	0.980443	0.612317	1.242704
H441	H	-0.067947	0.184708	0.000046
H442	H	0.432053	0.684708	0.500046
N443	N	0.705998	-0.480067	0.000050
N444	N	1.205998	0.019933	0.500050
H445	H	0.708175	-0.459423	0.030804
H446	H	1.208175	0.040577	0.530804
H447	H	0.733650	-0.507570	0.000033
H448	H	1.233650	-0.007570	0.500033
N449	N	0.434595	-0.442606	0.000018
N450	N	0.934595	0.057394	0.500018
H451	H	0.406435	-0.462375	0.000014
H452	H	0.906435	0.037625	0.500014
H453	H	0.432881	-0.421426	0.030774
H454	H	0.932881	0.078574	0.530774
H455	H	0.083302	0.186251	0.000038
H456	H	0.583302	0.686251	0.500038
H457	H	0.412743	0.145454	0.000021
H458	H	0.912743	0.645454	0.500021
H459	H	-0.202311	0.139207	0.000047
H460	H	0.297689	0.639207	0.500047
H461	H	0.057760	-0.062462	0.000083
H462	H	0.557760	0.437538	0.500083
H463	H	-0.293777	0.138273	0.000051
H464	H	0.206223	0.638273	0.500051
N465	N	0.468556	0.163763	0.367459
N466	N	0.968556	0.663763	0.867459
H467	H	0.447579	0.184726	0.391929
H468	H	0.947579	0.684726	0.891929
H469	H	0.486896	0.185010	0.345792
H470	H	0.986896	0.685010	0.845792
H471	H	0.630595	0.001859	0.134142
H472	H	1.130595	0.501859	0.634142
H473	H	0.630630	0.001822	0.771211
H474	H	1.130630	0.501822	1.271211
H475	H	0.477317	0.155019	0.469089
H476	H	0.977317	0.655019	0.969089
