data_functionalizedCrystal
_audit_creation_method	'MofGen! by Chris Wilmer'
_symmetry_space_group_name_H-M	'P1'
_symmetry_Int_Tables_number	1
_symmetry_cell_setting	triclinic
loop_
_symmetry_equiv_pos_as_xyz
  x,y,z
_cell_length_a	16.959455
_cell_length_b	16.959454
_cell_length_c	17.077396
_cell_angle_alpha	90.024735
_cell_angle_beta	90.018472
_cell_angle_gamma	90.017022
loop_
_atom_site_label
_atom_site_type_symbol
_atom_site_fract_x
_atom_site_fract_y
_atom_site_fract_z
Zn1	Zn	1.208416	-0.314746	0.443842
Zn2	Zn	1.208329	-0.446934	0.312584
Zn3	Zn	1.076235	-0.314766	0.312592
Zn4	Zn	1.076209	-0.446879	0.443810
O5	O	1.142297	-0.380831	0.378207
O6	O	1.319015	-0.332295	0.426440
O7	O	1.190781	-0.429433	0.202738
O8	O	1.093816	-0.204153	0.330019
O9	O	1.318951	-0.429413	0.330006
O10	O	1.190929	-0.204138	0.426447
O11	O	1.093732	-0.332330	0.202744
O12	O	0.965621	-0.332277	0.329988
O13	O	1.093772	-0.429320	0.553661
O14	O	0.965602	-0.429340	0.426394
O15	O	1.190904	-0.332242	0.553684
O16	O	1.190756	-0.557537	0.329975
O17	O	1.093688	-0.557497	0.426386
C18	C	0.936931	-0.380805	0.378189
C19	C	0.849075	-0.380813	0.378200
C20	C	1.142231	-0.586198	0.378194
C21	C	1.142275	-0.674054	0.378214
C22	C	0.477584	-0.330249	0.328113
C23	C	0.477613	-0.431478	0.428345
C24	C	0.560159	-0.431467	0.428341
C25	C	0.601422	-0.380847	0.378221
C26	C	0.560138	-0.330238	0.328105
C27	C	0.601449	-0.482081	0.478449
C28	C	0.684000	-0.482072	0.478446
C29	C	0.725264	-0.431447	0.428329
C30	C	0.683975	-0.380836	0.378213
C31	C	0.725237	-0.330215	0.328093
C32	C	0.683950	-0.279599	0.277979
C33	C	0.601402	-0.279613	0.277989
C34	C	0.807812	-0.431433	0.428320
C35	C	0.807791	-0.330204	0.328085
C36	C	1.091827	-1.045539	0.428403
C37	C	1.192987	-1.045521	0.328091
C38	C	1.192960	-0.962975	0.328084
C39	C	1.142364	-0.921707	0.378236
C40	C	1.091797	-0.962985	0.428395
C41	C	1.243521	-0.921690	0.277920
C42	C	1.243495	-0.839139	0.277910
C43	C	1.192903	-0.797870	0.328067
C44	C	1.142334	-0.839154	0.378229
C45	C	1.091738	-0.797886	0.428381
C46	C	1.041172	-0.839168	0.478548
C47	C	1.041205	-0.921716	0.478552
C48	C	1.192871	-0.715322	0.328062
C49	C	1.091707	-0.715332	0.428374
C50	C	1.348466	-0.380858	0.378225
C51	C	1.436322	-0.380869	0.378233
C52	C	1.142345	-0.380773	0.582951
C53	C	1.142366	-0.380748	0.670201
C54	C	1.142385	-0.174663	0.378238
C55	C	1.142423	-0.086806	0.378251
C56	C	1.142295	-0.380832	0.174259
C57	C	1.142428	-0.380634	0.087010
C58	C	1.192944	-0.330196	0.711205
C59	C	1.192953	-0.330169	0.793185
C60	C	1.142388	-0.380700	0.834161
C61	C	1.091804	-0.431255	0.793151
C62	C	1.091791	-0.431277	0.711172
C63	C	1.091836	-0.431207	0.964022
C64	C	1.091850	-0.431187	1.046006
C65	C	1.192998	-0.330100	1.046034
C66	C	1.192985	-0.330122	0.964055
C67	C	1.142402	-0.380678	0.923052
H68	H	0.717556	-0.238388	0.237168
H69	H	1.234175	-1.079126	0.287255
C70	C	1.299181	-0.967084	0.222768
H71	H	1.291966	-1.022159	0.229969
H72	H	1.287649	-0.953602	0.170010
H73	H	1.352277	-0.953507	0.234316
H74	H	1.000036	-0.955335	0.519394
C75	C	1.036052	-0.669944	0.483543
H76	H	1.005942	-0.706354	0.513415
H77	H	1.066256	-0.637700	0.517767
H78	H	1.001612	-0.637784	0.453478
H79	H	0.841425	-0.472647	0.469119
H80	H	1.050660	-1.079154	0.469249
C81	C	1.299121	-0.793736	0.222737
H82	H	1.329261	-0.830138	0.192874
H83	H	1.268899	-0.761567	0.188505
H84	H	1.333535	-0.761501	0.252802
H85	H	1.234141	-0.289006	0.826567
C86	C	1.248485	-0.669915	0.272886
H87	H	1.278624	-0.706316	0.243020
H88	H	1.218257	-0.637748	0.238658
H89	H	1.282902	-0.637678	0.302947
H90	H	1.234165	-0.288979	0.930695
C91	C	1.248563	-0.274607	0.666139
H92	H	1.278680	-0.244490	0.702303
H93	H	1.282987	-0.304851	0.634156
H94	H	1.218327	-0.240169	0.634163
H95	H	0.444013	-0.472696	0.469146
C96	C	1.248638	-0.274486	1.091131
H97	H	1.278758	-0.244402	1.054986
H98	H	1.218425	-0.240030	1.123111
H99	H	1.283071	-0.304725	1.123111
C100	C	1.036225	-0.486765	1.091078
H101	H	1.006089	-0.516869	1.054918
H102	H	1.066449	-0.521202	1.123057
H103	H	1.001806	-0.456505	1.123058
C104	C	1.036222	-0.486844	0.918919
H105	H	1.006121	-0.516949	0.955062
H106	H	1.001781	-0.456638	0.886924
H107	H	1.066469	-0.521290	0.886954
C108	C	1.036175	-0.486904	0.666069
H109	H	1.006071	-0.517006	0.702212
H110	H	1.001737	-0.456688	0.634079
H111	H	1.066412	-0.521354	0.634098
C112	C	0.729409	-0.537739	0.533574
H113	H	0.693011	-0.567883	0.563428
H114	H	0.761599	-0.572136	0.503491
H115	H	0.761625	-0.507532	0.567828
C116	C	0.985521	-0.793772	0.533715
H117	H	0.955408	-0.830176	0.563592
H118	H	1.015729	-0.761527	0.567934
H119	H	0.951083	-0.761612	0.503647
H120	H	0.841381	-0.288978	0.287275
H121	H	1.050630	-0.472395	0.826520
H122	H	0.443965	-0.289037	0.287315
C123	C	0.555985	-0.223953	0.222860
H124	H	0.500913	-0.231219	0.230036
H125	H	0.569519	-0.170854	0.234428
H126	H	0.569494	-0.235463	0.170097
H127	H	0.567847	-0.523299	0.519248
