data_functionalizedCrystal
_audit_creation_method	'MofGen! by Chris Wilmer'
_symmetry_space_group_name_H-M	'P1'
_symmetry_Int_Tables_number	1
_symmetry_cell_setting	triclinic
loop_
_symmetry_equiv_pos_as_xyz
  x,y,z
_cell_length_a	13.635800
_cell_length_b	7.190378
_cell_length_c	7.076078
_cell_angle_alpha	83.157426
_cell_angle_beta	117.701375
_cell_angle_gamma	119.389020
loop_
_atom_site_label
_atom_site_type_symbol
_atom_site_fract_x
_atom_site_fract_y
_atom_site_fract_z
V1	V	-2.149233	-0.663533	-0.291748
O2	O	-2.101116	-0.652438	0.017474
O3	O	-2.161847	-0.657518	-0.581810
O4	O	-2.167044	-0.953596	-0.285745
O5	O	-2.095884	-0.354309	-0.280641
V6	V	-2.380833	-0.626727	-0.254941
O7	O	-2.302152	-0.744270	-0.372489
O8	O	-2.453012	-0.545989	-0.174201
O9	O	-2.256615	-0.632742	0.035121
O10	O	-2.487648	-0.637822	-0.564163
O11	O	-2.492881	-0.935950	-0.266049
O12	O	-2.251419	-0.336663	-0.260944
V13	V	-1.880826	-0.626727	-0.254941
O14	O	-1.934175	-0.935950	-0.266049
O15	O	-1.863015	-0.336663	-0.260944
O16	O	-1.868211	-0.632742	0.035121
O17	O	-1.928942	-0.637822	-0.564163
V18	V	-1.649226	-0.663533	-0.291748
O19	O	-1.727906	-0.545989	-0.174201
O20	O	-1.577046	-0.744270	-0.372489
O21	O	-1.778640	-0.953596	-0.285745
O22	O	-1.537178	-0.354309	-0.280641
O23	O	-1.542411	-0.652438	0.017474
O24	O	-1.773443	-0.657518	-0.581810
C25	C	-1.875007	-0.024343	-0.274900
C26	C	-1.931496	-0.265914	-0.271820
C27	C	-2.095432	-0.646668	0.347432
C28	C	-2.158195	-0.643602	0.105859
C29	C	-2.155077	-1.265921	-0.271901
C30	C	-2.098574	-1.024342	-0.274926
C31	C	-1.938111	-0.643594	0.105867
C32	C	-1.885917	-0.646656	0.347440
