data_functionalizedCrystal
_audit_creation_method	'MofGen! by Chris Wilmer'
_symmetry_space_group_name_H-M	'P1'
_symmetry_Int_Tables_number	1
_symmetry_cell_setting	triclinic
loop_
_symmetry_equiv_pos_as_xyz
  x,y,z
_cell_length_a	16.109318
_cell_length_b	11.792254
_cell_length_c	15.186229
_cell_angle_alpha	89.996078
_cell_angle_beta	90.000224
_cell_angle_gamma	83.833580
loop_
_atom_site_label
_atom_site_type_symbol
_atom_site_fract_x
_atom_site_fract_y
_atom_site_fract_z
O1	O	1.103813	0.145978	-0.073156
O2	O	0.861839	0.164113	-0.073174
O3	O	0.988693	-0.010175	-0.073158
O4	O	0.976960	0.320266	-0.073171
O5	O	0.988684	-0.010178	0.073299
O6	O	0.861831	0.164110	0.073284
O7	O	1.103805	0.145976	0.073302
Zn8	Zn	0.982817	0.155042	0.096546
Zn9	Zn	0.982828	0.155046	-0.096418
O10	O	0.976951	0.320263	0.073286
C11	C	0.830857	0.163373	0.000053
C12	C	0.738552	0.161161	0.000046
C13	C	0.439449	0.154016	-0.079772
C14	C	0.526180	0.156087	-0.079777
C15	C	0.526190	0.156069	0.079898
C16	C	0.439461	0.153989	0.079903
C17	C	0.396092	0.152969	0.000065
C18	C	0.569552	0.157120	0.000055
C19	C	0.663590	0.159366	0.000050
C20	C	0.302049	0.150720	0.000070
C21	C	0.987950	-0.052461	0.000070
C22	C	0.985737	-0.178455	0.000069
C23	C	0.983940	-0.280776	0.000066
C24	C	0.981692	-0.409143	0.000058
C25	C	1.134787	0.146715	0.000073
C26	C	1.227092	0.148928	0.000074
C27	C	0.977695	0.362549	0.000056
C28	C	0.979907	0.488543	0.000051
N29	N	0.982815	0.155040	0.228239
N30	N	0.982836	0.155040	-0.228111
C31	C	1.039005	0.077891	0.453968
C32	C	1.039008	0.077888	0.546158
C33	C	0.926640	0.232192	0.546153
C34	C	0.926634	0.232188	0.453965
C35	C	0.982821	0.155039	0.407875
C36	C	0.982830	0.155040	0.592253
C37	C	0.982832	0.155038	0.692209
C38	C	0.982818	0.155040	0.307913
H39	H	0.561511	0.156902	0.144899
H40	H	1.084755	0.015070	0.416444
H41	H	1.084757	0.015066	0.583685
Br42	Br	0.380614	0.152561	0.188261
H43	H	0.561478	0.156938	-0.144789
H44	H	0.880894	0.295007	0.583689
H45	H	0.404141	0.153183	-0.144781
Br46	Br	0.850373	0.336888	0.391403
