data_functionalizedCrystal
_audit_creation_method	'MofGen! by Chris Wilmer'
_symmetry_space_group_name_H-M	'P1'
_symmetry_Int_Tables_number	1
_symmetry_cell_setting	triclinic
loop_
_symmetry_equiv_pos_as_xyz
  x,y,z
_cell_length_a	11.026660
_cell_length_b	10.489716
_cell_length_c	9.482900
_cell_angle_alpha	99.433190
_cell_angle_beta	78.636107
_cell_angle_gamma	96.556985
loop_
_atom_site_label
_atom_site_type_symbol
_atom_site_fract_x
_atom_site_fract_y
_atom_site_fract_z
O1	O	1.633559	0.519508	-0.120868
O2	O	1.279729	0.458571	-0.120872
O3	O	1.464712	0.305213	-0.120875
O4	O	1.448576	0.672866	-0.120865
O5	O	1.427139	0.336524	0.120918
O6	O	1.242156	0.489881	0.120921
O7	O	1.595987	0.550819	0.120925
Cu8	Cu	1.415641	0.523209	0.143001
Cu9	Cu	1.460075	0.486181	-0.142948
O10	O	1.411004	0.704176	0.120928
C11	C	1.215635	0.462984	0.000023
C12	C	1.080632	0.429470	0.000021
C13	C	0.868093	0.487380	0.000018
C14	C	1.007625	0.522021	0.000022
C15	C	1.444714	0.273069	0.000017
C16	C	1.441089	0.130639	0.000004
C17	C	1.554524	0.057919	0.000018
C18	C	1.513106	-0.048064	-0.119195
C19	C	1.476036	-0.017165	0.119194
C20	C	1.399734	0.026519	-0.119309
C21	C	1.362664	0.057441	0.119188
C22	C	1.321167	-0.048515	-0.000055
C23	C	1.660081	0.546405	0.000026
C24	C	1.795086	0.579917	0.000019
C25	C	1.431002	0.736320	0.000033
C26	C	1.434628	0.878749	0.000036
N27	N	1.384397	0.549253	0.344121
N28	N	1.491328	0.460128	-0.344068
C29	C	1.450851	0.493854	0.416319
C30	C	1.424864	0.515535	0.583737
H31	H	1.048414	0.626898	0.000034
H32	H	1.039859	0.324581	-0.000079
C33	C	1.326079	-0.064815	-0.339319
C34	C	1.356302	0.053113	-0.255529
H35	H	1.299263	-0.048392	-0.423410
H36	H	1.397091	-0.112854	-0.367800
H37	H	1.261370	-0.113168	-0.283576
H38	H	1.421018	0.101461	-0.311270
H39	H	1.285282	0.101172	-0.227050
H40	H	1.526979	0.430367	0.354190
C41	C	0.907222	0.266864	0.000012
C42	C	0.813037	0.345804	0.000012
H43	H	0.873231	0.179461	0.000016
H44	H	0.969248	0.272870	-0.084300
H45	H	0.943048	0.294715	0.084338
H46	H	0.777218	0.317960	-0.084320
H47	H	0.750990	0.339792	0.084333
C48	C	1.593647	-0.244079	-0.254452
C49	C	1.598879	-0.110192	-0.255258
H50	H	1.646598	-0.282427	-0.338455
H51	H	1.619979	-0.259831	-0.169808
H52	H	1.510816	-0.280781	-0.254571
H53	H	1.681710	-0.073489	-0.255129
H54	H	1.572554	-0.094431	-0.339925
C55	C	1.221433	0.023787	0.339961
C56	C	1.276937	0.119613	0.255252
H57	H	1.168522	0.062177	0.423974
H58	H	1.174135	-0.039618	0.284808
H59	H	1.284006	-0.016169	0.368568
H60	H	1.214365	0.159563	0.226635
H61	H	1.324238	0.183042	0.310415
H62	H	1.222432	-0.094674	-0.000121
H63	H	1.508285	-0.037048	0.219977
C64	C	0.755956	0.800434	0.000031
C65	C	0.850141	0.721494	0.000028
H66	H	0.789944	0.887840	0.000046
H67	H	0.720137	0.772595	-0.084286
H68	H	0.693921	0.794419	0.084352
H69	H	0.912172	0.727502	-0.084299
H70	H	0.885980	0.749341	0.084353
C71	C	1.207869	0.548834	0.630939
C72	C	1.322077	0.601234	0.667596
H73	H	1.144415	0.601736	0.682720
H74	H	1.211855	0.545519	0.529446
H75	H	1.189876	0.463714	0.655816
H76	H	1.340075	0.686351	0.642709
H77	H	1.318092	0.604564	0.769112
C78	C	1.766288	0.066903	-0.125194
C79	C	1.687732	0.120575	-0.000176
H80	H	1.848516	0.105607	-0.125331
H81	H	1.765049	-0.023903	-0.126030
H82	H	1.738582	0.082628	-0.209007
H83	H	1.715432	0.104842	0.083637
H84	H	1.688976	0.211402	0.000674
H85	H	1.567461	0.396637	0.593806
H86	H	1.308260	0.612729	0.406252
