data_functionalizedCrystal
_audit_creation_method	'MofGen! by Chris Wilmer'
_symmetry_space_group_name_H-M	'P1'
_symmetry_Int_Tables_number	1
_symmetry_cell_setting	triclinic
loop_
_symmetry_equiv_pos_as_xyz
  x,y,z
_cell_length_a	25.639239
_cell_length_b	18.215407
_cell_length_c	18.215399
_cell_angle_alpha	90.018561
_cell_angle_beta	89.969965
_cell_angle_gamma	89.969578
loop_
_atom_site_label
_atom_site_type_symbol
_atom_site_fract_x
_atom_site_fract_y
_atom_site_fract_z
Zn1	Zn	-0.208271	-1.125001	-0.416080
Zn2	Zn	-0.295707	-1.124880	-0.293009
Zn3	Zn	-0.208275	-1.001934	-0.293030
Zn4	Zn	-0.295665	-1.001870	-0.416037
O5	O	-0.251980	-1.063421	-0.354539
O6	O	-0.219886	-1.227969	-0.399764
O7	O	-0.284129	-1.108547	-0.190028
O8	O	-0.135110	-1.018336	-0.309380
O9	O	-0.284125	-1.227880	-0.309344
O10	O	-0.135107	-1.108754	-0.399784
O11	O	-0.219893	-1.018219	-0.190043
O12	O	-0.219852	-0.898941	-0.309338
O13	O	-0.284053	-1.018228	-0.519027
O14	O	-0.284056	-0.898894	-0.399711
O15	O	-0.219845	-1.108692	-0.519059
O16	O	-0.368867	-1.108485	-0.309302
O17	O	-0.368836	-1.018110	-0.399690
C18	C	-0.251950	-0.872215	-0.354522
C19	C	-0.251950	-0.790416	-0.354533
C20	C	-0.218577	-0.525399	-0.401689
C21	C	-0.218571	-0.602258	-0.401687
C22	C	-0.285366	-0.602185	-0.307393
C23	C	-0.285374	-0.525327	-0.307398
C24	C	-0.251976	-0.486937	-0.354545
C25	C	-0.251962	-0.640653	-0.354538
C26	C	-0.251956	-0.723986	-0.354536
C27	C	-0.251983	-0.403598	-0.354548
C28	C	-0.387822	-1.063298	-0.354505
C29	C	-0.445936	-1.063312	-0.354516
C30	C	-0.806303	-1.110602	-0.307554
C31	C	-0.860907	-1.110631	-0.307564
O32	O	-0.889147	-1.150710	-0.267599
N33	N	-0.888219	-1.063551	-0.354588
C34	C	-0.860923	-1.016444	-0.401610
O35	O	-0.889168	-0.976402	-0.441609
C36	C	-0.806320	-1.016420	-0.401603
C37	C	-0.779011	-1.063498	-0.354571
C38	C	-0.778994	-1.157677	-0.260527
C39	C	-0.724394	-1.157647	-0.260516
C40	C	-0.697102	-1.110543	-0.307533
C41	C	-0.724411	-1.063468	-0.354561
C42	C	-0.779025	-0.969318	-0.448629
C43	C	-0.724418	-0.969298	-0.448618
C44	C	-0.697109	-1.016376	-0.401586
C45	C	-0.642518	-1.016334	-0.401567
N46	N	-0.615207	-1.063414	-0.354543
C47	C	-0.642499	-1.110519	-0.307526
C48	C	-0.975594	-1.016500	-0.401621
C49	C	-1.030196	-1.016520	-0.401625
C50	C	-1.030177	-1.110707	-0.307580
C51	C	-0.975573	-1.110683	-0.307573
C52	C	-0.948282	-1.063580	-0.354598
C53	C	-0.527834	-1.110452	-0.307507
C54	C	-0.473228	-1.110416	-0.307499
C55	C	-0.473253	-1.016232	-0.401546
C56	C	-0.527853	-1.016265	-0.401552
C57	C	-0.555142	-1.063381	-0.354530
O58	O	-0.614244	-0.976277	-0.441514
O59	O	-0.614248	-1.150561	-0.267541
C60	C	-0.115607	-1.063566	-0.354589
C61	C	-0.057493	-1.063627	-0.354610
C62	C	-0.251944	-1.063466	-0.546492
C63	C	-0.251928	-1.063485	-0.628291
C64	C	-0.252001	-0.255374	-0.354553
C65	C	-0.251988	-0.337173	-0.354551
C66	C	-0.218464	-1.110607	-0.816503
C67	C	-0.218449	-1.110616	-0.893362
C68	C	-0.285312	-1.016416	-0.893317
C69	C	-0.285324	-1.016404	-0.816460
C70	C	-0.251901	-1.063504	-0.778055
C71	C	-0.251874	-1.063524	-0.931771
C72	C	-0.251857	-1.063533	-1.015105
C73	C	-0.251916	-1.063494	-0.694716
C74	C	-0.251978	-1.063419	-0.163333
C75	C	-0.251846	-1.063543	-0.081534
H76	H	-0.191374	-0.633571	-0.440077
C77	C	-1.091654	-0.917541	-0.411777
C78	C	-1.060210	-0.964764	-0.453318
H79	H	-1.110179	-0.885589	-0.443696
H80	H	-1.115725	-0.945597	-0.383788
H81	H	-1.070381	-0.889403	-0.379684
H82	H	-1.081484	-0.992907	-0.485408
H83	H	-1.036136	-0.936705	-0.481320
H84	H	-0.702162	-1.195984	-0.222221
H85	H	-0.191382	-0.494144	-0.440078
H86	H	-0.312525	-0.978071	-0.924596
C87	C	-0.351422	-0.923296	-0.824130
C88	C	-0.322083	-0.964627	-0.774192
H89	H	-0.374115	-0.891335	-0.798034
H90	H	-0.328635	-0.895172	-0.854110
H91	H	-0.371420	-0.955352	-0.854106
H92	H	-0.302082	-0.932571	-0.744219
H93	H	-0.344873	-0.992753	-0.744199
H94	H	-1.052407	-1.149065	-0.269298
H95	H	-0.801250	-0.930978	-0.486924
H96	H	-0.312575	-0.494010	-0.269008
C97	C	-0.315007	-0.719970	-0.265508
C98	C	-0.322069	-0.644386	-0.255563
H99	H	-0.337665	-0.746020	-0.233505
H100	H	-0.322703	-0.732579	-0.314928
H101	H	-0.279865	-0.732570	-0.254824
H102	H	-0.357211	-0.631785	-0.266253
H103	H	-0.314377	-0.631772	-0.206132
C104	C	-0.478702	-1.203524	-0.214540
C105	C	-0.443211	-1.162171	-0.255801
H106	H	-0.460171	-1.235478	-0.182630
H107	H	-0.500032	-1.171487	-0.186367
H108	H	-0.499967	-1.231663	-0.246644
H109	H	-0.421949	-1.134028	-0.223697
H110	H	-0.421873	-1.194212	-0.283976
C111	C	-0.707578	-0.933375	-0.573207
C112	C	-0.694420	-0.917520	-0.500311
H113	H	-0.689061	-0.901407	-0.605117
H114	H	-0.698590	-0.982806	-0.584010
H115	H	-0.744008	-0.926655	-0.579931
H116	H	-0.657991	-0.924246	-0.493585
H117	H	-0.703405	-0.868078	-0.489504
C118	C	-0.589157	-1.209514	-0.297383
C119	C	-0.557818	-1.162254	-0.255825
H120	H	-0.607664	-1.241497	-0.265475
H121	H	-0.613244	-1.181487	-0.325374
H122	H	-0.567815	-1.237617	-0.329475
H123	H	-0.579162	-1.134147	-0.223736
H124	H	-0.533729	-1.190284	-0.227821
H125	H	-0.953342	-1.149018	-0.269276
C126	C	-0.773476	-1.250761	-0.167561
C127	C	-0.808987	-1.209456	-0.208835
H128	H	-0.791991	-1.282723	-0.135641
H129	H	-0.752152	-1.278883	-0.199651
H130	H	-0.752208	-1.218689	-0.139391
H131	H	-0.830253	-1.241528	-0.237009
H132	H	-0.830321	-1.181332	-0.176741
C133	C	-0.914158	-1.006171	-0.500608
C134	C	-0.945598	-0.964711	-0.453309
H135	H	-0.895645	-0.974198	-0.532520
H136	H	-0.890076	-1.034195	-0.472605
H137	H	-0.935432	-1.038228	-0.528786
H138	H	-0.924323	-0.932658	-0.425126
H139	H	-0.969682	-0.936674	-0.481315
C140	C	-0.522385	-0.923166	-0.494515
C141	C	-0.557874	-0.964517	-0.453250
H142	H	-0.540917	-0.891227	-0.526439
H143	H	-0.501127	-0.895019	-0.462421
H144	H	-0.501048	-0.955211	-0.522682
H145	H	-0.579208	-0.932472	-0.425079
H146	H	-0.579141	-0.992666	-0.485349
H147	H	-0.451023	-0.977877	-0.439825
H148	H	-0.191248	-1.148956	-0.785236
H149	H	-0.191220	-1.148971	-0.924663
