data_functionalizedCrystal
_audit_creation_method	'MofGen! by Chris Wilmer'
_symmetry_space_group_name_H-M	'P1'
_symmetry_Int_Tables_number	1
_symmetry_cell_setting	triclinic
loop_
_symmetry_equiv_pos_as_xyz
  x,y,z
_cell_length_a	10.967961
_cell_length_b	9.730223
_cell_length_c	10.654550
_cell_angle_alpha	89.996251
_cell_angle_beta	84.599622
_cell_angle_gamma	77.872108
loop_
_atom_site_label
_atom_site_type_symbol
_atom_site_fract_x
_atom_site_fract_y
_atom_site_fract_z
O1	O	0.175267	-0.155905	1.667809
O2	O	0.191966	-0.159837	1.302328
O3	O	0.002044	-0.114867	1.493498
O4	O	0.365189	-0.200875	1.476639
O5	O	0.002049	0.113711	1.493495
O6	O	0.191970	0.068741	1.302326
O7	O	0.175272	0.072674	1.667807
Zn8	Zn	0.183622	0.106999	1.485066
Zn9	Zn	0.183615	-0.194163	1.485069
O10	O	0.365193	0.027704	1.476637
C11	C	0.190742	-0.045255	1.255529
C12	C	0.187074	-0.044377	1.116086
C13	C	-0.044453	0.010432	1.492269
C14	C	-0.183006	0.043239	1.488597
N15	N	0.183625	0.312535	1.485073
C16	C	-0.387981	-0.026637	1.483172
C17	C	-0.244779	-0.060554	1.486963
C18	C	0.411690	-0.097599	1.477865
C19	C	0.550243	-0.130415	1.481537
N20	N	0.183602	-0.399696	1.485071
C21	C	0.099557	0.404367	1.569745
C22	C	0.099542	0.548253	1.569742
C23	C	0.267675	0.508461	1.400390
C24	C	0.267683	0.364579	1.400389
C25	C	0.002490	0.427341	1.667522
C26	C	0.002475	0.571228	1.667519
C27	C	0.298897	-0.070882	1.036585
C28	C	0.295442	-0.070087	0.905564
C29	C	0.068332	-0.016288	0.933560
C30	C	0.071788	-0.017073	1.064578
C31	C	0.430017	-0.101949	1.020420
C32	C	0.426562	-0.101154	0.889400
C33	C	0.176495	-0.041912	1.714606
C34	C	0.180164	-0.042798	1.854048
H35	H	-0.441108	0.087322	1.481758
H36	H	-0.396628	-0.244373	1.482935
Br37	Br	0.381757	0.239951	1.285454
Br38	Br	0.381744	0.579100	1.285464
H39	H	-0.093426	0.411005	1.646093
H40	H	0.032883	0.375511	1.758702
Br41	Br	-0.148584	0.681386	1.616668
Br42	Br	0.492610	0.047676	0.813253
H43	H	-0.236126	0.157205	1.487180
Br44	Br	0.038094	0.627882	1.828370
Br45	Br	-0.079978	0.018938	1.172472
Br46	Br	-0.156245	-0.250508	1.489293
H47	H	0.475965	-0.208522	0.847661
Br48	Br	-0.088120	0.020772	0.863648
H49	H	0.481300	-0.018429	1.049743
Br50	Br	0.499594	-0.282911	1.079854
