data_functionalizedCrystal
_audit_creation_method	'MofGen! by Chris Wilmer'
_symmetry_space_group_name_H-M	'P1'
_symmetry_Int_Tables_number	1
_symmetry_cell_setting	triclinic
loop_
_symmetry_equiv_pos_as_xyz
  x,y,z
_cell_length_a	11.792241
_cell_length_b	10.540539
_cell_length_c	10.268362
_cell_angle_alpha	90.003141
_cell_angle_beta	90.000374
_cell_angle_gamma	84.359454
loop_
_atom_site_label
_atom_site_type_symbol
_atom_site_fract_x
_atom_site_fract_y
_atom_site_fract_z
O1	O	-1.507362	-0.173992	-0.108167
O2	O	-1.007362	0.326008	0.391833
O3	O	-1.177067	-0.191924	-0.108197
O4	O	-0.677067	0.308076	0.391803
O5	O	-1.349750	0.001773	-0.108180
O6	O	-0.849750	0.501773	0.391820
O7	O	-1.334679	-0.367689	-0.108184
O8	O	-0.834679	0.132311	0.391816
O9	O	-1.349735	0.001781	0.108421
O10	O	-0.849735	0.501781	0.608421
O11	O	-1.177052	-0.191916	0.108404
O12	O	-0.677052	0.308084	0.608404
O13	O	-1.507347	-0.173984	0.108433
O14	O	-1.007347	0.326016	0.608433
Cu15	Cu	-1.342198	-0.182949	0.128196
Cu16	Cu	-0.842198	0.317051	0.628196
Cu17	Cu	-1.342216	-0.182959	-0.127959
Cu18	Cu	-0.842216	0.317041	0.372041
O19	O	-1.334664	-0.367681	0.108416
O20	O	-0.834664	0.132319	0.608416
C21	C	-1.134766	-0.190793	0.000100
C22	C	-0.634766	0.309207	0.500100
C23	C	-1.008743	-0.187422	0.000088
C24	C	-0.508743	0.312578	0.500088
C25	C	-1.348612	0.049076	0.000118
C26	C	-0.848612	0.549076	0.500118
C27	C	-1.345231	0.190014	0.000111
C28	C	-0.845231	0.690014	0.500111
C29	C	-1.549648	-0.175114	0.000134
C30	C	-1.049648	0.324886	0.500134
C31	C	-1.675671	-0.178486	0.000137
C32	C	-1.175671	0.321514	0.500137
C33	C	-1.335802	-0.414984	0.000116
C34	C	-0.835802	0.085016	0.500116
C35	C	-1.339183	-0.555921	0.000114
C36	C	-0.839183	-0.055921	0.500114
C37	C	-0.778015	-0.181223	0.000126
C38	C	-0.278015	0.318777	0.500126
C39	C	-0.906409	-0.184667	0.000105
C40	C	-0.406409	0.315333	0.500105
C41	C	-1.215660	0.373018	-0.000387
C42	C	-0.715660	0.873018	0.499613
C43	C	-1.219087	0.226411	0.000101
C44	C	-0.719087	0.726411	0.500101
C45	C	-1.405928	0.251874	0.123806
C46	C	-0.905928	0.751874	0.623806
C47	C	-1.401623	0.398404	0.123910
C48	C	-0.901623	0.898404	0.623910
C49	C	-1.404206	0.398921	-0.122405
C50	C	-0.904206	0.898921	0.377595
C51	C	-1.405368	0.251943	-0.124041
C52	C	-0.905368	0.751943	0.375959
N53	N	-1.342194	-0.182942	0.308362
N54	N	-0.842194	0.317058	0.808362
N55	N	-1.342229	-0.182956	-0.308125
N56	N	-0.842229	0.317044	0.191875
C57	C	-1.342210	-0.182956	0.574032
C58	C	-0.842210	0.317044	1.074032
C59	C	-1.342197	-0.182952	0.426195
C60	C	-0.842197	0.317048	0.926195
H61	H	-1.171327	0.183649	-0.088569
H62	H	-0.671327	0.683649	0.411431
H63	H	-1.495319	0.446444	-0.123229
H64	H	-0.995319	0.946444	0.376771
C65	C	-1.148609	0.413593	0.118766
C66	C	-0.648609	0.913593	0.618766
H67	H	-1.195567	0.473648	0.168819
H68	H	-0.695567	0.973648	0.668819
H69	H	-1.082972	0.451254	0.090323
H70	H	-0.582972	0.951254	0.590323
H71	H	-1.125940	0.340902	0.170683
H72	H	-0.625940	0.840902	0.670683
H73	H	-1.356752	0.426461	0.216366
H74	H	-0.856752	0.926461	0.716366
C75	C	-1.154104	0.169780	0.120071
C76	C	-0.654104	0.669780	0.620071
H77	H	-1.155968	0.079880	0.120772
H78	H	-0.655968	0.579880	0.620772
H79	H	-1.189003	0.205140	0.197017
H80	H	-0.689003	0.705140	0.697017
H81	H	-1.077234	0.189367	0.116425
H82	H	-0.577234	0.689367	0.616425
H83	H	-1.360956	0.210937	-0.215547
H84	H	-0.860956	0.710937	0.284453
C85	C	-1.524168	0.463617	0.131536
C86	C	-1.024168	0.963617	0.631536
H87	H	-1.522369	0.553529	0.131647
H88	H	-1.022369	1.053529	0.631647
H89	H	-1.559329	0.438213	0.209256
H90	H	-1.059329	0.938213	0.709256
H91	H	-1.566402	0.439352	0.058396
H92	H	-1.066402	0.939352	0.558396
C93	C	-1.148339	0.411441	-0.120204
C94	C	-0.648339	0.911441	0.379796
H95	H	-1.194955	0.471170	-0.170997
H96	H	-0.694955	0.971170	0.329003
H97	H	-1.126115	0.337952	-0.171144
H98	H	-0.626115	0.837952	0.328856
H99	H	-1.082418	0.448940	-0.092386
H100	H	-0.582418	0.948940	0.407614
C101	C	-1.531067	0.222079	0.130045
C102	C	-1.031067	0.722079	0.630045
H103	H	-1.547445	0.171522	0.057096
H104	H	-1.047445	0.671522	0.557096
H105	H	-1.579653	0.299496	0.128904
H106	H	-1.079653	0.799496	0.628904
H107	H	-1.543299	0.176810	0.207981
H108	H	-1.043299	0.676810	0.707981
H109	H	-1.363752	0.209140	0.215848
H110	H	-0.863752	0.709140	0.715848
H111	H	-1.363386	0.430338	-0.216158
H112	H	-0.863386	0.930338	0.283842
C113	C	-1.529612	0.219638	-0.134122
C114	C	-1.029612	0.719638	0.365878
H115	H	-1.546513	0.167735	-0.062422
H116	H	-1.046513	0.667735	0.437578
H117	H	-1.539594	0.175080	-0.213066
H118	H	-1.039594	0.675080	0.286934
H119	H	-1.579387	0.296182	-0.133067
H120	H	-1.079387	0.796182	0.366933
