data_functionalizedCrystal
_audit_creation_method	'MofGen! by Chris Wilmer'
_symmetry_space_group_name_H-M	'P1'
_symmetry_Int_Tables_number	1
_symmetry_cell_setting	triclinic
loop_
_symmetry_equiv_pos_as_xyz
  x,y,z
_cell_length_a	11.792254
_cell_length_b	11.792240
_cell_length_c	14.472310
_cell_angle_alpha	89.989639
_cell_angle_beta	89.985749
_cell_angle_gamma	84.196007
loop_
_atom_site_label
_atom_site_type_symbol
_atom_site_fract_x
_atom_site_fract_y
_atom_site_fract_z
O1	O	-1.506915	-0.155629	0.076888
O2	O	-1.006915	0.344371	0.576888
O3	O	-1.176576	-0.171647	0.076886
O4	O	-0.676576	0.328353	0.576886
O5	O	-1.349762	0.001533	0.076859
O6	O	-0.849762	0.501533	0.576859
O7	O	-1.333729	-0.328808	0.076915
O8	O	-0.833729	0.171192	0.576915
O9	O	-1.349717	0.001523	-0.076823
O10	O	-0.849717	0.501523	0.423177
O11	O	-1.176531	-0.171656	-0.076796
O12	O	-0.676531	0.328344	0.423204
O13	O	-1.506870	-0.155638	-0.076794
O14	O	-1.006870	0.344362	0.423206
Cu15	Cu	-1.341697	-0.163648	-0.090827
Cu16	Cu	-0.841697	0.336352	0.409173
Cu17	Cu	-1.341750	-0.163637	0.090919
Cu18	Cu	-0.841750	0.336363	0.590919
O19	O	-1.333684	-0.328818	-0.076767
O20	O	-0.833684	0.171182	0.423233
C21	C	-1.134263	-0.170642	0.000044
C22	C	-0.634263	0.329358	0.500044
C23	C	-1.008250	-0.167622	0.000042
C24	C	-0.508250	0.332378	0.500042
C25	C	-1.348732	0.043819	0.000013
C26	C	-0.848732	0.543819	0.500013
C27	C	-1.345718	0.169832	-0.000003
C28	C	-0.845718	0.669832	0.499997
N29	N	-1.341668	-0.163656	-0.218658
N30	N	-0.841668	0.336344	0.281342
C31	C	-0.905913	-0.165168	0.000044
C32	C	-0.405913	0.334832	0.500044
C33	C	-0.777527	-0.162100	0.000042
C34	C	-0.277527	0.337900	0.500042
C35	C	-0.549183	-0.156643	0.000045
C36	C	-0.049183	0.343357	0.500045
C37	C	-0.675196	-0.159663	0.000040
C38	C	-0.175196	0.340337	0.500040
C39	C	-1.340175	0.400545	-0.000018
C40	C	-0.840175	0.900545	0.499982
C41	C	-1.343255	0.272160	-0.000009
C42	C	-0.843255	0.772160	0.499991
C43	C	-1.334714	0.628896	0.000048
C44	C	-0.834714	1.128896	0.500048
C45	C	-1.337728	0.502883	-0.000028
C46	C	-0.837728	1.002883	0.499972
C47	C	-1.341748	-0.163632	-0.592750
C48	C	-0.841748	0.336368	-0.092750
C49	C	-1.248765	-0.255982	-0.553569
C50	C	-0.748765	0.244018	-0.053569
C51	C	-1.248983	-0.256322	-0.446481
C52	C	-0.748983	0.243678	0.053519
C53	C	-1.341707	-0.163644	-0.407159
C54	C	-0.841707	0.336356	0.092841
C55	C	-1.460294	-0.190245	-0.445990
C56	C	-0.960294	0.309755	0.054010
C57	C	-1.459772	-0.190902	-0.553111
C58	C	-0.959772	0.309098	-0.053111
C59	C	-1.317199	-0.044413	-0.553300
C60	C	-0.817199	0.455587	-0.053300
C61	C	-1.314488	-0.045190	-0.446172
C62	C	-0.814488	0.454810	0.053828
C63	C	-1.341692	-0.163648	-0.302270
C64	C	-0.841692	0.336352	0.197730
C65	C	-1.341771	-0.163630	-0.697638
C66	C	-0.841771	0.336370	-0.197638
N67	N	-1.341787	-0.163620	0.218750
N68	N	-0.841787	0.336380	0.718750
H69	H	-1.160859	-0.240365	-0.420229
H70	H	-0.660859	0.259635	0.079771
H71	H	-1.531169	-0.124801	-0.420516
H72	H	-1.031169	0.375199	0.079484
N73	N	-1.402240	0.041830	-0.585073
N74	N	-0.902240	0.541830	-0.085073
N75	N	-1.463527	0.099453	-0.528185
N76	N	-0.963527	0.599453	-0.028185
H77	H	-1.523589	0.160355	-0.550629
H78	H	-1.023589	0.660355	-0.050629
N79	N	-1.268681	-0.367310	-0.414311
N80	N	-0.768681	0.132690	0.085689
N81	N	-1.282322	-0.444756	-0.470973
N82	N	-0.782322	0.055244	0.029027
H83	H	-1.296216	-0.523152	-0.448254
H84	H	-0.796216	-0.023152	0.051746
H85	H	-1.227251	-0.025020	-0.420794
H86	H	-0.727251	0.474980	0.079206
N87	N	-1.137861	-0.236271	-0.585927
N88	N	-0.637861	0.263729	-0.085927
N89	N	-1.126051	-0.153935	-0.638247
N90	N	-0.626051	0.346065	-0.138247
H91	H	-1.047722	-0.140011	-0.661105
H92	H	-0.547722	0.359989	-0.161105
N93	N	-1.487908	-0.298106	-0.412297
N94	N	-0.987908	0.201894	0.087703
N95	N	-1.420450	-0.355563	-0.359698
N96	N	-0.920450	0.144437	0.140302
H97	H	-1.439946	-0.431743	-0.335902
H98	H	-0.939946	0.068257	0.164098
H99	H	-1.264304	-0.343939	-0.580464
H100	H	-0.764304	0.156061	-0.080464
N101	N	-1.393843	0.045159	-0.412618
N102	N	-0.893843	0.545159	0.087382
N103	N	-1.359272	0.124437	-0.366533
N104	N	-0.859272	0.624437	0.133467
H105	H	-1.415325	0.188247	-0.342840
H106	H	-0.915325	0.688247	0.157160
N107	N	-1.486776	-0.300004	-0.584416
N108	N	-0.986776	0.199996	-0.084416
N109	N	-1.505872	-0.375133	-0.527151
N110	N	-1.005872	0.124867	-0.027151
H111	H	-1.524943	-0.452190	-0.549254
H112	H	-1.024943	0.047810	-0.049254
N113	N	-1.549224	-0.109774	-0.585615
N114	N	-1.049224	0.390226	-0.085615
N115	N	-1.611844	-0.052856	-0.529183
N116	N	-1.111844	0.447144	-0.029183
H117	H	-1.675023	0.004437	-0.552134
H118	H	-1.175023	0.504437	-0.052134
N119	N	-1.210990	-0.012591	-0.587215
N120	N	-0.710990	0.487409	-0.087215
N121	N	-1.120644	-0.074161	-0.570770
N122	N	-0.620644	0.425839	-0.070770
H123	H	-1.045625	-0.051700	-0.594718
H124	H	-0.545625	0.448300	-0.094718
