data_functionalizedCrystal
_audit_creation_method	'MofGen! by Chris Wilmer'
_symmetry_space_group_name_H-M	'P1'
_symmetry_Int_Tables_number	1
_symmetry_cell_setting	triclinic
loop_
_symmetry_equiv_pos_as_xyz
  x,y,z
_cell_length_a	14.446369
_cell_length_b	14.560438
_cell_length_c	14.560438
_cell_angle_alpha	59.999876
_cell_angle_beta	89.998083
_cell_angle_gamma	60.000456
loop_
_atom_site_label
_atom_site_type_symbol
_atom_site_fract_x
_atom_site_fract_y
_atom_site_fract_z
Zr1	Zr	0.891716	1.005333	-0.120561
O2	O	0.743913	1.196929	-0.267200
O3	O	0.937026	0.813732	-0.075610
O4	O	0.937024	1.005338	-0.267212
O5	O	0.743915	1.005321	0.075543
O6	O	1.089353	1.005346	-0.267220
O7	O	0.743914	1.005324	-0.075598
O8	O	1.089356	0.662599	0.075521
O9	O	0.743912	1.348068	-0.267198
O10	O	1.070030	0.892548	-0.056443
O11	O	0.956349	0.892540	0.056358
O12	O	0.956348	1.118130	-0.169229
O13	O	0.842667	1.118122	-0.056428
Zr14	Zr	1.134663	1.005342	0.120478
Zr15	Zr	1.134662	1.005346	-0.120574
Zr16	Zr	0.891716	1.005328	0.120491
Zr17	Zr	0.891714	1.246382	-0.120558
Zr18	Zr	1.134664	0.764292	0.120475
O19	O	1.089353	1.196942	0.075527
O20	O	1.089352	1.196948	-0.267218
O21	O	0.743913	1.196923	0.075546
O22	O	1.282465	0.813745	0.267117
O23	O	1.282465	0.813751	-0.075628
O24	O	0.937026	0.813726	0.267135
O25	O	1.282464	1.005353	-0.075626
O26	O	1.089354	1.005337	0.267129
O27	O	0.937025	1.005328	0.267137
O28	O	1.282464	1.005350	0.075515
O29	O	0.937022	1.348079	-0.267208
O30	O	1.089356	0.662595	0.267125
O31	O	1.282466	0.662606	0.267115
O32	O	1.282466	0.662609	0.075511
O33	O	0.743912	1.348065	-0.075593
O34	O	0.937023	1.348075	-0.075604
O35	O	1.070031	0.892544	0.169146
O36	O	1.183712	0.892552	0.056346
O37	O	1.070029	1.118135	-0.056440
O38	O	0.956348	1.118126	0.056360
C39	C	1.013191	0.703821	-0.000045
C40	C	1.013192	0.601489	-0.000046
C41	C	1.072530	0.457256	-0.058920
C42	C	1.072529	0.553412	-0.058928
C43	C	0.953842	0.553415	0.058839
C44	C	0.953836	0.457266	0.058840
C45	C	0.709300	1.005321	-0.000025
C46	C	0.606163	1.005315	-0.000020
C47	C	0.531181	0.863055	0.070745
C48	C	0.638510	0.862959	0.071151
C49	C	0.531602	1.075982	0.051872
C50	C	0.424744	1.075079	0.052383
C51	C	0.423170	1.078012	-0.122791
C52	C	0.531841	1.075331	-0.122590
C53	C	1.317079	1.005354	-0.000058
C54	C	1.420216	1.005359	-0.000063
C55	C	1.013189	1.005343	-0.301561
C56	C	1.013189	1.005344	-0.403894
C57	C	1.013187	1.306853	-0.000038
C58	C	1.013187	1.409185	-0.000036
C59	C	1.097107	1.005350	-0.451974
C60	C	1.097111	1.005338	-0.548120
C61	C	0.929266	1.005320	-0.548100
C62	C	0.929269	1.005323	-0.451951
C63	C	1.013190	1.005332	0.301478
C64	C	1.013190	1.005330	0.403811
C65	C	1.317080	0.703838	-0.000061
C66	C	1.420218	0.601512	-0.000068
C67	C	1.013191	0.703816	0.301474
C68	C	1.013192	0.601482	0.403806
C69	C	1.317081	0.703832	0.301458
C70	C	1.420219	0.601504	0.403785
C71	C	0.709298	1.306842	-0.301541
C72	C	0.606160	1.409170	-0.403867
C73	C	0.709298	1.306837	-0.000022
C74	C	0.606160	1.409163	-0.000015
C75	C	1.013187	1.306858	-0.301557
C76	C	1.013186	1.409192	-0.403889
C77	C	1.409335	0.553434	-0.058943
C78	C	1.506248	0.457295	-0.058953
C79	C	1.624924	0.457317	0.058796
C80	C	1.528012	0.553460	0.058799
C81	C	1.072532	0.553406	0.510756
C82	C	1.072520	0.457262	0.606904
C83	C	0.953826	0.457275	0.489138
C84	C	0.953833	0.553424	0.392992
C85	C	1.528014	0.553433	0.392980
C86	C	1.624919	0.457293	0.489130
C87	C	1.506221	0.457302	0.606887
C88	C	1.409318	0.553446	0.510737
H89	H	0.905506	0.418129	0.106790
C90	C	1.494279	0.404405	-0.123710
H91	H	1.567432	0.340272	-0.115292
H92	H	1.454021	0.366885	-0.094628
H93	H	1.454011	0.473435	-0.201174
C94	C	1.137791	0.404378	0.724548
H95	H	1.129278	0.340242	0.780263
H96	H	1.215863	0.366864	0.732986
H97	H	1.108480	0.473411	0.732981
H98	H	1.536882	0.592609	0.106742
C99	C	0.888551	0.404394	0.477251
H100	H	0.897055	0.340234	0.549828
H101	H	0.810480	0.473414	0.437303
H102	H	0.917868	0.366882	0.437298
C103	C	0.836949	1.005330	-0.399061
H104	H	0.848977	1.005324	-0.334911
H105	H	0.764504	1.080659	-0.452480
H106	H	0.840432	0.929989	-0.377142
H107	H	0.860939	1.005306	-0.587239
C108	C	1.137813	0.606280	-0.123693
H109	H	1.173163	0.563864	-0.158748
H110	H	1.086599	0.697054	-0.179411
H111	H	1.193973	0.590513	-0.072867
C112	C	1.137814	0.606281	0.522645
H113	H	1.129329	0.670421	0.450068
H114	H	1.108509	0.643787	0.562598
H115	H	1.215888	0.537247	0.562593
H116	H	1.321568	0.592566	-0.106888
C117	C	0.888550	0.606317	0.275340
H118	H	0.853208	0.563915	0.282669
H119	H	0.832402	0.697091	0.235396
H120	H	0.939775	0.590556	0.235380
H121	H	1.165446	1.005341	-0.587264
C122	C	1.494232	0.404437	0.724530
H123	H	1.416152	0.446850	0.717191
H124	H	1.529566	0.313662	0.764492
H125	H	1.529567	0.420211	0.764477
H126	H	1.321540	0.592590	0.519544
H127	H	1.120854	0.418112	-0.106863
C128	C	1.540004	0.606303	0.275338
H129	H	1.618085	0.563908	0.282678
H130	H	1.504672	0.590541	0.235381
H131	H	1.504670	0.697083	0.235384
H132	H	1.712699	0.418180	0.106725
H133	H	1.712688	0.418157	0.480325
H134	H	0.692774	0.807534	0.036328
C135	C	0.888578	0.606291	0.123614
H136	H	0.897090	0.670427	0.115192
H137	H	0.810505	0.643801	0.094551
H138	H	0.917897	0.537253	0.201077
H139	H	0.533516	0.807202	0.036118
H140	H	0.692372	0.807000	0.161696
C141	C	0.425107	1.007224	0.174383
H142	H	0.490435	0.980462	0.223167
H143	H	0.358928	1.065873	0.179932
H144	H	0.426209	0.933448	0.195325
H145	H	0.532214	0.807478	0.160733
H146	H	0.346163	1.179486	0.004142
H147	H	0.504371	1.180652	0.002786
H148	H	0.583205	1.026897	0.141330
C149	C	0.417495	1.016583	-0.181395
H150	H	0.413287	0.946032	-0.131550
H151	H	0.352200	1.079845	-0.247025
H152	H	0.483483	0.985965	-0.201752
H153	H	0.583264	1.023806	-0.161356
H154	H	0.344954	1.182844	-0.175795
C155	C	0.497377	1.215626	-0.199868
H156	H	0.452596	1.255526	-0.273313
H157	H	0.454767	1.263247	-0.170938
H158	H	0.563521	1.214653	-0.203042
C159	C	1.189424	1.005356	-0.399106
H160	H	1.239409	1.005345	-0.441508
H161	H	1.154956	1.080686	-0.399261
H162	H	1.230880	0.930015	-0.323930
