data_functionalizedCrystal
_audit_creation_method	'MofGen! by Chris Wilmer'
_symmetry_space_group_name_H-M	'P1'
_symmetry_Int_Tables_number	1
_symmetry_cell_setting	triclinic
loop_
_symmetry_equiv_pos_as_xyz
  x,y,z
_cell_length_a	6.817900
_cell_length_b	19.453067
_cell_length_c	19.453114
_cell_angle_alpha	96.315275
_cell_angle_beta	101.709288
_cell_angle_gamma	101.708464
loop_
_atom_site_label
_atom_site_type_symbol
_atom_site_fract_x
_atom_site_fract_y
_atom_site_fract_z
V1	V	-3.997992	-0.097913	-0.219326
O2	O	-3.995098	0.003953	-0.214817
O3	O	-3.941006	-0.193422	-0.218146
O4	O	-3.941013	-0.096737	-0.314835
O5	O	-3.995092	-0.093401	-0.117459
V6	V	-4.483844	-0.085690	-0.207103
O7	O	-4.254141	-0.124726	-0.246138
O8	O	-4.677892	-0.058877	-0.180290
O9	O	-4.317623	0.009819	-0.208282
O10	O	-4.604135	-0.187556	-0.211611
O11	O	-4.604141	-0.090202	-0.308969
O12	O	-4.317617	-0.086866	-0.111593
C13	C	-3.784196	-0.216694	-0.214769
C14	C	-3.818833	-0.294776	-0.214442
C15	C	-4.034529	-0.841951	-0.147825
C16	C	-4.001966	-0.768584	-0.148126
C17	C	-4.017292	-0.742101	-0.212595
C18	C	-4.065135	-0.788992	-0.276767
C19	C	-4.097677	-0.862357	-0.276464
N20	N	-4.103240	-0.636813	-0.263556
N21	N	-4.072329	-0.567119	-0.263839
C22	C	-3.919243	-0.521056	-0.213511
N23	N	-3.798256	-0.547320	-0.162879
N24	N	-3.829178	-0.617021	-0.162594
C25	C	-3.982008	-0.662550	-0.212931
C26	C	-3.836083	-0.394622	-0.149669
C27	C	-3.803508	-0.321253	-0.149972
C28	C	-3.866699	-0.341663	-0.278616
C29	C	-3.899252	-0.415030	-0.278310
C30	C	-3.883951	-0.441504	-0.213835
C31	C	-3.784203	-0.093363	-0.338104
C32	C	-3.818843	-0.093033	-0.416185
C33	C	-4.016582	-0.096404	-0.456453
C34	C	-4.049131	-0.096095	-0.529819
C35	C	-3.883936	-0.092428	-0.562916
C36	C	-3.686167	-0.089053	-0.522637
C37	C	-3.653621	-0.089356	-0.449272
N38	N	-3.820858	-0.129522	-0.681829
N39	N	-3.851789	-0.129237	-0.751523
C40	C	-3.981984	-0.091515	-0.783961
N41	N	-4.080115	-0.054100	-0.744074
N42	N	-4.049189	-0.054389	-0.674373
C43	C	-3.919206	-0.092100	-0.642468
C44	C	-4.215028	-0.094550	-0.903781
C45	C	-4.247567	-0.094236	-0.977147
C46	C	-3.884601	-0.087201	-0.969965
C47	C	-3.852064	-0.087508	-0.896599
C48	C	-4.017287	-0.091186	-0.863512
C49	C	-4.137775	0.033088	-0.211657
C50	C	-4.082376	0.111168	-0.211989
C51	C	-4.137768	-0.090243	-0.088321
C52	C	-4.082367	-0.090568	-0.010239
H53	H	-4.077607	-0.767425	-0.329258
Cl54	Cl	-4.422726	-0.099167	-0.862181
Cl55	Cl	-3.941811	-0.709638	-0.067456
H56	H	-4.408590	-0.096976	-1.009932
Cl57	Cl	-3.816824	-0.427907	-0.068616
Cl58	Cl	-3.676914	-0.082579	-1.011563
Cl59	Cl	-3.885956	-0.308378	-0.359663
H60	H	-4.022062	-0.863501	-0.095324
Cl61	Cl	-4.157808	-0.921296	-0.357134
H62	H	-3.551665	-0.086066	-0.549589
Cl63	Cl	-3.743337	-0.262315	-0.069300
Cl64	Cl	-4.297737	-0.100329	-0.580452
H65	H	-3.938225	-0.453202	-0.330560
Cl66	Cl	-4.224290	-0.101023	-0.414861
Cl67	Cl	-3.405016	-0.085121	-0.398647
Cl68	Cl	-3.603469	-0.083282	-0.845975
