data_functionalizedCrystal
_audit_creation_method	'MofGen! by Chris Wilmer'
_symmetry_space_group_name_H-M	'P1'
_symmetry_Int_Tables_number	1
_symmetry_cell_setting	triclinic
loop_
_symmetry_equiv_pos_as_xyz
  x,y,z
_cell_length_a	12.645331
_cell_length_b	12.645330
_cell_length_c	17.077396
_cell_angle_alpha	89.973796
_cell_angle_beta	89.984878
_cell_angle_gamma	90.013057
loop_
_atom_site_label
_atom_site_type_symbol
_atom_site_fract_x
_atom_site_fract_y
_atom_site_fract_z
Zn1	Zn	1.620738	-0.422028	-0.443763
Zn2	Zn	2.120738	0.077972	0.056237
Zn3	Zn	1.620644	-0.599313	-0.312503
Zn4	Zn	2.120644	-0.099313	0.187497
Zn5	Zn	1.443462	-0.422066	-0.312521
Zn6	Zn	1.943462	0.077934	0.187479
Zn7	Zn	1.443450	-0.599251	-0.443736
Zn8	Zn	1.943450	-0.099251	0.056264
O9	O	1.532074	-0.510664	-0.378131
O10	O	2.032074	-0.010664	0.121869
O11	O	1.769073	-0.445555	-0.426355
O12	O	2.269073	0.054445	0.073645
O13	O	1.597106	-0.575843	-0.202658
O14	O	2.097106	-0.075843	0.297342
O15	O	1.467022	-0.273713	-0.329950
O16	O	1.967022	0.226287	0.170050
O17	O	1.769004	-0.575806	-0.329918
O18	O	2.269004	-0.075806	0.170082
O19	O	1.597266	-0.273686	-0.426373
O20	O	2.097266	0.226314	0.073627
O21	O	1.466931	-0.445620	-0.202672
O22	O	1.966931	0.054380	0.297328
O23	O	1.295113	-0.445559	-0.329924
O24	O	1.795113	0.054441	0.170076
O25	O	1.467002	-0.575700	-0.553587
O26	O	1.967002	-0.075700	-0.053587
O27	O	1.295104	-0.575737	-0.426327
O28	O	1.795104	-0.075737	0.073673
O29	O	1.597255	-0.445495	-0.553607
O30	O	2.097255	0.054505	-0.053607
O31	O	1.597095	-0.747652	-0.329892
O32	O	2.097095	-0.247652	0.170108
O33	O	1.466911	-0.747606	-0.426309
O34	O	1.966911	-0.247606	0.073691
C35	C	1.256644	-0.510646	-0.378125
C36	C	1.756644	-0.010646	0.121875
C37	C	1.138814	-0.510664	-0.378141
C38	C	1.638814	-0.010664	0.121859
C39	C	1.532020	-0.786094	-0.378112
C40	C	2.032020	-0.286094	0.121888
C41	C	1.532095	-0.903924	-0.378131
C42	C	2.032095	-0.403924	0.121869
C43	C	1.093962	-0.592698	-0.438699
C44	C	1.593962	-0.092698	0.061301
C45	C	0.971402	-0.593035	-0.438519
C46	C	1.471402	-0.093035	0.061481
C47	C	0.970868	-0.540501	-0.295313
C48	C	1.470868	-0.040501	0.204687
C49	C	1.093467	-0.541080	-0.295664
C50	C	1.593467	-0.041080	0.204336
C51	C	1.093656	-0.398619	-0.399686
C52	C	1.593656	0.101381	0.100314
C53	C	0.971051	-0.399238	-0.401510
C54	C	1.471051	0.100762	0.098490
C55	C	1.613862	-1.071473	-0.317352
C56	C	2.113862	-0.571473	0.182648
C57	C	1.614128	-0.948912	-0.317501
C58	C	2.114128	-0.448912	0.182499
C59	C	1.562389	-0.948308	-0.460873
C60	C	2.062389	-0.448308	0.039127
C61	C	1.563038	-1.070906	-0.460550
C62	C	2.063038	-0.570906	0.039450
C63	C	1.420001	-1.071252	-0.356983
C64	C	1.920001	-0.571252	0.143017
C65	C	1.420538	-0.948647	-0.355127
C66	C	1.920538	-0.448647	0.144873
C67	C	1.808579	-0.510684	-0.378138
C68	C	2.308579	-0.010684	0.121862
C69	C	1.926409	-0.510692	-0.378140
C70	C	2.426409	-0.010692	0.121860
C71	C	1.532138	-0.510586	-0.582875
C72	C	2.032138	-0.010586	-0.082875
C73	C	1.532165	-0.510553	-0.670125
C74	C	2.032165	-0.010553	-0.170125
C75	C	1.532156	-0.234159	-0.378167
C76	C	2.032156	0.265841	0.121833
C77	C	1.532191	-0.116329	-0.378182
C78	C	2.032191	0.383671	0.121818
C79	C	1.599990	-0.442750	-0.711127
C80	C	2.099990	0.057250	-0.211127
C81	C	1.600003	-0.442714	-0.793107
C82	C	2.100003	0.057286	-0.293107
C83	C	1.532195	-0.510489	-0.834085
C84	C	2.032195	-0.010489	-0.334085
C85	C	1.464363	-0.578295	-0.793077
C86	C	1.964363	-0.078295	-0.293077
C87	C	1.464345	-0.578324	-0.711098
C88	C	1.964345	-0.078324	-0.211098
C89	C	1.464405	-0.578231	-0.963947
C90	C	1.964405	-0.078231	-0.463947
C91	C	1.464424	-0.578204	-1.045932
C92	C	1.964424	-0.078204	-0.545932
C93	C	1.600063	-0.442621	-1.045957
C94	C	2.100063	0.057379	-0.545957
C95	C	1.600046	-0.442651	-0.963978
C96	C	2.100046	0.057349	-0.463978
C97	C	1.532214	-0.510459	-0.922976
C98	C	2.032214	-0.010459	-0.422976
C99	C	1.532071	-0.510666	-0.174183
C100	C	2.032071	-0.010666	0.325817
C101	C	1.532249	-0.510400	-0.086934
C102	C	2.032249	-0.010400	0.413066
H103	H	0.941344	-0.574440	-0.499924
H104	H	1.441344	-0.074440	0.000076
H105	H	1.409206	-0.633389	-1.079293
H106	H	1.909206	-0.133389	-0.579293
H107	H	1.655267	-0.387469	-0.930616
H108	H	2.155267	0.112531	-0.430616
H109	H	0.941724	-0.482585	-0.248953
H110	H	1.441724	0.017415	0.251047
H111	H	1.506158	-1.100574	-0.507435
H112	H	2.006158	-0.600574	-0.007435
H113	H	1.409104	-0.633526	-0.677715
H114	H	1.909104	-0.133526	-0.177715
H115	H	1.397696	-0.919650	-0.294236
H116	H	1.897696	-0.419650	0.205764
H117	H	1.655210	-0.387563	-0.677769
H118	H	2.155210	0.112437	-0.177769
H119	H	1.697223	-0.919504	-0.331522
H120	H	2.197223	-0.419504	0.168478
H121	H	0.940424	-0.334893	-0.360653
H122	H	1.440424	0.165107	0.139347
H123	H	1.122039	-0.622969	-0.277454
H124	H	1.622039	-0.122969	0.222546
H125	H	0.942052	-0.676069	-0.424225
H126	H	1.442052	-0.176069	0.075775
H127	H	1.123136	-0.483883	-0.248995
H128	H	1.623136	0.016117	0.251005
H129	H	1.645043	-1.099418	-0.478508
H130	H	2.145043	-0.599418	0.021492
H131	H	1.359149	-1.100261	-0.401288
H132	H	1.859149	-0.600261	0.098712
H133	H	1.595174	-0.918908	-0.256148
H134	H	2.095174	-0.418908	0.243852
H135	H	1.123475	-0.574317	-0.500295
H136	H	1.623475	-0.074317	-0.000295
H137	H	1.696511	-1.102203	-0.331216
H138	H	2.196511	-0.602203	0.168784
H139	H	1.504714	-0.919163	-0.507410
H140	H	2.004714	-0.419163	-0.007410
H141	H	1.124748	-0.675252	-0.424578
H142	H	1.624748	-0.175252	0.075422
H143	H	0.940147	-0.621499	-0.276794
H144	H	1.440147	-0.121499	0.223206
H145	H	1.655292	-0.387408	-1.079344
H146	H	2.155292	0.112592	-0.579344
H147	H	1.409153	-0.633431	-0.930566
H148	H	1.909153	-0.133431	-0.430566
H149	H	1.124605	-0.371381	-0.459066
H150	H	1.624605	0.128619	0.040934
H151	H	0.941996	-0.376750	-0.462466
H152	H	1.441996	0.123250	0.037534
H153	H	1.643468	-0.917519	-0.479130
H154	H	2.143468	-0.417519	0.020870
H155	H	1.392451	-1.102260	-0.297699
H156	H	1.892451	-0.602260	0.202301
H157	H	1.409148	-0.633474	-0.826447
H158	H	1.909148	-0.133474	-0.326447
H159	H	1.122662	-0.337504	-0.355583
H160	H	1.622662	0.162496	0.144417
H161	H	1.595145	-1.101025	-0.255820
H162	H	2.095145	-0.601025	0.244180
H163	H	1.356405	-0.918034	-0.396185
H164	H	1.856405	-0.418034	0.103815
H165	H	1.655235	-0.387504	-0.826488
H166	H	2.155235	0.112496	-0.326488
