data_functionalizedCrystal
_audit_creation_method	'MofGen! by Chris Wilmer'
_symmetry_space_group_name_H-M	'P1'
_symmetry_Int_Tables_number	1
_symmetry_cell_setting	triclinic
loop_
_symmetry_equiv_pos_as_xyz
  x,y,z
_cell_length_a	18.627243
_cell_length_b	18.627245
_cell_length_c	18.627244
_cell_angle_alpha	90.001633
_cell_angle_beta	120.002482
_cell_angle_gamma	60.000315
loop_
_atom_site_label
_atom_site_type_symbol
_atom_site_fract_x
_atom_site_fract_y
_atom_site_fract_z
O1	O	-0.633240	-0.492484	-0.021357
O2	O	-0.486232	-0.388088	0.021256
O3	O	-0.633237	-0.388085	-0.125752
O4	O	-0.486235	-0.492487	0.125651
O5	O	-0.513835	-0.507487	-0.125751
O6	O	-0.366830	-0.507490	0.021257
O7	O	-0.513838	-0.611886	-0.021356
Zn8	Zn	-0.421376	-0.578645	-0.000050
Zn9	Zn	-0.578694	-0.421328	-0.000051
O10	O	-0.366833	-0.611888	0.125652
C11	C	-0.356044	-0.256980	0.030935
C12	C	-0.406443	-0.162282	0.024836
C13	C	-0.269040	-0.300580	0.031540
C14	C	-0.356039	-0.386983	0.030943
C15	C	-0.406432	-0.431286	0.024853
C16	C	-0.269034	-0.430386	0.031548
C17	C	-0.226044	-0.386980	0.030935
C18	C	-0.137446	-0.431279	0.024835
C19	C	-0.398837	-0.300584	0.031548
C20	C	-0.774033	-0.256985	-0.387055
C21	C	-0.862634	-0.162288	-0.431357
C22	C	-0.731039	-0.300586	-0.300655
C23	C	-0.644031	-0.386987	-0.387052
C24	C	-0.593633	-0.431288	-0.431351
C25	C	-0.601235	-0.430390	-0.300653
C26	C	-0.644033	-0.386985	-0.257052
C27	C	-0.593636	-0.431285	-0.162354
C28	C	-0.731038	-0.300588	-0.430458
C29	C	-0.774047	-0.612982	-0.031065
C30	C	-0.862649	-0.568681	-0.024971
C31	C	-0.731054	-0.699380	-0.031674
C32	C	-0.644041	-0.612984	-0.031058
C33	C	-0.593641	-0.568686	-0.024957
C34	C	-0.601246	-0.699382	-0.031667
C35	C	-0.644047	-0.742983	-0.031064
C36	C	-0.593652	-0.837679	-0.024970
C37	C	-0.731049	-0.569579	-0.031668
O38	O	0.104349	-0.611881	-0.021370
O39	O	-0.104442	-0.507482	0.021239
O40	O	-0.104455	-0.507487	-0.125767
O41	O	0.104362	-0.611877	0.125637
O42	O	-0.104459	-0.388082	-0.125775
O43	O	-0.104446	-0.388078	0.021232
O44	O	0.104345	-0.492477	-0.021377
Zn45	Zn	-0.000051	-0.421319	-0.000074
Zn46	Zn	-0.000046	-0.578640	-0.000064
O47	O	0.104358	-0.492472	0.125629
O48	O	-0.513854	0.125721	-0.021376
O49	O	-0.366846	-0.125678	0.021232
O50	O	-0.513858	0.021316	-0.125774
O51	O	-0.366841	-0.021273	0.125630
O52	O	-0.633255	0.021313	-0.125766
O53	O	-0.486242	-0.125682	0.021240
O54	O	-0.633250	0.125718	-0.021368
Zn55	Zn	-0.578703	0.000017	-0.000063
Zn56	Zn	-0.421393	0.000022	-0.000073
O57	O	-0.486238	-0.021277	0.125638
O58	O	-0.486224	-0.492497	-0.611944
O59	O	-0.633232	-0.388090	-0.507554
O60	O	-0.486225	-0.388095	-0.507543
O61	O	-0.633232	-0.492492	-0.611955
O62	O	-0.366825	-0.507495	-0.388138
O63	O	-0.513832	-0.507490	-0.388149
O64	O	-0.366824	-0.611897	-0.492539
Zn65	Zn	-0.421371	-0.578651	-0.421386
Zn66	Zn	-0.578686	-0.421336	-0.578708
O67	O	-0.513832	-0.611892	-0.492550
O68	O	-1.104436	0.125711	-0.492555
O69	O	-0.895636	-0.125688	-0.388157
O70	O	-0.895632	0.021310	-0.388149
O71	O	-1.104440	-0.021286	-0.492563
O72	O	-0.895633	0.021312	-0.507552
O73	O	-0.895638	-0.125686	-0.507560
O74	O	-1.104437	0.125713	-0.611958
Zn75	Zn	-1.000038	0.000014	-0.578717
Zn76	Zn	-1.000036	0.000011	-0.421398
O77	O	-1.104442	-0.021284	-0.611966
C78	C	-0.226031	-0.742995	0.386952
C79	C	-0.137430	-0.837692	0.431251
C80	C	-0.269023	-0.699395	0.430358
C81	C	-0.356034	-0.612992	0.256952
C82	C	-0.406433	-0.568690	0.162254
C83	C	-0.398829	-0.569590	0.300555
C84	C	-0.356030	-0.612996	0.386955
C85	C	-0.406425	-0.568698	0.431256
C86	C	-0.269027	-0.699391	0.300553
C87	C	-0.356079	-0.256989	-0.387077
C88	C	-0.406480	-0.162292	-0.431381
C89	C	-0.398878	-0.300593	-0.430479
C90	C	-0.226069	-0.386986	-0.257072
C91	C	-0.137462	-0.431284	-0.162373
C92	C	-0.269065	-0.430393	-0.300671
C93	C	-0.356077	-0.386991	-0.387071
C94	C	-0.406475	-0.431294	-0.431368
C95	C	-0.269068	-0.300588	-0.300677
C96	C	0.355981	-0.612970	0.386934
C97	C	0.406380	-0.568668	0.431232
C98	C	0.398781	-0.699369	0.430341
C99	C	0.225973	-0.612974	0.256934
C100	C	0.137366	-0.568675	0.162235
C101	C	0.268971	-0.699372	0.300538
C102	C	0.355982	-0.742972	0.386938
C103	C	0.406383	-0.837668	0.431241
C104	C	0.268969	-0.569568	0.300534
C105	C	-0.774050	0.030968	-0.387060
C106	C	-0.862646	0.024863	-0.431354
C107	C	-0.731058	0.031571	-0.430468
C108	C	-0.644053	0.030990	-0.257067
C109	C	-0.593657	0.024908	-0.162371
C110	C	-0.601258	0.031592	-0.300672
C111	C	-0.644055	0.030972	-0.387068
C112	C	-0.593660	0.024870	-0.431371
C113	C	-0.731056	0.031589	-0.300664
O114	O	-0.633313	0.125711	-0.611979
O115	O	-0.486289	-0.125692	-0.507583
O116	O	-0.633280	0.021296	-0.507564
O117	O	-0.486321	-0.021277	-0.611997
O118	O	-0.513867	0.021298	-0.388166
O119	O	-0.366875	-0.125690	-0.388185
O120	O	-0.513899	0.125713	-0.492581
Zn121	Zn	-0.421428	0.000012	-0.421426
Zn122	Zn	-0.578760	0.000009	-0.578738
O123	O	-0.366908	-0.021275	-0.492600
C124	C	-0.356041	-0.030933	0.386933
C125	C	-0.406436	-0.024832	0.431236
C126	C	-0.269039	-0.031532	0.430332
C127	C	-0.356043	-0.030951	0.256931
C128	C	-0.406439	-0.024869	0.162236
C129	C	-0.269040	-0.031549	0.300528
C130	C	-0.226047	-0.030928	0.386924
C131	C	-0.137451	-0.024822	0.431218
C132	C	-0.398837	-0.031554	0.300536
H133	H	-0.233054	-0.501376	0.032526
H134	H	-0.468842	-0.498601	0.265546
H135	H	0.468796	-0.734369	0.501332
C136	C	-0.470951	-0.229094	0.108451
C137	C	-0.493339	-0.253344	0.032882
H138	H	-0.529287	-0.199940	0.109277
H139	H	-0.451528	-0.190728	0.108158
H140	H	-0.416861	-0.280172	0.159167
H141	H	-0.547424	-0.202265	-0.017835
H142	H	-0.512775	-0.291712	0.033167
H143	H	-0.233058	-0.265572	0.032520
H144	H	-0.468903	-0.265581	-0.501465
H145	H	-0.767043	-0.734382	-0.032654
H146	H	-0.233088	-0.265576	-0.265676
H147	H	-0.767030	-0.498593	-0.032638
C148	C	-0.120631	-0.770813	0.579367
C149	C	-0.220436	-0.746599	0.526210
H150	H	-0.090634	-0.799941	0.638544
H151	H	-0.121019	-0.719730	0.575951
H152	H	-0.082549	-0.809200	0.559661
H153	H	-0.258520	-0.708206	0.545912
H154	H	-0.220053	-0.797689	0.529630
C155	C	-0.219945	0.041894	0.248868
C156	C	-0.220461	-0.032873	0.253275
H157	H	-0.189958	0.041077	0.219695
H158	H	-0.181864	0.042160	0.306669
H159	H	-0.287667	0.093152	0.217236
H160	H	-0.152737	-0.084132	0.284913
H161	H	-0.258541	-0.033148	0.195464
H162	H	0.232982	-0.734375	0.265531
C163	C	-0.470953	-0.108463	0.229057
C164	C	-0.493345	-0.032883	0.253285
H165	H	-0.529299	-0.109278	0.199882
H166	H	-0.416890	-0.159164	0.280140
H167	H	-0.451500	-0.108194	0.190705
H168	H	-0.512792	-0.033155	0.291642
H169	H	-0.547426	0.017831	0.202195
C170	C	-0.219937	0.041946	0.531042
C171	C	-0.220448	-0.032827	0.526158
H172	H	-0.189930	0.041144	0.590200
H173	H	-0.287652	0.093195	0.494956
H174	H	-0.181866	0.042198	0.511297
H175	H	-0.258525	-0.033076	0.545898
H176	H	-0.152721	-0.084090	0.562258
H177	H	-0.531205	-0.501371	-0.265640
H178	H	-0.233040	-0.734398	0.265550
H179	H	-0.767029	-0.265578	-0.265655
C180	C	0.191441	-0.420548	0.299900
C181	C	0.220373	-0.473734	0.253267
H182	H	0.161431	-0.361386	0.270714
H183	H	0.249523	-0.440261	0.357690
H184	H	0.143732	-0.423917	0.302908
H185	H	0.268088	-0.470369	0.250265
H186	H	0.162284	-0.454015	0.195462
H187	H	-0.531244	0.032569	-0.265664
H188	H	-0.767050	0.032547	-0.501458
C189	C	-0.879439	0.108472	-0.300022
C190	C	-0.779617	0.032914	-0.253392
H191	H	-0.909409	0.109290	-0.270831
H192	H	-0.917517	0.108177	-0.357810
H193	H	-0.879087	0.159193	-0.303034
H194	H	-0.779970	-0.017808	-0.250385
H195	H	-0.741529	0.033201	-0.195588
H196	H	-0.531230	-0.734387	-0.032638
C197	C	-0.780022	-0.178084	-0.531159
C198	C	-0.779558	-0.253342	-0.526276
H199	H	-0.809964	-0.148919	-0.590307
H200	H	-0.712300	-0.194568	-0.495031
H201	H	-0.818132	-0.139717	-0.511464
H202	H	-0.741441	-0.291712	-0.545965
H203	H	-0.847292	-0.236859	-0.562417
H204	H	-0.233067	-0.501386	-0.265663
