data_functionalizedCrystal
_audit_creation_method	'MofGen! by Chris Wilmer'
_symmetry_space_group_name_H-M	'P1'
_symmetry_Int_Tables_number	1
_symmetry_cell_setting	triclinic
loop_
_symmetry_equiv_pos_as_xyz
  x,y,z
_cell_length_a	19.121241
_cell_length_b	19.121063
_cell_length_c	17.077404
_cell_angle_alpha	87.575628
_cell_angle_beta	92.450284
_cell_angle_gamma	95.003121
loop_
_atom_site_label
_atom_site_type_symbol
_atom_site_fract_x
_atom_site_fract_y
_atom_site_fract_z
Zn1	Zn	1.063635	-0.234460	0.505805
Zn2	Zn	1.058550	-0.352102	0.379896
Zn3	Zn	0.945997	-0.239458	0.369172
Zn4	Zn	0.940910	-0.357099	0.505738
O5	O	1.002273	-0.295780	0.440153
O6	O	1.161425	-0.245882	0.493619
O7	O	1.043620	-0.337159	0.268626
O8	O	0.965858	-0.140328	0.382837
O9	O	1.157689	-0.332313	0.401114
O10	O	1.052287	-0.136656	0.483221
O11	O	0.960927	-0.254400	0.260748
O12	O	0.846857	-0.259246	0.382772
O13	O	0.957190	-0.340831	0.615594
O14	O	0.843120	-0.345677	0.483107
O15	O	1.047355	-0.250728	0.615643
O16	O	1.038688	-0.451231	0.401049
O17	O	0.952259	-0.454903	0.493505
C18	C	0.819458	-0.303547	0.431769
C19	C	0.741248	-0.306887	0.428202
C20	C	0.706448	-0.263527	0.474768
C21	C	0.632961	-0.266662	0.471409
C22	C	0.594277	-0.313160	0.421488
C23	C	0.629082	-0.356522	0.374916
C24	C	0.702567	-0.353383	0.378271
C25	C	0.372302	-0.324882	0.408940
C26	C	0.298812	-0.328019	0.405590
C27	C	0.302696	-0.238158	0.502083
C28	C	0.376182	-0.235027	0.505437
C29	C	0.410981	-0.278385	0.458862
C30	C	0.519162	-0.316367	0.418055
C31	C	0.486095	-0.275174	0.462291
C32	C	0.994389	-0.478598	0.448451
C33	C	0.991081	-0.556806	0.452031
C34	C	1.034561	-0.591611	0.405619
C35	C	1.031453	-0.665096	0.408990
C36	C	0.984862	-0.703773	0.458769
C37	C	0.941380	-0.668963	0.505187
C38	C	0.944492	-0.595479	0.501819
C39	C	0.973218	-0.925742	0.471347
C40	C	0.970108	-0.999230	0.474710
C41	C	1.060182	-0.995358	0.378513
C42	C	1.063286	-0.921874	0.375147
C43	C	1.019808	-0.887069	0.421567
C44	C	0.981683	-0.778886	0.462215
C45	C	1.022991	-0.811958	0.418125
C46	C	1.185802	-0.287982	0.448570
C47	C	1.264011	-0.284660	0.452157
C48	C	1.002272	-0.295780	0.644897
C49	C	1.002272	-0.295780	0.732147
C50	C	1.010207	-0.112247	0.431840
C51	C	1.013588	-0.034036	0.428297
C52	C	0.959220	-0.252692	0.769035
C53	C	0.959217	-0.252698	0.851015
C54	C	1.002270	-0.295788	0.896107
C55	C	1.045323	-0.338881	0.859213
C56	C	1.045322	-0.338878	0.777234
C57	C	1.045323	-0.338882	1.030084
C58	C	1.045325	-0.338884	1.112068
C59	C	0.959218	-0.252702	1.103864
C60	C	0.959217	-0.252700	1.021885
C61	C	1.002272	-0.295791	0.984998
C62	C	1.002269	-0.295796	1.236206
C63	C	1.002274	-0.295797	1.148956
H64	H	1.072497	-0.560125	0.365079
O65	O	1.108514	-0.884386	0.326688
C66	C	1.092424	-0.903025	0.248558
H67	H	1.063113	-0.957551	0.248110
H68	H	1.143128	-0.903353	0.215853
H69	H	1.058021	-0.863244	0.218531
O70	O	0.902288	-0.561741	0.547018
C71	C	0.916867	-0.578990	0.626791
H72	H	0.941653	-0.631172	0.632123
H73	H	0.865955	-0.583690	0.659734
H74	H	0.954782	-0.536056	0.653021
O75	O	0.261161	-0.373093	0.357043
C76	C	0.220383	-0.334773	0.302647
H77	H	0.211670	-0.281960	0.327514
H78	H	0.167474	-0.365626	0.291016
H79	H	0.249028	-0.325746	0.245426
O80	O	0.896028	-0.706458	0.553498
C81	C	0.826667	-0.691561	0.532234
H82	H	0.827490	-0.638281	0.499546
H83	H	0.795183	-0.690393	0.587295
H84	H	0.801242	-0.733960	0.492668
H85	H	1.066859	-0.693431	0.371195
H86	H	0.487656	-0.354226	0.377409
H87	H	0.924165	-0.217599	0.732326
H88	H	0.924157	-0.217615	0.881045
O89	O	0.917333	-0.210821	0.978199
C90	C	0.879344	-0.172775	1.028334
H91	H	0.875658	-0.201699	1.087965
H92	H	0.824232	-0.167623	1.001762
H93	H	0.907423	-0.118241	1.035814
H94	H	1.060928	-0.780464	0.377598
H95	H	0.924162	-0.217615	1.133902
O96	O	0.599187	-0.224617	0.516764
C97	C	0.616504	-0.239330	0.596493
H98	H	0.634283	-0.294688	0.603824
H99	H	0.568443	-0.235384	0.632808
H100	H	0.660787	-0.199817	0.617318
O101	O	0.936516	-0.816534	0.510610
C102	C	0.974744	-0.857270	0.565139
H103	H	1.027628	-0.865966	0.540455
H104	H	0.943893	-0.910187	0.576678
H105	H	0.983625	-0.828598	0.622375
H106	H	1.095581	-1.023704	0.340722
H107	H	1.080383	-0.373972	1.148780
O108	O	1.087208	-0.380764	0.994375
C109	C	1.125196	-0.418810	1.051751
H110	H	1.128882	-0.389886	1.108995
H111	H	1.180308	-0.423964	1.030944
H112	H	1.097116	-0.473344	1.061709
H113	H	0.597579	-0.394378	0.334265
H114	H	0.730901	-0.388690	0.340351
H115	H	1.080374	-0.373969	0.895933
H116	H	0.274354	-0.202858	0.540000
O117	O	0.924928	-1.036770	0.523186
C118	C	0.941005	-1.018114	0.601313
H119	H	0.998071	-0.995470	0.606973
H120	H	0.932877	-1.066693	0.642018
H121	H	0.905069	-0.977094	0.618124
H122	H	1.080385	-0.373958	0.747202
H123	H	0.737940	-0.225665	0.515422
O124	O	0.413653	-0.189790	0.553941
C125	C	0.367178	-0.152201	0.594335
H126	H	0.314895	-0.151961	0.559686
H127	H	0.390794	-0.095865	0.601255
H128	H	0.358264	-0.178379	0.654725
H129	H	0.400626	-0.360188	0.371017
H130	H	0.517595	-0.237313	0.502934
H131	H	0.937814	-0.897410	0.509143
