data_functionalizedCrystal
_audit_creation_method	'MofGen! by Chris Wilmer'
_symmetry_space_group_name_H-M	'P1'
_symmetry_Int_Tables_number	1
_symmetry_cell_setting	triclinic
loop_
_symmetry_equiv_pos_as_xyz
  x,y,z
_cell_length_a	12.759401
_cell_length_b	12.759400
_cell_length_c	12.759386
_cell_angle_alpha	89.937604
_cell_angle_beta	89.958910
_cell_angle_gamma	90.014845
loop_
_atom_site_label
_atom_site_type_symbol
_atom_site_fract_x
_atom_site_fract_y
_atom_site_fract_z
Zn1	Zn	1.606490	-0.417880	-0.593982
Zn2	Zn	1.606315	-0.593694	-0.418302
Zn3	Zn	1.430722	-0.418030	-0.418321
Zn4	Zn	1.430780	-0.593518	-0.593944
O5	O	1.518577	-0.505780	-0.506137
O6	O	1.753488	-0.441213	-0.570686
O7	O	1.582925	-0.570527	-0.271283
O8	O	1.454087	-0.270989	-0.441647
O9	O	1.753359	-0.570382	-0.441614
O10	O	1.583223	-0.270879	-0.570704
O11	O	1.453918	-0.441468	-0.271297
O12	O	1.283709	-0.441298	-0.441610
O13	O	1.454186	-0.570083	-0.740970
O14	O	1.283752	-0.570228	-0.570639
O15	O	1.583279	-0.441043	-0.740998
O16	O	1.582981	-0.740691	-0.441577
O17	O	1.454017	-0.740562	-0.570620
C18	C	1.245610	-0.505761	-0.506123
C19	C	1.128833	-0.505778	-0.506142
C20	C	1.074021	-0.573020	-0.573216
C21	C	0.964296	-0.573033	-0.573227
C22	C	0.964207	-0.438560	-0.439081
C23	C	1.073929	-0.438542	-0.439076
C24	C	1.074071	-0.650660	-0.650661
C25	C	0.964347	-0.650673	-0.650673
C26	C	1.518515	-0.778748	-0.506115
C27	C	1.518584	-0.895524	-0.506141
C28	C	1.585810	-0.950419	-0.439023
C29	C	1.585875	-1.060143	-0.439055
C30	C	1.451478	-1.060069	-0.573327
C31	C	1.451419	-0.950347	-0.573299
C32	C	1.652975	-0.895596	-0.371864
C33	C	1.720206	-0.950491	-0.304739
C34	C	1.720271	-1.060215	-0.304772
C35	C	1.653104	-1.115044	-0.371929
C36	C	1.792610	-0.505801	-0.506152
C37	C	1.909387	-0.505809	-0.506159
C38	C	1.518759	-0.505527	-0.780171
C39	C	1.518836	-0.505419	-0.896948
C40	C	1.518668	-0.231747	-0.506182
C41	C	1.518707	-0.114970	-0.506201
C42	C	1.518456	-0.505957	-0.233170
C43	C	1.518583	-0.505769	-0.116393
C44	C	1.450990	-0.438981	-0.061588
C45	C	1.451119	-0.438803	0.048136
C46	C	1.586436	-0.572210	0.048239
C47	C	1.586311	-0.572382	-0.061482
C48	C	1.383261	-0.372368	-0.116499
C49	C	1.315662	-0.305575	-0.061694
C50	C	1.315791	-0.305397	0.048030
C51	C	1.383519	-0.372012	0.102948
H52	H	1.118553	-0.383781	-0.384465
O53	O	0.904991	-0.366069	-0.366721
H54	H	0.819485	-0.377387	-0.377981
O55	O	1.113609	-0.621843	-0.758484
H56	H	1.084612	-0.679907	-0.816331
O57	O	0.924857	-0.758438	-0.621613
H58	H	0.876472	-0.753141	-0.549487
H59	H	1.641353	-0.626765	-0.106106
O60	O	0.919347	-0.612140	-0.753128
H61	H	0.870409	-0.674719	-0.788491
H62	H	1.396678	-0.905651	-0.627955
H63	H	1.108074	-0.727928	-0.621377
O64	O	1.652908	-0.777252	-0.371837
H65	H	1.710910	-0.748350	-0.313870
O66	O	1.792667	-0.891363	-0.232326
H67	H	1.781330	-0.805843	-0.243577
O68	O	1.383145	-0.372465	-0.234843
H69	H	1.462215	-0.350676	-0.263931
O70	O	1.792778	-1.119428	-0.232379
H71	H	1.839463	-1.062870	-0.185673
O72	O	1.242635	-0.233708	-0.120917
H73	H	1.253899	-0.245050	-0.206422
O74	O	1.383672	-0.371811	0.221294
H75	H	1.363033	-0.451159	0.250484
H76	H	1.653170	-1.204389	-0.371958
H77	H	1.260757	-0.251004	0.092649
O78	O	1.659473	-0.644065	0.107465
H79	H	1.648196	-0.632733	0.192969
H80	H	1.396793	-1.104720	-0.628003
