data_functionalizedCrystal
_audit_creation_method	'MofGen! by Chris Wilmer'
_symmetry_space_group_name_H-M	'P1'
_symmetry_Int_Tables_number	1
_symmetry_cell_setting	triclinic
loop_
_symmetry_equiv_pos_as_xyz
  x,y,z
_cell_length_a	15.995343
_cell_length_b	14.971486
_cell_length_c	14.472311
_cell_angle_alpha	90.001103
_cell_angle_beta	90.001161
_cell_angle_gamma	83.551657
loop_
_atom_site_label
_atom_site_type_symbol
_atom_site_fract_x
_atom_site_fract_y
_atom_site_fract_z
O1	O	0.109105	1.186820	0.076745
O2	O	0.122171	0.926405	0.076771
O3	O	-0.006243	1.063735	0.076740
O4	O	0.237519	1.049490	0.076776
O5	O	-0.006226	1.063716	-0.076942
O6	O	0.122188	0.926386	-0.076911
O7	O	0.109121	1.186802	-0.076937
Cu8	Cu	0.115656	1.056592	-0.090957
Cu9	Cu	0.115636	1.056614	0.090790
O10	O	0.237536	1.049472	-0.076906
C11	C	0.121595	0.893071	-0.000067
C12	C	0.119844	0.793776	-0.000058
C13	C	0.195284	0.736463	-0.000048
C14	C	0.193634	0.643165	-0.000062
C15	C	0.116543	0.607183	-0.000079
C16	C	0.041097	0.664504	-0.000092
C17	C	0.042748	0.757800	-0.000084
C18	C	0.037660	0.470046	-0.000105
C19	C	0.036009	0.376744	-0.000110
C20	C	0.188546	0.355411	-0.000082
C21	C	0.190197	0.448707	-0.000075
C22	C	0.114751	0.506021	-0.000086
C23	C	-0.037430	1.063138	-0.000103
C24	C	-0.130383	1.061376	-0.000111
C25	C	-0.300572	1.058178	-0.000089
C26	C	-0.324017	0.959047	-0.000077
C27	C	-0.420697	0.957182	0.000282
C28	C	-0.468135	1.055028	-0.000069
C29	C	-0.438996	1.104884	0.087509
C30	C	-0.342202	1.106059	0.087572
C31	C	-0.342286	1.107490	-0.087199
C32	C	-0.438784	1.103830	-0.088340
C33	C	-0.562835	1.053253	-0.000055
C34	C	-0.205872	1.059956	-0.000097
C35	C	0.268723	1.050069	-0.000061
C36	C	0.361675	1.051830	-0.000048
C37	C	0.109697	1.220135	-0.000097
C38	C	0.111448	1.319430	-0.000101
N39	N	0.115670	1.056583	-0.218787
C40	C	0.115651	1.056599	-0.407288
C41	C	0.184338	0.983105	-0.446501
C42	C	0.184151	0.982853	-0.553589
C43	C	0.115635	1.056614	-0.592879
C44	C	0.028143	1.036614	-0.553999
C45	C	0.028556	1.036077	-0.446878
C46	C	0.133667	1.150320	-0.446753
C47	C	0.135642	1.149700	-0.553881
C48	C	0.115620	1.056625	-0.697767
C49	C	0.115661	1.056587	-0.302400
N50	N	0.115616	1.056630	0.218621
H51	H	0.258061	0.765751	-0.000033
H52	H	0.255065	0.596503	-0.000053
F53	F	-0.042639	0.531043	-0.000119
H54	H	-0.327556	1.178756	0.091298
F55	F	-0.287454	0.908809	-0.082153
H56	H	-0.024115	1.087592	-0.420936
F57	F	-0.323872	1.202861	-0.088317
H58	H	-0.024223	1.088743	-0.579446
H59	H	-0.026766	0.347451	-0.000126
F60	F	-0.040950	0.626207	-0.000116
H61	H	0.083584	1.205009	-0.421387
H62	H	-0.439174	0.918358	0.063442
H63	H	0.011950	0.969069	-0.580846
H64	H	-0.315452	1.071951	0.153295
F65	F	0.272246	0.486999	-0.000047
H66	H	0.249977	0.308740	-0.000078
H67	H	-0.018683	0.804465	-0.000092
F68	F	-0.465303	1.060195	0.173037
H69	H	0.172946	0.913940	-0.419596
H70	H	-0.470770	1.176896	0.090514
H71	H	-0.439753	0.918148	-0.062479
F72	F	0.074529	1.224510	-0.588837
F73	F	-0.305376	1.066599	-0.173997
F74	F	-0.286186	0.909649	0.081899
H75	H	0.200013	1.164877	-0.579278
F76	F	-0.463085	1.056376	-0.173030
H77	H	0.249172	0.994709	-0.579878
H78	H	-0.471661	1.175228	-0.093899
H79	H	0.249581	0.994757	-0.420744
H80	H	0.172589	0.913303	-0.579229
F81	F	0.215311	1.175554	-0.411441
F82	F	0.007896	0.946754	-0.414233
