data_functionalizedCrystal
_audit_creation_method	'MofGen! by Chris Wilmer'
_symmetry_space_group_name_H-M	'P1'
_symmetry_Int_Tables_number	1
_symmetry_cell_setting	triclinic
loop_
_symmetry_equiv_pos_as_xyz
  x,y,z
_cell_length_a	13.635800
_cell_length_b	10.943632
_cell_length_c	10.943624
_cell_angle_alpha	88.228940
_cell_angle_beta	108.838799
_cell_angle_gamma	71.161120
loop_
_atom_site_label
_atom_site_type_symbol
_atom_site_fract_x
_atom_site_fract_y
_atom_site_fract_z
V1	V	2.057748	-0.178596	0.402520
O2	O	2.036602	0.008617	0.394890
O3	O	2.046723	-0.354159	0.399737
O4	O	2.046729	-0.175834	0.578087
O5	O	2.036596	-0.170943	0.215305
V6	V	2.296146	-0.156205	0.380131
O7	O	2.195753	-0.227713	0.451632
O8	O	2.383239	-0.107088	0.331020
O9	O	2.195568	0.019358	0.382915
O10	O	2.375990	-0.343418	0.387762
O11	O	2.375996	-0.163858	0.567347
O12	O	2.195562	-0.158967	0.204564
V13	V	2.557748	-0.178596	0.402520
O14	O	2.536602	0.008617	0.394890
O15	O	2.546723	-0.354159	0.399737
O16	O	2.546729	-0.175834	0.578087
O17	O	2.536596	-0.170943	0.215305
V18	V	2.796146	-0.156205	0.380131
O19	O	2.695753	-0.227713	0.451632
O20	O	2.883239	-0.107088	0.331020
O21	O	2.695568	0.019358	0.382915
O22	O	2.875990	-0.343418	0.387762
O23	O	2.875996	-0.163858	0.567347
O24	O	2.695562	-0.158967	0.204564
C25	C	1.972002	-0.396958	0.393379
C26	C	2.003719	-0.540484	0.392273
C27	C	1.926142	-0.617637	0.384920
C28	C	1.965560	-0.690292	0.280695
C29	C	2.020829	-0.723567	0.494542
C30	C	2.042696	-0.611235	0.287974
C31	C	2.097975	-0.644516	0.501916
C32	C	2.137447	-0.717134	0.397670
C33	C	1.972009	-0.169484	0.620881
C34	C	2.003729	-0.168388	0.764408
C35	C	2.101960	0.062151	0.389269
C36	C	2.059863	0.205675	0.390383
C37	C	2.101953	-0.165321	0.161764
C38	C	2.059851	-0.166411	0.018236
C39	C	2.472002	-0.396958	0.393379
C40	C	2.503719	-0.540484	0.392273
C41	C	2.472009	-0.169484	0.620881
C42	C	2.503729	-0.168388	0.764408
C43	C	1.926144	-0.161001	0.841556
C44	C	2.020823	-0.270645	0.947527
C45	C	1.965582	-0.056801	0.914178
C46	C	2.098013	-0.278134	0.868502
C47	C	2.042732	-0.064194	0.835129
C48	C	2.137480	-0.173869	0.941070
C49	C	2.601960	0.062151	0.389269
C50	C	2.559863	0.205675	0.390383
C51	C	2.601953	-0.165321	0.161764
C52	C	2.559851	-0.166411	0.018236
C53	C	2.426142	-0.617637	0.384920
C54	C	2.465560	-0.690292	0.280695
C55	C	2.520829	-0.723567	0.494542
C56	C	2.542696	-0.611235	0.287974
C57	C	2.597975	-0.644516	0.501916
C58	C	2.637447	-0.717134	0.397670
C59	C	2.426144	-0.161001	0.841556
C60	C	2.520823	-0.270645	0.947527
C61	C	2.465582	-0.056801	0.914178
C62	C	2.598013	-0.278134	0.868502
C63	C	2.542732	-0.064194	0.835129
C64	C	2.637480	-0.173869	0.941070
H65	H	1.836485	-0.574154	0.379408
H66	H	2.511892	-0.357924	0.996461
H67	H	2.336485	-0.574154	0.379408
Br68	Br	2.372814	-0.724992	0.124831
Br69	Br	2.005903	-0.805076	0.640011
H70	H	1.909908	0.036718	0.934956
Br71	Br	2.557535	-0.529970	0.142303
Br72	Br	2.690668	-0.609844	0.657829
H73	H	2.051614	-0.562474	0.200587
Br74	Br	2.190668	-0.609844	0.657829
H75	H	2.227076	-0.760358	0.403023
H76	H	1.909906	-0.711058	0.187152
Br77	Br	1.776804	-0.152169	0.769133
H78	H	2.051621	0.023090	0.786160
H79	H	2.011892	-0.357924	0.996461
H80	H	2.727076	-0.760358	0.403023
Br81	Br	2.190843	-0.434214	0.834244
Br82	Br	2.286911	-0.182971	1.013148
H83	H	2.511869	-0.772480	0.581812
H84	H	2.336543	-0.155706	0.798109
H85	H	2.653705	-0.371779	0.847941
H86	H	2.727137	-0.179336	0.984314
Br87	Br	2.557548	0.081285	0.753504
Br88	Br	2.372784	0.099109	0.948741
