data_functionalizedCrystal
_audit_creation_method	'MofGen! by Chris Wilmer'
_symmetry_space_group_name_H-M	'P1'
_symmetry_Int_Tables_number	1
_symmetry_cell_setting	triclinic
loop_
_symmetry_equiv_pos_as_xyz
  x,y,z
_cell_length_a	23.532355
_cell_length_b	23.532407
_cell_length_c	10.868271
_cell_angle_alpha	89.986386
_cell_angle_beta	90.001502
_cell_angle_gamma	82.838123
loop_
_atom_site_label
_atom_site_type_symbol
_atom_site_fract_x
_atom_site_fract_y
_atom_site_fract_z
O1	O	0.755279	0.068994	-0.102177
O2	O	1.255279	0.568994	0.397823
O3	O	0.589411	0.079029	-0.102220
O4	O	1.089411	0.579029	0.397780
O5	O	0.677346	-0.008921	-0.102163
O6	O	1.177346	0.491079	0.397837
O7	O	0.667343	0.156944	-0.102234
O8	O	1.167343	0.656944	0.397766
O9	O	0.677339	-0.008924	0.102482
O10	O	1.177339	0.491076	0.602482
O11	O	0.589404	0.079025	0.102425
O12	O	1.089404	0.579025	0.602425
O13	O	0.755271	0.068991	0.102467
O14	O	1.255271	0.568991	0.602467
Zn15	Zn	0.672336	0.074008	0.134938
Zn16	Zn	1.172336	0.574008	0.634938
Zn17	Zn	0.672346	0.074012	-0.134690
Zn18	Zn	1.172346	0.574012	0.365310
O19	O	0.667336	0.156941	0.102410
O20	O	1.167336	0.656941	0.602410
C21	C	0.568191	0.078776	0.000098
C22	C	1.068191	0.578776	0.500098
C23	C	0.504972	0.078022	0.000083
C24	C	1.004972	0.578022	0.500083
C25	C	0.112954	0.073282	0.111689
C26	C	0.612954	0.573282	0.611689
C27	C	0.053555	0.072565	0.111694
C28	C	0.553555	0.572565	0.611694
O29	O	0.022833	0.072173	0.206563
O30	O	0.522833	0.572173	0.706563
N31	N	0.023850	0.072211	0.000142
N32	N	0.523850	0.572211	0.500142
C33	C	0.053549	0.072568	-0.111421
C34	C	0.553549	0.572568	0.388579
O35	O	0.022829	0.072201	-0.206304
O36	O	0.522829	0.572201	0.293696
C37	C	0.112948	0.073282	-0.111425
C38	C	0.612948	0.573282	0.388575
C39	C	0.142649	0.073641	0.000134
C40	C	0.642649	0.573641	0.500134
C41	C	0.142655	0.073641	0.223238
C42	C	0.642655	0.573641	0.723238
C43	C	0.202050	0.074360	0.223233
C44	C	0.702050	0.574360	0.723233
C45	C	0.231745	0.074719	0.111678
C46	C	0.731745	0.574719	0.611678
C47	C	0.202044	0.074360	0.000128
C48	C	0.702044	0.574360	0.500128
C49	C	0.142646	0.073635	-0.222987
C50	C	0.642646	0.573635	0.277013
C51	C	0.202049	0.074348	-0.222981
C52	C	0.702049	0.574348	0.277019
C53	C	0.231750	0.074708	-0.111423
C54	C	0.731750	0.574708	0.388577
C55	C	0.291133	0.075438	-0.111432
C56	C	0.791133	0.575438	0.388568
N57	N	0.320838	0.075792	0.000119
N58	N	0.820838	0.575792	0.500119
C59	C	0.291144	0.075432	0.111674
C60	C	0.791144	0.575432	0.611674
C61	C	-0.071192	0.071069	-0.111405
C62	C	0.428808	0.571069	0.388595
C63	C	-0.130591	0.070360	-0.111402
C64	C	0.369409	0.570360	0.388598
C65	C	-0.130581	0.070355	0.111713
C66	C	0.369419	0.570355	0.611713
C67	C	-0.071182	0.071069	0.111709
C68	C	0.428818	0.571069	0.611709
C69	C	-0.041488	0.071423	0.000147
C70	C	0.458512	0.571423	0.500147
C71	C	0.415878	0.076942	0.111654
C72	C	0.915878	0.576942	0.611654
C73	C	0.475278	0.077663	0.111638
C74	C	0.975278	0.577663	0.611638
C75	C	0.475263	0.077664	-0.111476
C76	C	0.975263	0.577664	0.388524
C77	C	0.415868	0.076947	-0.111462
C78	C	0.915868	0.576947	0.388538
C79	C	0.386177	0.076583	0.000113
C80	C	0.886177	0.576583	0.500113
O81	O	0.321893	0.075828	-0.206253
O82	O	0.821893	0.575828	0.293747
O83	O	0.321872	0.075792	0.206540
O84	O	0.821872	0.575792	0.706540
C85	C	0.677088	-0.030139	0.000166
C86	C	1.177088	0.469861	0.500166
C87	C	0.676322	-0.093356	0.000184
C88	C	1.176322	0.406644	0.500184
C89	C	0.621125	-0.359513	0.000093
C90	C	1.121125	0.140487	0.500093
C91	C	0.621837	-0.300113	0.000103
C92	C	1.121837	0.199887	0.500103
O93	O	0.578050	-0.263360	0.000053
O94	O	1.078050	0.236640	0.500053
N95	N	0.674114	-0.277496	0.000131
N96	N	1.174114	0.222504	0.500131
C97	C	0.725684	-0.314283	0.000136
C98	C	1.225684	0.185717	0.500136
O99	O	0.770216	-0.289592	0.000159
O100	O	1.270216	0.210408	0.500159
C101	C	0.724972	-0.373682	0.000117
C102	C	1.224972	0.126318	0.500117
C103	C	0.672691	-0.396295	0.000102
C104	C	1.172691	0.103705	0.500102
C105	C	0.568849	-0.382126	0.000077
C106	C	1.068849	0.117874	0.500077
C107	C	0.568137	-0.441522	0.000070
C108	C	1.068137	0.058478	0.500070
C109	C	0.619703	-0.478305	0.000079
C110	C	1.119703	0.021695	0.500079
C111	C	0.671980	-0.455691	0.000095
C112	C	1.171980	0.044309	0.500095
C113	C	0.776541	-0.410468	0.000114
C114	C	1.276541	0.089532	0.500114
C115	C	0.775824	-0.469871	0.000095
C116	C	1.275824	0.030129	0.500095
C117	C	0.723543	-0.492484	0.000080
C118	C	1.223543	0.007516	0.500080
C119	C	0.722834	-0.551870	0.000097
C120	C	1.222834	-0.051870	0.500097
N121	N	0.670556	-0.574486	0.000069
N122	N	1.170556	-0.074486	0.500069
C123	C	0.618991	-0.537704	0.000060
C124	C	1.118991	-0.037704	0.500060
C125	C	0.727175	-0.189541	0.000172
C126	C	1.227175	0.310459	0.500172
C127	C	0.727888	-0.130143	0.000200
C128	C	1.227888	0.369857	0.500200
C129	C	0.624041	-0.115977	0.000165
C130	C	1.124041	0.384023	0.500165
C131	C	0.623329	-0.175376	0.000146
C132	C	1.123329	0.324624	0.500146
C133	C	0.674898	-0.212158	0.000145
C134	C	1.174898	0.287842	0.500145
C135	C	0.617501	-0.662440	0.000046
C136	C	1.117501	-0.162440	0.500046
C137	C	0.616795	-0.721842	0.000044
C138	C	1.116795	-0.221842	0.500044
C139	C	0.720642	-0.736004	0.000072
C140	C	1.220642	-0.236004	0.500072
C141	C	0.721349	-0.676607	0.000081
C142	C	1.221349	-0.176607	0.500081
C143	C	0.669774	-0.639826	0.000064
C144	C	1.169774	-0.139826	0.500064
O145	O	0.766598	-0.588657	0.000142
O146	O	1.266598	-0.088657	0.500142
O147	O	0.574467	-0.562403	0.000021
O148	O	1.074467	-0.062403	0.500021
C149	C	0.776492	0.069244	0.000147
C150	C	1.276492	0.569244	0.500147
C151	C	0.839710	0.069998	0.000154
C152	C	1.339710	0.569998	0.500154
C153	C	0.667594	0.178158	0.000079
C154	C	1.167594	0.678158	0.500079
C155	C	0.668360	0.241375	0.000053
C156	C	1.168360	0.741375	0.500053
N157	N	0.672334	0.074004	0.318952
N158	N	1.172334	0.574004	0.818952
N159	N	0.672353	0.074011	-0.318704
N160	N	1.172353	0.574011	0.181296
C161	C	0.672343	0.074011	0.569958
C162	C	1.172343	0.574011	1.069958
C163	C	0.672336	0.074009	0.430281
C164	C	1.172336	0.574009	0.930281
H165	H	-0.047003	0.071362	0.202550
H166	H	0.452997	0.571362	0.702550
Cl167	Cl	0.105323	0.073181	-0.363242
Cl168	Cl	0.605323	0.573181	0.136758
Cl169	Cl	0.840659	-0.516108	0.000089
Cl170	Cl	1.340659	-0.016108	0.500089
Cl171	Cl	0.502409	-0.469941	0.000035
Cl172	Cl	1.002409	0.030059	0.500035
Cl173	Cl	0.512612	0.078116	0.251894
Cl174	Cl	1.012612	0.578116	0.751894
H175	H	0.763920	-0.658195	0.000111
H176	H	1.263920	-0.158195	0.500111
Cl177	Cl	0.559215	-0.069725	0.000152
Cl178	Cl	1.059215	0.430275	0.500152
H179	H	0.391710	0.076651	0.202509
H180	H	0.891710	0.576651	0.702509
H181	H	0.526855	-0.352183	0.000066
H182	H	1.026855	0.147817	0.500066
H183	H	0.769172	-0.219487	0.000180
H184	H	1.269172	0.280513	0.500180
Cl185	Cl	0.512605	0.078113	-0.251709
Cl186	Cl	1.012605	0.578113	0.248291
H187	H	0.226223	0.074637	-0.313831
H188	H	0.726223	0.574637	0.186169
H189	H	0.580757	-0.193783	0.000139
H190	H	1.080757	0.306217	0.500139
H191	H	0.770460	-0.111738	0.000231
H192	H	1.270460	0.388262	0.500231
H193	H	0.819114	-0.392068	0.000125
H194	H	1.319114	0.107932	0.500125
Cl195	Cl	0.378527	0.076504	-0.251708
Cl196	Cl	0.878527	0.576504	0.248292
Cl197	Cl	-0.167923	0.069919	-0.251653
Cl198	Cl	0.332077	0.569919	0.248347
H199	H	-0.154768	0.070062	0.202547
H200	H	0.345232	0.570062	0.702547
Cl201	Cl	0.552663	-0.616211	0.000028
Cl202	Cl	1.052663	-0.116211	0.500028
Cl203	Cl	0.239380	0.074808	0.363486
Cl204	Cl	0.739380	0.574808	0.863486
Cl205	Cl	0.105336	0.073193	0.363498
Cl206	Cl	0.605336	0.573193	0.863498
Cl207	Cl	0.551065	-0.750266	0.000027
Cl208	Cl	1.051065	-0.250266	0.500027
H209	H	-0.047020	0.071364	-0.202258
H210	H	0.452980	0.571364	0.297742
Cl211	Cl	0.785463	-0.782255	0.000092
Cl212	Cl	1.285463	-0.282255	0.500092
