data_functionalizedCrystal
_audit_creation_method	'MofGen! by Chris Wilmer'
_symmetry_space_group_name_H-M	'P1'
_symmetry_Int_Tables_number	1
_symmetry_cell_setting	triclinic
loop_
_symmetry_equiv_pos_as_xyz
  x,y,z
_cell_length_a	8.497374
_cell_length_b	17.077404
_cell_length_c	17.077402
_cell_angle_alpha	89.976892
_cell_angle_beta	89.987778
_cell_angle_gamma	90.003463
loop_
_atom_site_label
_atom_site_type_symbol
_atom_site_fract_x
_atom_site_fract_y
_atom_site_fract_z
Zn1	Zn	0.891988	1.199930	0.312640
Zn2	Zn	0.628173	1.199874	0.443874
Zn3	Zn	0.628207	1.068699	0.312627
Zn4	Zn	0.891897	1.068630	0.443868
O5	O	0.760066	1.134283	0.378252
O6	O	0.857016	1.309770	0.330056
O7	O	0.407415	1.182479	0.426461
O8	O	0.663251	1.086159	0.202782
O9	O	0.663193	1.309729	0.426474
O10	O	0.857049	1.182574	0.202791
O11	O	0.407440	1.086105	0.330034
O12	O	0.663162	0.958843	0.330028
O13	O	1.112671	1.086042	0.426463
O14	O	0.856894	0.958792	0.426450
O15	O	1.112738	1.182508	0.330050
O16	O	0.663104	1.182412	0.553720
O17	O	0.856861	1.085988	0.553716
C18	C	0.760023	0.930336	0.378238
C19	C	0.760042	0.843086	0.378251
C20	C	0.760003	1.134208	0.582200
C21	C	0.760029	1.134247	0.669450
C22	C	0.860756	0.802090	0.428533
C23	C	0.860781	0.720109	0.428535
C24	C	0.760083	0.679126	0.378257
C25	C	0.659364	0.720128	0.327969
C26	C	0.659348	0.802107	0.327964
C27	C	0.659402	0.549258	0.327985
C28	C	0.659416	0.467273	0.327991
C29	C	0.860835	0.467260	0.428556
C30	C	0.860819	0.549239	0.428551
C31	C	0.760098	0.590235	0.378263
C32	C	1.171547	1.134278	0.378253
C33	C	1.350191	1.134279	0.378262
C34	C	0.760111	1.339028	0.378267
C35	C	0.760130	1.426277	0.378273
C36	C	0.760164	1.134381	0.173508
C37	C	0.760206	1.134422	0.086258
C38	C	0.659248	1.184506	0.710416
C39	C	0.659289	1.184545	0.792397
C40	C	0.760103	1.134319	0.833409
C41	C	0.860895	1.084058	0.792437
C42	C	0.860861	1.084024	0.710458
C43	C	0.860955	1.084130	0.963307
C44	C	0.860986	1.084163	1.045291
C45	C	0.659382	1.184651	1.045246
C46	C	0.659349	1.184618	0.963267
C47	C	0.760139	1.134355	0.922300
H48	H	0.942751	0.835452	0.469478
C49	C	0.548560	0.847207	0.272654
C50	C	0.617141	0.903589	0.211076
C51	C	0.506357	0.948690	0.155761
C52	C	0.326993	0.937408	0.162024
C53	C	0.258403	0.881023	0.223604
C54	C	0.369187	0.835923	0.278919
H55	H	0.749925	0.911943	0.206438
H56	H	0.557132	0.990429	0.110175
H57	H	0.244984	0.970794	0.121076
H58	H	0.125619	0.872670	0.228242
H59	H	0.318411	0.794184	0.324505
C60	C	0.971795	1.028807	0.837546
C61	C	1.151144	1.035134	0.826233
C62	C	1.262045	0.979880	0.871339
C63	C	1.193596	0.918300	0.927758
C64	C	1.014238	0.911971	0.939073
C65	C	0.903338	0.967225	0.893967
H66	H	1.201822	1.080721	0.784466
H67	H	1.394818	0.984565	0.862963
H68	H	1.275691	0.877397	0.961148
H69	H	0.963560	0.866383	0.980840
H70	H	0.770565	0.962540	0.902344
C71	C	0.548600	0.675053	0.272656
C72	C	0.369233	0.686312	0.278912
C73	C	0.258464	0.641241	0.223597
C74	C	0.327063	0.584910	0.162026
C75	C	0.506439	0.573648	0.155768
C76	C	0.617207	0.618719	0.211084
H77	H	0.318444	0.728014	0.324492
H78	H	0.125678	0.649578	0.228229
H79	H	0.245065	0.551545	0.121079
H80	H	0.557227	0.531946	0.110188
H81	H	0.749994	0.610382	0.206451
H82	H	0.577320	1.225580	1.078605
C83	C	0.971716	1.028735	0.665390
C84	C	0.958681	0.939508	0.676734
C85	C	1.069543	0.884221	0.631667
C86	C	1.193440	0.918160	0.575257
C87	C	1.206480	1.007392	0.563911
C88	C	1.095618	1.062679	0.608978
H89	H	0.866960	0.914380	0.718494
H90	H	1.059889	0.818165	0.640066
H91	H	1.275507	0.877233	0.541895
H92	H	1.298201	1.032520	0.522150
H93	H	1.105272	1.128735	0.600579
C94	C	0.971587	0.594321	0.483856
C95	C	0.958399	0.583021	0.573084
C96	C	1.069172	0.628102	0.628389
C97	C	1.193133	0.684483	0.594466
C98	C	1.206326	0.695786	0.505234
C99	C	1.095553	0.650705	0.449929
H100	H	0.866631	0.541281	0.598200
H101	H	1.059405	0.619734	0.694445
H102	H	1.275134	0.717855	0.635406
H103	H	1.298094	0.737526	0.480118
H104	H	1.105320	0.659073	0.383873
C105	C	0.971636	0.422171	0.483873
C106	C	0.903064	0.365784	0.545448
C107	C	1.013853	0.320693	0.600767
C108	C	1.193215	0.331988	0.594511
C109	C	1.261796	0.388377	0.532933
C110	C	1.151007	0.433469	0.477614
H111	H	0.770281	0.357421	0.550082
H112	H	0.963083	0.278949	0.646352
H113	H	1.275227	0.298608	0.635462
H114	H	1.394579	0.396741	0.528300
H115	H	1.201777	0.475212	0.432030
C116	C	0.548694	0.422190	0.272663
C117	C	0.437946	0.467279	0.217329
C118	C	0.327241	0.422196	0.161992
C119	C	0.327284	0.332022	0.161990
C120	C	0.438036	0.286927	0.217327
C121	C	0.548741	0.332011	0.272664
H122	H	0.437910	0.534036	0.217328
H123	H	0.245255	0.455578	0.121028
H124	H	0.245333	0.298648	0.121027
H125	H	0.438071	0.220171	0.217328
H126	H	0.630727	0.298628	0.313628
C127	C	0.548420	1.239831	0.837455
C128	C	0.424524	1.205896	0.893869
C129	C	0.313650	1.261187	0.938925
C130	C	0.326671	1.350413	0.927566
C131	C	0.450571	1.384352	0.871150
C132	C	0.561446	1.329061	0.826094
H133	H	0.414881	1.139842	0.902280
H134	H	0.221931	1.236063	0.980688
H135	H	0.244595	1.391343	0.960919
H136	H	0.460215	1.450407	0.862739
H137	H	0.653165	1.354186	0.784331
H138	H	0.942791	0.686734	0.469481
H139	H	0.577398	0.582634	0.287028
H140	H	0.577147	1.225403	0.677029
H141	H	0.577251	1.225511	0.929875
H142	H	0.943108	1.043279	1.078682
H143	H	0.943034	1.043203	0.929955
