data_functionalizedCrystal
_audit_creation_method	'MofGen! by Chris Wilmer'
_symmetry_space_group_name_H-M	'P1'
_symmetry_Int_Tables_number	1
_symmetry_cell_setting	triclinic
loop_
_symmetry_equiv_pos_as_xyz
  x,y,z
_cell_length_a	18.101398
_cell_length_b	25.639240
_cell_length_c	18.101389
_cell_angle_alpha	90.027631
_cell_angle_beta	90.024327
_cell_angle_gamma	90.028023
loop_
_atom_site_label
_atom_site_type_symbol
_atom_site_fract_x
_atom_site_fract_y
_atom_site_fract_z
Zn1	Zn	1.132112	-0.208272	0.418791
Zn2	Zn	1.632112	0.291728	0.918791
Zn3	Zn	1.132005	-0.295693	0.294930
Zn4	Zn	1.632005	0.204307	0.794930
Zn5	Zn	1.008271	-0.208266	0.294952
Zn6	Zn	1.508271	0.291734	0.794952
Zn7	Zn	1.008219	-0.295671	0.418718
Zn8	Zn	1.508219	0.204329	0.918718
O9	O	1.070152	-0.251975	0.356848
O10	O	1.570152	0.248025	0.856848
O11	O	1.235731	-0.219880	0.402382
O12	O	1.735731	0.280120	0.902382
O13	O	1.115568	-0.284103	0.191300
O14	O	1.615568	0.215897	0.691300
O15	O	1.024766	-0.135102	0.311420
O16	O	1.524766	0.364898	0.811420
O17	O	1.235652	-0.284108	0.311381
O18	O	1.735652	0.215892	0.811381
O19	O	1.115752	-0.135106	0.402404
O20	O	1.615752	0.364894	0.902404
O21	O	1.024662	-0.219871	0.191316
O22	O	1.524662	0.280129	0.691316
O23	O	0.904632	-0.219849	0.311349
O24	O	1.404632	0.280151	0.811349
O25	O	1.024676	-0.284070	0.522361
O26	O	1.524676	0.215930	1.022361
O27	O	0.904593	-0.284065	0.402280
O28	O	1.404593	0.215935	0.902280
O29	O	1.115701	-0.219858	0.522415
O30	O	1.615701	0.280142	1.022415
O31	O	1.115517	-0.368855	0.311311
O32	O	1.615517	0.131145	0.811311
O33	O	1.024572	-0.368839	0.402258
O34	O	1.524572	0.131161	0.902258
C35	C	0.877741	-0.251954	0.356809
C36	C	1.377741	0.248046	0.856809
C37	C	0.795427	-0.251958	0.356810
C38	C	1.295427	0.248042	0.856810
C39	C	0.496336	-0.251990	0.356873
C40	C	0.996336	0.248010	0.856873
C41	C	0.527661	-0.211386	0.299941
C42	C	1.027661	0.288614	0.799941
C43	C	0.613279	-0.211495	0.299698
C44	C	1.113279	0.288505	0.799698
C45	C	0.644719	-0.251974	0.356842
C46	C	1.144719	0.248026	0.856842
C47	C	0.613598	-0.307048	0.335505
C48	C	1.113598	0.192952	0.835505
C49	C	0.527953	-0.306822	0.335109
C50	C	1.027953	0.193178	0.835109
C51	C	0.527951	-0.238000	0.435275
C52	C	1.027951	0.262000	0.935275
C53	C	0.613602	-0.236773	0.434848
C54	C	1.113602	0.263227	0.934848
C55	C	0.728578	-0.251968	0.356826
C56	C	1.228578	0.248032	0.856826
C57	C	0.412477	-0.252000	0.356887
C58	C	0.912477	0.248000	0.856887
C59	C	1.070047	-0.387818	0.356790
C60	C	1.570047	0.112182	0.856790
C61	C	1.070070	-0.445932	0.356790
C62	C	1.570070	0.054068	0.856790
C63	C	1.117551	-0.806259	0.404309
C64	C	1.617551	-0.306259	0.904309
C65	C	1.117573	-0.860863	0.404324
C66	C	1.617573	-0.360863	0.904324
O67	O	1.157819	-0.889069	0.444666
O68	O	1.657819	-0.389069	0.944666
N69	N	1.070255	-0.888214	0.356920
N70	N	1.570255	-0.388214	0.856920
C71	C	1.022906	-0.860959	0.309503
C72	C	1.522906	-0.360959	0.809503
O73	O	0.982659	-0.889237	0.269183
O74	O	1.482659	-0.389237	0.769183
C75	C	1.022881	-0.806355	0.309492
C76	C	1.522881	-0.306355	0.809492
C77	C	1.070208	-0.779007	0.356894
C78	C	1.570208	-0.279007	0.856894
C79	C	1.164874	-0.778910	0.451708
C80	C	1.664874	-0.278910	0.951708
C81	C	1.164853	-0.724309	0.451691
C82	C	1.664853	-0.224309	0.951691
C83	C	1.117509	-0.697058	0.404276
C84	C	1.617509	-0.197058	0.904276
C85	C	1.070187	-0.724406	0.356878
C86	C	1.570187	-0.224406	0.856878
C87	C	0.975528	-0.779101	0.262079
C88	C	1.475528	-0.279101	0.762079
C89	C	0.975507	-0.724494	0.262073
C90	C	1.475507	-0.224494	0.762073
C91	C	1.022834	-0.697145	0.309475
C92	C	1.522834	-0.197145	0.809475
C93	C	1.022822	-0.642554	0.309446
C94	C	1.522822	-0.142554	0.809446
N95	N	1.070141	-0.615202	0.356851
N96	N	1.570141	-0.115202	0.856851
C97	C	1.117484	-0.642454	0.404266
C98	C	1.617484	-0.142454	0.904266
C99	C	1.022961	-0.975629	0.309530
C100	C	1.522961	-0.475629	0.809530
C101	C	1.022989	-1.030232	0.309536
C102	C	1.522989	-0.530232	0.809536
C103	C	1.117656	-1.030132	0.404359
C104	C	1.617656	-0.530132	0.904359
C105	C	1.117631	-0.975529	0.404348
C106	C	1.617631	-0.475529	0.904348
C107	C	1.070280	-0.948278	0.356934
C108	C	1.570280	-0.448278	0.856934
C109	C	1.117437	-0.527789	0.404227
C110	C	1.617437	-0.027789	0.904227
C111	C	1.117414	-0.473184	0.404205
C112	C	1.617414	0.026816	0.904205
C113	C	1.022745	-0.473288	0.309386
C114	C	1.522745	0.026712	0.809386
C115	C	1.022770	-0.527889	0.309405
C116	C	1.522770	-0.027889	0.809405
C117	C	1.070119	-0.555138	0.356832
C118	C	1.570119	-0.055138	0.856832
O119	O	0.982594	-0.614313	0.269127
O120	O	1.482594	-0.114313	0.769127
O121	O	1.157717	-0.614169	0.444585
O122	O	1.657717	-0.114169	0.944585
C123	C	1.263314	-0.251997	0.356887
C124	C	1.763314	0.248003	0.856887
C125	C	1.345628	-0.252006	0.356904
C126	C	1.845628	0.247994	0.856904
C127	C	1.070195	-0.251962	0.550010
C128	C	1.570195	0.248038	1.050010
C129	C	1.070213	-0.251957	0.632324
C130	C	1.570213	0.248043	1.132324
C131	C	1.070277	-0.115602	0.356922
C132	C	1.570277	0.384398	0.856922
C133	C	1.070330	-0.057488	0.356954
C134	C	1.570330	0.442512	0.856954
C135	C	1.070152	-0.251951	0.164437
C136	C	1.570152	0.248049	0.664437
C137	C	1.070277	-0.251809	0.082124
C138	C	1.570277	0.248191	0.582124
C139	C	1.070256	-0.251859	0.931415
C140	C	1.570256	0.248141	1.431415
C141	C	1.012789	-0.292130	0.900056
C142	C	1.512789	0.207870	1.400056
C143	C	1.012944	-0.292317	0.814438
C144	C	1.512944	0.207683	1.314438
C145	C	1.070234	-0.251907	0.783033
C146	C	1.570234	0.248093	1.283033
C147	C	1.148259	-0.266868	0.814135
C148	C	1.648259	0.233132	1.314135
C149	C	1.147939	-0.267132	0.899780
C150	C	1.647939	0.232868	1.399780
C151	C	1.050377	-0.196537	0.899852
C152	C	1.550377	0.303463	1.399852
C153	C	1.048641	-0.196856	0.814201
C154	C	1.548641	0.303144	1.314201
C155	C	1.070226	-0.251934	0.699173
C156	C	1.570226	0.248066	1.199173
C157	C	1.070269	-0.251833	1.015275
C158	C	1.570269	0.248167	1.515275
H159	H	0.507941	-0.318688	0.277792
H160	H	1.007941	0.181312	0.777792
H161	H	0.633732	-0.220743	0.241603
H162	H	1.133732	0.279257	0.741603
Br163	Br	0.958552	-0.565006	0.245062
Br164	Br	1.458552	-0.065006	0.745062
H165	H	0.984458	-1.052494	0.270929
H166	H	1.484458	-0.552494	0.770929
H167	H	0.635013	-0.319119	0.278807
H168	H	1.135013	0.180881	0.778807
H169	H	1.155988	-0.549969	0.442852
H170	H	1.655988	-0.049969	0.942852
H171	H	1.192207	-0.239073	0.920527
H172	H	1.692207	0.260927	1.420527
Br173	Br	1.181651	-0.436071	0.468538
Br174	Br	1.681651	0.063929	0.968538
H175	H	0.635006	-0.264193	0.479540
H176	H	1.135006	0.235807	0.979540
H177	H	0.507230	-0.338099	0.374766
H178	H	1.007230	0.161901	0.874766
H179	H	1.156168	-0.953265	0.442947
H180	H	1.656168	-0.453265	0.942947
H181	H	1.192226	-0.238457	0.793795
H182	H	1.692226	0.261543	1.293795
Br183	Br	0.647524	-0.358824	0.402459
Br184	Br	1.147524	0.141176	0.902459
Br185	Br	0.494189	-0.287293	0.505978
Br186	Br	0.994189	0.212707	1.005978
Br187	Br	1.229081	-0.687202	0.516031
Br188	Br	1.729081	-0.187202	1.016031
Br189	Br	0.491727	-0.226612	0.203676
Br190	Br	0.991727	0.273388	0.703676
H191	H	0.936990	-0.801359	0.223479
H192	H	1.436990	-0.301359	0.723479
H193	H	0.936945	-0.702309	0.223463
H194	H	1.436945	-0.202309	0.723463
Br195	Br	0.492003	-0.172229	0.467605
Br196	Br	0.992003	0.327771	0.967605
H197	H	0.984200	-0.451091	0.270778
H198	H	1.484200	0.048909	0.770778
H199	H	0.633948	-0.196245	0.450936
H200	H	1.133948	0.303755	0.950936
H201	H	1.156205	-1.052330	0.442968
H202	H	1.656205	-0.552330	0.942968
H203	H	1.203427	-0.801093	0.490323
H204	H	1.703427	-0.301093	0.990323
Br205	Br	0.958696	-0.938651	0.245172
Br206	Br	1.458696	-0.438651	0.745172
H207	H	0.955085	-0.282955	0.793408
H208	H	1.455085	0.217045	1.293408
H209	H	0.954756	-0.282864	0.920644
H210	H	1.454756	0.217136	1.420644
H211	H	1.025783	-0.332886	0.921573
H212	H	1.525783	0.167114	1.421573
H213	H	1.165403	-0.306879	0.792684
H214	H	1.665403	0.193121	1.292684
Br215	Br	1.034862	-0.360657	0.780277
Br216	Br	1.534862	0.139343	1.280277
Br217	Br	1.176027	-0.334536	0.933076
Br218	Br	1.676027	0.165464	1.433076
Br219	Br	0.957194	-0.173820	0.935832
Br220	Br	1.457194	0.326180	1.435832
H221	H	0.991221	-0.185574	0.793872
H222	H	1.491221	0.314426	1.293872
Br223	Br	1.113322	-0.144189	0.778584
Br224	Br	1.613322	0.355811	1.278584
Br225	Br	1.120140	-0.146527	0.933655
Br226	Br	1.620140	0.353473	1.433655
H227	H	0.634322	-0.170655	0.313074
H228	H	1.134322	0.329345	0.813074
H229	H	0.507092	-0.170421	0.313170
H230	H	1.007092	0.329579	0.813170
