data_functionalizedCrystal
_audit_creation_method	'MofGen! by Chris Wilmer'
_symmetry_space_group_name_H-M	'P1'
_symmetry_Int_Tables_number	1
_symmetry_cell_setting	triclinic
loop_
_symmetry_equiv_pos_as_xyz
  x,y,z
_cell_length_a	16.109301
_cell_length_b	14.750779
_cell_length_c	16.109301
_cell_angle_alpha	102.640104
_cell_angle_beta	83.461481
_cell_angle_gamma	77.359167
loop_
_atom_site_label
_atom_site_type_symbol
_atom_site_fract_x
_atom_site_fract_y
_atom_site_fract_z
O1	O	1.085092	0.079770	0.124898
O2	O	0.843026	0.079786	0.138200
O3	O	0.970711	0.079768	0.010516
O4	O	0.957407	0.079788	0.252582
O5	O	1.006806	-0.079888	-0.025575
O6	O	0.879121	-0.079870	0.102109
O7	O	1.121187	-0.079885	0.088807
Zn8	Zn	1.005885	-0.105226	0.089728
Zn9	Zn	0.958328	0.105127	0.137279
O10	O	0.993502	-0.079867	0.216491
C11	C	0.830099	-0.000040	0.119617
C12	C	0.737802	-0.000035	0.118003
N13	N	1.038347	-0.248787	0.057275
C14	C	0.515531	-0.000040	0.190009
C15	C	0.428812	-0.000046	0.188484
C16	C	0.448688	-0.000055	0.036993
C17	C	0.535407	-0.000055	0.038518
C18	C	0.568825	-0.000043	0.115030
C19	C	0.395387	-0.000049	0.111979
C20	C	0.301362	-0.000055	0.110325
C21	C	0.662855	-0.000038	0.116684
C22	C	0.835210	-0.600576	0.260326
C23	C	0.857964	-0.701078	0.237590
C24	C	0.971052	-0.701057	0.124567
C25	C	0.948305	-0.600553	0.147290
C26	C	0.880384	-0.550320	0.215171
C27	C	0.993479	-0.550297	0.102136
C28	C	0.970737	-0.449801	0.124861
C29	C	0.902821	-0.399562	0.192740
C30	C	0.857642	-0.449825	0.237896
C31	C	1.061404	-0.600531	0.034259
C32	C	1.106578	-0.550275	-0.010895
C33	C	1.083832	-0.449778	0.011825
C34	C	1.015915	-0.399538	0.079705
C35	C	1.129010	-0.399515	-0.033331
C36	C	1.106268	-0.299019	-0.010606
C37	C	0.993173	-0.299043	0.102429
C38	C	1.134114	-0.000057	0.107391
C39	C	1.226409	-0.000057	0.109006
C40	C	0.988220	-0.000061	-0.038505
C41	C	0.986605	-0.000062	-0.130800
N42	N	0.925873	0.248687	0.169726
C43	C	1.058610	-0.000051	-0.353070
C44	C	1.057085	-0.000043	-0.439789
C45	C	0.905595	-0.000037	-0.419913
C46	C	0.907120	-0.000038	-0.333195
C47	C	0.983631	-0.000050	-0.299777
C48	C	0.980580	-0.000041	-0.473214
C49	C	0.978925	-0.000032	-0.567238
C50	C	0.985286	-0.000057	-0.205747
C51	C	0.975993	-0.000037	0.265512
C52	C	0.977606	-0.000030	0.357809
H53	H	0.542738	-0.000037	0.252308
H54	H	0.802328	-0.408923	0.293165
H55	H	0.421470	-0.000071	-0.025301
O56	O	1.132910	0.000119	-0.320605
C57	C	1.244171	0.082810	-0.292401
C58	C	1.160019	0.082743	-0.329176
H59	H	1.266124	0.149594	-0.299335
H60	H	1.232420	0.082870	-0.221250
H61	H	1.296307	0.015966	-0.329453
H62	H	1.107843	0.149575	-0.292191
H63	H	1.171841	0.082632	-0.400336
O64	O	0.831301	0.000093	-0.452450
C65	C	0.722932	0.082833	-0.520077
C66	C	0.807082	0.082797	-0.483277
H67	H	0.703316	0.149702	-0.544994
H68	H	0.733517	0.016062	-0.575332
H69	H	0.669627	0.082789	-0.467086
H70	H	0.860428	0.082876	-0.536208
H71	H	0.796426	0.149563	-0.428002
O72	O	1.129860	0.000124	-0.491553
C73	C	1.197343	0.082812	-0.582324
C74	C	1.114870	0.082750	-0.523708
H75	H	1.185246	0.149597	-0.608352
H76	H	1.252302	0.082866	-0.543566
H77	H	1.215520	0.015969	-0.638501
H78	H	1.096614	0.149581	-0.467522
H79	H	1.059960	0.082645	-0.562527
O80	O	0.587054	-0.000015	-0.034389
C81	C	0.597638	-0.000082	-0.184822
C82	C	0.539047	-0.000101	-0.102317
H83	H	0.558853	-0.000172	-0.239767
H84	H	0.623609	0.066747	-0.172842
H85	H	0.653855	-0.066884	-0.202948
H86	H	0.482788	0.066656	-0.084146
H87	H	0.513144	-0.066974	-0.114341
H88	H	0.846058	-0.000035	-0.289800
H89	H	0.884307	-0.317732	0.211244
O90	O	0.927283	-0.250279	0.168471
C91	C	0.871531	-0.219565	0.319965
C92	C	0.946215	-0.274833	0.245260
H93	H	0.886803	-0.239412	0.382063
H94	H	0.863040	-0.139095	0.328521
H95	H	0.809425	-0.239322	0.304596
H96	H	1.008364	-0.255157	0.260572
H97	H	0.954630	-0.355290	0.236722
H98	H	1.026356	-0.741968	0.069300
O99	O	1.083368	-0.698153	0.012113
C100	C	1.037063	-0.842388	-0.037394
C101	C	1.012082	-0.731834	-0.012357
H102	H	0.979437	-0.869652	-0.057167
H103	H	1.093334	-0.869710	-0.093697
H104	H	1.056901	-0.869648	0.020214
H105	H	0.992202	-0.704492	-0.069909
H106	H	0.955840	-0.704577	0.043975
H107	H	0.779897	-0.559675	0.315595
H108	H	1.161882	-0.591186	-0.066163
O109	O	0.813956	-0.749749	0.281515
C110	C	0.699404	-0.739163	0.396053
C111	C	0.749156	-0.683925	0.346371
H112	H	0.647014	-0.685968	0.448511
H113	H	0.668470	-0.786191	0.349547
H114	H	0.745946	-0.786235	0.426919
H115	H	0.702670	-0.636801	0.315501
H116	H	0.780103	-0.636957	0.392915
O117	O	1.194942	-0.448465	-0.099266
C118	C	1.280143	-0.603276	-0.184324
C119	C	1.205443	-0.547962	-0.109648
H120	H	1.288669	-0.683728	-0.192730
H121	H	1.264879	-0.583600	-0.246491
H122	H	1.342228	-0.583438	-0.168992
H123	H	1.143328	-0.567770	-0.124897
H124	H	1.220781	-0.567642	-0.047504
H125	H	1.143054	-0.258100	-0.047375
H126	H	0.385423	-0.000045	0.249540
