data_functionalizedCrystal
_audit_creation_method	'MofGen! by Chris Wilmer'
_symmetry_space_group_name_H-M	'P1'
_symmetry_Int_Tables_number	1
_symmetry_cell_setting	triclinic
loop_
_symmetry_equiv_pos_as_xyz
  x,y,z
_cell_length_a	16.974867
_cell_length_b	26.809956
_cell_length_c	16.992695
_cell_angle_alpha	90.004417
_cell_angle_beta	87.022690
_cell_angle_gamma	93.642328
loop_
_atom_site_label
_atom_site_type_symbol
_atom_site_fract_x
_atom_site_fract_y
_atom_site_fract_z
O1	O	-1.055447	-0.001076	-0.099893
O2	O	-0.826049	0.008175	-0.112627
O3	O	-0.939829	0.003583	0.007882
O4	O	-0.941668	0.003516	-0.220401
O5	O	-0.939807	-0.079376	0.007864
O6	O	-0.826028	-0.074784	-0.112645
O7	O	-1.055426	-0.084034	-0.099911
Zn8	Zn	-0.940723	-0.092580	-0.106281
Zn9	Zn	-0.940752	0.016721	-0.106257
O10	O	-0.941646	-0.079442	-0.220420
C11	C	-0.796550	-0.032115	-0.112152
C12	C	-0.708683	-0.028572	-0.110702
C13	C	-0.214090	-0.003740	-0.102514
C14	C	-0.296650	-0.007076	-0.103876
C15	C	-0.337910	-0.053965	-0.104573
C16	C	-0.296606	-0.097521	-0.103900
C17	C	-0.214047	-0.094184	-0.102532
C18	C	-0.584821	-0.068792	-0.108661
C19	C	-0.667385	-0.072125	-0.110031
C20	C	-0.667423	0.018320	-0.110006
C21	C	-0.584863	0.021653	-0.108643
C22	C	-0.543567	-0.021903	-0.107966
N23	N	-0.422299	-0.057376	-0.105969
N24	N	-0.459179	-0.018492	-0.106565
N25	N	-0.940709	-0.167176	-0.106297
C26	C	-0.991127	-0.513837	-0.052909
C27	C	-0.991145	-0.722715	-0.052897
O28	O	-1.033981	-0.751448	-0.007509
N29	N	-0.940755	-0.746805	-0.106239
C30	C	-0.890353	-0.718671	-0.159585
O31	O	-0.847488	-0.743954	-0.204951
C32	C	-0.890332	-0.509794	-0.159593
C33	C	-0.940731	-0.485707	-0.106252
C34	C	-1.041522	-0.489750	0.000428
C35	C	-1.041520	-0.437534	0.000422
C36	C	-0.991123	-0.409404	-0.052921
C37	C	-0.940729	-0.433491	-0.106259
C38	C	-0.839926	-0.481661	-0.212935
C39	C	-0.839924	-0.429438	-0.212930
C40	C	-0.890323	-0.405352	-0.159590
C41	C	-0.890331	-0.353145	-0.159608
N42	N	-0.940721	-0.329055	-0.106266
C43	C	-0.991117	-0.357185	-0.052922
C44	C	-0.890369	-0.828335	-0.159579
C45	C	-0.890375	-0.880554	-0.159578
C46	C	-0.991167	-0.884595	-0.052888
C47	C	-0.991164	-0.832375	-0.052893
C48	C	-0.940759	-0.804246	-0.106236
C49	C	-0.991110	-0.247526	-0.052940
C50	C	-0.991106	-0.195305	-0.052953
C51	C	-0.890312	-0.191270	-0.159640
C52	C	-0.890319	-0.243486	-0.159630
C53	C	-0.940720	-0.271614	-0.106273
O54	O	-0.847511	-0.324381	-0.204967
O55	O	-1.033964	-0.331893	-0.007552
C56	C	-0.991129	-0.566053	-0.052902
C57	C	-0.940735	-0.590140	-0.106239
C58	C	-0.890338	-0.562010	-0.159583
C59	C	-0.940741	-0.642359	-0.106239
C60	C	-0.991137	-0.670489	-0.052895
C61	C	-1.041528	-0.646399	0.000448
C62	C	-1.041526	-0.594183	0.000441
C63	C	-0.839948	-0.586100	-0.212926
C64	C	-0.839955	-0.638317	-0.212915
C65	C	-0.890351	-0.666446	-0.159572
C66	C	-0.084925	-0.043745	-0.100387
C67	C	-0.172791	-0.047293	-0.101843
C68	C	-0.937452	-0.037801	0.037083
C69	C	-0.930392	-0.037516	0.124119
N70	N	-0.940772	0.091316	-0.106234
C71	C	-0.944023	-0.038057	-0.249620
C72	C	-0.951083	-0.038339	-0.336657
C73	C	-0.998507	-0.040264	0.174435
C74	C	-0.991869	-0.039991	0.256214
C75	C	-0.917116	-0.036975	0.287676
C76	C	-0.848997	-0.034226	0.237354
C77	C	-0.855635	-0.034495	0.155576
C78	C	-0.889602	-0.035859	0.531244
C79	C	-0.882968	-0.035592	0.613028
C80	C	-1.025841	-0.041356	0.631882
C81	C	-1.032473	-0.041627	0.550102
C82	C	-0.964354	-0.038876	0.499787
N83	N	-0.910329	-0.036698	0.371267
N84	N	-0.971141	-0.039149	0.416197
H85	H	-0.701056	0.053781	-0.110557
H86	H	-1.032203	-0.812767	-0.009458
H87	H	-0.798886	-0.501265	-0.256369
C88	C	-1.046548	-0.168813	0.005731
N89	N	-1.088304	-0.148861	0.049933
H90	H	-0.700976	-0.110310	-0.110604
H91	H	-1.059378	-0.042723	0.148825
H92	H	-0.822093	-0.033143	0.638640
H93	H	-1.032203	-0.907507	-0.009455
H94	H	-0.551208	-0.104258	-0.108098
H95	H	-0.798876	-0.406538	-0.256368
H96	H	-0.798908	-0.563201	-0.256363
C97	C	-1.096962	-0.677352	0.059127
N98	N	-1.138709	-0.700667	0.103326
H99	H	-0.551275	0.059835	-0.108075
C100	C	-1.066801	-0.043022	0.311558
N101	N	-1.123243	-0.045307	0.353244
C102	C	-1.114707	-0.044946	0.515501
N103	N	-1.176647	-0.047447	0.489439
H104	H	-0.798916	-0.657924	-0.256359
C105	C	-0.168712	0.047842	-0.101746
N106	N	-0.134535	0.086695	-0.101164
C107	C	-0.168619	-0.142096	-0.101797
N108	N	-0.134404	-0.178184	-0.101242
C109	C	-0.834882	-0.269982	-0.218312
N110	N	-0.793121	-0.289936	-0.262507
H111	H	-0.330206	-0.135699	-0.104463
H112	H	-0.788131	-0.031767	0.262977
C113	C	-1.046556	-0.278459	0.005753
N114	N	-1.088322	-0.301757	0.049957
C115	C	-0.780704	-0.031474	0.100229
N116	N	-0.724263	-0.029197	0.058542
H117	H	-1.082560	-0.512649	0.043871
C118	C	-0.342075	0.040836	-0.104604
N119	N	-0.376289	0.076925	-0.105148
C120	C	-0.834876	-0.160317	-0.218313
N121	N	-0.793116	-0.137002	-0.262501
H122	H	-1.082557	-0.417925	0.043859
C123	C	-0.834938	-0.907044	-0.218262
N124	N	-0.793176	-0.926994	-0.262462
H125	H	-0.849322	-0.805436	-0.203019
H126	H	-1.082565	-0.574575	0.043876
H127	H	-1.081300	-0.043595	0.672857
H128	H	-0.834134	-0.033618	0.490286
