data_functionalizedCrystal
_audit_creation_method	'MofGen! by Chris Wilmer'
_symmetry_space_group_name_H-M	'P1'
_symmetry_Int_Tables_number	1
_symmetry_cell_setting	triclinic
loop_
_symmetry_equiv_pos_as_xyz
  x,y,z
_cell_length_a	8.497374
_cell_length_b	17.077404
_cell_length_c	17.077402
_cell_angle_alpha	89.979147
_cell_angle_beta	89.987778
_cell_angle_gamma	90.002323
loop_
_atom_site_label
_atom_site_type_symbol
_atom_site_fract_x
_atom_site_fract_y
_atom_site_fract_z
Zn1	Zn	0.891940	1.199930	0.312687
Zn2	Zn	1.391940	1.699930	0.812687
Zn3	Zn	0.628125	1.199874	0.443921
Zn4	Zn	1.128125	1.699874	0.943921
Zn5	Zn	0.628165	1.068699	0.312669
Zn6	Zn	1.128165	1.568699	0.812669
Zn7	Zn	0.891854	1.068630	0.443910
Zn8	Zn	1.391854	1.568630	0.943910
O9	O	0.760021	1.134283	0.378297
O10	O	1.260021	1.634283	0.878297
O11	O	0.856964	1.309770	0.330108
O12	O	1.356964	1.809770	0.830108
O13	O	0.407368	1.182479	0.426508
O14	O	0.907368	1.682479	0.926508
O15	O	0.663207	1.086159	0.202824
O16	O	1.163207	1.586159	0.702824
O17	O	0.663140	1.309729	0.426525
O18	O	1.163140	1.809729	0.926525
O19	O	0.857002	1.182574	0.202837
O20	O	1.357002	1.682574	0.702837
O21	O	0.407397	1.086105	0.330077
O22	O	0.907397	1.586105	0.830077
O23	O	0.663124	0.958843	0.330066
O24	O	1.163124	1.458843	0.830066
O25	O	1.112628	1.086042	0.426505
O26	O	1.612628	1.586042	0.926505
O27	O	0.856855	0.958792	0.426488
O28	O	1.356855	1.458792	0.926488
O29	O	1.112691	1.182508	0.330096
O30	O	1.612691	1.682508	0.830096
O31	O	0.663057	1.182412	0.553767
O32	O	1.163057	1.682412	1.053767
O33	O	0.856817	1.085988	0.553758
O34	O	1.356817	1.585988	1.053758
C35	C	0.759986	0.930336	0.378274
C36	C	1.259986	1.430336	0.878274
C37	C	0.760008	0.843086	0.378284
C38	C	1.260008	1.343086	0.878284
C39	C	0.861086	0.802118	0.328169
C40	C	1.361086	1.302118	0.828169
C41	C	0.861093	0.720137	0.328174
C42	C	1.361093	1.220137	0.828174
C43	C	0.760029	0.679126	0.378298
C44	C	1.260029	1.179126	0.878298
C45	C	0.658940	0.720100	0.428416
C46	C	1.158940	1.220100	0.928416
C47	C	0.658926	0.802079	0.428406
C48	C	1.158926	1.302079	0.928406
C49	C	0.658979	0.549230	0.428434
C50	C	1.158979	1.049230	0.928434
C51	C	0.658995	0.467245	0.428445
C52	C	1.158995	0.967245	0.928445
C53	C	0.861146	0.467288	0.328201
C54	C	1.361146	0.967288	0.828201
C55	C	0.861132	0.549267	0.328191
C56	C	1.361132	1.049267	0.828191
C57	C	0.760045	0.590235	0.378310
C58	C	1.260045	1.090235	0.878310
C59	C	0.759958	1.134208	0.582245
C60	C	1.259958	1.634208	1.082245
C61	C	0.759984	1.134247	0.669494
C62	C	1.259984	1.634247	1.169494
C63	C	1.171501	1.134278	0.378298
C64	C	1.671501	1.634278	0.878298
C65	C	1.350145	1.134279	0.378306
C66	C	1.850145	1.634279	0.878306
C67	C	0.760057	1.339028	0.378320
C68	C	1.260057	1.839028	0.878320
C69	C	0.760073	1.426277	0.378329
C70	C	1.260073	1.926277	0.878329
C71	C	0.760119	1.134381	0.173552
C72	C	1.260119	1.634381	0.673552
C73	C	0.760160	1.134422	0.086303
C74	C	1.260160	1.634422	0.586303
C75	C	0.659201	1.184506	0.710463
C76	C	1.159201	1.684506	1.210463
C77	C	0.659241	1.184545	0.792443
C78	C	1.159241	1.684545	1.292443
C79	C	0.760057	1.134319	0.833454
C80	C	1.260057	1.634319	1.333454
C81	C	0.860851	1.084058	0.792480
C82	C	1.360851	1.584058	1.292480
C83	C	0.860818	1.084024	0.710501
C84	C	1.360818	1.584024	1.210501
C85	C	0.860911	1.084130	0.963350
C86	C	1.360911	1.584130	1.463350
C87	C	0.860943	1.084163	1.045334
C88	C	1.360943	1.584163	1.545334
C89	C	0.659335	1.184651	1.045292
C90	C	1.159335	1.684651	1.545292
C91	C	0.659301	1.184618	0.963313
C92	C	1.159301	1.684618	1.463313
C93	C	0.760093	1.134355	0.922345
C94	C	1.260093	1.634355	1.422345
H95	H	0.943436	0.582656	0.287380
H96	H	1.443436	1.082656	0.787380
Cl97	Cl	0.988223	0.415786	0.265193
Cl98	Cl	1.488223	0.915786	0.765193
H99	H	0.576659	0.582584	0.469244
H100	H	1.076659	1.082584	0.969244
H101	H	0.943388	0.835503	0.287353
H102	H	1.443388	1.335503	0.787353
H103	H	0.576701	0.433856	0.469261
H104	H	1.076701	0.933856	0.969261
Cl105	Cl	0.531879	0.668543	0.491426
Cl106	Cl	1.031879	1.168543	0.991426
Cl107	Cl	0.531852	0.853582	0.491412
Cl108	Cl	1.031852	1.353582	0.991412
Cl109	Cl	0.987527	1.020840	0.658997
Cl110	Cl	1.487527	1.520840	1.158997
Cl111	Cl	0.532443	1.247646	0.658915
Cl112	Cl	1.032443	1.747646	1.158915
H113	H	0.942944	1.043166	0.825877
H114	H	1.442944	1.543166	1.325877
H115	H	0.943404	0.686785	0.287366
H116	H	1.443404	1.186785	0.787366
H117	H	0.577173	1.225471	0.825796
H118	H	1.077173	1.725471	1.325796
H119	H	0.577202	1.225511	0.929923
H120	H	1.077202	1.725511	1.429923
H121	H	0.577271	1.225580	1.078653
H122	H	1.077271	1.725580	1.578653
Cl123	Cl	0.987668	1.021012	1.096889
Cl124	Cl	1.487668	1.521012	1.596889
Cl125	Cl	0.987626	1.020943	0.911847
Cl126	Cl	1.487626	1.520943	1.411847
