data_functionalizedCrystal
_audit_creation_method	'MofGen! by Chris Wilmer'
_symmetry_space_group_name_H-M	'P1'
_symmetry_Int_Tables_number	1
_symmetry_cell_setting	triclinic
loop_
_symmetry_equiv_pos_as_xyz
  x,y,z
_cell_length_a	10.686220
_cell_length_b	16.120484
_cell_length_c	10.686551
_cell_angle_alpha	88.707809
_cell_angle_beta	90.308082
_cell_angle_gamma	97.070967
loop_
_atom_site_label
_atom_site_type_symbol
_atom_site_fract_x
_atom_site_fract_y
_atom_site_fract_z
Zn1	Zn	1.957921	-0.203137	-0.579045
Zn2	Zn	2.457921	0.296863	-0.079045
Zn3	Zn	1.931025	-0.353948	-0.381655
Zn4	Zn	2.431025	0.146052	0.118345
Zn5	Zn	1.730532	-0.224452	-0.387111
Zn6	Zn	2.230532	0.275548	0.112889
Zn7	Zn	1.737575	-0.352260	-0.607294
Zn8	Zn	2.237575	0.147740	-0.107294
O9	O	1.839263	-0.283449	-0.488776
O10	O	2.339263	0.216551	0.011224
O11	O	2.130476	-0.214929	-0.538756
O12	O	2.630476	0.285071	-0.038756
O13	O	1.890226	-0.346397	-0.207623
O14	O	2.390226	0.153603	0.292377
O15	O	1.769004	-0.105021	-0.403033
O16	O	2.269004	0.394979	0.096967
O17	O	2.110716	-0.325729	-0.393734
O18	O	2.610716	0.174271	0.106266
O19	O	1.936065	-0.089361	-0.544046
O20	O	2.436065	0.410639	-0.044046
O21	O	1.742924	-0.251257	-0.211631
O22	O	2.242924	0.248743	0.288369
O23	O	1.555343	-0.249619	-0.430424
O24	O	2.055343	0.250381	0.069576
O25	O	1.781008	-0.322851	-0.778303
O26	O	2.281008	0.177149	-0.278303
O27	O	1.560518	-0.343519	-0.592192
O28	O	2.060518	0.156481	-0.092192
O29	O	1.942895	-0.213292	-0.757549
O30	O	2.442895	0.286708	-0.257549
O31	O	1.897056	-0.470327	-0.421125
O32	O	2.397056	0.029673	0.078875
O33	O	1.754928	-0.469087	-0.586902
O34	O	2.254928	0.030913	-0.086902
C35	C	1.512264	-0.298700	-0.514966
C36	C	2.012264	0.201300	-0.014966
C37	C	1.372373	-0.305242	-0.526202
C38	C	1.872373	0.194758	-0.026202
C39	C	1.823874	-0.499938	-0.506511
C40	C	2.323874	0.000062	-0.006511
C41	C	1.817409	-0.592545	-0.514131
C42	C	2.317409	-0.092545	-0.014131
C43	C	1.805615	-0.762098	-0.528067
C44	C	2.305615	-0.262098	-0.028067
C45	C	1.873138	-0.803948	-0.449488
C46	C	2.373138	-0.303948	0.050512
C47	C	1.866576	-0.898293	-0.457242
C48	C	2.366576	-0.398293	0.042758
C49	C	1.812176	-0.667744	-0.520315
C50	C	2.312176	-0.167744	-0.020315
C51	C	2.167539	-0.268140	-0.462485
C52	C	2.667539	0.231860	0.037515
C53	C	2.307431	-0.261616	-0.451281
C54	C	2.807431	0.238384	0.048719
C55	C	1.865737	-0.265505	-0.814505
C56	C	2.365737	0.234495	-0.314505
C57	C	1.877019	-0.257859	-0.953311
C58	C	2.377019	0.242141	-0.453311
C59	C	1.854749	-0.066112	-0.470997
C60	C	2.354749	0.433888	0.029003
C61	C	1.861348	0.026504	-0.463420
C62	C	2.361348	0.526504	0.036580
C63	C	1.812969	-0.301259	-0.164304
C64	C	2.312969	0.198741	0.335696
C65	C	1.801948	-0.308660	-0.025460
C66	C	2.301948	0.191340	0.474540
H67	H	1.358852	-0.219261	-0.378542
H68	H	1.858852	0.280739	0.121458
H69	H	1.729049	-0.358005	-0.981039
H70	H	2.229049	0.141995	-0.481039
C71	C	1.951631	-0.111701	-0.977247
C72	C	2.451631	0.388299	-0.477247
C73	C	1.975446	-0.191240	-1.013268
C74	C	2.475446	0.308760	-0.513268
H75	H	2.012401	-0.070576	-1.014256
H76	H	2.512401	0.429424	-0.514256
H77	H	1.869661	-0.102295	-1.004351
H78	H	2.369661	0.397705	-0.504351
H79	H	1.956702	-0.108287	-0.888702
H80	H	2.456702	0.391713	-0.388702
H81	H	1.970366	-0.194657	-1.101812
H82	H	2.470366	0.305343	-0.601812
H83	H	2.057436	-0.200649	-0.986170
H84	H	2.557436	0.299351	-0.486170
C85	C	1.173165	-0.358063	-0.616904
C86	C	1.673165	0.141937	-0.116904
C87	C	1.302960	-0.362428	-0.624404
C88	C	1.802960	0.137572	-0.124404
H89	H	1.130316	-0.393362	-0.677535
H90	H	1.630316	0.106638	-0.177535
H91	H	1.143994	-0.375792	-0.535675
H92	H	1.643994	0.124208	-0.035675
H93	H	1.157161	-0.302073	-0.632436
H94	H	1.657161	0.197927	-0.132436
H95	H	1.318966	-0.418417	-0.608862
H96	H	1.818966	0.081583	-0.108862
H97	H	1.332141	-0.344703	-0.705651
H98	H	1.832141	0.155297	-0.205651
H99	H	1.935874	-0.768923	-0.376390
H100	H	2.435874	-0.268923	0.123610
C101	C	1.730724	-0.895040	-0.615397
C102	C	2.230724	-0.395040	-0.115397
C103	C	1.720913	-0.809376	-0.626731
C104	C	2.220913	-0.309376	-0.126731
H105	H	1.678423	-0.924234	-0.676300
H106	H	2.178423	-0.424234	-0.176300
H107	H	1.815788	-0.904232	-0.628124
H108	H	2.315788	-0.404232	-0.128124
H109	H	1.704592	-0.914753	-0.534081
H110	H	2.204592	-0.414753	-0.034081
H111	H	1.747053	-0.789661	-0.708044
H112	H	2.247053	-0.289661	-0.208044
H113	H	1.635831	-0.800178	-0.614014
H114	H	2.135831	-0.300178	-0.114014
