data_functionalizedCrystal
_audit_creation_method	'MofGen! by Chris Wilmer'
_symmetry_space_group_name_H-M	'P1'
_symmetry_Int_Tables_number	1
_symmetry_cell_setting	triclinic
loop_
_symmetry_equiv_pos_as_xyz
  x,y,z
_cell_length_a	6.817900
_cell_length_b	17.078472
_cell_length_c	14.858572
_cell_angle_alpha	96.030459
_cell_angle_beta	104.524003
_cell_angle_gamma	99.306020
loop_
_atom_site_label
_atom_site_type_symbol
_atom_site_fract_x
_atom_site_fract_y
_atom_site_fract_z
V1	V	-4.017389	-0.110266	-0.289866
O2	O	-4.026521	0.004785	-0.284445
O3	O	-3.948350	-0.218146	-0.287791
O4	O	-3.974308	-0.108796	-0.416329
O5	O	-4.000383	-0.105322	-0.155017
V6	V	-4.503002	-0.096478	-0.273749
O7	O	-4.274063	-0.140512	-0.325222
O8	O	-4.696526	-0.066233	-0.238393
O9	O	-4.348835	0.011401	-0.275823
O10	O	-4.611268	-0.211530	-0.279170
O11	O	-4.637405	-0.101423	-0.408598
O12	O	-4.322877	-0.097949	-0.147286
C13	C	-3.788158	-0.244437	-0.283195
C14	C	-3.813033	-0.332631	-0.282341
C15	C	-4.006243	-0.378114	-0.286576
C16	C	-4.029607	-0.460982	-0.285779
C17	C	-3.859754	-0.498365	-0.280742
C18	C	-3.666530	-0.452877	-0.276510
C19	C	-3.643172	-0.370011	-0.277313
C20	C	-3.910149	-0.745764	-0.277848
C21	C	-3.933521	-0.828636	-0.277043
C22	C	-4.296598	-0.836735	-0.286314
C23	C	-4.273220	-0.753867	-0.287111
C24	C	-4.080001	-0.708387	-0.282884
N25	N	-3.883630	-0.583069	-0.279924
N26	N	-4.056132	-0.623685	-0.283708
C27	C	-3.821269	-0.104950	-0.447156
C28	C	-3.867193	-0.104461	-0.550540
C29	C	-4.035274	-0.102675	-0.929109
C30	C	-3.988500	-0.103172	-0.823780
C31	C	-3.951235	-0.103569	-0.739828
C32	C	-3.904458	-0.104064	-0.634491
C33	C	-4.172368	0.037688	-0.280417
C34	C	-4.126731	0.125882	-0.281277
C35	C	-4.139257	-0.101798	-0.116454
C36	C	-4.072573	-0.102282	-0.013069
H37	H	-4.453910	-0.873774	-0.289755
H38	H	-3.528238	-0.483322	-0.272414
C39	C	-3.749343	-0.869347	-0.271727
C40	C	-3.791316	-0.927533	-0.351353
C41	C	-3.621720	-0.965058	-0.346480
H42	H	-3.630809	-0.830485	-0.269370
H43	H	-3.724383	-0.894209	-0.216769
H44	H	-3.816250	-0.902672	-0.406296
H45	H	-3.909820	-0.966412	-0.353726
H46	H	-3.596760	-0.989920	-0.291522
H47	H	-3.503197	-0.926190	-0.344121
H48	H	-3.650183	-1.004547	-0.400500
C49	C	-4.190491	-0.337459	-0.291849
C50	C	-4.148576	-0.279306	-0.212197
C51	C	-4.318273	-0.241849	-0.217019
H52	H	-4.215596	-0.312574	-0.346774
H53	H	-4.308936	-0.376387	-0.294209
H54	H	-4.030167	-0.240384	-0.209846
H55	H	-4.123495	-0.304171	-0.157261
H56	H	-4.436718	-0.280776	-0.219379
H57	H	-4.343365	-0.216968	-0.271946
H58	H	-4.289865	-0.202393	-0.162973
C59	C	-4.239188	-0.510428	-0.290198
C60	C	-4.224019	-0.547412	-0.209639
C61	C	-4.417045	-0.592971	-0.213675
H62	H	-4.337145	-0.476375	-0.293256
H63	H	-4.282446	-0.550313	-0.344523
H64	H	-4.180789	-0.507533	-0.155329
H65	H	-4.126101	-0.581479	-0.206566
H66	H	-4.460302	-0.632855	-0.267999
H67	H	-4.514986	-0.558912	-0.216734
H68	H	-4.406774	-0.618076	-0.159021
H69	H	-4.411539	-0.723436	-0.291220
H70	H	-3.752820	-0.708743	-0.274401
H71	H	-3.485844	-0.332980	-0.273869
