data_functionalizedCrystal
_audit_creation_method	'MofGen! by Chris Wilmer'
_symmetry_space_group_name_H-M	'P1'
_symmetry_Int_Tables_number	1
_symmetry_cell_setting	triclinic
loop_
_symmetry_equiv_pos_as_xyz
  x,y,z
_cell_length_a	14.044220
_cell_length_b	12.503572
_cell_length_c	17.699083
_cell_angle_alpha	86.484775
_cell_angle_beta	88.235946
_cell_angle_gamma	93.835250
loop_
_atom_site_label
_atom_site_type_symbol
_atom_site_fract_x
_atom_site_fract_y
_atom_site_fract_z
O1	O	1.262755	0.089210	0.178438
O2	O	1.762755	0.589210	0.678438
O3	O	0.986803	0.089237	0.171853
O4	O	1.486803	0.589237	0.671853
O5	O	1.132575	0.089213	0.065494
O6	O	1.632575	0.589213	0.565494
O7	O	1.116983	0.089234	0.284796
O8	O	1.616983	0.589234	0.784796
O9	O	1.121612	-0.089427	0.073508
O10	O	1.621612	0.410573	0.573508
O11	O	0.975840	-0.089403	0.179866
O12	O	1.475840	0.410597	0.679866
O13	O	1.251792	-0.089430	0.186451
O14	O	1.751792	0.410570	0.686451
Cu15	Cu	1.112815	-0.105728	0.183890
Cu16	Cu	1.612815	0.394272	0.683890
Cu17	Cu	1.125780	0.105535	0.174414
Cu18	Cu	1.625780	0.605535	0.674414
O19	O	1.106020	-0.089406	0.292809
O20	O	1.606020	0.410594	0.792809
C21	C	0.946013	-0.000080	0.172978
C22	C	1.446013	0.499920	0.672978
C23	C	0.840808	-0.000070	0.164381
C24	C	1.340808	0.499930	0.664381
N25	N	1.103703	-0.254319	0.190556
N26	N	1.603703	0.245681	0.690556
C27	C	0.648182	-0.000092	0.148667
C28	C	1.148182	0.499908	0.648667
C29	C	0.590408	-0.000091	0.209633
C30	C	1.090408	0.499909	0.709633
C31	C	0.483224	-0.000104	0.200889
C32	C	0.983224	0.499896	0.700889
C33	C	0.755376	-0.000080	0.157410
C34	C	1.255376	0.499920	0.657410
C35	C	1.090299	-0.473432	0.200367
C36	C	1.590299	0.026568	0.700367
C37	C	1.148300	-0.526768	0.157934
C38	C	1.648300	-0.026768	0.657934
C39	C	1.140842	-0.648690	0.163393
C40	C	1.640842	-0.148690	0.663393
C41	C	1.097756	-0.351499	0.194909
C42	C	1.597756	0.148501	0.694909
C43	C	1.292581	-0.000111	0.185326
C44	C	1.792581	0.499889	0.685326
C45	C	1.397787	-0.000114	0.193922
C46	C	1.897787	0.499886	0.693922
C47	C	1.126534	-0.000107	0.041265
C48	C	1.626534	0.499893	0.541265
C49	C	1.124858	-0.000107	-0.042868
C50	C	1.624858	0.499893	0.457132
N51	N	1.134899	0.254126	0.167743
N52	N	1.634899	0.754126	0.667743
C53	C	1.210423	-0.000117	-0.085586
C54	C	1.710423	0.499883	0.414414
C55	C	1.208843	-0.000107	-0.164639
C56	C	1.708843	0.499893	0.335361
C57	C	1.121697	-0.000095	-0.200972
C58	C	1.621697	0.499905	0.299028
C59	C	1.036125	-0.000082	-0.158248
C60	C	1.536125	0.499918	0.341752
C61	C	1.037706	-0.000084	-0.079197
C62	C	1.537706	0.499916	0.420803
C63	C	1.029745	-0.000073	-0.477052
C64	C	1.529745	0.499927	0.022948
C65	C	1.028170	-0.000074	-0.556109
C66	C	1.528170	0.499926	-0.056109
C67	C	1.200882	-0.000096	-0.562494
C68	C	1.700882	0.499904	-0.062494
C69	C	1.202464	-0.000098	-0.483443
C70	C	1.702464	0.499902	0.016557
C71	C	1.116893	-0.000079	-0.440726
C72	C	1.616893	0.499921	0.059274
C73	C	1.118607	-0.000088	-0.355008
C74	C	1.618607	0.499912	0.144992
C75	C	1.119981	-0.000095	-0.286688
C76	C	1.619981	0.499905	0.213312
C77	C	1.112060	-0.000084	0.317038
C78	C	1.612060	0.499916	0.817038
C79	C	1.113737	-0.000076	0.401172
C80	C	1.613737	0.499924	0.901172
H81	H	0.621444	-0.000081	0.268394
H82	H	1.121444	0.499919	0.768394
Br83	Br	0.917854	-0.000048	-0.207557
Br84	Br	1.417854	0.499952	0.292443
Br85	Br	0.596455	-0.000107	0.050733
Br86	Br	1.096455	0.499893	0.550733
H87	H	0.968030	-0.000076	-0.044417
H88	H	1.468030	0.499924	0.455583
Br89	Br	0.998204	-0.549934	0.267748
Br90	Br	1.498204	-0.049934	0.767748
Br91	Br	1.240801	-0.450266	0.090897
Br92	Br	1.740801	0.049734	0.590897
Br93	Br	1.328700	-0.000149	-0.036284
Br94	Br	1.828700	0.499851	0.463716
H95	H	1.278519	-0.000118	-0.199417
H96	H	1.778519	0.499882	0.300583
Br97	Br	1.320738	-0.000113	-0.434137
Br98	Br	1.820738	0.499887	0.065863
Br99	Br	1.317017	-0.000121	-0.620470
Br100	Br	1.817017	0.499879	-0.120470
H101	H	0.957201	-0.000067	-0.585688
H102	H	1.457201	0.499933	-0.085688
Br103	Br	0.913614	-0.000041	-0.419090
Br104	Br	1.413614	0.499959	0.080910
