data_functionalizedCrystal
_audit_creation_method	'MofGen! by Chris Wilmer'
_symmetry_space_group_name_H-M	'P1'
_symmetry_Int_Tables_number	1
_symmetry_cell_setting	triclinic
loop_
_symmetry_equiv_pos_as_xyz
  x,y,z
_cell_length_a	14.853567
_cell_length_b	18.366186
_cell_length_c	19.288865
_cell_angle_alpha	89.987206
_cell_angle_beta	96.614411
_cell_angle_gamma	89.996097
loop_
_atom_site_label
_atom_site_type_symbol
_atom_site_fract_x
_atom_site_fract_y
_atom_site_fract_z
O1	O	1.195841	0.060508	-0.090688
O2	O	1.695841	0.560508	0.409312
O3	O	0.933321	0.060522	-0.101490
O4	O	1.433321	0.560522	0.398510
O5	O	1.072167	0.060500	0.005016
O6	O	1.572167	0.560500	0.505016
O7	O	1.056995	0.060530	-0.197194
O8	O	1.556995	0.560530	0.302806
O9	O	1.072170	-0.060599	0.005026
O10	O	1.572170	0.439401	0.505026
O11	O	0.933324	-0.060578	-0.101480
O12	O	1.433324	0.439422	0.398520
O13	O	1.195845	-0.060591	-0.090677
O14	O	1.695845	0.439409	0.409323
Zn15	Zn	1.064585	-0.079812	-0.096077
Zn16	Zn	1.564585	0.420188	0.403923
Zn17	Zn	1.064580	0.079742	-0.096091
Zn18	Zn	1.564580	0.579742	0.403909
O19	O	1.056999	-0.060570	-0.197183
O20	O	1.556999	0.439430	0.302817
C21	C	0.899736	-0.000027	-0.100996
C22	C	1.399736	0.499973	0.399004
C23	C	0.799661	-0.000022	-0.099529
C24	C	1.299661	0.499978	0.400471
N25	N	1.064578	0.188633	-0.096095
N26	N	1.564578	0.688633	0.403905
C27	C	1.071680	-0.000052	0.030899
C28	C	1.571680	0.499948	0.530899
C29	C	1.070215	-0.000058	0.108008
C30	C	1.570215	0.499942	0.608008
C31	C	0.387522	-0.000048	-0.030061
C32	C	0.887522	0.499952	0.469939
C33	C	0.365522	-0.000029	-0.156593
C34	C	0.865522	0.499971	0.343407
C35	C	0.459548	-0.000027	-0.157972
C36	C	0.959548	0.499973	0.342028
C37	C	0.517565	-0.000034	-0.095395
C38	C	1.017565	0.499966	0.404605
C39	C	0.481557	-0.000044	-0.031439
C40	C	0.981557	0.499956	0.468561
C41	C	0.495563	-0.000009	-0.221927
C42	C	0.995563	0.499991	0.278073
C43	C	0.589594	-0.000006	-0.223309
C44	C	1.089594	0.499994	0.276691
C45	C	0.647614	-0.000019	-0.160731
C46	C	1.147614	0.499981	0.339269
C47	C	0.611600	-0.000029	-0.096772
C48	C	1.111600	0.499971	0.403228
C49	C	0.669618	-0.000037	-0.034195
C50	C	1.169618	0.499963	0.465805
C51	C	0.633606	-0.000052	0.029764
C52	C	1.133606	0.499948	0.529764
C53	C	0.539577	-0.000056	0.031139
C54	C	1.039577	0.499944	0.531139
C55	C	0.741643	-0.000015	-0.162106
C56	C	1.241643	0.499985	0.337894
C57	C	0.763653	-0.000032	-0.035572
C58	C	1.263653	0.499968	0.464428
C59	C	1.229429	-0.000041	-0.091172
C60	C	1.729429	0.499959	0.408828
C61	C	1.329504	-0.000041	-0.092639
C62	C	1.829504	0.499959	0.407361
N63	N	1.064594	-0.188703	-0.096067
N64	N	1.564594	0.311297	0.403933
C65	C	1.126168	0.226724	-0.049026
C66	C	1.626168	0.726724	0.450974
C67	C	1.126176	0.302952	-0.049025
C68	C	1.626176	0.802952	0.450975
C69	C	1.064578	0.341086	-0.096085
C70	C	1.564578	0.841086	0.403915
C71	C	1.002983	0.302986	-0.143163
C72	C	1.502983	0.802986	0.356837
C73	C	1.002983	0.226759	-0.143167
C74	C	1.502983	0.726759	0.356833
C75	C	0.982436	0.461858	-0.104953
C76	C	1.482436	0.961858	0.395047
C77	C	0.982435	0.538083	-0.104943
C78	C	1.482435	1.038083	0.395057
C79	C	1.064579	0.576193	-0.096075
C80	C	1.564579	1.076193	0.403925
C81	C	1.146728	0.538069	-0.087201
C82	C	1.646728	1.038069	0.412799
C83	C	1.146728	0.461843	-0.087206
C84	C	1.646728	0.961843	0.412794
C85	C	1.064572	0.423741	-0.096086
C86	C	1.564572	0.923741	0.403914
C87	C	1.126183	0.696939	-0.049002
C88	C	1.626183	1.196939	0.450998
C89	C	1.126192	0.773168	-0.049006
C90	C	1.626192	1.273168	0.450994
C91	C	1.002991	0.773201	-0.143140
C92	C	1.502991	1.273201	0.356860
C93	C	1.002990	0.696973	-0.143140
C94	C	1.502990	1.196973	0.356860
C95	C	1.064585	0.658847	-0.096067
C96	C	1.564585	1.158847	0.403933
C97	C	1.057485	-0.000016	-0.223067
C98	C	1.557485	0.499984	0.276933
C99	C	1.058951	-0.000005	-0.300175
C100	C	1.558951	0.499995	0.199825
C101	C	1.151683	-0.000066	0.152429
C102	C	1.651683	0.499934	0.652429
C103	C	1.150307	-0.000054	0.224881
C104	C	1.650307	0.499946	0.724881
C105	C	1.067457	-0.000050	0.252908
C106	C	1.567457	0.499950	0.752908
C107	C	0.985977	-0.000038	0.208477
C108	C	1.485977	0.499962	0.708477
C109	C	0.987356	-0.000042	0.136027
C110	C	1.487356	0.499958	0.636027
C111	C	1.002328	-0.042465	0.361419
C112	C	1.502328	0.457535	0.861419
C113	C	1.000953	-0.042465	0.433868
C114	C	1.500953	0.457535	0.933868
C115	C	1.063200	-0.000033	0.476368
C116	C	1.563200	0.499967	0.976368
C117	C	1.126838	0.042390	0.446411
C118	C	1.626838	0.542390	0.946411
C119	C	1.128217	0.042385	0.373961
C120	C	1.628217	0.542385	0.873961
C121	C	1.065952	-0.000044	0.331467
C122	C	1.565952	0.499956	0.831467
C123	C	1.143181	-0.000027	0.599350
C124	C	1.643181	0.499973	1.099350
C125	C	1.141801	-0.000011	0.671803
C126	C	1.641801	0.499989	1.171803
C127	C	0.977470	-0.000002	0.655397
C128	C	1.477470	0.499998	1.155397
C129	C	0.978852	-0.000011	0.582946
C130	C	1.478852	0.499989	1.082946
C131	C	1.061710	-0.000027	0.554927
C132	C	1.561710	0.499973	1.054927
H133	H	0.810886	-0.000041	0.015386
H134	H	1.310886	0.499959	0.515386
H135	H	1.208146	-0.000013	0.707971
H136	H	1.708146	0.499987	1.207971
N137	N	0.936541	0.344107	-0.193922
N138	N	1.436541	0.844107	0.306078
H139	H	0.970778	0.375743	-0.224779
H140	H	1.470778	0.875743	0.275221
H141	H	0.896823	0.375682	-0.167207
H142	H	1.396823	0.875682	0.332793
N143	N	1.238179	-0.000061	0.272804
N144	N	1.738179	0.499939	0.772804
H145	H	1.290877	-0.000071	0.244061
H146	H	1.790877	0.499929	0.744061
H147	H	1.241178	-0.044954	0.303232
H148	H	1.741178	0.455046	0.803232
H149	H	1.213616	0.430806	-0.079982
H150	H	1.713616	0.930806	0.420018
N151	N	1.196847	0.088138	0.341649
N152	N	1.696847	0.588138	0.841649
H153	H	1.236075	0.115021	0.379561
H154	H	1.736075	0.615021	0.879561
H155	H	1.164241	0.124375	0.308268
H156	H	1.664241	0.624375	0.808268
H157	H	1.177526	0.076942	0.481014
H158	H	1.677526	0.576942	0.981014
H159	H	0.952828	0.195745	-0.181497
H160	H	1.452828	0.695745	0.318503
H161	H	0.510247	-0.000086	0.083212
H162	H	1.010247	0.499914	0.583212
H163	H	0.915539	0.430835	-0.112178
H164	H	1.415539	0.930835	0.387822
N165	N	0.888108	0.000011	0.685616
N166	N	1.388108	0.500011	1.185616
H167	H	0.899595	0.000015	0.738254
H168	H	1.399595	0.500015	1.238254
H169	H	0.852468	-0.044880	0.669384
H170	H	1.352468	0.455120	1.169384
N171	N	0.936546	0.814323	-0.193892
N172	N	1.436546	1.314323	0.306108
H173	H	0.897523	0.778622	-0.223709
H174	H	1.397523	1.278622	0.276291
H175	H	0.970844	0.845958	-0.224705
H176	H	1.470844	1.345958	0.275295
N177	N	0.432980	0.000010	-0.289412
N178	N	0.932980	0.500010	0.210588
H179	H	0.393472	0.044901	-0.291647
H180	H	0.893472	0.544901	0.208353
H181	H	0.393542	-0.044912	-0.291616
H182	H	0.893542	0.455088	0.208384
H183	H	0.358197	-0.000064	0.022013
H184	H	0.858197	0.499936	0.522013
H185	H	0.952834	0.665958	-0.181465
H186	H	1.452834	1.165958	0.318535
N187	N	0.935193	-0.088232	0.315574
N188	N	1.435193	0.411768	0.815574
H189	H	0.871518	-0.072394	0.321841
H190	H	1.371518	0.427606	0.821841
H191	H	0.943434	-0.141158	0.329054
H192	H	1.443434	0.358842	0.829054
H193	H	1.219153	-0.000076	0.129621
H194	H	1.719153	0.499924	0.629621
H195	H	1.213618	0.569097	-0.079985
H196	H	1.713618	1.069097	0.420015
H197	H	0.915544	0.569118	-0.112161
H198	H	1.415544	1.069118	0.387839
H199	H	0.770960	-0.000003	-0.214181
H200	H	1.270960	0.499997	0.285819
N201	N	0.628433	0.000016	-0.292290
N202	N	1.128433	0.500016	0.207710
H203	H	0.577410	0.000022	-0.331722
H204	H	1.077410	0.500022	0.168278
H205	H	0.666974	-0.044875	-0.295617
H206	H	1.166974	0.455125	0.204383
H207	H	0.680856	-0.000053	0.080715
H208	H	1.180856	0.499947	0.580715
H209	H	0.918520	-0.000032	0.231301
H210	H	1.418520	0.499968	0.731301
H211	H	0.318279	-0.000017	-0.207540
H212	H	0.818279	0.499983	0.292460
H213	H	1.176324	0.195684	-0.010699
H214	H	1.676324	0.695684	0.489301
N215	N	0.890982	-0.000006	0.535029
N216	N	1.390982	0.499994	1.035029
H217	H	0.838286	-0.000002	0.563775
H218	H	1.338286	0.499998	1.063775
H219	H	0.887977	-0.044901	0.504624
H220	H	1.387977	0.455099	1.004624
H221	H	0.921013	-0.000036	0.099858
H222	H	1.421013	0.499964	0.599858
N223	N	1.192622	0.655806	0.001754
N224	N	1.692622	1.155806	0.501754
H225	H	1.158383	0.624175	0.032614
H226	H	1.658383	1.124175	0.532614
H227	H	1.231634	0.691549	0.031523
H228	H	1.731634	1.191549	0.531523
H229	H	1.176351	0.804183	-0.010679
H230	H	1.676351	1.304183	0.489321
N231	N	1.192609	0.344048	0.001742
N232	N	1.692609	0.844048	0.501742
H233	H	1.231629	0.308328	0.031560
H234	H	1.731629	0.808328	0.531560
H235	H	1.158299	0.375666	0.032553
H236	H	1.658299	0.875666	0.532553
N237	N	1.232544	-0.000041	0.569122
N238	N	1.732544	0.499959	1.069122
H239	H	1.283947	-0.000039	0.608260
H240	H	1.783947	0.499961	1.108260
H241	H	1.236693	0.044847	0.539404
H242	H	1.736693	0.544847	1.039404
H243	H	0.949131	-0.077004	0.458252
H244	H	1.449131	0.422996	0.958252
