data_functionalizedCrystal
_audit_creation_method	'MofGen! by Chris Wilmer'
_symmetry_space_group_name_H-M	'P1'
_symmetry_Int_Tables_number	1
_symmetry_cell_setting	triclinic
loop_
_symmetry_equiv_pos_as_xyz
  x,y,z
_cell_length_a	12.970454
_cell_length_b	18.426585
_cell_length_c	12.970454
_cell_angle_alpha	89.999509
_cell_angle_beta	119.999186
_cell_angle_gamma	119.997973
loop_
_atom_site_label
_atom_site_type_symbol
_atom_site_fract_x
_atom_site_fract_y
_atom_site_fract_z
Zr1	Zr	-1.128533	0.699130	-0.135298
O2	O	-1.343611	0.583258	-0.299912
O3	O	-0.913450	0.734648	-0.084838
O4	O	-1.128534	0.734653	-0.299923
O5	O	-1.128527	0.583252	0.084839
O6	O	-1.128542	0.854079	-0.299927
O7	O	-1.128526	0.583253	-0.084828
O8	O	-0.743795	0.854071	0.084820
O9	O	-1.513274	0.583261	-0.299908
O10	O	-1.001924	0.838926	-0.063317
O11	O	-1.001920	0.749799	0.063307
O12	O	-1.255153	0.749804	-0.189928
O13	O	-1.255149	0.660678	-0.063304
Zr14	Zr	-1.128546	0.889599	0.135294
Zr15	Zr	-1.128545	0.889600	-0.135305
Zr16	Zr	-1.128535	0.699129	0.135301
Zr17	Zr	-1.399126	0.699134	-0.135292
Zr18	Zr	-0.857953	0.889595	0.135287
O19	O	-1.343629	0.854081	0.084834
O20	O	-1.343627	0.854082	-0.299922
O21	O	-1.343613	0.583256	0.084844
O22	O	-0.913469	1.005471	0.299908
O23	O	-0.913467	1.005473	-0.084848
O24	O	-0.913452	0.734647	0.299918
O25	O	-1.128552	1.005476	-0.084843
O26	O	-1.128545	0.854076	0.299919
O27	O	-1.128538	0.734650	0.299923
O28	O	-1.128553	1.005476	0.084823
O29	O	-1.513283	0.734659	-0.299914
O30	O	-0.743796	0.854070	0.299910
O31	O	-0.743806	1.005468	0.299904
O32	O	-0.743804	1.005469	0.084814
O33	O	-1.513275	0.583260	-0.084819
O34	O	-1.513284	0.734658	-0.084824
O35	O	-1.001926	0.838925	0.189924
O36	O	-1.001930	0.928051	0.063300
O37	O	-1.255159	0.838930	-0.063311
O38	O	-1.255155	0.749803	0.063313
C39	C	-0.790069	0.794359	-0.000010
C40	C	-0.675195	0.794357	-0.000013
C41	C	-1.128525	0.556115	0.000006
C42	C	-1.128520	0.475255	0.000009
C43	C	-0.467014	0.794367	0.000002
C44	C	-0.581901	0.794358	-0.000006
C45	C	-1.128564	0.179140	-0.000013
C46	C	-1.128558	0.261526	-0.000010
C47	C	-1.128543	0.327195	-0.000003
C48	C	-1.128536	0.409587	0.000002
C49	C	-1.128538	0.794366	-0.338480
C50	C	-1.128537	0.794367	-0.453356
C51	C	-1.128554	1.032614	-0.000011
C52	C	-1.128559	1.113474	-0.000014
C53	C	-1.128541	0.794363	0.338475
C54	C	-1.128542	0.794362	0.453352
C55	C	-0.790083	1.032608	-0.000019
C56	C	-0.675214	1.113466	-0.000024
C57	C	-0.790071	0.794357	0.338467
C58	C	-0.675198	0.794355	0.453341
C59	C	-0.790085	1.032607	0.338459
C60	C	-0.675217	1.113464	0.453329
C61	C	-1.466994	0.556122	-0.338463
C62	C	-1.581862	0.475265	-0.453334
C63	C	-1.466996	0.556120	0.000014
C64	C	-1.581865	0.475263	0.000020
C65	C	-1.467008	0.794372	-0.338472
C66	C	-1.581881	0.794374	-0.453345
C67	C	-0.621268	1.104915	-0.066131
C68	C	-0.513351	1.180883	-0.066162
C69	C	-0.459376	1.265400	-0.000077
C70	C	-0.513333	1.273949	0.066031
C71	C	-0.621255	1.197983	0.066054
C72	C	-0.621276	1.197967	0.441178
C73	C	-0.513360	1.273948	0.549100
C74	C	-0.459380	1.265425	0.669174
C75	C	-0.513331	1.180913	0.681323
C76	C	-0.621252	1.104934	0.573401
C77	C	-1.635816	0.390762	-0.441182
C78	C	-1.743766	0.314781	-0.549105
C79	C	-1.797752	0.323304	-0.669178
C80	C	-1.743793	0.407816	-0.681327
C81	C	-1.635853	0.483795	-0.573406
C82	C	-1.635823	0.483814	0.066116
C83	C	-1.743769	0.407846	0.066116
C84	C	-1.797748	0.323329	0.000028
C85	C	-1.743786	0.314780	-0.066076
C86	C	-1.635848	0.390746	-0.066083
H87	H	-0.665213	1.036104	-0.119960
H88	H	-1.591925	0.552599	-0.583315
Cl89	Cl	-1.933439	0.227836	0.000053
Cl90	Cl	-0.323697	1.360893	-0.000115
H91	H	-0.371503	1.327299	0.757040
H92	H	-0.665211	1.204924	0.343418
Cl93	Cl	-1.811654	0.208522	-0.149146
H94	H	-1.591919	0.383771	-0.119902
Cl95	Cl	-0.445457	1.380207	0.149110
Cl96	Cl	-1.933447	0.227777	-0.804841
H97	H	-0.665165	1.204958	0.119893
Cl98	Cl	-0.445551	1.380180	0.533798
H99	H	-0.469364	1.173986	0.779101
Cl100	Cl	-0.689042	0.998705	0.588700
H101	H	-0.469432	1.173904	-0.119995
H102	H	-1.787687	0.414825	0.119951
H103	H	-1.787680	0.245975	-0.539188
H104	H	-1.591867	0.383805	-0.343422
H105	H	-1.787763	0.414745	-0.779104
Cl106	Cl	-1.567993	0.590055	0.149201
