data_functionalizedCrystal
_audit_creation_method	'MofGen! by Chris Wilmer'
_symmetry_space_group_name_H-M	'P1'
_symmetry_Int_Tables_number	1
_symmetry_cell_setting	triclinic
loop_
_symmetry_equiv_pos_as_xyz
  x,y,z
_cell_length_a	12.837943
_cell_length_b	10.268362
_cell_length_c	12.837942
_cell_angle_alpha	89.999312
_cell_angle_beta	85.171060
_cell_angle_gamma	90.003756
loop_
_atom_site_label
_atom_site_type_symbol
_atom_site_fract_x
_atom_site_fract_y
_atom_site_fract_z
O1	O	1.402336	0.108276	-0.272135
O2	O	1.099203	0.108284	-0.258692
O3	O	1.244048	0.108272	-0.113847
O4	O	1.257491	0.108288	-0.416980
O5	O	1.244033	-0.108329	-0.113851
O6	O	1.099188	-0.108317	-0.258696
O7	O	1.402321	-0.108325	-0.272139
Cu8	Cu	1.250753	-0.128098	-0.265418
Cu9	Cu	1.250771	0.128057	-0.265413
O10	O	1.257476	-0.108313	-0.416984
C11	C	1.060126	-0.000016	-0.254153
C12	C	0.943711	-0.000013	-0.240608
N13	N	1.250748	-0.308264	-0.265421
C14	C	0.718837	-0.000023	-0.403437
C15	C	0.609454	-0.000022	-0.390716
C16	C	0.615562	-0.000017	-0.202445
C17	C	0.724944	-0.000019	-0.215166
C18	C	0.776578	-0.000020	-0.315666
C19	C	0.885962	-0.000012	-0.328386
C20	C	0.892067	-0.000018	-0.140116
C21	C	0.782685	-0.000016	-0.127395
C22	C	1.250756	-0.426107	-0.265423
C23	C	1.250768	-0.573944	-0.265414
C24	C	1.441398	-0.000023	-0.276679
C25	C	1.557813	-0.000017	-0.290223
C26	C	1.239499	-0.000028	-0.074780
C27	C	1.225954	-0.000025	0.041635
N28	N	1.250783	0.308223	-0.265402
C29	C	1.262025	-0.000011	-0.456052
C30	C	1.275569	-0.000005	-0.572467
C31	C	1.388784	-0.000002	0.266510
C32	C	1.376062	0.000000	0.375892
C33	C	1.187791	-0.000008	0.369785
C34	C	1.200513	-0.000011	0.260402
C35	C	1.301012	-0.000010	0.208769
C36	C	1.313732	-0.000022	0.099384
C37	C	1.125462	-0.000021	0.093279
C38	C	1.112741	-0.000018	0.202661
H39	H	0.928000	-0.000015	-0.410218
F40	F	1.469481	0.000012	0.437341
F41	F	1.420691	-0.000029	0.044433
H42	H	1.105969	0.000005	0.411844
F43	F	0.560592	-0.000032	-0.095495
F44	F	0.953527	0.000002	-0.046697
H45	H	0.740630	-0.000030	-0.045571
F46	F	1.495741	-0.000028	0.211555
F47	F	1.032043	-0.000042	0.031819
H48	H	1.030917	-0.000014	0.244717
H49	H	0.760878	-0.000022	-0.485268
F50	F	0.548006	-0.000029	-0.484135
