data_functionalizedCrystal
_audit_creation_method	'MofGen! by Chris Wilmer'
_symmetry_space_group_name_H-M	'P1'
_symmetry_Int_Tables_number	1
_symmetry_cell_setting	triclinic
loop_
_symmetry_equiv_pos_as_xyz
  x,y,z
_cell_length_a	12.827893
_cell_length_b	12.827892
_cell_length_c	17.077396
_cell_angle_alpha	90.025067
_cell_angle_beta	90.017613
_cell_angle_gamma	90.015552
loop_
_atom_site_label
_atom_site_type_symbol
_atom_site_fract_x
_atom_site_fract_y
_atom_site_fract_z
Zn1	Zn	1.597652	-0.416029	0.443822
Zn2	Zn	1.597552	-0.590791	0.312564
Zn3	Zn	1.422899	-0.416065	0.312574
Zn4	Zn	1.422879	-0.590729	0.443792
O5	O	1.510246	-0.503403	0.378188
O6	O	1.743875	-0.439222	0.426418
O7	O	1.574350	-0.567655	0.202718
O8	O	1.446131	-0.269824	0.330001
O9	O	1.743801	-0.567619	0.329984
O10	O	1.574522	-0.269797	0.426429
O11	O	1.446033	-0.439284	0.202726
O12	O	1.276660	-0.439224	0.329972
O13	O	1.446097	-0.567513	0.553643
O14	O	1.276646	-0.567548	0.426377
O15	O	1.574502	-0.439162	0.553665
O16	O	1.574330	-0.737019	0.329954
O17	O	1.445999	-0.736973	0.426367
C18	C	1.238736	-0.503384	0.378173
C19	C	1.122583	-0.503401	0.378185
C20	C	0.950717	-0.566854	0.330416
C21	C	1.070767	-0.566838	0.330403
C22	C	1.510180	-0.774913	0.378173
C23	C	1.510248	-0.891066	0.378193
C24	C	1.573751	-0.942754	0.425951
C25	C	1.573823	-1.062805	0.425973
C26	C	1.782816	-0.503423	0.378203
C27	C	1.898969	-0.503432	0.378210
C28	C	1.510309	-0.503326	0.582932
C29	C	1.510336	-0.503294	0.670182
C30	C	1.510340	-0.230833	0.378220
C31	C	1.510380	-0.114680	0.378233
C32	C	1.510243	-0.503405	0.174240
C33	C	1.510418	-0.503143	0.086991
C34	C	1.577199	-0.436455	0.711185
C35	C	1.577211	-0.436421	0.793165
C36	C	1.510365	-0.503230	0.834141
C37	C	1.443495	-0.570071	0.793133
C38	C	1.443478	-0.570100	0.711154
C39	C	1.443537	-0.570008	0.964003
C40	C	1.443555	-0.569981	1.045988
C41	C	1.577270	-0.436329	1.046015
C42	C	1.577253	-0.436358	0.964036
C43	C	1.510384	-0.503201	0.923033
H44	H	1.078087	-0.449103	0.419107
F45	F	1.372311	-0.641236	0.667516
F46	F	1.644893	-1.120901	0.479414
F47	F	1.372402	-0.641078	1.089596
F48	F	0.957224	-0.432437	0.431677
H49	H	1.628063	-0.898132	0.466826
F50	F	1.648412	-0.365318	0.836800
F51	F	1.439317	-1.056590	0.324782
F52	F	1.439246	-0.949388	0.324773
F53	F	0.892462	-0.637839	0.276941
H54	H	1.631636	-0.382054	0.677828
F55	F	1.648404	-0.365258	0.920427
F56	F	1.648439	-0.365190	1.089654
F57	F	1.372364	-0.641148	0.920366
H58	H	1.389064	-0.624465	0.826502
H59	H	1.115270	-0.621142	0.289489
