data_functionalizedCrystal
_audit_creation_method	'MofGen! by Chris Wilmer'
_symmetry_space_group_name_H-M	'P1'
_symmetry_Int_Tables_number	1
_symmetry_cell_setting	triclinic
loop_
_symmetry_equiv_pos_as_xyz
  x,y,z
_cell_length_a	12.759395
_cell_length_b	12.759394
_cell_length_c	11.169409
_cell_angle_alpha	89.965476
_cell_angle_beta	89.979216
_cell_angle_gamma	90.016374
loop_
_atom_site_label
_atom_site_type_symbol
_atom_site_fract_x
_atom_site_fract_y
_atom_site_fract_z
Zn1	Zn	1.606271	-0.418138	-0.678555
Zn2	Zn	1.606160	-0.593864	-0.477864
Zn3	Zn	1.430568	-0.418204	-0.477886
Zn4	Zn	1.430561	-0.593781	-0.678506
O5	O	1.518390	-0.505997	-0.578203
O6	O	1.753277	-0.441456	-0.651945
O7	O	1.582824	-0.570625	-0.309918
O8	O	1.453925	-0.271175	-0.504535
O9	O	1.753196	-0.570561	-0.504498
O10	O	1.583013	-0.271126	-0.651966
O11	O	1.453817	-0.441569	-0.309934
O12	O	1.283546	-0.441488	-0.504487
O13	O	1.453912	-0.570419	-0.846462
O14	O	1.283541	-0.570483	-0.651882
O15	O	1.583006	-0.441375	-0.846499
O16	O	1.582817	-0.740874	-0.504450
O17	O	1.453805	-0.740813	-0.651861
C18	C	1.245422	-0.505984	-0.578182
C19	C	1.128646	-0.506004	-0.578202
C20	C	1.128679	-0.640544	-0.731436
C21	C	1.073834	-0.707822	-0.808056
C22	C	0.964113	-0.707835	-0.808070
C23	C	0.909233	-0.640560	-0.731459
C24	C	0.964077	-0.573282	-0.654839
C25	C	1.073801	-0.573278	-0.654830
C26	C	0.964044	-0.438738	-0.501613
C27	C	1.073766	-0.438729	-0.501591
C28	C	0.909164	-0.371463	-0.425002
C29	C	0.964009	-0.304189	-0.348374
C30	C	1.073737	-0.304179	-0.348362
C31	C	1.128610	-0.371451	-0.424971
C32	C	1.518327	-0.778964	-0.578174
C33	C	1.518396	-0.895741	-0.578202
C34	C	1.652837	-0.895752	-0.424818
C35	C	1.720085	-0.950618	-0.348141
C36	C	1.720146	-1.060339	-0.348173
C37	C	1.652955	-1.115197	-0.424894
C38	C	1.585707	-1.060331	-0.501572
C39	C	1.585651	-0.950607	-0.501528
C40	C	1.451273	-1.060321	-0.654960
C41	C	1.451204	-0.950599	-0.654923
C42	C	1.384082	-1.115179	-0.731681
C43	C	1.316827	-1.060313	-0.808354
C44	C	1.316767	-0.950584	-0.808317
C45	C	1.383957	-0.895733	-0.731600
C46	C	1.792423	-0.506010	-0.578224
C47	C	1.909200	-0.506016	-0.578234
C48	C	1.518470	-0.505880	-0.891246
C49	C	1.518505	-0.505830	-1.024646
C50	C	1.518482	-0.231963	-0.578258
C51	C	1.518521	-0.115187	-0.578282
C52	C	1.518370	-0.506037	-0.266378
C53	C	1.518539	-0.505791	-0.132979
H54	H	0.819892	-0.640567	-0.731488
O55	O	0.790821	-0.371512	-0.424963
H56	H	0.761902	-0.429618	-0.491085
H57	H	1.218020	-0.640548	-0.731422
H58	H	1.653020	-1.204538	-0.424924
H59	H	0.919317	-0.249414	-0.286009
O60	O	1.792701	-1.119518	-0.265496
H61	H	1.781463	-1.205029	-0.278428
O62	O	1.133031	-0.780376	-0.890684
H63	H	1.076460	-0.827152	-0.943972
O64	O	1.244234	-0.891416	-0.891028
H65	H	1.255479	-0.805902	-0.878125
O66	O	1.384148	-1.233521	-0.731708
H67	H	1.405373	-1.262371	-0.822254
O68	O	1.792558	-0.891437	-0.265411
H69	H	1.774601	-0.912580	-0.171202
O70	O	1.652764	-0.777409	-0.424782
H71	H	1.710785	-0.748480	-0.358559
H72	H	1.262130	-1.104987	-0.870820
H73	H	1.383908	-0.806392	-0.731555
H74	H	1.217951	-0.371453	-0.424964
H75	H	1.118384	-0.249386	-0.285976
H76	H	0.919459	-0.762613	-0.870467
