data_functionalizedCrystal
_audit_creation_method	'MofGen! by Chris Wilmer'
_symmetry_space_group_name_H-M	'P1'
_symmetry_Int_Tables_number	1
_symmetry_cell_setting	triclinic
loop_
_symmetry_equiv_pos_as_xyz
  x,y,z
_cell_length_a	21.395364
_cell_length_b	21.395361
_cell_length_c	21.395355
_cell_angle_alpha	89.980951
_cell_angle_beta	89.974400
_cell_angle_gamma	90.028035
loop_
_atom_site_label
_atom_site_type_symbol
_atom_site_fract_x
_atom_site_fract_y
_atom_site_fract_z
Zn1	Zn	-0.957860	0.249553	0.354277
Zn2	Zn	-0.457860	0.749553	0.854277
Zn3	Zn	-0.957763	0.354313	0.249498
Zn4	Zn	-0.457763	0.854313	0.749498
Zn5	Zn	-0.853075	0.249548	0.249511
Zn6	Zn	-0.353075	0.749548	0.749511
Zn7	Zn	-0.853044	0.354292	0.354236
Zn8	Zn	-0.353044	0.854292	0.854236
O9	O	-0.905435	0.301927	0.301881
O10	O	-0.405435	0.801927	0.801881
O11	O	-1.045525	0.263460	0.340389
O12	O	-0.545525	0.763460	0.840389
O13	O	-0.943848	0.340422	0.161822
O14	O	-0.443848	0.840422	0.661822
O15	O	-0.867028	0.161871	0.263431
O16	O	-0.367028	0.661871	0.763431
O17	O	-1.045453	0.340427	0.263408
O18	O	-0.545453	0.840427	0.763408
O19	O	-0.944013	0.161874	0.340402
O20	O	-0.444013	0.661874	0.840402
O21	O	-0.866934	0.263452	0.161832
O22	O	-0.366934	0.763452	0.661832
O23	O	-0.765393	0.263432	0.263392
O24	O	-0.265393	0.763432	0.763392
O25	O	-0.866976	0.340391	0.441920
O26	O	-0.366976	0.840391	0.941920
O27	O	-0.765370	0.340387	0.340333
O28	O	-0.265370	0.840387	0.840333
O29	O	-0.943984	0.263440	0.441949
O30	O	-0.443984	0.763440	0.941949
O31	O	-0.943818	0.441988	0.263370
O32	O	-0.443818	0.941988	0.763370
O33	O	-0.866882	0.441973	0.340320
O34	O	-0.366882	0.941973	0.840320
C35	C	-0.742648	0.301907	0.301860
C36	C	-0.242648	0.801907	0.801860
C37	C	-0.673006	0.301914	0.301866
C38	C	-0.173006	0.801914	0.801866
C39	C	-0.171215	0.342060	0.341894
C40	C	0.328785	0.842060	0.841894
C41	C	-0.236650	0.342061	0.341888
C42	C	0.263350	0.842061	0.841888
C43	C	-0.269368	0.301931	0.301891
C44	C	0.230632	0.801931	0.801891
C45	C	-0.236645	0.261809	0.261884
C46	C	0.263355	0.761809	0.761884
C47	C	-0.171211	0.261813	0.261887
C48	C	0.328789	0.761813	0.761887
C49	C	-0.373057	0.245467	0.297042
C50	C	0.126943	0.745467	0.797042
C51	C	-0.438490	0.245462	0.297044
C52	C	0.061510	0.745462	0.797044
C53	C	-0.471189	0.301917	0.301880
C54	C	0.028811	0.801917	0.801880
C55	C	-0.438447	0.358380	0.306728
C56	C	0.061553	0.858380	0.806728
C57	C	-0.373013	0.358385	0.306730
C58	C	0.126987	0.858385	0.806730
C59	C	-0.340321	0.301922	0.301884
C60	C	0.159679	0.801922	0.801884
C61	C	-0.574857	0.342041	0.341875
C62	C	-0.074857	0.842041	0.841875
C63	C	-0.640293	0.342044	0.341865
C64	C	-0.140293	0.842044	0.841865
C65	C	-0.640287	0.261786	0.261864
C66	C	-0.140287	0.761786	0.761864
C67	C	-0.574851	0.261790	0.261871
C68	C	-0.074851	0.761790	0.761871
C69	C	-0.542140	0.301916	0.301880
C70	C	-0.042140	0.801916	0.801880
C71	C	-0.905353	0.464714	0.301853
C72	C	-0.405353	0.964714	0.801853
C73	C	-0.905375	0.534355	0.301862
C74	C	-0.405375	1.034355	0.801862
C75	C	-0.068859	0.301942	0.301898
C76	C	0.431141	0.801942	0.801898
C77	C	-0.138500	0.301940	0.301895
C78	C	0.361500	0.801940	0.801895
C79	C	-0.945472	0.567056	0.261836
C80	C	-0.445472	1.067056	0.761836
C81	C	-0.945501	0.632491	0.261853
C82	C	-0.445501	1.132491	0.761853
C83	C	-0.905423	0.665224	0.301889
C84	C	-0.405423	1.165224	0.801889
C85	C	-0.865324	0.632516	0.341922
C86	C	-0.365324	1.132516	0.841922
C87	C	-0.865300	0.567081	0.341909
C88	C	-0.365300	1.067081	0.841909
C89	C	-0.849008	0.768936	0.306802
C90	C	-0.349008	1.268936	0.806802
C91	C	-0.849031	0.834369	0.306811
C92	C	-0.349031	1.334369	0.806811
C93	C	-0.905496	0.867044	0.301934
C94	C	-0.405496	1.367044	0.801934
C95	C	-0.961941	0.834278	0.297035
C96	C	-0.461941	1.334278	0.797035
C97	C	-0.961917	0.768844	0.297021
C98	C	-0.461917	1.268844	0.797021
C99	C	-0.905444	0.736176	0.301908
C100	C	-0.405444	1.236176	0.801908
C101	C	-0.945628	0.970697	0.261925
C102	C	-0.445628	1.470697	0.761925
C103	C	-0.945658	1.036134	0.261946
C104	C	-0.445658	1.536134	0.761946
C105	C	-0.865476	1.036157	0.342012
C106	C	-0.365476	1.536157	0.842012
C107	C	-0.865451	0.970722	0.341994
C108	C	-0.365451	1.470722	0.841994
C109	C	-0.905526	0.937996	0.301947
C110	C	-0.405526	1.437996	0.801947
C111	C	-0.905487	0.301914	0.465304
C112	C	-0.405487	0.801914	0.965304
C113	C	-0.905510	0.301908	0.534945
C114	C	-0.405510	0.801908	1.034945
C115	C	-0.905536	1.138503	0.301933
C116	C	-0.405536	1.638503	0.801933
C117	C	-0.905580	1.068862	0.301983
C118	C	-0.405580	1.568862	0.801983
C119	C	-0.905420	0.301894	0.139093
C120	C	-0.405420	0.801894	0.639093
C121	C	-0.905519	0.301723	0.069452
C122	C	-0.405519	0.801723	0.569452
C123	C	-0.945606	0.261838	0.567675
C124	C	-0.445606	0.761838	1.067675
C125	C	-0.945605	0.261811	0.633110
C126	C	-0.445605	0.761811	1.133110
C127	C	-0.905514	0.301866	0.665814
C128	C	-0.405514	0.801866	1.165814
C129	C	-0.865411	0.341939	0.633076
C130	C	-0.365411	0.841939	1.133076
C131	C	-0.865408	0.341960	0.567642
C132	C	-0.365408	0.841960	1.067642
C133	C	-0.900539	0.358281	0.769479
C134	C	-0.400539	0.858281	1.269479
C135	C	-0.900545	0.358261	0.834912
C136	C	-0.400545	0.858261	1.334912
C137	C	-0.905518	0.301800	0.867635
C138	C	-0.405518	0.801800	1.367635
C139	C	-0.910497	0.245357	0.834916
C140	C	-0.410497	0.745357	1.334916
C141	C	-0.910495	0.245378	0.769482
C142	C	-0.410495	0.745378	1.269482
C143	C	-0.905512	0.301847	0.736766
C144	C	-0.405512	0.801847	1.236766
C145	C	-0.945616	0.261697	0.971317
C146	C	-0.445616	0.761697	1.471317
C147	C	-0.945610	0.261669	1.036753
C148	C	-0.445610	0.761669	1.536753
C149	C	-0.865419	0.341802	1.036718
C150	C	-0.365419	0.841802	1.536718
C151	C	-0.865421	0.341824	0.971283
C152	C	-0.365421	0.841824	1.471283
C153	C	-0.905523	0.301773	0.938586
C154	C	-0.405523	0.801773	1.438586
H155	H	-0.144586	0.374736	0.374470
H156	H	0.355414	0.874736	0.874470
H157	H	-0.832693	0.659171	0.374521
H158	H	-0.332693	1.159171	0.874521
H159	H	-0.978254	0.229178	0.659764
H160	H	-0.478254	0.729178	1.159764
H161	H	-0.832774	0.374458	0.944634
H162	H	-0.332774	0.874458	1.444634
Br163	Br	-0.811030	0.926339	0.396317
Br164	Br	-0.311030	1.426339	0.896317
H165	H	-0.346357	0.404359	0.310675
H166	H	0.153643	0.904359	0.810675
H167	H	-0.548222	0.374716	0.374451
H168	H	-0.048222	0.874716	0.874451
Br169	Br	-0.917252	0.168726	0.879317
Br170	Br	-0.417252	0.668726	1.379317
H171	H	-0.803071	0.861042	0.310795
H172	H	-0.303071	1.361042	0.810795
Br173	Br	-0.684682	0.207331	0.207573
Br174	Br	-0.184682	0.707331	0.707573
H175	H	-0.978265	0.229081	0.944693
H176	H	-0.478265	0.729081	1.444693
Br177	Br	-1.000012	0.926279	0.207574
Br178	Br	-0.500012	1.426279	0.707574
Br179	Br	-0.893808	0.434915	0.725076
Br180	Br	-0.393808	0.934915	1.225076
H181	H	-0.465143	0.199486	0.293104
H182	H	0.034857	0.699486	0.793104
Br183	Br	-0.281060	0.396513	0.396175
Br184	Br	0.218940	0.896513	0.896175
Br185	Br	-0.772370	0.724598	0.313424
Br186	Br	-0.272370	1.224598	0.813424
H187	H	-0.832648	0.540456	0.374504
H188	H	-0.332648	1.040456	0.874504
H189	H	-0.896495	0.404219	0.861546
H190	H	-0.396495	0.904219	1.361546
Br191	Br	-1.000026	0.207480	0.523303
Br192	Br	-0.500026	0.707480	1.023303
Br193	Br	-0.810987	0.396345	0.523220
Br194	Br	-0.310987	0.896345	1.023220
Br195	Br	-0.482816	0.435005	0.313291
Br196	Br	0.017184	0.935005	0.813291
H197	H	-0.832767	0.374549	0.659708
H198	H	-0.332767	0.874549	1.159708
H199	H	-0.666929	0.374718	0.374435
H200	H	-0.166929	0.874718	0.874435
Br201	Br	-0.811002	0.396155	1.081094
Br202	Br	-0.311002	0.896155	1.581094
H203	H	-0.914547	0.199421	0.742846
H204	H	-0.414547	0.699421	1.242846
H205	H	-0.548214	0.229118	0.229302
H206	H	-0.048214	0.729118	0.729302
H207	H	-0.978154	0.659121	0.229259
H208	H	-0.478154	1.159121	0.729259
H209	H	-0.346439	0.199492	0.293093
H210	H	0.153561	0.699492	0.793093
Br211	Br	-0.281046	0.207351	0.207597
Br212	Br	0.218954	0.707351	0.707597
H213	H	-0.978105	0.540412	0.229229
H214	H	-0.478105	1.040412	0.729229
Br215	Br	-0.126808	0.207361	0.207599
Br216	Br	0.373192	0.707361	0.707599
H217	H	-1.007875	0.742168	0.293034
H218	H	-0.507875	1.242168	0.793034
Br219	Br	-1.038577	0.878614	0.290406
Br220	Br	-0.538577	1.378614	0.790406
H221	H	-0.978313	1.062757	0.229353
H222	H	-0.478313	1.562757	0.729353
Br223	Br	-0.811089	1.080573	0.396355
Br224	Br	-0.311089	1.580573	0.896355
H225	H	-0.978260	0.229035	1.063401
H226	H	-0.478260	0.729035	1.563401
