data_functionalizedCrystal
_audit_creation_method	'MofGen! by Chris Wilmer'
_symmetry_space_group_name_H-M	'P1'
_symmetry_Int_Tables_number	1
_symmetry_cell_setting	triclinic
loop_
_symmetry_equiv_pos_as_xyz
  x,y,z
_cell_length_a	14.908783
_cell_length_b	25.639239
_cell_length_c	14.908694
_cell_angle_alpha	93.266315
_cell_angle_beta	83.203601
_cell_angle_gamma	93.329368
loop_
_atom_site_label
_atom_site_type_symbol
_atom_site_fract_x
_atom_site_fract_y
_atom_site_fract_z
Zn1	Zn	1.413290	-0.180729	-0.591748
Zn2	Zn	1.913290	0.319271	-0.091748
Zn3	Zn	1.404411	-0.263404	-0.440370
Zn4	Zn	1.904411	0.236596	0.059630
Zn5	Zn	1.253186	-0.180743	-0.431653
Zn6	Zn	1.753186	0.319257	0.068347
Zn7	Zn	1.261833	-0.272899	-0.582940
Zn8	Zn	1.761833	0.227101	-0.082940
O9	O	1.333180	-0.224444	-0.511678
O10	O	1.833180	0.275556	-0.011678
O11	O	1.538786	-0.187716	-0.579002
O12	O	2.038786	0.312284	-0.079002
O13	O	1.377017	-0.248471	-0.312547
O14	O	1.877017	0.251529	0.187453
O15	O	1.274522	-0.107574	-0.452929
O16	O	1.774522	0.392426	0.047071
O17	O	1.532263	-0.248457	-0.467785
O18	O	2.032263	0.251543	0.032215
O19	O	1.392149	-0.107564	-0.570550
O20	O	1.892149	0.392436	-0.070550
O21	O	1.265912	-0.187740	-0.306143
O22	O	1.765912	0.312260	0.193857
O23	O	1.127660	-0.196948	-0.444388
O24	O	1.627660	0.303052	0.055612
O25	O	1.289258	-0.264641	-0.710775
O26	O	1.789258	0.235359	-0.210775
O27	O	1.134012	-0.264654	-0.555537
O28	O	1.634012	0.235346	-0.055537
O29	O	1.400533	-0.196924	-0.717246
O30	O	1.900533	0.303076	-0.217246
O31	O	1.385401	-0.337831	-0.459244
O32	O	1.885401	0.162169	0.040756
O33	O	1.280649	-0.344807	-0.563989
O34	O	1.780649	0.155193	-0.063989
C35	C	1.097991	-0.231833	-0.498061
C36	C	1.597991	0.268167	0.001939
C37	C	0.997377	-0.235008	-0.492257
C38	C	1.497377	0.264992	0.007743
C39	C	0.815114	-0.177821	-0.597339
C40	C	1.315114	0.322179	-0.097339
C41	C	0.720578	-0.180802	-0.591889
C42	C	1.220578	0.319198	-0.091889
C43	C	0.713769	-0.243948	-0.475903
C44	C	1.213769	0.256052	0.024097
C45	C	0.808304	-0.240967	-0.481353
C46	C	1.308304	0.259033	0.018647
C47	C	0.858974	-0.207903	-0.542074
C48	C	1.358974	0.292097	-0.042074
C49	C	0.953511	-0.204925	-0.547528
C50	C	1.453511	0.295075	-0.047528
C51	C	0.946700	-0.268068	-0.431539
C52	C	1.446700	0.231932	0.068461
C53	C	0.852164	-0.271049	-0.426088
C54	C	1.352164	0.228951	0.073912
C55	C	1.333026	-0.360290	-0.511628
C56	C	1.833026	0.139710	-0.011628
C57	C	1.333044	-0.418404	-0.511641
C58	C	1.833044	0.081596	-0.011641
C59	C	1.387881	-0.775117	-0.457244
C60	C	1.887881	-0.275117	0.042756
C61	C	1.387917	-0.829720	-0.457258
C62	C	1.887917	-0.329720	0.042742
O63	O	1.434381	-0.854857	-0.410954
O64	O	1.934381	-0.354857	0.089046
N65	N	1.333343	-0.860680	-0.511747
N66	N	1.833343	-0.360680	-0.011747
C67	C	1.278736	-0.837033	-0.566232
C68	C	1.778736	-0.337033	-0.066232
O69	O	1.232320	-0.868380	-0.612581
O70	O	1.732320	-0.368380	-0.112581
C71	C	1.278706	-0.782430	-0.566222
C72	C	1.778706	-0.282430	-0.066222
C73	C	1.333277	-0.751474	-0.511723
C74	C	1.833277	-0.251474	-0.011723
C75	C	1.442449	-0.744160	-0.402750
C76	C	1.942449	-0.244160	0.097250
C77	C	1.442411	-0.689560	-0.402735
C78	C	1.942411	-0.189560	0.097265
C79	C	1.387807	-0.665917	-0.457214
C80	C	1.887807	-0.165917	0.042786
C81	C	1.333239	-0.696874	-0.511708
C82	C	1.833239	-0.196874	-0.011708
C83	C	1.224104	-0.758785	-0.620711
C84	C	1.724104	-0.258785	-0.120711
C85	C	1.224079	-0.704178	-0.620697
C86	C	1.724079	-0.204178	-0.120697
C87	C	1.278650	-0.673221	-0.566198
C88	C	1.778650	-0.173221	-0.066198
C89	C	1.278598	-0.618631	-0.566171
C90	C	1.778598	-0.118631	-0.066171
N91	N	1.333172	-0.587671	-0.511683
N92	N	1.833172	-0.087671	-0.011683
C93	C	1.387776	-0.611314	-0.457204
C94	C	1.887776	-0.111314	0.042796
C95	C	1.278805	-0.951702	-0.566250
C96	C	1.778805	-0.451702	-0.066250
C97	C	1.278830	-1.006304	-0.566256
C98	C	1.778830	-0.506304	-0.066256
C99	C	1.388012	-0.998987	-0.457283
C100	C	1.888012	-0.498987	0.042717
C101	C	1.387982	-0.944384	-0.457273
C102	C	1.887982	-0.444384	0.042727
C103	C	1.333379	-0.920742	-0.511761
C104	C	1.833379	-0.420742	-0.011761
C105	C	1.387693	-0.496651	-0.457176
C106	C	1.887693	0.003349	0.042824
C107	C	1.387648	-0.442047	-0.457162
C108	C	1.887648	0.057953	0.042838
C109	C	1.278470	-0.449368	-0.566138
C110	C	1.778470	0.050632	-0.066138
C111	C	1.278511	-0.503968	-0.566148
C112	C	1.778511	-0.003968	-0.066148
C113	C	1.333130	-0.527608	-0.511664
C114	C	1.833130	-0.027608	-0.011664
O115	O	1.232160	-0.593458	-0.612455
O116	O	1.732160	-0.093458	-0.112455
O117	O	1.434193	-0.579961	-0.410872
O118	O	1.934193	-0.079961	0.089128
C119	C	1.569288	-0.217026	-0.525348
C120	C	2.069288	0.282974	-0.025348
C121	C	1.669903	-0.213865	-0.531174
C122	C	2.169903	0.286135	-0.031174
C123	C	1.346851	-0.231840	-0.747772
C124	C	1.846851	0.268160	-0.247772
C125	C	1.352676	-0.234991	-0.848381
C126	C	1.852676	0.265009	-0.348381
C127	C	1.333361	-0.088067	-0.511750
C128	C	1.833361	0.411933	-0.011750
C129	C	1.333438	-0.029952	-0.511780
C130	C	1.833438	0.470048	-0.011780
C131	C	1.247909	-0.177677	-1.030769
C132	C	1.747909	0.322323	-0.530769
C133	C	1.253379	-0.180637	-1.125300
C134	C	1.753379	0.319363	-0.625300
C135	C	1.369082	-0.243873	-1.131976
C136	C	1.869082	0.256127	-0.631976
C137	C	1.363612	-0.240913	-1.037445
C138	C	1.863612	0.259087	-0.537445
C139	C	1.303024	-0.207814	-0.986844
C140	C	1.803024	0.292186	-0.486844
C141	C	1.297559	-0.204852	-0.892312
C142	C	1.797559	0.295148	-0.392312
C143	C	1.413257	-0.268090	-0.898990
C144	C	1.913257	0.231910	-0.398990
C145	C	1.418727	-0.271050	-0.993521
C146	C	1.918727	0.228950	-0.493521
C147	C	1.319615	-0.217037	-0.276505
C148	C	1.819615	0.282963	0.223495
C149	C	1.313965	-0.213733	-0.175907
C150	C	1.813965	0.286267	0.324093
H151	H	0.684872	-0.156305	-0.636889
H152	H	1.184872	0.343695	-0.136889
H153	H	1.432419	-0.919182	-0.412896
H154	H	1.932419	-0.419182	0.087104
H155	H	1.486850	-0.664358	-0.358360
H156	H	1.986850	-0.164358	0.141640
H157	H	1.234008	-0.430109	-0.610492
H158	H	1.734008	0.069891	-0.110492
H159	H	1.234333	-0.932456	-0.610618
H160	H	1.734333	-0.432456	-0.110618
C161	C	1.447679	-0.407997	-0.397202
C162	C	1.947679	0.092003	0.102798
N163	N	1.492892	-0.382353	-0.352040
N164	N	1.992892	0.117647	0.147960
C165	C	1.485168	-0.307579	-1.049180
C166	C	1.985168	0.192421	-0.549180
N167	N	1.535142	-0.335138	-1.091097
N168	N	2.035142	0.164862	-0.591097
H169	H	0.994765	-0.178003	-0.596971
H170	H	1.494765	0.321997	-0.096971
C171	C	0.870852	-0.141453	-0.664136
C172	C	1.370852	0.358547	-0.164136
N173	N	0.912833	-0.114060	-0.714448
N174	N	1.412833	0.385940	-0.214448
C175	C	1.181266	-0.141266	-0.975106
C176	C	1.681266	0.358734	-0.475106
N177	N	1.131069	-0.113840	-0.933182
N178	N	1.631069	0.386160	-0.433182
H179	H	1.234078	-0.529174	-0.610529
H180	H	1.734078	-0.029174	-0.110529
H181	H	1.208499	-0.156097	-1.161059
H182	H	1.708499	0.343903	-0.661059
C183	C	1.448086	-1.025005	-0.397362
C184	C	1.948086	-0.525005	0.102638
N185	N	1.493333	-1.044603	-0.352234
N186	N	1.993333	-0.544603	0.147766
H187	H	0.810896	-0.297967	-0.376648
H188	H	1.310896	0.202033	0.123352
C189	C	0.658016	-0.280311	-0.409108
C190	C	1.158016	0.219689	0.090892
N191	N	0.616022	-0.307699	-0.358797
N192	N	1.116022	0.192301	0.141203
C193	C	1.435304	-0.280533	-1.187627
C194	C	1.935304	0.219467	-0.687627
N195	N	1.485032	-0.308236	-1.229535
N196	N	1.985032	0.191764	-0.729535
C197	C	1.473887	-0.301242	-0.850666
C198	C	1.973887	0.198758	-0.350666
N199	N	1.519555	-0.326211	-0.814267
N200	N	2.019555	0.173789	-0.314267
H201	H	0.982420	-0.292567	-0.386545
H202	H	1.482420	0.207433	0.113455
C203	C	1.502518	-0.770158	-0.342809
C204	C	2.002518	-0.270158	0.157191
N205	N	1.547760	-0.789736	-0.297650
N206	N	2.047760	-0.289736	0.202350
C207	C	1.447771	-0.522647	-0.397235
C208	C	1.947771	-0.022647	0.102765
N209	N	1.493017	-0.542227	-0.352082
N210	N	1.993017	-0.042227	0.147918
H211	H	1.179662	-0.783981	-0.665086
H212	H	1.679662	-0.283981	-0.165086
H213	H	1.234384	-1.031504	-0.610625
H214	H	1.734384	-0.531504	-0.110625
C215	C	1.230909	-0.168443	-0.836652
C216	C	1.730909	0.331557	-0.336652
N217	N	1.180704	-0.141021	-0.794732
N218	N	1.680704	0.358979	-0.294732
H219	H	1.179616	-0.684932	-0.665071
H220	H	1.679616	-0.184932	-0.165071
