data_functionalizedCrystal
_audit_creation_method	'MofGen! by Chris Wilmer'
_symmetry_space_group_name_H-M	'P1'
_symmetry_Int_Tables_number	1
_symmetry_cell_setting	triclinic
loop_
_symmetry_equiv_pos_as_xyz
  x,y,z
_cell_length_a	6.817900
_cell_length_b	16.255661
_cell_length_c	15.866870
_cell_angle_alpha	112.481265
_cell_angle_beta	102.655915
_cell_angle_gamma	103.488922
loop_
_atom_site_label
_atom_site_type_symbol
_atom_site_fract_x
_atom_site_fract_y
_atom_site_fract_z
V1	V	-4.052302	-0.305528	-0.133532
V2	V	-3.552302	0.194472	0.366468
O3	O	-4.013114	-0.257095	0.005619
O4	O	-3.513114	0.242905	0.505619
O5	O	-4.028858	-0.344425	-0.264004
O6	O	-3.528858	0.155575	0.235996
O7	O	-4.003538	-0.420080	-0.131828
O8	O	-3.503538	0.079920	0.368172
O9	O	-4.038609	-0.180917	-0.127472
O10	O	-3.538609	0.319083	0.372528
V11	V	-4.532744	-0.285644	-0.116847
V12	V	-4.032744	0.214356	0.383153
O13	O	-4.320320	-0.349144	-0.170133
O14	O	-3.820320	0.150856	0.329867
O15	O	-4.714923	-0.242028	-0.080246
O16	O	-4.214923	0.257972	0.419754
O17	O	-4.332981	-0.246747	0.013626
O18	O	-3.832981	0.253253	0.513626
O19	O	-4.689329	-0.334077	-0.255998
O20	O	-4.189329	0.165923	0.244002
O21	O	-4.663834	-0.410255	-0.122906
O22	O	-4.163834	0.089745	0.377094
O23	O	-4.358302	-0.171093	-0.118551
O24	O	-3.858302	0.328907	0.381449
C25	C	-3.879942	-0.350182	-0.295800
C26	C	-3.379942	0.149818	0.204200
C27	C	-3.942057	-0.382749	-0.402465
C28	C	-3.442057	0.117251	0.097535
C29	C	-3.931920	-0.080662	-0.683662
C30	C	-3.431920	0.419338	-0.183662
C31	C	-3.990297	-0.111292	-0.783895
C32	C	-3.490297	0.388708	-0.283895
C33	C	-4.076067	-0.274974	-0.811728
C34	C	-3.576067	0.225026	-0.311728
C35	C	-4.017687	-0.244357	-0.711496
C36	C	-3.517687	0.255643	-0.211496
C37	C	-3.945618	-0.147200	-0.647470
C38	C	-3.445618	0.352800	-0.147470
C39	C	-4.031385	-0.310896	-0.675303
C40	C	-3.531385	0.189104	-0.175303
C41	C	-3.973020	-0.280281	-0.575079
C42	C	-3.473020	0.219719	-0.075079
C43	C	-3.900957	-0.183129	-0.511048
C44	C	-3.400957	0.316871	-0.011048
C45	C	-3.887253	-0.116586	-0.547246
C46	C	-3.387253	0.383414	-0.047246
C47	C	-4.103469	-0.408053	-0.739331
C48	C	-3.603469	0.091947	-0.239331
C49	C	-4.117168	-0.474591	-0.703138
C50	C	-3.617168	0.025409	-0.203138
C51	C	-4.058788	-0.443977	-0.602912
C52	C	-3.558788	0.056023	-0.102912
C53	C	-3.986724	-0.346824	-0.538881
C54	C	-3.486724	0.153176	-0.038881
C55	C	-4.072491	-0.510520	-0.566714
C56	C	-3.572491	-0.010520	-0.066714
C57	C	-4.014126	-0.479906	-0.466491
C58	C	-3.514126	0.020094	0.033509
C59	C	-3.928359	-0.316210	-0.438657
C60	C	-3.428359	0.183790	0.061343
C61	C	-3.847642	-0.446685	-0.127194
C62	C	-3.347642	0.053315	0.372806
C63	C	-3.889220	-0.540600	-0.126665
C64	C	-3.389220	-0.040600	0.373335
C65	C	-3.798563	-0.761444	-0.120335
C66	C	-3.298563	-0.261444	0.379665
C67	C	-3.970636	-0.856407	-0.202032
C68	C	-3.470636	-0.356407	0.297968
C69	C	-3.965414	-0.712539	-0.125671
C70	C	-3.465414	-0.212539	0.374329
C71	C	-3.867453	-0.784922	-0.043038
C72	C	-3.367453	-0.284922	0.456962
C73	C	-4.038997	-0.878622	-0.124707
C74	C	-3.538997	-0.378622	0.375293
C75	C	-4.136983	-0.806294	-0.207441
C76	C	-3.636983	-0.306294	0.292559
C77	C	-4.033723	-0.734772	-0.048376
C78	C	-3.533723	-0.234772	0.451624
C79	C	-4.205937	-0.829722	-0.130096
C80	C	-3.705937	-0.329722	0.369904
C81	C	-3.923020	-0.616863	-0.126227
C82	C	-3.423020	-0.116863	0.373773
C83	C	-4.081410	-0.974299	-0.124158
C84	C	-3.581410	-0.474299	0.375842
C85	C	-4.145241	-0.240990	0.045416
C86	C	-3.645241	0.259010	0.545416
C87	C	-4.062363	-0.208429	0.152080
C88	C	-3.562363	0.291571	0.652080
C89	C	-4.177540	-0.144484	-0.123187
C90	C	-3.677540	0.355516	0.376813
C91	C	-4.115200	-0.050566	-0.123712
C92	C	-3.615200	0.449434	0.376288
H93	H	-3.869641	-0.237094	-0.386522
H94	H	-3.369641	0.262906	0.113478
Cl95	Cl	-3.973062	-0.027631	-0.829390
Cl96	Cl	-3.473062	0.472369	-0.329390
Cl97	Cl	-3.930155	-0.937237	-0.302329
Cl98	Cl	-3.430155	-0.437237	0.197671
H99	H	-4.134760	-0.354080	-0.863871
H100	H	-3.634760	0.145920	-0.363871
H101	H	-3.753906	-0.776863	0.026423
H102	H	-3.253906	-0.276863	0.526423
Cl103	Cl	-4.312295	-0.819009	-0.314830
Cl104	Cl	-3.812295	-0.319009	0.185170
Cl105	Cl	-3.827602	-0.144640	-0.385051
Cl106	Cl	-3.327602	0.355360	0.114949
Cl107	Cl	-4.472517	-0.875487	-0.136497
Cl108	Cl	-3.972517	-0.375487	0.363503
H109	H	-4.059868	-0.682396	0.016591
H110	H	-3.559868	-0.182396	0.516591
Cl111	Cl	-3.841282	0.041482	-0.603165
Cl112	Cl	-3.341282	0.541482	-0.103165
Cl113	Cl	-4.176853	-0.446539	-0.865328
Cl114	Cl	-3.676853	0.053461	-0.365328
Cl115	Cl	-4.207776	-0.596728	-0.783636
Cl116	Cl	-3.707776	-0.096728	-0.283636
Cl117	Cl	-4.163125	-0.632656	-0.647215
Cl118	Cl	-3.663125	-0.132656	-0.147215
Cl119	Cl	-3.796616	0.005558	-0.466748
Cl120	Cl	-3.296616	0.505558	0.033252
H121	H	-4.025313	-0.534089	-0.437024
H122	H	-3.525313	-0.034089	0.062976
Cl123	Cl	-3.532202	-0.715529	-0.114124
Cl124	Cl	-3.032202	-0.215529	0.385876
