data_functionalizedCrystal
_audit_creation_method	'MofGen! by Chris Wilmer'
_symmetry_space_group_name_H-M	'P1'
_symmetry_Int_Tables_number	1
_symmetry_cell_setting	triclinic
loop_
_symmetry_equiv_pos_as_xyz
  x,y,z
_cell_length_a	18.050591
_cell_length_b	18.050590
_cell_length_c	11.169409
_cell_angle_alpha	90.037983
_cell_angle_beta	90.029184
_cell_angle_gamma	90.014558
loop_
_atom_site_label
_atom_site_type_symbol
_atom_site_fract_x
_atom_site_fract_y
_atom_site_fract_z
Zn1	Zn	1.135403	-0.295678	0.678795
Zn2	Zn	1.135317	-0.419893	0.478092
Zn3	Zn	1.011204	-0.295713	0.478097
Zn4	Zn	1.011191	-0.419822	0.678704
O5	O	1.073279	-0.357777	0.578422
O6	O	1.239316	-0.312171	0.652208
O7	O	1.118822	-0.403465	0.310143
O8	O	1.027721	-0.191784	0.504760
O9	O	1.239253	-0.403431	0.504752
O10	O	1.118969	-0.191758	0.652212
O11	O	1.027638	-0.312230	0.310146
O12	O	0.907278	-0.312161	0.504672
O13	O	1.027699	-0.403310	0.846666
O14	O	0.907268	-0.403344	0.652057
O15	O	1.118957	-0.312102	0.846733
O16	O	1.118810	-0.523809	0.504664
O17	O	1.027615	-0.523756	0.652053
C18	C	0.880327	-0.357749	0.578356
C19	C	0.797781	-0.357755	0.578356
C20	C	0.598314	-0.308113	0.498392
C21	C	0.548903	-0.375853	0.468855
C22	C	0.646651	-0.357778	0.578410
C23	C	0.548980	-0.290061	0.607944
C24	C	0.500665	-0.357794	0.578460
C25	C	0.598327	-0.425554	0.548816
C26	C	0.598408	-0.339716	0.687956
C27	C	0.549019	-0.407503	0.658460
C28	C	0.730749	-0.357768	0.578378
C29	C	0.416569	-0.357811	0.578492
C30	C	1.073222	-0.550729	0.578374
C31	C	1.073265	-0.633275	0.578394
C32	C	1.122960	-0.832727	0.498356
C33	C	1.141105	-0.882049	0.607897
C34	C	1.073307	-0.784405	0.578442
C35	C	1.055238	-0.882164	0.468950
C36	C	1.073350	-0.930390	0.578479
C37	C	1.091487	-0.832640	0.688040
C38	C	1.005588	-0.832751	0.549020
C39	C	1.023708	-0.882051	0.658636
C40	C	1.073285	-0.700307	0.578419
C41	C	1.073372	-1.014487	0.578514
C42	C	1.266984	-0.357805	0.578490
C43	C	1.349530	-0.357817	0.578518
C44	C	1.073336	-0.357694	0.891465
C45	C	1.073360	-0.357659	1.024865
C46	C	1.073356	-0.164071	0.578497
C47	C	1.073389	-0.081525	0.578528
C48	C	1.073265	-0.357805	0.266597
C49	C	1.073384	-0.357631	0.133198
H50	H	0.619913	-0.482845	0.523755
H51	H	0.527265	-0.232794	0.632862
H52	H	1.198392	-0.903706	0.632805
C53	C	0.442408	-0.463395	0.749824
C54	C	0.519975	-0.464268	0.749845
H55	H	0.424478	-0.498437	0.806244
H56	H	0.424712	-0.475827	0.672271
H57	H	0.425428	-0.415329	0.770964
H58	H	0.536955	-0.512333	0.728695
H59	H	0.537678	-0.451840	0.827415
H60	H	0.620169	-0.324406	0.780547
H61	H	1.164964	-0.811068	0.430700
C62	C	0.602546	-0.270581	0.292317
C63	C	0.627541	-0.251475	0.406951
H64	H	0.620594	-0.235620	0.235866
H65	H	0.549930	-0.270510	0.291209
H66	H	0.620174	-0.318570	0.272127
H67	H	0.609908	-0.203488	0.427145
H68	H	0.680168	-0.251539	0.408063
H69	H	0.527160	-0.391142	0.376236
H70	H	1.106731	-0.810980	0.780731
C71	C	0.986170	-0.885974	0.864731
C72	C	0.967049	-0.911113	0.750184
H73	H	0.951195	-0.903921	0.921249
H74	H	0.986133	-0.833357	0.865665
H75	H	1.034146	-0.903607	0.884970
H76	H	0.919074	-0.893476	0.729941
H77	H	0.967077	-0.963741	0.749247
H78	H	0.948318	-0.811078	0.524079
C79	C	1.086628	-0.886623	0.260207
C80	C	1.034575	-0.911526	0.343932
H81	H	1.073872	-0.904745	0.183025
H82	H	1.134402	-0.904231	0.281670
H83	H	1.086903	-0.834001	0.259133
H84	H	1.034304	-0.964148	0.345012
H85	H	0.986788	-0.893922	0.322463
