data_functionalizedCrystal
_audit_creation_method	'MofGen! by Chris Wilmer'
_symmetry_space_group_name_H-M	'P1'
_symmetry_Int_Tables_number	1
_symmetry_cell_setting	triclinic
loop_
_symmetry_equiv_pos_as_xyz
  x,y,z
_cell_length_a	16.120297
_cell_length_b	19.805407
_cell_length_c	16.120444
_cell_angle_alpha	87.073874
_cell_angle_beta	84.384883
_cell_angle_gamma	92.872735
loop_
_atom_site_label
_atom_site_type_symbol
_atom_site_fract_x
_atom_site_fract_y
_atom_site_fract_z
Zn1	Zn	-0.489581	0.999899	0.356772
Zn2	Zn	-0.356894	0.999812	0.489462
Zn3	Zn	-0.349814	0.892757	0.349706
Zn4	Zn	-0.496601	0.880636	0.496501
O5	O	-0.423223	0.943276	0.423110
O6	O	-0.472005	1.094603	0.374385
O7	O	-0.238993	0.990647	0.465020
O8	O	-0.362454	0.912079	0.233677
O9	O	-0.374520	1.094539	0.471872
O10	O	-0.465140	0.990796	0.238869
O11	O	-0.233792	0.911994	0.362342
O12	O	-0.369261	0.796434	0.369167
O13	O	-0.612632	0.891421	0.483869
O14	O	-0.477105	0.787529	0.477017
O15	O	-0.607474	0.979043	0.381210
O16	O	-0.381327	0.978894	0.607362
O17	O	-0.483970	0.891336	0.612533
C18	C	-0.423177	0.767423	0.423089
C19	C	-0.423178	0.692190	0.423101
C20	C	-0.479352	0.225775	0.479367
C21	C	-0.479334	0.296464	0.479364
C22	C	-0.423256	0.336424	0.423132
C23	C	-0.367187	0.305691	0.366904
C24	C	-0.367202	0.235003	0.366911
C25	C	-0.367127	0.590768	0.366876
C26	C	-0.367119	0.661461	0.366871
C27	C	-0.479259	0.652229	0.479329
C28	C	-0.479274	0.581541	0.479336
C29	C	-0.423202	0.550815	0.423111
C30	C	-0.423221	0.474165	0.423115
C31	C	-0.423241	0.413072	0.423123
C32	C	-0.641227	0.933889	0.434113
C33	C	-0.734128	0.929889	0.438802
C34	C	-0.904217	0.922562	0.447343
C35	C	-0.943067	0.964134	0.398627
C36	C	-1.037710	0.960057	0.403380
C37	C	-0.809565	0.926638	0.442592
C38	C	-0.206063	0.952668	0.412090
C39	C	-0.113151	0.956809	0.407166
C40	C	-0.434196	0.933808	0.640276
C41	C	-0.438919	0.929818	0.733182
C42	C	-0.423269	1.119816	0.423132
C43	C	-0.423289	1.195047	0.423141
C44	C	-0.412224	0.952799	0.205097
C45	C	-0.407537	0.956857	0.112193
C46	C	-0.398904	0.964132	0.942093
C47	C	-0.447550	0.922546	0.903277
C48	C	-0.442746	0.926593	0.808627
C49	C	-0.403706	0.960085	1.036751
H50	H	-0.525021	0.193244	0.525153
H51	H	-0.492805	0.883902	0.941130
C52	C	-0.317306	0.773921	0.316927
C53	C	-0.305470	0.705388	0.305060
H54	H	-0.279252	0.801038	0.278765
H55	H	-0.307822	0.783583	0.372440
H56	H	-0.372870	0.783622	0.307608
H57	H	-0.249908	0.695686	0.314385
H58	H	-0.314948	0.695722	0.249534
C59	C	-0.281598	0.982551	0.838165
C60	C	-0.337805	1.016290	0.890999
H61	H	-0.243875	1.014750	0.806619
H62	H	-0.311496	0.956997	0.801381
H63	H	-0.251295	0.953032	0.870668
H64	H	-0.368113	1.045806	0.858496
H65	H	-0.307904	1.041856	0.927787
C66	C	-0.496397	0.496656	0.592363
C67	C	-0.540914	0.537616	0.541147
H68	H	-0.534452	0.469536	0.630521
H69	H	-0.461545	0.524402	0.622434
H70	H	-0.463012	0.468242	0.558867
H71	H	-0.574294	0.566033	0.574643
H72	H	-0.575780	0.509866	0.511074
C73	C	-0.900994	0.832735	0.552600
C74	C	-0.955265	0.870388	0.508468
H75	H	-0.932517	0.800525	0.590333
H76	H	-0.868576	0.862266	0.582896
H77	H	-0.865091	0.809869	0.514499
H78	H	-0.991163	0.893258	0.546569
H79	H	-0.987697	0.840853	0.478171
C80	C	-0.590193	0.280239	0.590518
C81	C	-0.540963	0.330240	0.541166
H82	H	-0.628244	0.301092	0.628671
H83	H	-0.555346	0.252837	0.620596
H84	H	-0.620386	0.252883	0.555757
H85	H	-0.510765	0.357593	0.575928
H86	H	-0.575815	0.357653	0.511087
H87	H	-0.524914	0.677255	0.525112
H88	H	-0.321467	0.565760	0.321097
C89	C	-0.317376	0.418149	0.316951
C90	C	-0.305547	0.349614	0.305090
H91	H	-0.279325	0.445263	0.278783
H92	H	-0.307883	0.427814	0.372462
H93	H	-0.372941	0.427852	0.307639
H94	H	-0.249983	0.339910	0.314408
H95	H	-0.315032	0.339945	0.249567
H96	H	-0.321551	0.209986	0.321125
H97	H	-0.905247	1.002787	0.353349
