data_functionalizedCrystal
_audit_creation_method	'MofGen! by Chris Wilmer'
_symmetry_space_group_name_H-M	'P1'
_symmetry_Int_Tables_number	1
_symmetry_cell_setting	triclinic
loop_
_symmetry_equiv_pos_as_xyz
  x,y,z
_cell_length_a	17.038272
_cell_length_b	27.731996
_cell_length_c	15.500227
_cell_angle_alpha	92.797931
_cell_angle_beta	86.956295
_cell_angle_gamma	86.866472
loop_
_atom_site_label
_atom_site_type_symbol
_atom_site_fract_x
_atom_site_fract_y
_atom_site_fract_z
O1	O	1.039770	0.102823	-0.071855
O2	O	1.373104	0.436156	0.261478
O3	O	1.706437	0.769489	0.594812
O4	O	0.812161	0.101156	-0.071880
O5	O	1.145494	0.434489	0.261453
O6	O	1.478827	0.767823	0.594787
O7	O	0.933055	0.031916	-0.071848
O8	O	1.266388	0.365249	0.261485
O9	O	1.599722	0.698582	0.594819
O10	O	0.918876	0.172063	-0.071887
O11	O	1.252210	0.505396	0.261446
O12	O	1.585543	0.838730	0.594780
O13	O	0.925719	0.036100	0.072039
O14	O	1.259052	0.369433	0.405372
O15	O	1.592386	0.702766	0.738705
O16	O	0.804825	0.105340	0.072007
O17	O	1.138158	0.438673	0.405340
O18	O	1.471492	0.772007	0.738673
O19	O	1.032434	0.107007	0.072032
O20	O	1.365768	0.440340	0.405365
O21	O	1.699101	0.773673	0.738698
Cu22	Cu	0.917960	0.106555	0.085157
Cu23	Cu	1.251293	0.439889	0.418491
Cu24	Cu	1.584626	0.773222	0.751824
Cu25	Cu	0.926635	0.101607	-0.085006
Cu26	Cu	1.259969	0.434940	0.248328
Cu27	Cu	1.593302	0.768274	0.581661
O28	O	0.911540	0.176247	0.072000
O29	O	1.244874	0.509580	0.405333
O30	O	1.578207	0.842914	0.738666
C31	C	0.779383	0.101733	0.000060
C32	C	1.112716	0.435066	0.333394
C33	C	1.446050	0.768399	0.666727
C34	C	0.692644	0.097212	0.000052
C35	C	1.025978	0.430545	0.333385
C36	C	1.359311	0.763879	0.666718
C37	C	0.642034	0.138715	0.000041
C38	C	0.975368	0.472048	0.333374
C39	C	1.308701	0.805382	0.666707
C40	C	0.560534	0.134465	0.000054
C41	C	0.893867	0.467798	0.333387
C42	C	1.227201	0.801132	0.666721
C43	C	0.529646	0.088711	0.000072
C44	C	0.862979	0.422045	0.333405
C45	C	1.196312	0.755378	0.666738
C46	C	0.580262	0.047205	0.000085
C47	C	0.913595	0.380539	0.333418
C48	C	1.246929	0.713872	0.666752
C49	C	0.661760	0.051456	0.000078
C50	C	0.995094	0.384789	0.333412
C51	C	1.328427	0.718123	0.666745
C52	C	0.284066	0.073695	0.000099
C53	C	0.617399	0.407028	0.333432
C54	C	0.950733	0.740362	0.666766
C55	C	0.202561	0.069447	0.000103
C56	C	0.535894	0.402781	0.333437
C57	C	0.869228	0.736114	0.666770
C58	C	0.182839	0.156707	0.000074
C59	C	0.516172	0.490041	0.333407
C60	C	0.849505	0.823374	0.666740
C61	C	0.264340	0.160954	0.000062
C62	C	0.597673	0.494287	0.333395
C63	C	0.931007	0.827620	0.666728
C64	C	0.314949	0.119448	0.000080
C65	C	0.648282	0.452781	0.333413
C66	C	0.981616	0.786115	0.666746
C67	C	0.446340	0.084366	0.000082
C68	C	0.779673	0.417699	0.333416
C69	C	1.113006	0.751033	0.666749
C70	C	0.398253	0.123794	0.000075
C71	C	0.731586	0.457127	0.333408
C72	C	1.064920	0.790460	0.666742
C73	C	0.929095	0.015987	0.000098
C74	C	1.262429	0.349320	0.333432
C75	C	1.595762	0.682654	0.666765
C76	C	0.928218	-0.037709	0.000107
C77	C	1.261551	0.295624	0.333440
C78	C	1.594884	0.628957	0.666774
C79	C	0.926698	-0.372960	-0.078369
C80	C	1.260032	-0.039627	0.254965
C81	C	1.593365	0.293707	0.588298
C82	C	0.923367	-0.574771	-0.078384
C83	C	1.256701	-0.241438	0.254949
C84	C	1.590034	0.091896	0.588282
O85	O	0.926304	-0.602803	-0.145089
O86	O	1.259637	-0.269469	0.188245
O87	O	1.592970	0.063864	0.521578
N88	N	0.918955	-0.597726	0.000048
N89	N	1.252288	-0.264393	0.333381
N90	N	1.585621	0.068940	0.666714
C91	C	0.915369	-0.570226	0.078489
C92	C	1.248703	-0.236892	0.411822
C93	C	1.582036	0.096441	0.745156
O94	O	0.911532	-0.594381	0.145200
O95	O	1.244865	-0.261048	0.478533
O96	O	1.578198	0.072286	0.811867
C97	C	0.918695	-0.368415	0.078504
C98	C	1.252028	-0.035082	0.411837
C99	C	1.585362	0.298251	0.745170
C100	C	0.923116	-0.345463	0.000067
C101	C	1.256449	-0.012130	0.333400
C102	C	1.589782	0.321204	0.666733
C103	C	0.931118	-0.350007	-0.156799
C104	C	1.264451	-0.016674	0.176534
C105	C	1.597785	0.316659	0.509867
C106	C	0.931955	-0.299558	-0.156795
C107	C	1.265288	0.033776	0.176539
C108	C	1.598622	0.367109	0.509872
C109	C	0.928372	-0.272061	-0.078359
C110	C	1.261706	0.061273	0.254974
C111	C	1.595039	0.394606	0.588307
C112	C	0.923953	-0.295013	0.000071
C113	C	1.257286	0.038320	0.333405
C114	C	1.590619	0.371653	0.666738
C115	C	0.915104	-0.340915	0.156944
C116	C	1.248437	-0.007582	0.490278
C117	C	1.581771	0.325752	0.823611
C118	C	0.915934	-0.290459	0.156941
C119	C	1.249267	0.042874	0.490274
C120	C	1.582601	0.376207	0.823608
C121	C	0.920355	-0.267507	0.078504
C122	C	1.253688	0.065826	0.411837
C123	C	1.587021	0.399160	0.745171
C124	C	0.921207	-0.217067	0.078511
C125	C	1.254540	0.116267	0.411845
C126	C	1.587874	0.449600	0.745178
N127	N	0.925620	-0.194111	0.000080
N128	N	1.258953	0.139222	0.333413
N129	N	1.592286	0.472555	0.666746
C130	C	0.929202	-0.221608	-0.078356
C131	C	1.262536	0.111725	0.254978
C132	C	1.595869	0.445058	0.588311
C133	C	0.913625	-0.676179	0.078476
C134	C	1.246959	-0.342846	0.411809
C135	C	1.580292	-0.009512	0.745142
C136	C	0.912795	-0.726632	0.078472
C137	C	1.246129	-0.393298	0.411806
C138	C	1.579462	-0.059965	0.745139
C139	C	0.920792	-0.731173	-0.078401
C140	C	1.254125	-0.397840	0.254932
C141	C	1.587458	-0.064507	0.588265
C142	C	0.921627	-0.680720	-0.078397
C143	C	1.254961	-0.347387	0.254936
C144	C	1.588294	-0.014054	0.588270
C145	C	0.918038	-0.653224	0.000044
C146	C	1.251371	-0.319890	0.333377
C147	C	1.584705	0.013443	0.666711
C148	C	0.930960	-0.115660	-0.078340
C149	C	1.264294	0.217673	0.254993
C150	C	1.597627	0.551006	0.588327
C151	C	0.931800	-0.065206	-0.078328
C152	C	1.265134	0.268127	0.255005
C153	C	1.598467	0.601460	0.588338
C154	C	0.923800	-0.060669	0.078545
C155	C	1.257133	0.272665	0.411878
C156	C	1.590466	0.605998	0.745211
C157	C	0.922964	-0.111118	0.078534
C158	C	1.256297	0.222215	0.411867
C159	C	1.589631	0.555548	0.745200
C160	C	0.926542	-0.138613	0.000084
C161	C	1.259875	0.194720	0.333418
C162	C	1.593209	0.528053	0.666751
O163	O	0.918264	-0.189005	0.145181
O164	O	1.251597	0.144329	0.478514
O165	O	1.584931	0.477662	0.811848
O166	O	0.933022	-0.197443	-0.145057
O167	O	1.266355	0.135890	0.188277
O168	O	1.599689	0.469223	0.521610
C169	C	0.925861	-0.423410	-0.078373
C170	C	1.259195	-0.090076	0.254960
C171	C	1.592528	0.243257	0.588293
C172	C	0.921442	-0.446362	0.000057
C173	C	1.254775	-0.113029	0.333391
C174	C	1.588108	0.220305	0.666724
C175	C	0.917859	-0.418865	0.078493
C176	C	1.251192	-0.085532	0.411826
C177	C	1.584526	0.247802	0.745159
C178	C	0.920612	-0.496815	0.000054
C179	C	1.253945	-0.163481	0.333387
C180	C	1.587278	0.169852	0.666721
C181	C	0.924194	-0.524312	-0.078381
C182	C	1.257528	-0.190978	0.254952
C183	C	1.590861	0.142355	0.588285
C184	C	0.928607	-0.501356	-0.156813
C185	C	1.261940	-0.168023	0.176520
C186	C	1.595274	0.165310	0.509853
C187	C	0.929444	-0.450907	-0.156809
C188	C	1.262777	-0.117573	0.176525
C189	C	1.596111	0.215760	0.509858
C190	C	0.913447	-0.441820	0.156925
C191	C	1.246780	-0.108487	0.490258
C192	C	1.580113	0.224846	0.823591
C193	C	0.912611	-0.492270	0.156913
C194	C	1.245944	-0.158937	0.490247
C195	C	1.579277	0.174396	0.823580
C196	C	0.916193	-0.519767	0.078478
C197	C	1.249527	-0.186434	0.411811
C198	C	1.582860	0.146899	0.745145
C199	C	1.065212	0.106430	0.000089
C200	C	1.398546	0.439763	0.333423
C201	C	1.731879	0.773096	0.666756
C202	C	1.151951	0.110950	0.000092
C203	C	1.485284	0.444284	0.333426
C204	C	1.818618	0.777617	0.666759
C205	C	0.915500	0.192175	0.000051
C206	C	1.248833	0.525509	0.333385
C207	C	1.582167	0.858842	0.666718
C208	C	0.916378	0.245871	0.000037
C209	C	1.249711	0.579205	0.333370
C210	C	1.583045	0.912538	0.666704
N211	N	0.911864	0.110035	0.204841
N212	N	1.245197	0.443369	0.538174
N213	N	1.578530	0.776702	0.871507
N214	N	0.932738	0.098123	-0.204689
N215	N	1.266071	0.431457	0.128644
N216	N	1.599405	0.764790	0.461978
C217	C	0.963108	0.080708	0.250131
C218	C	1.296441	0.414041	0.583464
C219	C	1.629775	0.747375	0.916797
C220	C	0.958505	0.083345	0.340702
C221	C	1.291838	0.416678	0.674036
C222	C	1.625171	0.750012	1.007369
C223	C	0.902660	0.115312	0.385982
C224	C	1.235993	0.448645	0.719315
C225	C	1.569327	0.781978	1.052649
C226	C	0.851410	0.144640	0.340686
C227	C	1.184743	0.477973	0.674019
C228	C	1.518077	0.811307	1.007352
C229	C	0.856010	0.142001	0.250116
C230	C	1.189344	0.475334	0.583449
C231	C	1.522677	0.808667	0.916782
C232	C	0.886088	0.124812	0.659445
C233	C	1.219422	0.458146	0.992778
C234	C	1.552755	0.791479	1.326111
C235	C	0.881493	0.127451	0.750021
C236	C	1.214827	0.460784	1.083354
C237	C	1.548160	0.794117	1.416688
C238	C	0.988588	0.066155	0.750031
C239	C	1.321921	0.399488	1.083365
C240	C	1.655254	0.732821	1.416698
C241	C	0.993186	0.063520	0.659460
C242	C	1.326519	0.396853	0.992793
C243	C	1.659853	0.730187	1.326126
C244	C	0.941933	0.092846	0.614171
C245	C	1.275267	0.426180	0.947504
C246	C	1.608600	0.759513	1.280838
C247	C	0.897955	0.118009	0.478561
C248	C	1.231288	0.451342	0.811894
C249	C	1.564622	0.784675	1.145227
C250	C	0.946635	0.090147	0.521594
C251	C	1.279969	0.423480	0.854927
C252	C	1.613302	0.756813	1.188261
H253	H	0.667177	0.175972	0.000026
H254	H	1.000510	0.509306	0.333359
H255	H	1.333844	0.842639	0.666692
H256	H	0.519330	0.168261	0.000044
H257	H	0.852663	0.501594	0.333377
H258	H	1.185997	0.834928	0.666711
H259	H	0.923710	-0.753570	-0.142266
H260	H	1.257043	-0.420237	0.191067
H261	H	1.590376	-0.086904	0.524400
H262	H	1.000232	0.059464	0.377577
H263	H	1.333565	0.392797	0.710911
H264	H	1.666898	0.726131	1.044244
H265	H	1.038659	0.037490	0.622595
H266	H	1.371993	0.370823	0.955928
H267	H	1.705326	0.704157	1.289261
H268	H	0.555106	0.009952	0.000112
H269	H	0.888439	0.343285	0.333445
H270	H	1.221772	0.676619	0.666779
H271	H	0.934033	-0.372390	-0.220674
H272	H	1.267366	-0.039057	0.112659
H273	H	1.600699	0.294276	0.445992
H274	H	0.325262	0.039898	0.000114
H275	H	0.658596	0.373231	0.333448
H276	H	0.991929	0.706564	0.666781
H277	H	0.933870	-0.138041	-0.142221
H278	H	1.267203	0.195293	0.191112
H279	H	1.600537	0.528626	0.524446
H280	H	0.805936	0.170666	0.377558
H281	H	1.139269	0.504000	0.710891
H282	H	1.472603	0.837333	1.044224
H283	H	0.421180	0.047114	0.000121
H284	H	0.754513	0.380447	0.333455
H285	H	1.087846	0.713781	0.666788
H286	H	0.910706	-0.653796	0.142355
H287	H	1.244039	-0.320462	0.475689
H288	H	1.577373	0.012871	0.809022
H289	H	0.925226	-0.662036	-0.142267
H290	H	1.258559	-0.328703	0.191066
H291	H	1.591893	0.004631	0.524399
H292	H	0.909017	-0.510954	0.220791
H293	H	1.242350	-0.177620	0.554125
H294	H	1.575683	0.155713	0.887458
H295	H	0.920886	-0.038272	0.142405
H296	H	1.254220	0.295062	0.475738
H297	H	1.587553	0.628395	0.809071
H298	H	1.030314	0.042278	0.786914
H299	H	1.363648	0.375611	1.120247
H300	H	1.696981	0.708944	1.453580
H301	H	0.931528	-0.523753	-0.220678
H302	H	1.264861	-0.190420	0.112655
H303	H	1.598194	0.142913	0.445988
H304	H	0.702967	0.017660	0.000087
H305	H	1.036300	0.350993	0.333420
H306	H	1.369634	0.684326	0.666753
H307	H	0.910530	-0.419437	0.220797
H308	H	1.243864	-0.086104	0.554131
H309	H	1.577197	0.247229	0.887464
H310	H	0.909207	-0.745315	0.142344
H311	H	1.242541	-0.411982	0.475677
H312	H	1.575874	-0.078649	0.809010
H313	H	0.911505	-0.359594	0.220816
H314	H	1.244839	-0.026261	0.554149
H315	H	1.578172	0.307073	0.887483
H316	H	0.423406	0.161046	0.000065
H317	H	0.756739	0.494380	0.333399
H318	H	1.090072	0.827713	0.666732
H319	H	0.935402	-0.046521	-0.142204
H320	H	1.268735	0.286812	0.191129
H321	H	1.602069	0.620146	0.524463
H322	H	0.992101	0.064117	0.484725
H323	H	1.325435	0.397451	0.818058
H324	H	1.658768	0.730784	1.151391
H325	H	0.852486	0.144038	0.515435
H326	H	1.185820	0.477371	0.848768
H327	H	1.519153	0.810704	1.182102
H328	H	0.177416	0.032187	0.000117
H329	H	0.510749	0.365521	0.333450
H330	H	0.844082	0.698854	0.666784
H331	H	0.935552	-0.280875	-0.220666
H332	H	1.268885	0.052459	0.112667
H333	H	1.602218	0.385792	0.446001
H334	H	0.912999	-0.268074	0.220818
H335	H	1.246333	0.065260	0.554152
H336	H	1.579666	0.398593	0.887485
H337	H	1.008586	0.054680	0.213270
H338	H	1.341919	0.388013	0.546603
H339	H	1.675253	0.721346	0.879937
H340	H	0.836015	0.153484	0.786884
H341	H	1.169349	0.486817	1.120217
H342	H	1.502682	0.820150	1.453550
H343	H	0.919371	-0.129807	0.142403
H344	H	1.252705	0.203526	0.475737
H345	H	1.586038	0.536859	0.809070
H346	H	0.933043	-0.432224	-0.220680
H347	H	1.266377	-0.098890	0.112653
H348	H	1.599710	0.234443	0.445986
H349	H	0.844357	0.148692	0.622578
H350	H	1.177691	0.482026	0.955911
H351	H	1.511024	0.815359	1.289244
H352	H	0.141625	0.190499	0.000061
H353	H	0.474958	0.523832	0.333394
H354	H	0.808291	0.857166	0.666727
H355	H	0.814281	0.165881	0.213241
H356	H	1.147614	0.499215	0.546574
H357	H	1.480947	0.832548	0.879908
H358	H	0.289483	0.198211	0.000037
H359	H	0.622817	0.531544	0.333370
H360	H	0.956150	0.864877	0.666704
