data_functionalizedCrystal
_audit_creation_method	'MofGen! by Chris Wilmer'
_symmetry_space_group_name_H-M	'P1'
_symmetry_Int_Tables_number	1
_symmetry_cell_setting	triclinic
loop_
_symmetry_equiv_pos_as_xyz
  x,y,z
_cell_length_a	12.594517
_cell_length_b	11.169416
_cell_length_c	11.169409
_cell_angle_alpha	89.969126
_cell_angle_beta	89.976516
_cell_angle_gamma	90.010140
loop_
_atom_site_label
_atom_site_type_symbol
_atom_site_fract_x
_atom_site_fract_y
_atom_site_fract_z
Zn1	Zn	1.627332	-0.477716	-0.678672
Zn2	Zn	1.627234	-0.678457	-0.477994
Zn3	Zn	1.449329	-0.477786	-0.477994
Zn4	Zn	1.449336	-0.678355	-0.678626
O5	O	1.538308	-0.578079	-0.578322
O6	O	1.776265	-0.504358	-0.652071
O7	O	1.603590	-0.651909	-0.310044
O8	O	1.472980	-0.309827	-0.504633
O9	O	1.776193	-0.651842	-0.504634
O10	O	1.603758	-0.309776	-0.652071
O11	O	1.472885	-0.504477	-0.310044
O12	O	1.300384	-0.504378	-0.504589
O13	O	1.472991	-0.651669	-0.846582
O14	O	1.300389	-0.651736	-0.651992
O15	O	1.603764	-0.504260	-0.846616
O16	O	1.603597	-0.846393	-0.504589
O17	O	1.472896	-0.846319	-0.651993
C18	C	1.261767	-0.578054	-0.578286
C19	C	1.143461	-0.578073	-0.578300
C20	C	1.538265	-0.889903	-0.578312
C21	C	1.538345	-1.023303	-0.578349
C22	C	1.074175	-0.497816	-0.498279
C23	C	1.003372	-0.607295	-0.468764
C24	C	1.003465	-0.468648	-0.607835
C25	C	1.074217	-0.687609	-0.548727
C26	C	1.074316	-0.548889	-0.687849
C27	C	1.003545	-0.658443	-0.658375
C28	C	1.815928	-0.578104	-0.578358
C29	C	1.934234	-0.578114	-0.578373
C30	C	1.538389	-0.577945	-0.891364
C31	C	1.538424	-0.577888	-1.024764
C32	C	1.538379	-0.265036	-0.578357
C33	C	1.538409	-0.131636	-0.578372
C34	C	1.538287	-0.578125	-0.266497
C35	C	1.538459	-0.577843	-0.133097
H36	H	1.105187	-0.430011	-0.430526
Cl37	Cl	0.955960	-0.763373	-0.762903
H38	H	1.105501	-0.524145	-0.780434
Cl39	Cl	0.955473	-0.325751	-0.646356
Cl40	Cl	0.955260	-0.645446	-0.325780
H41	H	1.105166	-0.780194	-0.523673
