data_functionalizedCrystal
_audit_creation_method	'MofGen! by Chris Wilmer'
_symmetry_space_group_name_H-M	'P1'
_symmetry_Int_Tables_number	1
_symmetry_cell_setting	triclinic
loop_
_symmetry_equiv_pos_as_xyz
  x,y,z
_cell_length_a	19.288867
_cell_length_b	23.532357
_cell_length_c	17.766277
_cell_angle_alpha	90.010079
_cell_angle_beta	90.004231
_cell_angle_gamma	82.982680
loop_
_atom_site_label
_atom_site_type_symbol
_atom_site_fract_x
_atom_site_fract_y
_atom_site_fract_z
O1	O	0.921114	0.071051	0.062577
O2	O	0.718822	0.080634	0.062585
O3	O	0.826086	-0.007078	0.062565
O4	O	0.813850	0.158764	0.062597
O5	O	0.826074	-0.007080	-0.062623
O6	O	0.718810	0.080632	-0.062603
O7	O	0.921102	0.071049	-0.062612
Cu8	Cu	0.819955	0.075840	-0.074038
Cu9	Cu	0.819969	0.075843	0.074012
O10	O	0.813838	0.158762	-0.062592
C11	C	0.692941	0.080325	-0.000008
C12	C	0.615840	0.079398	-0.000005
C13	C	0.060303	0.072728	0.068225
C14	C	0.132748	0.073595	0.068228
C15	C	0.168969	0.074030	-0.000012
C16	C	0.132741	0.073583	-0.068260
C17	C	0.060299	0.072711	-0.068261
C18	C	0.278176	0.108768	-0.052286
C19	C	0.350617	0.109644	-0.052282
C20	C	0.392405	0.076719	-0.000012
C21	C	0.361743	0.042924	0.052268
C22	C	0.289301	0.042052	0.052267
C23	C	0.247520	0.074976	-0.000019
C24	C	0.507178	0.078101	0.068235
C25	C	0.579624	0.078964	0.068235
C26	C	0.579615	0.078958	-0.068255
C27	C	0.507171	0.078089	-0.068253
C28	C	0.470956	0.077664	-0.000006
C29	C	0.825774	-0.028297	-0.000031
C30	C	0.824854	-0.091517	-0.000038
C31	C	0.819083	-0.483539	0.068243
C32	C	0.818209	-0.542940	0.068247
O33	O	0.817738	-0.573657	0.126283
N34	N	0.817768	-0.572654	0.000008
C35	C	0.818196	-0.542962	-0.068240
O36	O	0.817741	-0.573690	-0.126283
C37	C	0.819066	-0.483561	-0.068244
C38	C	0.819513	-0.453852	0.000000
C39	C	0.819530	-0.453830	0.136481
C40	C	0.820406	-0.394433	0.136477
C41	C	0.820835	-0.364745	0.068234
C42	C	0.820389	-0.394455	-0.000004
C43	C	0.819488	-0.453870	-0.136491
C44	C	0.820358	-0.394465	-0.136489
C45	C	0.820805	-0.364756	-0.068245
C46	C	0.821695	-0.305370	-0.068252
N47	N	0.822135	-0.275657	-0.000013
C48	C	0.821705	-0.305344	0.068230
C49	C	0.816368	-0.667707	-0.068227
C50	C	0.815503	-0.727107	-0.068225
C51	C	0.815515	-0.727082	0.068263
C52	C	0.816385	-0.667681	0.068259
C53	C	0.816808	-0.637994	0.000012
C54	C	0.823545	-0.180606	0.068215
C55	C	0.824424	-0.121205	0.068205
C56	C	0.824409	-0.121235	-0.068283
C57	C	0.823534	-0.180632	-0.068272
C58	C	0.823100	-0.210316	-0.000017
O59	O	0.822163	-0.274616	-0.126258
O60	O	0.822151	-0.274608	0.126263
C61	C	0.946984	0.071359	-0.000017
C62	C	1.024084	0.072285	-0.000014
C63	C	0.814150	0.179980	0.000007
C64	C	0.815070	0.243200	0.000019
N65	N	0.819950	0.075838	-0.178168
C66	C	0.867477	0.037012	-0.782466
C67	C	0.867478	0.037013	-0.703664
C68	C	0.819969	0.075838	-0.664257
C69	C	0.772468	0.114673	-0.703659
C70	C	0.772473	0.114675	-0.782459
C71	C	0.756652	0.083438	-0.539422
C72	C	0.756646	0.083433	-0.460623
C73	C	0.819954	0.075837	-0.421211
C74	C	0.883271	0.068234	-0.460607
C75	C	0.883276	0.068235	-0.539407
C76	C	0.819959	0.075841	-0.578812
C77	C	0.867457	0.037008	-0.296373
C78	C	0.867459	0.037013	-0.217570
C79	C	0.772443	0.114670	-0.217566
C80	C	0.772447	0.114668	-0.296368
C81	C	0.819953	0.075833	-0.335766
N82	N	0.819979	0.075840	0.178142
H83	H	0.609106	0.079310	-0.123817
H84	H	0.820692	-0.370296	-0.192065
H85	H	0.934822	0.062053	-0.428520
H86	H	0.705090	0.089617	-0.428553
C87	C	0.919714	-0.005702	-0.339719
H88	H	0.912909	-0.000145	-0.392292
H89	H	0.966025	0.000386	-0.326799
H90	H	0.912439	-0.043698	-0.326813
C91	C	0.467326	0.077611	-0.143317
H92	H	0.499271	0.077999	-0.183959
H93	H	0.444598	0.044068	-0.146161
H94	H	0.433534	0.110481	-0.146146
C95	C	0.919720	-0.005703	-0.660320
H96	H	0.912914	-0.000139	-0.607747
H97	H	0.912443	-0.043695	-0.673247
H98	H	0.966038	0.000382	-0.673220
H99	H	0.823176	-0.204823	-0.123842
C100	C	0.819065	-0.486478	0.211555
H101	H	0.819461	-0.460269	0.252188
H102	H	0.778218	-0.505204	0.214410
H103	H	0.859245	-0.514095	0.214391
C104	C	0.815017	-0.759785	-0.143291
H105	H	0.814439	-0.799415	-0.133522
H106	H	0.774647	-0.745600	-0.171327
H107	H	0.855674	-0.754504	-0.171331
C108	C	0.952917	0.059881	-0.582741
H109	H	0.990624	0.055361	-0.547988
H110	H	0.954564	0.026718	-0.613493
H111	H	0.956534	0.092423	-0.613468
C112	C	0.407701	0.006705	0.109769
H113	H	0.455237	0.012058	0.102279
H114	H	0.393878	0.018294	0.159311
H115	H	0.402351	-0.032586	0.103180
H116	H	0.823188	-0.204768	0.123795
C117	C	0.232215	0.144992	-0.109784
H118	H	0.260848	0.165250	-0.140910
H119	H	0.207959	0.120604	-0.140025
H120	H	0.199489	0.171478	-0.083884
H121	H	0.816748	-0.643495	0.123830
C122	C	0.818983	-0.486538	-0.211558
H123	H	0.818404	-0.526169	-0.201794
H124	H	0.778608	-0.472349	-0.239583
H125	H	0.859634	-0.481257	-0.239608
C126	C	0.824878	-0.088571	-0.143344
H127	H	0.825455	-0.048939	-0.133566
H128	H	0.865239	-0.102755	-0.171394
H129	H	0.784213	-0.093857	-0.171374
C130	C	0.384342	0.146816	-0.109783
H131	H	0.433469	0.142627	-0.102290
H132	H	0.374425	0.134940	-0.159325
H133	H	0.365943	0.185821	-0.103196
H134	H	0.030809	0.072352	-0.123831
C135	C	0.467336	0.077626	0.143300
H136	H	0.419003	0.077051	0.133527
H137	H	0.484741	0.044565	0.171335
H138	H	0.473678	0.110978	0.171343
H139	H	0.162243	0.073959	0.123798
C140	C	0.720214	0.157380	-0.825792
H141	H	0.691915	0.180501	-0.791039
H142	H	0.745025	0.181036	-0.856529
H143	H	0.691449	0.136944	-0.856534
H144	H	0.264340	0.014534	0.094833
H145	H	0.162237	0.073936	-0.123822
C146	C	0.824912	-0.088527	0.143276
H147	H	0.824523	-0.114718	0.183917
H148	H	0.865763	-0.069805	0.146113
H149	H	0.784737	-0.060904	0.146113
H150	H	0.906161	0.005392	-0.814542
C151	C	0.687011	0.091794	-0.582771
H152	H	0.696081	0.090712	-0.635344
H153	H	0.660007	0.062066	-0.569870
H154	H	0.661986	0.127770	-0.569851
C155	C	0.919708	-0.005701	-0.174239
H156	H	0.947995	-0.028831	-0.208992
H157	H	0.948477	0.014721	-0.143489
H158	H	0.894883	-0.029356	-0.143509
C159	C	0.820885	-0.361758	0.211545
H160	H	0.820495	-0.387953	0.252183
H161	H	0.861732	-0.343032	0.214391
H162	H	0.780706	-0.334139	0.214381
H163	H	0.733763	0.146284	-0.185481
C164	C	0.815034	-0.759745	0.143330
H165	H	0.814444	-0.799375	0.133552
H166	H	0.855688	-0.754460	0.171373
H167	H	0.774662	-0.745556	0.171367
C168	C	0.720194	0.157376	-0.339701
H169	H	0.691896	0.180496	-0.304947
H170	H	0.745012	0.181031	-0.370431
H171	H	0.691427	0.136946	-0.370449
H172	H	0.816715	-0.643540	-0.123806
H173	H	0.609113	0.079321	0.123806
C174	C	0.020473	0.072245	0.143293
H175	H	0.052425	0.072626	0.183935
H176	H	-0.013326	0.105105	0.146143
H177	H	-0.002244	0.038692	0.146119
C178	C	0.720210	0.157379	-0.660314
H179	H	0.727005	0.151813	-0.607741
H180	H	0.727483	0.195374	-0.673215
H181	H	0.673897	0.151289	-0.673239
