data_functionalizedCrystal
_audit_creation_method	'MofGen! by Chris Wilmer'
_symmetry_space_group_name_H-M	'P1'
_symmetry_Int_Tables_number	1
_symmetry_cell_setting	triclinic
loop_
_symmetry_equiv_pos_as_xyz
  x,y,z
_cell_length_a	15.995350
_cell_length_b	14.519709
_cell_length_c	12.996460
_cell_angle_alpha	89.998766
_cell_angle_beta	89.997437
_cell_angle_gamma	83.586260
loop_
_atom_site_label
_atom_site_type_symbol
_atom_site_fract_x
_atom_site_fract_y
_atom_site_fract_z
O1	O	-1.111166	-0.118867	0.085482
O2	O	-0.611166	0.381133	0.585482
O3	O	-0.867413	-0.133546	0.085503
O4	O	-0.367413	0.366454	0.585503
O5	O	-0.995752	0.008044	0.085483
O6	O	-0.495752	0.508044	0.585483
O7	O	-0.982827	-0.260457	0.085502
O8	O	-0.482827	0.239543	0.585502
O9	O	-0.995736	0.008035	-0.085651
O10	O	-0.495736	0.508035	0.414349
O11	O	-0.867396	-0.133554	-0.085630
O12	O	-0.367396	0.366446	0.414370
O13	O	-1.111150	-0.118875	-0.085652
O14	O	-0.611150	0.381125	0.414348
Cu15	Cu	-0.989272	-0.126215	-0.101267
Cu16	Cu	-0.489272	0.373785	0.398733
Cu17	Cu	-0.989291	-0.126206	0.101118
Cu18	Cu	-0.489291	0.373794	0.601118
O19	O	-0.982810	-0.260465	-0.085631
O20	O	-0.482810	0.239535	0.414369
C21	C	-0.995142	0.042398	-0.000084
C22	C	-0.495142	0.542398	0.499916
C23	C	-0.993337	0.144776	-0.000085
C24	C	-0.493337	0.644776	0.499915
C25	C	-0.836209	-0.132943	-0.000061
C26	C	-0.336209	0.367057	0.499939
C27	C	-0.743256	-0.131124	-0.000053
C28	C	-0.243256	0.368876	0.499947
C29	C	-1.142354	-0.119478	-0.000085
C30	C	-0.642354	0.380522	0.499915
C31	C	-1.235307	-0.121297	-0.000087
C32	C	-0.735307	0.378703	0.499913
C33	C	-0.405499	-0.124590	-0.000075
C34	C	0.094501	0.375410	0.499925
C35	C	-0.452782	-0.023752	-0.000464
C36	C	0.047218	0.476248	0.499536
C37	C	-0.549475	-0.025572	-0.000071
C38	C	-0.049475	0.474428	0.499929
C39	C	-0.573064	-0.127831	-0.000065
C40	C	-0.073064	0.372169	0.499935
C41	C	-0.532061	-0.177563	0.097661
C42	C	-0.032061	0.322437	0.597661
C43	C	-0.435421	-0.175030	0.097735
C44	C	0.064579	0.324970	0.597735
C45	C	-0.435067	-0.177123	-0.096876
C46	C	0.064933	0.322877	0.403124
C47	C	-0.532012	-0.177099	-0.098160
C48	C	-0.032012	0.322901	0.401840
C49	C	-0.667764	-0.129668	-0.000055
C50	C	-0.167764	0.370332	0.499945
C51	C	-0.310798	-0.122756	-0.000077
C52	C	0.189202	0.377244	0.499923
C53	C	-0.983421	-0.294819	-0.000062
C54	C	-0.483421	0.205181	0.499938
C55	C	-0.985226	-0.397197	-0.000055
C56	C	-0.485226	0.102803	0.499945
N57	N	-0.989264	-0.126222	-0.243614
N58	N	-0.489264	0.373778	0.256386
C59	C	-0.986691	0.519660	-0.000057
C60	C	-0.486691	1.019660	0.499943
C61	C	-0.988537	0.415355	-0.000065
C62	C	-0.488537	0.915355	0.499935
C63	C	-0.990014	0.332221	-0.000072
C64	C	-0.490014	0.832221	0.499928
C65	C	-0.991859	0.227910	-0.000078
C66	C	-0.491859	0.727910	0.499922
C67	C	-0.989268	-0.126224	-0.336720
C68	C	-0.489268	0.373776	0.163280
C69	C	-0.989275	-0.126218	-0.453525
C70	C	-0.489275	0.373782	0.046475
C71	C	-0.989286	-0.126208	-0.546624
C72	C	-0.489286	0.373792	-0.046624
C73	C	-0.989295	-0.126202	-0.663436
C74	C	-0.489295	0.373798	-0.163436
N75	N	-0.989305	-0.126192	0.243466
N76	N	-0.489305	0.373808	0.743466
H77	H	-0.577838	0.013520	-0.070125
H78	H	-0.077838	0.513520	0.429875
H79	H	-0.560390	-0.143015	0.170385
H80	H	-0.060390	0.356985	0.670385
F81	F	-0.428480	0.028928	-0.092068
F82	F	0.071520	0.528928	0.407932
H83	H	-0.403416	-0.251469	-0.097532
H84	H	0.096584	0.248531	0.402468
H85	H	-0.433135	0.016373	0.069227
H86	H	0.066865	0.516373	0.569227
F87	F	-0.552235	-0.274571	-0.105869
F88	F	-0.052235	0.225429	0.394131
F89	F	-0.550689	-0.275752	0.102436
F90	F	-0.050689	0.224248	0.602436
F91	F	-0.585798	0.025670	0.091792
F92	F	-0.085798	0.525670	0.591792
H93	H	-0.417066	-0.138756	0.170783
H94	H	0.082934	0.361244	0.670783
H95	H	-0.414475	-0.144160	-0.170949
H96	H	0.085525	0.355840	0.329051
H97	H	-0.403284	-0.249063	0.102175
H98	H	0.096716	0.250937	0.602175
F99	F	-0.567553	-0.129572	-0.192657
F100	F	-0.067553	0.370428	0.307343
