data_functionalizedCrystal
_audit_creation_method	'MofGen! by Chris Wilmer'
_symmetry_space_group_name_H-M	'P1'
_symmetry_Int_Tables_number	1
_symmetry_cell_setting	triclinic
loop_
_symmetry_equiv_pos_as_xyz
  x,y,z
_cell_length_a	16.959455
_cell_length_b	16.120484
_cell_length_c	16.959447
_cell_angle_alpha	92.866538
_cell_angle_beta	89.985678
_cell_angle_gamma	92.922454
loop_
_atom_site_label
_atom_site_type_symbol
_atom_site_fract_x
_atom_site_fract_y
_atom_site_fract_z
Zn1	Zn	1.192394	-0.331957	-0.462851
Zn2	Zn	1.525727	0.001376	-0.129518
Zn3	Zn	1.859061	0.334709	0.203816
Zn4	Zn	1.185600	-0.471386	-0.337369
Zn5	Zn	1.518934	-0.138052	-0.004035
Zn6	Zn	1.852267	0.195281	0.329298
Zn7	Zn	1.060221	-0.331984	-0.330690
Zn8	Zn	1.393554	0.001350	0.002644
Zn9	Zn	1.726888	0.334683	0.335977
Zn10	Zn	1.053474	-0.471323	-0.469504
Zn11	Zn	1.386807	-0.137990	-0.136171
Zn12	Zn	1.720141	0.195343	0.197162
O13	O	1.122922	-0.401662	-0.400103
O14	O	1.456256	-0.068329	-0.066770
O15	O	1.789589	0.265004	0.266563
O16	O	1.302103	-0.350468	-0.446216
O17	O	1.635436	-0.017135	-0.112883
O18	O	1.968769	0.316199	0.220450
O19	O	1.168949	-0.452931	-0.225874
O20	O	1.502282	-0.119597	0.107460
O21	O	1.835616	0.213736	0.440793
O22	O	1.083421	-0.215315	-0.342642
O23	O	1.416754	0.118019	-0.009309
O24	O	1.750088	0.451352	0.324025
O25	O	1.297112	-0.452905	-0.354025
O26	O	1.630445	-0.119572	-0.020692
O27	O	1.963778	0.213761	0.312642
O28	O	1.180528	-0.215296	-0.439740
O29	O	1.513861	0.118038	-0.106407
O30	O	1.847194	0.451371	0.226927
O31	O	1.076833	-0.350513	-0.220967
O32	O	1.410167	-0.017179	0.112367
O33	O	1.743500	0.316154	0.445700
O34	O	0.948716	-0.350452	-0.349093
O35	O	1.282049	-0.017119	-0.015760
O36	O	1.615383	0.316215	0.317574
O37	O	1.071921	-0.452799	-0.579231
O38	O	1.405255	-0.119466	-0.245897
O39	O	1.738588	0.213868	0.087436
O40	O	0.943759	-0.452824	-0.451079
O41	O	1.277092	-0.119491	-0.117746
O42	O	1.610425	0.213842	0.215587
O43	O	1.173985	-0.350408	-0.574343
O44	O	1.507319	-0.017074	-0.241009
O45	O	1.840652	0.316259	0.092324
O46	O	1.162407	-0.588043	-0.360476
O47	O	1.495740	-0.254709	-0.027143
O48	O	1.829073	0.078624	0.306191
O49	O	1.065334	-0.587997	-0.457556
O50	O	1.398667	-0.254663	-0.124222
O51	O	1.732001	0.078670	0.209111
C52	C	0.917557	-0.401635	-0.400084
C53	C	1.250891	-0.068302	-0.066751
C54	C	1.584224	0.265032	0.266583
C55	C	0.829700	-0.401643	-0.400095
C56	C	1.163034	-0.068310	-0.066762
C57	C	1.496367	0.265023	0.266571
C58	C	1.112422	-0.618270	-0.410480
C59	C	1.445756	-0.284936	-0.077146
C60	C	1.779089	0.048397	0.256187
C61	C	1.108003	-0.710935	-0.414945
C62	C	1.441336	-0.377602	-0.081612
C63	C	1.774670	-0.044268	0.251721
C64	C	0.460783	-0.348314	-0.347103
C65	C	0.794116	-0.014980	-0.013769
C66	C	1.127449	0.318353	0.319564
C67	C	0.455662	-0.455080	-0.453153
C68	C	0.788995	-0.121747	-0.119819
C69	C	1.122328	0.211587	0.213514
C70	C	0.538208	-0.455068	-0.453147
C71	C	0.871541	-0.121735	-0.119814
C72	C	1.204875	0.211599	0.213519
C73	C	0.582046	-0.401679	-0.400118
C74	C	0.915379	-0.068346	-0.066785
C75	C	1.248712	0.264988	0.266549
C76	C	0.543337	-0.348302	-0.347094
C77	C	0.876670	-0.014968	-0.013761
C78	C	1.210003	0.318365	0.319573
C79	C	0.576923	-0.508450	-0.506165
C80	C	0.910256	-0.175117	-0.172832
C81	C	1.243590	0.158217	0.160502
C82	C	0.659474	-0.508441	-0.506161
C83	C	0.992808	-0.175108	-0.172828
C84	C	1.326141	0.158226	0.160506
C85	C	0.703314	-0.455047	-0.453135
C86	C	1.036647	-0.121714	-0.119802
C87	C	1.369980	0.211620	0.213532
C88	C	0.664600	-0.401667	-0.400109
C89	C	0.997933	-0.068334	-0.066776
C90	C	1.331266	0.265000	0.266557
C91	C	0.708437	-0.348278	-0.347080
C92	C	1.041771	-0.014945	-0.013747
C93	C	1.375104	0.318389	0.319587
C94	C	0.669725	-0.294893	-0.294058
C95	C	1.003059	0.038440	0.039276
C96	C	1.336392	0.371774	0.372609
C97	C	0.587176	-0.294908	-0.294068
C98	C	0.920509	0.038426	0.039266
C99	C	1.253843	0.371759	0.372599
C100	C	0.785863	-0.455032	-0.453125
C101	C	1.119196	-0.121699	-0.119791
C102	C	1.452529	0.211634	0.213542
C103	C	0.790991	-0.348266	-0.347071
C104	C	1.124325	-0.014933	-0.013738
C105	C	1.457658	0.318401	0.319595
C106	C	1.099938	-0.880596	-0.423114
C107	C	1.433272	-0.547263	-0.089781
C108	C	1.766605	-0.213929	0.243552
C109	C	1.146048	-0.921888	-0.377106
C110	C	1.479381	-0.588555	-0.043772
C111	C	1.812714	-0.255222	0.289561
C112	C	1.141561	-1.016293	-0.381651
C113	C	1.474894	-0.682960	-0.048318
C114	C	1.808227	-0.349627	0.285016
C115	C	1.104424	-0.786182	-0.418570
C116	C	1.437758	-0.452849	-0.085237
C117	C	1.771091	-0.119516	0.248097
C118	C	1.329089	-0.401691	-0.400123
C119	C	1.662422	-0.068357	-0.066790
C120	C	1.995756	0.264976	0.266543
C121	C	1.416945	-0.401703	-0.400132
C122	C	1.750278	-0.068369	-0.066799
C123	C	2.083612	0.264964	0.266535
C124	C	1.122959	-0.401593	-0.606268
C125	C	1.456292	-0.068260	-0.272935
C126	C	1.789625	0.265073	0.060398
C127	C	1.122974	-0.401564	-0.694124
C128	C	1.456307	-0.068231	-0.360790
C129	C	1.789641	0.265103	-0.027457
C130	C	1.133485	-0.184209	-0.389704
C131	C	1.466818	0.149124	-0.056371
C132	C	1.800151	0.482457	0.276963
C133	C	1.137986	-0.091544	-0.385272
C134	C	1.471319	0.241789	-0.051939
C135	C	1.804652	0.575123	0.281394
C136	C	1.069933	-0.454787	-1.068143
C137	C	1.403266	-0.121453	-0.734809
C138	C	1.736599	0.211880	-0.401476
C139	C	1.176213	-0.348166	-1.063048
C140	C	1.509546	-0.014832	-0.729715
C141	C	1.842879	0.318501	-0.396381
C142	C	1.176191	-0.348183	-0.980503
C143	C	1.509524	-0.014850	-0.647169
C144	C	1.842857	0.318483	-0.313836
C145	C	1.123040	-0.401504	-0.941774
C146	C	1.456373	-0.068171	-0.608441
C147	C	1.789706	0.265162	-0.275107
C148	C	1.069911	-0.454808	-0.985590
C149	C	1.403244	-0.121474	-0.652257
C150	C	1.736577	0.211859	-0.318923
C151	C	1.229324	-0.294887	-0.936681
C152	C	1.562658	0.038446	-0.603347
C153	C	1.895991	0.371780	-0.270014
C154	C	1.229305	-0.294903	-0.854130
C155	C	1.562638	0.038430	-0.520797
C156	C	1.895972	0.371764	-0.187464
C157	C	1.176150	-0.348221	-0.815400
C158	C	1.509483	-0.014887	-0.482067
C159	C	1.842816	0.318446	-0.148733
C160	C	1.123018	-0.401525	-0.859221
C161	C	1.456351	-0.068192	-0.525888
C162	C	1.789684	0.265141	-0.192555
C163	C	1.069867	-0.454846	-0.820492
C164	C	1.403200	-0.121513	-0.487159
C165	C	1.736533	0.211820	-0.153826
C166	C	1.016731	-0.508148	-0.864312
C167	C	1.350064	-0.174814	-0.530979
C168	C	1.683397	0.158519	-0.197646
C169	C	1.016755	-0.508125	-0.946860
C170	C	1.350089	-0.174792	-0.613526
C171	C	1.683422	0.158542	-0.280193
C172	C	1.176125	-0.348243	-0.732853
C173	C	1.509458	-0.014910	-0.399519
C174	C	1.842792	0.318424	-0.066186
C175	C	1.069845	-0.454867	-0.737940
C176	C	1.403178	-0.121534	-0.404607
C177	C	1.736512	0.211799	-0.071273
C178	C	1.122935	-0.401671	-0.194738
C179	C	1.456268	-0.068338	0.138596
C180	C	1.789601	0.264996	0.471929
C181	C	1.123084	-0.401466	-0.106872
C182	C	1.456417	-0.068132	0.226462
C183	C	1.789750	0.265201	0.559795
H184	H	0.826679	-0.304784	-0.303892
H185	H	1.160012	0.028549	0.029441
H186	H	1.493345	0.361882	0.362774
F187	F	0.960212	-0.564850	-0.993501
F188	F	1.293545	-0.231517	-0.660167
F189	F	1.626878	0.101817	-0.326834
F190	F	0.545971	-0.238097	-0.237643
F191	F	0.879304	0.095236	0.095691
F192	F	1.212637	0.428569	0.429024
H193	H	1.219390	-0.304848	-0.697178
H194	H	1.552723	0.028485	-0.363845
H195	H	1.886056	0.361818	-0.030512
H196	H	0.705428	-0.251427	-0.250878
H197	H	1.038762	0.081906	0.082456
H198	H	1.372095	0.415239	0.415789
F199	F	1.232781	-0.291427	-1.104268
F200	F	1.566115	0.041907	-0.770935
F201	F	1.899448	0.375240	-0.437602
F202	F	1.043939	-0.927058	-0.479056
F203	F	1.377272	-0.593725	-0.145723
F204	F	1.710606	-0.260392	0.187610
F205	F	0.419583	-0.291497	-0.290679
F206	F	0.752917	0.041837	0.042655
F207	F	1.086250	0.375170	0.375988
H208	H	0.419964	-0.498552	-0.496322
H209	H	0.753297	-0.165219	-0.162989
H210	H	1.086631	0.168115	0.170344
H211	H	0.541224	-0.551923	-0.549333
H212	H	0.874558	-0.218589	-0.216000
H213	H	1.207891	0.114744	0.117333
H214	H	1.026668	-0.498181	-1.103824
H215	H	1.360002	-0.164848	-0.770491
H216	H	1.693335	0.168486	-0.437158
H217	H	0.690987	-0.551910	-0.549336
H218	H	1.024320	-0.218576	-0.216002
H219	H	1.357653	0.114757	0.117331
H220	H	0.817378	-0.498500	-0.496292
H221	H	1.150712	-0.165167	-0.162959
H222	H	1.484045	0.168167	0.170374
H223	H	1.188892	-0.886339	-0.334302
H224	H	1.522226	-0.553006	-0.000969
H225	H	1.855559	-0.219672	0.332365
H226	H	1.272602	-0.251481	-0.968220
H227	H	1.605935	0.081852	-0.634887
H228	H	1.939268	0.415186	-0.301553
F229	F	1.013269	-0.511616	-0.696728
F230	F	1.346602	-0.178283	-0.363395
F231	F	1.679936	0.155051	-0.030062
H232	H	0.973458	-0.551565	-0.832769
H233	H	1.306792	-0.218232	-0.499435
H234	H	1.640125	0.115101	-0.166102
F235	F	1.285855	-0.238174	-0.807502
F236	F	1.619188	0.095159	-0.474168
F237	F	1.952521	0.428493	-0.140835
