data_functionalizedCrystal
_audit_creation_method	'MofGen! by Chris Wilmer'
_symmetry_space_group_name_H-M	'P1'
_symmetry_Int_Tables_number	1
_symmetry_cell_setting	triclinic
loop_
_symmetry_equiv_pos_as_xyz
  x,y,z
_cell_length_a	15.944493
_cell_length_b	15.944551
_cell_length_c	9.730223
_cell_angle_alpha	89.994648
_cell_angle_beta	89.997275
_cell_angle_gamma	83.486891
loop_
_atom_site_label
_atom_site_type_symbol
_atom_site_fract_x
_atom_site_fract_y
_atom_site_fract_z
O1	O	1.114553	0.108100	-0.114275
O2	O	1.614553	0.608100	0.385725
O3	O	0.869997	0.121507	-0.114282
O4	O	1.369997	0.621507	0.385718
O5	O	0.998953	-0.007473	-0.114266
O6	O	1.498953	0.492527	0.385734
O7	O	0.985597	0.237080	-0.114291
O8	O	1.485597	0.737080	0.385709
O9	O	0.998945	-0.007476	0.114314
O10	O	1.498945	0.492524	0.614314
O11	O	0.869988	0.121503	0.114298
O12	O	1.369988	0.621503	0.614298
O13	O	1.114545	0.108096	0.114305
O14	O	1.614545	0.608096	0.614305
Zn15	Zn	0.992265	0.114799	0.150594
Zn16	Zn	1.492265	0.614799	0.650594
Zn17	Zn	0.992276	0.114804	-0.150570
Zn18	Zn	1.492276	0.614804	0.349430
O19	O	0.985588	0.237076	0.114289
O20	O	1.485588	0.737076	0.614289
C21	C	0.838698	0.120957	0.000007
C22	C	1.338698	0.620957	0.500007
C23	C	0.745449	0.119314	0.000005
C24	C	1.245449	0.619314	0.500005
C25	C	0.509689	0.195235	-0.000004
C26	C	1.009689	0.695235	0.499996
C27	C	0.459127	0.154292	0.112708
C28	C	0.959127	0.654292	0.612708
C29	C	0.574728	0.116270	0.000008
C30	C	1.074728	0.616270	0.500008
C31	C	0.459140	0.154277	-0.112654
C32	C	0.959140	0.654277	0.387346
C33	C	0.409819	0.113336	0.000005
C34	C	0.909819	0.613336	0.500005
C35	C	0.525394	0.075349	0.112813
C36	C	1.025394	0.575349	0.612813
C37	C	0.525410	0.075345	-0.112650
C38	C	1.025410	0.575345	0.387350
C39	C	0.474880	0.034345	0.000089
C40	C	0.974880	0.534345	0.500089
C41	C	0.669728	0.117963	0.000011
C42	C	1.169728	0.617963	0.500011
C43	C	0.314821	0.111637	0.000012
C44	C	0.814821	0.611637	0.500012
C45	C	0.998395	-0.038768	0.000025
C46	C	1.498395	0.461232	0.500025
C47	C	0.996732	-0.132014	0.000025
C48	C	1.496732	0.367986	0.500025
C49	C	0.912826	-0.346853	0.000004
C50	C	1.412826	0.153147	0.500004
C51	C	0.951785	-0.407880	0.112709
C52	C	1.451785	0.092120	0.612709
C53	C	0.993725	-0.302739	0.000015
C54	C	1.493725	0.197261	0.500015
C55	C	0.951812	-0.407860	-0.112653
C56	C	1.451812	0.092140	0.387347
C57	C	0.990814	-0.467651	-0.000002
C58	C	1.490814	0.032349	0.499998
C59	C	1.032707	-0.362538	0.112813
C60	C	1.532707	0.137462	0.612813
C61	C	1.032722	-0.362512	-0.112651
C62	C	1.532722	0.137488	0.387349
C63	C	1.071741	-0.423521	0.000082
C64	C	1.571741	0.076479	0.500082
C65	C	0.995399	-0.207737	0.000025
C66	C	1.495399	0.292263	0.500025
C67	C	0.989146	-0.562652	-0.000002
C68	C	1.489146	-0.062652	0.499998
C69	C	1.145844	0.108646	0.000013
C70	C	1.645844	0.608646	0.500013
C71	C	1.239092	0.110289	0.000006
C72	C	1.739092	0.610289	0.500006
N73	N	0.992264	0.114796	0.356130
N74	N	1.492264	0.614796	0.856130
C75	C	0.986147	0.268372	-0.000004
C76	C	1.486147	0.768372	0.499996
C77	C	0.987809	0.361617	-0.000014
C78	C	1.487809	0.861617	0.499986
N79	N	0.992284	0.114801	-0.356107
N80	N	1.492284	0.614801	0.143893
C81	C	1.049385	0.057707	0.428063
C82	C	1.549385	0.557707	0.928063
C83	C	1.049394	0.057708	0.571946
C84	C	1.549394	0.557708	1.071946
C85	C	0.935157	0.171892	0.571950
C86	C	1.435157	0.671892	1.071950
C87	C	0.935145	0.171887	0.428070
C88	C	1.435145	0.671887	0.928070
H89	H	0.554218	0.042020	0.208197
H90	H	1.054218	0.542020	0.708197
Cl91	Cl	0.414442	0.205774	0.259814
Cl92	Cl	0.914442	0.705774	0.759814
H93	H	0.888626	0.218376	0.369498
H94	H	1.388626	0.718376	0.869498
H95	H	1.095906	0.011220	0.630510
H96	H	1.595906	0.511220	1.130510
Cl97	Cl	0.450992	-0.070748	0.000200
Cl98	Cl	0.950992	0.429252	0.500200
H99	H	1.095894	0.011219	0.369493
H100	H	1.595894	0.511219	0.869493
H101	H	0.845675	-0.313532	0.000114
H102	H	1.345675	0.186468	0.500114
H103	H	0.554360	0.042024	-0.207936
H104	H	1.054360	0.542024	0.292064
Cl105	Cl	1.085488	-0.331693	0.260084
Cl106	Cl	1.585488	0.168307	0.760084
Cl107	Cl	0.898967	-0.438866	-0.259751
Cl108	Cl	1.398967	0.061134	0.240249
Cl109	Cl	0.898954	-0.438919	0.259816
Cl110	Cl	1.398954	0.061081	0.759816
H111	H	0.430205	0.187642	-0.207929
H112	H	0.930205	0.687642	0.292071
Cl113	Cl	1.175504	-0.474742	0.000177
Cl114	Cl	1.675504	0.025258	0.500177
Cl115	Cl	0.533822	0.300247	0.000149
Cl116	Cl	1.033822	0.800247	0.500149
H117	H	1.066914	-0.342387	-0.207937
H118	H	1.566914	0.157613	0.292063
H119	H	0.888653	0.218376	0.630538
H120	H	1.388653	0.718376	1.130538
