data_functionalizedCrystal
_audit_creation_method	'MofGen! by Chris Wilmer'
_symmetry_space_group_name_H-M	'P1'
_symmetry_Int_Tables_number	1
_symmetry_cell_setting	triclinic
loop_
_symmetry_equiv_pos_as_xyz
  x,y,z
_cell_length_a	16.959447
_cell_length_b	12.759395
_cell_length_c	12.759394
_cell_angle_alpha	89.983626
_cell_angle_beta	90.027043
_cell_angle_gamma	89.983293
loop_
_atom_site_label
_atom_site_type_symbol
_atom_site_fract_x
_atom_site_fract_y
_atom_site_fract_z
Zn1	Zn	-0.446893	1.606228	0.418216
Zn2	Zn	-0.314719	1.606130	0.593919
Zn3	Zn	-0.314734	1.430538	0.418259
Zn4	Zn	-0.446861	1.430518	0.593858
O5	O	-0.380802	1.518354	0.506063
O6	O	-0.429368	1.753236	0.441531
O7	O	-0.204110	1.582805	0.570660
O8	O	-0.332284	1.453893	0.271232
O9	O	-0.332260	1.753164	0.570619
O10	O	-0.429381	1.582972	0.271201
O11	O	-0.204121	1.453798	0.441604
O12	O	-0.332253	1.283514	0.441545
O13	O	-0.557476	1.453859	0.570515
O14	O	-0.429326	1.283500	0.570557
O15	O	-0.557500	1.582953	0.441472
O16	O	-0.332228	1.582786	0.740932
O17	O	-0.429312	1.453764	0.740887
C18	C	-0.380788	1.245386	0.506050
C19	C	-0.380801	1.128610	0.506070
C20	C	-0.380783	1.518291	0.779030
C21	C	-0.380801	1.518360	0.895807
C22	C	-0.586970	1.518415	0.505982
C23	C	-0.674827	1.518441	0.505948
C24	C	-0.716097	1.585622	0.573124
C25	C	-0.716110	1.451278	0.438745
C26	C	-0.798656	1.451296	0.438714
C27	C	-0.839926	1.518477	0.505890
C28	C	-0.798650	1.585640	0.573097
C29	C	-0.839938	1.384126	0.371516
C30	C	-0.922489	1.384141	0.371483
C31	C	-0.963761	1.451328	0.438655
C32	C	-0.922480	1.518495	0.505864
C33	C	-0.963750	1.585676	0.573040
C34	C	-0.922470	1.652849	0.640244
C35	C	-0.839922	1.652827	0.640269
C36	C	-1.046309	1.451350	0.438630
C37	C	-1.046303	1.585694	0.573013
C38	C	-0.175435	1.518353	0.506068
C39	C	-0.087579	1.518531	0.505806
C40	C	-0.481720	1.128633	0.640627
C41	C	-0.532182	1.073784	0.707914
C42	C	-0.532191	0.964062	0.707927
C43	C	-0.481735	0.909187	0.640643
C44	C	-0.431274	0.964036	0.573357
C45	C	-0.431268	1.073760	0.573353
C46	C	-0.330360	0.964013	0.438795
C47	C	-0.330345	1.073734	0.438786
C48	C	-0.279904	0.909138	0.371512
C49	C	-0.229437	0.963987	0.304228
C50	C	-0.229429	1.073715	0.304219
C51	C	-0.279883	1.128583	0.371499
C52	C	-0.380816	1.792387	0.506077
C53	C	-0.380822	1.909164	0.506082
C54	C	-0.380838	1.518446	0.232030
C55	C	-0.380854	1.518485	0.115253
C56	C	-0.279783	1.652810	0.895800
C57	C	-0.229284	1.720063	0.950657
C58	C	-0.229305	1.720125	1.060379
C59	C	-0.279833	1.652929	1.115246
C60	C	-0.330333	1.585676	1.060389
C61	C	-0.330304	1.585619	0.950664
C62	C	-0.431353	1.451232	1.060396
C63	C	-0.431329	1.451164	0.950674
C64	C	-0.481881	1.384036	1.115262
C65	C	-0.532378	1.316776	1.060405
C66	C	-0.532354	1.316717	0.950677
C67	C	-0.481828	1.383911	0.895817
H68	H	-1.079900	1.640406	0.627713
H69	H	-0.481899	1.384095	1.204603
O70	O	-0.962462	1.318866	0.306099
C71	C	-0.908333	1.259548	0.246835
H72	H	-0.849492	1.302566	0.243223
H73	H	-0.932193	1.248372	0.164048
H74	H	-0.899544	1.179741	0.285311
O75	O	-0.799908	1.718008	0.705702
C76	C	-0.820047	1.694996	0.810406
H77	H	-0.879984	1.654635	0.812559
H78	H	-0.822860	1.770803	0.857524
H79	H	-0.773583	1.640945	0.845800
H80	H	-0.279879	1.217925	0.371501
H81	H	-0.481799	1.383862	0.806476
H82	H	-0.956083	1.707544	0.694942
H83	H	-0.279853	1.652994	1.204587
H84	H	-0.806330	1.329424	0.316832
H85	H	-0.682483	1.640315	0.627837
O86	O	-0.581293	0.910727	0.773135
C87	C	-0.632412	0.847276	0.713410
H88	H	-0.637407	0.880367	0.630673
H89	H	-0.693191	0.846042	0.751516
H90	H	-0.607977	0.764111	0.709748
H91	H	-0.682503	1.396576	0.384059
O92	O	-1.086321	1.385960	0.373410
C93	C	-1.066154	1.281237	0.396405
H94	H	-1.006211	1.279035	0.436813
H95	H	-1.063339	1.234141	0.320586
H96	H	-1.112603	1.245853	0.450407
H97	H	-0.188364	0.919299	0.249447
H98	H	-0.481711	1.217974	0.640632
H99	H	-0.573263	1.118475	0.762694
H100	H	-0.481755	0.819846	0.640651
H101	H	-0.188145	1.774776	0.905975
H102	H	-0.279919	0.819797	0.371522
H103	H	-0.573517	1.262076	1.105086
H104	H	-0.279750	1.652753	0.806459
O105	O	-0.180333	1.126830	0.238824
C106	C	-0.135821	1.054863	0.179429
H107	H	-0.133037	0.976638	0.222462
H108	H	-0.073555	1.086528	0.168108
H109	H	-0.164877	1.043229	0.099688
O110	O	-0.180177	1.785486	1.113510
C111	C	-0.135592	1.844804	1.041563
H112	H	-0.132809	1.801737	0.963384
H113	H	-0.073329	1.856068	1.073324
H114	H	-0.164582	1.924572	1.029803
O115	O	-0.581439	1.251291	0.897554
C116	C	-0.626053	1.192026	0.969514
H117	H	-0.593690	1.188450	1.047762
H118	H	-0.634437	1.109226	0.937875
H119	H	-0.686106	1.230476	0.981092
