data_functionalizedCrystal
_audit_creation_method	'MofGen! by Chris Wilmer'
_symmetry_space_group_name_H-M	'P1'
_symmetry_Int_Tables_number	1
_symmetry_cell_setting	triclinic
loop_
_symmetry_equiv_pos_as_xyz
  x,y,z
_cell_length_a	18.215405
_cell_length_b	12.759401
_cell_length_c	12.759393
_cell_angle_alpha	89.979434
_cell_angle_beta	90.036495
_cell_angle_gamma	89.976906
loop_
_atom_site_label
_atom_site_type_symbol
_atom_site_fract_x
_atom_site_fract_y
_atom_site_fract_z
Zn1	Zn	-0.292984	-1.606192	0.593966
Zn2	Zn	0.207016	-1.106192	1.093966
Zn3	Zn	-0.416068	-1.606052	0.418268
Zn4	Zn	0.083932	-1.106052	0.918268
Zn5	Zn	-0.293016	-1.430491	0.418302
Zn6	Zn	0.206984	-0.930491	0.918302
Zn7	Zn	-0.416009	-1.430451	0.593906
Zn8	Zn	0.083991	-0.930451	1.093906
O9	O	-0.354519	-1.518296	0.506110
O10	O	0.145481	-1.018296	1.006110
O11	O	-0.309322	-1.753194	0.570670
O12	O	0.190678	-1.253194	1.070670
O13	O	-0.399783	-1.582721	0.271251
O14	O	0.100217	-1.082721	0.771251
O15	O	-0.190027	-1.453873	0.441644
O16	O	0.309973	-0.953873	0.941644
O17	O	-0.399752	-1.753091	0.441585
O18	O	0.100248	-1.253091	0.941585
O19	O	-0.190004	-1.582960	0.570703
O20	O	0.309996	-1.082960	1.070703
O21	O	-0.309377	-1.453737	0.271276
O22	O	0.190623	-0.953737	0.771276
O23	O	-0.309320	-1.283464	0.441586
O24	O	0.190680	-0.783464	0.941586
O25	O	-0.399652	-1.453806	0.740935
O26	O	0.100348	-0.953806	1.240935
O27	O	-0.399683	-1.283436	0.570601
O28	O	0.100317	-0.783436	1.070601
O29	O	-0.309266	-1.582922	0.740979
O30	O	0.190734	-1.082922	1.240979
O31	O	-0.519044	-1.582683	0.441527
O32	O	-0.019044	-1.082683	0.941527
O33	O	-0.519001	-1.453670	0.570568
O34	O	-0.019001	-0.953670	1.070568
C35	C	-0.354499	-1.245329	0.506091
C36	C	0.145501	-0.745329	1.006091
C37	C	-0.354508	-1.128552	0.506108
C38	C	0.145492	-0.628552	1.006108
C39	C	-0.307505	-1.073745	0.573425
C40	C	0.192495	-0.573745	1.073425
C41	C	-0.307510	-0.964021	0.573430
C42	C	0.192490	-0.464021	1.073430
C43	C	-0.401527	-0.963922	0.438798
C44	C	0.098473	-0.463922	0.938798
C45	C	-0.401518	-1.073644	0.438789
C46	C	0.098482	-0.573644	0.938789
C47	C	-0.545726	-1.518186	0.506060
C48	C	-0.045726	-1.018186	1.006060
C49	C	-0.627524	-1.518234	0.506073
C50	C	-0.127524	-1.018234	1.006073
C51	C	-0.815716	-1.585569	0.439005
C52	C	-0.315716	-1.085569	0.939005
C53	C	-0.892575	-1.585616	0.439031
C54	C	-0.392575	-1.085616	0.939031
C55	C	-0.892570	-1.451158	0.573291
C56	C	-0.392570	-0.951158	1.073291
C57	C	-0.815713	-1.451117	0.573270
C58	C	-0.315713	-0.951117	1.073270
C59	C	-0.777288	-1.518321	0.506121
C60	C	-0.277288	-1.018321	1.006121
C61	C	-0.931004	-1.518409	0.506168
C62	C	-0.431004	-1.018409	1.006168
C63	C	-1.014338	-1.518460	0.506196
C64	C	-0.514338	-1.018460	1.006196
C65	C	-0.693949	-1.518272	0.506094
C66	C	-0.193949	-1.018272	1.006094
C67	C	-0.162566	-1.518436	0.506184
C68	C	0.337434	-1.018436	1.006184
C69	C	-0.080767	-1.518496	0.506215
C70	C	0.419233	-1.018496	1.006215
C71	C	-0.354449	-1.518375	0.780144
C72	C	0.145551	-1.018375	1.280144
C73	C	-0.354418	-1.518409	0.896921
C74	C	0.145582	-1.018409	1.396921
C75	C	-0.354533	-0.792330	0.506126
C76	C	0.145467	-0.292330	1.006126
C77	C	-0.354522	-0.909106	0.506123
C78	C	0.145478	-0.409106	1.006123
C79	C	-0.354537	-1.518279	0.233143
C80	C	0.145463	-1.018279	0.733143
C81	C	-0.354359	-1.518449	0.116367
C82	C	0.145641	-1.018449	0.616367
C83	C	-0.307347	-1.585644	0.951807
C84	C	0.192653	-1.085644	1.451807
C85	C	-0.307315	-1.585662	1.061531
C86	C	0.192685	-1.085662	1.561531
C87	C	-0.401433	-1.451206	1.061473
C88	C	0.098567	-0.951206	1.561473
C89	C	-0.401461	-1.451183	0.951750
C90	C	0.098539	-0.951183	1.451750
H91	H	-0.439794	-1.118269	0.383965
H92	H	0.060206	-0.618269	0.883965
H93	H	-0.923865	-1.396442	0.627959
H94	H	-0.423865	-0.896442	1.127959
O95	O	-0.452232	-0.904701	0.366196
O96	O	0.047768	-0.404701	0.866196
H97	H	-0.444348	-0.819196	0.377517
H98	H	0.055652	-0.319196	0.877517
H99	H	-0.269234	-0.919401	0.628245
H100	H	0.230766	-0.419401	1.128245
O101	O	-0.774268	-1.658061	0.366598
O102	O	-0.274268	-1.158061	0.866598
H103	H	-0.813906	-1.704839	0.319942
H104	H	-0.313906	-1.204839	0.819942
O105	O	-0.934026	-1.658141	0.366637
O106	O	-0.434026	-1.158141	0.866637
H107	H	-0.894392	-1.704855	0.319938
H108	H	-0.394392	-1.204855	0.819938
O109	O	-0.774256	-1.378568	0.645646
O110	O	-0.274256	-0.878568	1.145646
H111	H	-0.813886	-1.331827	0.692326
H112	H	-0.313886	-0.831827	1.192326
H113	H	-0.269040	-1.640381	0.907168
H114	H	0.230960	-1.140381	1.407168
H115	H	-0.268983	-1.640410	1.106215
H116	H	0.231017	-1.140410	1.606215
H117	H	-0.439791	-1.396425	0.907061
H118	H	0.060209	-0.896425	1.407061
O119	O	-0.256795	-1.132973	0.646015
O120	O	0.243205	-0.632973	1.146015
H121	H	-0.224105	-1.076423	0.692816
H122	H	0.275895	-0.576423	1.192816
O123	O	-0.452171	-1.378701	1.120609
O124	O	0.047829	-0.878701	1.620609
H125	H	-0.444249	-1.390017	1.206127
H126	H	0.055751	-0.890017	1.706127
