data_functionalizedCrystal
_audit_creation_method	'MofGen! by Chris Wilmer'
_symmetry_space_group_name_H-M	'P1'
_symmetry_Int_Tables_number	1
_symmetry_cell_setting	triclinic
loop_
_symmetry_equiv_pos_as_xyz
  x,y,z
_cell_length_a	10.654550
_cell_length_b	10.540539
_cell_length_c	9.130313
_cell_angle_alpha	90.000859
_cell_angle_beta	89.996220
_cell_angle_gamma	84.505197
loop_
_atom_site_label
_atom_site_type_symbol
_atom_site_fract_x
_atom_site_fract_y
_atom_site_fract_z
O1	O	1.667897	0.178295	-0.121912
O2	O	1.302424	0.195282	-0.121888
O3	O	1.493499	0.002079	-0.121899
O4	O	1.476823	0.371498	-0.121902
O5	O	1.493496	0.002084	0.121700
O6	O	1.302422	0.195287	0.121711
O7	O	1.667894	0.178300	0.121686
Cu8	Cu	1.485158	0.186794	0.143941
Cu9	Cu	1.485161	0.186788	-0.144143
O10	O	1.476820	0.371503	0.121697
C11	C	1.255625	0.194038	-0.000086
C12	C	1.116180	0.190306	-0.000077
C13	C	1.492247	-0.045221	-0.000102
C14	C	1.488505	-0.186168	-0.000110
C15	C	1.036734	0.304061	-0.000099
C16	C	0.905712	0.300547	-0.000124
C17	C	0.933595	0.069513	-0.000111
C18	C	1.064614	0.073028	-0.000075
C19	C	1.088301	0.421338	-0.000100
C20	C	1.008854	0.535103	-0.000124
C21	C	0.877832	0.531589	-0.000149
C22	C	0.826256	0.414310	-0.000151
C23	C	1.345134	-0.369543	-0.000647
C24	C	1.348927	-0.222926	-0.000099
C25	C	1.555675	-0.247846	0.138993
C26	C	1.550912	-0.394389	0.139110
C27	C	1.553753	-0.394914	-0.137907
C28	C	1.555039	-0.247933	-0.139747
C29	C	1.714694	0.179545	-0.000119
C30	C	1.854139	0.183276	-0.000138
C31	C	1.478072	0.418803	-0.000103
C32	C	1.481813	0.559750	-0.000105
N33	N	1.485165	0.186798	0.346564
N34	N	1.485163	0.186774	-0.346765
C35	C	1.569795	0.101277	0.423211
C36	C	1.569791	0.101262	0.576548
C37	C	1.400525	0.272300	0.576577
C38	C	1.400523	0.272308	0.423243
C39	C	1.654437	0.015767	0.346532
C40	C	1.739074	-0.069760	0.423179
C41	C	1.739071	-0.069775	0.576516
C42	C	1.654430	0.015736	0.653206
H43	H	1.194984	0.424213	-0.000086
H44	H	1.050855	0.630586	-0.000110
H45	H	1.807980	-0.139388	0.360731
H46	H	1.651295	-0.442394	0.145414
H47	H	1.129301	-0.019601	-0.000061
H48	H	1.807977	-0.139423	0.638921
H49	H	1.654426	0.015708	0.778063
H50	H	0.813149	0.624221	-0.000154
H51	H	1.654450	0.015774	0.221677
H52	H	0.891591	-0.025970	-0.000137
C53	C	1.270637	-0.408170	-0.135398
N54	N	1.214522	-0.437276	-0.236893
C55	C	0.682127	0.410452	-0.000173
N56	N	0.573569	0.407547	-0.000197
H57	H	1.331615	0.341921	0.639027
C58	C	1.277026	-0.166482	0.134848
N59	N	1.222869	-0.123969	0.236498
C60	C	1.307398	0.366357	0.338926
N61	N	1.237241	0.437185	0.275418
H62	H	1.296074	-0.180306	-0.099813
C63	C	1.270961	-0.410282	0.133399
N64	N	1.215103	-0.440956	0.234376
C65	C	1.694144	-0.217672	0.145995
N66	N	1.798436	-0.194934	0.151272
C67	C	1.483831	-0.432460	0.279585
N68	N	1.433299	-0.461127	0.385391
C69	C	1.492631	-0.190282	0.278849
N70	N	1.445138	-0.146927	0.384186
H71	H	1.508580	-0.426453	-0.243339
C72	C	1.488706	-0.192641	-0.278772
N73	N	1.438732	-0.150999	-0.383483
C74	C	1.692522	-0.215272	-0.151100
N75	N	1.796082	-0.190676	-0.159638
C76	C	1.689949	-0.458771	-0.139187
N77	N	1.792526	-0.506876	-0.140142
