data_functionalizedCrystal
_audit_creation_method	'MofGen! by Chris Wilmer'
_symmetry_space_group_name_H-M	'P1'
_symmetry_Int_Tables_number	1
_symmetry_cell_setting	triclinic
loop_
_symmetry_equiv_pos_as_xyz
  x,y,z
_cell_length_a	18.215407
_cell_length_b	13.897448
_cell_length_c	18.215399
_cell_angle_alpha	89.971263
_cell_angle_beta	89.983176
_cell_angle_gamma	90.018140
loop_
_atom_site_label
_atom_site_type_symbol
_atom_site_fract_x
_atom_site_fract_y
_atom_site_fract_z
Zn1	Zn	1.125087	-0.383990	-0.416124
Zn2	Zn	1.458420	-0.050657	-0.082791
Zn3	Zn	1.791754	0.282676	0.250542
Zn4	Zn	1.125017	-0.545307	-0.293061
Zn5	Zn	1.458351	-0.211973	0.040272
Zn6	Zn	1.791684	0.121360	0.373605
Zn7	Zn	1.002026	-0.384029	-0.293072
Zn8	Zn	1.335359	-0.050695	0.040262
Zn9	Zn	1.668693	0.282638	0.373595
Zn10	Zn	1.002001	-0.545246	-0.416086
Zn11	Zn	1.335334	-0.211913	-0.082753
Zn12	Zn	1.668667	0.121420	0.250580
O13	O	1.063533	-0.464643	-0.354586
O14	O	1.396866	-0.131310	-0.021253
O15	O	1.730199	0.202024	0.312081
O16	O	1.228062	-0.405399	-0.399811
O17	O	1.561395	-0.072065	-0.066478
O18	O	1.894729	0.261268	0.266855
O19	O	1.108684	-0.523954	-0.190078
O20	O	1.442017	-0.190621	0.143255
O21	O	1.775350	0.142712	0.476588
O22	O	1.018390	-0.249042	-0.309415
O23	O	1.351723	0.084291	0.023918
O24	O	1.685057	0.417625	0.357252
O25	O	1.228011	-0.523917	-0.309398
O26	O	1.561344	-0.190584	0.023936
O27	O	1.894677	0.142750	0.357269
O28	O	1.108802	-0.249014	-0.399821
O29	O	1.442136	0.084320	-0.066488
O30	O	1.775469	0.417653	0.266846
O31	O	1.018322	-0.405464	-0.190086
O32	O	1.351656	-0.072131	0.143247
O33	O	1.684989	0.261203	0.476581
O34	O	0.899038	-0.405405	-0.309378
O35	O	1.232372	-0.072072	0.023955
O36	O	1.565705	0.261261	0.357289
O37	O	1.018347	-0.523814	-0.519076
O38	O	1.351680	-0.190481	-0.185742
O39	O	1.685014	0.142853	0.147591
O40	O	0.899020	-0.523851	-0.399757
O41	O	1.232353	-0.190518	-0.066423
O42	O	1.565687	0.142815	0.266910
O43	O	1.108778	-0.405340	-0.519103
O44	O	1.442111	-0.072007	-0.185770
O45	O	1.775445	0.261327	0.147563
O46	O	1.108659	-0.680280	-0.309361
O47	O	1.441992	-0.346947	0.023973
O48	O	1.775326	-0.013614	0.357306
O49	O	1.018279	-0.680236	-0.399747
O50	O	1.351613	-0.346903	-0.066413
O51	O	1.684946	-0.013569	0.266920
C52	C	0.872326	-0.464627	-0.354565
C53	C	1.205660	-0.131293	-0.021231
C54	C	1.538993	0.202040	0.312102
C55	C	0.790528	-0.464643	-0.354573
C56	C	1.123861	-0.131309	-0.021240
C57	C	1.457194	0.202024	0.312094
C58	C	1.063479	-0.715257	-0.354565
C59	C	1.396812	-0.381924	-0.021231
C60	C	1.730146	-0.048591	0.312102
C61	C	1.063523	-0.822471	-0.354580
C62	C	1.396857	-0.489138	-0.021247
C63	C	1.730190	-0.155805	0.312087
C64	C	0.602343	-0.526414	-0.401574
C65	C	0.935677	-0.193081	-0.068241
C66	C	1.269010	0.140252	0.265093
C67	C	0.525485	-0.526417	-0.401583
C68	C	0.858818	-0.193084	-0.068250
C69	C	1.192151	0.140249	0.265083
C70	C	0.525474	-0.402889	-0.307614
C71	C	0.858807	-0.069556	0.025720
C72	C	1.192141	0.263778	0.359053
C73	C	0.602331	-0.402882	-0.307609
C74	C	0.935665	-0.069549	0.025725
C75	C	1.268998	0.263785	0.359058
C76	C	0.640764	-0.464650	-0.354588
C77	C	0.974097	-0.131317	-0.021255
C78	C	1.307431	0.202017	0.312079
C79	C	0.487048	-0.464660	-0.354602
C80	C	0.820381	-0.131327	-0.021269
C81	C	1.153715	0.202006	0.312065
C82	C	0.403714	-0.464663	-0.354612
C83	C	0.737048	-0.131330	-0.021278
C84	C	1.070381	0.202004	0.312055
C85	C	0.724103	-0.464646	-0.354579
C86	C	1.057436	-0.131313	-0.021246
C87	C	1.390770	0.202020	0.312087
C88	C	1.063601	-1.018766	-0.354626
C89	C	1.396934	-0.685433	-0.021293
C90	C	1.730267	-0.352100	0.312040
C91	C	1.063556	-0.909534	-0.354603
C92	C	1.396889	-0.576201	-0.021269
C93	C	1.730222	-0.242867	0.312064
C94	C	1.255486	-0.464660	-0.354607
C95	C	1.588819	-0.131327	-0.021274
C96	C	1.922152	0.202006	0.312059
C97	C	1.337284	-0.464668	-0.354617
C98	C	1.670618	-0.131334	-0.021283
C99	C	2.003951	0.201999	0.312050
C100	C	1.063567	-0.464566	-0.546539
C101	C	1.396901	-0.131233	-0.213206
C102	C	1.730234	0.202101	0.120128
C103	C	1.063582	-0.464533	-0.628338
C104	C	1.396916	-0.131200	-0.295004
C105	C	1.730249	0.202134	0.038329
C106	C	1.063607	-0.213050	-0.354623
C107	C	1.396940	0.120283	-0.021290
C108	C	1.730273	0.453617	0.312043
C109	C	1.063638	-0.105836	-0.354639
C110	C	1.396972	0.227497	-0.021306
C111	C	1.730305	0.560831	0.312027
C112	C	1.016571	-0.402794	-0.816537
C113	C	1.349904	-0.069460	-0.483203
C114	C	1.683238	0.263873	-0.149870
C115	C	1.016584	-0.402774	-0.893395
C116	C	1.349917	-0.069441	-0.560062
C117	C	1.683250	0.263893	-0.226729
C118	C	1.110682	-0.526158	-0.893377
C119	C	1.444015	-0.192824	-0.560044
C120	C	1.777348	0.140509	-0.226710
C121	C	1.110665	-0.526181	-0.816520
C122	C	1.443998	-0.192848	-0.483186
C123	C	1.777331	0.140485	-0.149853
C124	C	1.063610	-0.464494	-0.778101
C125	C	1.396944	-0.131160	-0.444768
C126	C	1.730277	0.202173	-0.111435
C127	C	1.063640	-0.464451	-0.931818
C128	C	1.396973	-0.131117	-0.598484
C129	C	1.730307	0.202216	-0.265151
C130	C	1.063654	-0.464430	-1.015151
C131	C	1.396988	-0.131097	-0.681818
C132	C	1.730321	0.202237	-0.348485
C133	C	1.063595	-0.464515	-0.694762
C134	C	1.396928	-0.131182	-0.361429
C135	C	1.730262	0.202151	-0.028096
C136	C	1.063540	-0.464650	-0.163380
C137	C	1.396874	-0.131317	0.169954
C138	C	1.730207	0.202016	0.503287
C139	C	1.063668	-0.464411	-0.081581
C140	C	1.397002	-0.131078	0.251752
C141	C	1.730335	0.202255	0.585086
H142	H	0.633633	-0.576708	-0.439829
H143	H	0.966966	-0.243374	-0.106496
H144	H	1.300299	0.089959	0.226837
H145	H	1.148971	-0.576429	-0.785225
H146	H	1.482305	-0.243095	-0.451891
H147	H	1.815638	0.090238	-0.118558
H148	H	0.494206	-0.576711	-0.439845
H149	H	0.827539	-0.243378	-0.106512
H150	H	1.160872	0.089956	0.226821
H151	H	0.494173	-0.352601	-0.269364
H152	H	0.827506	-0.019268	0.063970
H153	H	1.160840	0.314066	0.397303
H154	H	0.633615	-0.352580	-0.269347
H155	H	0.966948	-0.019247	0.063987
H156	H	1.300281	0.314087	0.397320
H157	H	0.978279	-0.352533	-0.924686
H158	H	1.311612	-0.019199	-0.591353
H159	H	1.644946	0.314134	-0.258019
H160	H	0.978256	-0.352564	-0.785259
H161	H	1.311590	-0.019230	-0.451925
H162	H	1.644923	0.314103	-0.118592
H163	H	1.148992	-0.576381	-0.924666
H164	H	1.482325	-0.243047	-0.591333
H165	H	1.815659	0.090286	-0.258000
