data_functionalizedCrystal
_audit_creation_method	'MofGen! by Chris Wilmer'
_symmetry_space_group_name_H-M	'P1'
_symmetry_Int_Tables_number	1
_symmetry_cell_setting	triclinic
loop_
_symmetry_equiv_pos_as_xyz
  x,y,z
_cell_length_a	19.121424
_cell_length_b	21.295417
_cell_length_c	21.295396
_cell_angle_alpha	89.893877
_cell_angle_beta	92.366534
_cell_angle_gamma	92.474490
loop_
_atom_site_label
_atom_site_type_symbol
_atom_site_fract_x
_atom_site_fract_y
_atom_site_fract_z
Zn1	Zn	1.073999	-0.209109	-0.314991
Zn2	Zn	1.323999	0.040891	-0.064991
Zn3	Zn	1.573999	0.290891	0.185009
Zn4	Zn	1.823999	0.540891	0.435009
Zn5	Zn	1.073796	-0.314523	-0.209724
Zn6	Zn	1.323796	-0.064523	0.040276
Zn7	Zn	1.573796	0.185477	0.290276
Zn8	Zn	1.823796	0.435477	0.540276
Zn9	Zn	0.956450	-0.213757	-0.214214
Zn10	Zn	1.206450	0.036243	0.035786
Zn11	Zn	1.456450	0.286243	0.285786
Zn12	Zn	1.706450	0.536243	0.535786
Zn13	Zn	0.956509	-0.318834	-0.319425
Zn14	Zn	1.206509	-0.068834	-0.069425
Zn15	Zn	1.456509	0.181166	0.180575
Zn16	Zn	1.706509	0.431166	0.430575
O17	O	1.015188	-0.264056	-0.264588
O18	O	1.265188	-0.014056	-0.014588
O19	O	1.515188	0.235944	0.235412
O20	O	1.765188	0.485944	0.485412
O21	O	1.172251	-0.219343	-0.297292
O22	O	1.422251	0.030657	-0.047292
O23	O	1.672251	0.280657	0.202708
O24	O	1.922251	0.530657	0.452708
O25	O	1.058121	-0.301298	-0.122234
O26	O	1.308121	-0.051298	0.127766
O27	O	1.558121	0.198702	0.377766
O28	O	1.808121	0.448702	0.627766
O29	O	0.972103	-0.125049	-0.227607
O30	O	1.222103	0.124951	0.022393
O31	O	1.472103	0.374951	0.272393
O32	O	1.722103	0.624951	0.522393
O33	O	1.172103	-0.296791	-0.219953
O34	O	1.422103	-0.046791	0.030047
O35	O	1.672103	0.203209	0.280047
O36	O	1.922103	0.453209	0.530047
O37	O	1.058465	-0.121634	-0.301647
O38	O	1.308465	0.128366	-0.051647
O39	O	1.558465	0.378366	0.198353
O40	O	1.808465	0.628366	0.448353
O41	O	0.971907	-0.227265	-0.125533
O42	O	1.221907	0.022735	0.124467
O43	O	1.471907	0.272735	0.374467
O44	O	1.721907	0.522735	0.624467
O45	O	0.858178	-0.231445	-0.231906
O46	O	1.108178	0.018555	0.018094
O47	O	1.358178	0.268555	0.268094
O48	O	1.608178	0.518555	0.518094
O49	O	0.972204	-0.304138	-0.406922
O50	O	1.222204	-0.054138	-0.156922
O51	O	1.472204	0.195862	0.093078
O52	O	1.722204	0.445862	0.343078
O53	O	0.858221	-0.308645	-0.309203
O54	O	1.108221	-0.058645	-0.059203
O55	O	1.358221	0.191355	0.190797
O56	O	1.608221	0.441355	0.440797
O57	O	1.058523	-0.223523	-0.403665
O58	O	1.308523	0.026477	-0.153665
O59	O	1.558523	0.276477	0.096335
O60	O	1.808523	0.526477	0.346335
O61	O	1.058178	-0.403187	-0.224252
O62	O	1.308178	-0.153187	0.025748
O63	O	1.558178	0.096813	0.275748
O64	O	1.808178	0.346813	0.525748
O65	O	0.972007	-0.406354	-0.304849
O66	O	1.222007	-0.156354	-0.054849
O67	O	1.472007	0.093646	0.195151
O68	O	1.722007	0.343646	0.445151
C69	C	0.832717	-0.271018	-0.271523
C70	C	1.082717	-0.021018	-0.021523
C71	C	1.332717	0.228982	0.228477
C72	C	1.582717	0.478982	0.478477
C73	C	0.754655	-0.274011	-0.274505
C74	C	1.004655	-0.024011	-0.024505
C75	C	1.254655	0.225989	0.225495
C76	C	1.504655	0.475989	0.475495
C77	C	0.313153	-0.292940	-0.293434
C78	C	0.563153	-0.042940	-0.043434
C79	C	0.813153	0.207060	0.206566
C80	C	1.063153	0.457060	0.456566
C81	C	0.386500	-0.290132	-0.290621
C82	C	0.636500	-0.040132	-0.040621
C83	C	0.886500	0.209868	0.209379
C84	C	1.136500	0.459868	0.459379
C85	C	0.423129	-0.248470	-0.249036
C86	C	0.673129	0.001530	0.000964
C87	C	0.923129	0.251530	0.250964
C88	C	1.173129	0.501530	0.500964
C89	C	0.386406	-0.209617	-0.210258
C90	C	0.636406	0.040383	0.039742
C91	C	0.886406	0.290383	0.289742
C92	C	1.136406	0.540383	0.539742
C93	C	0.313059	-0.212429	-0.213069
C94	C	0.563059	0.037571	0.036931
C95	C	0.813059	0.287571	0.286931
C96	C	1.063059	0.537571	0.536931
C97	C	0.644585	-0.237970	-0.238537
C98	C	0.894585	0.012030	0.011463
C99	C	1.144585	0.262030	0.261463
C100	C	1.394585	0.512030	0.511463
C101	C	0.717937	-0.235160	-0.235731
C102	C	0.967937	0.014840	0.014269
C103	C	1.217937	0.264840	0.264269
C104	C	1.467937	0.514840	0.514269
C105	C	0.718026	-0.315677	-0.316093
C106	C	0.968026	-0.065677	-0.066093
C107	C	1.218026	0.184323	0.183907
C108	C	1.468026	0.434323	0.433907
C109	C	0.644679	-0.318482	-0.318903
C110	C	0.894679	-0.068482	-0.068903
C111	C	1.144679	0.181518	0.181097
C112	C	1.394679	0.431518	0.431097
C113	C	0.607962	-0.279631	-0.280122
C114	C	0.857962	-0.029631	-0.030122
C115	C	1.107962	0.220369	0.219878
C116	C	1.357962	0.470369	0.469878
C117	C	0.498102	-0.245597	-0.246161
C118	C	0.748102	0.004403	0.003839
C119	C	0.998102	0.254403	0.253839
C120	C	1.248102	0.504403	0.503839
C121	C	0.532990	-0.282507	-0.282995
C122	C	0.782990	-0.032507	-0.032995
C123	C	1.032990	0.217493	0.217005
C124	C	1.282990	0.467493	0.467005
C125	C	1.015096	-0.427611	-0.264557
C126	C	1.265096	-0.177611	-0.014557
C127	C	1.515096	0.072389	0.235443
C128	C	1.765096	0.322389	0.485443
C129	C	1.015121	-0.497578	-0.264562
C130	C	1.265121	-0.247578	-0.014562
C131	C	1.515121	0.002422	0.235438
C132	C	1.765121	0.252422	0.485438
C133	C	1.060030	-0.528773	-0.222635
C134	C	1.310030	-0.278773	0.027365
C135	C	1.560030	-0.028773	0.277365
C136	C	1.810030	0.221227	0.527365
C137	C	1.060063	-0.594514	-0.222648
C138	C	1.310063	-0.344514	0.027352
C139	C	1.560063	-0.094514	0.277352
C140	C	1.810063	0.155486	0.527352
C141	C	1.015174	-0.629059	-0.264582
C142	C	1.265174	-0.379059	-0.014582
C143	C	1.515174	-0.129059	0.235418
C144	C	1.765174	0.120941	0.485418
C145	C	0.970262	-0.597856	-0.306517
C146	C	1.220262	-0.347856	-0.056517
C147	C	1.470262	-0.097856	0.193483
C148	C	1.720262	0.152144	0.443483
C149	C	0.970236	-0.532116	-0.306507
C150	C	1.220236	-0.282116	-0.056507
C151	C	1.470236	-0.032116	0.193493
C152	C	1.720236	0.217884	0.443493
N153	N	0.953741	-0.734666	-0.271716
N154	N	1.203741	-0.484666	-0.021716
N155	N	1.453741	-0.234666	0.228284
N156	N	1.703741	0.015334	0.478284
N157	N	0.953769	-0.797116	-0.271721
N158	N	1.203769	-0.547116	-0.021721
N159	N	1.453769	-0.297116	0.228279
N160	N	1.703769	-0.047116	0.478279
C161	C	1.015253	-0.827130	-0.264615
C162	C	1.265253	-0.577130	-0.014615
C163	C	1.515253	-0.327130	0.235385
C164	C	1.765253	-0.077130	0.485385
N165	N	1.076711	-0.792334	-0.257491
N166	N	1.326711	-0.542334	-0.007491
N167	N	1.576711	-0.292334	0.242509
N168	N	1.826711	-0.042334	0.492509
N169	N	1.076682	-0.729878	-0.257482
N170	N	1.326682	-0.479878	-0.007482
N171	N	1.576682	-0.229878	0.242518
N172	N	1.826682	0.020122	0.492518
C173	C	1.015199	-0.700343	-0.264598
C174	C	1.265199	-0.450343	-0.014598
C175	C	1.515199	-0.200343	0.235402
C176	C	1.765199	0.049657	0.485402
C177	C	1.060202	-0.929609	-0.222700
C178	C	1.310202	-0.679609	0.027300
C179	C	1.560202	-0.429609	0.277300
C180	C	1.810202	-0.179609	0.527300
C181	C	1.060236	-0.995352	-0.222717
C182	C	1.310236	-0.745352	0.027283
C183	C	1.560236	-0.495352	0.277283
C184	C	1.810236	-0.245352	0.527283
C185	C	0.970429	-0.998692	-0.306583
C186	C	1.220429	-0.748692	-0.056583
C187	C	1.470429	-0.498692	0.193417
C188	C	1.720429	-0.248692	0.443417
C189	C	0.970401	-0.932951	-0.306568
C190	C	1.220401	-0.682951	-0.056568
C191	C	1.470401	-0.432951	0.193432
C192	C	1.720401	-0.182951	0.443432
C193	C	1.015286	-0.898413	-0.264624
C194	C	1.265286	-0.648413	-0.014624
C195	C	1.515286	-0.398413	0.235376
C196	C	1.765286	-0.148413	0.485376
C197	C	1.198373	-0.257067	-0.257627
C198	C	1.448373	-0.007067	-0.007627
C199	C	1.698373	0.242933	0.242373
C200	C	1.948373	0.492933	0.492373
C201	C	1.276435	-0.254089	-0.254660
C202	C	1.526435	-0.004089	-0.004660
C203	C	1.776435	0.245911	0.245340
C204	C	2.026435	0.495911	0.495340
C205	C	1.015392	-0.263793	-0.428771
C206	C	1.265392	-0.013793	-0.178771
C207	C	1.515392	0.236207	0.071229
C208	C	1.765392	0.486207	0.321229
C209	C	1.015479	-0.263680	-0.498737
C210	C	1.265479	-0.013680	-0.248737
C211	C	1.515479	0.236320	0.001263
C212	C	1.765479	0.486320	0.251263
C213	C	1.015300	-0.099861	-0.264633
C214	C	1.265300	0.150139	-0.014633
C215	C	1.515300	0.400139	0.235367
C216	C	1.765300	0.650139	0.485367
C217	C	1.015348	-0.029891	-0.264652
C218	C	1.265348	0.220109	-0.014652
C219	C	1.515348	0.470109	0.235348
C220	C	1.765348	0.720109	0.485348
C221	C	1.015026	-0.264271	-0.101043
C222	C	1.265026	-0.014271	0.148957
C223	C	1.515026	0.235729	0.398957
C224	C	1.765026	0.485729	0.648957
C225	C	1.015075	-0.264201	-0.031073
C226	C	1.265075	-0.014201	0.218927
C227	C	1.515075	0.235799	0.468927
C228	C	1.765075	0.485799	0.718927
C229	C	0.970250	-0.225470	0.466639
C230	C	1.220250	0.024530	0.716639
C231	C	1.470250	0.274530	0.966639
C232	C	1.720250	0.524530	1.216639
C233	C	0.970195	-0.225536	0.400895
C234	C	1.220195	0.024464	0.650895
C235	C	1.470195	0.274464	0.900895
C236	C	1.720195	0.524464	1.150895
C237	C	1.015382	-0.263806	0.369778
C238	C	1.265382	-0.013806	0.619778
C239	C	1.515382	0.236194	0.869778
C240	C	1.765382	0.486194	1.119778
C241	C	1.060614	-0.302025	0.404410
C242	C	1.310614	-0.052025	0.654410
C243	C	1.560614	0.197975	0.904410
C244	C	1.810614	0.447975	1.154410
C245	C	1.060663	-0.301962	0.470153
C246	C	1.310663	-0.051962	0.720153
C247	C	1.560663	0.198038	0.970153
C248	C	1.810663	0.448038	1.220153
N249	N	1.076816	-0.265987	0.268807
N250	N	1.326816	-0.015987	0.518807
N251	N	1.576816	0.234013	0.768807
N252	N	1.826816	0.484013	1.018807
N253	N	1.076768	-0.266044	0.206354
N254	N	1.326768	-0.016044	0.456354
N255	N	1.576768	0.233956	0.706354
N256	N	1.826768	0.483956	0.956354
C257	C	1.015237	-0.263999	0.171698
C258	C	1.265237	-0.013999	0.421698
C259	C	1.515237	0.236001	0.671698
C260	C	1.765237	0.486001	0.921698
N261	N	0.953755	-0.261884	0.201854
N262	N	1.203755	-0.011884	0.451854
N263	N	1.453755	0.238116	0.701854
N264	N	1.703755	0.488116	0.951854
N265	N	0.953804	-0.261825	0.264313
N266	N	1.203804	-0.011825	0.514313
N267	N	1.453804	0.238175	0.764313
N268	N	1.703804	0.488175	1.014313
C269	C	1.015334	-0.263879	0.298490
C270	C	1.265334	-0.013879	0.548490
C271	C	1.515334	0.236121	0.798490
C272	C	1.765334	0.486121	1.048490
C273	C	0.969944	-0.225859	0.065786
C274	C	1.219944	0.024141	0.315786
C275	C	1.469944	0.274141	0.565786
C276	C	1.719944	0.524141	0.815786
C277	C	0.969888	-0.225929	0.000040
C278	C	1.219888	0.024071	0.250040
C279	C	1.469888	0.274071	0.500040
C280	C	1.719888	0.524071	0.750040
C281	C	1.060314	-0.302414	0.003557
C282	C	1.310314	-0.052414	0.253557
C283	C	1.560314	0.197586	0.503557
C284	C	1.810314	0.447586	0.753557
C285	C	1.060364	-0.302347	0.069301
C286	C	1.310364	-0.052347	0.319301
C287	C	1.560364	0.197653	0.569301
C288	C	1.810364	0.447653	0.819301
C289	C	1.015180	-0.264066	0.100411
C290	C	1.265180	-0.014066	0.350411
C291	C	1.515180	0.235934	0.600411
C292	C	1.765180	0.485934	0.850411
H293	H	0.614699	-0.206338	-0.206957
H294	H	0.864699	0.043662	0.043043
H295	H	1.114699	0.293662	0.293043
H296	H	1.364699	0.543662	0.543043
H297	H	0.933052	-0.194816	-0.028151
H298	H	1.183052	0.055184	0.221849
H299	H	1.433052	0.305184	0.471849
H300	H	1.683052	0.555184	0.721849
H301	H	0.283335	-0.326863	-0.327300
H302	H	0.533335	-0.076863	-0.077300
H303	H	0.783335	0.173137	0.172700
H304	H	1.033335	0.423137	0.422700
H305	H	1.097107	-0.333573	-0.021778
H306	H	1.347107	-0.083573	0.228222
H307	H	1.597107	0.166427	0.478222
H308	H	1.847107	0.416427	0.728222
H309	H	1.097497	-0.333077	0.498344
H310	H	1.347497	-0.083077	0.748344
H311	H	1.597497	0.166923	0.998344
H312	H	1.847497	0.416923	1.248344
H313	H	0.416234	-0.175697	-0.176396
H314	H	0.666234	0.074303	0.073604
H315	H	0.916234	0.324303	0.323604
H316	H	1.166234	0.574303	0.573604
H317	H	1.096636	-0.619918	-0.188506
H318	H	1.346636	-0.369918	0.061494
H319	H	1.596636	-0.119918	0.311494
H320	H	1.846636	0.130082	0.561494
H321	H	0.933715	-0.625986	-0.340661
H322	H	1.183715	-0.375986	-0.090661
H323	H	1.433715	-0.125986	0.159339
H324	H	1.683715	0.124014	0.409339
H325	H	0.283164	-0.180790	-0.181497
H326	H	0.533164	0.069210	0.068503
H327	H	0.783164	0.319210	0.318503
H328	H	1.033164	0.569210	0.568503
H329	H	0.933883	-1.026817	-0.340729
H330	H	1.183883	-0.776817	-0.090729
H331	H	1.433883	-0.526817	0.159271
H332	H	1.683883	-0.276817	0.409271
H333	H	0.933153	-0.194688	0.091117
H334	H	1.183153	0.055312	0.341117
H335	H	1.433153	0.305312	0.591117
H336	H	1.683153	0.555312	0.841117
H337	H	0.503164	-0.316431	-0.316851
H338	H	0.753164	-0.066431	-0.066851
H339	H	1.003164	0.183569	0.183149
H340	H	1.253164	0.433569	0.433149
H341	H	0.527933	-0.211675	-0.212304
H342	H	0.777933	0.038325	0.037696
H343	H	1.027933	0.288325	0.287696
H344	H	1.277933	0.538325	0.537696
H345	H	0.933829	-0.907550	-0.340707
H346	H	1.183829	-0.657550	-0.090707
H347	H	1.433829	-0.407550	0.159293
H348	H	1.683829	-0.157550	0.409293
H349	H	0.416393	-0.321771	-0.322193
H350	H	0.666393	-0.071771	-0.072193
H351	H	0.916393	0.178229	0.177807
H352	H	1.166393	0.428229	0.427807
H353	H	1.096810	-1.020749	-0.188576
H354	H	1.346810	-0.770749	0.061424
H355	H	1.596810	-0.520749	0.311424
H356	H	1.846810	-0.270749	0.561424
H357	H	1.097196	-0.333461	0.097493
H358	H	1.347196	-0.083461	0.347493
H359	H	1.597196	0.166539	0.597493
H360	H	1.847196	0.416539	0.847493
H361	H	0.933665	-0.506716	-0.340650
H362	H	1.183665	-0.256716	-0.090650
H363	H	1.433665	-0.006716	0.159350
H364	H	1.683665	0.243284	0.409350
H365	H	0.614861	-0.352409	-0.352764
H366	H	0.864861	-0.102409	-0.102764
H367	H	1.114861	0.147591	0.147236
H368	H	1.364861	0.397591	0.397236
H369	H	1.097406	-0.333185	0.379070
H370	H	1.347406	-0.083185	0.629070
H371	H	1.597406	0.166815	0.879070
H372	H	1.847406	0.416815	1.129070
H373	H	1.096752	-0.901488	-0.188548
H374	H	1.346752	-0.651488	0.061452
H375	H	1.596752	-0.401488	0.311452
H376	H	1.846752	-0.151488	0.561452
H377	H	1.096580	-0.500655	-0.188483
H378	H	1.346580	-0.250655	0.061517
H379	H	1.596580	-0.000655	0.311517
H380	H	1.846580	0.249345	0.561517
H381	H	0.747929	-0.347307	-0.347666
H382	H	0.997929	-0.097307	-0.097666
H383	H	1.247929	0.152693	0.152334
H384	H	1.497929	0.402693	0.402334
H385	H	0.933455	-0.194300	0.491965
H386	H	1.183455	0.055700	0.741965
H387	H	1.433455	0.305700	0.991965
H388	H	1.683455	0.555700	1.241965
H389	H	0.747757	-0.201225	-0.201873
H390	H	0.997757	0.048775	0.048127
H391	H	1.247757	0.298775	0.298127
H392	H	1.497757	0.548775	0.548127
H393	H	0.933365	-0.194417	0.372698
H394	H	1.183365	0.055583	0.622698
H395	H	1.433365	0.305583	0.872698
H396	H	1.683365	0.555583	1.122698
