data_functionalizedCrystal
_audit_creation_method	'MofGen! by Chris Wilmer'
_symmetry_space_group_name_H-M	'P1'
_symmetry_Int_Tables_number	1
_symmetry_cell_setting	triclinic
loop_
_symmetry_equiv_pos_as_xyz
  x,y,z
_cell_length_a	18.050582
_cell_length_b	13.897449
_cell_length_c	13.897448
_cell_angle_alpha	90.018519
_cell_angle_beta	89.979070
_cell_angle_gamma	89.983584
loop_
_atom_site_label
_atom_site_type_symbol
_atom_site_fract_x
_atom_site_fract_y
_atom_site_fract_z
Zn1	Zn	-0.419951	1.474636	-0.384055
Zn2	Zn	0.080049	1.974636	0.115945
Zn3	Zn	-0.295764	1.474550	-0.545349
Zn4	Zn	0.204236	1.974550	-0.045349
Zn5	Zn	-0.295772	1.313345	-0.384072
Zn6	Zn	0.204228	1.813345	0.115928
Zn7	Zn	-0.419909	1.313307	-0.545312
Zn8	Zn	0.080091	1.813307	-0.045312
O9	O	-0.357849	1.393960	-0.464697
O10	O	0.142151	1.893960	0.035303
O11	O	-0.403491	1.609606	-0.405459
O12	O	0.096509	2.109606	0.094541
O13	O	-0.191841	1.453145	-0.523979
O14	O	0.308159	1.953145	-0.023979
O15	O	-0.312264	1.334793	-0.249088
O16	O	0.187736	1.834793	0.250912
O17	O	-0.312252	1.609543	-0.523962
O18	O	0.187748	2.109543	-0.023962
O19	O	-0.403498	1.453293	-0.249076
O20	O	0.096502	1.953293	0.250924
O21	O	-0.191846	1.334709	-0.405489
O22	O	0.308154	1.834709	0.094511
O23	O	-0.312225	1.178358	-0.405453
O24	O	0.187775	1.678358	0.094547
O25	O	-0.523840	1.334728	-0.523898
O26	O	-0.023840	1.834728	-0.023898
O27	O	-0.403428	1.178330	-0.523915
O28	O	0.096572	1.678330	-0.023915
O29	O	-0.523870	1.453256	-0.405423
O30	O	-0.023870	1.953256	0.094577
O31	O	-0.312212	1.453109	-0.680326
O32	O	0.187788	1.953109	-0.180326
O33	O	-0.403421	1.334644	-0.680299
O34	O	0.096579	1.834644	-0.180299
C35	C	-0.357823	1.143345	-0.464682
C36	C	0.142177	1.643345	0.035318
C37	C	-0.357830	1.036131	-0.464699
C38	C	0.142170	1.536131	0.035301
C39	C	-0.357842	0.949061	-0.464702
C40	C	0.142158	1.449061	0.035298
C41	C	-0.357865	0.839829	-0.464709
C42	C	0.142135	1.339829	0.035291
C43	C	-0.551555	1.393997	-0.464654
C44	C	-0.051555	1.893997	0.035346
C45	C	-0.634100	1.394013	-0.464636
C46	C	-0.134100	1.894013	0.035364
C47	C	-0.833535	1.329607	-0.528975
C48	C	-0.333535	1.829607	-0.028975
C49	C	-0.882928	1.417615	-0.552552
C50	C	-0.382928	1.917615	-0.052552
C51	C	-0.785231	1.394061	-0.464563
C52	C	-0.285231	1.894061	0.035437
C53	C	-0.882919	1.306102	-0.440959
C54	C	-0.382919	1.806102	0.059041
C55	C	-0.931216	1.394099	-0.464493
C56	C	-0.431216	1.894099	0.035507
C57	C	-0.833537	1.482115	-0.488186
C58	C	-0.333537	1.982115	0.011814
C59	C	-0.833524	1.370542	-0.376551
C60	C	-0.333524	1.870542	0.123449
C61	C	-0.882895	1.458611	-0.400095
C62	C	-0.382895	1.958611	0.099905
C63	C	-0.701133	1.394038	-0.464605
C64	C	-0.201133	1.894038	0.035395
C65	C	-1.015313	1.394132	-0.464451
C66	C	-0.515313	1.894132	0.035549
C67	C	-0.164897	1.393977	-0.464670
C68	C	0.335103	1.893977	0.035330
C69	C	-0.082351	1.394148	-0.464417
C70	C	0.417649	1.894148	0.035583
C71	C	-0.357827	1.393889	-0.715311
C72	C	0.142173	1.893889	-0.215311
C73	C	-0.357843	1.393947	-0.822525
C74	C	0.142157	1.893947	-0.322525
C75	C	-0.357875	1.645552	-0.464713
C76	C	0.142125	2.145552	0.035287
C77	C	-0.357887	1.752766	-0.464719
C78	C	0.142113	2.252766	0.035281
C79	C	-0.357890	1.394049	-1.018820
C80	C	0.142110	1.894049	-0.518820
C81	C	-0.357866	1.393989	-0.909588
C82	C	0.142134	1.893989	-0.409588
C83	C	-0.357887	1.394056	-0.213104
C84	C	0.142113	1.894056	0.286896
C85	C	-0.357903	1.394098	-0.105890
C86	C	0.142097	1.894098	0.394110
H87	H	-0.811862	1.275152	-0.583517
H88	H	-0.311862	1.775152	-0.083517
H89	H	-0.904611	1.231700	-0.421023
H90	H	-0.404611	1.731700	0.078977
H91	H	-0.904629	1.437531	-0.626952
H92	H	-0.404629	1.937531	-0.126952
C93	C	-0.804363	1.582667	-0.515188
C94	C	-0.304363	2.082667	-0.015188
H95	H	-0.751733	1.582034	-0.515066
H96	H	-0.251733	2.082034	-0.015066
H97	H	-0.821669	1.628468	-0.469671
H98	H	-0.321669	2.128468	0.030329
H99	H	-0.821679	1.599525	-0.577488
H100	H	-0.321679	2.099525	-0.077488
C101	C	-0.911997	1.532345	-0.326473
C102	C	-0.411997	2.032345	0.173527
H103	H	-0.894997	1.594785	-0.343374
H104	H	-0.394997	2.094785	0.156626
H105	H	-0.894333	1.516158	-0.264165
H106	H	-0.394333	2.016158	0.235835
H107	H	-0.964624	1.531594	-0.326478
H108	H	-0.464624	2.031594	0.173522
C109	C	-0.804178	1.343604	-0.276077
C110	C	-0.304178	1.843604	0.223923
H111	H	-0.821056	1.281042	-0.259424
H112	H	-0.321056	1.781042	0.240576
H113	H	-0.821814	1.388765	-0.230134
H114	H	-0.321814	1.888765	0.269866
H115	H	-0.751554	1.344364	-0.276693
H116	H	-0.251554	1.844364	0.223307
