data_functionalizedCrystal
_audit_creation_method	'MofGen! by Chris Wilmer'
_symmetry_space_group_name_H-M	'P1'
_symmetry_Int_Tables_number	1
_symmetry_cell_setting	triclinic
loop_
_symmetry_equiv_pos_as_xyz
  x,y,z
_cell_length_a	6.817900
_cell_length_b	12.200863
_cell_length_c	14.858340
_cell_angle_alpha	93.924527
_cell_angle_beta	104.519754
_cell_angle_gamma	107.143441
loop_
_atom_site_label
_atom_site_type_symbol
_atom_site_fract_x
_atom_site_fract_y
_atom_site_fract_z
V1	V	-4.056885	-0.159444	-0.290055
V2	V	-3.806885	0.090556	-0.040055
V3	V	-3.556885	0.340556	0.209945
V4	V	-3.306885	0.590556	0.459945
O5	O	-4.024763	0.006909	-0.284437
O6	O	-3.774763	0.256909	-0.034437
O7	O	-3.524763	0.506909	0.215563
O8	O	-3.274763	0.756909	0.465563
O9	O	-4.026528	-0.315427	-0.288165
O10	O	-3.776528	-0.065427	-0.038165
O11	O	-3.526528	0.184573	0.211835
O12	O	-3.276528	0.434573	0.461835
O13	O	-4.013258	-0.157322	-0.416516
O14	O	-3.763258	0.092678	-0.166516
O15	O	-3.513258	0.342678	0.083484
O16	O	-3.263258	0.592678	0.333484
O17	O	-4.038125	-0.152291	-0.155197
O18	O	-3.788125	0.097709	0.094803
O19	O	-3.538125	0.347709	0.344803
O20	O	-3.288125	0.597709	0.594803
V21	V	-4.537556	-0.139507	-0.273914
V22	V	-4.287556	0.110493	-0.023914
V23	V	-4.037556	0.360493	0.226086
V24	V	-3.787556	0.610493	0.476086
O25	O	-4.324398	-0.203177	-0.325463
O26	O	-4.074398	0.046823	-0.075463
O27	O	-3.824398	0.296823	0.174537
O28	O	-3.574398	0.546823	0.424537
O29	O	-4.720240	-0.095774	-0.238506
O30	O	-4.470240	0.154226	0.011494
O31	O	-4.220240	0.404226	0.261494
O32	O	-3.970240	0.654226	0.511494
O33	O	-4.344706	0.016475	-0.275804
O34	O	-4.094706	0.266475	-0.025804
O35	O	-3.844706	0.516475	0.224196
O36	O	-3.594706	0.766475	0.474196
O37	O	-4.687075	-0.305861	-0.279533
O38	O	-4.437075	-0.055861	-0.029533
O39	O	-4.187075	0.194139	0.220467
O40	O	-3.937075	0.444139	0.470467
O41	O	-4.673712	-0.146661	-0.408772
O42	O	-4.423712	0.103339	-0.158772
O43	O	-4.173712	0.353339	0.091228
O44	O	-3.923712	0.603339	0.341228
O45	O	-4.357976	-0.141630	-0.147453
O46	O	-4.107976	0.108370	0.102547
O47	O	-3.857976	0.358370	0.352547
O48	O	-3.607976	0.608370	0.602547
C49	C	-3.875764	-0.353442	-0.283613
C50	C	-3.625764	-0.103442	-0.033613
C51	C	-3.375764	0.146558	0.216387
C52	C	-3.125764	0.396558	0.466387
C53	C	-3.932263	-0.480962	-0.282911
C54	C	-3.682263	-0.230962	-0.032911
C55	C	-3.432263	0.019038	0.217089
C56	C	-3.182263	0.269038	0.467089
C57	C	-4.035667	-0.714436	-0.281632
C58	C	-3.785667	-0.464436	-0.031632
C59	C	-3.535667	-0.214436	0.218368
C60	C	-3.285667	0.035564	0.468368
C61	C	-3.978118	-0.584514	-0.282344
C62	C	-3.728118	-0.334514	-0.032344
C63	C	-3.478118	-0.084514	0.217656
C64	C	-3.228118	0.165486	0.467656
C65	C	-3.858835	-0.151762	-0.447336
C66	C	-3.608835	0.098238	-0.197336
C67	C	-3.358835	0.348238	0.052664
C68	C	-3.108835	0.598238	0.302664
C69	C	-3.904568	-0.151059	-0.550719
C70	C	-3.654568	0.098941	-0.300719
C71	C	-3.404568	0.348941	-0.050719
C72	C	-3.154568	0.598941	0.199281
C73	C	-3.941706	-0.150486	-0.634677
C74	C	-3.691706	0.099514	-0.384677
C75	C	-3.441706	0.349514	-0.134677
C76	C	-3.191706	0.599514	0.115323
C77	C	-3.988312	-0.149764	-0.740006
C78	C	-3.738312	0.100236	-0.490006
C79	C	-3.488312	0.350236	-0.240006
C80	C	-3.238312	0.600236	0.009994
C81	C	-4.025474	-0.149188	-0.823957
C82	C	-3.775474	0.100812	-0.573957
C83	C	-3.525474	0.350812	-0.323957
C84	C	-3.275474	0.600812	-0.073957
C85	C	-4.072085	-0.148467	-0.929293
C86	C	-3.822085	0.101533	-0.679293
C87	C	-3.572085	0.351533	-0.429293
C88	C	-3.322085	0.601533	-0.179293
C89	C	-4.158813	0.054484	-0.280353
C90	C	-3.908813	0.304484	-0.030353
C91	C	-3.658813	0.554484	0.219647
C92	C	-3.408813	0.804484	0.469647
C93	C	-4.081553	0.182003	-0.281062
C94	C	-3.831553	0.432003	-0.031062
C95	C	-3.581553	0.682003	0.218938
C96	C	-3.331553	0.932003	0.468938
C97	C	-4.175741	-0.147194	-0.116628
C98	C	-3.925741	0.102806	0.133372
C99	C	-3.675741	0.352806	0.383372
C100	C	-3.425741	0.602806	0.633372
C101	C	-4.109246	-0.147891	-0.013244
C102	C	-3.859246	0.102109	0.236756
C103	C	-3.609246	0.352109	0.486756
C104	C	-3.359246	0.602109	0.736756
