data_functionalizedCrystal
_audit_creation_method	'MofGen! by Chris Wilmer'
_symmetry_space_group_name_H-M	'P1'
_symmetry_Int_Tables_number	1
_symmetry_cell_setting	triclinic
loop_
_symmetry_equiv_pos_as_xyz
  x,y,z
_cell_length_a	23.532361
_cell_length_b	22.610064
_cell_length_c	11.026607
_cell_angle_alpha	90.000132
_cell_angle_beta	84.292158
_cell_angle_gamma	90.010993
loop_
_atom_site_label
_atom_site_type_symbol
_atom_site_fract_x
_atom_site_fract_y
_atom_site_fract_z
O1	O	0.770731	0.049123	-0.146851
O2	O	0.607109	0.049136	-0.168197
O3	O	0.675360	0.049129	0.018961
O4	O	0.702481	0.049131	-0.334009
O5	O	0.675334	-0.049241	0.018961
O6	O	0.607084	-0.049233	-0.168197
O7	O	0.770706	-0.049247	-0.146851
Zn8	Zn	0.688891	-0.064858	-0.157524
Zn9	Zn	0.688925	0.064748	-0.157524
O10	O	0.702456	-0.049239	-0.334009
C11	C	0.585824	-0.000046	-0.167663
C12	C	0.522436	-0.000041	-0.166056
C13	C	0.248467	0.053576	-0.159026
C14	C	0.308027	0.053578	-0.160547
O15	O	0.338843	0.099180	-0.161292
N16	N	0.337800	-0.000043	-0.161316
C17	C	0.308009	-0.053670	-0.160550
O18	O	0.338801	-0.099279	-0.161343
C19	C	0.248450	-0.053670	-0.159020
C20	C	0.218681	-0.000046	-0.158264
C21	C	0.218698	0.107197	-0.158268
C22	C	0.159143	0.107195	-0.156749
C23	C	0.129356	0.053573	-0.155988
C24	C	0.159125	-0.000047	-0.156745
C25	C	0.218660	-0.107296	-0.158246
C26	C	0.159096	-0.107292	-0.156715
C27	C	0.129327	-0.053667	-0.155959
C28	C	0.069783	-0.053671	-0.154464
N29	N	0.040011	-0.000050	-0.153696
C30	C	0.069797	0.053572	-0.154457
C31	C	0.433087	-0.053664	-0.163761
C32	C	0.492645	-0.053664	-0.165300
C33	C	0.492659	0.053584	-0.165295
C34	C	0.433100	0.053583	-0.163764
C35	C	0.403314	-0.000042	-0.162993
C36	C	-0.055274	0.053565	-0.151268
C37	C	-0.114835	0.053558	-0.149754
C38	C	-0.114844	-0.053689	-0.149754
C39	C	-0.055288	-0.053683	-0.151274
C40	C	-0.025505	-0.000051	-0.152027
O41	O	0.038929	-0.099249	-0.153714
O42	O	0.038996	0.099174	-0.153649
N43	N	0.688872	-0.153310	-0.157523
C44	C	0.730960	-0.561954	-0.230633
C45	C	0.730966	-0.623874	-0.230630
O46	O	0.766727	-0.655895	-0.292782
N47	N	0.688934	-0.654847	-0.157510
C48	C	0.646896	-0.623898	-0.084380
O49	O	0.611145	-0.655928	-0.022185
C50	C	0.646892	-0.561979	-0.084377
C51	C	0.688923	-0.531009	-0.157511
C52	C	0.772988	-0.530984	-0.303759
C53	C	0.772981	-0.469069	-0.303764
C54	C	0.730944	-0.438123	-0.230642
C55	C	0.688916	-0.469093	-0.157515
C56	C	0.604856	-0.531030	-0.011241
C57	C	0.604856	-0.469107	-0.011244
C58	C	0.646888	-0.438137	-0.084377
C59	C	0.646872	-0.376232	-0.084397
N60	N	0.688904	-0.345259	-0.157517
C61	C	0.730940	-0.376204	-0.230639
C62	C	0.646908	-0.753931	-0.084389
C63	C	0.646909	-0.815849	-0.084397
C64	C	0.730980	-0.815821	-0.230646
C65	C	0.730976	-0.753903	-0.230643
C66	C	0.688940	-0.722958	-0.157509
C67	C	0.730921	-0.246177	-0.230644
C68	C	0.730908	-0.184256	-0.230645
C69	C	0.646838	-0.184289	-0.084393
C70	C	0.646849	-0.246204	-0.084395
C71	C	0.688895	-0.277147	-0.157524
O72	O	0.611130	-0.344172	-0.022273
O73	O	0.766689	-0.344166	-0.292812
C74	C	0.791991	-0.000062	-0.147385
C75	C	0.855379	-0.000064	-0.148993
C76	C	0.670343	-0.000055	0.064109
C77	C	0.655428	-0.000052	0.198638
N78	N	0.688947	0.153200	-0.157515
C79	C	0.707472	-0.000054	-0.379158
C80	C	0.722387	-0.000053	-0.513687
C81	C	0.696612	-0.000054	0.272955
C82	C	0.681197	-0.000051	0.411998
H83	H	0.408866	0.097249	-0.163149
H84	H	0.134848	-0.150962	-0.156097
H85	H	0.612612	-0.159082	-0.024862
O86	O	0.599727	-0.000124	0.245381
C87	C	0.572490	-0.051076	0.205429
H88	H	0.596923	-0.068066	0.117890
H89	H	0.571615	-0.086748	0.278661
C90	C	0.480908	-0.014726	0.288631
C91	C	0.510914	-0.035591	0.181108
H92	H	0.442924	-0.005176	0.273633
H93	H	0.499258	0.019600	0.315552
H94	H	0.480185	-0.044456	0.349647
H95	H	0.511643	-0.005858	0.120099
H96	H	0.492563	-0.069912	0.154176
H97	H	0.634523	-0.000043	0.451305
H98	H	0.807222	-0.556174	-0.363304
H99	H	0.807209	-0.443858	-0.363312
H100	H	0.242944	0.150865	-0.158884
H101	H	-0.139070	0.097228	-0.149142
O102	O	0.778051	0.000020	0.439293
C103	C	0.789146	0.050973	0.367081
H104	H	0.747523	0.067962	0.335158
H105	H	0.808629	0.086646	0.423181
C106	C	0.882294	0.014627	0.294750
C107	C	0.831172	0.035490	0.255533
H108	H	0.908219	0.005079	0.225944
H109	H	0.874820	-0.019699	0.343404
H110	H	0.898523	0.044358	0.341501
H111	H	0.814941	0.005757	0.208796
H112	H	0.838644	0.069812	0.206868
O113	O	0.130158	0.159248	-0.155837
C114	C	0.091413	0.162463	-0.049958
H115	H	0.081041	0.115905	-0.014738
H116	H	0.111360	0.188918	0.022967
C117	C	0.048893	0.250312	-0.123644
C118	C	0.036151	0.193128	-0.080392
H119	H	0.014805	0.269230	-0.142414
H120	H	0.074997	0.248148	-0.194975
H121	H	0.065516	0.272351	-0.062866
H122	H	0.019534	0.171089	-0.141175
H123	H	0.010042	0.195289	-0.009072
H124	H	0.765208	-0.841028	-0.290188
O125	O	0.521668	0.105637	-0.166189
C126	C	0.560419	0.108854	-0.272062
H127	H	0.570765	0.062297	-0.307296
H128	H	0.540489	0.135322	-0.344981
C129	C	0.602986	0.196685	-0.198339
C130	C	0.615697	0.139503	-0.241608
H131	H	0.637084	0.215593	-0.179557
H132	H	0.576878	0.194520	-0.127012
H133	H	0.586378	0.218734	-0.259112
H134	H	0.632299	0.117453	-0.180830
H135	H	0.641809	0.141665	-0.312925
O136	O	0.771864	-0.723912	-0.301710
C137	C	0.808954	-0.764511	-0.366272
H138	H	0.807129	-0.808649	-0.316060
H139	H	0.795269	-0.771100	-0.461667
C140	C	0.872659	-0.686126	-0.437433
C141	C	0.870422	-0.740335	-0.375756
H142	H	0.910576	-0.671213	-0.443289
H143	H	0.847671	-0.658773	-0.393941
H144	H	0.861253	-0.691624	-0.516923
H145	H	0.881821	-0.734836	-0.296264
H146	H	0.895414	-0.767687	-0.419235
H147	H	-0.031031	0.097237	-0.151883
H148	H	0.408839	-0.097335	-0.163149
O149	O	0.521469	-0.105808	-0.165992
C150	C	0.482401	-0.153132	-0.165027
H151	H	0.438375	-0.137408	-0.125569
H152	H	0.480054	-0.169617	-0.262110
C153	C	0.556442	-0.223110	-0.134595
C154	C	0.502369	-0.203798	-0.086122
H155	H	0.568760	-0.254365	-0.085928
H156	H	0.582764	-0.191227	-0.135250
H157	H	0.554479	-0.236844	-0.215496
H158	H	0.504334	-0.190058	-0.005228
H159	H	0.476048	-0.235680	-0.085452
O160	O	0.247531	-0.159404	-0.158755
C161	C	0.228644	-0.192022	-0.053411
H162	H	0.209272	-0.160638	0.020371
H163	H	0.195032	-0.225450	-0.076254
C164	C	0.303375	-0.263437	-0.097770
C165	C	0.279587	-0.224890	-0.007146
H166	H	0.334798	-0.283714	-0.069233
H167	H	0.316099	-0.241463	-0.168745
H168	H	0.275360	-0.291289	-0.116797
H169	H	0.307600	-0.197035	0.011869
H170	H	0.266869	-0.246860	0.063834
O171	O	-0.026457	-0.105826	-0.151958
C172	C	-0.065521	-0.153153	-0.150996
H173	H	-0.109550	-0.137432	-0.111552
H174	H	-0.067861	-0.169643	-0.248078
C175	C	0.008523	-0.223123	-0.120531
C176	C	-0.045554	-0.203815	-0.072075
H177	H	0.020840	-0.254375	-0.071855
H178	H	0.034842	-0.191238	-0.121184
H179	H	0.006566	-0.236861	-0.201432
H180	H	-0.043595	-0.190071	0.008817
H181	H	-0.071872	-0.235699	-0.071407
O182	O	0.606122	-0.845904	-0.013185
C183	C	0.609263	-0.830755	0.110006
H184	H	0.653934	-0.813723	0.122234
H185	H	0.576558	-0.794821	0.137797
C186	C	0.541666	-0.906679	0.175495
C187	C	0.596533	-0.885763	0.190516
H188	H	0.533811	-0.940609	0.225160
H189	H	0.539548	-0.916883	0.092499
H190	H	0.514418	-0.876728	0.198653
H191	H	0.623780	-0.915711	0.167344
H192	H	0.598655	-0.875565	0.273510
O193	O	0.771797	-0.154264	-0.301720
C194	C	0.808892	-0.194860	-0.366276
H195	H	0.807072	-0.238996	-0.316058
H196	H	0.795210	-0.201454	-0.461671
C197	C	0.872590	-0.116469	-0.437442
C198	C	0.870358	-0.170677	-0.375759
H199	H	0.910504	-0.101551	-0.443298
H200	H	0.847597	-0.089118	-0.393954
H201	H	0.861185	-0.121971	-0.516932
H202	H	0.881755	-0.165173	-0.296267
H203	H	0.895353	-0.198027	-0.419234
O204	O	-0.143820	-0.105759	-0.148796
C205	C	-0.182589	-0.108953	-0.042949
H206	H	-0.167640	-0.078524	0.029959
H207	H	-0.226749	-0.094541	-0.065529
C208	C	-0.203838	-0.210389	-0.084862
C209	C	-0.185475	-0.173020	0.004690
H210	H	-0.205621	-0.249908	-0.055478
H211	H	-0.177720	-0.208237	-0.156175
H212	H	-0.240636	-0.198372	-0.103670
H213	H	-0.148675	-0.185033	0.023486
H214	H	-0.211587	-0.175175	0.076008
H215	H	0.765159	-0.271363	-0.290192
O216	O	0.752271	0.000019	0.225922
C217	C	0.763363	0.050972	0.153708
H218	H	0.721738	0.067961	0.121794
H219	H	0.782850	0.086645	0.209803
C220	C	0.856509	0.014626	0.081359
C221	C	0.805385	0.035489	0.042152
H222	H	0.882431	0.005078	0.012548
H223	H	0.849037	-0.019700	0.130014
H224	H	0.872740	0.044357	0.128105
H225	H	0.789151	0.005756	-0.004580
H226	H	0.812855	0.069811	-0.006513
O227	O	0.605992	-0.723903	-0.013496
C228	C	0.551702	-0.739069	-0.047718
H229	H	0.556229	-0.756084	-0.145522
H230	H	0.531993	-0.775023	0.015660
C231	C	0.507344	-0.663186	0.081531
C232	C	0.512904	-0.684079	-0.038598
H233	H	0.483410	-0.629267	0.087162
H234	H	0.543920	-0.652970	0.104591
H235	H	0.490922	-0.693153	0.134332
H236	H	0.529332	-0.654116	-0.091394
H237	H	0.476330	-0.694290	-0.061666
H238	H	0.570630	-0.556235	0.048314
H239	H	0.570624	-0.443915	0.048314
H240	H	0.612618	-0.271422	-0.024859
