data_functionalizedCrystal
_audit_creation_method	'MofGen! by Chris Wilmer'
_symmetry_space_group_name_H-M	'P1'
_symmetry_Int_Tables_number	1
_symmetry_cell_setting	triclinic
loop_
_symmetry_equiv_pos_as_xyz
  x,y,z
_cell_length_a	14.908558
_cell_length_b	16.625539
_cell_length_c	16.625546
_cell_angle_alpha	89.969603
_cell_angle_beta	86.717541
_cell_angle_gamma	86.687248
loop_
_atom_site_label
_atom_site_type_symbol
_atom_site_fract_x
_atom_site_fract_y
_atom_site_fract_z
Zn1	Zn	1.379215	-0.526886	-0.392262
Zn2	Zn	1.879215	-0.026886	0.107738
Zn3	Zn	1.379106	-0.392043	-0.527099
Zn4	Zn	1.879106	0.107957	-0.027099
Zn5	Zn	1.228348	-0.384301	-0.384495
Zn6	Zn	1.728348	0.115699	0.115505
Zn7	Zn	1.228314	-0.519071	-0.519259
Zn8	Zn	1.728314	-0.019071	-0.019259
O9	O	1.303746	-0.455575	-0.455779
O10	O	1.803746	0.044425	0.044221
O11	O	1.505445	-0.515509	-0.416680
O12	O	2.005445	-0.015509	0.083320
O13	O	1.359076	-0.278182	-0.508213
O14	O	1.859076	0.221818	-0.008213
O15	O	1.248420	-0.403246	-0.272696
O16	O	1.748420	0.096754	0.227304
O17	O	1.505366	-0.416440	-0.515744
O18	O	2.005366	0.083560	-0.015744
O19	O	1.359261	-0.508003	-0.278402
O20	O	1.859261	-0.008003	0.221598
O21	O	1.248315	-0.272494	-0.403442
O22	O	1.748315	0.227506	0.096558
O23	O	1.102098	-0.395669	-0.395840
O24	O	1.602098	0.104331	0.104160
O25	O	1.248363	-0.632942	-0.502382
O26	O	1.748363	-0.132942	-0.002382
O27	O	1.102074	-0.494684	-0.494851
O28	O	1.602074	0.005316	0.005149
O29	O	1.359229	-0.638683	-0.409078
O30	O	1.859229	-0.138683	0.090922
O31	O	1.359044	-0.408863	-0.638889
O32	O	1.859044	0.091137	-0.138889
O33	O	1.248258	-0.502190	-0.633129
O34	O	1.748258	-0.002190	-0.133129
C35	C	1.069352	-0.443489	-0.443653
C36	C	1.569352	0.056511	0.056347
C37	C	0.969077	-0.438337	-0.438484
C38	C	1.469077	0.061663	0.061516
C39	C	0.827731	-0.379609	-0.379575
C40	C	1.327731	0.120391	0.120425
C41	C	0.921948	-0.384446	-0.384427
C42	C	1.421948	0.115554	0.115573
C43	C	0.921983	-0.487396	-0.487692
C44	C	1.421983	0.012604	0.012308
C45	C	0.827765	-0.482559	-0.482840
C46	C	1.327765	0.017441	0.017160
C47	C	0.780643	-0.428663	-0.428781
C48	C	1.280643	0.071337	0.071219
C49	C	0.686424	-0.423822	-0.423933
C50	C	1.186424	0.076178	0.076067
C51	C	0.686461	-0.526775	-0.527194
C52	C	1.186461	-0.026775	-0.027194
C53	C	0.780678	-0.531612	-0.532046
C54	C	1.280678	-0.031612	-0.032046
C55	C	1.303804	-0.665887	-0.455722
C56	C	1.803804	-0.165887	0.044278
C57	C	1.303829	-0.755510	-0.455698
C58	C	1.803829	-0.255510	0.044302
C59	C	1.303871	-1.083688	-0.455609
C60	C	1.803871	-0.583688	0.044391
C61	C	1.303857	-0.992379	-0.455636
C62	C	1.803857	-0.492379	0.044364
C63	C	1.303851	-0.919602	-0.455654
C64	C	1.803851	-0.419602	0.044346
C65	C	1.303836	-0.828287	-0.455680
C66	C	1.803836	-0.328287	0.044320
C67	C	1.539055	-0.467710	-0.467953
C68	C	2.039055	0.032290	0.032047
C69	C	1.639330	-0.472881	-0.473141
C70	C	2.139330	0.027119	0.026859
C71	C	1.303660	-0.455537	-0.665265
C72	C	1.803660	0.044463	-0.165265
C73	C	1.303706	-0.455552	-0.754889
C74	C	1.803706	0.044448	-0.254889
C75	C	1.303739	-0.246084	-0.455780
C76	C	1.803739	0.253916	0.044220
C77	C	1.303889	-0.156471	-0.455586
C78	C	1.803889	0.343529	0.044414
C79	C	1.303864	-0.455644	-1.083072
C80	C	1.803864	0.044356	-0.583072
C81	C	1.303817	-0.455621	-0.991762
C82	C	1.803817	0.044379	-0.491762
C83	C	1.303784	-0.455598	-0.918983
C84	C	1.803784	0.044402	-0.418983
C85	C	1.303739	-0.455575	-0.827667
C86	C	1.803739	0.044425	-0.327667
C87	C	1.303856	-0.455633	-0.245476
C88	C	1.803856	0.044367	0.254524
C89	C	1.303903	-0.455657	-0.155857
C90	C	1.803903	0.044343	0.344143
H91	H	0.819058	-0.575495	-0.576057
H92	H	1.319058	-0.075495	-0.076057
Cl93	Cl	0.768488	-0.311845	-0.311628
Cl94	Cl	1.268488	0.188155	0.188372
Cl95	Cl	0.627259	-0.588452	-0.589050
Cl96	Cl	1.127259	-0.088452	-0.089050
H97	H	0.648058	-0.379937	-0.379915
H98	H	1.148058	0.120063	0.120085
H99	H	0.960366	-0.531279	-0.531700
H100	H	1.460366	-0.031279	-0.031700
Cl101	Cl	0.981141	-0.322778	-0.322564
Cl102	Cl	1.481141	0.177222	0.177436
