data_functionalizedCrystal
_audit_creation_method	'MofGen! by Chris Wilmer'
_symmetry_space_group_name_H-M	'P1'
_symmetry_Int_Tables_number	1
_symmetry_cell_setting	triclinic
loop_
_symmetry_equiv_pos_as_xyz
  x,y,z
_cell_length_a	10.489746
_cell_length_b	10.489716
_cell_length_c	9.130313
_cell_angle_alpha	90.002761
_cell_angle_beta	90.002668
_cell_angle_gamma	84.535218
loop_
_atom_site_label
_atom_site_type_symbol
_atom_site_fract_x
_atom_site_fract_y
_atom_site_fract_z
O1	O	1.694027	0.179996	-0.121686
O2	O	1.322830	0.196882	-0.121710
O3	O	1.516891	0.002839	-0.121703
O4	O	1.499966	0.374038	-0.121693
O5	O	1.516889	0.002844	0.121896
O6	O	1.322828	0.196887	0.121889
O7	O	1.694024	0.180001	0.121912
Cu8	Cu	1.508426	0.188444	0.144143
Cu9	Cu	1.508429	0.188438	-0.143941
O10	O	1.499963	0.374044	0.121906
C11	C	1.275298	0.195608	0.000087
C12	C	1.133669	0.191788	0.000077
C13	C	1.515618	-0.044690	0.000092
C14	C	1.511814	-0.186322	0.000079
C15	C	0.980822	0.066063	0.000095
C16	C	1.058209	0.128923	0.120199
C17	C	1.058167	0.128947	-0.119970
C18	C	0.958707	0.247906	0.120316
C19	C	0.958660	0.247912	-0.119961
C20	C	1.035998	0.310860	0.000173
C21	C	1.630818	-0.283993	0.000099
C22	C	1.567935	-0.361358	-0.120008
C23	C	1.567905	-0.361316	0.120162
C24	C	1.448980	-0.261820	-0.120128
C25	C	1.448968	-0.261774	0.120150
C26	C	1.385997	-0.339089	0.000013
C27	C	1.741557	0.181275	0.000113
C28	C	1.883186	0.185095	0.000113
C29	C	1.501236	0.421573	0.000107
C30	C	1.505041	0.563204	0.000111
N31	N	1.508433	0.188448	0.346766
N32	N	1.508431	0.188425	-0.346563
C33	C	1.594386	0.102555	0.423421
C34	C	1.594382	0.102540	0.576758
C35	C	1.422470	0.274321	0.576771
C36	C	1.422468	0.274329	0.423437
C37	C	1.693642	0.003383	0.423415
C38	C	1.693638	0.003367	0.576751
H39	H	1.101689	0.078676	0.221739
O40	O	1.338794	0.357616	0.651189
C41	C	1.117676	0.430223	0.698031
C42	C	1.212298	0.335799	0.613692
H43	H	1.015384	0.412636	0.667724
H44	H	1.132326	0.415460	0.820808
H45	H	1.135281	0.532552	0.667922
H46	H	1.194751	0.233433	0.643679
H47	H	1.197626	0.350674	0.490936
H48	H	1.398772	-0.218520	-0.221781
O49	O	0.907285	0.307903	0.241645
C50	C	0.947222	0.421294	0.464002
C51	C	1.005624	0.353418	0.326645
H52	H	1.026704	0.458087	0.532779
H53	H	0.876470	0.505215	0.429650
H54	H	0.895249	0.350739	0.531317
H55	H	1.057662	0.423874	0.259269
H56	H	1.076308	0.269477	0.361097
O57	O	1.110213	0.068981	-0.241006
C58	C	1.302759	0.006523	-0.377352
C59	C	1.243994	0.074457	-0.240212
H60	H	1.410926	0.010951	-0.376772
H61	H	1.280642	-0.097798	-0.377195
H62	H	1.260188	0.056208	-0.479682
H63	H	1.286531	0.024878	-0.137810
H64	H	1.266101	0.178781	-0.240499
H65	H	1.060465	0.414440	0.000241
H66	H	1.671825	-0.094674	0.381790
H67	H	1.786266	0.034496	0.375863
H68	H	0.956111	-0.037440	0.000213
H69	H	1.398774	-0.218255	0.221691
H70	H	1.352468	0.344259	0.361026
O71	O	0.906667	0.307990	-0.240943
C72	C	0.761141	0.480149	-0.335161
C73	C	0.819944	0.412263	-0.198013
H74	H	0.690993	0.564450	-0.300501
H75	H	0.840448	0.516396	-0.404667
H76	H	0.708382	0.409786	-0.401860
H77	H	0.872693	0.482551	-0.131200
H78	H	0.740582	0.375993	-0.128616
O79	O	1.754355	-0.254699	0.000131
C80	C	1.957462	-0.274119	0.125426
C81	C	1.817602	-0.307414	0.125585
H82	H	2.008630	-0.316700	0.226860
H83	H	2.008050	-0.315291	0.022962
H84	H	1.959217	-0.165623	0.126381
H85	H	1.815729	-0.415892	0.124682
H86	H	1.767074	-0.266151	0.228041
O87	O	1.627853	-0.413382	0.241197
C88	C	1.690246	-0.605948	0.377538
C89	C	1.622332	-0.547158	0.240398
H90	H	1.685782	-0.714110	0.376953
H91	H	1.794578	-0.583865	0.377385
H92	H	1.640572	-0.563364	0.479868
H93	H	1.671900	-0.589707	0.137995
H94	H	1.517998	-0.569229	0.240681
O95	O	1.810641	0.029561	0.626175
C96	C	2.023880	0.077128	0.562171
C97	C	1.891431	0.047512	0.506001
H98	H	2.089243	0.091623	0.465040
H99	H	2.013132	0.167907	0.631503
H100	H	2.067344	-0.006320	0.631573
H101	H	1.847893	0.130881	0.436539
H102	H	1.902261	-0.043310	0.436749
H103	H	1.618172	-0.404854	-0.221545
H104	H	1.282406	-0.363522	-0.000058
H105	H	1.662612	-0.089301	0.624294
