data_functionalizedCrystal
_audit_creation_method	'MofGen! by Chris Wilmer'
_symmetry_space_group_name_H-M	'P1'
_symmetry_Int_Tables_number	1
_symmetry_cell_setting	triclinic
loop_
_symmetry_equiv_pos_as_xyz
  x,y,z
_cell_length_a	8.559649
_cell_length_b	8.559649
_cell_length_c	16.176319
_cell_angle_alpha	89.992050
_cell_angle_beta	90.002182
_cell_angle_gamma	69.778664
loop_
_atom_site_label
_atom_site_type_symbol
_atom_site_fract_x
_atom_site_fract_y
_atom_site_fract_z
O1	O	2.126886	-0.055062	0.068734
O2	O	1.651401	0.028720	0.068737
O3	O	1.931034	-0.250913	0.068734
O4	O	1.847253	0.224571	0.068736
O5	O	1.931005	-0.250865	-0.068759
O6	O	1.651372	0.028768	-0.068756
O7	O	2.126856	-0.055014	-0.068760
Cu8	Cu	1.889111	-0.013119	-0.081312
Cu9	Cu	1.889146	-0.013175	0.081289
O10	O	1.847223	0.224619	-0.068757
C11	C	1.591077	0.035093	-0.000009
C12	C	1.411378	0.053992	-0.000008
C13	C	1.937369	-0.311198	-0.000011
C14	C	1.956268	-0.490898	-0.000007
C15	C	2.187180	-0.061387	-0.000012
C16	C	2.366879	-0.080286	-0.000008
C17	C	1.840889	0.284904	-0.000010
C18	C	1.821990	0.464604	-0.000009
N19	N	1.889099	-0.013081	-0.195677
C20	C	1.802865	-0.099591	-0.761067
C21	C	1.802860	-0.099578	-0.674520
C22	C	1.889155	-0.013190	-0.631253
C23	C	1.975474	0.073176	-0.674537
C24	C	1.975487	0.073152	-0.761083
C25	C	1.975423	0.073273	-0.325509
C26	C	1.975398	0.073294	-0.238957
C27	C	1.802795	-0.099458	-0.238946
C28	C	1.802809	-0.099482	-0.325492
C29	C	1.889135	-0.013123	-0.368769
C30	C	1.889141	-0.013141	-0.462613
C31	C	1.889139	-0.013162	-0.537410
N32	N	1.889173	-0.013227	0.195655
H33	H	1.466258	-0.209705	-0.000004
O34	O	2.127713	-0.622540	-0.000018
H35	H	2.223095	-0.561680	-0.000022
O36	O	1.709826	-0.192804	-0.807733
H37	H	1.649836	-0.252881	-0.763096
O38	O	2.068567	0.166309	-0.807768
H39	H	2.128558	0.226399	-0.763144
O40	O	1.279743	0.225442	-0.000004
H41	H	1.294081	0.294108	-0.056042
H42	H	2.045745	0.143506	-0.639302
H43	H	1.732585	-0.169910	-0.639287
H44	H	1.732532	-0.169821	-0.360716
H45	H	1.692570	-0.436018	-0.000011
O46	O	1.709783	-0.192711	-0.192271
H47	H	1.724312	-0.178234	-0.124821
H48	H	2.045674	0.143645	-0.203731
H49	H	2.045713	0.143593	-0.360734
