data_functionalizedCrystal
_audit_creation_method	'MofGen! by Chris Wilmer'
_symmetry_space_group_name_H-M	'P1'
_symmetry_Int_Tables_number	1
_symmetry_cell_setting	triclinic
loop_
_symmetry_equiv_pos_as_xyz
  x,y,z
_cell_length_a	19.805407
_cell_length_b	21.295417
_cell_length_c	19.805407
_cell_angle_alpha	90.015533
_cell_angle_beta	90.007450
_cell_angle_gamma	90.027018
loop_
_atom_site_label
_atom_site_type_symbol
_atom_site_fract_x
_atom_site_fract_y
_atom_site_fract_z
Zn1	Zn	1.034651	-0.250757	0.382677
Zn2	Zn	1.034580	-0.356000	0.269484
Zn3	Zn	0.921486	-0.250744	0.269505
Zn4	Zn	0.921423	-0.355988	0.382635
O5	O	0.978035	-0.303372	0.326075
O6	O	1.129358	-0.264729	0.367671
O7	O	1.019574	-0.342037	0.174771
O8	O	0.936554	-0.162656	0.284544
O9	O	1.129306	-0.342050	0.284509
O10	O	1.019696	-0.162666	0.367691
O11	O	0.936485	-0.264706	0.174786
O12	O	0.826761	-0.264694	0.284503
O13	O	0.936446	-0.342029	0.477357
O14	O	0.826714	-0.342016	0.367619
O15	O	1.019634	-0.264717	0.477388
O16	O	1.019513	-0.444088	0.284468
O17	O	0.936377	-0.444079	0.367599
C18	C	0.802179	-0.303353	0.326059
C19	C	0.726947	-0.303359	0.326068
C20	C	0.691631	-0.263169	0.369436
C21	C	0.620942	-0.263173	0.369439
C22	C	0.585571	-0.303370	0.326076
C23	C	0.620893	-0.343561	0.282703
C24	C	0.691580	-0.343554	0.282697
C25	C	0.335819	-0.343590	0.282724
C26	C	0.265127	-0.343595	0.282734
C27	C	0.265182	-0.263208	0.369465
C28	C	0.335869	-0.263201	0.369460
C29	C	0.371184	-0.303390	0.326084
C30	C	0.447832	-0.303385	0.326081
C31	C	0.508924	-0.303378	0.326082
C32	C	0.977949	-0.466924	0.326041
C33	C	0.977974	-0.536892	0.326049
C34	C	1.021241	-0.569707	0.369375
C35	C	1.021265	-0.635449	0.369391
C36	C	0.978029	-0.668374	0.326070
C37	C	0.934753	-0.635552	0.282742
C38	C	0.934726	-0.569811	0.282731
N39	N	0.972928	-0.771622	0.266835
N40	N	0.972958	-0.834073	0.266847
C41	C	0.978108	-0.866449	0.326101
N42	N	0.983239	-0.834015	0.385344
N43	N	0.983213	-0.771557	0.385331
C44	C	0.978053	-0.739660	0.326077
C45	C	1.021403	-0.970549	0.369448
C46	C	1.021422	-1.036293	0.369466
C47	C	0.934914	-1.036394	0.282811
C48	C	0.934891	-0.970652	0.282799
C49	C	0.978139	-0.937733	0.326117
C50	C	1.154578	-0.303393	0.326092
C51	C	1.229810	-0.303401	0.326099
C52	C	0.978041	-0.303374	0.502618
C53	C	0.978043	-0.303374	0.577850
C54	C	0.978140	-0.139182	0.326125
C55	C	0.978185	-0.069214	0.326145
C56	C	1.021354	-0.263124	0.613211
C57	C	1.021348	-0.263122	0.683900
C58	C	0.978035	-0.303374	0.719226
C59	C	0.934719	-0.343626	0.683859
C60	C	0.934722	-0.343624	0.613172
C61	C	0.934706	-0.343633	0.968932
C62	C	0.934708	-0.343633	1.039625
C63	C	1.021332	-0.263131	1.039660
C64	C	1.021335	-0.263129	0.968973
C65	C	0.978017	-0.303379	0.933613
C66	C	0.978023	-0.303379	0.856965
C67	C	0.978032	-0.303377	0.795873
C68	C	0.978022	-0.303384	1.150219
C69	C	0.978016	-0.303379	1.074987
H70	H	0.236420	-0.230482	0.404781
C71	C	0.582097	-0.218965	0.417145
H72	H	0.613287	-0.195030	0.442975
H73	H	0.554529	-0.191500	0.391312
H74	H	0.554518	-0.243095	0.446592
H75	H	0.720333	-0.376281	0.247382
C76	C	1.068952	-0.934336	0.417115
H77	H	1.094713	-0.963298	0.442934
H78	H	1.098459	-0.908672	0.391261
H79	H	1.043008	-0.908706	0.446575
H80	H	0.364564	-0.376315	0.247405
C81	C	1.068811	-0.533500	0.417023
H82	H	1.094581	-0.562463	0.442831
H83	H	1.098309	-0.507841	0.391151
H84	H	1.042886	-0.507863	0.446492
C85	C	0.887302	-0.934551	0.235138
H86	H	0.893473	-0.890683	0.241340
H87	H	0.897244	-0.945334	0.189671
H88	H	0.841820	-0.945358	0.245010
H89	H	1.056492	-0.662172	0.404680
C90	C	0.581987	-0.387778	0.235006
H91	H	0.534829	-0.382031	0.241225
H92	H	0.593563	-0.378500	0.189545
H93	H	0.593558	-0.430088	0.244833
H94	H	0.364664	-0.230471	0.404772
C95	C	1.068997	-0.218843	0.574359
H96	H	1.094785	-0.194866	0.605546
H97	H	1.098475	-0.242921	0.546779
H98	H	1.043116	-0.191410	0.546792
H99	H	1.056618	-0.230347	0.712688
H100	H	0.899548	-0.662364	0.247471
H101	H	0.899447	-0.376394	0.584382
H102	H	0.899491	-0.543092	0.247450
C103	C	1.068977	-0.218852	0.930115
H104	H	1.062779	-0.224620	0.882952
H105	H	1.059098	-0.176557	0.941712
H106	H	1.114451	-0.228073	0.941703
C107	C	0.730532	-0.218952	0.417136
H108	H	0.699373	-0.195013	0.442960
H109	H	0.758105	-0.243070	0.446578
H110	H	0.758112	-0.191482	0.391292
C111	C	1.069019	-1.072390	0.417126
H112	H	1.094774	-1.043366	0.442917
H113	H	1.043118	-1.098043	0.446602
H114	H	1.098539	-1.098022	0.391259
C115	C	0.226220	-0.387809	0.235028
H116	H	0.257376	-0.411739	0.209189
H117	H	0.198640	-0.415278	0.260865
H118	H	0.198649	-0.363680	0.205589
C119	C	0.887351	-1.072604	0.235162
H120	H	0.893565	-1.116458	0.241372
H121	H	0.841863	-1.061860	0.245026
H122	H	0.897290	-1.061843	0.189689
H123	H	1.056601	-0.230356	1.068459
C124	C	0.887056	-0.387908	1.078482
H125	H	0.861252	-0.411875	1.047299
H126	H	0.912926	-0.415341	1.106053
H127	H	0.857581	-0.363816	1.106059
C128	C	0.887045	-0.387893	0.930045
H129	H	0.861250	-0.411864	0.961210
H130	H	0.857574	-0.363795	0.902483
H131	H	0.912905	-0.415332	0.902456
H132	H	0.899450	-0.376398	0.712627
