data_functionalizedCrystal
_audit_creation_method	'MofGen! by Chris Wilmer'
_symmetry_space_group_name_H-M	'P1'
_symmetry_Int_Tables_number	1
_symmetry_cell_setting	triclinic
loop_
_symmetry_equiv_pos_as_xyz
  x,y,z
_cell_length_a	18.101398
_cell_length_b	19.120786
_cell_length_c	18.101389
_cell_angle_alpha	92.460644
_cell_angle_beta	90.009745
_cell_angle_gamma	92.461076
loop_
_atom_site_label
_atom_site_type_symbol
_atom_site_fract_x
_atom_site_fract_y
_atom_site_fract_z
Zn1	Zn	1.119565	-0.279784	0.405955
Zn2	Zn	1.619565	0.220216	0.905955
Zn3	Zn	1.114191	-0.397225	0.276826
Zn4	Zn	1.614191	0.102775	0.776826
Zn5	Zn	0.995725	-0.279778	0.282148
Zn6	Zn	1.495725	0.220222	0.782148
Zn7	Zn	0.990406	-0.397196	0.400648
Zn8	Zn	1.490406	0.102804	0.900648
O9	O	1.054972	-0.338496	0.341394
O10	O	1.554972	0.161504	0.841394
O11	O	1.222485	-0.295378	0.388820
O12	O	1.722485	0.204622	0.888820
O13	O	1.098453	-0.381655	0.173899
O14	O	1.598453	0.118345	0.673899
O15	O	1.016627	-0.181489	0.303019
O16	O	1.516627	0.318511	0.803019
O17	O	1.218536	-0.381662	0.293949
O18	O	1.718536	0.118338	0.793949
O19	O	1.107613	-0.181494	0.393980
O20	O	1.607613	0.318506	0.893980
O21	O	1.011416	-0.295367	0.177808
O22	O	1.511416	0.204633	0.677808
O23	O	0.891387	-0.295338	0.297873
O24	O	1.391387	0.204662	0.797873
O25	O	1.007563	-0.381611	0.504985
O26	O	1.507563	0.118389	1.004985
O27	O	0.887479	-0.381605	0.384934
O28	O	1.387479	0.118395	0.884934
O29	O	1.102455	-0.295350	0.508884
O30	O	1.602455	0.204650	1.008884
O31	O	1.093296	-0.495511	0.288803
O32	O	1.593296	0.004489	0.788803
O33	O	1.002351	-0.495489	0.379774
O34	O	1.502351	0.004511	0.879774
C35	C	0.862562	-0.338468	0.341406
C36	C	1.362562	0.161532	0.841406
C37	C	0.780248	-0.338473	0.341427
C38	C	1.280248	0.161527	0.841427
C39	C	0.481155	-0.338515	0.341395
C40	C	0.981155	0.161485	0.841395
C41	C	0.510035	-0.393053	0.395877
C42	C	1.010035	0.106947	0.895877
C43	C	0.595661	-0.392883	0.396119
C44	C	1.095661	0.107117	0.896119
C45	C	0.629539	-0.338495	0.341411
C46	C	1.129539	0.161505	0.841411
C47	C	0.601804	-0.264518	0.366069
C48	C	1.101804	0.235482	0.866069
C49	C	0.516144	-0.264845	0.366459
C50	C	1.016144	0.235155	0.866459
C51	C	0.511860	-0.357300	0.262146
C52	C	1.011860	0.142700	0.762146
C53	C	0.597437	-0.358923	0.262492
C54	C	1.097437	0.141077	0.762492
C55	C	0.713399	-0.338479	0.341419
C56	C	1.213399	0.161521	0.841419
C57	C	0.397295	-0.338525	0.341389
C58	C	0.897295	0.161475	0.841389
C59	C	1.046683	-0.520985	0.333151
C60	C	1.546683	-0.020985	0.833151
C61	C	1.043205	-0.599055	0.329650
C62	C	1.543205	-0.099055	0.829650
C63	C	1.088907	-0.635674	0.375402
C64	C	1.588907	-0.135674	0.875402
C65	C	1.085636	-0.709029	0.372113
C66	C	1.585636	-0.209029	0.872113
C67	C	1.036666	-0.745763	0.323068
C68	C	1.536666	-0.245763	0.823068
C69	C	0.990959	-0.709138	0.277315
C70	C	1.490959	-0.209138	0.777315
C71	C	0.994227	-0.635785	0.280608
C72	C	1.494227	-0.135785	0.780608
C73	C	1.024428	-0.967246	0.310758
C74	C	1.524428	-0.467246	0.810758
C75	C	1.021165	-1.040605	0.307467
C76	C	1.521165	-0.540605	0.807467
C77	C	1.115841	-1.040490	0.402266
C78	C	1.615841	-0.540490	0.902266
C79	C	1.119108	-0.967135	0.405552
C80	C	1.619108	-0.467135	0.905552
C81	C	1.073398	-0.930517	0.359801
C82	C	1.573398	-0.430517	0.859801
C83	C	1.033323	-0.820743	0.319704
C84	C	1.533323	-0.320743	0.819704
C85	C	1.076738	-0.855538	0.363170
C86	C	1.576738	-0.355538	0.863170
C87	C	1.248132	-0.338524	0.341383
C88	C	1.748132	0.161476	0.841383
C89	C	1.330446	-0.338536	0.341378
C90	C	1.830446	0.161464	0.841378
C91	C	1.055015	-0.338478	0.534557
C92	C	1.555015	0.161522	1.034557
C93	C	1.055034	-0.338470	0.616871
C94	C	1.555034	0.161530	1.116871
C95	C	1.063313	-0.155294	0.349685
C96	C	1.563313	0.344706	0.849685
C97	C	1.066867	-0.077224	0.353218
C98	C	1.566867	0.422776	0.853218
C99	C	1.054973	-0.338463	0.148985
C100	C	1.554973	0.161537	0.648985
C101	C	1.055107	-0.338272	0.066680
C102	C	1.555107	0.161728	0.566680
C103	C	1.055083	-0.338339	0.915968
C104	C	1.555083	0.161661	1.415968
C105	C	0.995190	-0.392440	0.882198
C106	C	1.495190	0.107560	1.382198
C107	C	0.995334	-0.392691	0.796568
C108	C	1.495334	0.107309	1.296568
C109	C	1.055058	-0.338404	0.767583
C110	C	1.555058	0.161596	1.267583
C111	C	1.132181	-0.358502	0.797764
C112	C	1.632181	0.141498	1.297764
C113	C	1.131845	-0.358857	0.883393
C114	C	1.631845	0.141143	1.383393
C115	C	1.038537	-0.264020	0.887743
C116	C	1.538537	0.235980	1.387743
C117	C	1.036781	-0.264449	0.802074
C118	C	1.536781	0.235551	1.302074
C119	C	1.055049	-0.338440	0.683722
C120	C	1.555049	0.161560	1.183722
C121	C	1.055097	-0.338305	0.999829
C122	C	1.555097	0.161695	1.499829
H123	H	0.486950	-0.448091	0.380181
H124	H	0.986950	0.051909	0.880181
H125	H	1.177804	-0.321163	0.905819
H126	H	1.677804	0.178837	1.405819
H127	H	0.983451	-0.245711	0.910168
H128	H	1.483451	0.254289	1.410168
H129	H	0.624041	-0.222781	0.327771
H130	H	1.124041	0.277219	0.827771
H131	H	0.951084	-0.739053	0.237384
H132	H	1.451084	-0.239053	0.737384
H133	H	1.116607	-0.825627	0.403105
H134	H	1.616607	-0.325627	0.903105
H135	H	1.146262	-0.413185	0.900926
H136	H	1.646262	0.086815	1.400926
H137	H	1.177860	-0.320335	0.779125
H138	H	1.677860	0.179665	1.279125
H139	H	0.993454	-0.850660	0.279769
H140	H	1.493454	-0.350660	0.779769
H141	H	1.005987	-0.447778	0.773602
H142	H	1.505987	0.052222	1.273602
H143	H	1.146915	-0.412252	0.773897
H144	H	1.646915	0.087748	1.273897
H145	H	1.122857	-0.738841	0.409363
H146	H	1.622857	-0.238841	0.909363
H147	H	1.077487	-0.222001	0.782591
H148	H	1.577487	0.277999	1.282591
H149	H	0.980042	-0.249294	0.782439
H150	H	1.480042	0.250706	1.282439
H151	H	1.082201	-0.223712	0.909823
H152	H	1.582201	0.276288	1.409823
H153	H	0.614194	-0.447741	0.380282
H154	H	1.114194	0.052259	0.880282
H155	H	0.957011	-0.605970	0.243353
H156	H	1.457011	-0.105970	0.743353
H157	H	0.616721	-0.380454	0.454769
H158	H	1.116721	0.119546	0.954769
H159	H	1.153054	-1.070313	0.439515
H160	H	1.653054	-0.570313	0.939515
H161	H	0.987211	-0.937437	0.273504
H162	H	1.487211	-0.437437	0.773504
H163	H	0.489075	-0.380783	0.454185
H164	H	0.989075	0.119217	0.954185
H165	H	0.496898	-0.248910	0.424492
H166	H	0.996898	0.251090	0.924492
H167	H	0.497311	-0.222754	0.328785
H168	H	0.997311	0.277246	0.828785
H169	H	0.938039	-0.380113	0.776116
H170	H	1.438039	0.119887	1.276116
H171	H	1.005728	-0.447191	0.901255
H172	H	1.505728	0.052809	1.401255
H173	H	0.623997	-0.248295	0.423492
H174	H	1.123997	0.251705	0.923492
H175	H	0.937715	-0.379991	0.903359
H176	H	1.437715	0.120009	1.403359
H177	H	0.487867	-0.410321	0.240377
H178	H	0.987867	0.089679	0.740377
H179	H	0.615298	-0.413359	0.243956
H180	H	1.115298	0.086641	0.743956
H181	H	0.981285	-1.070511	0.267528
H182	H	1.481285	-0.570511	0.767528
H183	H	1.158983	-0.937228	0.445488
H184	H	1.658983	-0.437228	0.945488
H185	H	0.620490	-0.322083	0.219449
H186	H	1.120490	0.177917	0.719449
H187	H	1.128787	-0.605770	0.415336
H188	H	1.628787	-0.105770	0.915336
H189	H	0.493384	-0.317574	0.221511
H190	H	0.993384	0.182426	0.721511
