data_functionalizedCrystal
_audit_creation_method	'MofGen! by Chris Wilmer'
_symmetry_space_group_name_H-M	'P1'
_symmetry_Int_Tables_number	1
_symmetry_cell_setting	triclinic
loop_
_symmetry_equiv_pos_as_xyz
  x,y,z
_cell_length_a	12.759401
_cell_length_b	18.101395
_cell_length_c	12.759393
_cell_angle_alpha	90.033445
_cell_angle_beta	90.018496
_cell_angle_gamma	90.031265
loop_
_atom_site_label
_atom_site_type_symbol
_atom_site_fract_x
_atom_site_fract_y
_atom_site_fract_z
Zn1	Zn	1.606136	-0.294783	0.593968
Zn2	Zn	1.605980	-0.418644	0.418282
Zn3	Zn	1.430438	-0.294822	0.418307
Zn4	Zn	1.430376	-0.418587	0.593923
O5	O	1.518232	-0.356709	0.506120
O6	O	1.753136	-0.311221	0.570671
O7	O	1.582654	-0.402259	0.271264
O8	O	1.453835	-0.191183	0.441638
O9	O	1.753021	-0.402221	0.441595
O10	O	1.582920	-0.191155	0.570695
O11	O	1.453684	-0.311287	0.271283
O12	O	1.283408	-0.311232	0.441595
O13	O	1.453730	-0.402124	0.740950
O14	O	1.283363	-0.402162	0.570619
O15	O	1.582860	-0.311166	0.740983
O16	O	1.582594	-0.522270	0.441552
O17	O	1.453579	-0.522228	0.570595
C18	C	1.245265	-0.356695	0.506106
C19	C	1.128488	-0.356707	0.506125
C20	C	1.073630	-0.404131	0.573197
C21	C	0.963906	-0.404140	0.573208
C22	C	0.963908	-0.309301	0.439066
C23	C	1.073630	-0.309288	0.439061
C24	C	1.128488	-0.451550	0.640260
C25	C	1.073630	-0.498977	0.707337
C26	C	0.963906	-0.498987	0.707348
C27	C	0.909040	-0.451568	0.640283
C28	C	1.518092	-0.549120	0.506089
C29	C	1.518128	-0.631434	0.506111
C30	C	1.518358	-0.930525	0.506168
C31	C	1.437374	-0.899204	0.587559
C32	C	1.436989	-0.813586	0.587305
C33	C	1.518244	-0.782142	0.506140
C34	C	1.488263	-0.813302	0.395415
C35	C	1.487741	-0.898947	0.395903
C36	C	1.629501	-0.898866	0.534526
C37	C	1.628847	-0.813215	0.536954
C38	C	1.518181	-0.698283	0.506118
C39	C	1.518418	-1.014384	0.506182
C40	C	1.792265	-0.356723	0.506135
C41	C	1.909042	-0.356729	0.506141
C42	C	1.518306	-0.356634	0.780153
C43	C	1.518337	-0.356602	0.896930
C44	C	1.518402	-0.163547	0.506174
C45	C	1.518474	-0.081233	0.506197
C46	C	1.518219	-0.356730	0.233153
C47	C	1.518392	-0.356553	0.116376
C48	C	1.585584	-0.309236	0.951811
C49	C	1.585609	-0.309209	1.061535
C50	C	1.451137	-0.403922	1.061488
C51	C	1.451108	-0.403944	0.951766
C52	C	1.652814	-0.261894	0.896975
C53	C	1.720068	-0.214524	0.951856
C54	C	1.720092	-0.214497	1.061580
C55	C	1.652864	-0.261840	1.116423
H56	H	1.455945	-0.919745	0.669927
H57	H	1.652803	-0.261912	0.807632
N58	N	1.792579	-0.163470	0.892705
H59	H	1.776322	-0.110548	0.911808
H60	H	1.782326	-0.170742	0.814889
H61	H	1.396402	-0.442466	1.106150
N62	N	1.378587	-0.455036	0.892561
H63	H	1.329916	-0.424945	0.847048
H64	H	1.336079	-0.485019	0.944011
H65	H	0.919243	-0.537599	0.761972
N66	N	0.904737	-0.258173	0.366717
H67	H	0.826904	-0.265383	0.376891
H68	H	0.923892	-0.269648	0.291659
H69	H	1.692377	-0.791806	0.481993
N70	N	1.132808	-0.258139	0.366724
H71	H	1.081408	-0.228105	0.324235
H72	H	1.178300	-0.288238	0.318027
N73	N	1.792606	-0.163396	1.120776
H74	H	1.835185	-0.133408	1.069385
H75	H	1.841212	-0.193528	1.166299
H76	H	1.217831	-0.451549	0.640256
N77	N	1.461827	-0.785668	0.696055
H78	H	1.473125	-0.828997	0.744592
H79	H	1.401486	-0.754783	0.722550
H80	H	1.652878	-0.261806	1.205768
H81	H	1.118309	-0.537579	0.761945
N82	N	1.328909	-0.927793	0.563000
H83	H	1.332004	-0.960946	0.499381
H84	H	1.280676	-0.884788	0.548409
N85	N	1.327872	-0.786525	0.562412
H86	H	1.277341	-0.805277	0.617209
H87	H	1.306091	-0.805444	0.491177
H88	H	0.819695	-0.451573	0.640307
H89	H	1.406496	-0.918992	0.371879
N90	N	1.562476	-0.926404	0.312836
H91	H	1.595610	-0.882869	0.276061
H92	H	1.522835	-0.957392	0.260231
N93	N	1.563923	-0.786330	0.312882
H94	H	1.637130	-0.803294	0.330932
H95	H	1.562098	-0.730586	0.310110
N96	N	1.381788	-0.784981	0.363012
H97	H	1.352820	-0.751975	0.419887
H98	H	1.332840	-0.828114	0.351636
H99	H	1.656833	-0.920408	0.613890
N100	N	1.658806	-0.786236	0.644891
H101	H	1.600984	-0.754018	0.673717
H102	H	1.725819	-0.756691	0.640376
H103	H	1.689837	-0.919120	0.475245
