data_functionalizedCrystal
_audit_creation_method	'MofGen! by Chris Wilmer'
_symmetry_space_group_name_H-M	'P1'
_symmetry_Int_Tables_number	1
_symmetry_cell_setting	triclinic
loop_
_symmetry_equiv_pos_as_xyz
  x,y,z
_cell_length_a	29.839134
_cell_length_b	29.839131
_cell_length_c	18.101389
_cell_angle_alpha	89.978713
_cell_angle_beta	89.971270
_cell_angle_gamma	90.036281
loop_
_atom_site_label
_atom_site_type_symbol
_atom_site_fract_x
_atom_site_fract_y
_atom_site_fract_z
Zn1	Zn	0.686750	-0.178962	-0.418911
Zn2	Zn	0.686673	-0.254079	-0.295063
Zn3	Zn	0.611623	-0.178957	-0.295063
Zn4	Zn	0.611580	-0.254059	-0.418842
O5	O	0.649156	-0.216514	-0.356970
O6	O	0.749606	-0.188937	-0.402511
O7	O	0.676703	-0.244120	-0.191430
O8	O	0.621639	-0.116090	-0.311520
O9	O	0.749550	-0.244125	-0.311521
O10	O	0.676834	-0.116094	-0.402511
O11	O	0.621565	-0.188928	-0.191430
O12	O	0.548751	-0.188909	-0.311453
O13	O	0.621565	-0.244091	-0.522484
O14	O	0.548719	-0.244086	-0.402394
O15	O	0.676792	-0.188918	-0.522535
O16	O	0.676661	-0.316943	-0.311454
O17	O	0.621491	-0.316929	-0.402394
C18	C	0.532434	-0.216495	-0.356916
C19	C	0.482500	-0.216498	-0.356911
C20	C	0.172849	-0.245287	-0.404264
C21	C	-0.014824	-0.245300	-0.404297
O22	O	-0.039095	-0.269757	-0.444527
N23	N	-0.038286	-0.216531	-0.357025
C24	C	-0.014826	-0.187754	-0.309746
O25	O	-0.039088	-0.163281	-0.269544
C26	C	0.172846	-0.187739	-0.309717
C27	C	0.196305	-0.216514	-0.356986
C28	C	0.196308	-0.274059	-0.451531
C29	C	0.243224	-0.274058	-0.451519
C30	C	0.266680	-0.245284	-0.404241
C31	C	0.243221	-0.216512	-0.356975
C32	C	0.196305	-0.158961	-0.262441
C33	C	0.243226	-0.158959	-0.262440
C34	C	0.266685	-0.187733	-0.309709
C35	C	0.313593	-0.187737	-0.309685
N36	N	0.337054	-0.216506	-0.356957
C37	C	0.313598	-0.245280	-0.404235
C38	C	-0.113357	-0.187764	-0.309763
C39	C	-0.160274	-0.187768	-0.309769
C40	C	-0.160269	-0.245314	-0.404322
C41	C	-0.113351	-0.245312	-0.404311
C42	C	-0.089895	-0.216534	-0.357035
C43	C	0.412124	-0.245274	-0.404207
C44	C	0.459043	-0.245271	-0.404189
C45	C	0.459034	-0.187724	-0.309639
C46	C	0.412118	-0.187729	-0.309654
C47	C	0.388664	-0.216505	-0.356944
O48	O	0.337892	-0.163289	-0.269483
O49	O	0.337868	-0.269742	-0.444442
C50	C	0.125934	-0.245289	-0.404276
C51	C	0.102474	-0.216517	-0.357010
C52	C	0.125931	-0.187744	-0.309732
C53	C	0.055557	-0.216521	-0.357016
C54	C	0.032100	-0.245295	-0.404294
C55	C	0.055562	-0.274064	-0.451565
C56	C	0.102477	-0.274063	-0.451554
C57	C	0.102469	-0.158974	-0.262460
C58	C	0.055554	-0.158979	-0.262475
C59	C	0.032097	-0.187752	-0.309753
C60	C	0.649075	-0.333237	-0.356933
C61	C	0.649082	-0.383171	-0.356942
C62	C	0.677936	-0.692809	-0.309687
C63	C	0.677991	-0.880482	-0.309715
O64	O	0.702460	-0.904743	-0.269509
N65	N	0.649250	-0.903956	-0.357026
C66	C	0.620494	-0.880509	-0.404336
O67	O	0.596052	-0.904781	-0.444582
C68	C	0.620441	-0.692837	-0.404310
C69	C	0.649182	-0.669365	-0.356991
C70	C	0.706674	-0.669338	-0.262372
C71	C	0.706658	-0.622423	-0.262363
C72	C	0.677904	-0.598979	-0.309667
C73	C	0.649166	-0.622450	-0.356982
C74	C	0.591688	-0.669390	-0.451623
C75	C	0.591678	-0.622469	-0.451614
C76	C	0.620419	-0.598998	-0.404295
C77	C	0.620396	-0.552090	-0.404277
N78	N	0.649137	-0.528617	-0.356967
C79	C	0.677892	-0.552061	-0.309662
C80	C	0.620523	-0.979039	-0.404345
C81	C	0.620536	-1.025957	-0.404350
C82	C	0.678034	-1.025928	-0.309731
C83	C	0.678019	-0.979009	-0.309722
C84	C	0.649265	-0.955566	-0.357034
C85	C	0.677856	-0.453535	-0.309645
C86	C	0.677836	-0.406615	-0.309637
C87	C	0.620340	-0.406649	-0.404259
C88	C	0.620358	-0.453564	-0.404264
C89	C	0.649119	-0.477006	-0.356955
O90	O	0.595943	-0.527801	-0.444468
O91	O	0.702337	-0.527781	-0.269433
C92	C	0.677952	-0.739725	-0.309696
C93	C	0.649213	-0.763196	-0.357010
C94	C	0.620459	-0.739752	-0.404315
C95	C	0.649226	-0.810114	-0.357016
C96	C	0.677980	-0.833558	-0.309711
C97	C	0.706722	-0.810084	-0.262401
C98	C	0.706706	-0.763169	-0.262391
C99	C	0.591717	-0.763226	-0.451625
C100	C	0.591735	-0.810141	-0.451631
C101	C	0.620490	-0.833585	-0.404326
C102	C	0.766335	-0.216534	-0.357024
C103	C	0.816269	-0.216542	-0.357047
C104	C	0.649182	-0.216503	-0.550132
C105	C	0.649194	-0.216498	-0.632446
C106	C	0.649250	-0.099336	-0.357023
C107	C	0.649290	-0.049401	-0.357045
C108	C	0.649220	-0.216414	-0.931537
C109	C	0.614353	-0.251017	-0.900180
C110	C	0.614447	-0.251177	-0.814562
C111	C	0.649206	-0.216456	-0.783154
C112	C	0.696537	-0.229311	-0.814265
C113	C	0.696342	-0.229538	-0.899910
C114	C	0.637168	-0.168878	-0.899964
C115	C	0.636114	-0.169153	-0.814313
C116	C	0.649202	-0.216478	-0.699295
C117	C	0.649228	-0.216392	-1.015397
C118	C	0.649156	-0.216493	-0.164559
C119	C	0.649233	-0.216371	-0.082246
H120	H	0.036457	-0.135548	-0.223975
F121	F	0.670361	-0.135180	-0.926471
H122	H	0.622403	-0.286412	-0.794077
F123	F	0.568572	-0.240660	-0.787063
F124	F	0.127438	-0.304689	-0.501865
H125	H	-0.094263	-0.164329	-0.271261
H126	H	0.568303	-0.744141	-0.490148
F127	F	0.737253	-0.597449	-0.212008
F128	F	0.484007	-0.275899	-0.454500
F129	F	0.568338	-0.240608	-0.927075
H130	H	0.622230	-0.286037	-0.921704
H131	H	-0.094253	-0.268742	-0.442804
H132	H	-0.179375	-0.268743	-0.442817
H133	H	0.478141	-0.164299	-0.271144
H134	H	0.121563	-0.135543	-0.223960
F135	F	0.708427	-0.381638	-0.259272
H136	H	0.036455	-0.297494	-0.490059
F137	F	0.708635	-1.050887	-0.259383
F138	F	0.709698	-0.274957	-0.926030
H139	H	0.568264	-0.603384	-0.490144
F140	F	0.708467	-0.478477	-0.259292
F141	F	0.737282	-0.694282	-0.212021
F142	F	0.589761	-0.478545	-0.454612
F143	F	0.589941	-1.050932	-0.454705
H144	H	0.723201	-0.205429	-0.920656
F145	F	0.708608	-0.954033	-0.259360
F146	F	0.589917	-0.954095	-0.454703
H147	H	0.723212	-0.204899	-0.793924
F148	F	0.387169	-0.275902	-0.454538
F149	F	0.592840	-0.153571	-0.928171
H150	H	0.601283	-0.159459	-0.793977
H151	H	0.706932	-0.263690	-0.792821
H152	H	0.393017	-0.164299	-0.271162
H153	H	-0.179371	-0.164342	-0.271270
H154	H	0.262320	-0.297488	-0.490012
F155	F	0.171351	-0.304686	-0.501855
H156	H	0.262321	-0.135521	-0.223945
F157	F	0.171348	-0.128332	-0.212133
H158	H	0.659657	-0.142003	-0.792934
H159	H	0.568283	-0.688492	-0.490152
H160	H	0.596927	-0.387553	-0.442772
H161	H	0.568327	-0.829248	-0.490162
F162	F	0.737297	-0.738195	-0.212030
H163	H	0.730133	-0.829181	-0.223882
