data_functionalizedCrystal
_audit_creation_method	'MofGen! by Chris Wilmer'
_symmetry_space_group_name_H-M	'P1'
_symmetry_Int_Tables_number	1
_symmetry_cell_setting	triclinic
loop_
_symmetry_equiv_pos_as_xyz
  x,y,z
_cell_length_a	6.394989
_cell_length_b	16.109318
_cell_length_c	15.186229
_cell_angle_alpha	90.000224
_cell_angle_beta	89.999328
_cell_angle_gamma	84.983137
loop_
_atom_site_label
_atom_site_type_symbol
_atom_site_fract_x
_atom_site_fract_y
_atom_site_fract_z
O1	O	0.268653	1.105966	-0.073149
O2	O	0.768653	1.605966	0.426851
O3	O	0.302027	0.864259	-0.073166
O4	O	0.802027	1.364259	0.426834
O5	O	-0.018726	0.988543	-0.073158
O6	O	0.481274	1.488543	0.426842
O7	O	0.589406	0.981681	-0.073157
O8	O	1.089406	1.481681	0.426843
O9	O	-0.018731	0.988534	0.073299
O10	O	0.481269	1.488534	0.573299
O11	O	0.302022	0.864250	0.073291
O12	O	0.802022	1.364250	0.573291
O13	O	0.268648	1.105957	0.073308
O14	O	0.768648	1.605957	0.573308
Zn15	Zn	0.285335	0.985102	0.096553
Zn16	Zn	0.785335	1.485102	0.596553
Zn17	Zn	0.285341	0.985114	-0.096411
Zn18	Zn	0.785341	1.485114	0.403589
O19	O	0.589401	0.981673	0.073300
O20	O	1.089401	1.481673	0.573300
C21	C	0.300666	0.833266	0.000060
C22	C	0.800666	1.333266	0.500060
C23	C	0.296594	0.740928	0.000053
C24	C	0.796594	1.240928	0.500053
C25	C	0.283445	0.441720	-0.079765
C26	C	0.783445	0.941720	0.420235
C27	C	0.287257	0.528481	-0.079770
C28	C	0.787257	1.028481	0.420230
C29	C	0.287224	0.528490	0.079905
C30	C	0.787224	1.028490	0.579905
C31	C	0.283397	0.441731	0.079910
C32	C	0.783397	0.941731	0.579910
C33	C	0.281518	0.398347	0.000072
C34	C	0.781518	0.898347	0.500072
C35	C	0.289157	0.571868	0.000062
C36	C	0.789157	1.071868	0.500062
C37	C	0.293291	0.665939	0.000057
C38	C	0.793291	1.165939	0.500057
C39	C	0.277380	0.304271	0.000077
C40	C	0.777380	0.804271	0.500077
C41	C	0.667224	0.983034	0.000068
C42	C	1.167224	1.483034	0.500068
C43	C	0.903457	0.987180	0.000065
C44	C	1.403457	1.487180	0.500065
C45	C	0.270009	1.136950	0.000080
C46	C	0.770009	1.636950	0.500080
C47	C	0.274081	1.229288	0.000081
C48	C	0.774081	1.729288	0.500081
N49	N	0.285329	0.985101	0.228245
N50	N	0.785329	1.485101	0.728245
N51	N	0.285329	0.985122	-0.228104
N52	N	0.785329	1.485122	0.271896
C53	C	0.143348	1.040153	0.453972
C54	C	0.643348	1.540153	0.953972
C55	C	0.143343	1.040156	0.546161
C56	C	0.643343	1.540156	1.046161
C57	C	0.427318	0.930063	0.546164
C58	C	0.927318	1.430063	1.046164
C59	C	0.427311	0.930057	0.453976
C60	C	0.927311	1.430057	0.953976
C61	C	0.285328	0.985107	0.407882
C62	C	0.785328	1.485107	0.907882
C63	C	0.285330	0.985115	0.592260
C64	C	0.785330	1.485115	1.092260
C65	C	0.285326	0.985118	0.692216
C66	C	0.785326	1.485118	1.192216
C67	C	0.285329	0.985104	0.307920
C68	C	0.785329	1.485104	0.807920
H69	H	0.288824	0.563791	-0.144782
H70	H	0.788824	1.063791	0.355218
H71	H	0.027734	1.084977	0.416445
H72	H	0.527734	1.584977	0.916445
H73	H	0.281913	0.406399	-0.144774
H74	H	0.781913	0.906399	0.355226
F75	F	0.289240	0.574669	0.164869
F76	F	0.789240	1.074669	0.664869
H77	H	0.281825	0.406416	0.144927
H78	H	0.781825	0.906416	0.644927
F79	F	-0.007776	1.098742	0.595211
F80	F	0.492224	1.598742	1.095211
F81	F	0.578424	0.871480	0.595225
F82	F	1.078424	1.371480	1.095225
F83	F	0.578426	0.871463	0.404920
F84	F	1.078426	1.371463	0.904920
