data_functionalizedCrystal
_audit_creation_method	'MofGen! by Chris Wilmer'
_symmetry_space_group_name_H-M	'P1'
_symmetry_Int_Tables_number	1
_symmetry_cell_setting	triclinic
loop_
_symmetry_equiv_pos_as_xyz
  x,y,z
_cell_length_a	18.050589
_cell_length_b	10.685972
_cell_length_c	10.686551
_cell_angle_alpha	98.409768
_cell_angle_beta	85.596139
_cell_angle_gamma	85.606906
loop_
_atom_site_label
_atom_site_type_symbol
_atom_site_fract_x
_atom_site_fract_y
_atom_site_fract_z
Zn1	Zn	-0.166497	-1.995726	-0.866751
Zn2	Zn	0.333503	-1.495726	-0.366751
Zn3	Zn	-0.301038	-1.979251	-0.654487
Zn4	Zn	0.198962	-1.479251	-0.154487
Zn5	Zn	-0.187163	-1.767145	-0.638210
Zn6	Zn	0.312837	-1.267145	-0.138210
Zn7	Zn	-0.300962	-1.783374	-0.850393
Zn8	Zn	0.199038	-1.283374	-0.350393
O9	O	-0.238915	-1.881374	-0.752460
O10	O	0.261085	-1.381374	-0.252460
O11	O	-0.175727	-2.171178	-0.852252
O12	O	0.324273	-1.671178	-0.352252
O13	O	-0.294613	-1.937427	-0.474696
O14	O	0.205387	-1.437427	0.025304
O15	O	-0.080491	-1.797570	-0.668561
O16	O	0.419509	-1.297570	-0.168561
O17	O	-0.274574	-2.159073	-0.696302
O18	O	0.225426	-1.659073	-0.196302
O19	O	-0.065308	-1.965507	-0.836469
O20	O	0.434692	-1.465507	-0.336469
O21	O	-0.210949	-1.781594	-0.462737
O22	O	0.289051	-1.281594	0.037263
O23	O	-0.210876	-1.591660	-0.652699
O24	O	0.289124	-1.091660	-0.152699
O25	O	-0.274444	-1.825230	-1.030195
O26	O	0.225556	-1.325230	-0.530195
O27	O	-0.294483	-1.603584	-0.808588
O28	O	0.205517	-1.103584	-0.308588
O29	O	-0.175654	-1.981244	-1.042214
O30	O	0.324346	-1.481244	-0.542214
O31	O	-0.404958	-1.953164	-0.680440
O32	O	0.095042	-1.453164	-0.180440
O33	O	-0.404903	-1.809254	-0.824372
O34	O	0.095097	-1.309254	-0.324372
C35	C	-0.254914	-1.551563	-0.727103
C36	C	0.245086	-1.051563	-0.227103
C37	C	-0.261775	-1.410470	-0.716285
C38	C	0.238225	-0.910470	-0.216285
C39	C	-0.431876	-1.881219	-0.752428
C40	C	0.068124	-1.381219	-0.252428
C41	C	-0.514417	-1.881272	-0.752465
C42	C	-0.014417	-1.381272	-0.252465
C43	C	-0.713862	-1.803095	-0.830711
C44	C	-0.213862	-1.303095	-0.330711
C45	C	-0.770446	-1.763253	-0.712507
C46	C	-0.270446	-1.263253	-0.212507
C47	C	-0.665541	-1.881398	-0.752491
C48	C	-0.165541	-1.381398	-0.252491
C49	C	-0.756035	-1.921303	-0.870714
C50	C	-0.256035	-1.421303	-0.370714
C51	C	-0.811519	-1.881518	-0.752526
C52	C	-0.311519	-1.381518	-0.252526
C53	C	-0.721043	-1.841491	-0.634220
C54	C	-0.221043	-1.341491	-0.134220
C55	C	-0.706622	-1.999601	-0.792509
C56	C	-0.206622	-1.499601	-0.292509
C57	C	-0.763185	-1.959797	-0.674228
C58	C	-0.263185	-1.459797	-0.174228
C59	C	-0.581447	-1.881326	-0.752472
C60	C	-0.081447	-1.381326	-0.252472
C61	C	-0.895612	-1.881590	-0.752532
C62	C	-0.395612	-1.381590	-0.252532
C63	C	-0.045198	-1.881566	-0.752524
C64	C	0.454802	-1.381566	-0.252524
C65	C	0.037353	-1.881648	-0.752551
C66	C	0.537353	-1.381648	-0.252551
C67	C	-0.222735	-1.906885	-1.083550
C68	C	0.277265	-1.406885	-0.583550
C69	C	-0.215841	-1.917757	-1.224641
C70	C	0.284159	-1.417757	-0.724641
C71	C	-0.222849	-1.212472	-0.777912
C72	C	0.277151	-0.712472	-0.277912
C73	C	-0.215991	-1.353566	-0.788742
C74	C	0.284009	-0.853566	-0.288742
C75	C	-0.254975	-1.856035	-0.422664
C76	C	0.245025	-1.356035	0.077336
C77	C	-0.261648	-1.845409	-0.281593
C78	C	0.238352	-1.345409	0.218407
H79	H	-0.171539	-1.412787	-0.859050
H80	H	0.328461	-0.912787	-0.359050
H81	H	-0.306143	-1.775156	-1.222413
H82	H	0.193857	-1.275156	-0.722413
H83	H	-0.171348	-1.988024	-1.283828
H84	H	0.328652	-1.488024	-0.783828
H85	H	-0.306225	-1.351242	-0.645965
H86	H	0.193775	-0.851242	-0.145965
H87	H	-0.692214	-1.736763	-0.896750
H88	H	-0.192214	-1.236763	-0.396750
H89	H	-0.798261	-1.663350	-0.678688
H90	H	-0.298261	-1.163350	-0.178688
H91	H	-0.771644	-1.955007	-0.970679
H92	H	-0.271644	-1.455007	-0.470679
H93	H	-0.705531	-1.807672	-0.534219
H94	H	-0.205531	-1.307672	-0.034219
H95	H	-0.784707	-2.026060	-0.608012
H96	H	-0.284707	-1.526060	-0.108012
H97	H	-0.678807	-2.099486	-0.826382
H98	H	-0.178807	-1.599486	-0.326382
