data_functionalizedCrystal
_audit_creation_method	'MofGen! by Chris Wilmer'
_symmetry_space_group_name_H-M	'P1'
_symmetry_Int_Tables_number	1
_symmetry_cell_setting	triclinic
loop_
_symmetry_equiv_pos_as_xyz
  x,y,z
_cell_length_a	13.897449
_cell_length_b	12.759400
_cell_length_c	12.759393
_cell_angle_alpha	89.968436
_cell_angle_beta	89.979470
_cell_angle_gamma	90.015964
loop_
_atom_site_label
_atom_site_type_symbol
_atom_site_fract_x
_atom_site_fract_y
_atom_site_fract_z
Zn1	Zn	1.474721	-0.418168	-0.594038
Zn2	Zn	1.974721	0.081832	-0.094038
Zn3	Zn	1.474624	-0.593887	-0.418359
Zn4	Zn	1.974624	-0.093887	0.081641
Zn5	Zn	1.313411	-0.418227	-0.418372
Zn6	Zn	1.813411	0.081773	0.081628
Zn7	Zn	1.313400	-0.593810	-0.593994
Zn8	Zn	1.813400	-0.093810	-0.093994
O9	O	1.394039	-0.506023	-0.506191
O10	O	1.894039	-0.006023	-0.006191
O11	O	1.609690	-0.441486	-0.570747
O12	O	2.109690	0.058514	-0.070747
O13	O	1.453202	-0.570642	-0.271339
O14	O	1.953202	-0.070642	0.228661
O15	O	1.334854	-0.271198	-0.441698
O16	O	1.834854	0.228802	0.058302
O17	O	1.609618	-0.570586	-0.441676
O18	O	2.109618	-0.070586	0.058324
O19	O	1.453368	-0.271155	-0.570760
O20	O	1.953368	0.228845	-0.070760
O21	O	1.334760	-0.441585	-0.271349
O22	O	1.834760	0.058415	0.228651
O23	O	1.178428	-0.441510	-0.441655
O24	O	1.678428	0.058490	0.058345
O25	O	1.334836	-0.570454	-0.741021
O26	O	1.834836	-0.070454	-0.241021
O27	O	1.178420	-0.570510	-0.570684
O28	O	1.678420	-0.070510	-0.070684
O29	O	1.453358	-0.441411	-0.741054
O30	O	1.953358	0.058589	-0.241054
O31	O	1.453192	-0.740898	-0.441633
O32	O	1.953192	-0.240898	0.058367
O33	O	1.334742	-0.740841	-0.570671
O34	O	1.834742	-0.240841	-0.070671
C35	C	1.393982	-0.778991	-0.506169
C36	C	1.893982	-0.278991	-0.006169
C37	C	1.394045	-0.895767	-0.506194
C38	C	1.894045	-0.395767	-0.006194
C39	C	1.143425	-0.506009	-0.506167
C40	C	1.643425	-0.006009	-0.006167
C41	C	1.036211	-0.506028	-0.506181
C42	C	1.536211	-0.006028	-0.006181
C43	C	1.455791	-0.950624	-0.439078
C44	C	1.955791	-0.450624	0.060922
C45	C	1.455850	-1.060348	-0.439111
C46	C	1.955850	-0.560348	0.060889
C47	C	1.332410	-1.060349	-0.573378
C48	C	1.832410	-0.560349	-0.073378
C49	C	1.332356	-0.950627	-0.573350
C50	C	1.832356	-0.450627	-0.073350
C51	C	1.527055	-0.950624	-0.361557
C52	C	2.027055	-0.450624	0.138443
C53	C	1.527114	-1.060348	-0.361589
C54	C	2.027114	-0.560348	0.138411
C55	C	0.839915	-0.506032	-0.506209
C56	C	1.339915	-0.006032	-0.006209
C57	C	0.949148	-0.506027	-0.506191
C58	C	1.449148	-0.006027	-0.006191
C59	C	1.645632	-0.506038	-0.506215
C60	C	2.145632	-0.006038	-0.006215
C61	C	1.752846	-0.506044	-0.506226
C62	C	2.252846	-0.006044	-0.006226
C63	C	1.394106	-0.505917	-0.780224
C64	C	1.894106	-0.005917	-0.280224
C65	C	1.394135	-0.505872	-0.897001
C66	C	1.894135	-0.005872	-0.397001
C67	C	1.394123	-0.231990	-0.506236
C68	C	1.894123	0.268010	-0.006236
C69	C	1.394158	-0.115213	-0.506255
C70	C	1.894158	0.384787	-0.006255
C71	C	1.455858	-0.438673	-0.951882
C72	C	1.955858	0.061327	-0.451882
C73	C	1.455881	-0.438635	-1.061606
C74	C	1.955881	0.061365	-0.561606
C75	C	1.332456	-0.573004	-1.061559
C76	C	1.832456	-0.073004	-0.561559
C77	C	1.332429	-0.573036	-0.951836
C78	C	1.832429	-0.073036	-0.451836
C79	C	1.527119	-0.361099	-0.951910
C80	C	2.027119	0.138901	-0.451910
C81	C	1.527142	-0.361061	-1.061634
C82	C	2.027142	0.138939	-0.561634
C83	C	1.394027	-0.506053	-0.233223
C84	C	1.894027	-0.006053	0.266777
C85	C	1.394185	-0.505802	-0.116447
C86	C	1.894185	-0.005802	0.383553
H87	H	1.282087	-0.905963	-0.628011
H88	H	1.782087	-0.405963	-0.128011
H89	H	1.507133	-0.279735	-0.922153
H90	H	2.007133	0.220265	-0.422153
Br91	Br	1.651658	-0.397360	-1.111282
Br92	Br	2.151658	0.102640	-0.611282
H93	H	1.507157	-1.090211	-0.280208
H94	H	2.007157	-0.590211	0.219792
H95	H	1.598088	-1.094291	-0.390804
H96	H	2.098088	-0.594291	0.109196
Br97	Br	1.482435	-0.232279	-1.118393
Br98	Br	1.982435	0.267721	-0.618393
Br99	Br	1.645362	-0.409709	-0.895174
Br100	Br	2.145362	0.090291	-0.395174
H101	H	1.282165	-0.627752	-0.907157
H102	H	1.782165	-0.127752	-0.407157
Br103	Br	1.482460	-0.894033	-0.232688
Br104	Br	1.982460	-0.394033	0.267312
H105	H	1.282186	-1.105029	-0.628055
H106	H	1.782186	-0.605029	-0.128055
Br107	Br	1.651526	-0.900846	-0.397979
Br108	Br	2.151526	-0.400846	0.102021
Br109	Br	1.248713	-0.664149	-1.135985
Br110	Br	1.748713	-0.164149	-0.635985
