data_functionalizedCrystal
_audit_creation_method	'MofGen! by Chris Wilmer'
_symmetry_space_group_name_H-M	'P1'
_symmetry_Int_Tables_number	1
_symmetry_cell_setting	triclinic
loop_
_symmetry_equiv_pos_as_xyz
  x,y,z
_cell_length_a	31.640172
_cell_length_b	23.096457
_cell_length_c	23.096457
_cell_angle_alpha	60.007119
_cell_angle_beta	90.007887
_cell_angle_gamma	59.997967
loop_
_atom_site_label
_atom_site_type_symbol
_atom_site_fract_x
_atom_site_fract_y
_atom_site_fract_z
Zr1	Zr	0.407210	0.633652	-0.075982
O2	O	0.339714	0.754444	-0.168424
O3	O	0.427896	0.512866	-0.047646
O4	O	0.427883	0.633650	-0.168433
O5	O	0.339743	0.633659	0.047645
O6	O	0.497440	0.633640	-0.168437
O7	O	0.339727	0.633661	-0.047637
O8	O	0.497461	0.417580	0.047628
O9	O	0.339721	0.849719	-0.168421
O10	O	0.488634	0.562537	-0.035561
O11	O	0.436737	0.562543	0.035550
O12	O	0.436723	0.704750	-0.106661
O13	O	0.384826	0.704756	-0.035550
Zr14	Zr	0.518171	0.633633	0.075976
Zr15	Zr	0.518145	0.633636	-0.075988
Zr16	Zr	0.407237	0.633649	0.075982
Zr17	Zr	0.407222	0.785604	-0.075977
Zr18	Zr	0.518160	0.481681	0.075970
O19	O	0.497486	0.754418	0.047640
O20	O	0.497448	0.754422	-0.168433
O21	O	0.339752	0.754441	0.047649
O22	O	0.585667	0.512841	0.168418
O23	O	0.585630	0.512844	-0.047655
O24	O	0.427933	0.512863	0.168427
O25	O	0.585638	0.633626	-0.047651
O26	O	0.497498	0.633635	0.168427
O27	O	0.427942	0.633645	0.168431
O28	O	0.585655	0.633624	0.047631
O29	O	0.427899	0.849707	-0.168425
O30	O	0.497482	0.417578	0.168419
O31	O	0.585660	0.417566	0.168414
O32	O	0.585639	0.417568	0.047624
O33	O	0.339742	0.849717	-0.047630
O34	O	0.427920	0.849705	-0.047635
O35	O	0.488659	0.562535	0.106655
O36	O	0.540555	0.562528	0.035544
O37	O	0.488644	0.704742	-0.035556
O38	O	0.436748	0.704748	0.035555
C39	C	0.462677	0.443573	-0.000010
C40	C	0.462672	0.379066	-0.000012
C41	C	0.501001	0.296274	0.052473
C42	C	0.501004	0.235652	0.052479
C43	C	0.462683	0.257827	-0.000010
C44	C	0.424348	0.340633	-0.052499
C45	C	0.424342	0.401252	-0.052500
N46	N	0.451081	0.201720	-0.062256
N47	N	0.451089	0.144131	-0.062252
C48	C	0.462697	0.075188	-0.000008
N49	N	0.474306	0.066002	0.062235
N50	N	0.474300	0.123595	0.062231
C51	C	0.462685	0.192102	-0.000014
C52	C	0.501031	-0.073340	0.052488
C53	C	0.501032	-0.133961	0.052495
C54	C	0.424377	-0.028977	-0.052489
C55	C	0.424375	0.031641	-0.052491
C56	C	0.462705	0.009454	-0.000003
C57	C	0.323929	0.633662	0.000005
C58	C	0.276835	0.633669	0.000007
C59	C	-0.015180	0.633629	-0.052493
C60	C	-0.192167	0.633618	-0.052499
O61	O	-0.215047	0.633583	-0.097123
N62	N	-0.214288	0.633619	-0.000008
C63	C	-0.192158	0.633617	0.052491
O64	O	-0.215032	0.633609	0.097142
C65	C	-0.015171	0.633621	0.052499
C66	C	0.006946	0.633629	0.000000
C67	C	0.006937	0.633635	-0.104987
C68	C	0.051179	0.633642	-0.104987
C69	C	0.073305	0.633643	-0.052494
C70	C	0.051188	0.633636	-0.000000
C71	C	0.006961	0.633614	0.105000
C72	C	0.051211	0.633613	0.104998
C73	C	0.073327	0.633620	0.052499
C74	C	0.117556	0.633643	0.052493
N75	N	0.139678	0.633643	0.000002
C76	C	0.117552	0.633642	-0.052492
C77	C	-0.285080	0.633616	0.052483
C78	C	-0.329327	0.633617	0.052480
C79	C	-0.329332	0.633616	-0.052509
C80	C	-0.285086	0.633622	-0.052509
C81	C	-0.262959	0.633616	-0.000008
C82	C	0.210464	0.633658	-0.052489
C83	C	0.254709	0.633668	-0.052486
C84	C	0.254711	0.633664	0.052505
C85	C	0.210468	0.633658	0.052500
C86	C	0.188347	0.633652	0.000000
O87	O	0.140467	0.633670	0.097099
O88	O	0.140440	0.633632	-0.097127
C89	C	-0.059422	0.633622	-0.052493
C90	C	-0.081539	0.633615	0.000001
C91	C	-0.059413	0.633615	0.052494
C92	C	-0.125786	0.633615	-0.000002
C93	C	-0.147912	0.633615	-0.052495
C94	C	-0.125790	0.633614	-0.104986
C95	C	-0.081548	0.633621	-0.104986
C96	C	-0.081535	0.633616	0.104985
C97	C	-0.125778	0.633610	0.104981
C98	C	-0.147903	0.633610	0.052487
C99	C	0.601452	0.633623	-0.000011
C100	C	0.648547	0.633616	-0.000013
C101	C	0.462658	0.633646	-0.190087
C102	C	0.462647	0.633647	-0.254599
C103	C	0.462705	0.823711	0.000004
C104	C	0.462709	0.888219	0.000006
C105	C	0.435552	0.707878	-0.322016
C106	C	0.435565	0.707880	-0.382633
C107	C	0.462666	0.633645	-0.375828
C108	C	0.489766	0.559403	-0.308399
C109	C	0.489757	0.559404	-0.247784
N110	N	0.458923	0.578391	-0.443385
N111	N	0.458929	0.578395	-0.500969
C112	C	0.462698	0.633638	-0.558453
N113	N	0.466450	0.688888	-0.556185
N114	N	0.466441	0.688886	-0.498597
C115	C	0.462680	0.633636	-0.441550
C116	C	0.435616	0.707876	-0.691600
C117	C	0.435633	0.707874	-0.752216
C118	C	0.489831	0.559395	-0.677980
C119	C	0.489817	0.559399	-0.617366
C120	C	0.462707	0.633642	-0.624181
C121	C	0.462724	0.633639	0.190080
C122	C	0.462735	0.633638	0.254593
C123	C	0.601439	0.443554	-0.000017
C124	C	0.648528	0.379040	-0.000022
C125	C	0.462710	0.443570	0.190074
C126	C	0.462716	0.379061	0.254584
C127	C	0.601471	0.443551	0.190066
C128	C	0.648572	0.379035	0.254574
C129	C	0.323910	0.823734	-0.190072
C130	C	0.276809	0.888250	-0.254580
C131	C	0.323943	0.823731	0.000011
C132	C	0.276853	0.888245	0.000016
C133	C	0.462672	0.823715	-0.190080
C134	C	0.462665	0.888223	-0.254590
C135	C	0.643540	0.348747	-0.037147
C136	C	0.687781	0.288138	-0.037166
C137	C	0.737011	0.257817	-0.000055
C138	C	0.741998	0.288115	0.037071
C139	C	0.697757	0.348728	0.037085
C140	C	0.489822	0.348763	0.322001
C141	C	0.489826	0.288159	0.382621
C142	C	0.462727	0.257850	0.375823
C143	C	0.435618	0.288154	0.308398
C144	C	0.435612	0.348762	0.247780
C145	C	0.697786	0.348735	0.247748
C146	C	0.742046	0.288124	0.308354
C147	C	0.737092	0.257811	0.375785
C148	C	0.687874	0.288117	0.382609
C149	C	0.643614	0.348731	0.322004
C150	C	0.227596	0.918557	-0.247754
C151	C	0.183335	0.979187	-0.308360
C152	C	0.188289	1.009503	-0.375791
C153	C	0.237508	0.979193	-0.382616
C154	C	0.281767	0.918569	-0.322010
C155	C	0.281842	0.918544	0.037135
C156	C	0.237600	0.979170	0.037137
C157	C	0.188371	1.009493	0.000024
C158	C	0.183383	0.979192	-0.037099
C159	C	0.227624	0.918571	-0.037105
C160	C	0.489769	0.918513	-0.247769
C161	C	0.489773	0.979118	-0.308377
C162	C	0.462670	1.009436	-0.375807
C163	C	0.435565	0.979140	-0.382626
C164	C	0.435565	0.918532	-0.322019
H165	H	0.532211	0.278202	0.095213
Br166	Br	0.398794	0.808630	-0.474140
Br167	Br	0.526550	0.458655	-0.299161
Br168	Br	0.244381	1.020278	0.087523
H169	H	-0.347355	0.633618	-0.095252
Br170	Br	0.348555	0.877440	-0.331286
H171	H	0.532217	0.168231	0.095221
Br172	Br	0.526528	0.458653	-0.156283
Br173	Br	0.398747	0.808635	-0.331267
H174	H	0.223552	0.893877	-0.192854
Br175	Br	0.462676	1.091692	-0.458054
Br176	Br	0.526606	0.389879	0.331248
Br177	Br	0.128334	1.091766	0.000039
H178	H	0.773135	0.208455	0.425128
Br179	Br	0.081240	0.633599	0.176256
H180	H	0.413572	0.768325	-0.807112
Br181	Br	0.704537	0.389827	0.087478
Br182	Br	0.398780	1.020302	-0.474143
H183	H	0.393146	0.358685	-0.095236
Br184	Br	0.372320	0.513621	-0.123734
H185	H	0.393166	0.099056	-0.095233
Br186	Br	0.284720	0.633683	-0.123741
Br187	Br	0.372364	0.001126	-0.123721
H188	H	0.532239	-0.091406	0.095230
Br189	Br	0.553049	-0.246329	0.123738
H190	H	0.511878	0.498952	-0.562471
H191	H	0.413542	0.768328	-0.697150
H192	H	0.413491	0.893877	-0.327583
H193	H	0.511897	0.498952	-0.672438
H194	H	0.683848	0.263427	0.437520
Br195	Br	0.116567	1.020351	-0.087461
H196	H	0.511844	1.003778	-0.302811
H197	H	-0.011040	0.633607	0.147749
Br198	Br	0.180449	0.633649	-0.123739
H199	H	0.152246	1.058867	-0.425134
H200	H	0.143264	1.003855	-0.302790
Br201	Br	0.220844	0.877455	-0.087481
H202	H	0.603544	0.373394	0.327571
Br203	Br	0.348648	0.877408	0.087506
H204	H	0.773031	0.208462	-0.000072
H205	H	0.701829	0.373407	0.192848
Br206	Br	0.244222	1.020344	-0.474135
H207	H	0.511840	0.893838	-0.192870
H208	H	0.069185	0.633645	-0.147734
H209	H	-0.011073	0.633632	-0.147734
Br210	Br	-0.359345	0.633627	0.123720
Br211	Br	-0.255076	0.633632	-0.123759
H212	H	-0.267067	0.633612	0.095236
H213	H	0.272731	0.633668	0.095242
Br214	Br	0.180449	0.633664	0.123742
H215	H	-0.063544	0.633627	-0.147735
H216	H	0.782087	0.263420	0.067284
Br217	Br	-0.155829	0.633619	-0.176229
Br218	Br	0.576733	0.389885	-0.087520
H219	H	-0.143784	0.633610	0.147731
H220	H	0.683710	0.263476	-0.067398
H221	H	0.462737	0.208499	0.425188
Br222	Br	-0.051512	0.633616	0.176233
Br223	Br	0.526620	0.247043	0.474116
H224	H	0.413555	0.263468	0.302873
Br225	Br	0.398824	0.389870	0.156287
H226	H	0.782118	0.263455	0.302785
