data_functionalizedCrystal
_audit_creation_method	'MofGen! by Chris Wilmer'
_symmetry_space_group_name_H-M	'P1'
_symmetry_Int_Tables_number	1
_symmetry_cell_setting	triclinic
loop_
_symmetry_equiv_pos_as_xyz
  x,y,z
_cell_length_a	13.339070
_cell_length_b	11.804365
_cell_length_c	13.261948
_cell_angle_alpha	93.603751
_cell_angle_beta	80.573318
_cell_angle_gamma	74.874022
loop_
_atom_site_label
_atom_site_type_symbol
_atom_site_fract_x
_atom_site_fract_y
_atom_site_fract_z
O1	O	-1.397354	0.256956	0.487277
O2	O	-1.098144	0.235605	0.421412
O3	O	-1.245605	0.199793	0.310866
O4	O	-1.249893	0.292768	0.597823
O5	O	-1.206782	0.011152	0.339928
O6	O	-1.059321	0.046964	0.450474
O7	O	-1.358530	0.068315	0.516339
Cu8	Cu	-1.205380	0.040415	0.486060
Cu9	Cu	-1.251294	0.263505	0.451691
O10	O	-1.211069	0.104126	0.626885
C11	C	-1.040253	0.137678	0.424817
C12	C	-0.925594	0.126929	0.391653
N13	N	-1.173095	-0.116494	0.510234
C14	C	-0.579126	0.210490	0.649521
C15	C	-0.686854	0.220593	0.680683
C16	C	-0.746544	0.197178	0.608428
C17	C	-0.698495	0.163657	0.505006
C18	C	-0.590758	0.153562	0.473840
C19	C	-0.758177	0.140250	0.432747
C20	C	-0.710128	0.106729	0.329325
C21	C	-0.602401	0.096634	0.298164
C22	C	-0.542711	0.120050	0.370419
C23	C	-0.865914	0.150346	0.463913
C24	C	-0.877546	0.093418	0.288232
C25	C	-0.769818	0.083314	0.257070
C26	C	-1.361115	-0.536054	0.369439
C27	C	-1.385538	-0.417319	0.351147
C28	C	-1.332429	-0.342107	0.390917
C29	C	-1.254894	-0.385642	0.448983
C30	C	-1.230475	-0.504387	0.467284
C31	C	-1.201788	-0.310440	0.488762
C32	C	-1.124253	-0.353975	0.546828
C33	C	-1.099837	-0.472709	0.565126
C34	C	-1.152946	-0.547921	0.525356
C35	C	-1.226207	-0.191695	0.470461
C36	C	-1.095567	-0.160028	0.568306
C37	C	-1.071144	-0.278764	0.586599
C38	C	-0.416421	0.166238	0.512935
C39	C	-0.531078	0.176978	0.546100
C40	C	-1.222865	0.093332	0.287919
C41	C	-1.212936	0.057156	0.176243
N42	N	-1.283587	0.420412	0.427511
C43	C	-1.187096	-0.062669	0.139597
C44	C	-1.177758	-0.096640	0.034667
C45	C	-1.194253	-0.010790	-0.033628
C46	C	-1.220087	0.109038	0.003017
C47	C	-1.229433	0.143012	0.107958
C48	C	-1.236590	0.194892	-0.065267
C49	C	-1.262424	0.314719	-0.028623
C50	C	-1.271768	0.348688	0.076308
C51	C	-1.255273	0.262838	0.144604
C52	C	-1.227244	0.160917	-0.170208
C53	C	-1.269581	0.366599	-0.201848
C54	C	-1.278918	0.400570	-0.096918
C55	C	-1.233810	0.210590	0.649832
C56	C	-1.243741	0.246773	0.761506
H57	H	-0.905023	0.177633	0.548120
O58	O	-1.149895	-0.225875	-0.004850
H59	H	-1.146179	-0.235076	-0.089289
H60	H	-0.834262	0.205409	0.633806
O61	O	-1.199389	0.031685	-0.209729
H62	H	-1.124494	0.007975	-0.266993
H63	H	-1.448667	-0.381876	0.303871
O64	O	-1.358755	-0.214047	0.371169
H65	H	-1.443395	-0.170710	0.403376
O66	O	-1.306781	0.529808	-0.057383
H67	H	-1.316673	0.583804	-0.122496
O68	O	-0.426513	0.109150	0.336812
H69	H	-0.403125	0.081905	0.252759
O70	O	-0.738664	0.256721	0.792228
H71	H	-0.731014	0.345312	0.816530
O72	O	-1.016260	-0.519655	0.627809
H73	H	-0.983440	-0.447408	0.652401
H74	H	-1.283014	0.436506	-0.257454
O75	O	-1.169318	-0.155249	0.213261
H76	H	-1.149790	-0.244281	0.170156
H77	H	-0.563286	0.069353	0.213949
O78	O	-0.514749	0.235734	0.727449
H79	H	-0.431765	0.223073	0.688401
O80	O	-0.717993	0.047166	0.145522
H81	H	-0.633056	0.044088	0.135995
O82	O	-1.126604	-0.675993	0.545080
H83	H	-1.063766	-0.693635	0.592136
H84	H	-0.926147	0.074355	0.229395
H85	H	-1.289337	-0.156260	0.423183
O86	O	-1.418395	-0.617168	0.326550
H87	H	-1.388385	-0.707047	0.349029
H88	H	-1.008013	-0.314225	0.633878
O89	O	-1.038261	-0.078929	0.611192
H90	H	-1.068253	0.010946	0.588696
O91	O	-1.184170	-0.047421	-0.146806
H92	H	-1.163424	-0.145167	-0.160816
O93	O	-1.265347	0.299469	0.257784
H94	H	-1.189038	0.260714	0.282069
O95	O	-1.299626	0.477927	0.115838
H96	H	-1.309514	0.531918	0.050721
