data_functionalizedCrystal
_audit_creation_method	'MofGen! by Chris Wilmer'
_symmetry_space_group_name_H-M	'P1'
_symmetry_Int_Tables_number	1
_symmetry_cell_setting	triclinic
loop_
_symmetry_equiv_pos_as_xyz
  x,y,z
_cell_length_a	19.805405
_cell_length_b	19.805407
_cell_length_c	19.805399
_cell_angle_alpha	90.019197
_cell_angle_beta	90.027486
_cell_angle_gamma	90.023877
loop_
_atom_site_label
_atom_site_type_symbol
_atom_site_fract_x
_atom_site_fract_y
_atom_site_fract_z
Zn1	Zn	0.269548	-1.034729	-0.382713
Zn2	Zn	0.519548	-0.784729	-0.132713
Zn3	Zn	0.769548	-0.534729	0.117287
Zn4	Zn	1.019548	-0.284729	0.367287
Zn5	Zn	0.382737	-1.034642	-0.269525
Zn6	Zn	0.632737	-0.784642	-0.019525
Zn7	Zn	0.882737	-0.534642	0.230475
Zn8	Zn	1.132737	-0.284642	0.480475
Zn9	Zn	0.269559	-0.921544	-0.269539
Zn10	Zn	0.519559	-0.671544	-0.019539
Zn11	Zn	0.769559	-0.421544	0.230461
Zn12	Zn	1.019559	-0.171544	0.480461
Zn13	Zn	0.382693	-0.921505	-0.382673
Zn14	Zn	0.632693	-0.671505	-0.132673
Zn15	Zn	0.882693	-0.421505	0.117327
Zn16	Zn	1.132693	-0.171505	0.367327
O17	O	0.326134	-0.978105	-0.326112
O18	O	0.576134	-0.728105	-0.076112
O19	O	0.826134	-0.478105	0.173888
O20	O	1.076134	-0.228105	0.423888
O21	O	0.284577	-1.129434	-0.367710
O22	O	0.534577	-0.879434	-0.117710
O23	O	0.784577	-0.629434	0.132290
O24	O	1.034577	-0.379434	0.382290
O25	O	0.367746	-1.019619	-0.174810
O26	O	0.617746	-0.769619	0.075190
O27	O	0.867746	-0.519619	0.325190
O28	O	1.117746	-0.269619	0.575190
O29	O	0.174841	-0.936611	-0.284574
O30	O	0.424841	-0.686611	-0.034574
O31	O	0.674841	-0.436611	0.215426
O32	O	0.924841	-0.186611	0.465426
O33	O	0.367736	-1.129370	-0.284551
O34	O	0.617736	-0.879370	-0.034551
O35	O	0.867736	-0.629370	0.215449
O36	O	1.117736	-0.379370	0.465449
O37	O	0.174833	-1.019768	-0.367723
O38	O	0.424833	-0.769768	-0.117723
O39	O	0.674833	-0.519768	0.132277
O40	O	0.924833	-0.269768	0.382277
O41	O	0.284596	-0.936526	-0.174820
O42	O	0.534596	-0.686526	0.075180
O43	O	0.784596	-0.436526	0.325180
O44	O	1.034596	-0.186526	0.575180
O45	O	0.284553	-0.826822	-0.284535
O46	O	0.534553	-0.576822	-0.034535
O47	O	0.784553	-0.326822	0.215465
O48	O	1.034553	-0.076822	0.465465
O49	O	0.367661	-0.936545	-0.477395
O50	O	0.617661	-0.686545	-0.227395
O51	O	0.867661	-0.436545	0.022605
O52	O	1.117661	-0.186545	0.272605
O53	O	0.367672	-0.826794	-0.367654
O54	O	0.617672	-0.576794	-0.117654
O55	O	0.867672	-0.326794	0.132346
O56	O	1.117672	-0.076794	0.382346
O57	O	0.284534	-1.019730	-0.477424
O58	O	0.534534	-0.769730	-0.227424
O59	O	0.784534	-0.519730	0.022576
O60	O	1.034534	-0.269730	0.272576
O61	O	0.477448	-1.019581	-0.284512
O62	O	0.727448	-0.769581	-0.034512
O63	O	0.977448	-0.519581	0.215488
O64	O	1.227448	-0.269581	0.465488
O65	O	0.477416	-0.936460	-0.367641
O66	O	0.727416	-0.686460	-0.117641
O67	O	0.977416	-0.436460	0.132359
O68	O	1.227416	-0.186460	0.382359
C69	C	0.326110	-0.802249	-0.326092
C70	C	0.576110	-0.552249	-0.076092
C71	C	0.826110	-0.302249	0.173908
C72	C	1.076110	-0.052249	0.423908
C73	C	0.326115	-0.727017	-0.326099
C74	C	0.576115	-0.477017	-0.076099
C75	C	0.826115	-0.227017	0.173901
C76	C	1.076115	0.022983	0.423901
C77	C	0.282890	-0.691707	-0.369465
C78	C	0.532890	-0.441707	-0.119465
C79	C	0.782890	-0.191707	0.130535
C80	C	1.032890	0.058293	0.380535
C81	C	0.282892	-0.621019	-0.369466
C82	C	0.532892	-0.371019	-0.119466
C83	C	0.782892	-0.121019	0.130534
C84	C	1.032892	0.128981	0.380534
C85	C	0.326124	-0.585641	-0.326104
C86	C	0.576124	-0.335641	-0.076104
C87	C	0.826124	-0.085641	0.173896
C88	C	1.076124	0.164359	0.423896
C89	C	0.369350	-0.620956	-0.282733
C90	C	0.619350	-0.370956	-0.032733
C91	C	0.869350	-0.120956	0.217267
C92	C	1.119350	0.129044	0.467267
C93	C	0.369344	-0.691644	-0.282729
C94	C	0.619344	-0.441644	-0.032729
C95	C	0.869344	-0.191644	0.217271
C96	C	1.119344	0.058356	0.467271
C97	C	0.369375	-0.335883	-0.282747
C98	C	0.619375	-0.085883	-0.032747
C99	C	0.869375	0.164117	0.217253
C100	C	1.119375	0.414117	0.467253
C101	C	0.369379	-0.265191	-0.282755
C102	C	0.619379	-0.015191	-0.032755
C103	C	0.869379	0.234809	0.217245
C104	C	1.119379	0.484809	0.467245
C105	C	0.282923	-0.265258	-0.369483
C106	C	0.532923	-0.015258	-0.119483
C107	C	0.782923	0.234742	0.130517
C108	C	1.032923	0.484742	0.380517
C109	C	0.282917	-0.335945	-0.369479
C110	C	0.532917	-0.085945	-0.119479
C111	C	0.782917	0.164055	0.130521
C112	C	1.032917	0.414055	0.380521
C113	C	0.326141	-0.371254	-0.326107
C114	C	0.576141	-0.121254	-0.076107
C115	C	0.826141	0.128746	0.173893
C116	C	1.076141	0.378746	0.423893
C117	C	0.326137	-0.447903	-0.326105
C118	C	0.576137	-0.197903	-0.076105
C119	C	0.826137	0.052097	0.173895
C120	C	1.076137	0.302097	0.423895
C121	C	0.326131	-0.508994	-0.326108
C122	C	0.576131	-0.258994	-0.076108
C123	C	0.826131	-0.008994	0.173892
C124	C	1.076131	0.241006	0.423892
C125	C	0.501991	-0.978025	-0.326085
C126	C	0.751991	-0.728025	-0.076085
C127	C	1.001991	-0.478025	0.173915
C128	C	1.251991	-0.228025	0.423915
C129	C	0.577222	-0.978052	-0.326096
C130	C	0.827222	-0.728052	-0.076096
C131	C	1.077222	-0.478052	0.173904
C132	C	1.327222	-0.228052	0.423904
C133	C	0.612561	-1.021375	-0.282857
C134	C	0.862561	-0.771375	-0.032857
C135	C	1.112561	-0.521375	0.217143
C136	C	1.362561	-0.271375	0.467143
C137	C	0.683249	-1.021402	-0.282875
C138	C	0.933249	-0.771402	-0.032875
C139	C	1.183249	-0.521402	0.217125
C140	C	1.433249	-0.271402	0.467125
C141	C	0.718598	-0.978103	-0.326128
C142	C	0.968598	-0.728103	-0.076128
C143	C	1.218598	-0.478103	0.173872
C144	C	1.468598	-0.228103	0.423872
C145	C	0.683255	-0.934779	-0.369371
C146	C	0.933255	-0.684779	-0.119371
C147	C	1.183255	-0.434779	0.130629
C148	C	1.433255	-0.184779	0.380629
C149	C	0.612568	-0.934755	-0.369357
C150	C	0.862568	-0.684755	-0.119357
C151	C	1.112568	-0.434755	0.130643
C152	C	1.362568	-0.184755	0.380643
C153	C	0.968328	-0.934872	-0.369431
C154	C	1.218328	-0.684872	-0.119431
C155	C	1.468328	-0.434872	0.130569
C156	C	1.718328	-0.184872	0.380569
C157	C	1.039020	-0.934897	-0.369440
C158	C	1.289020	-0.684897	-0.119440
C159	C	1.539020	-0.434897	0.130560
C160	C	1.789020	-0.184897	0.380560
C161	C	1.039010	-1.021518	-0.282948
C162	C	1.289010	-0.771518	-0.032948
C163	C	1.539010	-0.521518	0.217052
C164	C	1.789010	-0.271518	0.467052
C165	C	0.968322	-1.021495	-0.282934
C166	C	1.218322	-0.771495	-0.032934
C167	C	1.468322	-0.521495	0.217066
C168	C	1.718322	-0.271495	0.467066
C169	C	0.932985	-0.978174	-0.326180
C170	C	1.182985	-0.728174	-0.076180
C171	C	1.432985	-0.478174	0.173820
C172	C	1.682985	-0.228174	0.423820
C173	C	0.856337	-0.978146	-0.326161
C174	C	1.106337	-0.728146	-0.076161
C175	C	1.356337	-0.478146	0.173839
C176	C	1.606337	-0.228146	0.423839
C177	C	0.795245	-0.978127	-0.326143
C178	C	1.045245	-0.728127	-0.076143
C179	C	1.295245	-0.478127	0.173857
C180	C	1.545245	-0.228127	0.423857
C181	C	1.149592	-0.978198	-0.326162
C182	C	1.399592	-0.728198	-0.076162
C183	C	1.649592	-0.478198	0.173838
C184	C	1.899592	-0.228198	0.423838
C185	C	1.074360	-0.978223	-0.326204
C186	C	1.324360	-0.728223	-0.076204
C187	C	1.574360	-0.478223	0.173796
C188	C	1.824360	-0.228223	0.423796
C189	C	0.326092	-0.978143	-0.502655
C190	C	0.576092	-0.728143	-0.252655
C191	C	0.826092	-0.478143	-0.002655
C192	C	1.076092	-0.228143	0.247345
C193	C	0.326074	-0.978159	-0.577887
C194	C	0.576074	-0.728159	-0.327887
C195	C	0.826074	-0.478159	-0.077887
C196	C	1.076074	-0.228159	0.172113
C197	C	0.326155	-0.154648	-0.326128
C198	C	0.576155	0.095352	-0.076128
C199	C	0.826155	0.345352	0.173872
C200	C	1.076155	0.595352	0.423872
C201	C	0.326150	-0.229880	-0.326118
C202	C	0.576150	0.020120	-0.076118
C203	C	0.826150	0.270120	0.173882
C204	C	1.076150	0.520120	0.423882
C205	C	0.282787	-1.021475	-0.613248
C206	C	0.532787	-0.771475	-0.363248
C207	C	0.782787	-0.521475	-0.113248
C208	C	1.032787	-0.271475	0.136752
C209	C	0.282768	-1.021482	-0.683937
C210	C	0.532768	-0.771482	-0.433937
C211	C	0.782768	-0.521482	-0.183937
C212	C	1.032768	-0.271482	0.066063
C213	C	0.326038	-0.978176	-0.719263
C214	C	0.576038	-0.728176	-0.469263
C215	C	0.826038	-0.478176	-0.219263
C216	C	1.076038	-0.228176	0.030737
C217	C	0.369327	-0.934856	-0.683897
C218	C	0.619327	-0.684856	-0.433897
C219	C	0.869327	-0.434856	-0.183897
C220	C	1.119327	-0.184856	0.066103
C221	C	0.369342	-0.934846	-0.613210
C222	C	0.619342	-0.684846	-0.363210
C223	C	0.869342	-0.434846	-0.113210
C224	C	1.119342	-0.184846	0.136790
C225	C	0.369264	-0.934894	-0.968971
C226	C	0.619264	-0.684894	-0.718971
C227	C	0.869264	-0.434894	-0.468971
C228	C	1.119264	-0.184894	-0.218971
C229	C	0.369246	-0.934908	-1.039663
C230	C	0.619246	-0.684908	-0.789663
C231	C	0.869246	-0.434908	-0.539663
C232	C	1.119246	-0.184908	-0.289663
C233	C	0.282689	-1.021530	-1.039697
C234	C	0.532689	-0.771530	-0.789697
C235	C	0.782689	-0.521530	-0.539697
C236	C	1.032689	-0.271530	-0.289697
C237	C	0.282705	-1.021520	-0.969010
C238	C	0.532705	-0.771520	-0.719010
C239	C	0.782705	-0.521520	-0.469010
C240	C	1.032705	-0.271520	-0.219010
C241	C	0.325990	-0.978197	-0.933650
C242	C	0.575990	-0.728197	-0.683650
C243	C	0.825990	-0.478197	-0.433650
C244	C	1.075990	-0.228197	-0.183650
C245	C	0.326010	-0.978189	-0.857002
C246	C	0.576010	-0.728189	-0.607002
C247	C	0.826010	-0.478189	-0.357002
C248	C	1.076010	-0.228189	-0.107002
C249	C	0.326022	-0.978187	-0.795910
C250	C	0.576022	-0.728187	-0.545910
C251	C	0.826022	-0.478187	-0.295910
C252	C	1.076022	-0.228187	-0.045910
C253	C	0.326128	-0.978106	-0.150256
C254	C	0.576128	-0.728106	0.099744
C255	C	0.826128	-0.478106	0.349744
C256	C	1.076128	-0.228106	0.599744
C257	C	0.325956	-0.978221	-0.075025
C258	C	0.575956	-0.728221	0.174975
C259	C	0.825956	-0.478221	0.424975
C260	C	1.075956	-0.228221	0.674975
H261	H	0.404585	-0.236389	-0.247442
H262	H	0.654585	0.013611	0.002558
H263	H	0.904585	0.263611	0.252558
H264	H	1.154585	0.513611	0.502558
Br265	Br	0.427975	-0.876133	-1.087606
Br266	Br	0.677975	-0.626133	-0.837606
Br267	Br	0.927975	-0.376133	-0.587606
Br268	Br	1.177975	-0.126133	-0.337606
H269	H	0.247553	-1.056742	-0.584490
H270	H	0.497553	-0.806742	-0.334490
H271	H	0.747553	-0.556742	-0.084490
H272	H	0.997553	-0.306742	0.165510
Br273	Br	0.224051	-1.080302	-0.731924
Br274	Br	0.474051	-0.830302	-0.481924
Br275	Br	0.724051	-0.580302	-0.231924
Br276	Br	0.974051	-0.330302	0.018076
Br277	Br	0.224249	-0.383954	-0.428334
Br278	Br	0.474249	-0.133954	-0.178334
Br279	Br	0.724249	0.116046	0.071666
Br280	Br	0.974249	0.366046	0.321666
H281	H	0.583796	-0.899479	-0.404567
H282	H	0.833796	-0.649479	-0.154567
H283	H	1.083796	-0.399479	0.095433
H284	H	1.333796	-0.149479	0.345433
H285	H	0.404571	-0.364623	-0.247431
H286	H	0.654571	-0.114623	0.002569
H287	H	0.904571	0.135377	0.252569
H288	H	1.154571	0.385377	0.502569
H289	H	0.247471	-1.056786	-0.940251
H290	H	0.497471	-0.806786	-0.690251
H291	H	0.747471	-0.556786	-0.440251
H292	H	0.997471	-0.306786	-0.190251
Br293	Br	0.223942	-1.080325	-1.087689
Br294	Br	0.473942	-0.830325	-0.837689
Br295	Br	0.723942	-0.580325	-0.587689
Br296	Br	0.973942	-0.330325	-0.337689
H297	H	0.404547	-0.592147	-0.247424
H298	H	0.654547	-0.342147	0.002576
H299	H	0.904547	-0.092147	0.252576
H300	H	1.154547	0.157853	0.502576
Br301	Br	0.224260	-0.217336	-0.428347
Br302	Br	0.474260	0.032664	-0.178347
Br303	Br	0.724260	0.282664	0.071653
Br304	Br	0.974260	0.532664	0.321653
Br305	Br	0.428007	-0.876097	-0.920991
Br306	Br	0.678007	-0.626097	-0.670991
Br307	Br	0.928007	-0.376097	-0.420991
Br308	Br	1.178007	-0.126097	-0.170991
H309	H	0.712041	-0.899527	-0.404592
H310	H	0.962041	-0.649527	-0.154592
H311	H	1.212041	-0.399527	0.095408
H312	H	1.462041	-0.149527	0.345408
H313	H	0.404542	-0.720392	-0.247416
H314	H	0.654542	-0.470392	0.002584
H315	H	0.904542	-0.220392	0.252584
H316	H	1.154542	0.029608	0.502584
Br317	Br	0.428048	-0.876078	-0.731839
Br318	Br	0.678048	-0.626078	-0.481839
Br319	Br	0.928048	-0.376078	-0.231839
Br320	Br	1.178048	-0.126078	0.018161
H321	H	0.583784	-1.056631	-0.247633
H322	H	0.833784	-0.806631	0.002367
H323	H	1.083784	-0.556631	0.252367
H324	H	1.333784	-0.306631	0.502367
H325	H	0.712019	-1.056679	-0.247665
H326	H	0.962019	-0.806679	0.002335
H327	H	1.212019	-0.556679	0.252335
H328	H	1.462019	-0.306679	0.502335
H329	H	0.404584	-0.899567	-0.584420
H330	H	0.654584	-0.649567	-0.334420
H331	H	0.904584	-0.399567	-0.084420
H332	H	1.154584	-0.149567	0.165580
Br333	Br	0.224221	-0.739712	-0.428321
Br334	Br	0.474221	-0.489712	-0.178321
Br335	Br	0.724221	-0.239712	0.071679
Br336	Br	0.974221	0.010288	0.321679
Br337	Br	0.224228	-0.573100	-0.428322
Br338	Br	0.474228	-0.323100	-0.178322
Br339	Br	0.724228	-0.073100	0.071678
Br340	Br	0.974228	0.176900	0.321678
H341	H	0.939544	-1.056751	-0.247711
H342	H	1.189544	-0.806751	0.002289
H343	H	1.439544	-0.556751	0.252289
H344	H	1.689544	-0.306751	0.502289
H345	H	1.067799	-0.899638	-0.404667
H346	H	1.317799	-0.649638	-0.154667
H347	H	1.567799	-0.399638	0.095333
H348	H	1.817799	-0.149638	0.345333
Br349	Br	1.086971	-1.080315	-0.224258
Br350	Br	1.336971	-0.830315	0.025742
Br351	Br	1.586971	-0.580315	0.275742
Br352	Br	1.836971	-0.330315	0.525742
H353	H	0.939562	-0.899597	-0.404641
H354	H	1.189562	-0.649597	-0.154641
H355	H	1.439562	-0.399597	0.095359
H356	H	1.689562	-0.149597	0.345359
