data_functionalizedCrystal
_audit_creation_method	'MofGen! by Chris Wilmer'
_symmetry_space_group_name_H-M	'P1'
_symmetry_Int_Tables_number	1
_symmetry_cell_setting	triclinic
loop_
_symmetry_equiv_pos_as_xyz
  x,y,z
_cell_length_a	15.944551
_cell_length_b	18.266242
_cell_length_c	15.944551
_cell_angle_alpha	90.007297
_cell_angle_beta	83.498738
_cell_angle_gamma	90.004545
loop_
_atom_site_label
_atom_site_type_symbol
_atom_site_fract_x
_atom_site_fract_y
_atom_site_fract_z
O1	O	1.114530	0.060806	0.108333
O2	O	0.869980	0.060825	0.121690
O3	O	0.998933	0.060808	-0.007263
O4	O	0.985577	0.060822	0.237286
O5	O	0.998911	-0.060954	-0.007270
O6	O	0.869958	-0.060937	0.121683
O7	O	1.114508	-0.060956	0.108327
Zn8	Zn	0.992229	-0.080279	0.115004
Zn9	Zn	0.992258	0.080148	0.115013
O10	O	0.985555	-0.060940	0.237280
C11	C	0.838675	-0.000054	0.121132
C12	C	0.745429	-0.000047	0.119470
N13	N	0.992216	-0.189766	0.114997
C14	C	0.530572	-0.000066	0.035565
C15	C	0.469563	0.059971	0.074531
C16	C	0.574703	-0.000056	0.116462
C17	C	0.469564	-0.060077	0.074543
C18	C	0.409790	-0.000068	0.113551
C19	C	0.514922	0.060031	0.155450
C20	C	0.514929	-0.060071	0.155451
C21	C	0.453937	-0.000019	0.194476
C22	C	0.669705	-0.000049	0.118137
C23	C	0.314789	-0.000070	0.111883
C24	C	1.049335	-0.228082	0.057925
C25	C	1.049340	-0.304727	0.057921
C26	C	0.992235	-0.343053	0.115004
C27	C	0.935105	-0.304727	0.172081
C28	C	0.935095	-0.228084	0.172077
N29	N	0.981547	-0.463380	0.189328
N30	N	0.981561	-0.536188	0.189328
C31	C	0.992258	-0.573975	0.115016
N32	N	1.002957	-0.536203	0.040701
N33	N	1.002947	-0.463389	0.040702
C34	C	0.992238	-0.426160	0.115014
C35	C	1.049386	-0.695398	0.057935
C36	C	1.049386	-0.772045	0.057930
C37	C	0.935154	-0.772044	0.172097
C38	C	0.935151	-0.695399	0.172094
C39	C	0.992271	-0.657081	0.115014
C40	C	1.145813	-0.000075	0.108885
C41	C	1.239059	-0.000078	0.110547
C42	C	0.998367	-0.000073	-0.038561
C43	C	0.996705	-0.000073	-0.131807
N44	N	0.992278	0.189635	0.115012
C45	C	0.912801	-0.000057	-0.346663
C46	C	0.951752	-0.060096	-0.407684
C47	C	0.993698	-0.000067	-0.302533
C48	C	0.951793	0.059952	-0.407661
C49	C	0.990787	-0.000058	-0.467445
C50	C	1.032672	-0.060156	-0.362325
C51	C	1.032701	0.059946	-0.362295
C52	C	1.071711	-0.000108	-0.423298
C53	C	0.995372	-0.000073	-0.207530
C54	C	0.989119	-0.000058	-0.562446
C55	C	0.986120	-0.000057	0.268577
C56	C	0.987782	-0.000052	0.361823
H57	H	0.563905	0.000004	-0.031573
C58	C	0.835976	-0.107317	-0.475315
C59	C	0.905553	-0.128609	-0.434842
H60	H	0.807455	-0.149613	-0.492082
H61	H	0.798556	-0.079056	-0.437638
H62	H	0.854734	-0.078852	-0.523683
H63	H	0.886795	-0.157070	-0.386471
H64	H	0.942979	-0.156882	-0.472521
C65	C	0.809362	0.062781	-0.251686
C66	C	0.822154	-0.000122	-0.301698
H67	H	0.753400	0.062740	-0.223932
H68	H	0.848336	0.063240	-0.210834
H69	H	0.817661	0.105024	-0.286378
H70	H	0.813861	-0.042365	-0.267005
H71	H	0.783168	-0.000588	-0.342555
C72	C	0.481483	0.128371	-0.054852
C73	C	0.442417	0.128484	0.028347
H74	H	0.464721	0.170664	-0.083367
H75	H	0.541021	0.128643	-0.054576
H76	H	0.465189	0.085734	-0.083040
H77	H	0.458716	0.171119	0.056537
H78	H	0.382866	0.128218	0.028076
H79	H	0.888581	-0.196886	0.218553
H80	H	0.917575	0.110714	-0.427735
H81	H	1.095844	-0.196886	0.011445
H82	H	0.534919	0.110843	0.189643
H83	H	0.420779	0.000019	0.261683
H84	H	1.066850	-0.110970	-0.342337
H85	H	1.095855	-0.335930	0.011444
H86	H	0.888642	-0.664200	0.218572
H87	H	0.535051	-0.110827	0.189636
C88	C	0.481513	-0.128476	-0.054859
C89	C	0.442435	-0.128597	0.028335
H90	H	0.464770	-0.170777	-0.083387
H91	H	0.465217	-0.085850	-0.083037
H92	H	0.541057	-0.128731	-0.054573
H93	H	0.382891	-0.128337	0.028049
H94	H	0.458726	-0.171234	0.056520
H95	H	1.138919	-0.000147	-0.456457
C96	C	0.884409	-0.422217	0.222785
C97	C	0.872335	-0.346852	0.234830
H98	H	0.845657	-0.448221	0.261528
H99	H	0.875287	-0.434786	0.166727
H100	H	0.940469	-0.434757	0.231947
H101	H	0.816276	-0.334311	0.225662
H102	H	0.881450	-0.334279	0.290902
C103	C	1.162292	-0.703095	-0.054920
C104	C	1.112162	-0.653273	-0.004815
H105	H	1.201042	-0.677088	-0.093662
H106	H	1.192508	-0.732978	-0.019938
H107	H	1.127321	-0.732999	-0.085153
H108	H	1.147132	-0.623373	0.025423
H109	H	1.081943	-0.623377	-0.039801
H110	H	1.095896	-0.803242	0.011450
H111	H	0.888654	-0.803248	0.218571
C112	C	1.036389	0.191275	-0.357723
C113	C	1.078863	0.128462	-0.335104
H114	H	1.064881	0.233577	-0.340929
H115	H	1.035228	0.192011	-0.417145
H116	H	0.980255	0.190840	-0.330422
H117	H	1.134995	0.128894	-0.362410
H118	H	1.080034	0.127726	-0.275672
