data_functionalizedCrystal
_audit_creation_method	'MofGen! by Chris Wilmer'
_symmetry_space_group_name_H-M	'P1'
_symmetry_Int_Tables_number	1
_symmetry_cell_setting	triclinic
loop_
_symmetry_equiv_pos_as_xyz
  x,y,z
_cell_length_a	10.654550
_cell_length_b	17.038272
_cell_length_c	9.130313
_cell_angle_alpha	89.998262
_cell_angle_beta	89.996220
_cell_angle_gamma	87.798229
loop_
_atom_site_label
_atom_site_type_symbol
_atom_site_fract_x
_atom_site_fract_y
_atom_site_fract_z
O1	O	1.678036	0.109874	-0.121922
O2	O	2.178036	0.609874	0.378078
O3	O	1.313530	0.120343	-0.121899
O4	O	1.813530	0.620343	0.378101
O5	O	1.493617	0.001281	-0.121899
O6	O	1.993617	0.501281	0.378101
O7	O	1.497950	0.228936	-0.121923
O8	O	1.997950	0.728936	0.378077
O9	O	1.493615	0.001284	0.121700
O10	O	1.993615	0.501284	0.621700
O11	O	1.313528	0.120346	0.121700
O12	O	1.813528	0.620346	0.621700
O13	O	1.678034	0.109878	0.121676
O14	O	2.178034	0.609878	0.621676
Cu15	Cu	1.495781	0.115112	0.143931
Cu16	Cu	1.995781	0.615112	0.643931
Cu17	Cu	1.495783	0.115108	-0.144153
Cu18	Cu	1.995783	0.615108	0.355847
O19	O	1.497948	0.228939	0.121676
O20	O	1.997948	0.728939	0.621676
C21	C	1.266660	0.119576	-0.000097
C22	C	1.766660	0.619576	0.499903
C23	C	1.127003	0.117276	-0.000087
C24	C	1.627003	0.617276	0.499913
C25	C	1.054026	0.187378	-0.000116
C26	C	1.554026	0.687378	0.499884
C27	C	0.922804	0.185212	-0.000141
C28	C	1.422804	0.685212	0.499859
C29	C	0.937548	0.042837	-0.000115
C30	C	1.437548	0.542837	0.499885
C31	C	1.068767	0.045004	-0.000080
C32	C	1.568767	0.545004	0.499920
C33	C	1.045513	0.269577	-0.000137
C34	C	1.545513	0.769577	0.499863
C35	C	0.914292	0.267411	-0.000162
C36	C	1.414292	0.767411	0.499838
C37	C	1.489675	-0.027867	-0.000100
C38	C	1.989675	0.472133	0.499900
C39	C	1.477918	-0.114726	-0.000099
C40	C	1.977918	0.385274	0.499901
C41	C	1.585862	-0.164237	-0.000105
C42	C	2.085862	0.335763	0.499895
C43	C	1.574808	-0.245850	-0.000118
C44	C	2.074808	0.254150	0.499882
C45	C	1.455808	-0.277949	-0.000115
C46	C	1.955808	0.222051	0.499885
C47	C	1.347856	-0.228431	-0.000114
C48	C	1.847856	0.271569	0.499886
C49	C	1.358911	-0.146821	-0.000111
C50	C	1.858911	0.353179	0.499889
C51	C	1.416750	-0.523925	-0.000133
C52	C	1.916750	-0.023925	0.499867
C53	C	1.405702	-0.605542	-0.000131
C54	C	1.905702	-0.105542	0.499869
C55	C	1.632656	-0.622955	-0.000137
C56	C	2.132656	-0.122955	0.499863
C57	C	1.643701	-0.541342	-0.000126
C58	C	2.143701	-0.041342	0.499874
C59	C	1.535749	-0.491831	-0.000133
C60	C	2.035749	0.008169	0.499867
C61	C	1.444505	-0.361370	-0.000124
C62	C	1.944505	0.138630	0.499876
C63	C	1.547052	-0.408412	-0.000134
C64	C	2.047052	0.091588	0.499866
C65	C	1.724905	0.110645	-0.000129
C66	C	2.224905	0.610645	0.499871
C67	C	1.864562	0.112944	-0.000148
C68	C	2.364562	0.612944	0.499852
C69	C	1.501889	0.258088	-0.000126
C70	C	2.001889	0.758088	0.499874
C71	C	1.513646	0.344947	-0.000136
C72	C	2.013646	0.844947	0.499864
N73	N	1.495788	0.115114	0.346553
N74	N	1.995788	0.615114	0.846553
N75	N	1.495785	0.115100	-0.346776
N76	N	1.995785	0.615100	0.153224
C77	C	1.575554	0.062412	0.423205
C78	C	2.075554	0.562412	0.923205
C79	C	1.575550	0.062403	0.576542
C80	C	2.075550	0.562403	1.076542
C81	C	1.416010	0.167805	0.576561
C82	C	1.916010	0.667805	1.076561
C83	C	1.416009	0.167810	0.423227
C84	C	1.916009	0.667810	0.923227
C85	C	1.667667	0.001561	0.423195
C86	C	2.167667	0.501561	0.923195
C87	C	1.667663	0.001552	0.576532
C88	C	2.167663	0.501552	1.076532
H89	H	1.083600	0.295749	-0.105312
H90	H	1.583600	0.795749	0.394688
H91	H	1.631874	-0.055271	0.624087
H92	H	2.131874	0.444729	1.124087
Br93	Br	1.747370	-0.120682	-0.000087
Br94	Br	2.247370	0.379318	0.499913
Br95	Br	0.849517	0.319028	-0.170088
Br96	Br	1.349517	0.819028	0.329912
Br97	Br	0.858505	-0.055242	-0.000100
Br98	Br	1.358505	0.444758	0.499900
Br99	Br	1.822583	0.033331	0.343899
Br100	Br	2.322583	0.533331	0.843899
Br101	Br	1.307740	0.239315	0.680626
Br102	Br	1.807740	0.739315	1.180626
H103	H	0.870926	0.292254	0.105003
H104	H	1.370926	0.792254	0.605003
H105	H	1.662708	-0.286159	-0.000119
H106	H	2.162708	0.213841	0.499881
Br107	Br	1.622626	-0.098656	0.353824
Br108	Br	2.122626	0.401344	0.853824
Br109	Br	1.099387	0.323166	0.169769
Br110	Br	1.599387	0.823166	0.669769
H111	H	1.351046	0.210718	0.360818
H112	H	1.851046	0.710718	0.860818
Br113	Br	1.830593	0.023881	0.645897
Br114	Br	2.330593	0.523881	1.145897
H115	H	1.720544	-0.663275	-0.000135
H116	H	2.220544	-0.163275	0.499865
Br117	Br	1.167805	-0.050138	0.000001
Br118	Br	1.667805	0.449862	0.500001
H119	H	1.740603	-0.515213	-0.000128
H120	H	2.240603	-0.015213	0.499872
Br121	Br	1.244192	-0.649105	-0.000112
Br122	Br	1.744192	-0.149105	0.499888
H123	H	1.250963	-0.254573	-0.000121
H124	H	1.750963	0.245427	0.499879
Br125	Br	1.270242	-0.456742	-0.000151
Br126	Br	1.770242	0.043258	0.499849
H127	H	1.271011	-0.106509	-0.000107
H128	H	1.771011	0.393491	0.499893
Br129	Br	1.708547	-0.364847	-0.000151
Br130	Br	2.208547	0.135153	0.499849
H131	H	1.347615	-0.387514	-0.000119
H132	H	1.847615	0.112486	0.499881
