data_functionalizedCrystal
_audit_creation_method	'MofGen! by Chris Wilmer'
_symmetry_space_group_name_H-M	'P1'
_symmetry_Int_Tables_number	1
_symmetry_cell_setting	triclinic
loop_
_symmetry_equiv_pos_as_xyz
  x,y,z
_cell_length_a	14.044220
_cell_length_b	14.519709
_cell_length_c	13.596369
_cell_angle_alpha	90.000291
_cell_angle_beta	90.006843
_cell_angle_gamma	91.565489
loop_
_atom_site_label
_atom_site_type_symbol
_atom_site_fract_x
_atom_site_fract_y
_atom_site_fract_z
O1	O	0.124273	-1.233892	0.081665
O2	O	0.457606	-0.900559	0.414998
O3	O	0.790939	-0.567226	0.748332
O4	O	0.138907	-0.966596	0.081695
O5	O	0.472240	-0.633262	0.415029
O6	O	0.805574	-0.299929	0.748362
O7	O	-0.006402	-1.096232	0.081671
O8	O	0.326932	-0.762899	0.415004
O9	O	0.660265	-0.429565	0.748338
O10	O	0.269581	-1.104256	0.081690
O11	O	0.602915	-0.770923	0.415023
O12	O	0.936248	-0.437589	0.748356
O13	O	-0.006409	-1.096217	-0.081912
O14	O	0.326924	-0.762884	0.251421
O15	O	0.660257	-0.429551	0.584755
O16	O	0.138899	-0.966581	-0.081887
O17	O	0.472233	-0.633248	0.251446
O18	O	0.805566	-0.299914	0.584779
O19	O	0.124265	-1.233878	-0.081918
O20	O	0.457598	-0.900544	0.251416
O21	O	0.790932	-0.567211	0.584749
Zn22	Zn	0.131581	-1.100227	-0.107875
Zn23	Zn	0.464914	-0.766894	0.225458
Zn24	Zn	0.798248	-0.433560	0.558792
Zn25	Zn	0.131591	-1.100246	0.107653
Zn26	Zn	0.464924	-0.766913	0.440986
Zn27	Zn	0.798258	-0.433580	0.774319
O28	O	0.269574	-1.104241	-0.081893
O29	O	0.602907	-0.770908	0.251440
O30	O	0.936240	-0.437575	0.584773
C31	C	0.138221	-0.932174	-0.000092
C32	C	0.471555	-0.598840	0.333241
C33	C	0.804888	-0.265507	0.666574
C34	C	0.136177	-0.829628	-0.000081
C35	C	0.469511	-0.496294	0.333252
C36	C	0.802844	-0.162961	0.666586
C37	C	-0.041726	-1.092712	-0.000120
C38	C	0.291608	-0.759379	0.333213
C39	C	0.624941	-0.426045	0.666546
C40	C	-0.146969	-1.082235	-0.000120
C41	C	0.186364	-0.748902	0.333213
C42	C	0.519697	-0.415568	0.666546
C43	C	0.124951	-1.268300	-0.000128
C44	C	0.458284	-0.934966	0.333205
C45	C	0.791617	-0.601633	0.666539
C46	C	0.126995	-1.370846	-0.000133
C47	C	0.460328	-1.037512	0.333201
C48	C	0.793661	-0.704179	0.666534
C49	C	-0.339663	-1.063081	-0.000104
C50	C	-0.006330	-0.729747	0.333229
C51	C	0.327004	-0.396414	0.666563
C52	C	-0.397170	-1.137389	-0.000110
C53	C	-0.063837	-0.804055	0.333224
C54	C	0.269496	-0.470722	0.666557
C55	C	-0.504392	-1.126731	-0.000101
C56	C	-0.171059	-0.793398	0.333233
C57	C	0.162275	-0.460064	0.666566
C58	C	-0.232432	-1.073737	-0.000113
C59	C	0.100902	-0.740404	0.333220
C60	C	0.434235	-0.407070	0.666553
C61	C	0.304898	-1.107761	-0.000100
C62	C	0.638231	-0.774428	0.333234
C63	C	0.971564	-0.441095	0.666567
C64	C	0.410141	-1.118238	-0.000093
C65	C	0.743475	-0.784905	0.333240
C66	C	1.076808	-0.451572	0.666573
N67	N	0.131573	-1.100220	-0.254967
N68	N	0.464907	-0.766887	0.078367
N69	N	0.798240	-0.433554	0.411700
C70	C	0.128653	-0.454125	-0.000126
C71	C	0.461987	-0.120791	0.333207
C72	C	0.795320	0.212542	0.666540
C73	C	0.130743	-0.558601	-0.000113
C74	C	0.464076	-0.225268	0.333220
C75	C	0.797409	0.108065	0.666553
C76	C	0.132415	-0.641873	-0.000103
C77	C	0.465749	-0.308540	0.333231
C78	C	0.799082	0.024794	0.666564
C79	C	0.134505	-0.746356	-0.000092
C80	C	0.467838	-0.413023	0.333242
C81	C	0.801172	-0.079689	0.666575
C82	C	0.131592	-1.100245	-0.656258
C83	C	0.464925	-0.766912	-0.322924
C84	C	0.798259	-0.433579	0.010409
C85	C	0.131590	-1.100236	-0.544606
C86	C	0.464923	-0.766902	-0.211273
C87	C	0.798257	-0.433569	0.122060
C88	C	0.131583	-1.100233	-0.455616
C89	C	0.464917	-0.766900	-0.122282
C90	C	0.798250	-0.433567	0.211051
C91	C	0.131580	-1.100223	-0.343957
C92	C	0.464913	-0.766890	-0.010624
C93	C	0.798247	-0.433556	0.322709
N94	N	0.131591	-1.100260	0.254744
N95	N	0.464924	-0.766926	0.588078
N96	N	0.798258	-0.433593	0.921411
H97	H	-0.365878	-1.209010	-0.000052
H98	H	-0.032545	-0.875677	0.333282
H99	H	0.300789	-0.542343	0.666615
H100	H	-0.370954	-0.991465	-0.000094
H101	H	-0.037620	-0.658131	0.333240
H102	H	0.295713	-0.324798	0.666573
