data_functionalizedCrystal
_audit_creation_method	'MofGen! by Chris Wilmer'
_symmetry_space_group_name_H-M	'P1'
_symmetry_Int_Tables_number	1
_symmetry_cell_setting	triclinic
loop_
_symmetry_equiv_pos_as_xyz
  x,y,z
_cell_length_a	12.996460
_cell_length_b	14.519709
_cell_length_c	14.519709
_cell_angle_alpha	83.680145
_cell_angle_beta	89.992878
_cell_angle_gamma	90.005119
loop_
_atom_site_label
_atom_site_type_symbol
_atom_site_fract_x
_atom_site_fract_y
_atom_site_fract_z
O1	O	0.085423	-1.223863	-0.120894
O2	O	0.585423	-0.723863	0.379106
O3	O	0.085457	-0.955386	-0.135130
O4	O	0.585457	-0.455386	0.364870
O5	O	0.085430	-1.096742	0.006227
O6	O	0.585430	-0.596742	0.506227
O7	O	0.085450	-1.082506	-0.262250
O8	O	0.585450	-0.582506	0.237750
O9	O	-0.085704	-1.096740	0.006236
O10	O	0.414296	-0.596740	0.506236
O11	O	-0.085677	-0.955383	-0.135121
O12	O	0.414323	-0.455383	0.364879
O13	O	-0.085711	-1.223860	-0.120884
O14	O	0.414289	-0.723860	0.379116
Cu15	Cu	-0.101320	-1.089622	-0.128002
Cu16	Cu	0.398680	-0.589622	0.371998
Cu17	Cu	0.101066	-1.089624	-0.128013
Cu18	Cu	0.601066	-0.589624	0.371987
O19	O	-0.085684	-1.082503	-0.262241
O20	O	0.414316	-0.582503	0.237759
C21	C	-0.000106	-0.921025	-0.134462
C22	C	0.499894	-0.421025	0.365538
C23	C	-0.000093	-0.818643	-0.132474
C24	C	0.499907	-0.318643	0.367526
N25	N	-0.243667	-1.089626	-0.127993
N26	N	0.256333	-0.589626	0.372007
N27	N	0.243413	-1.089627	-0.128014
N28	N	0.743413	-0.589627	0.371986
C29	C	-0.000136	-0.443748	-0.125154
C30	C	0.499864	0.056252	0.374846
C31	C	-0.000124	-0.548056	-0.127187
C32	C	0.499876	-0.048056	0.372813
C33	C	-0.000113	-0.631192	-0.128814
C34	C	0.499887	-0.131192	0.371186
C35	C	-0.000103	-0.735507	-0.130847
C36	C	0.499897	-0.235507	0.369153
C37	C	0.663227	-1.089622	-0.128005
C38	C	1.163227	-0.589622	0.371995
C39	C	0.546422	-1.089620	-0.128010
C40	C	1.046422	-0.589620	0.371990
C41	C	0.453324	-1.089624	-0.128009
C42	C	0.953324	-0.589624	0.371991
C43	C	0.336511	-1.089623	-0.128015
C44	C	0.836511	-0.589623	0.371985
C45	C	-0.000137	-1.096078	0.040591
C46	C	0.499863	-0.596078	0.540591
C47	C	-0.000138	-1.094090	0.142972
C48	C	0.499862	-0.594090	0.642972
C49	C	-0.000144	-0.258221	-0.121553
C50	C	0.499856	0.241779	0.378447
C51	C	-0.000142	-0.360602	-0.123541
C52	C	0.499858	0.139398	0.376459
C53	C	-0.000115	-1.083168	-0.296605
C54	C	0.499885	-0.583168	0.203395
C55	C	-0.000107	-1.085156	-0.398987
C56	C	0.499893	-0.585156	0.101013
C57	C	-0.000110	-1.086770	0.517868
C58	C	0.499890	-0.586770	1.017868
C59	C	-0.000118	-1.088803	0.413560
C60	C	0.499882	-0.588803	0.913560
C61	C	-0.000125	-1.090430	0.330423
C62	C	0.499875	-0.590430	0.830423
C63	C	-0.000131	-1.092463	0.226109
C64	C	0.499869	-0.592463	0.726109
