data_functionalizedCrystal
_audit_creation_method	'MofGen! by Chris Wilmer'
_symmetry_space_group_name_H-M	'P1'
_symmetry_Int_Tables_number	1
_symmetry_cell_setting	triclinic
loop_
_symmetry_equiv_pos_as_xyz
  x,y,z
_cell_length_a	17.699083
_cell_length_b	9.565339
_cell_length_c	17.699083
_cell_angle_alpha	89.999342
_cell_angle_beta	96.716985
_cell_angle_gamma	89.997515
loop_
_atom_site_label
_atom_site_type_symbol
_atom_site_fract_x
_atom_site_fract_y
_atom_site_fract_z
O1	O	1.004075	0.116067	-0.095706
O2	O	0.783697	0.116113	-0.108158
O3	O	0.900112	0.116076	0.008257
O4	O	0.887660	0.116103	-0.212121
O5	O	0.900103	-0.116444	0.008250
O6	O	0.783688	-0.116407	-0.108166
O7	O	1.004066	-0.116453	-0.095713
Zn8	Zn	0.893876	-0.153348	-0.101940
Zn9	Zn	0.893888	0.153007	-0.101931
O10	O	0.887651	-0.116417	-0.212128
C11	C	0.755495	-0.000141	-0.107716
C12	C	0.671477	-0.000124	-0.106377
N13	N	0.893873	-0.362427	-0.101946
C14	C	0.622856	-0.000116	-0.174710
C15	C	0.543913	-0.000134	-0.173448
C16	C	0.513592	-0.000151	-0.103852
C17	C	0.562219	-0.000163	-0.035513
C18	C	0.641161	-0.000155	-0.036776
C19	C	0.243856	-0.000198	-0.030418
C20	C	0.164908	-0.000202	-0.029160
C21	C	0.146608	-0.000178	-0.167090
C22	C	0.225550	-0.000170	-0.168353
C23	C	0.274170	-0.000189	-0.100015
C24	C	0.359769	-0.000172	-0.101384
C25	C	0.427995	-0.000158	-0.102481
C26	C	0.840018	-0.453613	-0.155767
C27	C	0.908386	-0.546805	-0.170327
C28	C	0.825535	-0.546791	-0.087392
C29	C	0.962274	-0.453567	-0.116541
C30	C	0.879379	-0.453545	-0.033576
C31	C	0.947796	-0.546694	-0.048107
C32	C	1.032268	-0.000196	-0.096156
C33	C	1.116286	-0.000204	-0.097494
C34	C	0.899662	-0.000184	0.036451
C35	C	0.898323	-0.000184	0.120469
N36	N	0.893896	0.362087	-0.101919
C37	C	0.888102	-0.000153	-0.240322
C38	C	0.889440	-0.000144	-0.324340
C39	C	0.966656	-0.000201	0.169090
C40	C	0.965394	-0.000188	0.248033
C41	C	0.895798	-0.000169	0.278354
C42	C	0.827459	-0.000149	0.229727
C43	C	0.828722	-0.000151	0.150785
C44	C	0.822364	-0.000136	0.548090
C45	C	0.821106	-0.000138	0.627038
C46	C	0.959036	-0.000173	0.645338
C47	C	0.960299	-0.000175	0.566396
C48	C	0.891961	-0.000148	0.517776
C49	C	0.893330	-0.000159	0.432177
C50	C	0.894427	-0.000168	0.363951
H51	H	0.647537	-0.000102	-0.231384
N52	N	0.752562	-0.000151	0.498430
N53	N	0.737877	-0.098166	0.452340
H54	H	0.688577	-0.098181	0.417263
N55	N	0.494241	-0.000118	-0.243245
N56	N	0.448135	0.097879	-0.257927
H57	H	0.413051	0.097882	-0.307222
H58	H	1.023330	-0.000225	0.144409
N59	N	0.863964	-0.402127	0.038926
N60	N	0.852392	-0.485912	0.090537
H61	H	0.841499	-0.449598	0.141743
N62	N	1.005003	-0.597685	0.008996
N63	N	1.013963	-0.726351	0.018604
H64	H	1.054368	-0.762371	0.058928
N65	N	0.256519	-0.000187	-0.239445
N66	N	0.298529	-0.098203	-0.255537
H67	H	0.320400	-0.098224	-0.305747
H68	H	1.020089	-0.412789	-0.128909
H69	H	0.794517	-0.412744	-0.201323
H70	H	0.767734	-0.587745	-0.075094
H71	H	0.283434	-0.000215	0.025228
H72	H	1.021038	-0.000204	0.287618
H73	H	0.920661	-0.587768	-0.228135
H74	H	0.140225	-0.000217	0.027517
N75	N	0.096942	-0.000205	-0.236898
N76	N	0.099640	-0.098212	-0.283219
H77	H	0.064565	-0.098231	-0.332520
H78	H	1.016971	-0.000198	0.541714
N79	N	1.028851	-0.000172	0.694993
N80	N	1.090985	-0.000191	0.667909
H81	H	1.140291	-0.000194	0.702976
H82	H	0.764429	-0.000125	0.651721
N83	N	0.531238	-0.000194	0.035572
N84	N	0.460754	-0.000200	0.036692
H85	H	0.438873	-0.000219	0.086897
N86	N	0.756374	-0.000112	0.260708
N87	N	0.755254	-0.000110	0.331192
H88	H	0.705049	-0.000086	0.353073
N89	N	0.690818	-0.000178	0.033032
N90	N	0.663739	-0.000199	0.095167
H91	H	0.698808	-0.000225	0.144472
N92	N	0.758922	-0.000104	0.101115
N93	N	0.712613	0.097929	0.103804
H94	H	0.663315	0.097973	0.068724
