data_functionalizedCrystal
_audit_creation_method	'MofGen! by Chris Wilmer'
_symmetry_space_group_name_H-M	'P1'
_symmetry_Int_Tables_number	1
_symmetry_cell_setting	triclinic
loop_
_symmetry_equiv_pos_as_xyz
  x,y,z
_cell_length_a	16.992694
_cell_length_b	14.853559
_cell_length_c	16.053802
_cell_angle_alpha	92.571272
_cell_angle_beta	87.249047
_cell_angle_gamma	87.149838
loop_
_atom_site_label
_atom_site_type_symbol
_atom_site_fract_x
_atom_site_fract_y
_atom_site_fract_z
O1	O	1.043893	0.187627	-0.069318
O2	O	1.543893	0.687627	0.430682
O3	O	0.815607	0.185528	-0.069343
O4	O	1.315607	0.685528	0.430657
O5	O	0.935851	0.055778	-0.069329
O6	O	1.435851	0.555778	0.430671
O7	O	0.923649	0.317377	-0.069332
O8	O	1.423649	0.817377	0.430668
O9	O	0.929233	0.062888	0.069529
O10	O	1.429233	0.562888	0.569529
O11	O	0.808988	0.192638	0.069516
O12	O	1.308988	0.692638	0.569516
O13	O	1.037275	0.194737	0.069540
O14	O	1.537275	0.694737	0.569540
Zn15	Zn	0.922081	0.194817	0.091575
Zn16	Zn	1.422081	0.694817	0.591575
Zn17	Zn	0.930801	0.185448	-0.091377
Zn18	Zn	1.430801	0.685448	0.408623
O19	O	0.917030	0.324487	0.069526
O20	O	1.417030	0.824487	0.569526
C21	C	0.783082	0.186385	0.000083
C22	C	1.283082	0.686385	0.500083
C23	C	0.696030	0.178334	0.000074
C24	C	1.196030	0.678334	0.500074
C25	C	0.931990	0.025705	0.000099
C26	C	1.431990	0.525705	0.500099
C27	C	0.930337	-0.074496	0.000094
C28	C	1.430337	0.425504	0.500094
C29	C	0.645872	0.256009	0.000074
C30	C	1.145872	0.756009	0.500074
C31	C	0.564077	0.248440	0.000085
C32	C	1.064077	0.748440	0.500085
C33	C	0.532442	0.163195	0.000091
C34	C	1.032442	0.663195	0.500091
C35	C	0.582606	0.085514	0.000094
C36	C	1.082606	0.585514	0.500094
C37	C	0.664399	0.093084	0.000088
C38	C	1.164399	0.593084	0.500088
C39	C	0.288809	0.131820	0.000114
C40	C	0.788809	0.631820	0.500114
C41	C	0.207010	0.124255	0.000117
C42	C	0.707010	0.624255	0.500117
C43	C	0.188486	0.287183	0.000110
C44	C	0.688486	0.787183	0.500110
C45	C	0.270282	0.294745	0.000099
C46	C	0.770282	0.794745	0.500099
C47	C	0.320439	0.217064	0.000106
C48	C	0.820439	0.717064	0.500106
N49	N	0.448834	0.155456	0.000100
N50	N	0.948834	0.655456	0.500100
N51	N	0.404045	0.224804	0.000103
N52	N	0.904045	0.724804	0.500103
C53	C	0.926931	-0.502042	-0.075599
C54	C	1.426931	-0.002042	0.424401
C55	C	0.919715	-0.494285	0.075790
C56	C	1.419715	0.005715	0.575790
C57	C	0.921275	-0.400141	0.075791
C58	C	1.421275	0.099859	0.575791
C59	C	0.925662	-0.356944	0.000096
C60	C	1.425662	0.143056	0.500096
C61	C	0.928489	-0.407890	-0.075600
C62	C	1.428489	0.092110	0.424400
C63	C	0.918440	-0.349188	0.151485
C64	C	1.418440	0.150812	0.651485
C65	C	0.919999	-0.255038	0.151489
C66	C	1.419999	0.244962	0.651489
C67	C	0.924392	-0.211840	0.075793
C68	C	1.424392	0.288160	0.575793
C69	C	0.927220	-0.262792	0.000094
C70	C	1.427220	0.237208	0.500094
C71	C	0.931607	-0.219594	-0.075600
C72	C	1.431607	0.280406	0.424400
C73	C	0.934440	-0.270545	-0.151300
C74	C	1.434440	0.229455	0.348700
C75	C	0.932882	-0.364691	-0.151296
C76	C	1.432882	0.135309	0.348704
C77	C	0.925951	-0.117693	0.075789
C78	C	1.425951	0.382307	0.575789
C79	C	0.933164	-0.125442	-0.075602
C80	C	1.433164	0.374558	0.424398
C81	C	1.069799	0.193880	0.000113
C82	C	1.569799	0.693880	0.500113
C83	C	1.156852	0.201931	0.000117
C84	C	1.656852	0.701931	0.500117
C85	C	0.920891	0.354560	0.000097
C86	C	1.420891	0.854560	0.500097
C87	C	0.922544	0.454760	0.000096
C88	C	1.422544	0.954760	0.500096
N89	N	0.916135	0.201210	0.216434
N90	N	1.416135	0.701210	0.716434
N91	N	0.936753	0.179048	-0.216237
N92	N	1.436753	0.679048	0.283763
C93	C	0.967318	0.146023	0.260134
C94	C	1.467318	0.646023	0.760134
C95	C	0.963166	0.150505	0.347540
C96	C	1.463166	0.650505	0.847540
C97	C	0.907835	0.210178	0.391245
C98	C	1.407835	0.710178	0.891245
C99	C	0.856646	0.265367	0.347539
C100	C	1.356646	0.765367	0.847539
C101	C	0.860795	0.260880	0.260135
C102	C	1.360795	0.760880	0.760135
C103	C	0.889713	0.229750	0.652653
C104	C	1.389713	0.729750	1.152653
C105	C	0.885570	0.234235	0.740064
C106	C	1.385570	0.734235	1.240064
C107	C	0.992089	0.119371	0.740059
C108	C	1.492089	0.619371	1.240059
C109	C	0.996236	0.114894	0.652652
C110	C	1.496236	0.614894	1.152652
C111	C	0.945045	0.170079	0.608954
C112	C	1.445045	0.670079	1.108954
N113	N	0.903591	0.214762	0.480589
N114	N	1.403591	0.714762	0.980589
N115	N	0.949285	0.165490	0.519612
N116	N	1.449285	0.665490	1.019612
H117	H	0.671623	0.325426	0.000068
H118	H	1.171623	0.825426	0.500068
Cl119	Cl	0.936447	-0.428748	-0.246452
Cl120	Cl	1.436447	0.071252	0.253548
H121	H	0.705238	0.029832	0.000088
H122	H	1.205238	0.529832	0.500088
Cl123	Cl	0.939958	-0.216229	-0.246456
Cl124	Cl	1.439958	0.283771	0.253544
Cl125	Cl	0.816005	0.309261	0.795001
Cl126	Cl	1.316005	0.809261	1.295001
H127	H	0.811590	0.313951	0.383129
H128	H	1.311590	0.813951	0.883129
Cl129	Cl	0.310046	0.401915	0.000086
Cl130	Cl	0.810046	0.901915	0.500086
Cl131	Cl	0.912908	-0.403495	0.246638
Cl132	Cl	1.412908	0.096505	0.746638
H133	H	0.923626	-0.076212	0.137423
H134	H	1.423626	0.423788	0.637423
Cl135	Cl	0.125428	0.384833	0.000104
Cl136	Cl	0.625428	0.884833	0.500104
H137	H	0.523241	0.311692	0.000084
H138	H	1.023241	0.811692	0.500084
H139	H	1.012378	0.097435	0.224555
H140	H	1.512378	0.597435	0.724555
H141	H	0.848033	0.274686	0.617080
H142	H	1.348033	0.774686	1.117080
H143	H	0.329638	0.068566	0.000120
H144	H	0.829638	0.568566	0.500120
H145	H	0.916139	-0.529462	0.137417
H146	H	1.416139	-0.029462	0.637417
Cl147	Cl	0.542835	-0.021653	0.000106
Cl148	Cl	1.042835	0.478347	0.500106
H149	H	0.936740	-0.090278	-0.137243
H150	H	1.436740	0.409722	0.362757
H151	H	0.929241	-0.543531	-0.137231
H152	H	1.429241	-0.043531	0.362769
Cl153	Cl	0.796444	0.330258	0.205198
Cl154	Cl	1.296444	0.830258	0.705198
Cl155	Cl	0.167240	0.017082	0.000143
Cl156	Cl	0.667240	0.517082	0.500143
H157	H	0.917695	-0.213562	0.213129
H158	H	1.417695	0.286438	0.713129
H159	H	1.004843	0.105567	0.383120
H160	H	1.504843	0.605567	0.883120
Cl161	Cl	1.065797	0.039877	0.597709
Cl162	Cl	1.565797	0.539877	1.097709
Cl163	Cl	1.056437	0.049996	0.794997
Cl164	Cl	1.556437	0.549996	1.294997
