data_functionalizedCrystal
_audit_creation_method	'MofGen! by Chris Wilmer'
_symmetry_space_group_name_H-M	'P1'
_symmetry_Int_Tables_number	1
_symmetry_cell_setting	triclinic
loop_
_symmetry_equiv_pos_as_xyz
  x,y,z
_cell_length_a	18.215407
_cell_length_b	18.215405
_cell_length_c	18.215399
_cell_angle_alpha	89.969449
_cell_angle_beta	90.019833
_cell_angle_gamma	89.974667
loop_
_atom_site_label
_atom_site_type_symbol
_atom_site_fract_x
_atom_site_fract_y
_atom_site_fract_z
Zn1	Zn	1.125072	0.292983	0.416103
Zn2	Zn	1.625072	0.792983	0.916103
Zn3	Zn	1.124980	0.416054	0.293031
Zn4	Zn	1.624980	0.916054	0.793031
Zn5	Zn	1.002005	0.293007	0.293050
Zn6	Zn	1.502005	0.793007	0.793050
Zn7	Zn	1.001970	0.416013	0.416056
Zn8	Zn	1.501970	0.916013	0.916056
O9	O	1.063507	0.354514	0.354560
O10	O	1.563507	0.854514	0.854560
O11	O	1.228044	0.309316	0.399788
O12	O	1.728044	0.809316	0.899788
O13	O	1.108643	0.399759	0.190049
O14	O	1.608643	0.899759	0.690049
O15	O	1.018382	0.190020	0.309401
O16	O	1.518382	0.690020	0.809401
O17	O	1.227977	0.399736	0.309368
O18	O	1.727977	0.899736	0.809368
O19	O	1.108799	0.190002	0.399807
O20	O	1.608799	0.690002	0.899807
O21	O	1.018293	0.309357	0.190063
O22	O	1.518293	0.809357	0.690063
O23	O	0.899016	0.309317	0.309355
O24	O	1.399016	0.809317	0.809355
O25	O	1.018324	0.399666	0.519046
O26	O	1.518324	0.899666	1.019046
O27	O	0.898991	0.399689	0.399727
O28	O	1.398991	0.899689	0.899727
O29	O	1.108766	0.309276	0.519081
O30	O	1.608766	0.809276	1.019081
O31	O	1.108610	0.519033	0.309322
O32	O	1.608610	1.019033	0.809322
O33	O	1.018235	0.519003	0.399708
O34	O	1.518235	1.019003	0.899708
C35	C	0.872301	0.354502	0.354539
C36	C	1.372301	0.854502	0.854539
C37	C	0.790502	0.354514	0.354547
C38	C	1.290502	0.854514	0.854547
C39	C	1.063429	0.545721	0.354524
C40	C	1.563429	1.045721	0.854524
C41	C	1.063463	0.627520	0.354534
C42	C	1.563463	1.127520	0.854534
C43	C	1.063552	0.354464	0.546513
C44	C	1.563552	0.854464	1.046513
C45	C	1.063571	0.354442	0.628312
C46	C	1.563571	0.854442	1.128312
C47	C	0.602314	0.401645	0.401544
C48	C	1.102314	0.901645	0.901544
C49	C	0.525455	0.401647	0.401554
C50	C	1.025455	0.901647	0.901554
C51	C	0.525452	0.307397	0.307591
C52	C	1.025452	0.807397	0.807591
C53	C	0.602309	0.307392	0.307586
C54	C	1.102309	0.807392	0.807586
C55	C	0.640738	0.354520	0.354562
C56	C	1.140738	0.854520	0.854562
C57	C	0.487022	0.354528	0.354576
C58	C	0.987022	0.854528	0.854576
C59	C	0.403688	0.354530	0.354585
C60	C	0.903688	0.854530	0.854585
C61	C	0.724077	0.354517	0.354553
C62	C	1.224077	0.854517	0.854553
C63	C	1.255460	0.354528	0.354581
C64	C	1.755460	0.854528	0.854581
C65	C	1.337259	0.354533	0.354591
C66	C	1.837259	0.854533	0.854591
C67	C	1.063605	0.162561	0.354611
C68	C	1.563605	0.662561	0.854611
C69	C	1.063647	0.080763	0.354633
C70	C	1.563647	0.580763	0.854633
C71	C	1.110632	0.815705	0.307556
C72	C	1.610632	1.315705	0.807556
C73	C	1.110665	0.892563	0.307574
C74	C	1.610665	1.392563	0.807574
C75	C	1.016476	0.892572	0.401616
C76	C	1.516476	1.392572	0.901616
C77	C	1.016447	0.815715	0.401601
C78	C	1.516447	1.315715	0.901601
C79	C	1.063524	0.777283	0.354567
C80	C	1.563524	1.277283	0.854567
C81	C	1.063586	0.930999	0.354600
C82	C	1.563586	1.430999	0.854600
C83	C	1.063621	1.014333	0.354619
C84	C	1.563621	1.514333	0.854619
C85	C	1.063490	0.693944	0.354548
C86	C	1.563490	1.193944	0.854548
C87	C	1.063504	0.354512	0.163353
C88	C	1.563504	0.854512	0.663353
C89	C	1.063628	0.354326	0.081555
C90	C	1.563628	0.854326	0.581555
C91	C	1.110681	0.307332	0.816525
C92	C	1.610681	0.807332	1.316525
C93	C	1.110690	0.307311	0.893384
C94	C	1.610690	0.807311	1.393384
C95	C	1.016513	0.401438	0.893336
C96	C	1.516513	0.901438	1.393336
C97	C	1.016501	0.401455	0.816479
C98	C	1.516501	0.901455	1.316479
C99	C	1.063589	0.354403	0.778075
C100	C	1.563589	0.854403	1.278075
C101	C	1.063610	0.354365	0.931791
C102	C	1.563610	0.854365	1.431791
C103	C	1.063619	0.354342	1.015125
C104	C	1.563619	0.854342	1.515125
C105	C	1.063579	0.354425	0.694736
C106	C	1.563579	0.854425	1.194736
H107	H	0.633601	0.440018	0.439797
H108	H	1.133601	0.940018	0.939797
H109	H	0.978146	0.923873	0.439908
H110	H	1.478146	1.423873	0.939908
H111	H	1.148966	0.784415	0.269260
H112	H	1.648966	1.284415	0.769260
Br113	Br	0.473310	0.465602	0.465322
Br114	Br	0.973310	0.965602	0.965322
Br115	Br	1.174585	0.243475	0.764407
Br116	Br	1.674585	0.743475	1.264407
H117	H	1.149035	0.268979	0.924686
H118	H	1.649035	0.768979	1.424686
H119	H	0.978148	0.439786	0.785173
H120	H	1.478148	0.939786	1.285173
Br121	Br	0.473293	0.243441	0.243841
Br122	Br	0.973293	0.743441	0.743841
Br123	Br	0.654461	0.243424	0.243826
Br124	Br	1.154461	0.743424	0.743826
H125	H	1.149026	0.923843	0.269294
H126	H	1.649026	1.423843	0.769294
H127	H	0.978086	0.784430	0.439887
H128	H	1.478086	1.284430	0.939887
H129	H	0.978177	0.439748	0.924614
H130	H	1.478177	0.939748	1.424614
