data_functionalizedCrystal
_audit_creation_method	'MofGen! by Chris Wilmer'
_symmetry_space_group_name_H-M	'P1'
_symmetry_Int_Tables_number	1
_symmetry_cell_setting	triclinic
loop_
_symmetry_equiv_pos_as_xyz
  x,y,z
_cell_length_a	13.032831
_cell_length_b	16.625546
_cell_length_c	13.032268
_cell_angle_alpha	82.855386
_cell_angle_beta	89.113023
_cell_angle_gamma	82.826778
loop_
_atom_site_label
_atom_site_type_symbol
_atom_site_fract_x
_atom_site_fract_y
_atom_site_fract_z
Zn1	Zn	1.498429	-0.544521	0.780776
Zn2	Zn	1.520160	-0.664651	0.608784
Zn3	Zn	1.348291	-0.510838	0.587021
Zn4	Zn	1.326409	-0.660292	0.758909
O5	O	1.423322	-0.595075	0.683873
O6	O	1.645231	-0.576377	0.776220
O7	O	1.515614	-0.631976	0.461981
O8	O	1.368270	-0.402484	0.612767
O9	O	1.661197	-0.664636	0.649858
O10	O	1.478576	-0.427231	0.755118
O11	O	1.389342	-0.518970	0.445992
O12	O	1.201469	-0.514743	0.591563
O13	O	1.330976	-0.657206	0.905725
O14	O	1.185392	-0.624546	0.717849
O15	O	1.457358	-0.572150	0.921791
O16	O	1.494396	-0.776895	0.628654
O17	O	1.352048	-0.773692	0.738951
C18	C	1.156114	-0.565517	0.649972
C19	C	1.041798	-0.552893	0.635494
C20	C	0.982917	-0.601664	0.691429
C21	C	0.864766	-0.588618	0.676466
C22	C	1.423230	-0.804552	0.683817
C23	C	1.423281	-0.894180	0.683840
C24	C	1.423447	-1.222385	0.683970
C25	C	1.423397	-1.131068	0.683936
C26	C	1.423363	-1.058285	0.683904
C27	C	1.423315	-0.966963	0.683872
C28	C	1.691574	-0.624750	0.717906
C29	C	1.805887	-0.637396	0.732409
C30	C	1.389302	-0.617949	0.952117
C31	C	1.374805	-0.627696	1.066427
C32	C	1.423440	-0.384786	0.683954
C33	C	1.423490	-0.295173	0.683989
C34	C	1.457270	-0.572239	0.416679
C35	C	1.471966	-0.562287	0.302395
C36	C	1.430873	-0.589958	1.125339
C37	C	1.415890	-0.600031	1.243485
H38	H	0.842942	-0.688808	0.791385
H39	H	1.489963	-0.550187	1.088309
H40	H	0.827708	-0.537199	0.617501
H41	H	1.004736	-0.501477	0.576533
C42	C	1.336050	-0.653759	1.293493
C43	C	1.371279	-0.728239	1.373002
C44	C	1.291441	-0.781966	1.423012
C45	C	1.176375	-0.761212	1.393512
C46	C	1.141141	-0.686728	1.313998
C47	C	1.220979	-0.633001	1.263989
H48	H	1.456462	-0.743606	1.394843
H49	H	1.317524	-0.837104	1.481873
H50	H	1.117274	-0.800984	1.430532
H51	H	1.055957	-0.671361	1.292157
H52	H	1.194896	-0.577863	1.205128
C53	C	1.032975	-0.671121	0.771092
C54	C	1.112501	-0.738653	0.735670
C55	C	1.162556	-0.808111	0.815335
C56	C	1.133085	-0.810038	0.930422
C57	C	1.053555	-0.742504	0.965850
C58	C	1.003500	-0.673046	0.886185
H59	H	1.134321	-0.737229	0.650470
H60	H	1.221429	-0.858104	0.789108
H61	H	1.170138	-0.861455	0.989395
H62	H	1.031735	-0.743928	1.051050
H63	H	0.944626	-0.623052	0.912411
C64	C	1.551805	-0.508557	1.252391
C65	C	1.516577	-0.434074	1.172885
C66	C	1.596414	-0.380344	1.122882
C67	C	1.711479	-0.401096	1.152385
C68	C	1.746713	-0.475582	1.231895
C69	C	1.666876	-0.529312	1.281898
H70	H	1.431394	-0.418709	1.151041
H71	H	1.570331	-0.325204	1.064023
H72	H	1.770579	-0.361322	1.115370
H73	H	1.831896	-0.490948	1.253739
H74	H	1.692959	-0.584452	1.340757
C75	C	1.294969	-0.681421	1.116440
C76	C	1.330197	-0.755902	1.195949
C77	C	1.250359	-0.809628	1.245959
C78	C	1.135293	-0.788874	1.216459
C79	C	1.100060	-0.714390	1.136946
C80	C	1.179897	-0.660664	1.086936
H81	H	1.415381	-0.771268	1.217790
H82	H	1.276442	-0.864766	1.304820
H83	H	1.076193	-0.828646	1.253479
H84	H	1.014876	-0.699024	1.115104
H85	H	1.153814	-0.605526	1.028075
