data_functionalizedCrystal
_audit_creation_method	'MofGen! by Chris Wilmer'
_symmetry_space_group_name_H-M	'P1'
_symmetry_Int_Tables_number	1
_symmetry_cell_setting	triclinic
loop_
_symmetry_equiv_pos_as_xyz
  x,y,z
_cell_length_a	12.759395
_cell_length_b	12.827892
_cell_length_c	12.827885
_cell_angle_alpha	90.029976
_cell_angle_beta	89.981133
_cell_angle_gamma	89.983071
loop_
_atom_site_label
_atom_site_type_symbol
_atom_site_fract_x
_atom_site_fract_y
_atom_site_fract_z
Zn1	Zn	1.606247	0.415938	-0.590837
Zn2	Zn	2.106247	0.915938	-0.090837
Zn3	Zn	1.606140	0.590716	-0.416098
Zn4	Zn	2.106140	1.090716	0.083902
Zn5	Zn	1.430550	0.415994	-0.416112
Zn6	Zn	1.930550	0.915994	0.083888
Zn7	Zn	1.430535	0.590642	-0.590799
Zn8	Zn	1.930535	1.090642	-0.090799
O9	O	1.518368	0.503322	-0.503462
O10	O	2.018368	1.003322	-0.003462
O11	O	1.753254	0.439130	-0.567668
O12	O	2.253254	0.939130	-0.067668
O13	O	1.582809	0.567593	-0.269864
O14	O	2.082809	1.067593	0.230136
O15	O	1.453907	0.269750	-0.439312
O16	O	1.953907	0.769750	0.060688
O17	O	1.753175	0.567538	-0.439287
O18	O	2.253175	1.067538	0.060713
O19	O	1.582991	0.269709	-0.567682
O20	O	2.082991	0.769709	-0.067682
O21	O	1.453804	0.439225	-0.269874
O22	O	1.953804	0.939225	0.230126
O23	O	1.283527	0.439154	-0.439275
O24	O	1.783527	0.939154	0.060725
O25	O	1.453882	0.567413	-0.737040
O26	O	1.953882	1.067413	-0.237040
O27	O	1.283516	0.567467	-0.567616
O28	O	1.783516	1.067467	-0.067616
O29	O	1.582976	0.439058	-0.737068
O30	O	2.082976	0.939058	-0.237068
O31	O	1.582795	0.736942	-0.439250
O32	O	2.082795	1.236942	0.060750
O33	O	1.453779	0.736888	-0.567602
O34	O	1.953779	1.236888	-0.067602
C35	C	1.518302	0.774832	-0.503443
C36	C	2.018302	1.274832	-0.003443
C37	C	1.518370	0.890985	-0.503470
C38	C	2.018370	1.390985	-0.003470
C39	C	1.245400	0.503310	-0.503444
C40	C	1.745400	1.003310	-0.003444
C41	C	1.128624	0.503329	-0.503461
C42	C	1.628624	1.003329	-0.003461
C43	C	1.518439	0.503221	-0.776032
C44	C	2.018439	1.003221	-0.276032
C45	C	1.518470	0.503178	-0.892185
C46	C	2.018470	1.003178	-0.392185
C47	C	1.128651	0.637158	-0.636887
C48	C	1.628651	1.137158	-0.136887
C49	C	1.073804	0.704081	-0.703602
C50	C	1.573804	1.204081	-0.203602
C51	C	0.964082	0.704093	-0.703615
C52	C	1.464082	1.204093	-0.203615
C53	C	0.909205	0.637174	-0.636907
C54	C	1.409205	1.137174	-0.136907
C55	C	0.964052	0.570251	-0.570191
C56	C	1.464052	1.070251	-0.070191
C57	C	1.073777	0.570248	-0.570183
C58	C	1.573777	1.070248	-0.070183
C59	C	0.964025	0.436419	-0.436772
C60	C	1.464025	0.936419	0.063228
C61	C	1.073747	0.436410	-0.436753
C62	C	1.573747	0.936410	0.063247
C63	C	0.909148	0.369500	-0.370064
C64	C	1.409148	0.869500	0.129936
C65	C	0.963995	0.302581	-0.303341
C66	C	1.463995	0.802581	0.196659
C67	C	1.073724	0.302572	-0.303331
C68	C	1.573724	0.802572	0.196669
C69	C	1.128594	0.369487	-0.370037
C70	C	1.628594	0.869487	0.129963
C71	C	1.792401	0.503336	-0.503480
C72	C	2.292401	1.003336	-0.003480
C73	C	1.909178	0.503342	-0.503488
C74	C	2.409178	1.003342	-0.003488
C75	C	1.518463	0.230752	-0.503503
C76	C	2.018463	0.730752	-0.003503
C77	C	1.518503	0.114599	-0.503521
C78	C	2.018503	0.614599	-0.003521
C79	C	1.582287	0.942762	-0.440028
C80	C	2.082287	1.442762	0.059972
C81	C	1.582359	1.062812	-0.440054
C82	C	2.082359	1.562812	0.059946
C83	C	1.582313	0.566672	-0.943965
C84	C	2.082313	1.066672	-0.443965
C85	C	1.582346	0.566629	-1.064015
C86	C	2.082346	1.066629	-0.564015
C87	C	1.518357	0.503348	-0.231952
C88	C	2.018357	1.003348	0.268048
C89	C	1.518530	0.503096	-0.115799
C90	C	2.018530	1.003096	0.384201
H91	H	1.217992	0.637162	-0.636875
H92	H	1.717992	1.137162	-0.136875
H93	H	1.636951	0.621060	-0.899418
H94	H	2.136951	1.121060	-0.399418
H95	H	1.463706	0.935534	-0.557809
H96	H	1.963706	1.435534	-0.057809
Br97	Br	1.427278	1.040399	-0.594049
Br98	Br	1.927278	1.540399	-0.094049
H99	H	1.637078	1.107339	-0.385736
H100	H	2.137078	1.607339	0.114264
H101	H	1.637003	0.620990	-1.108544
H102	H	2.137003	1.120990	-0.608544
Br103	Br	1.427413	0.412507	-0.966421
Br104	Br	1.927413	0.912507	-0.466421
H105	H	1.636961	0.898216	-0.385696
H106	H	2.136961	1.398216	0.114304
H107	H	1.118497	0.758563	-0.757916
H108	H	1.618497	1.258563	-0.257916
H109	H	1.217935	0.369489	-0.370031
H110	H	1.717935	0.869489	0.129969
H111	H	0.919426	0.758582	-0.757946
H112	H	1.419426	1.258582	-0.257946
Br113	Br	0.760296	0.637174	-0.636944
Br114	Br	1.260296	1.137174	-0.136944
H115	H	1.463866	0.448737	-1.071277
H116	H	1.963866	0.948737	-0.571277
H117	H	0.819807	0.369510	-0.370084
H118	H	1.319807	0.869510	0.129916
H119	H	0.919306	0.248096	-0.249038
H120	H	1.419306	0.748096	0.250962
H121	H	1.118374	0.248068	-0.249009
H122	H	1.618374	0.748068	0.250991
