data_functionalizedCrystal
_audit_creation_method	'MofGen! by Chris Wilmer'
_symmetry_space_group_name_H-M	'P1'
_symmetry_Int_Tables_number	1
_symmetry_cell_setting	triclinic
loop_
_symmetry_equiv_pos_as_xyz
  x,y,z
_cell_length_a	16.120530
_cell_length_b	18.215404
_cell_length_c	16.120297
_cell_angle_alpha	87.128027
_cell_angle_beta	90.128140
_cell_angle_gamma	92.880662
loop_
_atom_site_label
_atom_site_type_symbol
_atom_site_fract_x
_atom_site_fract_y
_atom_site_fract_z
Zn1	Zn	1.247438	0.372844	-0.534560
Zn2	Zn	1.254388	0.489999	-0.395501
Zn3	Zn	1.115429	0.360408	-0.388478
Zn4	Zn	1.108345	0.489321	-0.527470
O5	O	1.181400	0.428143	-0.461502
O6	O	1.364726	0.393873	-0.522020
O7	O	1.241828	0.467888	-0.278204
O8	O	1.132996	0.259077	-0.407884
O9	O	1.369833	0.479946	-0.419854
O10	O	1.229983	0.268214	-0.515210
O11	O	1.139735	0.372678	-0.273044
O12	O	0.998123	0.372020	-0.401010
O13	O	1.120922	0.478791	-0.644776
O14	O	0.992918	0.466733	-0.503127
O15	O	1.223114	0.393216	-0.649985
O16	O	1.234959	0.592890	-0.412979
O17	O	1.127662	0.592392	-0.509936
C18	C	0.965348	0.417954	-0.450537
C19	C	0.872919	0.413614	-0.445866
C20	C	1.181318	0.619344	-0.461470
C21	C	1.181357	0.701146	-0.461487
C22	C	1.170453	0.437315	-0.678396
C23	C	1.165788	0.441224	-0.770824
C24	C	0.703689	0.405673	-0.437345
C25	C	0.659948	0.450670	-0.485721
C26	C	0.565783	0.446252	-0.480980
C27	C	0.797863	0.410090	-0.442085
C28	C	1.398296	0.438372	-0.472511
C29	C	1.490724	0.442731	-0.477202
C30	C	1.237350	0.889585	-0.411117
C31	C	1.237388	0.966447	-0.411144
C32	C	1.125571	0.965960	-0.512014
C33	C	1.125538	0.889100	-0.511991
C34	C	1.181427	0.850914	-0.461538
C35	C	1.181497	1.004636	-0.461587
C36	C	1.181537	1.087973	-0.461617
C37	C	1.181388	0.767573	-0.461509
C38	C	1.181509	1.236198	-0.461570
C39	C	1.181567	1.154405	-0.461638
C40	C	1.157240	0.448342	-0.940048
C41	C	1.205724	0.407732	-0.983817
C42	C	1.200968	0.411692	-1.077979
C43	C	1.161995	0.444382	-0.845877
C44	C	1.192352	0.418956	-0.245455
C45	C	1.197179	0.414848	-0.153036
H46	H	0.693220	0.492512	-0.530699
Br47	Br	1.049643	0.836614	-0.580431
H48	H	0.670419	0.363834	-0.392371
H49	H	1.282859	0.858496	-0.370037
H50	H	1.282927	0.997929	-0.370088
H51	H	1.250803	0.369989	-0.950570
H52	H	1.080067	0.997060	-0.553089
H53	H	1.112164	0.486081	-0.973293
