data_functionalizedCrystal
_audit_creation_method	'MofGen! by Chris Wilmer'
_symmetry_space_group_name_H-M	'P1'
_symmetry_Int_Tables_number	1
_symmetry_cell_setting	triclinic
loop_
_symmetry_equiv_pos_as_xyz
  x,y,z
_cell_length_a	21.295418
_cell_length_b	21.295417
_cell_length_c	21.295420
_cell_angle_alpha	90.017552
_cell_angle_beta	90.034650
_cell_angle_gamma	90.046319
loop_
_atom_site_label
_atom_site_type_symbol
_atom_site_fract_x
_atom_site_fract_y
_atom_site_fract_z
Zn1	Zn	0.962299	-0.250441	0.356233
Zn2	Zn	0.962218	-0.355685	0.250959
Zn3	Zn	0.857039	-0.250463	0.250943
Zn4	Zn	0.856992	-0.355705	0.356155
O5	O	0.909637	-0.303073	0.303573
O6	O	1.050378	-0.264384	0.342308
O7	O	0.948252	-0.341728	0.162867
O8	O	0.871056	-0.162370	0.264936
O9	O	1.050319	-0.341707	0.264963
O10	O	0.948390	-0.162354	0.342293
O11	O	0.870977	-0.264422	0.162856
O12	O	0.768943	-0.264441	0.264861
O13	O	0.870975	-0.341741	0.444255
O14	O	0.768909	-0.341762	0.342159
O15	O	0.948344	-0.264403	0.444312
O16	O	0.948206	-0.443777	0.264887
O17	O	0.870897	-0.443792	0.342175
C18	C	0.909555	-0.466625	0.303538
C19	C	0.909577	-0.536593	0.303544
C20	C	0.746085	-0.303106	0.303500
C21	C	0.676117	-0.303136	0.303484
C22	C	0.949868	-0.569431	0.263342
C23	C	0.949897	-0.635174	0.263356
C24	C	0.909625	-0.668076	0.303566
C25	C	0.869331	-0.635230	0.343776
C26	C	0.869307	-0.569488	0.343765
N27	N	0.854557	-0.771358	0.308340
N28	N	0.854581	-0.833809	0.308347
C29	C	0.909695	-0.866150	0.303602
N30	N	0.964785	-0.833681	0.298838
N31	N	0.964760	-0.771223	0.298828
C32	C	0.909646	-0.739361	0.303582
C33	C	0.950021	-0.970274	0.263413
C34	C	0.950052	-1.036018	0.263431
C35	C	0.869480	-1.036072	0.343848
C36	C	0.869455	-0.970330	0.343833
C37	C	0.909725	-0.937435	0.303612
C38	C	0.643249	-0.343450	0.343673
C39	C	0.577507	-0.343435	0.343702
C40	C	0.544635	-0.303111	0.303529
C41	C	0.577511	-0.262789	0.263337
C42	C	0.643252	-0.262801	0.263315
N43	N	0.441368	-0.298180	0.248472
N44	N	0.378916	-0.298172	0.248495
C45	C	0.346560	-0.303071	0.303596
N46	N	0.379015	-0.307991	0.358674
N47	N	0.441472	-0.308002	0.358650
C48	C	0.473350	-0.303093	0.303550
C49	C	0.242406	-0.343371	0.343820
C50	C	0.176663	-0.343351	0.343849
C51	C	0.176669	-0.262709	0.263479
C52	C	0.242411	-0.262725	0.263455
C53	C	0.275276	-0.303060	0.303625
C54	C	1.073827	-0.303041	0.303646
C55	C	1.143796	-0.303027	0.303677
C56	C	0.909663	-0.303072	0.467763
C57	C	0.909675	-0.303071	0.537731
C58	C	0.909737	-0.138883	0.303622
C59	C	0.909780	-0.068915	0.303642
C60	C	0.869444	-0.262821	0.570582
C61	C	0.869432	-0.262824	0.636324
C62	C	0.909663	-0.303071	0.669214
C63	C	0.949896	-0.343330	0.636355
C64	C	0.949902	-0.343329	0.570614
N65	N	0.964753	-0.307887	0.772470
N66	N	0.964745	-0.307884	0.834922
C67	C	0.909647	-0.303075	0.867288
N68	N	0.854554	-0.298257	0.834844
N69	N	0.854562	-0.298258	0.772387
C70	C	0.909661	-0.303076	0.740499
C71	C	0.869400	-0.262826	0.971425
C72	C	0.869387	-0.262833	1.037168
C73	C	0.949857	-0.343336	1.037198
C74	C	0.949864	-0.343331	0.971455
C75	C	0.909636	-0.303073	0.938573
C76	C	0.909612	-0.303087	1.140021
C77	C	0.909618	-0.303082	1.070053
H78	H	0.982659	-0.542650	0.230593
H79	H	0.836497	-0.542751	0.376503
H80	H	0.149905	-0.229874	0.230773
H81	H	0.269173	-0.229900	0.230725
H82	H	0.550743	-0.229957	0.230630
H83	H	0.982814	-0.943490	0.230664
H84	H	0.836542	-0.662023	0.376516
Br85	Br	1.004491	-0.397956	0.680988
H86	H	0.836685	-0.230042	0.543813
H87	H	0.836672	-0.230044	0.663077
Br88	Br	1.004744	-1.080585	0.208873
H89	H	0.269167	-0.376210	0.376531
H90	H	0.836692	-1.062860	0.376590
H91	H	0.982666	-0.376106	0.543867
Br92	Br	1.004582	-0.679750	0.208792
Br93	Br	0.687863	-0.208083	0.208769
H94	H	0.836622	-0.230059	1.063914
Br95	Br	0.814804	-0.208194	0.926794
Br96	Br	0.532890	-0.398150	0.398250
H97	H	0.670004	-0.376293	0.376384
H98	H	0.149903	-0.376179	0.376580
H99	H	0.982626	-0.376106	0.944708
Br100	Br	0.814770	-0.925760	0.398395
Br101	Br	1.004451	-0.397964	1.081826
