data_functionalizedCrystal
_audit_creation_method	'MofGen! by Chris Wilmer'
_symmetry_space_group_name_H-M	'P1'
_symmetry_Int_Tables_number	1
_symmetry_cell_setting	triclinic
loop_
_symmetry_equiv_pos_as_xyz
  x,y,z
_cell_length_a	10.540535
_cell_length_b	10.540539
_cell_length_c	9.616153
_cell_angle_alpha	89.997886
_cell_angle_beta	90.000931
_cell_angle_gamma	84.524567
loop_
_atom_site_label
_atom_site_type_symbol
_atom_site_fract_x
_atom_site_fract_y
_atom_site_fract_z
O1	O	1.685889	0.178865	0.115562
O2	O	1.316475	0.195726	0.115581
O3	O	1.509610	0.002589	0.115570
O4	O	1.492754	0.372002	0.115574
O5	O	1.509596	0.002600	-0.115722
O6	O	1.316461	0.195737	-0.115710
O7	O	1.685875	0.178876	-0.115729
Zn8	Zn	1.501166	0.187308	-0.152442
Zn9	Zn	1.501185	0.187294	0.152294
O10	O	1.492740	0.372013	-0.115717
C11	C	1.269165	0.194469	-0.000062
C12	C	1.128217	0.190689	-0.000055
C13	C	1.091546	0.049675	-0.000062
C14	C	0.944946	0.045698	-0.000601
C15	C	0.918873	0.255066	-0.131892
C16	C	1.065638	0.258066	-0.131989
C17	C	1.065538	0.260105	0.131042
C18	C	0.919192	0.253584	0.132760
C19	C	1.508339	-0.044709	-0.000073
C20	C	1.504557	-0.185657	-0.000066
C21	C	1.359640	-0.369081	0.000461
C22	C	1.363474	-0.222463	-0.000060
C23	C	1.572445	-0.247309	-0.132148
C24	C	1.567630	-0.393854	-0.132259
C25	C	1.570515	-0.394384	0.130762
C26	C	1.571815	-0.247403	0.132509
C27	C	1.733185	0.180133	-0.000083
C28	C	1.874134	0.183913	-0.000081
C29	C	1.494011	0.419311	-0.000071
C30	C	1.497793	0.560259	-0.000070
N31	N	1.501162	0.187317	-0.360417
C32	C	1.397803	0.290617	-0.419452
C33	C	1.397451	0.290320	-0.580620
C34	C	1.471607	0.054402	-0.581201
C35	C	1.470843	0.055032	-0.419984
C36	C	1.634425	0.215693	-0.419809
C37	C	1.633581	0.218670	-0.581038
N38	N	1.501198	0.187275	0.360269
H39	H	1.087723	0.363857	0.132318
O40	O	1.566710	-0.049977	-0.368242
H41	H	1.613214	-0.101141	-0.458378
O42	O	1.344328	0.020850	-0.634694
H43	H	1.268460	0.094600	-0.600711
O44	O	1.286111	-0.409064	-0.124306
H45	H	1.279763	-0.513517	-0.120608
O46	O	1.342092	0.022256	-0.370165
H47	H	1.266982	0.094010	-0.410097
O48	O	1.568638	-0.049998	-0.631916
H49	H	1.639147	-0.008188	-0.699543
H50	H	0.916487	-0.009666	-0.095648
H51	H	1.676052	-0.224957	-0.137064
O52	O	1.118858	0.194435	-0.263004
H53	H	1.039734	0.161807	-0.325692
H54	H	1.674676	-0.223183	0.140479
H55	H	1.672420	-0.441612	0.131645
O56	O	1.671858	0.341438	-0.365989
H57	H	1.595887	0.385115	-0.296299
H58	H	1.656008	0.316435	-0.619271
O59	O	1.096163	0.394990	-0.139444
H60	H	1.006129	0.458771	-0.142974
O61	O	1.740336	0.125635	-0.634331
H62	H	1.723501	0.027669	-0.601570
H63	H	1.711352	0.140385	-0.381619
H64	H	1.524860	-0.425941	0.230872
H65	H	0.890596	0.201803	0.230276
H66	H	0.915614	-0.009948	0.093868
O67	O	1.292692	-0.166015	0.125334
H68	H	1.255407	-0.243435	0.186893
O69	O	0.856116	0.389854	-0.137913
H70	H	0.881899	0.442458	-0.043636
O71	O	1.147214	-0.022102	0.125073
H72	H	1.201613	0.041958	0.188616
H73	H	0.887965	0.206258	-0.230366
H74	H	1.415174	0.389033	-0.620196
O75	O	1.292234	-0.167130	-0.125693
H76	H	1.254916	-0.245112	-0.186320
H77	H	1.108003	0.216098	0.230985
O78	O	1.149085	-0.020859	-0.125089
H79	H	1.203684	0.044083	-0.187227
O80	O	1.267563	0.266702	-0.365825
H81	H	1.195322	0.340148	-0.408114
O82	O	1.285797	-0.406986	0.125902
H83	H	1.346767	-0.476596	0.189212
O84	O	0.854271	0.387224	0.143834
H85	H	0.788588	0.406161	0.054424
H86	H	1.517446	-0.422048	-0.230988
O87	O	1.266495	0.266047	-0.631744
H88	H	1.265782	0.265763	-0.747166
H89	H	1.669095	-0.441823	-0.138256
H90	H	1.525275	-0.204704	-0.230434
O91	O	1.506113	-0.193187	0.261948
H92	H	1.575251	-0.145885	0.326302
H93	H	1.415234	0.389668	-0.380700
