data_functionalizedCrystal
_audit_creation_method	'MofGen! by Chris Wilmer'
_symmetry_space_group_name_H-M	'P1'
_symmetry_Int_Tables_number	1
_symmetry_cell_setting	triclinic
loop_
_symmetry_equiv_pos_as_xyz
  x,y,z
_cell_length_a	10.654559
_cell_length_b	9.730223
_cell_length_c	16.992695
_cell_angle_alpha	89.998169
_cell_angle_beta	87.578423
_cell_angle_gamma	90.000668
loop_
_atom_site_label
_atom_site_type_symbol
_atom_site_fract_x
_atom_site_fract_y
_atom_site_fract_z
O1	O	-1.677352	0.114264	-0.110221
O2	O	-1.312782	0.114273	-0.120711
O3	O	-1.493605	0.114257	-0.001315
O4	O	-1.496529	0.114279	-0.229617
O5	O	-1.493604	-0.114322	-0.001318
O6	O	-1.312780	-0.114307	-0.120714
O7	O	-1.677350	-0.114316	-0.110224
Zn8	Zn	-1.495065	-0.150604	-0.115470
Zn9	Zn	-1.495067	0.150560	-0.115466
O10	O	-1.496527	-0.114301	-0.229620
C11	C	-1.265916	-0.000016	-0.119941
C12	C	-1.126274	-0.000013	-0.117632
N13	N	-1.495072	-0.356140	-0.115472
C14	C	-0.929456	0.124587	-0.114385
C15	C	-1.060666	0.124588	-0.116547
C16	C	-1.060667	-0.124623	-0.116546
C17	C	-0.929461	-0.124622	-0.114378
C18	C	-0.863854	0.249196	-0.113308
C19	C	-0.929452	0.373806	-0.114392
C20	C	-1.060661	0.373807	-0.116555
C21	C	-1.126273	0.249197	-0.117633
C22	C	-1.575164	-0.428073	-0.062621
C23	C	-1.575160	-0.571956	-0.062612
C24	C	-1.414968	-0.571960	-0.168310
C25	C	-1.414967	-0.428080	-0.168315
C26	C	-1.655270	-0.356133	-0.009778
C27	C	-1.735369	-0.428066	0.043076
C28	C	-1.735365	-0.571949	0.043086
C29	C	-1.655261	-0.643899	-0.009759
C30	C	-0.724216	-0.000023	-0.110993
C31	C	-0.863858	-0.000013	-0.113301
C32	C	-1.489844	-0.000032	0.027916
C33	C	-1.478625	-0.000032	0.115022
N34	N	-1.495069	0.356097	-0.115457
C35	C	-1.500288	-0.000008	-0.258851
C36	C	-1.511507	0.000000	-0.345957
C37	C	-1.586876	-0.000036	0.164671
C38	C	-1.576326	-0.000022	0.246515
C39	C	-1.457526	-0.000015	0.278708
C40	C	-1.349267	-0.000007	0.229052
C41	C	-1.359817	-0.000010	0.147210
C42	C	-1.413799	0.000005	0.522545
C43	C	-1.403256	0.000004	0.604394
C44	C	-1.630317	-0.000009	0.621851
C45	C	-1.640857	-0.000020	0.540006
C46	C	-1.532598	-0.000005	0.490357
N47	N	-1.446740	-0.000006	0.362366
N48	N	-1.543385	-0.000004	0.406701
H49	H	-0.757016	0.249209	-0.111549
C50	C	-0.857297	-0.261679	-0.113191
H51	H	-0.915156	-0.335891	-0.114155
H52	H	-0.811103	-0.266861	-0.066678
H53	H	-0.801124	-0.266848	-0.158020
H54	H	-0.876023	0.475258	-0.113509
C55	C	-1.326874	-0.651102	-0.226440
H56	H	-1.338356	-0.747094	-0.218873
H57	H	-1.242161	-0.627527	-0.217435
H58	H	-1.345781	-0.627523	-0.278883
H59	H	-1.114069	0.475270	-0.117430
H60	H	-1.271668	-0.000006	0.106785
H61	H	-1.233113	0.249208	-0.119390
C62	C	-1.132835	-0.261679	-0.117742
H63	H	-1.220371	-0.243833	-0.119197
H64	H	-1.116329	-0.312887	-0.071721
H65	H	-1.106339	-0.312865	-0.163064
H66	H	-1.664476	-0.000029	0.286937
C67	C	-1.655275	-0.197867	-0.009791
H68	H	-1.596108	-0.165329	-0.048839
H69	H	-1.633064	-0.165302	0.040451
H70	H	-1.736664	-0.165332	-0.021010
H71	H	-1.800580	-0.369477	0.086105
C72	C	-1.326874	-0.348949	-0.226453
H73	H	-1.279180	-0.412398	-0.257932
H74	H	-1.271743	-0.292816	-0.197928
H75	H	-1.375359	-0.292826	-0.259379
C76	C	-1.771538	-0.000011	0.504599
H77	H	-1.834499	0.000003	0.545892
H78	H	-1.780378	-0.079719	0.473035
H79	H	-1.780365	0.079713	0.473036
C80	C	-1.294719	-0.000002	0.467942
H81	H	-1.222458	-0.000016	0.498839
H82	H	-1.294103	0.079705	0.435647
H83	H	-1.294118	-0.079727	0.435657
H84	H	-1.800577	-0.630515	0.086127
C85	C	-1.655248	-0.802167	-0.009748
H86	H	-1.596069	-0.834711	-0.048786
H87	H	-1.736629	-0.834726	-0.020949
H88	H	-1.633013	-0.834703	0.040501
H89	H	-1.683616	-0.000050	0.138467
C90	C	-1.749390	-0.000006	0.676465
H91	H	-1.726097	0.000010	0.729819
H92	H	-1.797771	-0.079714	0.666644
H93	H	-1.797757	0.079717	0.666634
H94	H	-1.306510	-0.000012	0.630602
H95	H	-1.252537	0.000008	0.255270
