data_functionalizedCrystal
_audit_creation_method	'MofGen! by Chris Wilmer'
_symmetry_space_group_name_H-M	'P1'
_symmetry_Int_Tables_number	1
_symmetry_cell_setting	triclinic
loop_
_symmetry_equiv_pos_as_xyz
  x,y,z
_cell_length_a	14.395555
_cell_length_b	14.395555
_cell_length_c	17.917595
_cell_angle_alpha	116.963003
_cell_angle_beta	89.995310
_cell_angle_gamma	59.995566
loop_
_atom_site_label
_atom_site_type_symbol
_atom_site_fract_x
_atom_site_fract_y
_atom_site_fract_z
Zr1	Zr	0.900168	1.006143	0.093825
O2	O	0.758287	1.187017	0.208041
O3	O	0.943671	0.816304	0.058812
O4	O	0.952102	0.993203	0.208033
O5	O	0.743196	1.023453	-0.058888
O6	O	1.104977	0.993193	0.208026
O7	O	0.749856	1.010119	0.058820
O8	O	1.089896	0.676754	-0.058903
O9	O	0.758277	1.339892	0.208041
O10	O	1.076303	0.897702	0.043874
O11	O	0.957244	0.907660	-0.043966
O12	O	0.967170	1.115935	0.131723
O13	O	0.848111	1.125893	0.043883
Zr14	Zr	1.133365	1.027396	-0.093917
Zr15	Zr	1.143987	1.006129	0.093814
Zr16	Zr	0.889547	1.027411	-0.093906
Zr17	Zr	0.900153	1.249962	0.093824
Zr18	Zr	1.133380	0.783578	-0.093917
O19	O	1.089862	1.217236	-0.058904
O20	O	1.104965	1.186997	0.208026
O21	O	0.743184	1.217256	-0.058889
O22	O	1.275246	0.846522	-0.208133
O23	O	1.290349	0.816283	0.058797
O24	O	0.928568	0.846543	-0.208118
O25	O	1.290337	1.010086	0.058796
O26	O	1.081431	1.040337	-0.208125
O27	O	0.928556	1.040346	-0.208118
O28	O	1.283677	1.023421	-0.058912
O29	O	0.952080	1.339881	0.208032
O30	O	1.081453	0.693659	-0.208124
O31	O	1.275256	0.693647	-0.208133
O32	O	1.283699	0.676743	-0.058911
O33	O	0.749834	1.356797	0.058819
O34	O	0.943637	1.356785	0.058811
O35	O	1.066363	0.917604	-0.131815
O36	O	1.185422	0.907646	-0.043976
O37	O	1.076289	1.125880	0.043873
O38	O	0.957230	1.135838	-0.043966
C39	C	1.016785	0.711790	-0.000046
C40	C	1.016792	0.608283	-0.000045
C41	C	1.081683	0.480368	0.047850
C42	C	0.976385	0.614568	0.082576
C43	C	1.122073	0.475489	-0.034731
C44	C	0.911382	0.558151	0.034727
C45	C	1.057145	0.419004	-0.082626
C46	C	0.951781	0.553197	-0.047921
C47	C	0.711787	1.016788	-0.000033
C48	C	0.608280	1.016794	-0.000028
C49	C	0.426287	1.135764	0.047854
C50	C	0.514648	1.082954	-0.034734
C51	C	0.521277	1.069637	0.082544
C52	C	0.512249	0.963941	-0.082700
C53	C	0.518866	0.950635	0.034637
C54	C	0.607242	0.897740	-0.048000
C55	C	1.321746	1.016752	-0.000059
C56	C	1.425253	1.016746	-0.000064
C57	C	1.030053	0.990168	0.234777
C58	C	1.034562	0.981139	0.314474
C59	C	1.016748	1.321749	-0.000047
C60	C	1.016741	1.425257	-0.000047
C61	C	1.042822	0.964648	0.460406
C62	C	0.990693	1.068897	0.539509
C63	C	0.995289	1.059721	0.620710
C64	C	1.038227	0.973821	0.379196
C65	C	1.003475	1.043374	0.765132
C66	C	0.998950	1.052411	0.685438
C67	C	1.321765	0.711772	-0.000059
C68	C	1.425279	0.608259	-0.000063
C69	C	1.003499	0.738392	-0.234869
C70	C	0.998996	0.643913	-0.314565
C71	C	1.308479	0.738374	-0.234882
C72	C	1.407483	0.643889	-0.314583
C73	C	0.725054	1.295166	0.234790
C74	C	0.626050	1.389651	0.314491
C75	C	0.711768	1.321767	-0.000033
C76	C	0.608254	1.425281	-0.000029
C77	C	1.030034	1.295147	0.234777
C78	C	1.034537	1.389626	0.314473
C79	C	1.053840	0.604737	-0.397856
C80	C	1.049605	0.515978	-0.472747
C81	C	0.990531	0.466391	-0.464345
C82	C	0.935681	0.505576	-0.381045
C83	C	0.939910	0.594340	-0.306157
C84	C	1.516135	0.594320	-0.306160
C85	C	1.609170	0.505554	-0.381041
C86	C	1.593551	0.466352	-0.464343
C87	C	1.484888	0.515931	-0.472765
C88	C	1.391855	0.604702	-0.397885
C89	C	0.517398	1.439232	0.306068
C90	C	0.424363	1.528028	0.380949
C91	C	0.439982	1.567235	0.464251
C92	C	0.548645	1.517650	0.472672
C93	C	0.641678	1.428862	0.397793
C94	C	1.093620	1.439186	0.306043
C95	C	1.097873	1.527947	0.380920
C96	C	1.043035	1.567153	0.464225
C97	C	0.983949	1.517584	0.472654
C98	C	0.979704	1.428818	0.397778
C99	C	1.545370	0.553116	-0.047939
C100	C	1.574277	0.418931	-0.082631
C101	C	1.580810	0.558053	0.034670
C102	C	1.452820	0.475379	-0.034803
C103	C	1.459359	0.614570	0.082543
C104	C	1.488194	0.480392	0.047872
H105	H	1.211129	0.441589	-0.064066
H106	H	0.942609	1.165039	0.546246
O107	O	0.323621	1.269028	0.101427
H108	H	0.321111	1.323669	0.072435
H109	H	0.730145	1.388493	0.404661
O110	O	0.878972	0.595120	-0.101563
H111	H	0.930700	0.580522	-0.156770
H112	H	1.669313	0.394068	-0.525308
O113	O	1.108789	0.473702	-0.562585
H114	H	1.150595	0.523079	-0.555838
O115	O	0.793365	0.603306	0.073698
H116	H	0.759816	0.684081	0.142046
H117	H	0.513897	1.138876	-0.064072
H118	H	1.145984	1.568298	0.374040
H119	H	0.931587	1.388476	0.404654
H120	H	1.397819	0.441296	-0.064223
H121	H	0.526101	1.114343	0.152390
H122	H	1.091329	0.335274	-0.152449
O123	O	0.709712	0.764367	-0.101737
H124	H	0.786373	0.765241	-0.100896
O125	O	1.117553	0.658217	-0.406929
H126	H	1.154961	0.616062	-0.477433
O127	O	0.505962	0.904812	-0.175261
H128	H	0.580582	0.806348	-0.215050
O129	O	1.106508	0.837295	0.451467
H130	H	1.048142	0.828078	0.483435
H131	H	0.519574	0.894759	0.063996
O132	O	0.985983	0.370648	-0.545126
H133	H	0.935688	0.342747	-0.525298
H134	H	0.887584	0.465189	-0.374217
O135	O	1.639972	0.308010	-0.175120
H136	H	1.647470	0.224380	-0.180696
O137	O	1.152785	1.396894	0.216197
H138	H	1.194594	1.446265	0.222928
O139	O	0.880937	0.636408	-0.216321
H140	H	0.839226	0.586936	-0.223070
O141	O	1.532994	0.636607	-0.216317
H142	H	1.624183	0.587229	-0.223055
O143	O	1.726363	0.452074	-0.371949
H144	H	1.721584	0.494232	-0.301443
O145	O	1.468047	0.473627	-0.562614
H146	H	1.550999	0.403556	-0.613260
H147	H	1.303389	0.645050	-0.404755
H148	H	0.504660	1.407314	0.238246
H149	H	0.335894	1.568385	0.374075
H150	H	1.464830	0.448786	0.088384
O151	O	1.393649	0.725533	0.175009
H152	H	1.445930	0.760708	0.203672
H153	H	0.364220	1.639532	0.525216
H154	H	0.561349	1.549584	0.540506
O155	O	1.047613	1.662901	0.544980
H156	H	0.961163	1.747047	0.584527
O157	O	0.924791	1.559888	0.562506
H158	H	0.937663	1.629951	0.613148
O159	O	1.576009	0.595082	-0.101670
H160	H	1.622655	0.514670	-0.170194
H161	H	1.635943	0.591967	0.064015
H162	H	1.136495	0.448657	0.088403
H163	H	0.942227	0.698273	0.152414
