data_functionalizedCrystal
_audit_creation_method	'MofGen! by Chris Wilmer'
_symmetry_space_group_name_H-M	'P1'
_symmetry_Int_Tables_number	1
_symmetry_cell_setting	triclinic
loop_
_symmetry_equiv_pos_as_xyz
  x,y,z
_cell_length_a	12.759401
_cell_length_b	12.827892
_cell_length_c	12.759393
_cell_angle_alpha	89.969663
_cell_angle_beta	89.979527
_cell_angle_gamma	90.016917
loop_
_atom_site_label
_atom_site_type_symbol
_atom_site_fract_x
_atom_site_fract_y
_atom_site_fract_z
Zn1	Zn	1.606257	-0.415934	-0.594025
Zn2	Zn	2.106257	0.084066	-0.094025
Zn3	Zn	1.606147	-0.590713	-0.418348
Zn4	Zn	2.106147	-0.090713	0.081652
Zn5	Zn	1.430557	-0.415992	-0.418361
Zn6	Zn	1.930557	0.084008	0.081639
Zn7	Zn	1.430545	-0.590639	-0.593985
Zn8	Zn	1.930545	-0.090639	-0.093985
O9	O	1.518376	-0.503319	-0.506180
O10	O	2.018376	-0.003319	-0.006180
O11	O	1.753263	-0.439126	-0.570733
O12	O	2.253263	0.060874	-0.070733
O13	O	1.582813	-0.567591	-0.271328
O14	O	2.082813	-0.067591	0.228672
O15	O	1.453914	-0.269748	-0.441685
O16	O	1.953914	0.230252	0.058315
O17	O	1.753182	-0.567536	-0.441663
O18	O	2.253182	-0.067536	0.058337
O19	O	1.583000	-0.269706	-0.570745
O20	O	2.083000	0.230294	-0.070745
O21	O	1.453808	-0.439224	-0.271338
O22	O	1.953808	0.060776	0.228662
O23	O	1.283534	-0.439152	-0.441646
O24	O	1.783534	0.060848	0.058354
O25	O	1.453894	-0.567408	-0.741011
O26	O	1.953894	-0.067408	-0.241011
O27	O	1.283526	-0.567464	-0.570676
O28	O	1.783526	-0.067464	-0.070676
O29	O	1.582989	-0.439054	-0.741041
O30	O	2.082989	0.060946	-0.241041
O31	O	1.582802	-0.736939	-0.441624
O32	O	2.082802	-0.236939	0.058376
O33	O	1.453788	-0.736885	-0.570664
O34	O	1.953788	-0.236885	-0.070664
C35	C	1.245409	-0.503307	-0.506159
C36	C	1.745409	-0.003307	-0.006159
C37	C	1.128632	-0.503326	-0.506175
C38	C	1.628632	-0.003326	-0.006175
C39	C	1.073793	-0.570240	-0.573255
C40	C	1.573793	-0.070240	-0.073255
C41	C	0.964069	-0.570244	-0.573276
C42	C	1.464069	-0.070244	-0.073276
C43	C	0.964033	-0.436417	-0.439127
C44	C	1.464033	0.063583	0.060873
C45	C	1.073755	-0.436409	-0.439112
C46	C	1.573755	0.063591	0.060888
C47	C	1.518311	-0.774829	-0.506161
C48	C	2.018311	-0.274829	-0.006161
C49	C	1.518379	-0.890982	-0.506188
C50	C	2.018379	-0.390982	-0.006188
C51	C	1.582295	-0.942760	-0.442406
C52	C	2.082295	-0.442760	0.057594
C53	C	1.582366	-1.062810	-0.442433
C54	C	2.082366	-0.562810	0.057567
C55	C	1.792410	-0.503333	-0.506201
C56	C	2.292410	-0.003333	-0.006201
C57	C	1.909186	-0.503339	-0.506210
C58	C	2.409186	-0.003339	-0.006210
C59	C	1.518453	-0.503216	-0.780213
C60	C	2.018453	-0.003216	-0.280213
C61	C	1.518485	-0.503173	-0.896990
C62	C	2.018485	-0.003173	-0.396990
C63	C	1.518471	-0.230749	-0.506221
C64	C	2.018471	0.269251	-0.006221
C65	C	1.518511	-0.114596	-0.506239
C66	C	2.018511	0.385404	-0.006239
C67	C	1.585731	-0.436288	-1.061600
C68	C	2.085731	0.063712	-0.561600
C69	C	1.585711	-0.436329	-0.951876
C70	C	2.085711	0.063671	-0.451876
C71	C	1.451282	-0.569988	-0.951833
C72	C	1.951282	-0.069988	-0.451833
C73	C	1.451309	-0.569952	-1.061556
C74	C	1.951309	-0.069952	-0.561556
C75	C	1.518361	-0.503347	-0.233212
C76	C	2.018361	-0.003347	0.266788
C77	C	1.518532	-0.503096	-0.116436
C78	C	2.018532	-0.003096	0.383564
H79	H	0.919338	-0.381937	-0.384525
H80	H	1.419338	0.118063	0.115475
O81	O	1.132915	-0.364250	-0.366742
O82	O	1.632915	0.135750	0.133258
H83	H	1.076324	-0.317736	-0.320095
H84	H	1.576324	0.182264	0.179905
H85	H	1.118471	-0.624726	-0.627864
H86	H	1.618471	-0.124726	-0.127864
H87	H	1.640433	-0.381928	-0.907233
H88	H	2.140433	0.118072	-0.407233
O89	O	1.445952	-0.949984	-0.578541
O90	O	1.945952	-0.449984	-0.078541
H91	H	1.493016	-0.999640	-0.631997
H92	H	1.993016	-0.499640	-0.131997
H93	H	1.463783	-1.070077	-0.560844
H94	H	1.963783	-0.570077	-0.060844
O95	O	1.654737	-0.883766	-0.370063
O96	O	2.154737	-0.383766	0.129937
H97	H	1.643319	-0.798731	-0.381402
H98	H	2.143319	-0.298731	0.118598
O99	O	1.378821	-0.642014	-1.120704
O100	O	1.878821	-0.142014	-0.620704
H101	H	1.390142	-0.630763	-1.206220
H102	H	1.890142	-0.130763	-0.706220
O103	O	1.378762	-0.642078	-0.892643
O104	O	1.878762	-0.142078	-0.392643
H105	H	1.425744	-0.695263	-0.842636
H106	H	1.925744	-0.195263	-0.342636
O107	O	0.904917	-0.642531	-0.645509
O108	O	1.404917	-0.142531	-0.145509
H109	H	0.961514	-0.689104	-0.692089
H110	H	1.461514	-0.189104	-0.192089
H111	H	1.637084	-1.107337	-0.387824
H112	H	2.137084	-0.607337	0.112176
O113	O	1.658243	-0.364195	-1.120798
O114	O	2.158243	0.135805	-0.620798
H115	H	1.704976	-0.317755	-1.064229
H116	H	2.204976	0.182245	-0.564229
