data_functionalizedCrystal
_audit_creation_method	'MofGen! by Chris Wilmer'
_symmetry_space_group_name_H-M	'P1'
_symmetry_Int_Tables_number	1
_symmetry_cell_setting	triclinic
loop_
_symmetry_equiv_pos_as_xyz
  x,y,z
_cell_length_a	16.974901
_cell_length_b	16.974813
_cell_length_c	15.455438
_cell_angle_alpha	96.320491
_cell_angle_beta	89.015615
_cell_angle_gamma	96.835011
loop_
_atom_site_label
_atom_site_type_symbol
_atom_site_fract_x
_atom_site_fract_y
_atom_site_fract_z
O1	O	-1.041692	0.108183	0.152766
O2	O	-0.541692	0.608183	0.652766
O3	O	-0.812206	0.120271	0.137525
O4	O	-0.312206	0.620271	0.637525
O5	O	-0.933733	-0.001249	0.137511
O6	O	-0.433733	0.498751	0.637511
O7	O	-0.920165	0.229703	0.152780
O8	O	-0.420165	0.729703	0.652780
O9	O	-0.940645	-0.008175	-0.006750
O10	O	-0.440645	0.491825	0.493250
O11	O	-0.819118	0.113346	-0.006736
O12	O	-0.319118	0.613346	0.493264
O13	O	-1.048603	0.101257	0.008505
O14	O	-0.548603	0.601257	0.508505
Cu15	Cu	-0.934492	0.106669	-0.012288
Cu16	Cu	-0.434492	0.606669	0.487712
Cu17	Cu	-0.926318	0.114859	0.158318
Cu18	Cu	-0.426318	0.614859	0.658318
O19	O	-0.927076	0.222778	0.008519
O20	O	-0.427076	0.722778	0.508519
C21	C	-0.786305	0.116217	0.063294
C22	C	-0.286305	0.616217	0.563294
C23	C	-0.698832	0.114447	0.057037
C24	C	-0.198832	0.614447	0.557037
C25	C	-0.653962	0.117391	0.132727
C26	C	-0.153962	0.617391	0.632727
C27	C	-0.571770	0.115739	0.126836
C28	C	-0.071770	0.615739	0.626836
C29	C	-0.534450	0.111137	0.045253
C30	C	-0.034450	0.611137	0.545253
C31	C	-0.579326	0.108195	-0.030443
C32	C	-0.079326	0.608195	0.469557
C33	C	-0.661515	0.109852	-0.024551
C34	C	-0.161515	0.609852	0.475449
C35	C	-0.289045	0.105780	0.019197
C36	C	0.210955	0.605780	0.519197
C37	C	-0.206850	0.104121	0.013310
C38	C	0.293150	0.604121	0.513310
C39	C	-0.199299	0.111667	0.170590
C40	C	0.300701	0.611667	0.670590
C41	C	-0.281491	0.113319	0.176475
C42	C	0.218509	0.613319	0.676475
C43	C	-0.326359	0.110381	0.100780
C44	C	0.173641	0.610381	0.600780
N45	N	-0.450438	0.109446	0.039229
N46	N	0.049562	0.609446	0.539229
N47	N	-0.410369	0.112078	0.106805
N48	N	0.089631	0.612078	0.606805
C49	C	-0.936801	-0.034271	0.063280
C50	C	-0.436801	0.465729	0.563280
C51	C	-0.935637	-0.122347	0.057018
C52	C	-0.435637	0.377653	0.557018
C53	C	-0.931325	-0.159945	0.132713
C54	C	-0.431325	0.340055	0.632713
C55	C	-0.930226	-0.242701	0.126826
C56	C	-0.430226	0.257299	0.626826
C57	C	-0.933446	-0.287858	0.045245
C58	C	-0.433446	0.212142	0.545245
C59	C	-0.937756	-0.250253	-0.030455
C60	C	-0.437756	0.249747	0.469545
C61	C	-0.938849	-0.167498	-0.024569
C62	C	-0.438849	0.332502	0.475431
C63	C	-0.930575	-0.535765	0.019206
C64	C	-0.430575	-0.035765	0.519206
C65	C	-0.929484	-0.618526	0.013325
C66	C	-0.429484	-0.118526	0.513325
C67	C	-0.921953	-0.610968	0.170607
C68	C	-0.421953	-0.110968	0.670607
C69	C	-0.923051	-0.528212	0.176487
C70	C	-0.423051	-0.028212	0.676487
C71	C	-0.927357	-0.490614	0.100787
C72	C	-0.427357	0.009386	0.600787
N73	N	-0.932325	-0.372448	0.039226
N74	N	-0.432325	0.127552	0.539226
N75	N	-0.928472	-0.406024	0.106806
N76	N	-0.428472	0.093976	0.606806
C77	C	-0.074505	0.105307	0.082737
C78	C	0.425495	0.605307	0.582737
C79	C	-0.161980	0.107065	0.089001
C80	C	0.338020	0.607065	0.589001
C81	C	-0.924008	0.255799	0.082752
C82	C	-0.424008	0.755799	0.582752
C83	C	-0.925172	0.343875	0.089019
C84	C	-0.425172	0.843875	0.589019
N85	N	-0.940246	0.100909	-0.132282
N86	N	-0.440246	0.600909	0.367718
C87	C	-0.888608	0.152515	-0.177694
C88	C	-0.388608	0.652515	0.322306
C89	C	-0.892983	0.148155	-0.268499
C90	C	-0.392983	0.648155	0.231501
C91	C	-0.948993	0.092185	-0.313892
C92	C	-0.448993	0.592185	0.186108
C93	C	-1.000636	0.040576	-0.268473
C94	C	-0.500636	0.540576	0.231527
C95	C	-0.996265	0.044940	-0.177669
C96	C	-0.496265	0.544940	0.322331
C97	C	-0.967841	0.073369	-0.585465
C98	C	-0.467841	0.573369	-0.085465
C99	C	-0.972207	0.069007	-0.676276
C100	C	-0.472207	0.569007	-0.176276
C101	C	-0.864554	0.176588	-0.676296
C102	C	-0.364554	0.676588	-0.176296
C103	C	-0.860185	0.180944	-0.585490
C104	C	-0.360185	0.680944	-0.085490
C105	C	-0.911831	0.129338	-0.540079
C106	C	-0.411831	0.629338	-0.040079
N107	N	-0.953464	0.087726	-0.406710
N108	N	-0.453464	0.587726	0.093290
N109	N	-0.907363	0.133801	-0.447262
N110	N	-0.407363	0.633801	0.052738
N111	N	-0.920569	0.120614	0.278312
N112	N	-0.420569	0.620614	0.778312
H113	H	-0.176464	0.100395	-0.053127
H114	H	0.323536	0.600395	0.446873
H115	H	-0.325567	0.103383	-0.042440
H116	H	0.174433	0.603383	0.457560
C117	C	-0.456690	0.102297	-0.109313
C118	C	0.043310	0.602297	0.390687
C119	C	-0.538306	0.103135	-0.120122
C120	C	-0.038306	0.603135	0.379878
H121	H	-0.431371	0.099167	-0.164680
H122	H	0.068629	0.599167	0.335320
H123	H	-0.435462	0.149794	-0.075163
H124	H	0.064538	0.649794	0.424837
H125	H	-0.447889	0.057351	-0.080777
H126	H	0.052111	0.557351	0.419223
H127	H	-0.547108	0.148085	-0.148653
H128	H	-0.047108	0.648085	0.351347
H129	H	-0.559541	0.055633	-0.154286
H130	H	-0.059541	0.555633	0.345714
C131	C	-1.011578	-0.290918	-0.162193
C132	C	-0.511578	0.209082	0.337807
C133	C	-0.941296	-0.299884	-0.120135
C134	C	-0.441296	0.200116	0.379865
H135	H	-1.013761	-0.321553	-0.217561
H136	H	-0.513761	0.178447	0.282439
H137	H	-1.055794	-0.308873	-0.128044
H138	H	-0.555794	0.191127	0.371956
H139	H	-1.012835	-0.236247	-0.169511
H140	H	-0.512835	0.263753	0.330489
H141	H	-0.940042	-0.354554	-0.112811
H142	H	-0.440042	0.145446	0.387189
H143	H	-0.897068	-0.281933	-0.154292
H144	H	-0.397068	0.218067	0.345708
H145	H	-0.920430	-0.491451	0.242919
H146	H	-0.420430	0.008549	0.742919
H147	H	-0.684341	0.121136	0.199161
H148	H	-0.184341	0.621136	0.699161
H149	H	-0.932102	-0.655290	-0.053112
H150	H	-0.432102	-0.155290	0.446888
H151	H	-0.842996	0.198089	-0.140742
H152	H	-0.342996	0.698089	0.359258
C153	C	-0.158407	0.185731	0.306972
C154	C	0.341593	0.685731	0.806972
C155	C	-0.149978	0.114908	0.253793
C156	C	0.350022	0.614908	0.753793
H157	H	-0.127961	0.187731	0.358342
H158	H	0.372039	0.687731	0.858342
H159	H	-0.140278	0.230119	0.276502
H160	H	0.359722	0.730119	0.776502
H161	H	-0.212700	0.187367	0.322148
H162	H	0.287300	0.687367	0.822148
H163	H	-0.095685	0.113275	0.238611
H164	H	0.404315	0.613275	0.738611
H165	H	-0.168103	0.070508	0.284268
H166	H	0.331897	0.570508	0.784268
H167	H	-0.535240	0.118137	0.188471
H168	H	-0.035240	0.618137	0.688471
C169	C	-1.074680	-0.033415	-0.594581
C170	C	-0.574680	0.466585	-0.094581
C171	C	-1.024603	0.016637	-0.535558
C172	C	-0.524603	0.516637	-0.035558
H173	H	-1.109719	-0.068444	-0.563767
H174	H	-0.609719	0.431556	-0.063767
H175	H	-1.104579	-0.002008	-0.625687
H176	H	-0.604579	0.497992	-0.125687
H177	H	-1.043701	-0.063746	-0.634309
H178	H	-0.543701	0.436254	-0.134309
H179	H	-1.055582	0.046973	-0.495834
H180	H	-0.555582	0.546973	0.004166
H181	H	-0.994701	-0.014773	-0.504438
H182	H	-0.494701	0.485227	-0.004438
H183	H	-0.311871	0.117061	0.242909
H184	H	0.188129	0.617061	0.742909
C185	C	-0.786132	0.254927	-0.259398
C186	C	-0.286132	0.754927	0.240602
C187	C	-0.836220	0.204883	-0.318416
C188	C	-0.336220	0.704883	0.181584
H189	H	-0.751086	0.289947	-0.290217
H190	H	-0.251086	0.789947	0.209783
H191	H	-0.817097	0.285261	-0.219671
H192	H	-0.317097	0.785261	0.280329
H193	H	-0.756233	0.223508	-0.228293
H194	H	-0.256233	0.723508	0.271707
H195	H	-0.866123	0.236301	-0.349517
H196	H	-0.366123	0.736301	0.150483
H197	H	-0.805251	0.174546	-0.358159
H198	H	-0.305251	0.674546	0.141841
C199	C	-0.660730	0.102214	-0.180607
C200	C	-0.160730	0.602214	0.319393
C201	C	-0.710841	0.106609	-0.107753
C202	C	-0.210841	0.606609	0.392247
H203	H	-0.691183	0.100209	-0.231972
H204	H	-0.191183	0.600209	0.268028
H205	H	-0.622309	0.147944	-0.176825
H206	H	-0.122309	0.647944	0.323175
H207	H	-0.634725	0.055501	-0.182437
H208	H	-0.134725	0.555501	0.317563
H209	H	-0.736842	0.153326	-0.105918
H210	H	-0.236842	0.653326	0.394082
H211	H	-0.749277	0.060875	-0.111535
H212	H	-0.249277	0.560875	0.388465
H213	H	-0.942350	-0.136885	-0.086208
H214	H	-0.442350	0.363115	0.413792
H215	H	-0.822507	0.218604	-0.713278
H216	H	-0.322507	0.718604	-0.213278
C217	C	-0.923761	-0.160795	0.287586
C218	C	-0.423761	0.339205	0.787586
C219	C	-0.927783	-0.110313	0.222391
C220	C	-0.427783	0.389687	0.722391
H221	H	-0.921567	-0.130153	0.342949
H222	H	-0.421567	0.369847	0.842949
H223	H	-0.969440	-0.199168	0.284825
H224	H	-0.469440	0.300832	0.784825
H225	H	-0.877537	-0.187290	0.279204
H226	H	-0.377537	0.312710	0.779204
H227	H	-0.974010	-0.083822	0.230769
H228	H	-0.474010	0.416178	0.730769
H229	H	-0.882099	-0.071926	0.225154
H230	H	-0.382099	0.428074	0.725154
H231	H	-0.918445	-0.641589	0.232238
H232	H	-0.418445	-0.141589	0.732238
C233	C	-1.055132	-0.013887	-0.407660
C234	C	-0.555132	0.486113	0.092340
C235	C	-1.062202	-0.020949	-0.318367
C236	C	-0.562202	0.479051	0.181633
H237	H	-1.093138	-0.051877	-0.438460
H238	H	-0.593138	0.448123	0.061540
H239	H	-1.064171	0.038365	-0.418235
H240	H	-0.564171	0.538365	0.081765
H241	H	-1.003295	-0.023375	-0.426845
H242	H	-0.503295	0.476625	0.073155
H243	H	-1.114038	-0.011456	-0.299181
H244	H	-0.614038	0.488544	0.200819
H245	H	-1.053170	-0.073214	-0.307787
H246	H	-0.553170	0.426786	0.192213
H247	H	-0.926717	-0.273311	0.188465
H248	H	-0.426717	0.226689	0.688465
C249	C	-0.754219	0.286850	-0.594633
C250	C	-0.254219	0.786850	-0.094633
C251	C	-0.798620	0.242471	-0.535597
C252	C	-0.298620	0.742471	-0.035597
H253	H	-0.716214	0.324836	-0.563829
H254	H	-0.216214	0.824836	-0.063829
H255	H	-0.727730	0.252040	-0.634357
H256	H	-0.227730	0.752040	-0.134357
H257	H	-0.788604	0.313783	-0.625742
H258	H	-0.288604	0.813783	-0.125742
H259	H	-0.764236	0.215534	-0.504493
H260	H	-0.264236	0.715534	-0.004493
H261	H	-0.825110	0.277286	-0.495858
H262	H	-0.325110	0.777286	0.004142
H263	H	-1.017820	0.023426	-0.713231
H264	H	-0.517820	0.523426	-0.213231
H265	H	-1.038315	0.002918	-0.140695
H266	H	-0.538315	0.502918	0.359305
C267	C	-0.937954	-0.551565	-0.136846
C268	C	-0.437954	-0.051565	0.363154
C269	C	-0.935341	-0.494448	-0.064001
C270	C	-0.435341	0.005552	0.435999
H271	H	-0.940909	-0.526055	-0.188216
H272	H	-0.440909	-0.026055	0.311784
H273	H	-0.891417	-0.577734	-0.138691
H274	H	-0.391417	-0.077734	0.361309
H275	H	-0.983318	-0.589634	-0.133040
H276	H	-0.483318	-0.089634	0.366960
H277	H	-0.889974	-0.456382	-0.067805
H278	H	-0.389974	0.043618	0.432195
H279	H	-0.981884	-0.468266	-0.062157
H280	H	-0.481884	0.031734	0.437843
