data_functionalizedCrystal
_audit_creation_method	'MofGen! by Chris Wilmer'
_symmetry_space_group_name_H-M	'P1'
_symmetry_Int_Tables_number	1
_symmetry_cell_setting	triclinic
loop_
_symmetry_equiv_pos_as_xyz
  x,y,z
_cell_length_a	12.759401
_cell_length_b	12.594516
_cell_length_c	12.759393
_cell_angle_alpha	89.972230
_cell_angle_beta	89.981798
_cell_angle_gamma	90.016214
loop_
_atom_site_label
_atom_site_type_symbol
_atom_site_fract_x
_atom_site_fract_y
_atom_site_fract_z
Zn1	Zn	1.606242	-0.423689	-0.593999
Zn2	Zn	1.606134	-0.601704	-0.418327
Zn3	Zn	1.430545	-0.423741	-0.418339
Zn4	Zn	1.430529	-0.601626	-0.593968
O5	O	1.518363	-0.512690	-0.506158
O6	O	1.753249	-0.447314	-0.570704
O7	O	1.582803	-0.578151	-0.271307
O8	O	1.453904	-0.274788	-0.441658
O9	O	1.753169	-0.578101	-0.441638
O10	O	1.582988	-0.274750	-0.570715
O11	O	1.453799	-0.447402	-0.271316
O12	O	1.283522	-0.447326	-0.441628
O13	O	1.453876	-0.577969	-0.740993
O14	O	1.283510	-0.578018	-0.570663
O15	O	1.582972	-0.447239	-0.741016
O16	O	1.582787	-0.750640	-0.441608
O17	O	1.453771	-0.750582	-0.570651
C18	C	1.245395	-0.512670	-0.506144
C19	C	1.128619	-0.512688	-0.506163
C20	C	1.518294	-0.789231	-0.506148
C21	C	1.518360	-0.907536	-0.506179
C22	C	1.073778	-0.580848	-0.573240
C23	C	0.964054	-0.580861	-0.573251
C24	C	0.964021	-0.444551	-0.439099
C25	C	1.073743	-0.444533	-0.439094
C26	C	1.128653	-0.649002	-0.640308
C27	C	1.073812	-0.717169	-0.707390
C28	C	0.964088	-0.717182	-0.707402
C29	C	0.909205	-0.649029	-0.640331
C30	C	1.448182	-0.976797	-0.576316
C31	C	1.422583	-1.047665	-0.480449
C32	C	1.544055	-1.047467	-0.602062
C33	C	1.492711	-0.976846	-0.410261
C34	C	1.614227	-0.976642	-0.531938
C35	C	1.588665	-1.047478	-0.436006
C36	C	1.792396	-0.512710	-0.506173
C37	C	1.909172	-0.512719	-0.506179
C38	C	1.518435	-0.512589	-0.780192
C39	C	1.518465	-0.512546	-0.896968
C40	C	1.518460	-0.235069	-0.506192
C41	C	1.518502	-0.116764	-0.506206
C42	C	1.585676	-0.580550	-1.061555
C43	C	1.585645	-0.580598	-0.951831
C44	C	1.451306	-0.444450	-0.951836
C45	C	1.451333	-0.444408	-1.061558
C46	C	1.652867	-0.648599	-1.116411
C47	C	1.720026	-0.716697	-1.061551
C48	C	1.719994	-0.716745	-0.951827
C49	C	1.652804	-0.648694	-0.896963
C50	C	1.518351	-0.512714	-0.233191
C51	C	1.518524	-0.512457	-0.116415
H52	H	1.217996	-0.649001	-0.640305
C53	C	1.391627	-0.384056	-0.783639
C54	C	1.377464	-0.369643	-0.891531
H55	H	1.346044	-0.337865	-0.746413
H56	H	1.376216	-0.455567	-0.765654
H57	H	1.462223	-0.368491	-0.765679
H58	H	1.306869	-0.385215	-0.909493
H59	H	1.392867	-0.298116	-0.909524
H60	H	1.774725	-0.772105	-1.106229
H61	H	1.396655	-0.388958	-1.106226
H62	H	1.118395	-0.389023	-0.384482
H63	H	1.118505	-0.772650	-0.762003
H64	H	1.648073	-1.078318	-0.376636
H65	H	1.695216	-0.945425	-0.553750
H66	H	0.819860	-0.649037	-0.640355
H67	H	0.919440	-0.772679	-0.762030
C68	C	0.795807	-0.384075	-0.379527
C69	C	0.903695	-0.369657	-0.365364
H70	H	0.758568	-0.337845	-0.333996
H71	H	0.777855	-0.368576	-0.450133
H72	H	0.777829	-0.455581	-0.364040
H73	H	0.921675	-0.298153	-0.380859
H74	H	0.921654	-0.385148	-0.294742
C75	C	1.536427	-0.971664	-0.227315
C76	C	1.463320	-0.935150	-0.300780
H77	H	1.518282	-0.945914	-0.159730
H78	H	1.536321	-1.047077	-0.226657
H79	H	1.604259	-0.946747	-0.245727
H80	H	1.395488	-0.960073	-0.282372
H81	H	1.463415	-0.859721	-0.301435
C82	C	1.267659	-0.970746	-0.629045
C83	C	1.367928	-0.934886	-0.656268
H84	H	1.218114	-0.944864	-0.678398
H85	H	1.266721	-1.046156	-0.629166
H86	H	1.250135	-0.945521	-0.561113
H87	H	1.385455	-0.960118	-0.724197
H88	H	1.368868	-0.859461	-0.656158
C89	C	1.314723	-1.200953	-0.450444
C90	C	1.313225	-1.089787	-0.451040
H91	H	1.247210	-1.226952	-0.432287
H92	H	1.333403	-1.226163	-0.518062
H93	H	1.364563	-1.225135	-0.400563
H94	H	1.263391	-1.065606	-0.500927
H95	H	1.294532	-1.064567	-0.383412
C96	C	1.590387	-1.003570	-0.779263
C97	C	1.573328	-1.089345	-0.711507
H98	H	1.608459	-1.029424	-0.846829
H99	H	1.528369	-0.962146	-0.783947
H100	H	1.645916	-0.960979	-0.752971
H101	H	1.517793	-1.131933	-0.737795
H102	H	1.635353	-1.130787	-0.706827
C103	C	1.726053	-0.722657	-1.273588
C104	C	1.652901	-0.648551	-1.237021
H105	H	1.726068	-0.722628	-1.348047
H106	H	1.793840	-0.704257	-1.248774
H107	H	1.707851	-0.791350	-1.248756
H108	H	1.671107	-0.579856	-1.261847
H109	H	1.585100	-0.666945	-1.261846
C110	C	1.852789	-0.851310	-0.962849
C111	C	1.793811	-0.791596	-0.891524
H112	H	1.898368	-0.897514	-0.925619
H113	H	1.807014	-0.892004	-1.005636
H114	H	1.892998	-0.804906	-1.005652
H115	H	1.753596	-0.838000	-0.848725
H116	H	1.839592	-0.750900	-0.848718
C117	C	1.725892	-0.722895	-0.739781
C118	C	1.652765	-0.648751	-0.776352
H119	H	1.725871	-0.722922	-0.665322
H120	H	1.707702	-0.791557	-0.764597
H121	H	1.793701	-0.704474	-0.764610
H122	H	1.584954	-0.667176	-0.751529
H123	H	1.670948	-0.580074	-0.751525
