data_functionalizedCrystal
_audit_creation_method	'MofGen! by Chris Wilmer'
_symmetry_space_group_name_H-M	'P1'
_symmetry_Int_Tables_number	1
_symmetry_cell_setting	triclinic
loop_
_symmetry_equiv_pos_as_xyz
  x,y,z
_cell_length_a	17.077404
_cell_length_b	13.897447
_cell_length_c	17.077396
_cell_angle_alpha	89.972301
_cell_angle_beta	89.980997
_cell_angle_gamma	90.017777
loop_
_atom_site_label
_atom_site_type_symbol
_atom_site_fract_x
_atom_site_fract_y
_atom_site_fract_z
Zn1	Zn	1.200054	-0.384045	-0.443896
Zn2	Zn	1.199974	-0.545362	-0.312636
Zn3	Zn	1.068791	-0.384078	-0.312640
Zn4	Zn	1.068762	-0.545295	-0.443855
O5	O	1.134395	-0.464695	-0.378257
O6	O	1.309890	-0.405458	-0.426500
O7	O	1.182552	-0.524009	-0.202789
O8	O	1.086250	-0.249092	-0.330070
O9	O	1.309832	-0.523977	-0.330064
O10	O	1.182688	-0.249067	-0.426504
O11	O	1.086172	-0.405514	-0.202792
O12	O	0.958941	-0.405449	-0.330030
O13	O	1.086199	-0.523862	-0.553707
O14	O	0.958919	-0.523894	-0.426433
O15	O	1.182659	-0.405393	-0.553738
O16	O	1.182523	-0.680335	-0.330023
O17	O	1.086121	-0.680285	-0.426429
C18	C	0.930447	-0.464669	-0.378228
C19	C	0.843198	-0.464681	-0.378235
C20	C	0.467411	-0.403119	-0.428580
C21	C	0.549391	-0.403112	-0.428571
C22	C	0.590349	-0.464715	-0.378277
C23	C	0.549322	-0.526336	-0.327993
C24	C	0.467343	-0.526347	-0.328006
C25	C	0.720192	-0.526306	-0.327967
C26	C	0.802176	-0.526294	-0.327953
C27	C	0.802240	-0.403072	-0.428533
C28	C	0.720261	-0.403083	-0.428546
C29	C	0.679240	-0.464703	-0.378261
C30	C	1.134332	-0.715309	-0.378239
C31	C	1.134376	-0.822523	-0.378257
C32	C	1.134414	-0.909593	-0.378275
C33	C	1.134469	-1.018825	-0.378295
C34	C	1.339140	-0.464722	-0.378286
C35	C	1.426389	-0.464733	-0.378298
C36	C	1.134434	-0.464617	-0.583001
C37	C	1.134451	-0.464583	-0.670251
C38	C	1.134481	-0.213102	-0.378292
C39	C	1.134517	-0.105888	-0.378307
C40	C	1.184707	-0.526171	-1.046066
C41	C	1.184687	-0.526199	-0.964086
C42	C	1.134501	-0.464515	-0.923100
C43	C	1.084326	-0.402806	-0.964099
C44	C	1.084343	-0.402783	-1.046078
C45	C	1.084297	-0.402855	-0.793229
C46	C	1.084281	-0.402877	-0.711244
C47	C	1.184641	-0.526272	-0.711237
C48	C	1.184658	-0.526249	-0.793216
C49	C	1.134484	-0.464538	-0.834209
C50	C	1.134402	-0.464703	-0.174309
C51	C	1.134537	-0.464464	-0.087060
H52	H	0.686916	-0.352917	-0.469497
C53	C	0.847360	-0.335302	-0.483854
H54	H	0.902050	-0.344126	-0.476652
H55	H	0.833934	-0.270474	-0.472464
H56	H	0.833943	-0.349512	-0.536578
H57	H	0.835522	-0.576459	-0.287001
H58	H	0.686794	-0.576488	-0.287023
C59	C	1.239912	-0.594021	-1.091148
H60	H	1.232743	-0.585166	-1.145843
H61	H	1.228398	-0.658833	-1.077698
H62	H	1.292659	-0.579911	-1.077721
C63	C	1.029109	-0.334972	-0.838320
H64	H	0.999224	-0.298230	-0.802170
H65	H	0.994898	-0.371850	-0.870290
H66	H	1.059168	-0.292938	-0.870310
H67	H	1.043461	-0.352586	-0.930722
H68	H	0.582676	-0.576497	-0.287045
C69	C	1.029159	-0.334903	-1.091170
H70	H	0.999273	-0.298162	-1.055021
H71	H	0.994950	-0.371785	-1.123138
H72	H	1.059214	-0.292868	-1.123162
C73	C	0.594512	-0.335329	-0.483875
H74	H	0.558378	-0.298633	-0.513822
H75	H	0.626504	-0.372269	-0.518023
H76	H	0.626482	-0.293250	-0.453893
C77	C	0.422219	-0.594120	-0.272694
H78	H	0.458352	-0.630801	-0.242733
H79	H	0.390247	-0.636199	-0.302667
H80	H	0.390229	-0.557166	-0.238547
H81	H	1.225530	-0.576459	-0.930713
C82	C	1.239858	-0.594102	-0.838299
H83	H	1.269732	-0.630866	-0.802145
H84	H	1.274079	-0.557204	-0.870294
H85	H	1.209811	-0.636117	-0.870263
H86	H	1.225495	-0.576519	-0.677856
H87	H	0.434069	-0.352949	-0.469531
H88	H	1.043418	-0.352645	-0.677876
