data_functionalizedCrystal
_audit_creation_method	'MofGen! by Chris Wilmer'
_symmetry_space_group_name_H-M	'P1'
_symmetry_Int_Tables_number	1
_symmetry_cell_setting	triclinic
loop_
_symmetry_equiv_pos_as_xyz
  x,y,z
_cell_length_a	15.944551
_cell_length_b	9.130313
_cell_length_c	10.654550
_cell_angle_alpha	89.999890
_cell_angle_beta	83.991821
_cell_angle_gamma	90.004256
loop_
_atom_site_label
_atom_site_type_symbol
_atom_site_fract_x
_atom_site_fract_y
_atom_site_fract_z
O1	O	1.115457	-0.121643	0.161961
O2	O	1.615457	0.378357	0.661961
O3	O	0.871023	-0.121679	0.181929
O4	O	1.371023	0.378321	0.681929
O5	O	0.998860	-0.121654	-0.010867
O6	O	1.498860	0.378346	0.489133
O7	O	0.987620	-0.121667	0.354757
O8	O	1.487620	0.378333	0.854757
O9	O	0.998858	0.121944	-0.010862
O10	O	1.498858	0.621944	0.489138
O11	O	0.871021	0.121920	0.181935
O12	O	1.371021	0.621920	0.681935
O13	O	1.115455	0.121956	0.161966
O14	O	1.615455	0.621956	0.661966
Cu15	Cu	0.993238	0.144181	0.171951
Cu16	Cu	1.493238	0.644181	0.671951
Cu17	Cu	0.993240	-0.143903	0.171945
Cu18	Cu	1.493240	0.356097	0.671945
O19	O	0.987618	0.121932	0.354762
O20	O	1.487618	0.621932	0.854762
C21	C	0.839723	0.000116	0.181103
C22	C	1.339723	0.500116	0.681103
C23	C	0.746463	0.000102	0.178618
C24	C	1.246463	0.500102	0.678618
N25	N	0.993243	0.346803	0.171954
N26	N	1.493243	0.846803	0.671954
N27	N	0.993242	-0.346526	0.171931
N28	N	1.493242	0.153474	0.671931
C29	C	0.530880	0.000135	0.053173
C30	C	1.030880	0.500135	0.553173
C31	C	0.470198	-0.119974	0.111423
C32	C	0.970198	0.380026	0.611423
C33	C	0.575711	0.000120	0.174122
C34	C	1.075711	0.500120	0.674122
C35	C	0.470219	0.120195	0.111457
C36	C	0.970219	0.620195	0.611457
C37	C	0.410773	0.000143	0.169770
C38	C	0.910773	0.500143	0.669770
C39	C	0.516257	-0.120088	0.232405
C40	C	1.016257	0.379912	0.732405
C41	C	0.516284	0.120189	0.232421
C42	C	1.016284	0.620189	0.732421
C43	C	0.455620	0.000050	0.290759
C44	C	0.955620	0.500050	0.790759
C45	C	0.670728	0.000105	0.176625
C46	C	1.170728	0.500105	0.676625
C47	C	0.315757	0.000147	0.167276
C48	C	0.815757	0.500147	0.667276
C49	C	1.146755	0.000158	0.162792
C50	C	1.646755	0.500158	0.662792
C51	C	1.240015	0.000162	0.165278
C52	C	1.740015	0.500162	0.665278
C53	C	0.998034	0.000143	-0.057652
C54	C	1.498034	0.500143	0.442348
C55	C	0.995565	0.000138	-0.197063
C56	C	1.495565	0.500138	0.302937
C57	C	1.049864	0.423466	0.086613
C58	C	1.549864	0.923466	0.586613
C59	C	1.049861	0.576803	0.086598
C60	C	1.549861	1.076803	0.586598
C61	C	0.936615	0.576801	0.257277
C62	C	1.436615	1.076801	0.757277
C63	C	0.936614	0.423467	0.257285
C64	C	1.436614	0.923467	0.757285
C65	C	1.115248	0.423468	-0.011924
C66	C	1.615248	0.923468	0.488076
C67	C	1.115246	0.576805	-0.011939
C68	C	1.615246	1.076805	0.488061
C69	C	1.070833	0.000153	-0.277522
C70	C	1.570833	0.500153	0.222478
C71	C	1.068508	0.000143	-0.408513
C72	C	1.568508	0.500143	0.091487
C73	C	0.915639	0.000107	-0.378572
C74	C	1.415639	0.500107	0.121428
C75	C	0.917965	0.000107	-0.247584
C76	C	1.417965	0.500107	0.252416
C77	C	1.159090	0.000180	-0.294810
C78	C	1.659090	0.500180	0.205190
C79	C	1.156765	0.000169	-0.425801
C80	C	1.656765	0.500169	0.074199
C81	C	0.988444	0.000131	0.401547
C82	C	1.488444	0.500131	0.901547
C83	C	0.990913	0.000127	0.540958
C84	C	1.490913	0.500127	1.040958
H85	H	0.563632	-0.000010	-0.047204
H86	H	1.063632	0.499990	0.452796
H87	H	1.179794	0.618431	0.008744
H88	H	1.679794	1.118431	0.508744
H89	H	0.423043	-0.000020	0.391240
H90	H	0.923043	0.499980	0.891240
H91	H	0.852460	0.000081	-0.419722
H92	H	1.352460	0.500081	0.080278
O93	O	0.836780	0.000069	-0.160806
O94	O	1.336780	0.500069	0.339194
H95	H	0.851431	0.000058	-0.061233
H96	H	1.351431	0.500058	0.438767
H97	H	1.193612	-0.101754	-0.265901
H98	H	1.693612	0.398246	0.234099
O99	O	0.443218	0.254702	0.043679
O100	O	0.943218	0.754702	0.543679
H101	H	0.462569	0.354292	0.092994
H102	H	0.962569	0.854292	0.592994
O103	O	1.200819	0.135190	-0.481713
O104	O	1.700819	0.635190	0.018287
H105	H	1.155783	0.201279	-0.530801
H106	H	1.655783	0.701279	-0.030801
H107	H	0.449792	-0.221514	0.060264
H108	H	0.949792	0.278486	0.560264
O109	O	0.543122	-0.254746	0.300108
O110	O	1.043122	0.245254	0.800108
H111	H	0.486739	-0.321605	0.331945
H112	H	0.986739	0.178395	0.831945
O113	O	1.088223	0.639829	-0.132412
O114	O	1.588223	1.139829	0.367588
H115	H	1.139888	0.708248	-0.179277
H116	H	1.639888	1.208248	0.320723
H117	H	1.183439	-0.105006	-0.471791
H118	H	1.683439	0.394994	0.028209
O119	O	1.196329	0.139490	-0.248080
O120	O	1.696329	0.639490	0.251920
H121	H	1.214194	0.213347	-0.329238
H122	H	1.714194	0.713347	0.170762
H123	H	0.536711	0.221734	0.283537
H124	H	1.036711	0.721734	0.783537
H125	H	0.890501	0.361049	0.326765
H126	H	1.390501	0.861049	0.826765
H127	H	0.890508	0.639237	0.326750
H128	H	1.390508	1.139237	0.826750
H129	H	1.100907	0.381849	-0.108271
H130	H	1.600907	0.881849	0.391729
H131	H	1.176233	0.375918	0.017876
H132	H	1.676233	0.875918	0.517876
