data_functionalizedCrystal
_audit_creation_method	'MofGen! by Chris Wilmer'
_symmetry_space_group_name_H-M	'P1'
_symmetry_Int_Tables_number	1
_symmetry_cell_setting	triclinic
loop_
_symmetry_equiv_pos_as_xyz
  x,y,z
_cell_length_a	19.805407
_cell_length_b	18.101397
_cell_length_c	19.805399
_cell_angle_alpha	90.029325
_cell_angle_beta	90.020409
_cell_angle_gamma	90.022406
loop_
_atom_site_label
_atom_site_type_symbol
_atom_site_fract_x
_atom_site_fract_y
_atom_site_fract_z
Zn1	Zn	1.034764	-0.294808	0.382727
Zn2	Zn	1.368097	0.038525	0.716060
Zn3	Zn	1.701430	0.371858	1.049393
Zn4	Zn	1.034690	-0.418652	0.269535
Zn5	Zn	1.368024	-0.085319	0.602868
Zn6	Zn	1.701357	0.248015	0.936202
Zn7	Zn	0.921578	-0.294833	0.269550
Zn8	Zn	1.254912	0.038500	0.602883
Zn9	Zn	1.588245	0.371834	0.936216
Zn10	Zn	0.921554	-0.418617	0.382680
Zn11	Zn	1.254887	-0.085283	0.716013
Zn12	Zn	1.588220	0.248050	1.049347
O13	O	0.978146	-0.356728	0.326123
O14	O	1.311480	-0.023394	0.659456
O15	O	1.644813	0.309939	0.992789
O16	O	1.129470	-0.311241	0.367725
O17	O	1.462804	0.022092	0.701058
O18	O	1.796137	0.355426	1.034391
O19	O	1.019665	-0.402252	0.174820
O20	O	1.352999	-0.068919	0.508154
O21	O	1.686332	0.264415	0.841487
O22	O	0.936634	-0.191197	0.284588
O23	O	1.269967	0.142136	0.617922
O24	O	1.603300	0.475470	0.951255
O25	O	1.129417	-0.402228	0.284563
O26	O	1.462750	-0.068895	0.617897
O27	O	1.796083	0.264438	0.951230
O28	O	1.019790	-0.191179	0.367739
O29	O	1.353124	0.142155	0.701072
O30	O	1.686457	0.475488	1.034406
O31	O	0.936562	-0.311283	0.174831
O32	O	1.269896	0.022050	0.508164
O33	O	1.603229	0.355384	0.841498
O34	O	0.826858	-0.311249	0.284543
O35	O	1.160192	0.022085	0.617876
O36	O	1.493525	0.355418	0.951210
O37	O	0.936591	-0.402168	0.477403
O38	O	1.269925	-0.068835	0.810736
O39	O	1.603258	0.264498	1.144069
O40	O	0.826840	-0.402192	0.367660
O41	O	1.160174	-0.068859	0.700993
O42	O	1.493507	0.264474	1.034326
O43	O	1.019766	-0.311207	0.477437
O44	O	1.353100	0.022127	0.810770
O45	O	1.686433	0.355460	1.144104
O46	O	1.019641	-0.522280	0.284518
O47	O	1.352975	-0.188947	0.617852
O48	O	1.686308	0.144386	0.951185
O49	O	0.936520	-0.522254	0.367645
O50	O	1.269854	-0.188921	0.700979
O51	O	1.603187	0.144412	1.034312
C52	C	0.802290	-0.356720	0.326098
C53	C	1.135624	-0.023387	0.659432
C54	C	1.468957	0.309947	0.992765
C55	C	0.727058	-0.356734	0.326104
C56	C	1.060392	-0.023401	0.659437
C57	C	1.393725	0.309932	0.992771
C58	C	0.265299	-0.309439	0.369517
C59	C	0.598632	0.023894	0.702851
C60	C	0.931966	0.357228	1.036184
C61	C	0.335987	-0.309440	0.369512
C62	C	0.669321	0.023893	0.702846
C63	C	1.002654	0.357226	1.036179
C64	C	0.371297	-0.356739	0.326145
C65	C	0.704630	-0.023405	0.659478
C66	C	1.037963	0.309928	0.992811
C67	C	0.335914	-0.404044	0.282784
C68	C	0.669247	-0.070711	0.616117
C69	C	1.002581	0.262622	0.949450
C70	C	0.265227	-0.404046	0.282792
C71	C	0.598560	-0.070713	0.616126
C72	C	0.931893	0.262621	0.949459
C73	C	0.620987	-0.404039	0.282748
C74	C	0.954321	-0.070705	0.616081
C75	C	1.287654	0.262628	0.949414
C76	C	0.691679	-0.404031	0.282741
C77	C	1.025013	-0.070698	0.616074
C78	C	1.358346	0.262635	0.949408
C79	C	0.691748	-0.309433	0.369468
C80	C	1.025081	0.023900	0.702801
C81	C	1.358415	0.357234	1.036135
C82	C	0.621061	-0.309435	0.369477
C83	C	0.954394	0.023899	0.702810
C84	C	1.287727	0.357232	1.036143
C85	C	0.585684	-0.356743	0.326118
C86	C	0.919017	-0.023409	0.659452
C87	C	1.252351	0.309924	0.992785
C88	C	0.509036	-0.356742	0.326125
C89	C	0.842369	-0.023408	0.659459
C90	C	1.175702	0.309925	0.992792
C91	C	0.447944	-0.356737	0.326134
C92	C	0.781277	-0.023403	0.659467
C93	C	1.114610	0.309930	0.992801
C94	C	0.978089	-0.549138	0.326090
C95	C	1.311422	-0.215805	0.659423
C96	C	1.644755	0.117529	0.992757
C97	C	0.978126	-0.631452	0.326099
C98	C	1.311459	-0.298119	0.659432
C99	C	1.644792	0.035214	0.992765
C100	C	0.978212	-0.930543	0.326160
C101	C	1.311545	-0.597210	0.659494
C102	C	1.644879	-0.263876	0.992827
C103	C	1.030364	-0.899203	0.273719
C104	C	1.363697	-0.565870	0.607052
C105	C	1.697030	-0.232537	0.940385
C106	C	1.030544	-0.813585	0.273855
C107	C	1.363878	-0.480251	0.607188
C108	C	1.697211	-0.146918	0.940521
C109	C	0.978169	-0.782161	0.326129
C110	C	1.311503	-0.448827	0.659462
C111	C	1.644836	-0.115494	0.992796
C112	C	0.997504	-0.813169	0.397474
C113	C	1.330838	-0.479836	0.730808
C114	C	1.664171	-0.146502	1.064141
C115	C	0.997908	-0.898814	0.397189
C116	C	1.331241	-0.565480	0.730522
C117	C	1.664575	-0.232147	1.063855
C118	C	0.906586	-0.899054	0.307874
C119	C	1.239919	-0.565721	0.641207
C120	C	1.573253	-0.232388	0.974541
C121	C	0.906940	-0.813405	0.306282
C122	C	1.240273	-0.480071	0.639615
C123	C	1.573606	-0.146738	0.972948
C124	C	0.978144	-0.698301	0.326116
C125	C	1.311477	-0.364968	0.659449
C126	C	1.644811	-0.031634	0.992782
C127	C	0.978239	-1.014403	0.326178
C128	C	1.311572	-0.681069	0.659512
C129	C	1.644906	-0.347736	0.992845
C130	C	1.154689	-0.356736	0.326148
C131	C	1.488022	-0.023402	0.659481
C132	C	1.821356	0.309931	0.992814
C133	C	1.229921	-0.356739	0.326158
C134	C	1.563254	-0.023406	0.659492
C135	C	1.896588	0.309927	0.992825
C136	C	0.978184	-0.356681	0.502666
C137	C	1.311518	-0.023348	0.835999
C138	C	1.644851	0.309986	1.169332
C139	C	0.978201	-0.356661	0.577898
C140	C	1.311534	-0.023328	0.911231
C141	C	1.644867	0.310006	1.244564
C142	C	0.978223	-0.163566	0.326170
C143	C	1.311556	0.169768	0.659504
C144	C	1.644890	0.503101	0.992837
C145	C	0.978256	-0.081252	0.326191
C146	C	1.311589	0.252082	0.659524
C147	C	1.644922	0.585415	0.992858
C148	C	0.978148	-0.356721	0.150267
C149	C	1.311481	-0.023387	0.483600
C150	C	1.644814	0.309946	0.816933
C151	C	0.978263	-0.356532	0.075035
C152	C	1.311596	-0.023198	0.408368
C153	C	1.644929	0.310135	0.741702
C154	C	1.021511	-0.309295	0.613261
C155	C	1.354844	0.024038	0.946594
C156	C	1.688177	0.357372	1.279927
C157	C	1.021518	-0.309274	0.683949
C158	C	1.354851	0.024060	1.017282
C159	C	1.688184	0.357393	1.350616
C160	C	0.978217	-0.356622	0.719273
C161	C	1.311551	-0.023289	1.052607
C162	C	1.644884	0.310044	1.385940
C163	C	0.934902	-0.403990	0.683905
C164	C	1.268236	-0.070657	1.017239
C165	C	1.601569	0.262676	1.350572
C166	C	0.934893	-0.404008	0.613218
C167	C	1.268226	-0.070674	0.946551
C168	C	1.601559	0.262659	1.279885
C169	C	0.934941	-0.403921	0.968979
C170	C	1.268274	-0.070588	1.302312
C171	C	1.601607	0.262745	1.635645
C172	C	0.934955	-0.403902	1.039671
C173	C	1.268289	-0.070569	1.373004
C174	C	1.601622	0.262765	1.706337
C175	C	1.021566	-0.309187	1.039710
C176	C	1.354899	0.024146	1.373043
C177	C	1.688232	0.357479	1.706376
C178	C	1.021556	-0.309204	0.969023
C179	C	1.354889	0.024129	1.302356
C180	C	1.688223	0.357462	1.635689
C181	C	0.978239	-0.356569	0.933661
C182	C	1.311572	-0.023236	1.266994
C183	C	1.644905	0.310097	1.600327
C184	C	0.978231	-0.356591	0.857012
C185	C	1.311564	-0.023258	1.190346
C186	C	1.644897	0.310075	1.523679
C187	C	0.978228	-0.356605	0.795920
C188	C	1.311562	-0.023272	1.129254
C189	C	1.644895	0.310062	1.462587
H190	H	0.236423	-0.442564	0.247486
H191	H	0.569756	-0.109231	0.580820
H192	H	0.903090	0.224102	0.914153
N193	N	0.890655	-0.452342	0.719982
N194	N	1.223988	-0.119008	1.053315
N195	N	1.557322	0.214325	1.386649
N196	N	0.828201	-0.447412	0.712074
N197	N	1.161534	-0.114078	1.045407
N198	N	1.494868	0.219255	1.378741
H199	H	0.796948	-0.481557	0.737554
H200	H	1.130281	-0.148224	1.070887
H201	H	1.463614	0.185110	1.404221
H202	H	0.364789	-0.270926	0.404822
H203	H	0.698122	0.062407	0.738155
H204	H	1.031456	0.395740	1.071489
N205	N	1.065810	-0.260808	1.075843
N206	N	1.399144	0.072526	1.409176
N207	N	1.732477	0.405859	1.742509
N208	N	1.065816	-0.260795	1.138955
N209	N	1.399149	0.072538	1.472289
N210	N	1.732483	0.405872	1.805622
H211	H	1.097065	-0.226630	1.164474
H212	H	1.430398	0.106703	1.497807
H213	H	1.763731	0.440036	1.831141
N214	N	0.727886	-0.261102	0.413753
N215	N	1.061219	0.072232	0.747087
N216	N	1.394552	0.405565	1.080420
N217	N	0.767333	-0.213876	0.390010
N218	N	1.100666	0.119458	0.723343
N219	N	1.433999	0.452791	1.056677
H220	H	0.792854	-0.179740	0.421283
H221	H	1.126187	0.153593	0.754617
H222	H	1.459521	0.486927	1.087950
N223	N	0.888627	-0.787984	0.240424
N224	N	1.221960	-0.454651	0.573757
N225	N	1.555293	-0.121318	0.907091
N226	N	0.833392	-0.806741	0.215112
N227	N	1.166726	-0.473408	0.548446
N228	N	1.500059	-0.140074	0.881779
H229	H	0.820458	-0.788783	0.168601
H230	H	1.153791	-0.455449	0.501934
H231	H	1.487124	-0.122116	0.835267
H232	H	1.018448	-0.792622	0.220953
H233	H	1.351781	-0.459289	0.554287
H234	H	1.685115	-0.125956	0.887620
H235	H	1.056773	-0.270740	0.584505
H236	H	1.390106	0.062593	0.917838
H237	H	1.723440	0.395926	1.251171
N238	N	1.063586	-0.923819	0.416604
N239	N	1.396919	-0.590485	0.749937
N240	N	1.730252	-0.257152	1.083270
N241	N	1.075760	-0.991473	0.419899
N242	N	1.409093	-0.658140	0.753232
N243	N	1.742427	-0.324806	1.086566
H244	H	1.122147	-1.009131	0.433609
H245	H	1.455481	-0.675798	0.766942
H246	H	1.788814	-0.342465	1.100276
H247	H	1.056787	-0.270705	0.712739
H248	H	1.390120	0.062628	1.046072
H249	H	1.723453	0.395962	1.379405
H250	H	0.592192	-0.442557	0.247441
H251	H	0.925525	-0.109224	0.580774
H252	H	1.258859	0.224109	0.914108
H253	H	0.720426	-0.442551	0.247424
H254	H	1.053759	-0.109218	0.580758
H255	H	1.387093	0.224116	0.914091
H256	H	0.592315	-0.270917	0.404789
H257	H	0.925649	0.062417	0.738122
H258	H	1.258982	0.395750	1.071456
N259	N	0.371990	-0.452361	0.238494
N260	N	0.705323	-0.119028	0.571827
N261	N	1.038656	0.214306	0.905161
N262	N	0.435102	-0.452354	0.238491
N263	N	0.768436	-0.119021	0.571825
N264	N	1.101769	0.214313	0.905158
H265	H	0.460581	-0.486478	0.207210
H266	H	0.793914	-0.153145	0.540544
H267	H	1.127248	0.180189	0.873877
H268	H	0.236555	-0.270919	0.404829
H269	H	0.569889	0.062415	0.738162
H270	H	0.903222	0.395748	1.071495
H271	H	1.018413	-0.919846	0.220659
H272	H	1.351747	-0.586512	0.553992
H273	H	1.685080	-0.253179	0.887326
H274	H	0.961587	-0.919543	0.437608
H275	H	1.294920	-0.586209	0.770942
H276	H	1.628254	-0.252876	1.104275
H277	H	1.083130	-0.920670	0.285679
H278	H	1.416464	-0.587336	0.619012
H279	H	1.749797	-0.254003	0.952345
H280	H	0.899679	-0.442500	0.940196
H281	H	1.233012	-0.109166	1.273529
H282	H	1.566346	0.224167	1.606862
N283	N	1.097103	-0.787799	0.289018
N284	N	1.430436	-0.454465	0.622352
N285	N	1.763770	-0.121132	0.955685
N286	N	1.127985	-0.748235	0.247540
N287	N	1.461318	-0.414901	0.580873
N288	N	1.794651	-0.081568	0.914206
H289	H	1.174996	-0.730025	0.258246
H290	H	1.508329	-0.396692	0.591579
H291	H	1.841663	-0.063358	0.924913
N292	N	0.890726	-0.452266	1.075764
N293	N	1.224059	-0.118933	1.409097
N294	N	1.557392	0.214400	1.742430
N295	N	0.914523	-0.499450	1.115201
N296	N	1.247857	-0.166117	1.448534
N297	N	1.581190	0.167216	1.781868
H298	H	0.883289	-0.533606	1.140692
H299	H	1.216622	-0.200273	1.474026
H300	H	1.549955	0.133061	1.807359
H301	H	0.960681	-0.792812	0.437598
H302	H	1.294014	-0.459479	0.770931
H303	H	1.627348	-0.126145	1.104265
H304	H	0.899618	-0.442570	0.584426
H305	H	1.232951	-0.109237	0.917760
H306	H	1.566285	0.224096	1.251093
H307	H	1.049274	-0.791660	0.413225
H308	H	1.382607	-0.458326	0.746559
H309	H	1.715940	-0.124993	1.079892
H310	H	0.867729	-0.919322	0.346069
H311	H	1.201062	-0.585989	0.679403
H312	H	1.534396	-0.252656	1.012736
H313	H	1.056818	-0.270651	0.940265
H314	H	1.390151	0.062683	1.273598
H315	H	1.723484	0.396016	1.606932
N316	N	0.884526	-0.926229	0.243740
N317	N	1.217859	-0.592896	0.577074
N318	N	1.551192	-0.259563	0.910407
N319	N	0.921331	-0.969141	0.210729
N320	N	1.254664	-0.635808	0.544062
N321	N	1.587998	-0.302474	0.877396
H322	H	0.905758	-0.988335	0.165432
H323	H	1.239091	-0.655002	0.498765
H324	H	1.572425	-0.321668	0.832099
H325	H	0.865993	-0.792022	0.341680
H326	H	1.199326	-0.458688	0.675013
H327	H	1.532660	-0.125355	1.008347
