data_functionalizedCrystal
_audit_creation_method	'MofGen! by Chris Wilmer'
_symmetry_space_group_name_H-M	'P1'
_symmetry_Int_Tables_number	1
_symmetry_cell_setting	triclinic
loop_
_symmetry_equiv_pos_as_xyz
  x,y,z
_cell_length_a	10.654550
_cell_length_b	10.723024
_cell_length_c	9.798715
_cell_angle_alpha	90.003391
_cell_angle_beta	89.998020
_cell_angle_gamma	95.523614
loop_
_atom_site_label
_atom_site_type_symbol
_atom_site_fract_x
_atom_site_fract_y
_atom_site_fract_z
O1	O	0.176147	-1.657213	-0.113478
O2	O	0.193008	-1.294064	-0.113483
O3	O	0.001837	-1.483988	-0.113475
O4	O	0.367318	-1.467289	-0.113486
O5	O	0.001836	-1.483974	0.113507
O6	O	0.193007	-1.294049	0.113499
O7	O	0.176146	-1.657199	0.113504
Zn8	Zn	0.184577	-1.475622	0.149540
Zn9	Zn	0.184577	-1.475641	-0.149519
O10	O	0.367317	-1.467275	0.113496
C11	C	0.191780	-1.247557	0.000008
C12	C	0.188109	-1.109002	0.000006
C13	C	-0.044961	-1.482755	0.000014
C14	C	-0.184404	-1.479086	0.000009
N15	N	0.184575	-1.475618	0.353640
C16	C	-0.263907	-1.590911	0.000015
C17	C	-0.394927	-1.587456	0.000005
C18	C	-0.366929	-1.360343	-0.000010
C19	C	-0.235912	-1.363799	-0.000010
C20	C	-0.212399	-1.706198	0.000034
C21	C	-0.291903	-1.818032	0.000041
C22	C	-0.422923	-1.814578	0.000031
C23	C	-0.474440	-1.699289	0.000015
C24	C	0.414115	-1.468508	0.000004
C25	C	0.553558	-1.472176	-0.000000
C26	C	0.177373	-1.703706	0.000010
C27	C	0.181045	-1.842261	0.000003
C28	C	0.295078	-1.034035	0.000002
C29	C	0.291287	-0.890831	0.000001
N30	N	0.184569	-1.475654	-0.353619
C31	C	0.103954	-1.555362	0.421420
C32	C	0.103950	-1.555382	0.578582
H33	H	-0.105717	-1.709024	0.000046
C34	C	0.060591	-1.052490	0.000010
N35	N	-0.035459	-1.009927	0.000010
C36	C	-0.235232	-1.944842	0.000057
N37	N	-0.192548	-2.040358	0.000073
C38	C	0.010687	-1.647557	0.342634
N39	N	-0.059571	-1.716994	0.283295
H40	H	0.389466	-1.075871	0.000007
C41	C	0.277822	-1.383415	0.567648
N42	N	0.348059	-1.313938	0.508336
C43	C	-0.618568	-1.695496	-0.000004
N44	N	-0.727123	-1.692641	-0.000011
H45	H	0.382860	-0.826412	-0.000008
H46	H	0.034931	-1.623659	0.636870
H47	H	-0.487652	-1.905638	0.000023
H48	H	0.253591	-1.407356	0.411961
H49	H	-0.408885	-1.266481	-0.000021
H50	H	-0.171178	-1.272742	-0.000012
H51	H	0.089466	-0.906672	-0.000002
