data_functionalizedCrystal
_audit_creation_method	'MofGen! by Chris Wilmer'
_symmetry_space_group_name_H-M	'P1'
_symmetry_Int_Tables_number	1
_symmetry_cell_setting	triclinic
loop_
_symmetry_equiv_pos_as_xyz
  x,y,z
_cell_length_a	23.196402
_cell_length_b	20.016444
_cell_length_c	23.196401
_cell_angle_alpha	90.014557
_cell_angle_beta	60.007332
_cell_angle_gamma	60.006719
loop_
_atom_site_label
_atom_site_type_symbol
_atom_site_fract_x
_atom_site_fract_y
_atom_site_fract_z
Zr1	Zr	0.631004	0.643633	-0.075632
O2	O	0.751262	0.536949	-0.167679
O3	O	0.510744	0.676328	-0.047417
O4	O	0.631007	0.676308	-0.167683
O5	O	0.630998	0.536995	0.047459
O6	O	0.631011	0.786248	-0.167683
O7	O	0.630999	0.536969	-0.047413
O8	O	0.415883	0.786283	0.047450
O9	O	0.846126	0.536960	-0.167675
O10	O	0.560213	0.772330	-0.035381
O11	O	0.560208	0.690303	0.035421
O12	O	0.701802	0.690280	-0.106177
O13	O	0.701798	0.608253	-0.035375
Zr14	Zr	0.631009	0.819016	0.075677
Zr15	Zr	0.631011	0.818974	-0.075632
Zr16	Zr	0.631002	0.643675	0.075677
Zr17	Zr	0.782301	0.643651	-0.075626
Zr18	Zr	0.479712	0.818999	0.075671
O19	O	0.751269	0.786322	0.047463
O20	O	0.751273	0.786262	-0.167679
O21	O	0.751259	0.537009	0.047463
O22	O	0.510751	0.925700	0.167724
O23	O	0.510754	0.925640	-0.047418
O24	O	0.510740	0.676387	0.167724
O25	O	0.631015	0.925655	-0.047413
O26	O	0.631006	0.786341	0.167729
O27	O	0.631002	0.676401	0.167729
O28	O	0.631014	0.925681	0.047458
O29	O	0.846132	0.676334	-0.167675
O30	O	0.415881	0.786316	0.167721
O31	O	0.415887	0.925689	0.167721
O32	O	0.415889	0.925656	0.047450
O33	O	0.846124	0.536994	-0.047405
O34	O	0.846130	0.676367	-0.047405
O35	O	0.560211	0.772369	0.106222
O36	O	0.560215	0.854397	0.035421
O37	O	0.701805	0.772347	-0.035375
O38	O	0.701800	0.690319	0.035426
C39	C	0.441757	0.731303	0.000016
C40	C	0.377527	0.731295	0.000013
C41	C	0.295100	0.791877	0.052274
C42	C	0.234740	0.791883	0.052280
C43	C	0.256811	0.731312	0.000015
C44	C	0.339252	0.670720	-0.052250
C45	C	0.399610	0.670711	-0.052251
C46	C	0.201224	0.712436	-0.063777
C47	C	0.140865	0.712450	-0.063776
C48	C	0.070649	0.731334	0.000018
C49	C	0.060790	0.750222	0.063816
C50	C	0.121148	0.750213	0.063815
C51	C	0.191369	0.731315	0.000011
C52	C	-0.077231	0.791926	0.052290
C53	C	-0.137590	0.791926	0.052297
C54	C	-0.033075	0.670766	-0.052239
C55	C	0.027282	0.670763	-0.052240
C56	C	0.005199	0.731347	0.000024
C57	C	0.630997	0.511999	0.000023
C58	C	0.630994	0.437562	0.000023
C59	C	0.557095	0.309124	0.036979
C60	C	0.557099	0.239179	0.036981
C61	C	0.704923	0.153527	-0.036935
C62	C	0.704919	0.223471	-0.036932
C63	C	0.631003	0.301270	0.000023
C64	C	0.631010	0.161380	0.000022
C65	C	0.631015	0.085542	0.000024
C66	C	0.630998	0.377112	0.000023
C67	C	0.820256	0.731347	0.000030
C68	C	0.884486	0.731354	0.000032
C69	C	0.631009	0.731272	-0.189242
C70	C	0.631010	0.731254	-0.253476
C71	C	0.631016	0.950650	0.000023
C72	C	0.631019	1.025087	0.000022
C73	C	0.704917	0.688429	-0.320604
C74	C	0.704918	0.688450	-0.380959
C75	C	0.631008	0.731285	-0.374182
C76	C	0.557092	0.774120	-0.307043
C77	C	0.557094	0.774104	-0.246689
C78	C	0.574382	0.725195	-0.441502
C79	C	0.574384	0.725204	-0.501855
C80	C	0.631002	0.731337	-0.560330
C81	C	0.687632	0.737444	-0.558451
C82	C	0.687633	0.737428	-0.498098
C83	C	0.630999	0.731307	-0.439621
C84	C	0.704915	0.688532	-0.692905
C85	C	0.704913	0.688559	-0.753260
C86	C	0.557085	0.774223	-0.679341
C87	C	0.557089	0.774201	-0.618988
C88	C	0.631006	0.731352	-0.625775
C89	C	0.631004	0.731377	0.189287
C90	C	0.631003	0.731395	0.253522
C91	C	0.441766	0.950628	0.000015
C92	C	0.377539	1.025057	0.000013
C93	C	0.441754	0.731355	0.189280
C94	C	0.377523	0.731365	0.253512
C95	C	0.441763	0.950680	0.189280
C96	C	0.377535	1.025128	0.253512
C97	C	0.820250	0.511969	-0.189234
C98	C	0.884478	0.437522	-0.253466
C99	C	0.820247	0.512022	0.000030
C100	C	0.884474	0.437592	0.000033
C101	C	0.820259	0.731294	-0.189235
C102	C	0.884490	0.731284	-0.253467
C103	C	0.347376	1.017172	-0.036952
C104	C	0.287037	1.087100	-0.036969
C105	C	0.256857	1.164912	-0.000015
C106	C	0.287026	1.172796	0.036951
C107	C	0.347368	1.102869	0.036963
C108	C	0.347361	0.774208	0.320640
C109	C	0.287018	0.774215	0.380999
C110	C	0.256834	0.731383	0.374228
C111	C	0.287002	0.688535	0.307093
C112	C	0.347348	0.688524	0.246736
C113	C	0.347376	1.102914	0.246718
C114	C	0.287035	1.172872	0.307065
C115	C	0.256852	1.165042	0.374206
C116	C	0.287017	1.087247	0.380998
C117	C	0.347361	1.017291	0.320651
C118	C	0.914645	0.359736	-0.246673
C119	C	0.975004	0.289778	-0.307020
C120	C	1.005191	0.297608	-0.374160
C121	C	0.975021	0.375402	-0.380952
C122	C	0.914667	0.445358	-0.320606
C123	C	0.914643	0.445477	0.036991
C124	C	0.974999	0.375549	0.036991
C125	C	1.005181	0.297737	0.000036
C126	C	0.975009	0.289854	-0.036927
C127	C	0.914658	0.359781	-0.036931
C128	C	0.914655	0.774124	-0.246673
C129	C	0.974998	0.774131	-0.307020
C130	C	1.005180	0.731292	-0.374160
C131	C	0.975009	0.688450	-0.380953
C132	C	0.914663	0.688449	-0.320606
H133	H	-0.095213	0.841253	0.094850
H134	H	0.496916	0.245582	0.067076
O135	O	-0.226501	0.857279	0.108659
H136	H	-0.231711	0.899409	0.144992
O137	O	0.784633	0.642330	-0.700215
H138	H	0.836027	0.612565	-0.757037
H139	H	0.765103	0.653575	-0.435625
O140	O	1.007584	0.383840	-0.453370
H141	H	0.956930	0.417788	-0.459517
H142	H	0.262462	0.809109	0.435657
O143	O	0.748694	0.744032	-0.496059
H144	H	0.788062	0.748308	-0.546854
O145	O	0.379929	0.933251	-0.076819
H146	H	0.348818	0.939529	-0.102531
H147	H	0.371909	0.953957	0.326193
H148	H	0.496908	0.372469	0.067079
H149	H	0.262417	0.653662	0.301591
H150	H	0.765103	0.090176	-0.067024
H151	H	0.999593	0.653572	-0.435626
H152	H	0.207696	0.731398	0.423381
O153	O	0.784637	0.215005	-0.076798
H154	H	0.836036	0.149157	-0.102505
H155	H	0.765106	0.653541	-0.326136
O156	O	1.007564	0.205925	-0.076780
H157	H	1.035069	0.198784	-0.133586
H158	H	0.371919	1.109300	0.067068
H159	H	0.371930	0.809087	0.326167
O160	O	0.254506	1.078586	-0.076841
H161	H	0.187931	1.108412	-0.039538
H162	H	0.890096	0.353349	-0.067025
H163	H	0.496915	0.808997	-0.301528
O164	O	0.276953	0.692069	-0.132592
H165	H	0.331478	0.637517	-0.139601
H166	H	0.733738	0.742433	-0.606064
H167	H	0.262433	1.080884	0.435671
O168	O	0.191755	1.240501	0.439289
H169	H	0.214907	1.240485	0.471165
H170	H	0.890070	0.353345	-0.192009
H171	H	1.054318	0.731299	-0.423293
H172	H	0.371898	0.653639	0.192079
O173	O	1.007536	0.820337	-0.299688
H174	H	0.976416	0.850111	-0.242861
H175	H	0.999557	0.226441	-0.301476
O176	O	0.882139	0.642229	-0.327937
H177	H	0.913277	0.612435	-0.384763
H178	H	0.528277	0.720195	-0.393893
H179	H	0.371942	1.109305	0.192055
O180	O	1.070295	0.222147	-0.439243
H181	H	1.047133	0.185211	-0.439202
H182	H	0.496908	0.808978	-0.192029
O183	O	0.254496	1.256772	0.299732
H184	H	0.285614	1.250457	0.242906
H185	H	0.765098	0.653688	-0.807920
H186	H	0.890106	0.508693	-0.326146
H187	H	0.207722	1.221844	-0.000030
O188	O	0.477365	0.820424	-0.672019
H189	H	0.489779	0.813237	-0.725264
O190	O	0.477376	0.820379	-0.546579
H191	H	0.425981	0.850163	-0.552004
O192	O	0.513213	0.718768	-0.503836
H193	H	0.473797	0.714572	-0.453014
O194	O	0.882099	0.820343	-0.174261
H195	H	0.913211	0.850139	-0.179688
H196	H	1.054322	0.240805	0.000045
O197	O	0.254465	1.256723	0.076814
H198	H	0.207431	1.304016	0.070598
O199	O	0.882108	0.529399	0.076841
H200	H	0.913244	0.523120	0.102527
O201	O	1.007521	0.384063	0.076873
H202	H	1.034997	0.418041	0.055531
O203	O	0.271287	0.857211	0.108647
H204	H	0.203825	0.899335	0.144992
O205	O	-0.009261	0.605439	-0.108615
H206	H	-0.034271	0.570532	-0.083482
H207	H	0.113119	0.765589	0.115761
O208	O	0.145825	0.857237	0.108643
H209	H	0.132334	0.854285	0.161346
O210	O	-0.014934	0.770599	0.132638
H211	H	-0.019242	0.717867	0.131756
O212	O	0.116189	0.605431	-0.108621
H213	H	0.129659	0.544365	-0.106058
O214	O	0.151497	0.692078	-0.132582
H215	H	0.210470	0.678928	-0.176943
H216	H	0.357219	0.621402	-0.094804
H217	H	0.466729	0.621374	-0.094807
