data_functionalizedCrystal
_audit_creation_method	'MofGen! by Chris Wilmer'
_symmetry_space_group_name_H-M	'P1'
_symmetry_Int_Tables_number	1
_symmetry_cell_setting	triclinic
loop_
_symmetry_equiv_pos_as_xyz
  x,y,z
_cell_length_a	12.827893
_cell_length_b	15.299816
_cell_length_c	12.827885
_cell_angle_alpha	99.651250
_cell_angle_beta	89.980728
_cell_angle_gamma	80.350679
loop_
_atom_site_label
_atom_site_type_symbol
_atom_site_fract_x
_atom_site_fract_y
_atom_site_fract_z
Zn1	Zn	1.669579	-0.359008	-0.662875
Zn2	Zn	1.699686	-0.509849	-0.518398
Zn3	Zn	1.494829	-0.359052	-0.488158
Zn4	Zn	1.525005	-0.509782	-0.693085
O5	O	1.597275	-0.434423	-0.590629
O6	O	1.819810	-0.379027	-0.643723
O7	O	1.672482	-0.489892	-0.368160
O8	O	1.492781	-0.232838	-0.486036
O9	O	1.841930	-0.489849	-0.537576
O10	O	1.621169	-0.232806	-0.614400
O11	O	1.521975	-0.379102	-0.345942
O12	O	1.352594	-0.379038	-0.515329
O13	O	1.544212	-0.489735	-0.835304
O14	O	1.374764	-0.489778	-0.665888
O15	O	1.650430	-0.378962	-0.813109
O16	O	1.701743	-0.636049	-0.566869
O17	O	1.573406	-0.636000	-0.695211
C18	C	1.325761	-0.434406	-0.590606
C19	C	1.209611	-0.434421	-0.590625
C20	C	1.146900	-0.379680	-0.643268
C21	C	1.026853	-0.379694	-0.643289
C22	C	1.644145	-0.668749	-0.637623
C23	C	1.664291	-0.768994	-0.657761
C24	C	1.453968	-1.051936	-0.447048
C25	C	1.435034	-0.957750	-0.428129
C26	C	1.492347	-0.910557	-0.485535
C27	C	1.568597	-0.957558	-0.561864
C28	C	1.587527	-1.051752	-0.580791
C29	C	1.625906	-0.910373	-0.619278
C30	C	1.702156	-0.957374	-0.695607
C31	C	1.721083	-1.051560	-0.714530
C32	C	1.663770	-1.098754	-0.657124
C33	C	1.606975	-0.816178	-0.600351
C34	C	1.740534	-0.815995	-0.734094
C35	C	1.759469	-0.910181	-0.753013
C36	C	1.869848	-0.434440	-0.590653
C37	C	1.986003	-0.434448	-0.590663
C38	C	1.597328	-0.434336	-0.863182
C39	C	1.597351	-0.434299	-0.979328
C40	C	1.550250	-0.199182	-0.543475
C41	C	1.530211	-0.098937	-0.523381
C42	C	1.544832	-0.489052	-1.162127
C43	C	1.544807	-0.489091	-1.042085
C44	C	1.597268	-0.434444	-0.319123
C45	C	1.597397	-0.434227	-0.202927
H46	H	1.039886	-0.481321	-0.545598
Br47	Br	1.672368	-0.356031	-1.113031
H48	H	1.174425	-0.481295	-0.545568
H49	H	1.476927	-0.833866	-0.470125
H50	H	1.407308	-1.090369	-0.400321
H51	H	1.821552	-0.948462	-0.815162
Br52	Br	1.469806	-0.567336	-0.983544
H53	H	1.544892	-0.777918	-0.538204
H54	H	1.372951	-0.919485	-0.365983
H55	H	1.182085	-0.332801	-0.688318
Br56	Br	1.689709	-1.226582	-0.682552
H57	H	1.783166	-1.089826	-0.776687
Br58	Br	1.818317	-0.751955	-0.812012
H59	H	1.499845	-0.535958	-1.216067
H60	H	0.972965	-0.332831	-0.688363
H61	H	1.642360	-0.387362	-1.014450
