data_functionalizedCrystal
_audit_creation_method	'MofGen! by Chris Wilmer'
_symmetry_space_group_name_H-M	'P1'
_symmetry_Int_Tables_number	1
_symmetry_cell_setting	triclinic
loop_
_symmetry_equiv_pos_as_xyz
  x,y,z
_cell_length_a	12.827893
_cell_length_b	21.295417
_cell_length_c	21.295412
_cell_angle_alpha	89.968813
_cell_angle_beta	89.985558
_cell_angle_gamma	90.030477
loop_
_atom_site_label
_atom_site_type_symbol
_atom_site_fract_x
_atom_site_fract_y
_atom_site_fract_z
Zn1	Zn	1.597510	-0.250622	-0.355878
Zn2	Zn	2.097510	0.249378	0.144122
Zn3	Zn	1.597373	-0.355892	-0.250603
Zn4	Zn	2.097373	0.144108	0.249397
Zn5	Zn	1.422766	-0.250640	-0.250626
Zn6	Zn	1.922766	0.249360	0.249374
Zn7	Zn	1.422691	-0.355857	-0.355839
Zn8	Zn	1.922691	0.144143	0.144161
O9	O	1.510085	-0.303253	-0.303236
O10	O	2.010085	0.196747	0.196764
O11	O	1.743728	-0.264593	-0.341920
O12	O	2.243728	0.235407	0.158080
O13	O	1.574185	-0.341952	-0.162517
O14	O	2.074185	0.158048	0.337483
O15	O	1.446035	-0.162548	-0.264614
O16	O	1.946035	0.337452	0.235386
O17	O	1.743627	-0.341934	-0.264575
O18	O	2.243627	0.158066	0.235425
O19	O	1.574419	-0.162535	-0.341942
O20	O	2.074419	0.337465	0.158058
O21	O	1.445902	-0.264624	-0.162534
O22	O	1.945902	0.235376	0.337466
O23	O	1.276520	-0.264591	-0.264576
O24	O	1.776520	0.235409	0.235424
O25	O	1.445907	-0.341876	-0.443933
O26	O	1.945907	0.158124	0.056067
O27	O	1.276465	-0.341893	-0.341875
O28	O	1.776465	0.158107	0.158125
O29	O	1.574346	-0.264560	-0.443962
O30	O	2.074346	0.235440	0.056038
O31	O	1.574112	-0.443976	-0.264537
O32	O	2.074112	0.056024	0.235463
O33	O	1.445773	-0.443951	-0.341853
O34	O	1.945773	0.056049	0.158147
C35	C	1.238575	-0.303241	-0.303224
C36	C	1.738575	0.196759	0.196776
C37	C	1.122422	-0.303251	-0.303234
C38	C	1.622422	0.196749	0.196766
C39	C	1.070637	-0.341562	-0.341425
C40	C	1.570637	0.158438	0.158575
C41	C	0.950587	-0.341573	-0.341436
C42	C	1.450587	0.158427	0.158564
C43	C	1.509948	-0.466804	-0.303202
C44	C	2.009948	0.033196	0.196798
C45	C	1.509985	-0.536773	-0.303208
C46	C	2.009985	-0.036773	0.196792
C47	C	1.576870	-0.569631	-0.262991
C48	C	2.076870	-0.069631	0.237009
C49	C	1.576919	-0.635374	-0.263005
C50	C	2.076919	-0.135374	0.236995
C51	C	1.510064	-0.668255	-0.303229
C52	C	2.010064	-0.168255	0.196771
C53	C	1.443174	-0.635388	-0.343454
C54	C	1.943174	-0.135388	0.156546
C55	C	1.443135	-0.569647	-0.343444
C56	C	1.943135	-0.069647	0.156556
N57	N	1.418647	-0.771521	-0.308024
N58	N	1.918647	-0.271521	0.191976
N59	N	1.418688	-0.833972	-0.308031
N60	N	1.918688	-0.333972	0.191969
C61	C	1.510181	-0.866330	-0.303266
C62	C	2.010181	-0.366330	0.196734
N63	N	1.601635	-0.833876	-0.298481
N64	N	2.101635	-0.333876	0.201519
N65	N	1.601593	-0.771419	-0.298471
N66	N	2.101593	-0.271419	0.201529
C67	C	1.510100	-0.739540	-0.303246
C68	C	2.010100	-0.239540	0.196754
C69	C	1.577125	-0.970474	-0.263062
C70	C	2.077125	-0.470474	0.236938
C71	C	1.577176	-1.036218	-0.263080
C72	C	2.077176	-0.536218	0.236920
C73	C	1.443422	-1.036231	-0.343527
C74	C	1.943422	-0.536231	0.156473
C75	C	1.443381	-0.970488	-0.343511
C76	C	1.943381	-0.470488	0.156489
C77	C	1.510231	-0.937614	-0.303275
C78	C	2.010231	-0.437614	0.196725
C79	C	1.782655	-0.303265	-0.303249
C80	C	2.282655	0.196735	0.196751
C81	C	1.898808	-0.303271	-0.303254
C82	C	2.398808	0.196729	0.196746
C83	C	1.510133	-0.303212	-0.467427
C84	C	2.010133	0.196788	0.032573
C85	C	1.510154	-0.303195	-0.537395
C86	C	2.010154	0.196805	-0.037395
C87	C	1.510251	-0.139063	-0.303285
C88	C	2.010251	0.360937	0.196715
C89	C	1.510322	-0.069094	-0.303306
C90	C	2.010322	0.430906	0.196694
C91	C	1.577131	-0.262837	-1.036869
C92	C	2.077131	0.237163	-0.536869
C93	C	1.577123	-0.262852	-0.971127
C94	C	2.077123	0.237148	-0.471127
C95	C	1.510244	-0.303112	-0.938235
C96	C	2.010244	0.196888	-0.438235
C97	C	1.443388	-0.343371	-0.971091
C98	C	1.943388	0.156629	-0.471091
C99	C	1.443405	-0.343359	-1.036832
C100	C	1.943405	0.156641	-0.536832
N101	N	1.418738	-0.307955	-0.835008
N102	N	1.918738	0.192045	-0.335008
N103	N	1.418724	-0.307963	-0.772556
N104	N	1.918724	0.192037	-0.272556
C105	C	1.510189	-0.303151	-0.740160
C106	C	2.010189	0.196849	-0.240160
N107	N	1.601670	-0.298319	-0.772574
N108	N	2.101670	0.201681	-0.272574
N109	N	1.601683	-0.298308	-0.835031
N110	N	2.101683	0.201692	-0.335031
C111	C	1.510218	-0.303129	-0.866949
C112	C	2.010218	0.196871	-0.366949
C113	C	1.577038	-0.262914	-0.636026
C114	C	2.077038	0.237086	-0.136026
C115	C	1.577032	-0.262934	-0.570282
C116	C	2.077032	0.237066	-0.070282
C117	C	1.443287	-0.343449	-0.570248
C118	C	1.943287	0.156551	-0.070248
C119	C	1.443303	-0.343433	-0.635990
C120	C	1.943303	0.156567	-0.135990
C121	C	1.510177	-0.303162	-0.668875
C122	C	2.010177	0.196838	-0.168875
C123	C	1.510097	-0.303248	-0.139685
C124	C	2.010097	0.196752	0.360315
C125	C	1.510279	-0.303088	-0.069717
C126	C	2.010279	0.196912	0.430283
H127	H	0.906053	-0.374375	-0.374131
H128	H	1.406053	0.125625	0.125869
H129	H	1.077880	-0.270456	-0.270548
H130	H	1.577880	0.229544	0.229452
N131	N	1.649242	-0.935013	-0.219677
N132	N	2.149242	-0.435013	0.280323
H133	H	1.639065	-0.888379	-0.225770
H134	H	2.139065	-0.388379	0.274230
H135	H	1.633039	-0.946546	-0.174712
H136	H	2.133039	-0.446546	0.325288
N137	N	1.648987	-0.534176	-0.219605
N138	N	2.148987	-0.034176	0.280395
H139	H	1.606542	-0.506941	-0.190403
H140	H	2.106542	-0.006941	0.309597
H141	H	1.691353	-0.565013	-0.194175
H142	H	2.191353	-0.065013	0.305825
H143	H	1.631648	-1.062970	-0.230332
H144	H	2.131648	-0.562970	0.269668
N145	N	1.371069	-0.670848	-0.386842
N146	N	1.871069	-0.170848	0.113158
H147	H	1.381240	-0.717482	-0.380745
H148	H	1.881240	-0.217482	0.119255
H149	H	1.296439	-0.659403	-0.377004
H150	H	1.796439	-0.159403	0.122996
N151	N	1.371320	-1.071686	-0.386918
N152	N	1.871320	-0.571686	0.113082
H153	H	1.381496	-1.118319	-0.380825
H154	H	1.881496	-0.618319	0.119175
H155	H	1.296689	-1.060244	-0.377080
H156	H	1.796689	-0.560244	0.122920
N157	N	1.371232	-0.935043	-0.386884
N158	N	1.871232	-0.435043	0.113116
H159	H	1.328884	-0.965847	-0.412368
H160	H	1.828884	-0.465847	0.087632
H161	H	1.322884	-0.907812	-0.361227
H162	H	1.822884	-0.407812	0.138773
N163	N	1.370990	-0.534202	-0.386821
N164	N	1.870990	-0.034202	0.113179
H165	H	1.328645	-0.565005	-0.412308
H166	H	1.828645	-0.065005	0.087692
H167	H	1.322639	-0.506972	-0.361165
H168	H	1.822639	-0.006972	0.138835
H169	H	0.943335	-0.270471	-0.270554
H170	H	1.443335	0.229529	0.229446
H171	H	1.388837	-0.376232	-0.543468
H172	H	1.888837	0.123768	-0.043468
H173	H	1.631561	-0.230072	-0.944377
H174	H	2.131561	0.269928	-0.444377
H175	H	1.631590	-0.230048	-1.063640
H176	H	2.131590	0.269952	-0.563640
H177	H	1.631389	-0.662133	-0.230255
H178	H	2.131389	-0.162133	0.269745
N179	N	1.371258	-0.386797	-0.935619
N180	N	1.871258	0.113203	-0.435619
H181	H	1.381388	-0.380696	-0.888987
H182	H	1.881388	0.119304	-0.388987
H183	H	1.296636	-0.376998	-0.947111
H184	H	1.796636	0.123002	-0.447111
N185	N	1.371298	-0.386774	-1.072266
N186	N	1.871298	0.113226	-0.572266
H187	H	1.328930	-0.412284	-1.041456
H188	H	1.828930	0.087716	-0.541456
H189	H	1.322967	-0.361144	-1.099547
H190	H	1.822967	0.138856	-0.599547
H191	H	1.631490	-0.230123	-0.662803
H192	H	2.131490	0.269877	-0.162803
N193	N	1.649148	-0.219523	-0.534850
N194	N	2.149148	0.280477	-0.034850
H195	H	1.691510	-0.194011	-0.565661
H196	H	2.191510	0.305989	-0.065661
H197	H	1.606629	-0.190399	-0.507578
H198	H	2.106629	0.309601	-0.007578
H199	H	1.388860	-0.376207	-0.662735
H200	H	1.888860	0.123793	-0.162735
H201	H	1.115179	-0.374352	-0.374116
H202	H	1.615179	0.125648	0.125884
