data_functionalizedCrystal
_audit_creation_method	'MofGen! by Chris Wilmer'
_symmetry_space_group_name_H-M	'P1'
_symmetry_Int_Tables_number	1
_symmetry_cell_setting	triclinic
loop_
_symmetry_equiv_pos_as_xyz
  x,y,z
_cell_length_a	18.101395
_cell_length_b	18.101398
_cell_length_c	12.759393
_cell_angle_alpha	90.027282
_cell_angle_beta	90.032328
_cell_angle_gamma	90.028835
loop_
_atom_site_label
_atom_site_type_symbol
_atom_site_fract_x
_atom_site_fract_y
_atom_site_fract_z
Zn1	Zn	-0.294839	1.132139	0.594220
Zn2	Zn	-0.418698	1.132030	0.418534
Zn3	Zn	-0.294870	1.008293	0.418531
Zn4	Zn	-0.418638	1.008249	0.594148
O5	O	-0.356761	1.070178	0.506358
O6	O	-0.311281	1.235758	0.570946
O7	O	-0.402310	1.115588	0.271512
O8	O	-0.191233	1.024785	0.441866
O9	O	-0.402280	1.235677	0.441870
O10	O	-0.191210	1.115775	0.570943
O11	O	-0.311334	1.024679	0.271511
O12	O	-0.311276	0.904654	0.441796
O13	O	-0.402178	1.024711	0.741178
O14	O	-0.402208	0.904622	0.570821
O15	O	-0.311223	1.115732	0.741231
O16	O	-0.522323	1.115546	0.441800
O17	O	-0.522279	1.024604	0.570823
C18	C	-0.356739	0.877767	0.506301
C19	C	-0.356748	0.795453	0.506302
C20	C	-0.356763	0.644745	0.506349
C21	C	-0.299469	0.613386	0.425305
C22	C	-0.299254	0.527768	0.425571
C23	C	-0.356778	0.496362	0.506394
C24	C	-0.335938	0.527505	0.617241
C25	C	-0.335513	0.613150	0.616746
C26	C	-0.435046	0.613140	0.477522
C27	C	-0.434633	0.527488	0.475107
C28	C	-0.356788	0.412503	0.506426
C29	C	-0.356752	0.728604	0.506324
C30	C	-0.549172	1.070079	0.506327
C31	C	-0.631486	1.070104	0.506349
C32	C	-0.930577	1.070266	0.506406
C33	C	-0.899255	1.013181	0.587785
C34	C	-0.813637	1.012910	0.587530
C35	C	-0.782194	1.070186	0.506379
C36	C	-0.813352	1.049053	0.395649
C37	C	-0.898997	1.048685	0.396136
C38	C	-0.898922	1.148609	0.534782
C39	C	-0.813271	1.148148	0.537210
C40	C	-0.698335	1.070141	0.506356
C41	C	-1.014436	1.070309	0.506421
C42	C	-0.163599	1.070297	0.506412
C43	C	-0.081285	1.070348	0.506435
C44	C	-0.356690	1.070229	0.780392
C45	C	-0.356660	1.070251	0.897168
C46	C	-0.356784	1.263340	0.506416
C47	C	-0.356793	1.345654	0.506441
C48	C	-0.356778	1.070169	0.233391
C49	C	-0.356600	1.070291	0.116615
C50	C	-0.404013	1.117589	0.952029
C51	C	-0.403982	1.117612	1.061753
C52	C	-0.309242	1.022950	1.061747
C53	C	-0.309270	1.022932	0.952024
C54	C	-0.451403	1.164908	0.897173
C55	C	-0.498761	1.212250	0.952033
C56	C	-0.498729	1.212272	1.061757
C57	C	-0.451340	1.164952	1.116621
H58	H	-0.375446	0.633898	0.679221
H59	H	-0.451312	1.164980	1.205966
H60	H	-0.537285	1.250825	1.106422
F61	F	-0.490840	0.639662	0.554655
F62	F	-0.260733	0.639301	0.648595
H63	H	-0.376397	0.507166	0.679297
H64	H	-0.919720	1.088460	0.333434
H65	H	-0.270660	0.984424	1.106425
F66	F	-0.223440	0.501020	0.450588
F67	F	-0.785285	1.206684	0.465391
H68	H	-0.919798	1.026272	0.670155
H69	H	-0.454075	0.634698	0.398042
F70	F	-0.549186	1.262614	0.893642
H71	H	-0.279358	0.506086	0.642036
H72	H	-0.792987	1.089323	0.333361
F73	F	-0.258870	0.972551	0.893635
F74	F	-0.786937	0.937008	0.562966
F75	F	-0.316242	0.500239	0.318156
H76	H	-0.450353	0.507130	0.393528
F77	F	-0.316252	0.640254	0.317538
H78	H	-0.479585	0.506102	0.529792
H79	H	-0.241792	0.634935	0.444198
H80	H	-0.791966	0.992392	0.371183
H81	H	-0.792568	1.026132	0.669635
H82	H	-0.920840	0.955465	0.569225
F83	F	-0.927080	1.173792	0.638522
F84	F	-0.786650	1.168980	0.643725
F85	F	-0.925196	0.973832	0.364720
H86	H	-0.919177	1.191139	0.475510
H87	H	-0.451436	1.164893	0.807830
