data_functionalizedCrystal
_audit_creation_method	'MofGen! by Chris Wilmer'
_symmetry_space_group_name_H-M	'P1'
_symmetry_Int_Tables_number	1
_symmetry_cell_setting	triclinic
loop_
_symmetry_equiv_pos_as_xyz
  x,y,z
_cell_length_a	18.050591
_cell_length_b	18.050590
_cell_length_c	12.759393
_cell_angle_alpha	89.964247
_cell_angle_beta	89.972302
_cell_angle_gamma	90.014558
loop_
_atom_site_label
_atom_site_type_symbol
_atom_site_fract_x
_atom_site_fract_y
_atom_site_fract_z
Zn1	Zn	1.135392	-0.295695	-0.594209
Zn2	Zn	1.385392	-0.045695	-0.344209
Zn3	Zn	1.635392	0.204305	-0.094209
Zn4	Zn	1.885392	0.454305	0.155791
Zn5	Zn	1.135309	-0.419905	-0.418516
Zn6	Zn	1.385309	-0.169905	-0.168516
Zn7	Zn	1.635309	0.080095	0.081484
Zn8	Zn	1.885309	0.330095	0.331484
Zn9	Zn	1.011197	-0.295725	-0.418520
Zn10	Zn	1.261197	-0.045725	-0.168520
Zn11	Zn	1.511197	0.204275	0.081480
Zn12	Zn	1.761197	0.454275	0.331480
Zn13	Zn	1.011180	-0.419839	-0.594129
Zn14	Zn	1.261180	-0.169839	-0.344129
Zn15	Zn	1.511180	0.080161	-0.094129
Zn16	Zn	1.761180	0.330161	0.155871
O17	O	1.073270	-0.357791	-0.506343
O18	O	1.323270	-0.107791	-0.256343
O19	O	1.573270	0.142209	-0.006343
O20	O	1.823270	0.392209	0.243657
O21	O	1.239306	-0.312187	-0.570934
O22	O	1.489306	-0.062187	-0.320934
O23	O	1.739306	0.187813	-0.070934
O24	O	1.989306	0.437813	0.179066
O25	O	1.118817	-0.403472	-0.271495
O26	O	1.368817	-0.153472	-0.021495
O27	O	1.618817	0.096528	0.228505
O28	O	1.868817	0.346528	0.478505
O29	O	1.027713	-0.191796	-0.441860
O30	O	1.277713	0.058204	-0.191860
O31	O	1.527713	0.308204	0.058140
O32	O	1.777713	0.558204	0.308140
O33	O	1.239245	-0.403443	-0.441854
O34	O	1.489245	-0.153443	-0.191854
O35	O	1.739245	0.096557	0.058146
O36	O	1.989245	0.346557	0.308146
O37	O	1.118959	-0.191774	-0.570938
O38	O	1.368959	0.058226	-0.320938
O39	O	1.618959	0.308226	-0.070938
O40	O	1.868959	0.558226	0.179062
O41	O	1.027633	-0.312238	-0.271498
O42	O	1.277633	-0.062238	-0.021498
O43	O	1.527633	0.187762	0.228502
O44	O	1.777633	0.437762	0.478502
O45	O	0.907270	-0.312173	-0.441783
O46	O	1.157270	-0.062173	-0.191783
O47	O	1.407270	0.187827	0.058217
O48	O	1.657270	0.437827	0.308217
O49	O	1.027685	-0.403331	-0.741161
O50	O	1.277685	-0.153331	-0.491161
O51	O	1.527685	0.096669	-0.241161
O52	O	1.777685	0.346669	0.008839
O53	O	0.907258	-0.403360	-0.570803
O54	O	1.157258	-0.153360	-0.320803
O55	O	1.407258	0.096640	-0.070803
O56	O	1.657258	0.346640	0.179197
O57	O	1.118943	-0.312122	-0.741219
O58	O	1.368943	-0.062122	-0.491219
O59	O	1.618943	0.187878	-0.241219
O60	O	1.868943	0.437878	0.008781
O61	O	1.118802	-0.523821	-0.441777
O62	O	1.368802	-0.273821	-0.191777
O63	O	1.618802	-0.023821	0.058223
O64	O	1.868802	0.226179	0.308223
O65	O	1.027605	-0.523772	-0.570799
O66	O	1.277605	-0.273772	-0.320799
O67	O	1.527605	-0.023772	-0.070799
O68	O	1.777605	0.226228	0.179201
C69	C	0.880317	-0.357763	-0.506285
C70	C	1.130317	-0.107763	-0.256285
C71	C	1.380317	0.142237	-0.006285
C72	C	1.630317	0.392237	0.243715
C73	C	0.797772	-0.357769	-0.506285
C74	C	1.047772	-0.107769	-0.256285
C75	C	1.297772	0.142231	-0.006285
C76	C	1.547772	0.392231	0.243715
C77	C	1.073212	-0.550743	-0.506302
C78	C	1.323212	-0.300743	-0.256302
C79	C	1.573212	-0.050743	-0.006302
C80	C	1.823212	0.199257	0.243698
C81	C	1.073256	-0.633289	-0.506319
C82	C	1.323256	-0.383289	-0.256319
C83	C	1.573256	-0.133289	-0.006319
C84	C	1.823256	0.116711	0.243681
C85	C	1.122952	-0.832739	-0.436254
C86	C	1.372952	-0.582739	-0.186254
C87	C	1.622952	-0.332739	0.063746
C88	C	1.872952	-0.082739	0.313746
C89	C	1.141096	-0.882064	-0.532145
C90	C	1.391096	-0.632064	-0.282145
C91	C	1.641096	-0.382064	-0.032145
C92	C	1.891096	-0.132064	0.217855
C93	C	1.073298	-0.784419	-0.506361
C94	C	1.323298	-0.534419	-0.256361
C95	C	1.573298	-0.284419	-0.006361
C96	C	1.823298	-0.034419	0.243639
C97	C	1.055230	-0.882175	-0.410513
C98	C	1.305230	-0.632175	-0.160513
C99	C	1.555230	-0.382175	0.089487
C100	C	1.805230	-0.132175	0.339487
C101	C	1.073340	-0.930404	-0.506393
C102	C	1.323340	-0.680404	-0.256393
C103	C	1.573340	-0.430404	-0.006393
C104	C	1.823340	-0.180404	0.243607
C105	C	1.091476	-0.832657	-0.602302
C106	C	1.341476	-0.582657	-0.352302
C107	C	1.591476	-0.332657	-0.102302
C108	C	1.841476	-0.082657	0.147698
C109	C	1.005580	-0.832764	-0.480605
C110	C	1.255580	-0.582764	-0.230605
C111	C	1.505580	-0.332764	0.019395
C112	C	1.755580	-0.082764	0.269395
C113	C	1.023697	-0.882067	-0.576562
C114	C	1.273697	-0.632067	-0.326562
C115	C	1.523697	-0.382067	-0.076562
C116	C	1.773697	-0.132067	0.173438
C117	C	1.073276	-0.700321	-0.506341
C118	C	1.323276	-0.450321	-0.256341
C119	C	1.573276	-0.200321	-0.006341
C120	C	1.823276	0.049679	0.243659
C121	C	1.073362	-1.014501	-0.506423
C122	C	1.323362	-0.764501	-0.256423
C123	C	1.573362	-0.514501	-0.006423
C124	C	1.823362	-0.264501	0.243577
C125	C	0.598306	-0.308125	-0.436286
C126	C	0.848306	-0.058125	-0.186286
C127	C	1.098306	0.191875	0.063714
C128	C	1.348306	0.441875	0.313714
C129	C	0.548896	-0.375864	-0.410430
C130	C	0.798896	-0.125864	-0.160430
C131	C	1.048896	0.124136	0.089570
C132	C	1.298896	0.374136	0.339570
C133	C	0.646641	-0.357792	-0.506333
C134	C	0.896641	-0.107792	-0.256333
C135	C	1.146641	0.142208	-0.006333
C136	C	1.396641	0.392208	0.243667
C137	C	0.548970	-0.290075	-0.532186
C138	C	0.798970	-0.040075	-0.282186
C139	C	1.048970	0.209925	-0.032186
C140	C	1.298970	0.459925	0.217814
C141	C	0.500656	-0.357807	-0.506377
C142	C	0.750656	-0.107807	-0.256377
C143	C	1.000656	0.142193	-0.006377
C144	C	1.250656	0.392193	0.243623
C145	C	0.598318	-0.425567	-0.480427
C146	C	0.848318	-0.175567	-0.230427
C147	C	1.098318	0.074433	0.019573
C148	C	1.348318	0.324433	0.269573
C149	C	0.598397	-0.339732	-0.602228
C150	C	0.848397	-0.089732	-0.352228
C151	C	1.098397	0.160268	-0.102228
C152	C	1.348397	0.410268	0.147772
C153	C	0.549009	-0.407519	-0.576408
C154	C	0.799009	-0.157519	-0.326408
C155	C	1.049009	0.092481	-0.076408
C156	C	1.299009	0.342481	0.173592
C157	C	0.730740	-0.357782	-0.506305
C158	C	0.980740	-0.107782	-0.256305
C159	C	1.230740	0.142218	-0.006305
C160	C	1.480740	0.392218	0.243695
C161	C	0.416560	-0.357825	-0.506405
C162	C	0.666560	-0.107825	-0.256405
C163	C	0.916560	0.142175	-0.006405
C164	C	1.166560	0.392175	0.243595
C165	C	1.266975	-0.357819	-0.506402
C166	C	1.516975	-0.107819	-0.256402
C167	C	1.766975	0.142181	-0.006402
C168	C	2.016975	0.392181	0.243598
C169	C	1.349521	-0.357831	-0.506427
C170	C	1.599521	-0.107831	-0.256427
C171	C	1.849521	0.142169	-0.006427
C172	C	2.099521	0.392169	0.243573
C173	C	1.073322	-0.357716	-0.780377
C174	C	1.323322	-0.107716	-0.530377
C175	C	1.573322	0.142284	-0.280377
C176	C	1.823322	0.392284	-0.030377
C177	C	1.073344	-0.357684	-0.897154
C178	C	1.323344	-0.107684	-0.647154
C179	C	1.573344	0.142316	-0.397154
C180	C	1.823344	0.392316	-0.147154
C181	C	1.073347	-0.164085	-0.506408
C182	C	1.323347	0.085915	-0.256408
C183	C	1.573347	0.335915	-0.006408
C184	C	1.823347	0.585915	0.243592
C185	C	1.073380	-0.081539	-0.506436
C186	C	1.323380	0.168461	-0.256436
C187	C	1.573380	0.418461	-0.006436
C188	C	1.823380	0.668461	0.243564
C189	C	1.120868	-0.310187	-0.952048
C190	C	1.370868	-0.060187	-0.702048
C191	C	1.620868	0.189813	-0.452048
C192	C	1.870868	0.439813	-0.202048
C193	C	1.120886	-0.310160	-1.061772
C194	C	1.370886	-0.060160	-0.811772
C195	C	1.620886	0.189840	-0.561772
C196	C	1.870886	0.439840	-0.311772
C197	C	1.025852	-0.405133	-1.061698
C198	C	1.275852	-0.155133	-0.811698
C199	C	1.525852	0.094867	-0.561698
C200	C	1.775852	0.344867	-0.311698
C201	C	1.025832	-0.405156	-0.951976
C202	C	1.275832	-0.155156	-0.701976
C203	C	1.525832	0.094844	-0.451976
C204	C	1.775832	0.344844	-0.201976
C205	C	1.175737	-0.255358	-0.952091
C206	C	1.425737	-0.005358	-0.702091
C207	C	1.675737	0.244642	-0.452091
C208	C	1.925737	0.494642	-0.202091
C209	C	1.175755	-0.255331	-1.061815
C210	C	1.425755	-0.005331	-0.811815
C211	C	1.675755	0.244669	-0.561815
C212	C	1.925755	0.494669	-0.311815
C213	C	1.073260	-0.357812	-0.233376
C214	C	1.323260	-0.107812	0.016624
C215	C	1.573260	0.142188	0.266624
C216	C	1.823260	0.392188	0.516624
C217	C	1.073382	-0.357634	-0.116600
C218	C	1.323382	-0.107634	0.133400
C219	C	1.573382	0.142366	0.383400
C220	C	1.823382	0.392366	0.633400
H221	H	1.164957	-0.811078	-0.377029
H222	H	1.414957	-0.561078	-0.127029
H223	H	1.664957	-0.311078	0.122971
H224	H	1.914957	-0.061078	0.372971
H225	H	1.106719	-0.810998	-0.683442
H226	H	1.356719	-0.560998	-0.433442
H227	H	1.606719	-0.310998	-0.183442
H228	H	1.856719	-0.060998	0.066558
H229	H	0.987168	-0.443781	-1.106348
H230	H	1.237168	-0.193781	-0.856348
H231	H	1.487168	0.056219	-0.606348
H232	H	1.737168	0.306219	-0.356348
H233	H	0.527154	-0.391151	-0.329352
H234	H	0.777154	-0.141151	-0.079352
H235	H	1.027154	0.108849	0.170648
H236	H	1.277154	0.358849	0.420648
H237	H	1.233272	-0.270739	-1.091605
H238	H	1.483272	-0.020739	-0.841605
H239	H	1.733272	0.229261	-0.591605
H240	H	1.983272	0.479261	-0.341605
H241	H	0.987130	-0.443829	-0.907285
H242	H	1.237130	-0.193829	-0.657285
H243	H	1.487130	0.056171	-0.407285
H244	H	1.737130	0.306171	-0.157285
H245	H	0.527254	-0.232809	-0.553999
H246	H	0.777254	0.017191	-0.303999
H247	H	1.027254	0.267191	-0.053999
H248	H	1.277254	0.517191	0.196001
H249	H	0.619904	-0.482858	-0.458488
H250	H	0.869904	-0.232858	-0.208488
H251	H	1.119904	0.017142	0.041512
H252	H	1.369904	0.267142	0.291512
H253	H	1.230357	-0.275980	-0.918066
H254	H	1.480357	-0.025980	-0.668066
H255	H	1.730357	0.224020	-0.418066
H256	H	1.980357	0.474020	-0.168066
H257	H	0.620157	-0.324425	-0.683281
H258	H	0.870157	-0.074425	-0.433281
H259	H	1.120157	0.175575	-0.183281
H260	H	1.370157	0.425575	0.066719
H261	H	1.160354	-0.197843	-0.922338
H262	H	1.410354	0.052157	-0.672338
H263	H	1.660354	0.302157	-0.422338
H264	H	1.910354	0.552157	-0.172338
H265	H	0.619952	-0.266168	-0.376986
H266	H	0.869952	-0.016168	-0.126986
H267	H	1.119952	0.233832	0.123014
H268	H	1.369952	0.483832	0.373014
H269	H	0.527499	-0.449576	-0.635663
H270	H	0.777499	-0.199576	-0.385663
H271	H	1.027499	0.050424	-0.135663
H272	H	1.277499	0.300424	0.114337
H273	H	1.155179	-0.200682	-1.095864
H274	H	1.405179	0.049318	-0.845864
H275	H	1.655179	0.299318	-0.595864
H276	H	1.905179	0.549318	-0.345864
H277	H	1.198382	-0.903721	-0.553950
H278	H	1.448382	-0.653721	-0.303950
H279	H	1.698382	-0.403721	-0.053950
H280	H	1.948382	-0.153721	0.196050
H281	H	0.981725	-0.903590	-0.635931
H282	H	1.231725	-0.653590	-0.385931
H283	H	1.481725	-0.403590	-0.135931
H284	H	1.731725	-0.153590	0.114069
H285	H	1.039931	-0.903926	-0.329443
H286	H	1.289931	-0.653926	-0.079443
H287	H	1.539931	-0.403926	0.170557
H288	H	1.789931	-0.153926	0.420557
H289	H	0.948310	-0.811091	-0.458772
H290	H	1.198310	-0.561091	-0.208772
H291	H	1.448310	-0.311091	0.041228
H292	H	1.698310	-0.061091	0.291228
