data_functionalizedCrystal
_audit_creation_method	'MofGen! by Chris Wilmer'
_symmetry_space_group_name_H-M	'P1'
_symmetry_Int_Tables_number	1
_symmetry_cell_setting	triclinic
loop_
_symmetry_equiv_pos_as_xyz
  x,y,z
_cell_length_a	10.654550
_cell_length_b	23.532357
_cell_length_c	9.730223
_cell_angle_alpha	89.993164
_cell_angle_beta	89.996251
_cell_angle_gamma	83.656597
loop_
_atom_site_label
_atom_site_type_symbol
_atom_site_fract_x
_atom_site_fract_y
_atom_site_fract_z
O1	O	1.665268	0.079984	-0.114421
O2	O	1.299545	0.087605	-0.114401
O3	O	1.493468	0.000933	-0.114384
O4	O	1.471346	0.166656	-0.114439
O5	O	1.493466	0.000935	0.114196
O6	O	1.299543	0.087607	0.114179
O7	O	1.665266	0.079986	0.114158
Zn8	Zn	1.482404	0.083797	0.150461
Zn9	Zn	1.482407	0.083794	-0.150703
O10	O	1.471343	0.166658	0.114141
C11	C	1.252764	0.087046	-0.000108
C12	C	1.113375	0.085372	-0.000099
C13	C	1.032252	0.136403	-0.000136
C14	C	0.901282	0.134827	-0.000159
C15	C	0.932570	0.031184	-0.000114
C16	C	1.063537	0.032761	-0.000081
C17	C	1.082089	0.189015	-0.000154
C18	C	1.000965	0.240050	-0.000193
C19	C	0.869995	0.238473	-0.000216
C20	C	0.820149	0.185862	-0.000201
C21	C	1.492913	-0.020286	-0.000089
C22	C	1.491250	-0.083516	-0.000076
C23	C	1.480807	-0.475596	-0.124749
C24	C	1.479225	-0.535006	-0.124757
O25	O	1.478366	-0.565729	-0.230723
N26	N	1.478440	-0.564721	-0.000159
C27	C	1.479223	-0.535023	0.124454
O28	O	1.478409	-0.565753	0.230433
C29	C	1.480796	-0.475614	0.124460
C30	C	1.481594	-0.445902	-0.000145
C31	C	1.481604	-0.445885	-0.249344
C32	C	1.483187	-0.386479	-0.249336
C33	C	1.483974	-0.356785	-0.124732
C34	C	1.483177	-0.386497	-0.000137
C35	C	1.481570	-0.445916	0.249072
C36	C	1.483141	-0.386502	0.249067
C37	C	1.483940	-0.356791	0.124462
C38	C	1.485548	-0.297397	0.124475
N39	N	1.486334	-0.267682	-0.000123
C40	C	1.485547	-0.297376	-0.124726
C41	C	1.475919	-0.659786	0.124431
C42	C	1.474355	-0.719194	0.124426
C43	C	1.474355	-0.719173	-0.124785
C44	C	1.475928	-0.659764	-0.124779
C45	C	1.476704	-0.630071	-0.000166
C46	C	1.488874	-0.172620	-0.124699
C47	C	1.490463	-0.113210	-0.124680
C48	C	1.490456	-0.113236	0.124530
C49	C	1.488874	-0.172641	0.124512
C50	C	1.488078	-0.202332	-0.000114
O51	O	1.486403	-0.266636	0.230387
O52	O	1.486345	-0.266638	-0.230687
C53	C	1.712047	0.080545	-0.000138
C54	C	1.851437	0.082219	-0.000156
C55	C	1.471898	0.187877	-0.000156
C56	C	1.473562	0.251107	-0.000178
N57	N	1.482411	0.083799	0.355997
N58	N	1.482410	0.083788	-0.356240
C59	C	1.568302	0.045433	0.427931
C60	C	1.568299	0.045426	0.571814
C61	C	1.396510	0.122155	0.571816
C62	C	1.396509	0.122159	0.427936
C63	C	1.654204	0.007073	0.355992
C64	C	1.740103	-0.031295	0.427926
C65	C	1.740100	-0.031302	0.571809
C66	C	1.654198	0.007059	0.643758
H67	H	0.891974	-0.011650	-0.000125
Cl68	Cl	1.487876	-0.209937	-0.281374
Cl69	Cl	1.473355	-0.756514	-0.281431
Cl70	Cl	1.165527	-0.031394	-0.000032
Cl71	Cl	1.491469	-0.075862	-0.281339
H72	H	0.803946	0.280029	-0.000234
Cl73	Cl	1.484179	-0.349136	-0.405992
Cl74	Cl	1.473376	-0.756540	0.281080
Cl75	Cl	1.848076	-0.079522	0.337479
Cl76	Cl	1.654190	0.007043	0.824641
Cl77	Cl	1.288532	0.170379	0.662267
H78	H	1.488235	-0.196834	0.225975
Cl79	Cl	1.288525	0.170389	0.337503
H80	H	1.041559	0.282884	-0.000194
Cl81	Cl	1.246736	0.191000	-0.000132
Cl82	Cl	1.480616	-0.483204	-0.406011
H83	H	1.476576	-0.635577	-0.226243
Cl84	Cl	0.655498	0.183882	-0.000210
Cl85	Cl	1.476907	-0.622463	0.281103
Cl86	Cl	1.480558	-0.483252	0.405729
H87	H	1.483755	-0.362328	0.350544
H88	H	1.491103	-0.089048	0.225979
H89	H	1.654217	0.007076	0.238835
H90	H	1.810033	-0.062546	0.630376
