data_functionalizedCrystal
_audit_creation_method	'MofGen! by Chris Wilmer'
_symmetry_space_group_name_H-M	'P1'
_symmetry_Int_Tables_number	1
_symmetry_cell_setting	triclinic
loop_
_symmetry_equiv_pos_as_xyz
  x,y,z
_cell_length_a	6.817900
_cell_length_b	16.255699
_cell_length_c	15.301131
_cell_angle_alpha	95.139858
_cell_angle_beta	104.177577
_cell_angle_gamma	103.489404
loop_
_atom_site_label
_atom_site_type_symbol
_atom_site_fract_x
_atom_site_fract_y
_atom_site_fract_z
V1	V	-4.034443	-0.117663	-0.281446
O2	O	-4.021771	0.005065	-0.275780
O3	O	-3.985946	-0.232739	-0.279817
O4	O	-3.989376	-0.116112	-0.404059
O5	O	-4.018318	-0.112370	-0.150678
V6	V	-4.517652	-0.102953	-0.265769
O7	O	-4.296391	-0.149931	-0.315834
O8	O	-4.705902	-0.070685	-0.231380
O9	O	-4.342943	0.012123	-0.267398
O10	O	-4.647722	-0.225680	-0.271434
O11	O	-4.651175	-0.108246	-0.396536
O12	O	-4.339513	-0.104504	-0.143156
C13	C	-3.830816	-0.260784	-0.275453
C14	C	-3.872472	-0.354862	-0.274939
C15	C	-3.835189	-0.112013	-0.433935
C16	C	-3.879624	-0.111506	-0.534174
C17	C	-4.111548	-0.186871	-0.979019
C18	C	-4.069796	-0.187344	-0.884833
C19	C	-4.008355	-0.110052	-0.824666
C20	C	-3.988646	-0.032282	-0.858687
C21	C	-4.030384	-0.031811	-0.952871
C22	C	-3.901659	-0.033271	-0.662380
C23	C	-3.859921	-0.033743	-0.568190
C24	C	-3.941070	-0.188804	-0.594342
C25	C	-3.982808	-0.188333	-0.688526
C26	C	-3.963100	-0.110563	-0.722541
C27	C	-3.782891	-0.577676	-0.269043
C28	C	-3.864550	-0.625147	-0.196382
C29	C	-3.948848	-0.527114	-0.274040
C30	C	-3.941439	-0.647274	-0.345795
C31	C	-4.022612	-0.693501	-0.273176
C32	C	-4.029928	-0.573336	-0.201323
C33	C	-4.106822	-0.595468	-0.350803
C34	C	-4.188599	-0.642914	-0.278127
C35	C	-3.906349	-0.431261	-0.274537
C36	C	-4.065121	-0.789351	-0.272673
C37	C	-4.161415	0.040164	-0.271759
C38	C	-4.098997	0.134241	-0.272279
C39	C	-4.157042	-0.108605	-0.113275
C40	C	-4.091846	-0.109108	-0.013035
H41	H	-4.161583	-0.249812	-1.028002
O42	O	-3.800261	0.041258	-0.509616
C43	C	-3.767595	0.024162	-0.419193
H44	H	-3.860100	-0.043997	-0.419169
H45	H	-3.822837	0.071251	-0.377494
H46	H	-3.593440	0.031409	-0.387799
O47	O	-3.882521	0.042347	-0.695274
C48	C	-3.819310	0.110467	-0.621974
H49	H	-3.864727	0.085928	-0.560267
H50	H	-3.900088	0.162563	-0.642497
H51	H	-3.642005	0.137995	-0.603886
H52	H	-3.610957	-0.549165	-0.265115
O53	O	-4.074202	-0.534976	-0.128504
C54	C	-4.231853	-0.493272	-0.159534
H55	H	-4.232952	-0.478769	-0.231151
H56	H	-4.199114	-0.430867	-0.111495
H57	H	-4.390968	-0.536457	-0.161046
H58	H	-4.014353	0.031512	-0.980565
H59	H	-4.085846	-0.250666	-0.857143
H60	H	-3.762567	-0.638620	-0.131087
H61	H	-3.938606	0.030650	-0.809691
H62	H	-4.360537	-0.671255	-0.281943
O63	O	-4.228167	-0.579406	-0.428781
C64	C	-4.180429	-0.617318	-0.504762
H65	H	-4.015798	-0.626640	-0.482756
H66	H	-4.188218	-0.573887	-0.559323
H67	H	-4.298666	-0.682081	-0.533647
O68	O	-3.897282	-0.685799	-0.418556
C69	C	-3.939394	-0.774795	-0.417559
H70	H	-3.933149	-0.787944	-0.345122
H71	H	-3.817019	-0.800524	-0.442065
H72	H	-4.102062	-0.807882	-0.464683
H73	H	-4.032852	-0.251271	-0.737513
O74	O	-3.960017	-0.264273	-0.561151
C75	C	-3.910044	-0.248121	-0.465122
H76	H	-3.806172	-0.180086	-0.439422
H77	H	-3.823033	-0.295562	-0.435225
H78	H	-4.060513	-0.255655	-0.443067
