data_functionalizedCrystal
_audit_creation_method	'MofGen! by Chris Wilmer'
_symmetry_space_group_name_H-M	'P1'
_symmetry_Int_Tables_number	1
_symmetry_cell_setting	triclinic
loop_
_symmetry_equiv_pos_as_xyz
  x,y,z
_cell_length_a	12.759395
_cell_length_b	18.050588
_cell_length_c	12.759387
_cell_angle_alpha	90.032933
_cell_angle_beta	90.019431
_cell_angle_gamma	90.029406
loop_
_atom_site_label
_atom_site_type_symbol
_atom_site_fract_x
_atom_site_fract_y
_atom_site_fract_z
Zn1	Zn	1.606160	-0.295623	0.593959
Zn2	Zn	1.606005	-0.419832	0.418273
Zn3	Zn	1.430458	-0.295660	0.418299
Zn4	Zn	1.430405	-0.419776	0.593916
O5	O	1.518257	-0.357723	0.506112
O6	O	1.753161	-0.312108	0.570661
O7	O	1.582676	-0.403400	0.271255
O8	O	1.453853	-0.191731	0.441630
O9	O	1.753047	-0.403364	0.441586
O10	O	1.582940	-0.191704	0.570687
O11	O	1.453702	-0.312171	0.271275
O12	O	1.283430	-0.312116	0.441588
O13	O	1.453762	-0.403268	0.740943
O14	O	1.283391	-0.403303	0.570612
O15	O	1.582888	-0.312053	0.740975
O16	O	1.582624	-0.523749	0.441543
O17	O	1.453612	-0.523708	0.570587
C18	C	1.245290	-0.357708	0.506099
C19	C	1.128513	-0.357720	0.506118
C20	C	1.128612	-0.262849	0.640742
C21	C	1.073801	-0.215422	0.708062
C22	C	0.964079	-0.215435	0.708076
C23	C	0.909167	-0.262879	0.640759
C24	C	0.963978	-0.310305	0.573438
C25	C	1.073702	-0.310288	0.573435
C26	C	0.963878	-0.405171	0.438811
C27	C	1.073600	-0.405163	0.438802
C28	C	0.908966	-0.452614	0.371494
C29	C	0.963777	-0.500046	0.304178
C30	C	1.073505	-0.500031	0.304168
C31	C	1.128411	-0.452589	0.371481
C32	C	1.518124	-0.550675	0.506080
C33	C	1.518163	-0.633221	0.506102
C34	C	1.448117	-0.882051	0.576276
C35	C	1.543918	-0.832579	0.602052
C36	C	1.518381	-0.930341	0.506161
C37	C	1.422478	-0.832732	0.480405
C38	C	1.518269	-0.784356	0.506134
C39	C	1.614234	-0.881956	0.531986
C40	C	1.492729	-0.882114	0.410295
C41	C	1.588597	-0.832664	0.436034
C42	C	1.518445	-1.014439	0.506178
C43	C	1.518217	-0.700260	0.506116
C44	C	1.792291	-0.357738	0.506125
C45	C	1.909067	-0.357745	0.506131
C46	C	1.518337	-0.357650	0.780145
C47	C	1.518370	-0.357619	0.896922
C48	C	1.518420	-0.164017	0.506166
C49	C	1.518489	-0.081471	0.506190
C50	C	1.518239	-0.357742	0.233144
C51	C	1.518408	-0.357564	0.116368
C52	C	1.652839	-0.262644	0.896975
C53	C	1.720088	-0.215145	0.951863
C54	C	1.720113	-0.215118	1.061585
C55	C	1.652881	-0.262593	1.116421
C56	C	1.585632	-0.310092	1.061534
C57	C	1.585616	-0.310116	0.951810
C58	C	1.451160	-0.405062	1.061481
C59	C	1.451138	-0.405094	0.951759
C60	C	1.383927	-0.452537	1.116318
C61	C	1.316682	-0.500041	1.061430
C62	C	1.316660	-0.500067	0.951702
C63	C	1.383889	-0.452593	0.896872
H64	H	0.919452	-0.176812	0.762887
C65	C	1.265369	-0.625826	0.917869
C66	C	1.242748	-0.552284	0.891365
H67	H	1.219745	-0.658063	0.880615
H68	H	1.255750	-0.632597	0.991053
H69	H	1.335951	-0.636694	0.899895
H70	H	1.172168	-0.541414	0.909346
H71	H	1.252358	-0.545509	0.818164
C72	C	1.363003	-0.886716	0.274097
C73	C	1.463457	-0.911516	0.300901
H74	H	1.344923	-0.904874	0.206565
H75	H	1.362123	-0.834103	0.273444
H76	H	1.313835	-0.904365	0.324099
H77	H	1.512627	-0.893863	0.250903
H78	H	1.464346	-0.964141	0.301546
C79	C	1.771425	-0.089363	1.095427
C80	C	1.794034	-0.162907	1.121922
H81	H	1.817065	-0.057132	1.132673
H82	H	1.700857	-0.078487	1.113407
H83	H	1.781038	-0.082590	1.022232
H84	H	1.784413	-0.169681	1.195116
H85	H	1.864618	-0.173786	1.103948
C86	C	0.752046	-0.211241	0.714067
C87	C	0.788559	-0.262890	0.640767
H88	H	0.677587	-0.211252	0.714073
H89	H	0.776883	-0.163305	0.696015
H90	H	0.776893	-0.224146	0.781827
H91	H	0.763718	-0.249981	0.573005
H92	H	0.763711	-0.310836	0.658812
H93	H	1.341420	-0.811105	0.458633
H94	H	1.652899	-0.262561	1.205763
C95	C	1.267966	-0.885412	0.630410
C96	C	1.368068	-0.911331	0.656394
H97	H	1.218555	-0.903486	0.679877
H98	H	1.249621	-0.902379	0.562351
H99	H	1.267832	-0.832789	0.631396
H100	H	1.368204	-0.963954	0.655399
H101	H	1.386418	-0.894368	0.724470
H102	H	1.565574	-0.810823	0.683113
H103	H	1.217752	-0.452569	0.371475
H104	H	1.383882	-0.452612	0.807530
C105	C	1.722743	-0.988590	0.561314
C106	C	1.723689	-0.911019	0.561521
H107	H	1.790312	-1.006531	0.579557
H108	H	1.704459	-1.005958	0.493442
H109	H	1.672826	-1.005886	0.610818
H110	H	1.773601	-0.893723	0.512011
H111	H	1.741986	-0.893644	0.629403
H112	H	1.118126	-0.538649	0.249344
C113	C	1.285844	-0.211184	0.714036
C114	C	1.249220	-0.262838	0.640736
H115	H	1.360302	-0.211175	0.714027
H116	H	1.261043	-0.224095	0.781790
H117	H	1.261035	-0.163248	0.695988
H118	H	1.274022	-0.310775	0.658788
H119	H	1.274031	-0.249931	0.572967
H120	H	1.774826	-0.176491	0.907203
C121	C	1.410664	-0.523156	1.273467
C122	C	1.383951	-0.452511	1.236925
H123	H	1.410672	-0.523141	1.347926
H124	H	1.478438	-0.536005	1.248652
H125	H	1.360983	-0.558230	1.248618
H126	H	1.433636	-0.417437	1.261768
H127	H	1.316167	-0.439653	1.261751
C128	C	0.751827	-0.471663	0.471404
C129	C	0.788358	-0.452632	0.371507
H130	H	0.677368	-0.471680	0.471408
H131	H	0.776681	-0.436621	0.521115
H132	H	0.776645	-0.519601	0.489429
H133	H	0.763546	-0.404692	0.353485
H134	H	0.763493	-0.487676	0.321781
C135	C	1.769089	-0.828547	0.383183
C136	C	1.668834	-0.803565	0.355976
H137	H	1.818625	-0.810576	0.333764
H138	H	1.769960	-0.881163	0.383162
H139	H	1.786681	-0.810832	0.451069
H140	H	1.651239	-0.821284	0.288092
H141	H	1.667961	-0.750938	0.355985
H142	H	1.261941	-0.538687	1.106087
H143	H	1.118523	-0.176794	0.762868
H144	H	0.919058	-0.538667	0.249369
H145	H	1.652835	-0.262668	0.807634
