data_functionalizedCrystal
_audit_creation_method	'MofGen! by Chris Wilmer'
_symmetry_space_group_name_H-M	'P1'
_symmetry_Int_Tables_number	1
_symmetry_cell_setting	triclinic
loop_
_symmetry_equiv_pos_as_xyz
  x,y,z
_cell_length_a	23.096457
_cell_length_b	14.395555
_cell_length_c	14.395555
_cell_angle_alpha	60.000749
_cell_angle_beta	89.999254
_cell_angle_gamma	60.001365
loop_
_atom_site_label
_atom_site_type_symbol
_atom_site_fract_x
_atom_site_fract_y
_atom_site_fract_z
Zr1	Zr	0.557784	1.016801	-0.121951
O2	O	0.465340	1.210588	-0.270272
O3	O	0.586121	0.823008	-0.076480
O4	O	0.586125	1.016796	-0.270276
O5	O	0.465335	1.016808	0.076391
O6	O	0.681406	1.016798	-0.270282
O7	O	0.465336	1.016801	-0.076476
O8	O	0.681398	0.670148	0.076383
O9	O	0.465343	1.363458	-0.270274
O10	O	0.669316	0.902723	-0.057094
O11	O	0.598209	0.902726	0.056993
O12	O	0.598214	1.130885	-0.171177
O13	O	0.527107	1.130888	-0.057090
Zr14	Zr	0.709744	1.016817	0.121846
Zr15	Zr	0.709745	1.016806	-0.121960
Zr16	Zr	0.557783	1.016813	0.121855
Zr17	Zr	0.557789	1.260611	-0.121955
Zr18	Zr	0.709740	0.773007	0.121849
O19	O	0.681408	1.210610	0.076375
O20	O	0.681409	1.210594	-0.270285
O21	O	0.465338	1.210604	0.076388
O22	O	0.802188	0.823030	0.270167
O23	O	0.802190	0.823014	-0.076493
O24	O	0.586119	0.823024	0.270180
O25	O	0.802194	1.016810	-0.076496
O26	O	0.681403	1.016823	0.270171
O27	O	0.586123	1.016820	0.270177
O28	O	0.802193	1.016817	0.076371
O29	O	0.586132	1.363461	-0.270282
O30	O	0.681397	0.670157	0.270176
O31	O	0.802186	0.670160	0.270169
O32	O	0.802187	0.670152	0.076376
O33	O	0.465342	1.363466	-0.076482
O34	O	0.586131	1.363470	-0.076489
O35	O	0.669315	0.902733	0.171072
O36	O	0.740422	0.902730	0.056984
O37	O	0.669320	1.130892	-0.057098
O38	O	0.598213	1.130895	0.056989
C39	C	0.633759	0.711841	-0.000048
C40	C	0.633757	0.608337	-0.000046
C41	C	0.594988	0.547747	0.062163
C42	C	0.566891	0.561998	-0.045111
C43	C	0.661837	0.409691	0.107194
C44	C	0.605620	0.624015	-0.107383
C45	C	0.700604	0.471645	0.044999
C46	C	0.672523	0.485942	-0.062338
C47	C	0.443684	1.016804	-0.000041
C48	C	0.379172	1.016802	-0.000038
C49	C	0.385981	0.897707	0.059501
C50	C	0.325366	0.897705	0.059506
C51	C	0.257942	1.016805	-0.000050
C52	C	0.251136	1.135916	-0.059592
C53	C	0.311751	1.135914	-0.059585
N54	N	0.135148	1.105455	-0.096973
N55	N	0.077569	1.105449	-0.096977
C56	C	0.075309	1.016817	-0.000070
N57	N	0.132810	0.928172	0.096839
N58	N	0.190396	0.928175	0.096840
C59	C	0.192211	1.016820	-0.000063
C60	C	0.016394	0.897712	0.059480
C61	C	-0.044224	0.897715	0.059488
C62	C	-0.118454	1.135929	-0.059621
C63	C	-0.057836	1.135922	-0.059618
C64	C	0.009586	1.016810	-0.000070
C65	C	0.823845	1.016814	-0.000064
C66	C	0.888356	1.016816	-0.000068
C67	C	0.633766	1.016795	-0.305016
C68	C	0.633766	1.016791	-0.408518
C69	C	0.633770	1.321777	-0.000057
C70	C	0.633772	1.425281	-0.000059
C71	C	0.672538	0.892386	-0.406904
C72	C	0.605678	0.954575	-0.499923
C73	C	0.700610	0.954607	-0.499928
C74	C	0.566867	1.078980	-0.500174
C75	C	0.661847	1.078994	-0.500164
C76	C	0.594947	1.141274	-0.593200
C77	C	0.633763	1.016823	0.304911
C78	C	0.633762	1.016827	0.408413
C79	C	0.823839	0.711846	-0.000059
C80	C	0.888348	0.608344	-0.000061
C81	C	0.633757	0.711855	0.304916
C82	C	0.633755	0.608356	0.408419
C83	C	0.823837	0.711860	0.304904
C84	C	0.888347	0.608363	0.408404
C85	C	0.443691	1.321758	-0.305010
C86	C	0.379182	1.425255	-0.408509
C87	C	0.443690	1.321772	-0.000046
C88	C	0.379180	1.425274	-0.000044
C89	C	0.633771	1.321763	-0.305021
C90	C	0.633774	1.425262	-0.408524
C91	C	0.881526	0.559735	-0.059621
C92	C	0.942134	0.462498	-0.059646
C93	C	1.009563	0.413865	-0.000104
C94	C	1.016384	0.462484	0.059457
C95	C	0.955777	0.559726	0.059475
C96	C	0.955764	0.559758	0.397456
C97	C	1.016383	0.462525	0.494696
C98	C	1.009583	0.413892	0.602882
C99	C	0.942158	0.462507	0.613828
C100	C	0.881541	0.559744	0.516589
C101	C	0.311764	1.473872	-0.397561
C102	C	0.251145	1.571135	-0.494801
C103	C	0.257946	1.619773	-0.602987
C104	C	0.325370	1.571152	-0.613933
C105	C	0.385988	1.473898	-0.516694
C106	C	0.386002	1.473893	0.059505
C107	C	0.325395	1.571157	0.059503
C108	C	0.257965	1.619794	-0.000042
C109	C	0.251144	1.571170	-0.059598
C110	C	0.311751	1.473915	-0.059602
C111	C	0.594982	0.547770	0.406808
C112	C	0.661842	0.409675	0.499824
C113	C	0.566913	0.562005	0.499834
C114	C	0.700655	0.471561	0.500072
C115	C	0.605677	0.623965	0.500068
C116	C	0.672578	0.485879	0.593101
H117	H	0.510365	0.599180	-0.083222
C118	C	0.550594	1.283491	-0.700777
H119	H	0.503131	1.327469	-0.701442
H120	H	0.570132	1.327998	-0.700874
H121	H	0.551144	1.282736	-0.766388
C122	C	0.176975	1.266925	-0.125101
H123	H	0.181603	1.337857	-0.160553
H124	H	0.151786	1.271882	-0.181458
H125	H	0.151786	1.271872	-0.073691
C126	C	0.550640	0.584550	0.133116
H127	H	0.503151	0.617524	0.100922
H128	H	0.570116	0.508871	0.208995
H129	H	0.551284	0.649989	0.133178
H130	H	0.757117	0.434481	0.083137
H131	H	0.208621	1.698986	-0.000029
C132	C	0.807385	0.613185	0.528646
H133	H	0.812023	0.570278	0.607006
H134	H	0.782184	0.704999	0.493190
H135	H	0.782202	0.597217	0.493199
C136	C	0.490548	0.612246	0.501072
H137	H	0.486627	0.611821	0.566958
H138	H	0.458557	0.699213	0.434987
H139	H	0.479355	0.556677	0.502051
H140	H	0.581812	0.715576	-0.198123
C141	C	0.573566	0.747777	0.498741
H142	H	0.526045	0.780680	0.497745
H143	H	0.600626	0.726232	0.564800
H144	H	0.574200	0.812823	0.432834
H145	H	0.071292	0.800724	0.107991
H146	H	0.685579	0.318087	0.197891
C147	C	0.807360	0.613222	-0.125124
H148	H	0.772235	0.678093	-0.116585
H149	H	0.802045	0.651163	-0.203470
H150	H	0.802043	0.543400	-0.095713
H151	H	0.757211	0.434188	0.499245
H152	H	0.330910	0.800721	0.107991
H153	H	0.705307	0.458997	-0.115025
H154	H	0.208581	1.698964	-0.682156
C155	C	0.304270	1.420402	-0.278569
H156	H	0.255433	1.463310	-0.285992
H157	H	0.326364	1.328590	-0.238146
H158	H	0.326377	1.436354	-0.238168
C159	C	0.934618	0.409021	-0.125151
H160	H	0.885779	0.451900	-0.160588
H161	H	0.956710	0.424963	-0.181521
H162	H	0.956720	0.317202	-0.073743
H163	H	0.196235	1.610785	-0.108078
C164	C	0.176987	1.624589	-0.482741
H165	H	0.181625	1.581671	-0.404381
H166	H	0.151796	1.716399	-0.518182
H167	H	0.151797	1.608646	-0.518203
H168	H	0.440875	0.800717	0.107983
H169	H	0.306187	1.434331	-0.108091
C170	C	0.460145	1.420378	-0.528745
H171	H	0.495279	1.355484	-0.455345
H172	H	0.465429	1.382457	-0.569161
H173	H	0.465481	1.490176	-0.569156
C174	C	0.716929	0.449383	0.700668
H175	H	0.687706	0.467203	0.744242
H176	H	0.754716	0.358605	0.744831
H177	H	0.735716	0.499852	0.679286
H178	H	1.058908	0.334683	-0.000126
C179	C	0.304265	1.266920	-0.124901
H180	H	0.350021	1.249861	-0.116308
H181	H	0.279072	1.316028	-0.203276
H182	H	0.279092	1.315688	-0.095343
H183	H	-0.038674	0.800730	0.107979
C184	C	0.332906	1.624630	0.125016
H185	H	0.287157	1.689532	0.116483
H186	H	0.358088	1.554816	0.203361
H187	H	0.358101	1.662556	0.095598
C188	C	-0.065320	1.266924	-0.124834
H189	H	-0.019564	1.249866	-0.116206
H190	H	-0.090517	1.316124	-0.203224
H191	H	-0.090491	1.315598	-0.095199
H192	H	0.961342	0.599291	0.107982
C193	C	0.963259	0.613241	0.278464
H194	H	1.012096	0.570366	0.285887
H195	H	0.941161	0.597296	0.238048
H196	H	0.941155	0.705060	0.238055
C197	C	0.332845	1.624645	-0.732938
H198	H	0.381678	1.581771	-0.725544
H199	H	0.310732	1.608704	-0.773336
H200	H	0.310744	1.716464	-0.773349
H201	H	-0.173351	1.232902	-0.108114
C202	C	0.460167	1.420409	0.125011
H203	H	0.455539	1.463315	0.160463
H204	H	0.485354	1.328599	0.181370
H205	H	0.485357	1.436350	0.073603
H206	H	0.705270	0.787194	-0.327144
C207	C	1.076266	0.306923	0.709834
H208	H	1.117390	0.284937	0.687809
H209	H	1.076280	0.338786	0.753838
H210	H	1.076274	0.231034	0.753826
H211	H	1.071293	0.422872	0.107934
H212	H	0.562246	0.574850	0.327051
H213	H	0.581922	0.901996	-0.500852
C214	C	1.090541	0.409054	0.482635
H215	H	1.085904	0.451932	0.404275
H216	H	1.115737	0.425001	0.518077
H217	H	1.115728	0.317234	0.518098
H218	H	0.510310	1.131519	-0.499349
C219	C	0.693931	0.285899	0.501089
H220	H	0.666326	0.307158	0.435722
H221	H	0.741150	0.253925	0.500633
H222	H	0.694096	0.220261	0.567687
H223	H	0.685619	1.131527	-0.499191
C224	C	0.776979	0.883564	-0.501146
H225	H	0.804461	0.795181	-0.435760
H226	H	0.776411	0.884773	-0.567732
H227	H	0.797187	0.926899	-0.500667
H228	H	0.936632	0.422896	0.701926
