data_functionalizedCrystal
_audit_creation_method	'MofGen! by Chris Wilmer'
_symmetry_space_group_name_H-M	'P1'
_symmetry_Int_Tables_number	1
_symmetry_cell_setting	triclinic
loop_
_symmetry_equiv_pos_as_xyz
  x,y,z
_cell_length_a	19.188905
_cell_length_b	23.532407
_cell_length_c	22.610064
_cell_angle_alpha	89.993588
_cell_angle_beta	90.015326
_cell_angle_gamma	97.008346
loop_
_atom_site_label
_atom_site_type_symbol
_atom_site_fract_x
_atom_site_fract_y
_atom_site_fract_z
O1	O	0.925934	-0.071025	0.049295
O2	O	0.722590	-0.080612	0.049277
O3	O	0.830394	0.007101	0.049267
O4	O	0.818130	-0.158738	0.049305
O5	O	0.830375	0.007088	-0.049102
O6	O	0.722571	-0.080625	-0.049092
O7	O	0.925915	-0.071038	-0.049074
Zn8	Zn	0.824240	-0.075833	-0.064701
Zn9	Zn	0.824265	-0.075817	0.064904
O10	O	0.818111	-0.158750	-0.049064
C11	C	0.696570	-0.080310	0.000090
C12	C	0.619067	-0.079385	0.000082
C13	C	0.582688	-0.078934	0.053704
C14	C	0.509867	-0.078059	0.053711
C15	C	0.473431	-0.077623	0.000093
C16	C	0.509819	-0.078078	-0.053537
C17	C	0.582637	-0.078959	-0.053542
N18	N	0.364510	-0.043836	-0.039818
N19	N	0.295336	-0.042998	-0.039809
C20	C	0.254032	-0.074970	0.000107
N21	N	0.284517	-0.107805	0.040022
N22	N	0.353698	-0.108641	0.040015
C23	C	0.394471	-0.076668	0.000093
C24	C	0.138692	-0.073571	0.053741
C25	C	0.065869	-0.072699	0.053746
C26	C	0.065823	-0.072712	-0.053504
C27	C	0.138644	-0.073590	-0.053507
C28	C	0.175074	-0.074016	0.000117
C29	C	0.830072	0.028311	0.000079
C30	C	0.829133	0.091530	0.000068
C31	C	0.951935	-0.071340	0.000115
C32	C	1.029438	-0.072265	0.000127
N33	N	0.824228	-0.075845	-0.153154
C34	C	0.761465	0.357836	0.000089
C35	C	0.762337	0.298434	0.000086
O36	O	0.708657	0.261799	0.000101
N37	N	0.826426	0.275676	0.000086
C38	C	0.889648	0.312324	0.000095
O39	O	0.944241	0.287513	0.000095
C40	C	0.888775	0.371725	0.000101
C41	C	0.824681	0.394479	0.000095
C42	C	0.697376	0.380591	0.000083
C43	C	0.696504	0.439989	0.000085
C44	C	0.759721	0.476632	0.000091
C45	C	0.823809	0.453877	0.000096
C46	C	0.951995	0.408372	0.000114
C47	C	0.951117	0.467776	0.000121
C48	C	0.887023	0.490530	0.000115
C49	C	0.886154	0.549918	0.000104
N50	N	0.822064	0.572676	0.000104
C51	C	0.758848	0.536033	0.000098
C52	C	0.891476	0.187578	0.000082
C53	C	0.892350	0.128178	0.000071
C54	C	0.765039	0.114292	0.000064
C55	C	0.764166	0.173693	0.000070
C56	C	0.827387	0.210336	0.000082
C57	C	0.757022	0.660773	0.000100
C58	C	0.756155	0.720177	0.000099
C59	C	0.883466	0.734058	0.000109
C60	C	0.884333	0.674659	0.000107
C61	C	0.821105	0.638018	0.000104
O62	O	0.939806	0.586588	0.000091
O63	O	0.704264	0.560853	0.000105
C64	C	0.818433	0.820039	0.000117
C65	C	0.819372	0.756820	0.000105
C66	C	0.872003	-0.036983	-0.561799
C67	C	0.872006	-0.036979	-0.623719
O68	O	0.912596	-0.003947	-0.655742
N69	N	0.824265	-0.075805	-0.654691
C70	C	0.776511	-0.114633	-0.623739
O71	O	0.735903	-0.147656	-0.655769
C72	C	0.776505	-0.114634	-0.561820
C73	C	0.824255	-0.075810	-0.530852
C74	C	0.919748	0.001838	-0.530831
C75	C	0.919745	0.001833	-0.468915
C76	C	0.871997	-0.036993	-0.437968
C77	C	0.824252	-0.075815	-0.468936
C78	C	0.728749	-0.153459	-0.530870
C79	C	0.728746	-0.153456	-0.468947
C80	C	0.776496	-0.114632	-0.437979
C81	C	0.776501	-0.114646	-0.376073
N82	N	0.824242	-0.075821	-0.345102
C83	C	0.871991	-0.036994	-0.376049
C84	C	0.776528	-0.114627	-0.753773
C85	C	0.776537	-0.114629	-0.815690
C86	C	0.872031	-0.036975	-0.815666
C87	C	0.872025	-0.036976	-0.753747
C88	C	0.824269	-0.075802	-0.722801
C89	C	0.871981	-0.037008	-0.246022
C90	C	0.871976	-0.037018	-0.184101
C91	C	0.776480	-0.114670	-0.184130
C92	C	0.776487	-0.114663	-0.246046
C93	C	0.824240	-0.075827	-0.276990
O94	O	0.735929	-0.147660	-0.344012
O95	O	0.912586	-0.003972	-0.344012
N96	N	0.824283	-0.075801	0.153357
H97	H	0.612257	-0.079327	-0.097209
H98	H	0.737641	-0.146249	-0.728579
O99	O	0.918507	0.000689	-0.845709
C100	C	0.987558	-0.008411	-0.830554
H101	H	0.987586	-0.054006	-0.813525
H102	H	1.008286	0.023202	-0.794614
C103	C	1.034915	0.056540	-0.906466
C104	C	1.034950	0.000536	-0.885556
H105	H	1.064150	0.062061	-0.940392
H106	H	0.988394	0.062672	-0.916675
H107	H	1.052187	0.082877	-0.876511
H108	H	1.017670	-0.025799	-0.915508
H109	H	1.081469	-0.005601	-0.875353
H110	H	1.004187	0.389856	0.000119
O111	O	0.634262	0.462116	-0.000017
C112	C	0.629931	0.496082	-0.050950
H113	H	0.666305	0.482134	-0.086563
H114	H	0.646367	0.542965	-0.039426
C115	C	0.509184	0.505825	-0.030306
C116	C	0.553855	0.488691	-0.074049
H117	H	0.462257	0.501269	-0.044553
H118	H	0.512102	0.482944	0.004010
H119	H	0.522890	0.544894	-0.020706
H120	H	0.540154	0.449621	-0.083642
H121	H	0.550932	0.511565	-0.108367
O122	O	0.030427	-0.072185	-0.105576
C123	C	-0.003448	-0.022370	-0.108785
H124	H	0.024281	0.011834	-0.078361
H125	H	-0.060499	-0.032849	-0.094376
C126	C	-0.034901	-0.042009	-0.210219
C127	C	-0.000839	0.000002	-0.172856
H128	H	-0.033295	-0.028210	-0.249742
H129	H	-0.012081	-0.075571	-0.208057
H130	H	-0.082440	-0.050738	-0.198205
H131	H	0.046701	0.008725	-0.184866
H132	H	-0.023651	0.033567	-0.175022
O133	O	0.474532	-0.077679	-0.105674
C134	C	0.522264	-0.078251	-0.153007
H135	H	0.571157	-0.096905	-0.137287
H136	H	0.537656	-0.032667	-0.169505
C137	C	0.427513	-0.092341	-0.222965
C138	C	0.487562	-0.115257	-0.203659
H139	H	0.406107	-0.115165	-0.254212
H140	H	0.395354	-0.091954	-0.191077
H141	H	0.440348	-0.054355	-0.236710
H142	H	0.474725	-0.153239	-0.189908
H143	H	0.519717	-0.115651	-0.235546
O144	O	0.618024	-0.079454	0.105809
C145	C	0.591967	-0.128538	0.138450
H146	H	0.566164	-0.162768	0.107084
H147	H	0.551579	-0.116872	0.171883
C148	C	0.684612	-0.109635	0.209838
C149	C	0.652925	-0.151678	0.171313
H150	H	0.722212	-0.123907	0.230112
H151	H	0.702165	-0.076564	0.187849
H152	H	0.650948	-0.099916	0.237693
H153	H	0.686586	-0.161390	0.143455
H154	H	0.635378	-0.184750	0.193299
O155	O	0.918339	0.000793	-0.276012
C156	C	0.907372	0.057145	-0.260894
H157	H	0.880452	0.057012	-0.215945
H158	H	0.872749	0.074691	-0.295753
C159	C	1.011591	0.095344	-0.313213
C160	C	0.978533	0.095181	-0.258005
H161	H	1.055486	0.118807	-0.311434
H162	H	1.018979	0.057379	-0.323401
H163	H	0.982731	0.109964	-0.342257
H164	H	1.007389	0.080554	-0.228964
H165	H	0.971152	0.133144	-0.247812
O166	O	0.173971	-0.074020	0.105881
C167	C	0.126243	-0.073428	0.153213
H168	H	0.071308	-0.090826	0.137499
H169	H	0.126158	-0.027655	0.169698
C170	C	0.215899	-0.089743	0.223177
C171	C	0.148429	-0.111117	0.203877
H172	H	0.229586	-0.112989	0.254430
H173	H	0.248056	-0.090140	0.191289
H174	H	0.215820	-0.051599	0.236910
H175	H	0.148512	-0.149257	0.190137
H176	H	0.116273	-0.110727	0.235764
H177	H	0.958630	0.033458	-0.556023
O178	O	0.952940	0.223113	0.000163
C179	C	0.991881	0.212820	0.051116
H180	H	0.974411	0.167715	0.068098
H181	H	0.982582	0.245285	0.086793
C182	C	1.092035	0.274047	0.014784
C183	C	1.070582	0.218647	0.035639
H184	H	1.140582	0.277644	0.005239
H185	H	1.065799	0.280984	-0.019543
H186	H	1.084281	0.301096	0.044519
H187	H	1.078329	0.191600	0.005902
H188	H	1.096822	0.211706	0.069961
O189	O	0.730002	-0.152361	-0.154128
C190	C	0.660956	-0.143232	-0.169264
H191	H	0.661198	-0.121280	-0.214225
H192	H	0.639568	-0.114924	-0.134425
C193	C	0.613798	-0.228113	-0.116905
C194	C	0.614095	-0.201156	-0.172129
H195	H	0.584890	-0.263842	-0.118669
H196	H	0.660316	-0.234262	-0.106705
H197	H	0.595977	-0.204517	-0.087878
H198	H	0.631924	-0.224749	-0.201153
H199	H	0.567579	-0.195012	-0.182333
H200	H	0.689867	-0.185073	-0.556076
H201	H	0.036249	-0.072335	0.097413
H202	H	0.480240	-0.077692	0.097379
O203	O	0.918336	0.000833	-0.723711
C204	C	0.907369	0.057174	-0.738894
H205	H	0.851466	0.057315	-0.755918
H206	H	0.946169	0.073970	-0.774844
C207	C	0.987156	0.095669	-0.663006
C208	C	0.918492	0.095842	-0.683911
H209	H	0.994020	0.119522	-0.629092
H210	H	0.994546	0.057711	-0.652778
H211	H	1.019481	0.109664	-0.692970
H212	H	0.886169	0.081841	-0.653950
H213	H	0.911096	0.133799	-0.694132
H214	H	0.936523	0.656132	0.000103
O215	O	0.173885	-0.073995	-0.105650
C216	C	0.126111	-0.073438	-0.152975
H217	H	0.077229	-0.054782	-0.137255
H218	H	0.110707	-0.119025	-0.169452
C219	C	0.220800	-0.059361	-0.222954
C220	C	0.160765	-0.036443	-0.203648
H221	H	0.242177	-0.036543	-0.254213
H222	H	0.252987	-0.059738	-0.191071
H223	H	0.207955	-0.097350	-0.236681
H224	H	0.173612	0.001543	-0.189914
H225	H	0.128582	-0.036058	-0.235530
H226	H	0.703961	0.738700	0.000091
O227	O	1.012596	0.503289	0.000105
C228	C	1.069347	0.470462	0.000125
H229	H	1.051301	0.426086	-0.018503
H230	H	1.089017	0.466272	0.047320
C231	C	1.151307	0.554711	-0.015564
C232	C	1.129145	0.500210	-0.038448
H233	H	1.188195	0.573061	-0.039355
H234	H	1.113074	0.576828	-0.015576
H235	H	1.167694	0.551212	0.023765
H236	H	1.112750	0.503710	-0.077773
H237	H	1.167377	0.478094	-0.038444
H238	H	0.705535	0.630946	0.000098
H239	H	0.711975	0.192215	0.000063
O240	O	0.944808	0.769740	0.000142
C241	C	0.930286	0.827046	0.000130
H242	H	0.875462	0.829181	0.018746
H243	H	0.933048	0.844240	-0.047061
C244	C	1.052087	0.860911	0.015853
C245	C	0.984753	0.863534	0.038722
H246	H	1.085686	0.883419	0.039656
H247	H	1.061871	0.822303	0.015859
H248	H	1.054379	0.875238	-0.023472
H249	H	0.982459	0.849200	0.078044
H250	H	0.974969	0.902140	0.038724
O251	O	0.918226	0.000785	-0.153991
C252	C	0.881009	0.035844	-0.118251
H253	H	0.826256	0.012988	-0.108948
H254	H	0.876465	0.077877	-0.142183
C255	C	0.987703	0.076306	-0.070872
C256	C	0.920457	0.048233	-0.059442
H257	H	1.012038	0.083951	-0.034597
H258	H	1.012778	0.052689	-0.094952
H259	H	0.983907	0.111331	-0.090817
H260	H	0.924254	0.013206	-0.039504
H261	H	0.895384	0.071845	-0.035357
H262	H	0.645895	0.350761	0.000080
H263	H	0.713564	0.084446	0.000058
O264	O	0.966150	0.039606	-0.438929
C265	C	1.008299	0.073863	-0.479532
H266	H	0.979677	0.074440	-0.523676
H267	H	1.060037	0.055482	-0.486102
C268	C	1.058268	0.134628	-0.401159
C269	C	1.023111	0.135339	-0.455377
H270	H	1.067408	0.172548	-0.386259
H271	H	1.029874	0.111547	-0.373804
H272	H	1.101379	0.119307	-0.406642
H273	H	0.979997	0.150653	-0.449892
H274	H	1.051498	0.158424	-0.482731
O275	O	0.682331	-0.191230	-0.438978
C276	C	0.640180	-0.225482	-0.479595
H277	H	0.668805	-0.226061	-0.523724
H278	H	0.588446	-0.207095	-0.486195
C279	C	0.590196	-0.286243	-0.401234
C280	C	0.625357	-0.286958	-0.455433
H281	H	0.581049	-0.324164	-0.386329
H282	H	0.618592	-0.263165	-0.373869
H283	H	0.547089	-0.270918	-0.406741
H284	H	0.668467	-0.302276	-0.449924
H285	H	0.596968	-0.310040	-0.482796
H286	H	0.944541	0.109658	0.000067
H287	H	0.737662	-0.146250	-0.840901
H288	H	0.737612	-0.146282	-0.271261
