data_functionalizedCrystal
_audit_creation_method	'MofGen! by Chris Wilmer'
_symmetry_space_group_name_H-M	'P1'
_symmetry_Int_Tables_number	1
_symmetry_cell_setting	triclinic
loop_
_symmetry_equiv_pos_as_xyz
  x,y,z
_cell_length_a	8.597340
_cell_length_b	14.519709
_cell_length_c	12.996460
_cell_angle_alpha	89.998766
_cell_angle_beta	97.695834
_cell_angle_gamma	84.511855
loop_
_atom_site_label
_atom_site_type_symbol
_atom_site_fract_x
_atom_site_fract_y
_atom_site_fract_z
O1	O	2.082780	0.137656	0.099084
O2	O	1.625887	0.148214	0.058575
O3	O	1.866448	0.008794	0.079913
O4	O	1.842220	0.277076	0.077746
O5	O	1.866417	0.008802	0.251044
O6	O	1.625856	0.148222	0.229706
O7	O	2.082749	0.137664	0.270215
Cu8	Cu	1.854300	0.142944	0.265586
Cu9	Cu	1.854337	0.142934	0.063204
O10	O	1.842189	0.277084	0.248877
C11	C	1.567398	0.147083	0.138956
C12	C	1.393166	0.143692	0.123509
C13	C	1.865303	-0.025571	0.165379
C14	C	1.861919	-0.127979	0.165079
C15	C	1.849463	-0.502976	0.163948
C16	C	1.852922	-0.398640	0.164262
C17	C	1.855691	-0.315481	0.164514
C18	C	1.859151	-0.211138	0.164827
C19	C	2.141238	0.138794	0.189832
C20	C	2.315471	0.142186	0.205273
C21	C	1.843334	0.311449	0.163409
C22	C	1.846717	0.413857	0.163702
N23	N	1.854286	0.142950	0.407932
N24	N	1.854363	0.142921	-0.079141
C25	C	1.854293	0.142952	0.501039
C26	C	1.854307	0.142946	0.617845
C27	C	1.854327	0.142936	0.710945
C28	C	1.854344	0.142931	0.827759
H29	H	1.326383	0.142387	0.041680
H30	H	1.382247	0.143484	0.287096
