data_functionalizedCrystal
_audit_creation_method	'MofGen! by Chris Wilmer'
_symmetry_space_group_name_H-M	'P1'
_symmetry_Int_Tables_number	1
_symmetry_cell_setting	triclinic
loop_
_symmetry_equiv_pos_as_xyz
  x,y,z
_cell_length_a	19.288864
_cell_length_b	15.455313
_cell_length_c	19.288859
_cell_angle_alpha	87.344042
_cell_angle_beta	83.134986
_cell_angle_gamma	92.685809
loop_
_atom_site_label
_atom_site_type_symbol
_atom_site_fract_x
_atom_site_fract_y
_atom_site_fract_z
O1	O	0.924412	0.072409	0.083588
O2	O	0.722149	0.072350	0.095280
O3	O	0.829127	0.072376	-0.011696
O4	O	0.817434	0.072383	0.190565
O5	O	0.823010	-0.071887	-0.005604
O6	O	0.716031	-0.071914	0.101372
O7	O	0.918295	-0.071854	0.089681
Cu8	Cu	0.816605	-0.085056	0.096083
Cu9	Cu	0.823839	0.085552	0.088878
O10	O	0.811317	-0.071881	0.196657
C11	C	0.693213	0.000211	0.097950
C12	C	0.616109	0.000188	0.096822
N13	N	0.811521	-0.205053	0.101150
C14	C	0.571412	0.000204	0.159589
C15	C	0.498965	0.000213	0.158528
C16	C	0.471220	0.000224	0.094696
C17	C	0.515926	0.000204	0.031920
C18	C	0.588371	0.000185	0.032983
C19	C	0.365103	0.050794	0.042381
C20	C	0.292660	0.050817	0.041320
C21	C	0.247776	0.000277	0.091414
C22	C	0.275344	-0.050276	0.142580
C23	C	0.347789	-0.050295	0.143643
C24	C	0.392666	0.000244	0.093536
C25	C	0.124524	0.000302	0.153035
C26	C	0.052076	0.000306	0.151971
C27	C	0.069039	0.000305	0.025361
C28	C	0.141485	0.000292	0.026427
C29	C	0.169223	0.000295	0.090265
C30	C	0.856985	-0.250436	0.055719
C31	C	0.853147	-0.341245	0.059557
C32	C	0.803848	-0.386669	0.108830
C33	C	0.758380	-0.341280	0.154263
C34	C	0.762215	-0.250473	0.150421
C35	C	0.787294	-0.658255	0.125396
C36	C	0.783464	-0.749068	0.129236
C37	C	0.878231	-0.749027	0.034529
C38	C	0.882065	-0.658218	0.030694
C39	C	0.836594	-0.612837	0.076124
N40	N	0.799925	-0.479490	0.112756
N41	N	0.840514	-0.520017	0.072194
C42	C	0.947230	0.000287	0.087010
C43	C	1.024335	0.000316	0.088138
C44	C	0.825693	0.000245	-0.034527
C45	C	0.824566	0.000246	-0.111631
N46	N	0.828928	0.205549	0.083805
C47	C	0.879710	0.000285	-0.675673
C48	C	0.880775	0.000278	-0.603226
C49	C	0.818005	0.000260	-0.558519
C50	C	0.754165	0.000227	-0.586262
C51	C	0.753101	0.000226	-0.658708
C52	C	0.773335	0.050786	-0.439379
C53	C	0.774401	0.050793	-0.366935
C54	C	0.821283	0.000260	-0.335073
C55	C	0.867110	-0.050269	-0.375665
C56	C	0.866047	-0.050270	-0.448110
C57	C	0.819152	0.000261	-0.479963
C58	C	0.886274	0.000279	-0.228782
C59	C	0.887336	0.000266	-0.156333
C60	C	0.760724	0.000223	-0.139371
C61	C	0.759663	0.000228	-0.211818
C62	C	0.822441	0.000259	-0.256520
C63	C	0.814751	0.000253	0.219487
C64	C	0.815878	0.000257	0.296591
H65	H	0.462566	0.000224	0.209643
H66	H	0.147108	0.000291	0.205017
O67	O	0.743196	-0.614222	0.169629
C68	C	0.753324	-0.636416	0.239296
H69	H	0.807881	-0.661337	0.240544
H70	H	0.747740	-0.576701	0.271656
H71	H	0.712540	-0.689152	0.262023
H72	H	0.718236	-0.378269	0.194380
H73	H	0.593991	0.000207	0.211572
H74	H	0.743317	-0.786048	0.169363
H75	H	0.905281	-0.091424	-0.349723
O76	O	0.940752	0.000267	-0.718994
C77	C	0.997322	0.000310	-0.678972
H78	H	0.978363	-0.027003	-0.623691
H79	H	1.039514	-0.041561	-0.704065
H80	H	1.019833	0.069528	-0.676799
H81	H	0.401642	0.091955	0.001587
O82	O	0.904896	-0.206449	0.007794
C83	C	0.944210	-0.265983	-0.031470
H84	H	0.913001	-0.330729	-0.029442
H85	H	0.956092	-0.239752	-0.088079
H86	H	0.995327	-0.275607	-0.008640
H87	H	0.915251	-0.785985	-0.002459
O88	O	0.374455	-0.099483	0.193367
C89	C	0.319312	-0.144073	0.237368
H90	H	0.271204	-0.150165	0.208524
H91	H	0.335723	-0.211517	0.252763
H92	H	0.306418	-0.106598	0.286395
H93	H	0.737090	0.091941	-0.333891
O94	O	0.897336	-0.385430	0.015530
C95	C	0.937854	-0.437909	0.054847
H96	H	0.909437	-0.451514	0.109845
H97	H	0.946237	-0.501767	0.028531
H98	H	0.990651	-0.402886	0.057959
O99	O	0.489064	0.000334	-0.030135
C100	C	0.515109	0.075054	-0.071535
H101	H	0.566364	0.099947	-0.053815
H102	H	0.524626	0.058248	-0.128700
H103	H	0.475400	0.127385	-0.065567
H104	H	0.725192	-0.213523	0.187414
H105	H	0.624764	0.000173	-0.018131
O106	O	0.942746	0.000427	-0.576195
C107	C	0.950309	0.075159	-0.537966
H108	H	0.896556	0.100040	-0.520806
H109	H	0.977134	0.058374	-0.489899
H110	H	0.983353	0.127492	-0.572278
O111	O	0.910459	-0.099403	-0.487604
C112	C	0.871532	-0.159688	-0.522163
H113	H	0.817428	-0.134903	-0.526687
H114	H	0.899637	-0.168191	-0.576665
H115	H	0.866052	-0.224716	-0.491084
H116	H	0.939318	0.000283	-0.133753
O117	O	0.929972	-0.614230	-0.017234
C118	C	0.969290	-0.673760	-0.056499
H119	H	0.938083	-0.738508	-0.054473
H120	H	0.981172	-0.647526	-0.113107
H121	H	1.020407	-0.683382	-0.033668
O122	O	0.947314	0.000263	-0.272109
C123	C	1.003886	0.000300	-0.232090
H124	H	0.984928	-0.027022	-0.176810
H125	H	1.046078	-0.041566	-0.257189
H126	H	1.026396	0.069517	-0.229909
H127	H	0.709615	0.000201	-0.102970
H128	H	0.238801	-0.091432	0.183371
O129	O	0.691103	0.000052	-0.685681
C130	C	0.683542	-0.074650	-0.723945
H131	H	0.717571	-0.126863	-0.704725
H132	H	0.626478	-0.099746	-0.716211
H133	H	0.700462	-0.057748	-0.781841
O134	O	0.008590	0.000438	0.212898
C135	C	-0.030616	0.075174	0.212916
H136	H	-0.033044	0.100076	0.156742
H137	H	-0.085866	0.058385	0.239674
H138	H	-0.004644	0.127493	0.242349
O139	O	0.041982	0.000356	-0.036588
C140	C	-0.031546	0.000351	-0.024068
H141	H	-0.047562	0.027664	0.029038
H142	H	-0.051873	0.042242	-0.066668
H143	H	-0.054661	-0.068854	-0.024450
H144	H	0.707685	0.000211	-0.234401
H145	H	0.177878	0.000284	-0.024686
H146	H	0.735149	0.091930	-0.465313
H147	H	0.703057	0.000209	-0.549857
H148	H	0.270220	0.091984	-0.000340
