data_functionalizedCrystal
_audit_creation_method	'MofGen! by Chris Wilmer'
_symmetry_space_group_name_H-M	'P1'
_symmetry_Int_Tables_number	1
_symmetry_cell_setting	triclinic
loop_
_symmetry_equiv_pos_as_xyz
  x,y,z
_cell_length_a	16.109301
_cell_length_b	14.472310
_cell_length_c	15.995350
_cell_angle_alpha	89.998838
_cell_angle_beta	83.476979
_cell_angle_gamma	90.010662
loop_
_atom_site_label
_atom_site_type_symbol
_atom_site_fract_x
_atom_site_fract_y
_atom_site_fract_z
O1	O	1.103172	0.076786	0.107620
O2	O	1.603172	0.576786	0.607620
O3	O	0.861113	0.076798	0.121014
O4	O	1.361113	0.576798	0.621014
O5	O	0.988759	0.076791	-0.007572
O6	O	1.488759	0.576791	0.492428
O7	O	0.975526	0.076793	0.236207
O8	O	1.475526	0.576793	0.736207
O9	O	0.988726	-0.076891	-0.007565
O10	O	1.488726	0.423109	0.492435
O11	O	0.861080	-0.076884	0.121021
O12	O	1.361080	0.423116	0.621021
O13	O	1.103139	-0.076896	0.107628
O14	O	1.603139	0.423104	0.607628
Cu15	Cu	0.982107	-0.090923	0.114325
Cu16	Cu	1.482107	0.409077	0.614325
Cu17	Cu	0.982145	0.090824	0.114316
Cu18	Cu	1.482145	0.590824	0.614316
O19	O	0.975493	-0.076889	0.236214
O20	O	1.475493	0.423111	0.736214
C21	C	0.830122	-0.000041	0.120475
C22	C	1.330122	0.499959	0.620475
C23	C	0.737826	-0.000037	0.118848
C24	C	1.237826	0.499963	0.618848
C25	C	0.428847	-0.000052	0.189831
C26	C	0.928847	0.499948	0.689831
C27	C	0.515568	-0.000047	0.191368
C28	C	1.015568	0.499953	0.691368
C29	C	0.535400	-0.000036	0.038804
C30	C	1.035400	0.499964	0.538804
C31	C	0.448681	-0.000034	0.037269
C32	C	0.948681	0.499966	0.537269
C33	C	0.395406	-0.000047	0.112785
C34	C	0.895406	0.499953	0.612785
C35	C	0.568846	-0.000043	0.115857
C36	C	1.068846	0.499957	0.615857
C37	C	0.662872	-0.000037	0.117522
C38	C	1.162872	0.499963	0.617522
C39	C	0.301374	-0.000051	0.111120
C40	C	0.801374	0.499949	0.611120
N41	N	0.982085	-0.218754	0.114331
N42	N	1.482085	0.281246	0.614331
C43	C	0.982144	-0.592845	0.114313
C44	C	1.482144	-0.092845	0.614313
C45	C	0.913614	-0.553675	0.182886
C46	C	1.413614	-0.053675	0.682886
C47	C	0.913773	-0.446587	0.183136
C48	C	1.413773	0.053413	0.683136
C49	C	0.982114	-0.407254	0.114322
C50	C	1.482114	0.092746	0.614322
C51	C	1.068864	-0.446095	0.133380
C52	C	1.568864	0.053905	0.633380
C53	C	1.068479	-0.553217	0.133868
C54	C	1.568479	-0.053217	0.633868
C55	C	0.964699	-0.553374	0.026478
C56	C	1.464699	-0.053374	0.526478
C57	C	0.962709	-0.446246	0.027064
C58	C	1.462709	0.053754	0.527064
C59	C	0.982103	-0.302366	0.114325
C60	C	1.482103	0.197634	0.614325
C61	C	0.982162	-0.697733	0.114311
C62	C	1.482162	-0.197733	0.614311
C63	C	1.134130	-0.000055	0.108167
C64	C	1.634130	0.499945	0.608167
C65	C	1.226426	-0.000054	0.109793
C66	C	1.726426	0.499946	0.609793
N67	N	0.982173	0.218655	0.114304
N68	N	1.482173	0.718655	0.614304
C69	C	0.988196	-0.000049	-0.038763
C70	C	1.488196	0.499951	0.461237
C71	C	0.986556	-0.000043	-0.131713
C72	C	1.486556	0.499957	0.368287
C73	C	0.980665	-0.000046	-0.469459
C74	C	1.480665	0.499954	0.030541
C75	C	0.889758	0.000303	-0.422000
C76	C	1.389758	0.500303	0.078000
C77	C	0.891399	-0.000043	-0.325310
C78	C	1.391399	0.499957	0.174690
C79	C	0.983587	-0.000044	-0.301899
C80	C	1.483587	0.499956	0.198101
C81	C	1.028407	-0.087805	-0.342985
C82	C	1.528407	0.412195	0.157015
C83	C	1.026123	-0.087878	-0.439620
C84	C	1.526123	0.412122	0.060380
C85	C	1.028038	0.086887	-0.439987
C86	C	1.528038	0.586887	0.060013
C87	C	1.028017	0.088047	-0.343042
C88	C	1.528017	0.588047	0.156958
C89	C	0.985243	-0.000046	-0.207202
C90	C	1.485243	0.499954	0.292798
C91	C	0.979012	-0.000050	-0.564156
C92	C	1.479012	0.499950	-0.064156
C93	C	0.976056	-0.000048	0.267405
C94	C	1.476056	0.499952	0.767405
C95	C	0.977697	-0.000047	0.360355
C96	C	1.477697	0.499953	0.860355
H97	H	0.578786	-0.000027	-0.022678
H98	H	1.078786	0.499973	0.477322
H99	H	0.421454	-0.000028	-0.025475
H100	H	0.921454	0.499972	0.474525
C101	C	1.119899	-0.092230	-0.323910
C102	C	1.619899	0.407770	0.176090
N103	N	1.188809	-0.095565	-0.309535
N104	N	1.688809	0.404435	0.190465
H105	H	0.849290	-0.420328	0.171785
H106	H	1.349290	0.079672	0.671785
C107	C	1.139405	-0.411671	0.067703
C108	C	1.639405	0.088329	0.567703
N109	N	1.192536	-0.385741	0.018233
N110	N	1.692536	0.114259	0.518233
H111	H	0.848923	-0.579460	0.171722
H112	H	1.348923	-0.079460	0.671722
C113	C	1.090125	-0.409853	0.218937
C114	C	1.590125	0.090147	0.718937
N115	N	1.106132	-0.382560	0.283383
N116	N	1.606132	0.117440	0.783383
H117	H	0.542790	-0.000050	0.254106
H118	H	1.042790	0.499950	0.754106
C119	C	0.928455	-0.590027	0.270449
C120	C	1.428455	-0.090027	0.770449
N121	N	0.939635	-0.617408	0.336401
N122	N	1.439635	-0.117408	0.836401
H123	H	0.924913	-0.420953	0.248317
H124	H	1.424913	0.079047	0.748317
C125	C	0.987902	0.176749	-0.467724
C126	C	1.487902	0.676749	0.032276
N127	N	0.957661	0.244429	-0.488614
N128	N	1.457661	0.744429	0.011386
H129	H	1.083852	-0.578193	0.197924
H130	H	1.583852	-0.078193	0.697924
H131	H	1.014675	-0.578703	-0.024551
H132	H	1.514675	-0.078703	0.475449
C133	C	0.983790	0.175758	-0.306174
C134	C	1.483790	0.675758	0.193826
N135	N	0.950469	0.241821	-0.278408
N136	N	1.450469	0.741821	0.221592
C137	C	1.139457	-0.588221	0.068980
C138	C	1.639457	-0.088221	0.568980
N139	N	1.192926	-0.614583	0.020118
N140	N	1.692926	-0.114583	0.520118
C141	C	0.843447	-0.085175	-0.287646
C142	C	1.343447	0.414825	0.212354
N143	N	0.807329	-0.149302	-0.259278
N144	N	1.307329	0.350698	0.240722
C145	C	0.881077	-0.589903	0.001731
C146	C	1.381077	-0.089903	0.501731
N147	N	0.818089	-0.617416	-0.016899
N148	N	1.318089	-0.117416	0.483101
H149	H	1.095064	0.087476	-0.471766
H150	H	1.595064	0.587476	0.028234
H151	H	0.898896	-0.420861	0.012601
H152	H	1.398896	0.079139	0.512601
H153	H	0.993413	-0.153480	-0.457909
H154	H	1.493413	0.346520	0.042091
C155	C	1.025774	-0.410100	-0.045101
C156	C	1.525774	0.089900	0.454899
N157	N	1.073287	-0.382882	-0.099454
N158	N	1.573287	0.117118	0.400546
C159	C	0.843794	0.084942	-0.286902
C160	C	1.343794	0.584942	0.213098
N161	N	0.807932	0.148953	-0.257976
N162	N	1.307932	0.648953	0.242024
C163	C	0.370248	-0.000058	0.272901
C164	C	0.870248	0.499942	0.772901
N165	N	0.326113	-0.000058	0.335472
N166	N	0.826113	0.499942	0.835472
C167	C	0.840880	-0.084260	-0.448427
C168	C	1.340880	0.415740	0.051573
N169	N	0.804070	-0.147961	-0.468324
N170	N	1.304070	0.352039	0.031676
C171	C	0.840682	0.085319	-0.447035
C172	C	1.340682	0.585319	0.052965
N173	N	0.803717	0.149354	-0.465900
N174	N	1.303717	0.649354	0.034100
C175	C	1.118844	0.095202	-0.322321
C176	C	1.618844	0.595202	0.177679
N177	N	1.187260	0.100582	-0.306717
N178	N	1.687260	0.600582	0.193283
H179	H	1.092865	-0.091861	-0.471886
H180	H	1.592865	0.408139	0.028114
H181	H	0.997250	-0.153113	-0.314592
H182	H	1.497250	0.346887	0.185408
