data_functionalizedCrystal
_audit_creation_method	'MofGen! by Chris Wilmer'
_symmetry_space_group_name_H-M	'P1'
_symmetry_Int_Tables_number	1
_symmetry_cell_setting	triclinic
loop_
_symmetry_equiv_pos_as_xyz
  x,y,z
_cell_length_a	17.640112
_cell_length_b	11.169416
_cell_length_c	11.169409
_cell_angle_alpha	89.969126
_cell_angle_beta	101.174320
_cell_angle_gamma	101.234387
loop_
_atom_site_label
_atom_site_type_symbol
_atom_site_fract_x
_atom_site_fract_y
_atom_site_fract_z
Zn1	Zn	1.208360	-0.106442	-0.308284
Zn2	Zn	1.208287	-0.307205	-0.107628
Zn3	Zn	1.076185	-0.147123	-0.148120
Zn4	Zn	1.076190	-0.347691	-0.348751
O5	O	1.142255	-0.227115	-0.228196
O6	O	1.318948	-0.099106	-0.247785
O7	O	1.190731	-0.286051	0.054940
O8	O	1.093747	0.026232	-0.169376
O9	O	1.318895	-0.246605	-0.100365
O10	O	1.190855	0.056120	-0.287048
O11	O	1.093676	-0.168440	0.025191
O12	O	0.965588	-0.207697	-0.208615
O13	O	1.093755	-0.315607	-0.511323
O14	O	0.965591	-0.355054	-0.356018
O15	O	1.190860	-0.138363	-0.481592
O16	O	1.190735	-0.480534	-0.139604
O17	O	1.093685	-0.510279	-0.316755
C18	C	1.142224	-0.538950	-0.228196
C19	C	1.142283	-0.672332	-0.228214
C20	C	0.936913	-0.290184	-0.291102
C21	C	0.849066	-0.317194	-0.318043
C22	C	0.560031	-0.021903	-0.023544
C23	C	0.477485	-0.047308	-0.048875
C24	C	0.477544	-0.200961	-0.202101
C25	C	0.560090	-0.175566	-0.176787
C26	C	0.601327	-0.086037	-0.087506
C27	C	0.601387	-0.239699	-0.240749
C28	C	0.683927	-0.214310	-0.215433
C29	C	0.725170	-0.124787	-0.126154
C30	C	0.683867	-0.060647	-0.062190
C31	C	0.560149	-0.329234	-0.330023
C32	C	0.601446	-0.393367	-0.393986
C33	C	0.683987	-0.367972	-0.368676
C34	C	0.725230	-0.278450	-0.279397
C35	C	0.725289	-0.432112	-0.432640
C36	C	0.807829	-0.406723	-0.407323
C37	C	0.807769	-0.253060	-0.254080
C38	C	1.348400	-0.163801	-0.165044
C39	C	1.436247	-0.136821	-0.138133
C40	C	1.142316	-0.226963	-0.541220
C41	C	1.142342	-0.226899	-0.674612
C42	C	1.142308	0.085943	-0.228215
C43	C	1.142331	0.219350	-0.228223
C44	C	1.142240	-0.227166	0.083624
C45	C	1.142368	-0.226846	0.217063
H46	H	0.841347	-0.180139	-0.181397
H47	H	0.443957	-0.273859	-0.274789
C48	C	0.852712	-0.476485	-0.476557
C49	C	0.900060	-0.538792	-0.393949
C50	C	0.941408	-0.603088	-0.457682
H51	H	0.884993	-0.420841	-0.519045
H52	H	0.816355	-0.533501	-0.533327
H53	H	0.936412	-0.481783	-0.337201
H54	H	0.867798	-0.594456	-0.351458
H55	H	0.905051	-0.660104	-0.514452
H56	H	0.973685	-0.547436	-0.500168
H57	H	0.973533	-0.645380	-0.401644
H58	H	0.792379	-0.104120	-0.105541
H59	H	0.717445	0.012274	0.010493
H60	H	0.593608	0.051018	0.049139
H61	H	0.492940	-0.349903	-0.350632
H62	H	0.567859	-0.466265	-0.466674
H63	H	0.443865	0.004933	0.003210
H64	H	0.691702	-0.505015	-0.505323
