data_functionalizedCrystal
_audit_creation_method	'MofGen! by Chris Wilmer'
_symmetry_space_group_name_H-M	'P1'
_symmetry_Int_Tables_number	1
_symmetry_cell_setting	triclinic
loop_
_symmetry_equiv_pos_as_xyz
  x,y,z
_cell_length_a	19.288835
_cell_length_b	14.586319
_cell_length_c	19.288865
_cell_angle_alpha	90.009016
_cell_angle_beta	96.869897
_cell_angle_gamma	89.988022
loop_
_atom_site_label
_atom_site_type_symbol
_atom_site_fract_x
_atom_site_fract_y
_atom_site_fract_z
O1	O	-0.921361	0.076431	0.086547
O2	O	-0.719097	0.076394	0.098258
O3	O	-0.826073	0.076395	-0.008728
O4	O	-0.814384	0.076430	0.193534
O5	O	-0.826066	-0.076085	-0.008730
O6	O	-0.719090	-0.076086	0.098256
O7	O	-0.921353	-0.076050	0.086546
Cu8	Cu	-0.820221	-0.089991	0.092401
Cu9	Cu	-0.820230	0.090335	0.092403
O10	O	-0.814377	-0.076051	0.193532
C11	C	-0.693217	0.000149	0.097884
C12	C	-0.616112	0.000134	0.096763
C13	C	-0.579912	0.083253	0.096226
C14	C	-0.507465	0.083262	0.095165
C15	C	-0.471222	0.000148	0.094628
C16	C	-0.507430	-0.082982	0.095169
C17	C	-0.579875	-0.082988	0.096237
C18	C	-0.361891	-0.063526	0.052251
C19	C	-0.289448	-0.063516	0.051179
C20	C	-0.247778	0.000164	0.091338
C21	C	-0.278561	0.063851	0.132559
C22	C	-0.351006	0.063844	0.133627
C23	C	-0.392668	0.000145	0.093470
C24	C	-0.133023	0.083298	0.089651
C25	C	-0.060574	0.083304	0.088595
C26	C	-0.060541	-0.082942	0.088592
C27	C	-0.132988	-0.082945	0.089655
C28	C	-0.169225	0.000178	0.090181
N29	N	-0.820220	-0.216823	0.092399
C30	C	-0.867604	-0.451829	0.045041
C31	C	-0.867606	-0.547810	0.045040
C32	C	-0.772846	-0.547820	0.139759
C33	C	-0.772842	-0.451841	0.139757
C34	C	-0.820225	-0.403848	0.092399
C35	C	-0.820231	-0.595808	0.092399
C36	C	-0.820233	-0.699875	0.092398
C37	C	-0.820222	-0.299774	0.092399
C38	C	0.052767	0.000190	0.086924
C39	C	-0.024336	0.000189	0.088059
C40	C	-0.825694	0.000152	-0.034606
C41	C	-0.824565	0.000144	-0.111709
N42	N	-0.820236	0.217167	0.092399
C43	C	-0.887333	0.000151	-0.156412
C44	C	-0.886273	0.000165	-0.228859
C45	C	-0.822440	0.000154	-0.256600
C46	C	-0.759663	0.000153	-0.211887
C47	C	-0.760725	0.000147	-0.139441
C48	C	-0.772257	-0.053266	-0.364882
C49	C	-0.771197	-0.053266	-0.437327
C50	C	-0.819160	0.000174	-0.480045
C51	C	-0.868195	0.053603	-0.450312
C52	C	-0.869257	0.053598	-0.377866
C53	C	-0.821280	0.000160	-0.335154
C54	C	-0.880783	0.000198	-0.603304
C55	C	-0.879720	0.000218	-0.675752
C56	C	-0.753108	0.000196	-0.658778
C57	C	-0.754173	0.000185	-0.586332
C58	C	-0.818012	0.000182	-0.558599
C59	C	-0.814757	0.000194	0.219409
C60	C	-0.815886	0.000208	0.296513
H61	H	-0.376066	0.115698	0.167192
C62	C	-0.919722	-0.600585	-0.007063
N63	N	-0.958976	-0.640335	-0.046311
C64	C	-0.255594	-0.133579	0.005842
N65	N	-0.230096	-0.186356	-0.028305
C66	C	-0.232728	0.133900	0.176742
N67	N	-0.198204	0.186659	0.210020
C68	C	-0.689446	0.000134	-0.242403
N69	N	-0.636557	0.000120	-0.265387
H70	H	-0.031101	0.150992	0.088161
C71	C	-0.919721	-0.399040	-0.007059
N72	N	-0.958975	-0.359281	-0.046305
C73	C	-0.407722	-0.133583	0.008069
N74	N	-0.442242	-0.186347	-0.025209
C75	C	-0.172810	-0.174384	0.090237
N76	N	-0.202804	-0.243259	0.090675
C77	C	-0.720749	-0.399058	0.191888
N78	N	-0.681525	-0.359303	0.231161
H79	H	-0.909181	0.097103	-0.353660
H80	H	-0.734269	-0.586906	0.178318
C81	C	-0.957559	0.000155	-0.125911
N82	N	-1.010453	0.000160	-0.102936
H83	H	-0.937388	0.000174	-0.265263
H84	H	-0.609348	-0.150676	0.096675
C85	C	-0.467562	-0.174408	0.094577
N86	N	-0.437533	-0.243273	0.094133
H87	H	-0.733198	-0.096788	-0.330106
C88	C	-0.920956	0.112396	-0.497296
N89	N	-0.960695	0.156677	-0.532688
C90	C	-0.951007	0.000208	-0.572796
N91	N	-1.003900	0.000218	-0.549819
H92	H	-0.930836	0.000228	-0.712149
C93	C	-0.691671	0.000137	-0.090266
N94	N	-0.639659	0.000128	-0.053225
C95	C	-0.682890	0.000187	-0.689288
N96	N	-0.630000	0.000183	-0.712272
C97	C	-0.717258	-0.112039	-0.470026
N98	N	-0.676629	-0.156306	-0.494654
C99	C	-0.619769	0.174691	0.096803
N100	N	-0.649790	0.243563	0.097237
C101	C	-0.172885	0.174734	0.090242
N102	N	-0.202906	0.243605	0.090690
C103	C	-0.467638	0.174702	0.094569
N104	N	-0.437643	0.243575	0.094118
H105	H	-0.703059	0.000175	-0.549933
H106	H	-0.031033	-0.150616	0.088159
