data_functionalizedCrystal
_audit_creation_method	'MofGen! by Chris Wilmer'
_symmetry_space_group_name_H-M	'P1'
_symmetry_Int_Tables_number	1
_symmetry_cell_setting	triclinic
loop_
_symmetry_equiv_pos_as_xyz
  x,y,z
_cell_length_a	11.169417
_cell_length_b	18.101396
_cell_length_c	11.169409
_cell_angle_alpha	90.034984
_cell_angle_beta	89.979747
_cell_angle_gamma	89.961727
loop_
_atom_site_label
_atom_site_type_symbol
_atom_site_fract_x
_atom_site_fract_y
_atom_site_fract_z
Zn1	Zn	1.834749	0.294745	-0.678510
Zn2	Zn	1.834542	0.418612	-0.477818
Zn3	Zn	1.634032	0.294791	-0.477846
Zn4	Zn	1.633949	0.418552	-0.678464
O5	O	1.734318	0.356675	-0.578159
O6	O	2.002671	0.311182	-0.651896
O7	O	1.807892	0.402231	-0.309871
O8	O	1.660779	0.191152	-0.504495
O9	O	2.002519	0.402186	-0.504448
O10	O	1.808244	0.191119	-0.651923
O11	O	1.660578	0.311260	-0.309892
O12	O	1.466071	0.311203	-0.504450
O13	O	1.660637	0.402085	-0.846420
O14	O	1.466010	0.402129	-0.651843
O15	O	1.808164	0.311125	-0.846454
O16	O	1.807811	0.522237	-0.504402
O17	O	1.660436	0.522193	-0.651816
C18	C	1.422493	0.356665	-0.578145
C19	C	1.289093	0.356679	-0.578168
C20	C	1.734125	0.549086	-0.578127
C21	C	1.734152	0.631400	-0.578154
C22	C	1.734366	0.930491	-0.578224
C23	C	1.641861	0.899169	-0.671202
C24	C	1.641436	0.813551	-0.670910
C25	C	1.734260	0.782108	-0.578190
C26	C	1.700001	0.813271	-0.451704
C27	C	1.699391	0.898917	-0.452262
C28	C	1.861336	0.898830	-0.610618
C29	C	1.860604	0.813179	-0.613390
C30	C	1.734202	0.698249	-0.578163
C31	C	1.734420	1.014350	-0.578242
C32	C	2.047360	0.356686	-0.578174
C33	C	2.180760	0.356690	-0.578180
C34	C	1.734414	0.356593	-0.891202
C35	C	1.734455	0.356558	-1.024602
C36	C	1.734502	1.163513	-0.578222
C37	C	1.734473	1.081199	-0.578260
C38	C	1.734291	0.356703	-0.266334
C39	C	1.734483	0.356530	-0.132935
H40	H	1.663077	0.919708	-0.765295
O41	O	1.943704	0.923025	-0.530005
C42	C	2.126140	0.991266	-0.498338
C43	C	2.032974	0.963893	-0.589762
H44	H	2.198324	1.024327	-0.546612
H45	H	2.168798	0.941865	-0.451573
H46	H	2.080211	1.027917	-0.429121
H47	H	2.078813	0.927255	-0.659051
H48	H	1.990321	1.013328	-0.636436
O49	O	1.666953	0.788530	-0.782881
C50	C	1.713930	0.820653	-0.986883
C51	C	1.685034	0.849084	-0.860130
H52	H	1.728582	0.869596	-1.049368
H53	H	1.636134	0.785844	-1.021203
H54	H	1.798558	0.785461	-0.983889
H55	H	1.600441	0.884306	-0.863023
H56	H	1.762898	0.883853	-0.825859
H57	H	1.763843	0.919639	-0.380624
O58	O	1.777804	0.789097	-0.366664
C59	C	1.832689	0.790593	-0.158055
C60	C	1.744485	0.818021	-0.254238
H61	H	1.805768	0.813954	-0.067134
H62	H	1.927051	0.809800	-0.181323
H63	H	1.830498	0.727669	-0.154499
H64	H	1.746569	0.880943	-0.257846
H65	H	1.650163	0.798758	-0.230933
O66	O	1.898654	0.924394	-0.718835
C67	C	1.959788	0.893418	-0.919610
C68	C	1.917578	0.864365	-0.797102
H69	H	1.975077	0.844900	-0.982931
H70	H	2.046963	0.925351	-0.908021
H71	H	1.888482	0.931525	-0.958597
H72	H	1.988800	0.826229	-0.758047
H73	H	1.830374	0.832475	-0.808767
O74	O	1.947346	0.787691	-0.538626
C75	C	2.157166	0.788034	-0.488519
C76	C	2.059060	0.816936	-0.573309
H77	H	2.247506	0.811679	-0.516514
H78	H	2.160556	0.725153	-0.493278
H79	H	2.136044	0.805914	-0.392930
H80	H	2.080113	0.799110	-0.668936
H81	H	2.055693	0.879814	-0.568447
O82	O	1.530347	0.925045	-0.645903
C83	C	1.403890	1.032054	-0.623250
C84	C	1.530238	1.002848	-0.651901
H85	H	1.403754	1.094960	-0.628114
H86	H	1.376862	1.013818	-0.529381
H87	H	1.337487	1.008993	-0.691133
H88	H	1.596726	1.025895	-0.584096
H89	H	1.557165	1.021077	-0.745802
O90	O	1.529090	0.789274	-0.645444
C91	C	1.321484	0.787893	-0.704003
C92	C	1.448655	0.815448	-0.732975
H93	H	1.256422	0.809031	-0.774768
H94	H	1.293226	0.809280	-0.612215
H95	H	1.320678	0.724916	-0.703616
H96	H	1.449560	0.878422	-0.733427
H97	H	1.476862	0.794006	-0.824744
O98	O	1.588585	0.922713	-0.419562
C99	C	1.388928	0.888369	-0.359799
C100	C	1.514357	0.861324	-0.396838
H101	H	1.328886	0.838750	-0.341392
H102	H	1.348740	0.922879	-0.435102
H103	H	1.396332	0.923508	-0.275392
H104	H	1.507057	0.826155	-0.481217
H105	H	1.554499	0.826854	-0.321464
H106	H	1.608177	0.791890	-0.423770
H107	H	1.886438	0.792807	-0.706477
