data_functionalizedCrystal
_audit_creation_method	'MofGen! by Chris Wilmer'
_symmetry_space_group_name_H-M	'P1'
_symmetry_Int_Tables_number	1
_symmetry_cell_setting	triclinic
loop_
_symmetry_equiv_pos_as_xyz
  x,y,z
_cell_length_a	10.654550
_cell_length_b	10.540539
_cell_length_c	9.130313
_cell_angle_alpha	89.998234
_cell_angle_beta	90.000462
_cell_angle_gamma	84.505211
loop_
_atom_site_label
_atom_site_type_symbol
_atom_site_fract_x
_atom_site_fract_y
_atom_site_fract_z
O1	O	1.667901	0.178300	-0.121682
O2	O	1.302428	0.195287	-0.121709
O3	O	1.493503	0.002084	-0.121693
O4	O	1.476827	0.371503	-0.121698
O5	O	1.493492	0.002080	0.121906
O6	O	1.302418	0.195283	0.121890
O7	O	1.667890	0.178296	0.121916
Cu8	Cu	1.485153	0.186789	0.144146
Cu9	Cu	1.485166	0.186794	-0.143938
O10	O	1.476816	0.371499	0.121901
C11	C	1.255625	0.194038	0.000087
C12	C	1.116180	0.190306	0.000077
C13	C	1.492247	-0.045221	0.000104
C14	C	1.488505	-0.186167	0.000095
C15	C	1.036735	0.304061	0.000080
C16	C	0.905712	0.300547	0.000105
C17	C	0.933594	0.069513	0.000119
C18	C	1.064614	0.073029	0.000104
C19	C	1.345134	-0.369543	-0.000462
C20	C	1.348927	-0.222926	0.000087
C21	C	1.555670	-0.247851	0.139207
C22	C	1.550907	-0.394394	0.139324
C23	C	1.553758	-0.394909	-0.137693
C24	C	1.555043	-0.247928	-0.139532
C25	C	1.714694	0.179545	0.000117
C26	C	1.854139	0.183277	0.000118
C27	C	1.478072	0.418804	0.000101
C28	C	1.481813	0.559750	0.000099
N29	N	1.485153	0.186786	0.346768
N30	N	1.485175	0.186787	-0.346561
C31	C	1.569795	0.101267	0.576774
C32	C	1.569788	0.101269	0.423437
C33	C	1.400529	0.272315	0.423445
C34	C	1.400544	0.272318	0.576779
H35	H	1.078715	0.399556	0.000069
O36	O	0.820020	0.423239	0.000104
H37	H	0.877894	0.505373	0.000073
O38	O	1.309243	0.364537	0.340735
H39	H	1.326126	0.463659	0.370126
O40	O	1.278449	-0.167576	0.132404
H41	H	1.241530	-0.245550	0.196257
H42	H	0.891593	-0.025970	0.000150
O43	O	1.683865	-0.457998	0.147729
H44	H	1.751277	-0.384048	0.151703
O45	O	1.309303	0.364594	0.659485
H46	H	1.250450	0.424068	0.580421
O47	O	1.661044	0.009009	0.340754
H48	H	1.646824	0.023375	0.221251
O49	O	1.150317	-0.049669	0.000105
H50	H	1.092451	-0.131810	0.000106
H51	H	1.296077	-0.180302	-0.099634
H52	H	1.658173	-0.225534	0.144387
H53	H	1.290217	-0.399732	0.098732
O54	O	1.272077	-0.407414	-0.132579
H55	H	1.332396	-0.477041	-0.199257
H56	H	1.501260	-0.422577	0.243306
H57	H	1.509005	-0.205236	0.242723
O58	O	1.661084	0.009025	0.659453
H59	H	1.646873	0.023383	0.778957
O60	O	1.493996	-0.436715	-0.277385
H61	H	1.461498	-0.351607	-0.343723
O62	O	1.490050	-0.193680	-0.275866
H63	H	1.410691	-0.123019	-0.244330
H64	H	1.656807	-0.223743	-0.147925
H65	H	1.654575	-0.442171	-0.138622
