data_functionalizedCrystal
_audit_creation_method	'MofGen! by Chris Wilmer'
_symmetry_space_group_name_H-M	'P1'
_symmetry_Int_Tables_number	1
_symmetry_cell_setting	triclinic
loop_
_symmetry_equiv_pos_as_xyz
  x,y,z
_cell_length_a	10.489741
_cell_length_b	10.489741
_cell_length_c	9.565339
_cell_angle_alpha	90.005414
_cell_angle_beta	90.000576
_cell_angle_gamma	95.460826
loop_
_atom_site_label
_atom_site_type_symbol
_atom_site_fract_x
_atom_site_fract_y
_atom_site_fract_z
O1	O	0.179962	-1.694041	0.116173
O2	O	0.196855	-1.322845	0.116194
O3	O	0.002811	-1.516889	0.116175
O4	O	0.374006	-1.499997	0.116192
O5	O	0.002816	-1.516898	-0.116345
O6	O	0.196861	-1.322854	-0.116326
O7	O	0.179968	-1.694050	-0.116347
Zn8	Zn	0.188415	-1.508453	-0.153254
Zn9	Zn	0.188407	-1.508442	0.153101
O10	O	0.374012	-1.500005	-0.116328
C11	C	-0.044718	-1.515618	-0.000084
C12	C	-0.186348	-1.511801	-0.000082
C13	C	0.195582	-1.275318	-0.000063
C14	C	0.191765	-1.133688	-0.000055
C15	C	0.181241	-1.741577	-0.000087
C16	C	0.185058	-1.883206	-0.000086
C17	C	-0.254488	-1.388336	-0.000064
C18	C	-0.346608	-1.446664	-0.114712
C19	C	-0.346588	-1.446685	0.114534
C20	C	-0.276602	-1.570179	-0.114824
C21	C	-0.276573	-1.570183	0.114525
C22	C	-0.368665	-1.628600	-0.000150
C23	C	0.421541	-1.501277	-0.000066
C24	C	0.563170	-1.505094	-0.000059
N25	N	0.188419	-1.508470	-0.362334
C26	C	0.068300	-1.065548	-0.000074
C27	C	0.126621	-0.973417	0.114571
C28	C	0.126656	-0.973460	-0.114676
C29	C	0.250136	-1.043423	0.114684
C30	C	0.250154	-1.043475	-0.114665
C31	C	0.308564	-0.951371	0.000007
C32	C	0.098687	-1.598238	-0.453508
C33	C	0.072852	-1.482742	-0.546673
C34	C	0.214171	-1.623920	-0.546724
C35	C	0.162527	-1.392916	-0.453447
C36	C	0.303897	-1.534170	-0.453489
C37	C	0.278111	-1.418591	-0.546612
N38	N	0.188393	-1.508435	0.362180
H39	H	-0.204837	-1.286824	-0.000174
H40	H	0.302354	-1.074524	-0.211590
H41	H	-0.418089	-1.730204	-0.000220
H42	H	0.022763	-1.674078	-0.412627
H43	H	0.074395	-0.942485	-0.211599
H44	H	-0.245531	-1.622376	0.211451
H45	H	0.074378	-0.942399	0.211491
O46	O	0.443144	-0.885892	0.000079
H47	H	0.494688	-0.915229	-0.094202
O48	O	-0.387630	-1.377469	0.242930
H49	H	-0.341462	-1.277765	0.242683
H50	H	0.302334	-1.074247	0.211717
O51	O	-0.066175	-1.131288	0.000083
H52	H	-0.062192	-1.236643	-0.000888
H53	H	0.353988	-1.342579	-0.587234
O54	O	-0.056509	-1.453917	-0.600923
H55	H	-0.130823	-1.528577	-0.563653
H56	H	0.140624	-1.295243	-0.412646
O57	O	0.433228	-1.563032	-0.399212
H58	H	0.454399	-1.658979	-0.436502
H59	H	-0.245767	-1.622378	-0.211859
O60	O	0.243056	-1.753265	-0.600982
H61	H	0.162013	-1.794532	-0.666435
O62	O	-0.387686	-1.377487	-0.243104
H63	H	-0.341540	-1.277775	-0.242868
