data_functionalizedCrystal
_audit_creation_method	'MofGen! by Chris Wilmer'
_symmetry_space_group_name_H-M	'P1'
_symmetry_Int_Tables_number	1
_symmetry_cell_setting	triclinic
loop_
_symmetry_equiv_pos_as_xyz
  x,y,z
_cell_length_a	15.297475
_cell_length_b	18.101395
_cell_length_c	15.298159
_cell_angle_alpha	80.337941
_cell_angle_beta	88.367350
_cell_angle_gamma	80.333681
loop_
_atom_site_label
_atom_site_type_symbol
_atom_site_fract_x
_atom_site_fract_y
_atom_site_fract_z
Zn1	Zn	1.253133	-0.576523	0.726551
Zn2	Zn	1.753133	-0.076523	1.226551
Zn3	Zn	1.278409	-0.683121	0.580069
Zn4	Zn	1.778409	-0.183121	1.080069
Zn5	Zn	1.132057	-0.534879	0.554800
Zn6	Zn	1.632057	-0.034879	1.054800
Zn7	Zn	1.106609	-0.675871	0.701193
Zn8	Zn	1.606609	-0.175871	1.201193
O9	O	1.192552	-0.617598	0.640653
O10	O	1.692552	-0.117598	1.140653
O11	O	1.379055	-0.611125	0.728307
O12	O	1.879055	-0.111125	1.228307
O13	O	1.280223	-0.649062	0.454148
O14	O	1.780223	-0.149062	0.954148
O15	O	1.148189	-0.436786	0.577620
O16	O	1.648189	0.063214	1.077620
O17	O	1.397625	-0.689443	0.620688
O18	O	1.897625	-0.189443	1.120688
O19	O	1.237144	-0.467381	0.703805
O20	O	1.737144	0.032619	1.203805
O21	O	1.172699	-0.540149	0.435582
O22	O	1.672699	-0.040149	0.935582
O23	O	1.006112	-0.533120	0.553031
O24	O	1.506112	-0.033120	1.053031
O25	O	1.104818	-0.677086	0.827126
O26	O	1.604818	-0.177086	1.327126
O27	O	0.987415	-0.636706	0.660586
O28	O	1.487415	-0.136706	1.160586
O29	O	1.212468	-0.604095	0.845756
O30	O	1.712468	-0.104095	1.345756
O31	O	1.255548	-0.785777	0.596099
O32	O	1.755548	-0.285777	1.096099
O33	O	1.129327	-0.780450	0.685088
O34	O	1.629327	-0.280450	1.185088
C35	C	0.964983	-0.579608	0.601315
C36	C	1.464983	-0.079608	1.101315
C37	C	0.867624	-0.563375	0.584507
C38	C	1.367624	-0.063375	1.084507
C39	C	1.192439	-0.809986	0.640607
C40	C	1.692439	-0.309986	1.140607
C41	C	1.192466	-0.892308	0.640630
C42	C	1.692466	-0.392308	1.140630
C43	C	0.554407	-0.733619	0.760785
C44	C	1.054407	-0.233619	1.260785
C45	C	0.645881	-0.748875	0.776574
C46	C	1.145881	-0.248875	1.276574
C47	C	0.701321	-0.702501	0.728559
C48	C	1.201321	-0.202501	1.228559
C49	C	0.665278	-0.640869	0.664751
C50	C	1.165278	-0.140869	1.164751
C51	C	0.573796	-0.625615	0.648955
C52	C	1.073796	-0.125615	1.148955
C53	C	0.720710	-0.594497	0.616730
C54	C	1.220710	-0.094497	1.116730
C55	C	0.684668	-0.532865	0.552922
C56	C	1.184668	-0.032865	1.052922
C57	C	0.593195	-0.517613	0.537129
C58	C	1.093195	-0.017613	1.037129
C59	C	0.537755	-0.563987	0.585144
C60	C	1.037755	-0.063987	1.085144
C61	C	0.812192	-0.609752	0.632526
C62	C	1.312192	-0.109752	1.132526
C63	C	0.831582	-0.501747	0.520696
C64	C	1.331582	-0.001747	1.020696
C65	C	0.740108	-0.486491	0.504907
C66	C	1.240108	0.013509	1.004907
C67	C	1.192650	-1.191436	0.640711
C68	C	1.692650	-0.691436	1.140711
C69	C	1.113363	-1.156836	0.696896
C70	C	1.613363	-0.656836	1.196896
C71	C	1.113079	-1.071140	0.696628
C72	C	1.613079	-0.571140	1.196628
C73	C	1.192559	-1.043035	0.640672
C74	C	1.692559	-0.543035	1.140672
C75	C	1.183576	-1.059157	0.544047
C76	C	1.683576	-0.559157	1.044047
C77	C	1.183070	-1.144778	0.544378
C78	C	1.683070	-0.644778	1.044378
C79	C	1.281208	-1.178023	0.680364
C80	C	1.781208	-0.678023	1.180364
C81	C	1.280312	-1.092519	0.682294
C82	C	1.780312	-0.592519	1.182294
C83	C	1.192509	-0.959165	0.640644
C84	C	1.692509	-0.459165	1.140644
C85	C	1.192698	-1.275305	0.640732
C86	C	1.692698	-0.775305	1.140732
C87	C	1.421010	-0.655738	0.680145
C88	C	1.921010	-0.155738	1.180145
C89	C	1.518365	-0.671991	0.696974
C90	C	2.018365	-0.171991	1.196974
C91	C	1.152985	-0.644427	0.869110
C92	C	1.652985	-0.144427	1.369110
C93	C	1.136124	-0.655860	0.966465
C94	C	1.636124	-0.155860	1.466465
C95	C	1.192686	-0.424465	0.640722
C96	C	1.692686	0.075535	1.140722
C97	C	1.192743	-0.342164	0.640752
C98	C	1.692743	0.157836	1.140752
C99	C	1.072151	-0.699233	1.002500
C100	C	1.572151	-0.199233	1.502500
C101	C	1.056310	-0.709979	1.093970
C102	C	1.556310	-0.209979	1.593970
C103	C	1.104436	-0.677349	1.149414
C104	C	1.604436	-0.177349	1.649414
C105	C	1.168406	-0.633971	1.113379
C106	C	1.668406	-0.133971	1.613379
C107	C	1.184253	-0.623229	1.021901
C108	C	1.684253	-0.123229	1.521901
C109	C	1.216538	-0.601345	1.168815
C110	C	1.716538	-0.101345	1.668815
C111	C	1.280508	-0.557968	1.132780
C112	C	1.780508	-0.057968	1.632780
C113	C	1.296352	-0.547227	1.041311
C114	C	1.796352	-0.047227	1.541311
C115	C	1.248226	-0.579857	0.985867
C116	C	1.748226	-0.079857	1.485867
C117	C	1.200691	-0.612088	1.260293
C118	C	1.700691	-0.112088	1.760293
C119	C	1.312793	-0.536084	1.279694
C120	C	1.812793	-0.036084	1.779694
C121	C	1.328633	-0.525338	1.188224
C122	C	1.828633	-0.025338	1.688224
C123	C	1.231959	-0.590889	1.413083
C124	C	1.731959	-0.090889	1.913083
C125	C	1.248820	-0.579457	1.315728
C126	C	1.748820	-0.079457	1.815728
H127	H	0.841529	-0.659933	0.684479
H128	H	1.341529	-0.159933	1.184479
H129	H	1.116845	-1.060737	0.767774
H130	H	1.616845	-0.560737	1.267774
H131	H	1.380719	-0.490020	1.158871
H132	H	1.880719	0.009980	1.658871
Br133	Br	1.119309	-1.208853	0.815806
Br134	Br	1.619309	-0.708853	1.315806
Br135	Br	0.479170	-0.796564	0.825917
Br136	Br	0.979170	-0.296564	1.325917
Br137	Br	0.544283	-0.433976	0.450523
Br138	Br	1.044283	0.066024	0.950523
Br139	Br	1.004055	-1.170820	0.651488
Br140	Br	1.504055	-0.670820	1.151488
Br141	Br	0.413604	-0.543278	0.563726
Br142	Br	0.913604	-0.043278	1.063726
Br143	Br	0.969507	-0.768855	1.142870
Br144	Br	1.469507	-0.268855	1.642870
H145	H	1.091534	-0.686101	1.223892
H146	H	1.591534	-0.186101	1.723892
Br147	Br	0.694791	-0.832517	0.863163
Br148	Br	1.194791	-0.332517	1.363163
Br149	Br	1.006852	-0.743517	0.927254
Br150	Br	1.506852	-0.243517	1.427254
Br151	Br	0.691182	-0.402848	0.418315
Br152	Br	1.191182	0.097152	0.918315
H153	H	1.240213	-1.040626	0.500344
H154	H	1.740213	-0.540626	1.000344
H155	H	1.239182	-1.167195	0.500229
H156	H	1.739182	-0.667195	1.000229
H157	H	1.120096	-1.024191	0.512081
H158	H	1.620096	-0.524191	1.012081
Br159	Br	0.825466	-0.723206	0.749990
Br160	Br	1.325466	-0.223206	1.249990
H161	H	0.876722	-0.463987	0.481597
H162	H	1.376722	0.036013	0.981597
Br163	Br	1.003131	-1.014921	0.650753
Br164	Br	1.503131	-0.514921	1.150753
H165	H	1.118811	-1.151162	0.512646
H166	H	1.618811	-0.651162	1.012646
H167	H	1.292518	-1.211156	0.750463
H168	H	1.792518	-0.711156	1.250463
H169	H	1.261115	-0.571104	0.911382
H170	H	1.761115	-0.071104	1.411382
Br171	Br	1.292091	-1.077145	0.800949
Br172	Br	1.792091	-0.577145	1.300949
H173	H	1.148606	-0.647406	1.289623
H174	H	1.648606	-0.147406	1.789623
H175	H	1.351982	-0.509515	1.324837
H176	H	1.851982	-0.009515	1.824837
Br177	Br	1.379339	-1.216092	0.612499
Br178	Br	1.879339	-0.716092	1.112499
Br179	Br	1.381843	-1.062574	0.621192
Br180	Br	1.881843	-0.562574	1.121192
H181	H	1.348448	-0.511914	1.011976
H182	H	1.848448	-0.011914	1.511976
