data_functionalizedCrystal
_audit_creation_method	'MofGen! by Chris Wilmer'
_symmetry_space_group_name_H-M	'P1'
_symmetry_Int_Tables_number	1
_symmetry_cell_setting	triclinic
loop_
_symmetry_equiv_pos_as_xyz
  x,y,z
_cell_length_a	15.297327
_cell_length_b	19.805407
_cell_length_c	19.805399
_cell_angle_alpha	90.016510
_cell_angle_beta	99.647572
_cell_angle_gamma	80.296766
loop_
_atom_site_label
_atom_site_type_symbol
_atom_site_fract_x
_atom_site_fract_y
_atom_site_fract_z
Zn1	Zn	-0.359264	-0.988068	-0.429339
Zn2	Zn	0.140736	-0.488068	0.070661
Zn3	Zn	-0.510134	-0.968398	-0.335732
Zn4	Zn	-0.010134	-0.468398	0.164268
Zn5	Zn	-0.359282	-0.874886	-0.316167
Zn6	Zn	0.140718	-0.374886	0.183833
Zn7	Zn	-0.510072	-0.855264	-0.448871
Zn8	Zn	-0.010072	-0.355264	0.051129
O9	O	-0.434688	-0.921654	-0.382527
O10	O	0.065312	-0.421654	0.117473
O11	O	-0.379295	-1.080173	-0.416936
O12	O	0.120705	-0.580173	0.083064
O13	O	-0.490157	-0.955973	-0.238424
O14	O	0.009843	-0.455973	0.261576
O15	O	-0.233034	-0.906343	-0.314818
O16	O	0.266966	-0.406343	0.185182
O17	O	-0.490139	-1.065721	-0.348163
O18	O	0.009861	-0.565721	0.151837
O19	O	-0.233020	-0.989498	-0.397965
O20	O	0.266980	-0.489498	0.102035
O21	O	-0.379327	-0.887270	-0.224050
O22	O	0.120673	-0.387270	0.275950
O23	O	-0.379267	-0.777568	-0.333757
O24	O	0.120733	-0.277568	0.166243
O25	O	-0.490034	-0.872901	-0.540992
O26	O	0.009966	-0.372901	-0.040992
O27	O	-0.490052	-0.763153	-0.431254
O28	O	0.009948	-0.263153	0.068746
O29	O	-0.379235	-0.970471	-0.526643
O30	O	0.120765	-0.470471	-0.026643
O31	O	-0.636372	-0.936947	-0.367102
O32	O	-0.136372	-0.436947	0.132898
O33	O	-0.636327	-0.853828	-0.450225
O34	O	-0.136327	-0.353828	0.049775
C35	C	-0.434655	-0.745802	-0.382502
C36	C	0.065345	-0.245802	0.117498
C37	C	-0.434663	-0.670569	-0.382510
C38	C	0.065337	-0.170569	0.117490
C39	C	-0.377047	-0.642737	-0.418399
C40	C	0.122953	-0.142737	0.081601
C41	C	-0.377050	-0.572049	-0.418400
C42	C	0.122950	-0.072049	0.081600
C43	C	-0.434674	-0.529192	-0.382517
C44	C	0.065326	-0.029192	0.117483
C45	C	-0.492291	-0.557028	-0.346624
C46	C	0.007709	-0.057028	0.153376
C47	C	-0.492283	-0.627717	-0.346619
C48	C	0.007717	-0.127717	0.153381
C49	C	-0.492324	-0.271951	-0.346642
C50	C	0.007676	0.228049	0.153358
C51	C	-0.492330	-0.201258	-0.346651
C52	C	0.007670	0.298742	0.153349
C53	C	-0.377091	-0.216283	-0.418423
C54	C	0.122909	0.283717	0.081577
C55	C	-0.377083	-0.286971	-0.418418
C56	C	0.122917	0.213029	0.081582
C57	C	-0.434697	-0.314802	-0.382523
C58	C	0.065303	0.185198	0.117477
C59	C	-0.434692	-0.391451	-0.382521
C60	C	0.065308	0.108549	0.117479
C61	C	-0.434684	-0.452544	-0.382522
C62	C	0.065316	0.047456	0.117478
C63	C	-0.669083	-0.891142	-0.412920
C64	C	-0.169083	-0.391142	0.087080
C65	C	-0.769359	-0.878151	-0.425945
C66	C	-0.269359	-0.378151	0.074055
C67	C	-1.051988	-1.014783	-0.289667
C68	C	-0.551988	-0.514783	0.210333
C69	C	-0.957774	-1.026989	-0.277426
C70	C	-0.457774	-0.526989	0.222574
C71	C	-0.910665	-0.989780	-0.314555
C72	C	-0.410665	-0.489780	0.185445
C73	C	-0.957780	-0.940364	-0.363927
C74	C	-0.457780	-0.440364	0.136073
C75	C	-1.052003	-0.928154	-0.376165
C76	C	-0.552003	-0.428154	0.123835
C77	C	-0.910681	-0.903151	-0.401053
C78	C	-0.410681	-0.403151	0.098947
C79	C	-0.957795	-0.853734	-0.450425
C80	C	-0.457795	-0.353734	0.049575
C81	C	-1.052009	-0.841527	-0.462662
C82	C	-0.552009	-0.341527	0.037338
C83	C	-1.099117	-0.878735	-0.425533
C84	C	-0.599117	-0.378735	0.074467
C85	C	-0.816458	-0.915361	-0.388815
C86	C	-0.316458	-0.415361	0.111185
C87	C	-0.816473	-0.828732	-0.475313
C88	C	-0.316473	-0.328732	0.024687
C89	C	-0.910687	-0.816526	-0.487554
C90	C	-0.410687	-0.316526	0.012446
C91	C	-0.199377	-0.952303	-0.352030
C92	C	0.300623	-0.452303	0.147970
C93	C	-0.099102	-0.965364	-0.339034
C94	C	0.400898	-0.465364	0.160966
C95	C	-0.434626	-0.921692	-0.559062
C96	C	0.065374	-0.421692	-0.059062
C97	C	-0.434599	-0.921708	-0.634291
C98	C	0.065401	-0.421708	-0.134291
C99	C	-0.434715	-0.098193	-0.382546
C100	C	0.065285	0.401807	0.117454
C101	C	-0.434709	-0.173426	-0.382536
C102	C	0.065291	0.326574	0.117464
C103	C	-0.376884	-0.885947	-0.662149
C104	C	0.123116	-0.385947	-0.162149
C105	C	-0.376867	-0.885959	-0.732835
C106	C	0.123133	-0.385959	-0.232835
C107	C	-0.434560	-0.921735	-0.775661
C108	C	0.065440	-0.421735	-0.275661
C109	C	-0.492281	-0.957497	-0.747799
C110	C	0.007719	-0.457497	-0.247799
C111	C	-0.492302	-0.957481	-0.677114
C112	C	0.007698	-0.457481	-0.177114
C113	C	-0.492197	-0.957562	-1.032861
C114	C	0.007803	-0.457562	-0.532861
C115	C	-0.492169	-0.957577	-1.103550
C116	C	0.007831	-0.457577	-0.603550
C117	C	-0.376761	-0.886039	-1.088582
C118	C	0.123239	-0.386039	-0.588582
C119	C	-0.376782	-0.886023	-1.017898
C120	C	0.123218	-0.386023	-0.517898
C121	C	-0.434506	-0.921782	-0.990042
C122	C	0.065494	-0.421782	-0.490042
C123	C	-0.434526	-0.921768	-0.913396
C124	C	0.065474	-0.421768	-0.413396
C125	C	-0.434536	-0.921754	-0.852305
C126	C	0.065464	-0.421754	-0.352305
C127	C	-0.434685	-0.921664	-0.206671
C128	C	0.065315	-0.421664	0.293329
C129	C	-0.434458	-0.921812	-0.131410
C130	C	0.065542	-0.421812	0.368590
H131	H	-0.539205	-0.522130	-0.317403
H132	H	-0.039205	-0.022130	0.182597
Br133	Br	-0.570531	-1.006096	-0.995065
Br134	Br	-0.070531	-0.506096	-0.495065
H135	H	-0.539199	-0.650376	-0.317394
H136	H	-0.039199	-0.150376	0.182606
Br137	Br	-0.752528	-0.982423	-0.321811
Br138	Br	-0.252528	-0.482423	0.178189
H139	H	-1.175834	-0.868801	-0.435498
H140	H	-0.675834	-0.368801	0.064502
H141	H	-0.919417	-1.067222	-0.237227
H142	H	-0.419417	-0.567222	0.262773
Br143	Br	-0.298585	-0.837381	-0.770647
Br144	Br	0.201415	-0.337381	-0.270647
H145	H	-1.090352	-1.045069	-0.259437
H146	H	-0.590352	-0.545069	0.240563
Br147	Br	-0.752549	-0.778225	-0.525699
Br148	Br	-0.252549	-0.278225	-0.025699
Br149	Br	-0.298855	-0.534280	-0.467108
Br150	Br	0.201145	-0.034280	0.032892
Br151	Br	-0.298846	-0.700893	-0.467106
Br152	Br	0.201154	-0.200893	0.032894
Br153	Br	-1.115949	-0.774457	-0.529662
Br154	Br	-0.615949	-0.274457	-0.029662
H155	H	-0.330176	-0.193615	-0.447648
H156	H	0.169824	0.306385	0.052352
Br157	Br	-0.298575	-0.837396	-0.604033
Br158	Br	0.201425	-0.337396	-0.104033
Br159	Br	-0.974638	-0.749465	-0.554558
Br160	Br	-0.474638	-0.249465	-0.054558
H161	H	-0.833952	-0.999721	-0.304584
H162	H	-0.333952	-0.499721	0.195416
H163	H	-0.539261	-0.986623	-0.782674
H164	H	-0.039261	-0.486623	-0.282674
H165	H	-0.539293	-0.986607	-0.654433
H166	H	-0.039293	-0.486607	-0.154433
Br167	Br	-0.298884	-0.345130	-0.467124
Br168	Br	0.201116	0.154870	0.032876
Br169	Br	-0.570538	-0.143095	-0.297949
Br170	Br	-0.070538	0.356905	0.202051
Br171	Br	-0.298476	-0.837472	-0.959779
Br172	Br	0.201524	-0.337472	-0.459779
Br173	Br	-0.570472	-1.006135	-1.161671
Br174	Br	-0.070472	-0.506135	-0.661671
Br175	Br	-0.570491	-0.309715	-0.297906
Br176	Br	-0.070491	0.190285	0.202094
Br177	Br	-0.298420	-0.837507	-1.126390
Br178	Br	0.201580	-0.337507	-0.626390
