data_functionalizedCrystal
_audit_creation_method	'MofGen! by Chris Wilmer'
_symmetry_space_group_name_H-M	'P1'
_symmetry_Int_Tables_number	1
_symmetry_cell_setting	triclinic
loop_
_symmetry_equiv_pos_as_xyz
  x,y,z
_cell_length_a	14.044220
_cell_length_b	12.837943
_cell_length_c	11.295689
_cell_angle_alpha	85.842480
_cell_angle_beta	94.229295
_cell_angle_gamma	85.991091
loop_
_atom_site_label
_atom_site_type_symbol
_atom_site_fract_x
_atom_site_fract_y
_atom_site_fract_z
O1	O	0.242176	-1.391628	-0.099007
O2	O	0.229900	-1.088687	-0.099014
O3	O	0.097643	-1.235611	-0.098999
O4	O	0.374432	-1.244704	-0.099022
O5	O	0.110270	-1.249206	0.099044
O6	O	0.242527	-1.102282	0.099029
O7	O	0.254802	-1.405223	0.099036
Cu8	Cu	0.249817	-1.254993	0.117115
Cu9	Cu	0.234885	-1.238916	-0.117093
O10	O	0.387059	-1.258298	0.099021
C11	C	0.232067	-1.056480	0.000007
C12	C	0.219699	-0.940259	0.000005
C13	C	0.068283	-1.238428	0.000023
C14	C	-0.038016	-1.226553	0.000024
C15	C	0.252635	-1.437429	0.000012
C16	C	0.265003	-1.553649	0.000007
C17	C	-0.232639	-1.204844	0.000007
C18	C	-0.282665	-1.289061	0.000005
C19	C	-0.390961	-1.276981	-0.000005
C20	C	-0.124334	-1.216922	0.000016
C21	C	0.416420	-1.255482	-0.000004
C22	C	0.522717	-1.267355	-0.000013
N23	N	0.260320	-1.266309	0.281845
C24	C	0.368379	-0.713049	0.000009
C25	C	0.356763	-0.603849	0.000008
C26	C	0.184853	-0.612658	0.000010
C27	C	0.196469	-0.721858	0.000011
C28	C	0.288234	-0.772049	0.000009
C29	C	0.299849	-0.881251	0.000002
C30	C	0.127940	-0.890058	0.000012
C31	C	0.116324	-0.780858	0.000011
C32	C	0.335970	-1.347941	0.468819
C33	C	0.328026	-1.339357	0.344160
C34	C	0.200556	-1.201839	0.344198
C35	C	0.208500	-1.210424	0.468857
C36	C	0.276208	-1.283478	0.531163
C37	C	0.284147	-1.292067	0.655824
C38	C	0.156682	-1.154545	0.655860
C39	C	0.148738	-1.145960	0.531201
N40	N	0.224382	-1.227597	0.718177
H41	H	-0.244168	-1.370227	-0.000073
C42	C	-0.284646	-1.095189	0.000002
C43	C	-0.394512	-1.083109	-0.000005
C44	C	-0.446532	-0.973456	-0.000008
C45	C	-0.388686	-0.875884	-0.000004
C46	C	-0.278813	-0.887961	0.000004
C47	C	-0.226793	-0.997613	0.000007
H48	H	-0.437339	-1.155341	-0.000009
H49	H	-0.527868	-0.964517	-0.000014
H50	H	-0.427194	-0.794712	-0.000006
H51	H	-0.235986	-0.815729	0.000007
H52	H	-0.145458	-1.006553	0.000012
H53	H	0.093613	-1.086479	0.480455
H54	H	0.374569	-0.922115	0.000002
C55	C	0.015387	-0.725639	0.000009
C56	C	-0.009690	-0.658838	0.102845
C57	C	-0.110629	-0.603621	0.102839
C58	C	-0.186492	-0.615205	-0.000003
C59	C	-0.161416	-0.682010	-0.102847
C60	C	-0.060477	-0.737227	-0.102841
H61	H	0.046469	-0.650259	0.178982
H62	H	-0.129191	-0.554168	0.178971
H63	H	-0.261213	-0.574330	-0.000008
H64	H	-0.217576	-0.690588	-0.178984
H65	H	-0.041915	-0.786680	-0.178973
H66	H	0.443098	-0.753916	0.000006
H67	H	0.422025	-0.555815	0.000012
H68	H	0.110147	-0.571779	0.000110
C69	C	0.090923	-1.083636	0.724430
C70	C	0.023085	-1.132634	0.810102
C71	C	-0.042681	-1.061735	0.878668
C72	C	-0.040609	-0.941838	0.861562
C73	C	0.027232	-0.892833	0.775887
C74	C	0.092998	-0.963732	0.707321
H75	H	0.021549	-1.221395	0.822767
H76	H	-0.092902	-1.098012	0.942090
H77	H	-0.089293	-0.889354	0.912319
H78	H	0.028768	-0.804073	0.763222
H79	H	0.143219	-0.927456	0.643899
C80	C	0.358626	-1.372420	0.724366
C81	C	0.354357	-1.489955	0.707194
C82	C	0.428840	-1.570307	0.775733
C83	C	0.507593	-1.533124	0.861445
C84	C	0.511865	-1.415583	0.878621
C85	C	0.437382	-1.335231	0.810082
H86	H	0.296057	-1.517485	0.643741
H87	H	0.425677	-1.657318	0.763018
H88	H	0.562730	-1.592605	0.912182
H89	H	0.570165	-1.388053	0.942074
H90	H	0.440545	-1.248220	0.822797
C91	C	0.410442	-1.428298	0.537369
C92	C	0.406161	-1.545833	0.520208
C93	C	0.480633	-1.626190	0.588760
C94	C	0.559386	-1.589011	0.674473
C95	C	0.563671	-1.471470	0.691639
C96	C	0.489198	-1.391113	0.623087
H97	H	0.347860	-1.573360	0.456754
H98	H	0.477461	-1.713202	0.576052
H99	H	0.614515	-1.648496	0.725219
H100	H	0.621971	-1.443943	0.755092
H101	H	0.492370	-1.304101	0.635794
C102	C	0.393763	-1.410270	0.275580
C103	C	0.468236	-1.490624	0.344119
C104	C	0.533977	-1.561539	0.275539
C105	C	0.525244	-1.552101	0.138420
C106	C	0.450767	-1.471744	0.069872
C107	C	0.385027	-1.400828	0.138452
H108	H	0.474703	-1.497614	0.445631
H109	H	0.589109	-1.621025	0.326283
H110	H	0.573909	-1.604597	0.087652
H111	H	0.444300	-1.464754	-0.031639
H112	H	0.329894	-1.341343	0.087708
C113	C	0.126088	-1.121482	0.275642
C114	C	0.047340	-1.158659	0.189920
C115	C	-0.027128	-1.078301	0.121360
C116	C	-0.022846	-0.960766	0.138523
C117	C	0.055905	-0.923583	0.224250
C118	C	0.130372	-1.003941	0.292809
H119	H	0.044168	-1.245671	0.177211
H120	H	-0.085424	-1.105827	0.057900
H121	H	-0.077971	-0.901280	0.087771
H122	H	0.059077	-0.836571	0.236958
H123	H	0.188669	-0.976415	0.356269
H124	H	0.062681	-0.938107	0.000004
