data_functionalizedCrystal
_audit_creation_method	'MofGen! by Chris Wilmer'
_symmetry_space_group_name_H-M	'P1'
_symmetry_Int_Tables_number	1
_symmetry_cell_setting	triclinic
loop_
_symmetry_equiv_pos_as_xyz
  x,y,z
_cell_length_a	14.519709
_cell_length_b	14.044190
_cell_length_c	13.101018
_cell_angle_alpha	86.339369
_cell_angle_beta	93.362947
_cell_angle_gamma	88.435961
loop_
_atom_site_label
_atom_site_type_symbol
_atom_site_fract_x
_atom_site_fract_y
_atom_site_fract_z
O1	O	1.238537	0.119059	0.085091
O2	O	1.738537	0.619059	0.585091
O3	O	0.971243	0.133692	0.085124
O4	O	1.471243	0.633692	0.585124
O5	O	1.100873	-0.011615	0.085088
O6	O	1.600873	0.488385	0.585088
O7	O	1.108907	0.264366	0.085127
O8	O	1.608907	0.764366	0.585127
O9	O	1.091562	-0.001180	-0.085340
O10	O	1.591562	0.498820	0.414660
O11	O	0.961931	0.144126	-0.085304
O12	O	1.461931	0.644126	0.414696
O13	O	1.229225	0.129494	-0.085336
O14	O	1.729225	0.629494	0.414664
Zn15	Zn	1.094100	0.138467	-0.112379
Zn16	Zn	1.594100	0.638467	0.387621
Zn17	Zn	1.106368	0.124719	0.112167
Zn18	Zn	1.606368	0.624719	0.612167
O19	O	1.099595	0.274800	-0.085301
O20	O	1.599595	0.774800	0.414699
C21	C	0.932172	0.138227	-0.000086
C22	C	1.432172	0.638227	0.499914
C23	C	0.829627	0.136182	-0.000074
C24	C	1.329627	0.636182	0.499926
C25	C	0.454121	0.128661	-0.000122
C26	C	0.954121	0.628661	0.499878
C27	C	0.558599	0.130750	-0.000109
C28	C	1.058599	0.630750	0.499891
C29	C	0.641871	0.132421	-0.000097
C30	C	1.141871	0.632421	0.499903
C31	C	0.746355	0.134511	-0.000086
C32	C	1.246355	0.634511	0.499914
C33	C	1.092704	-0.041718	-0.000129
C34	C	1.592704	0.458282	0.499871
C35	C	1.082224	-0.146961	-0.000136
C36	C	1.582224	0.353039	0.499864
C37	C	1.137391	-0.397156	-0.000103
C38	C	1.637391	0.102844	0.499897
C39	C	1.063082	-0.339653	-0.000101
C40	C	1.563082	0.160347	0.499899
C41	C	1.073735	-0.232430	-0.000121
C42	C	1.573735	0.267570	0.499879
C43	C	1.126739	-0.504390	-0.000083
C44	C	1.626739	-0.004390	0.499917
C45	C	1.268296	0.124959	-0.000124
C46	C	1.768296	0.624959	0.499876
C47	C	1.370842	0.127003	-0.000129
C48	C	1.870842	0.627003	0.499871
C49	C	1.107764	0.304903	-0.000082
C50	C	1.607764	0.804903	0.499918
C51	C	1.118245	0.410146	-0.000067
C52	C	1.618245	0.910146	0.499933
N53	N	1.085733	0.147849	-0.265626
N54	N	1.585733	0.647849	0.234374
C55	C	1.126119	0.102560	-0.525547
C56	C	1.626119	0.602560	-0.025547
C57	C	1.074358	0.160614	-0.474659
C58	C	1.574358	0.660614	0.025341
C59	C	1.080689	0.153510	-0.358342
C60	C	1.580689	0.653510	0.141658
C61	C	1.119790	0.109664	-0.641874
C62	C	1.619790	0.609664	-0.141874
N63	N	1.114741	0.115329	0.265413
N64	N	1.614741	0.615329	0.765413
H65	H	0.991462	-0.370951	-0.000086
H66	H	1.491462	0.129049	0.499914
H67	H	1.175185	0.047527	-0.481760
H68	H	1.675185	0.547527	0.018240
H69	H	1.209005	-0.365860	-0.000122
H70	H	1.709005	0.134140	0.499878
Br71	Br	0.992576	0.252349	-0.547645
Br72	Br	1.492576	0.752349	-0.047645
