data_functionalizedCrystal
_audit_creation_method	'MofGen! by Chris Wilmer'
_symmetry_space_group_name_H-M	'P1'
_symmetry_Int_Tables_number	1
_symmetry_cell_setting	triclinic
loop_
_symmetry_equiv_pos_as_xyz
  x,y,z
_cell_length_a	6.817900
_cell_length_b	17.982959
_cell_length_c	16.015572
_cell_angle_alpha	78.160019
_cell_angle_beta	104.485554
_cell_angle_gamma	102.451857
loop_
_atom_site_label
_atom_site_type_symbol
_atom_site_fract_x
_atom_site_fract_y
_atom_site_fract_z
V1	V	-3.990110	-0.030701	-0.269498
O2	O	-3.983612	0.078252	-0.263997
O3	O	-3.936788	-0.134716	-0.268012
O4	O	-3.928046	0.003460	-0.386873
O5	O	-3.992415	-0.060880	-0.144313
V6	V	-4.476146	-0.021650	-0.254482
O7	O	-4.245855	-0.050556	-0.302438
O8	O	-4.670598	-0.001794	-0.221542
O9	O	-4.306261	0.082365	-0.255968
O10	O	-4.600040	-0.130603	-0.259983
O11	O	-4.591237	0.008529	-0.379667
O12	O	-4.315003	-0.055810	-0.137107
C13	C	-3.781034	-0.161125	-0.263852
C14	C	-3.818633	-0.245942	-0.263419
C15	C	-3.769881	0.015132	-0.415470
C16	C	-3.800388	0.042374	-0.511427
C17	C	-4.017712	-0.288472	-0.267535
C18	C	-4.053030	-0.368165	-0.267133
C19	C	-3.889265	-0.405328	-0.262610
C20	C	-3.690172	-0.362791	-0.258496
C21	C	-3.654858	-0.283099	-0.258904
C22	C	-3.832583	-0.684183	-0.256852
C23	C	-3.867912	-0.763882	-0.256442
C24	C	-4.230755	-0.769250	-0.265081
C25	C	-4.195442	-0.689557	-0.265489
C26	C	-3.996354	-0.647027	-0.261380
C27	C	-3.958061	-0.560614	-0.261817
C28	C	-3.927554	-0.491740	-0.262166
C29	C	-4.077582	-0.199424	-0.889887
C30	C	-4.106253	-0.173801	-0.980049
C31	C	-4.035538	-0.041239	-0.954889
C32	C	-4.006849	-0.066850	-0.864723
C33	C	-4.027878	-0.145944	-0.832230
C34	C	-3.957145	-0.013370	-0.807065
C35	C	-3.928470	-0.038980	-0.716907
C36	C	-3.949500	-0.118070	-0.684407
C37	C	-3.999203	-0.171553	-0.742072
C38	C	-3.936132	0.065723	-0.839560
C39	C	-3.886428	0.119203	-0.781902
C40	C	-3.857738	0.093593	-0.691742
C41	C	-3.878767	0.014503	-0.659242
C42	C	-3.808035	0.147077	-0.634077
C43	C	-3.779360	0.121467	-0.543920
C44	C	-3.850093	-0.011106	-0.569085
C45	C	-4.125357	0.108770	-0.260125
C46	C	-4.066996	0.193587	-0.260564
C47	C	-4.136511	-0.067486	-0.108505
C48	C	-4.085242	-0.094725	-0.012547
H49	H	-4.215137	-0.402790	-0.270486
C50	C	-3.512617	-0.403283	-0.253546
C51	C	-3.586138	-0.482182	-0.254044
C52	C	-3.422624	-0.519507	-0.249470
H53	H	-3.451660	-0.382147	-0.302415
H54	H	-3.412792	-0.396229	-0.201222
H55	H	-3.685927	-0.489231	-0.306362
H56	H	-3.647077	-0.503340	-0.205178
H57	H	-3.322798	-0.512453	-0.197146
H58	H	-3.361677	-0.498365	-0.298340
H59	H	-3.472481	-0.573045	-0.249799
C60	C	-4.160529	-0.231959	-1.042561
C61	C	-4.346085	-0.280624	-1.032359
C62	C	-4.396143	-0.334211	-1.089923
H63	H	-4.174760	-0.205480	-1.100945
H64	H	-4.054386	-0.261789	-1.030134
H65	H	-4.452202	-0.250797	-1.044793
H66	H	-4.331903	-0.307120	-0.973988
H67	H	-4.290001	-0.364041	-1.077496
H68	H	-4.410364	-0.307725	-1.148303
H69	H	-4.522036	-0.367241	-1.083003
C70	C	-3.863583	0.205042	-0.817352
C71	C	-3.899286	0.216026	-0.908649
C72	C	-3.878223	0.295092	-0.941332
H73	H	-3.960371	0.226517	-0.800314
H74	H	-3.728259	0.229749	-0.794640
H75	H	-4.034590	0.191329	-0.931352
H76	H	-3.802508	0.194569	-0.925710
H77	H	-3.742899	0.319800	-0.918619
H78	H	-3.975014	0.316561	-0.924288
H79	H	-3.902426	0.302556	-1.003278
C80	C	-4.021191	-0.257415	-0.706764
C81	C	-3.878007	-0.288584	-0.732144
C82	C	-3.897958	-0.367660	-0.699584
H83	H	-3.996739	-0.265002	-0.644815
H84	H	-4.156311	-0.282330	-0.729427
H85	H	-3.742918	-0.263677	-0.709478
H86	H	-3.902431	-0.281017	-0.794089
H87	H	-4.033078	-0.392575	-0.722246
H88	H	-3.873508	-0.375240	-0.637635
H89	H	-3.800825	-0.388819	-0.716806
H90	H	-3.926155	-0.138920	-0.610995
H91	H	-4.151070	-0.258222	-0.271210
H92	H	-3.790940	0.211475	-0.660548
C93	C	-3.725297	0.179651	-0.481452
C94	C	-3.712962	0.254399	-0.529202
C95	C	-3.663148	0.308018	-0.471686
H96	H	-3.828611	0.170867	-0.448551
H97	H	-3.596526	0.174110	-0.442952
H98	H	-3.841716	0.259936	-0.567687
H99	H	-3.609645	0.263207	-0.562101
H100	H	-3.534377	0.302478	-0.433186
H101	H	-3.766467	0.299227	-0.438788
H102	H	-3.654753	0.358740	-0.504076
H103	H	-4.392866	-0.803887	-0.268428
H104	H	-4.328798	-0.659304	-0.269168
C105	C	-4.012692	0.044600	-0.990339
C106	C	-4.048395	0.055585	-1.081635
C107	C	-4.027333	0.134651	-1.114318
H108	H	-4.109481	0.066076	-0.973301
H109	H	-3.877369	0.069308	-0.967626
H110	H	-4.183699	0.030888	-1.104339
H111	H	-3.951618	0.034127	-1.098697
H112	H	-3.892009	0.159358	-1.091606
H113	H	-4.124124	0.156119	-1.097274
H114	H	-4.051535	0.142114	-1.176265
C115	C	-3.690110	-0.804297	-0.251358
C116	C	-3.670991	-0.860299	-0.176214
C117	C	-3.507218	-0.897538	-0.171495
H118	H	-3.715660	-0.828278	-0.301549
H119	H	-3.566417	-0.767584	-0.248923
H120	H	-3.794655	-0.897006	-0.178656
H121	H	-3.645410	-0.836337	-0.126010
H122	H	-3.383525	-0.860825	-0.169059
H123	H	-3.532783	-0.921515	-0.221689
H124	H	-3.494212	-0.935534	-0.120506
H125	H	-3.670477	-0.649565	-0.253502
H126	H	-3.492752	-0.248471	-0.255557
H127	H	-3.867189	-0.075511	-0.542627
H128	H	-4.094678	-0.263829	-0.863430
H129	H	-3.959451	0.086572	-0.912972
