data_functionalizedCrystal
_audit_creation_method	'MofGen! by Chris Wilmer'
_symmetry_space_group_name_H-M	'P1'
_symmetry_Int_Tables_number	1
_symmetry_cell_setting	triclinic
loop_
_symmetry_equiv_pos_as_xyz
  x,y,z
_cell_length_a	16.109301
_cell_length_b	9.198806
_cell_length_c	16.109301
_cell_angle_alpha	90.003194
_cell_angle_beta	83.461532
_cell_angle_gamma	90.001223
loop_
_atom_site_label
_atom_site_type_symbol
_atom_site_fract_x
_atom_site_fract_y
_atom_site_fract_z
O1	O	1.103132	0.120801	0.106865
O2	O	0.861070	0.120824	0.120165
O3	O	0.988750	0.120802	-0.007516
O4	O	0.975451	0.120822	0.234546
O5	O	0.988740	-0.120983	-0.007516
O6	O	0.861059	-0.120961	0.120164
O7	O	1.103121	-0.120985	0.106865
Cu8	Cu	0.982090	-0.143050	0.113515
Cu9	Cu	0.982101	0.142889	0.113515
O10	O	0.975441	-0.120963	0.234546
C11	C	0.830090	-0.000066	0.119626
C12	C	0.737794	-0.000057	0.118011
N13	N	0.982087	-0.344164	0.113514
C14	C	0.515522	-0.000068	0.190018
C15	C	0.428802	-0.000078	0.188494
C16	C	0.448676	-0.000084	0.037006
C17	C	0.535395	-0.000085	0.038530
C18	C	0.568815	-0.000070	0.115039
C19	C	0.395376	-0.000078	0.111990
C20	C	0.301350	-0.000089	0.110337
C21	C	0.662847	-0.000062	0.116693
C22	C	1.035699	-0.416370	0.059670
C23	C	1.035712	-0.583782	0.059667
C24	C	1.134101	-0.000092	0.107404
C25	C	1.226397	-0.000091	0.109019
C26	C	0.988206	-0.000090	-0.038491
C27	C	0.986591	-0.000088	-0.130786
N28	N	0.982110	0.344003	0.113509
C29	C	1.057074	-0.000069	-0.439785
C30	C	1.058600	-0.000078	-0.353064
C31	C	0.907111	-0.000083	-0.333191
C32	C	0.905586	-0.000085	-0.419910
C33	C	0.980571	-0.000071	-0.473205
C34	C	0.983620	-0.000077	-0.299766
C35	C	0.985274	-0.000087	-0.205740
C36	C	0.978917	-0.000064	-0.567237
C37	C	0.975985	-0.000068	0.265521
C38	C	0.977600	-0.000060	0.357816
H39	H	0.385413	-0.000079	0.249550
H40	H	0.936212	-0.593912	0.159612
H41	H	0.843284	-0.000092	-0.447120
H42	H	0.542730	-0.000066	0.252317
H43	H	1.081614	-0.645876	0.013572
H44	H	0.421454	-0.000106	-0.025285
H45	H	1.120896	-0.000080	-0.325859
O46	O	0.921302	-0.426420	0.174589
H47	H	0.880836	-0.495793	0.139675
H48	H	1.118131	-0.000058	-0.483175
O49	O	0.826237	-0.000093	-0.275710
H50	H	0.823302	0.098461	-0.235728
O51	O	0.592885	-0.000090	-0.042343
H52	H	0.555079	-0.000081	-0.095801
H53	H	1.081585	-0.354252	0.013571
