data_functionalizedCrystal
_audit_creation_method	'MofGen! by Chris Wilmer'
_symmetry_space_group_name_H-M	'P1'
_symmetry_Int_Tables_number	1
_symmetry_cell_setting	triclinic
loop_
_symmetry_equiv_pos_as_xyz
  x,y,z
_cell_length_a	8.559649
_cell_length_b	17.038272
_cell_length_c	7.681481
_cell_angle_alpha	83.842174
_cell_angle_beta	94.913240
_cell_angle_gamma	80.445110
loop_
_atom_site_label
_atom_site_type_symbol
_atom_site_fract_x
_atom_site_fract_y
_atom_site_fract_z
O1	O	2.102567	-0.018069	-0.146400
O2	O	1.642806	0.021983	-0.146410
O3	O	1.869955	-0.111695	-0.146391
O4	O	1.875418	0.115610	-0.146419
O5	O	1.897909	-0.128182	0.146469
O6	O	1.670760	0.005496	0.146450
O7	O	2.130521	-0.034556	0.146460
Zn8	Zn	1.905079	-0.017147	0.192953
Zn9	Zn	1.868248	0.004575	-0.192903
O10	O	1.903372	0.099123	0.146441
C11	C	1.597666	0.016775	0.000018
C12	C	1.421513	0.025810	0.000015
C13	C	1.878962	-0.148769	0.000039
C14	C	1.864132	-0.234673	0.000038
C15	C	2.000285	-0.292946	0.000043
C16	C	1.986340	-0.373660	0.000026
C17	C	1.836242	-0.396101	0.000016
C18	C	1.700079	-0.337821	0.000006
C19	C	1.714024	-0.257108	0.000010
C20	C	1.786975	-0.638906	-0.000009
C21	C	1.773041	-0.719626	-0.000008
C22	C	2.059303	-0.755459	0.000008
C23	C	2.073236	-0.674743	0.000023
C24	C	1.937072	-0.616470	0.000004
C25	C	1.821985	-0.478604	0.000004
C26	C	1.951329	-0.533968	0.000003
C27	C	2.175661	-0.029347	0.000028
C28	C	2.351812	-0.038381	0.000020
C29	C	1.894365	0.136197	0.000008
C30	C	1.909193	0.222102	-0.000003
N31	N	1.930226	-0.031973	0.456289
N32	N	1.843113	0.019394	-0.456239
H33	H	2.122512	-0.274682	0.000061
H34	H	2.019169	-0.084402	0.531503
H35	H	1.650810	-0.737894	0.000013
N36	N	1.451258	-0.120337	0.000021
H37	H	1.567219	-0.115392	0.000023
H38	H	1.436828	-0.156335	0.108592
H39	H	2.097211	-0.421103	0.000034
H40	H	1.754187	0.071824	0.468556
H41	H	2.195461	-0.656479	0.000031
N42	N	1.322057	0.107772	-0.000014
H43	H	1.206095	0.102829	-0.000020
H44	H	1.357210	0.131546	0.108550
N45	N	2.206150	-0.818314	0.000027
H46	H	2.196385	-0.846485	-0.108538
H47	H	2.303279	-0.791796	0.000101
H48	H	1.676100	-0.591469	-0.000025
N49	N	1.538183	-0.362020	-0.000016
H50	H	1.550006	-0.421994	-0.000012
H51	H	1.488481	-0.346200	0.108548
N52	N	1.567189	-0.194249	0.000041
H53	H	1.556229	-0.153845	-0.108516
H54	H	1.470065	-0.220768	0.000113
N55	N	2.113216	-0.509767	0.000033
H56	H	2.197364	-0.558928	0.000043
H57	H	2.114879	-0.470943	-0.108530
N58	N	1.660094	-0.502806	0.000010
H59	H	1.637568	-0.529380	-0.108555
H60	H	1.658412	-0.541584	0.108643
