data_functionalizedCrystal
_audit_creation_method	'MofGen! by Chris Wilmer'
_symmetry_space_group_name_H-M	'P1'
_symmetry_Int_Tables_number	1
_symmetry_cell_setting	triclinic
loop_
_symmetry_equiv_pos_as_xyz
  x,y,z
_cell_length_a	14.908571
_cell_length_b	18.050589
_cell_length_c	14.908308
_cell_angle_alpha	93.269302
_cell_angle_beta	90.175053
_cell_angle_gamma	86.724558
loop_
_atom_site_label
_atom_site_type_symbol
_atom_site_fract_x
_atom_site_fract_y
_atom_site_fract_z
Zn1	Zn	1.345230	-0.387558	-0.587600
Zn2	Zn	1.353791	-0.505024	-0.437245
Zn3	Zn	1.203548	-0.373294	-0.428597
Zn4	Zn	1.194819	-0.504142	-0.578897
O5	O	1.274347	-0.442504	-0.508085
O6	O	1.472191	-0.409479	-0.574916
O7	O	1.341097	-0.481949	-0.310273
O8	O	1.222413	-0.271266	-0.449712
O9	O	1.478480	-0.495781	-0.464452
O10	O	1.326506	-0.281746	-0.566530
O11	O	1.230714	-0.385168	-0.303919
O12	O	1.076565	-0.384312	-0.441273
O13	O	1.207536	-0.494277	-0.705876
O14	O	1.070152	-0.480446	-0.551698
O15	O	1.318042	-0.408624	-0.712270
O16	O	1.332633	-0.608827	-0.456013
O17	O	1.215836	-0.608179	-0.560084
C18	C	1.040734	-0.430736	-0.494603
C19	C	0.940791	-0.425720	-0.488857
C20	C	1.274239	-0.635451	-0.508063
C21	C	1.274274	-0.717999	-0.508089
C22	C	0.746369	-0.516539	-0.592890
C23	C	0.652464	-0.511829	-0.587494
C24	C	0.659075	-0.411586	-0.472674
C25	C	0.752980	-0.416296	-0.478070
C26	C	0.796623	-0.468775	-0.538179
C27	C	0.890530	-0.473489	-0.543570
C28	C	0.897139	-0.373243	-0.428755
C29	C	0.803235	-0.368533	-0.423359
C30	C	1.210820	-0.917126	-0.564665
C31	C	1.193639	-0.961795	-0.481356
C32	C	1.274362	-0.869134	-0.508106
C33	C	1.291586	-0.971550	-0.591427
C34	C	1.274444	-1.015125	-0.508129
C35	C	1.257140	-0.912712	-0.424750
C36	C	1.355122	-0.922467	-0.534880
C37	C	1.337975	-0.967112	-0.451515
C38	C	1.274312	-0.785033	-0.508094
C39	C	1.274495	-1.099224	-0.508132
C40	C	1.508873	-0.454320	-0.521619
C41	C	1.608814	-0.459355	-0.527387
C42	C	1.260860	-0.452943	-0.742610
C43	C	1.255113	-0.457391	-0.842551
C44	C	1.274479	-0.248807	-0.508127
C45	C	1.274535	-0.166265	-0.508145
C46	C	1.359381	-0.376542	-1.037010
C47	C	1.353984	-0.380719	-1.130914
C48	C	1.238917	-0.469919	-1.124263
C49	C	1.244314	-0.465741	-1.030360
C50	C	1.304549	-0.419052	-0.986737
C51	C	1.309951	-0.414880	-0.892832
C52	C	1.194880	-0.504075	-0.886183
C53	C	1.189483	-0.508252	-0.980086
C54	C	1.287833	-0.432055	-0.274474
C55	C	1.293755	-0.427407	-0.174544
H56	H	0.926063	-0.516221	-0.592512
O57	O	1.407285	-0.339535	-1.179853
C58	C	1.462229	-0.387153	-1.237498
H59	H	1.429677	-0.442463	-1.249726
H60	H	1.530939	-0.397054	-1.205152
C61	C	1.513384	-0.283148	-1.312624
C62	C	1.473399	-0.351078	-1.327649
H63	H	1.520279	-0.260894	-1.368232
H64	H	1.476371	-0.251066	-1.273785
H65	H	1.570638	-0.291408	-1.285666
H66	H	1.416142	-0.342816	-1.354596
H67	H	1.510404	-0.383157	-1.366495
H68	H	1.408431	-0.338530	-1.001492
H69	H	1.358998	-0.376864	-0.857315
H70	H	1.189877	-0.507930	-1.159798
O71	O	1.141699	-0.545482	-0.837395
C72	C	1.159965	-0.621506	-0.861482
H73	H	1.230312	-0.630021	-0.891435
H74	H	1.108614	-0.640911	-0.913209
C75	C	1.067856	-0.656375	-0.740667
C76	C	1.154260	-0.666835	-0.777449
H77	H	1.064333	-0.684337	-0.688834
H78	H	1.055546	-0.605157	-0.724441
H79	H	1.025073	-0.672546	-0.783782
H80	H	1.197039	-0.650656	-0.734339
H81	H	1.166576	-0.718052	-0.793667
H82	H	0.938067	-0.334352	-0.384203
H83	H	1.140439	-0.546263	-1.015617
H84	H	0.781904	-0.559273	-0.641828
H85	H	0.611550	-0.550721	-0.632047
H86	H	0.623524	-0.368856	-0.423742
O87	O	1.112208	-0.982703	-0.454469
C88	C	1.074803	-1.028221	-0.523168
H89	H	1.130748	-1.054623	-0.568437
H90	H	1.026078	-0.993132	-0.564601
C91	C	0.955479	-1.057252	-0.425491
C92	C	1.024192	-1.089684	-0.481087
H93	H	0.924256	-1.095163	-0.399534
H94	H	0.980677	-1.026583	-0.379207
H95	H	0.914885	-1.028012	-0.460027
H96	H	1.064791	-1.118915	-0.446549
H97	H	0.998999	-1.120359	-0.527364
O98	O	0.760798	-0.317657	-0.364877
C99	C	0.709771	-0.354550	-0.303613
H100	H	0.738371	-0.414200	-0.299565
H101	H	0.637011	-0.354810	-0.327325
C102	C	0.678557	-0.240659	-0.215101
C103	C	0.713689	-0.313921	-0.210123
H104	H	0.680970	-0.215596	-0.157432
H105	H	0.712933	-0.215802	-0.256377
H106	H	0.617927	-0.240885	-0.234864
H107	H	0.774321	-0.313693	-0.190371
H108	H	0.679324	-0.338777	-0.168841
O109	O	1.146520	-0.890965	-0.621528
C110	C	1.061527	-0.910835	-0.592986
H111	H	1.064189	-0.921304	-0.518311
H112	H	1.042330	-0.963481	-0.632595
C113	C	0.987754	-0.834422	-0.700897
C114	C	0.991021	-0.847275	-0.609177
H115	H	0.944261	-0.795218	-0.710888
H116	H	1.045015	-0.821038	-0.720129
H117	H	0.971759	-0.878299	-0.733893
H118	H	1.007027	-0.803402	-0.576184
H119	H	0.933761	-0.860651	-0.589940
O120	O	1.239671	-0.882053	-0.340731
C121	C	1.239823	-0.804002	-0.341736
H122	H	1.225634	-0.786233	-0.412796
H123	H	1.308288	-0.784990	-0.318944
C124	C	1.184098	-0.790254	-0.190354
C125	C	1.166663	-0.768429	-0.277630
H126	H	1.138973	-0.768309	-0.150808
H127	H	1.183999	-0.842838	-0.189675
H128	H	1.241154	-0.774409	-0.171373
H129	H	1.109614	-0.784282	-0.296613
H130	H	1.166751	-0.715846	-0.278311
H131	H	1.391749	-0.988912	-0.403636
O132	O	1.436494	-0.901674	-0.562070
C133	C	1.454358	-0.931778	-0.649972
H134	H	1.388390	-0.944210	-0.685035
H135	H	1.498338	-0.985351	-0.646859
C136	C	1.584596	-0.860229	-0.659767
C137	C	1.503572	-0.875493	-0.702835
H138	H	1.614958	-0.825512	-0.692375
H139	H	1.572564	-0.839949	-0.600544
H140	H	1.621235	-0.904878	-0.657175
H141	H	1.466931	-0.830846	-0.705416
H142	H	1.515600	-0.895764	-0.762059
O143	O	1.308825	-1.002104	-0.675539
C144	C	1.241611	-0.976618	-0.734922
H145	H	1.208886	-0.921739	-0.706269
H146	H	1.188587	-1.019533	-0.743625
C147	C	1.324215	-1.032341	-0.861933
C148	C	1.284027	-0.964934	-0.826744
H149	H	1.350377	-1.025137	-0.918574
H150	H	1.369497	-1.049514	-0.821925
H151	H	1.280021	-1.068097	-0.869177
H152	H	1.328222	-0.929183	-0.819489
H153	H	1.238752	-0.947754	-0.866752
