data_functionalizedCrystal
_audit_creation_method	'MofGen! by Chris Wilmer'
_symmetry_space_group_name_H-M	'P1'
_symmetry_Int_Tables_number	1
_symmetry_cell_setting	triclinic
loop_
_symmetry_equiv_pos_as_xyz
  x,y,z
_cell_length_a	31.640172
_cell_length_b	31.640171
_cell_length_c	31.640172
_cell_angle_alpha	59.992309
_cell_angle_beta	90.011976
_cell_angle_gamma	59.992468
loop_
_atom_site_label
_atom_site_type_symbol
_atom_site_fract_x
_atom_site_fract_y
_atom_site_fract_z
Zr1	Zr	0.407054	0.462730	-0.055622
O2	O	0.339538	0.550931	-0.123152
O3	O	0.427768	0.374525	-0.034892
O4	O	0.427741	0.462714	-0.123098
O5	O	0.339568	0.462757	0.034600
O6	O	0.497298	0.462705	-0.123089
O7	O	0.339565	0.462743	-0.034946
O8	O	0.497347	0.304952	0.034696
O9	O	0.339519	0.620510	-0.123184
O10	O	0.488492	0.410800	-0.026079
O11	O	0.436584	0.410817	0.025815
O12	O	0.436552	0.514647	-0.078036
O13	O	0.384644	0.514664	-0.026142
Zr14	Zr	0.517994	0.462738	0.055310
Zr15	Zr	0.517990	0.462716	-0.055608
Zr16	Zr	0.407058	0.462752	0.055295
Zr17	Zr	0.407024	0.573700	-0.055675
Zr18	Zr	0.518024	0.351768	0.055362
O19	O	0.497280	0.550943	0.034580
O20	O	0.497274	0.550911	-0.123131
O21	O	0.339544	0.550963	0.034559
O22	O	0.585510	0.374537	0.122839
O23	O	0.585504	0.374506	-0.034871
O24	O	0.427774	0.374557	0.122818
O25	O	0.585480	0.462712	-0.034913
O26	O	0.497307	0.462754	0.122786
O27	O	0.427750	0.462763	0.122776
O28	O	0.585483	0.462726	0.034633
O29	O	0.427698	0.620499	-0.123173
O30	O	0.497350	0.304970	0.122860
O31	O	0.585529	0.304959	0.122872
O32	O	0.585526	0.304941	0.034707
O33	O	0.339522	0.620527	-0.035020
O34	O	0.427701	0.620516	-0.035008
O35	O	0.488496	0.410821	0.077723
O36	O	0.540404	0.410804	0.025829
O37	O	0.488464	0.514651	-0.026128
O38	O	0.436556	0.514668	0.025766
C39	C	0.462562	0.323928	-0.000091
C40	C	0.462574	0.276818	-0.000069
C41	C	0.435429	-0.059395	0.026937
C42	C	0.435456	0.117558	0.026982
O43	O	0.412434	0.140427	0.050042
N44	N	0.462555	0.139678	-0.000101
C45	C	0.489652	0.117554	-0.027195
O46	O	0.512706	0.140424	-0.050225
C47	C	0.489627	-0.059402	-0.027237
C48	C	0.462522	-0.081515	-0.000156
C49	C	0.408326	-0.081509	0.054015
C50	C	0.408317	-0.125743	0.054002
C51	C	0.435411	-0.147862	0.026909
C52	C	0.462513	-0.125749	-0.000170
C53	C	0.516727	-0.081528	-0.054327
C54	C	0.516719	-0.125771	-0.054334
C55	C	0.489614	-0.147884	-0.027254
C56	C	0.489598	-0.192102	-0.027277
N57	N	0.462499	-0.214222	-0.000194
C58	C	0.435405	-0.192102	0.026899
C59	C	0.489662	0.210459	-0.027171
C60	C	0.489668	0.254699	-0.027162
C61	C	0.435473	0.254699	0.027016
C62	C	0.435465	0.210462	0.027003
C63	C	0.462563	0.188339	-0.000088
C64	C	0.435388	-0.284995	0.026867
C65	C	0.435380	-0.329231	0.026849
C66	C	0.489577	-0.329229	-0.027326
C67	C	0.489583	-0.284995	-0.027311
C68	C	0.462488	-0.262881	-0.000210
O69	O	0.512613	-0.215003	-0.050320
O70	O	0.412364	-0.214989	0.049935
C71	C	0.435438	-0.015162	0.026951
C72	C	0.462540	0.006952	-0.000128
C73	C	0.489633	-0.015168	-0.027221
C74	C	0.462546	0.051191	-0.000119
C75	C	0.435452	0.073311	0.026974
C76	C	0.408353	0.051191	0.054057
C77	C	0.408344	0.006958	0.054043
C78	C	0.516733	0.006952	-0.054304
C79	C	0.516739	0.051186	-0.054289
C80	C	0.489645	0.073306	-0.027196
C81	C	0.323761	0.462752	-0.000175
C82	C	0.276666	0.462758	-0.000181
C83	C	0.011772	0.408521	0.026975
C84	C	-0.165213	0.408511	0.026985
O85	O	-0.165041	0.362409	0.050070
N86	N	-0.214455	0.462718	-0.000136
C87	C	-0.219450	0.516931	-0.027260
O88	O	-0.265394	0.563037	-0.050324
C89	C	-0.042465	0.516941	-0.027267
C90	C	0.006776	0.462730	-0.000147
C91	C	0.061011	0.354315	0.054093
C92	C	0.105254	0.354318	0.054088
C93	C	0.100258	0.408527	0.026965
C94	C	0.051019	0.462733	-0.000153
C95	C	-0.047461	0.571154	-0.054387
C96	C	-0.003209	0.571151	-0.054385
C97	C	0.046032	0.516941	-0.027266
C98	C	0.090267	0.516946	-0.027280
N99	N	0.139509	0.462739	-0.000159
C100	C	0.144504	0.408530	0.026964
C101	C	-0.312367	0.516922	-0.027255
C102	C	-0.356613	0.516920	-0.027254
C103	C	-0.302374	0.408499	0.026992
C104	C	-0.258127	0.408502	0.026988
C105	C	-0.263126	0.462715	-0.000133
C106	C	0.237417	0.408540	0.026951
C107	C	0.281661	0.408548	0.026942
C108	C	0.227418	0.516968	-0.027302
C109	C	0.183177	0.516961	-0.027295
C110	C	0.188180	0.462742	-0.000165
O111	O	0.090134	0.563023	-0.050348
O112	O	0.190453	0.362430	0.050034
C113	C	-0.032472	0.408518	0.026980
C114	C	-0.081711	0.462724	-0.000137
C115	C	-0.086707	0.516933	-0.027260
C116	C	-0.125957	0.462722	-0.000136
C117	C	-0.120961	0.408513	0.026986
C118	C	-0.071719	0.354306	0.054108
C119	C	-0.027476	0.354309	0.054103
C120	C	-0.135948	0.571140	-0.054381
C121	C	-0.180189	0.571133	-0.054375
C122	C	-0.175194	0.516923	-0.027252
C123	C	0.601287	0.462717	-0.000138
C124	C	0.648382	0.462711	-0.000132
C125	C	0.462519	0.462706	-0.138897
C126	C	0.462517	0.462697	-0.185984
C127	C	0.462486	0.601540	-0.000222
C128	C	0.462473	0.648650	-0.000244
C129	C	0.489647	0.408522	-0.495169
C130	C	0.489640	0.408504	-0.318170
O131	O	0.512713	0.362401	-0.272220
N132	N	0.462526	0.462710	-0.323157
C133	C	0.435415	0.516924	-0.372399
O134	O	0.412358	0.563029	-0.372579
C135	C	0.435426	0.516942	-0.549397
C136	C	0.462537	0.462732	-0.544405
C137	C	0.516757	0.354317	-0.490180
C138	C	0.516756	0.354322	-0.534427
C139	C	0.489646	0.408532	-0.583664
C140	C	0.462537	0.462737	-0.588653
C141	C	0.408319	0.571155	-0.598637
C142	C	0.408325	0.571155	-0.642887
C143	C	0.435436	0.516945	-0.637896
C144	C	0.435426	0.516952	-0.682137
N145	N	0.462540	0.462747	-0.677150
C146	C	0.489650	0.408536	-0.627913
C147	C	0.435410	0.516911	-0.279470
C148	C	0.435407	0.516907	-0.235221
C149	C	0.489632	0.408487	-0.180995
C150	C	0.489632	0.408491	-0.225245
C151	C	0.462524	0.462705	-0.274483
C152	C	0.489646	0.408551	-0.720838
C153	C	0.489641	0.408561	-0.765092
C154	C	0.435418	0.516981	-0.819314
C155	C	0.435421	0.516972	-0.775064
C156	C	0.462538	0.462752	-0.725825
O157	O	0.412370	0.563031	-0.728101
O158	O	0.512713	0.362438	-0.627743
C159	C	0.489648	0.408517	-0.450921
C160	C	0.462539	0.462722	-0.455911
C161	C	0.435429	0.516932	-0.505147
C162	C	0.462535	0.462718	-0.411661
C163	C	0.489645	0.408508	-0.362425
C164	C	0.516759	0.354302	-0.357437
C165	C	0.516758	0.354307	-0.401685
C166	C	0.408315	0.571138	-0.510134
C167	C	0.408317	0.571129	-0.465885
C168	C	0.435427	0.516919	-0.416648
C169	C	0.462529	0.462762	0.138584
C170	C	0.462531	0.462771	0.185672
C171	C	0.601325	0.323910	-0.000072
C172	C	0.648433	0.276795	-0.000044
C173	C	0.462567	0.323956	0.138650
C174	C	0.462582	0.276855	0.185759
C175	C	0.601330	0.323938	0.138668
C176	C	0.648440	0.276832	0.185784
C177	C	0.323717	0.601530	-0.138981
C178	C	0.276608	0.648636	-0.186097
C179	C	0.323723	0.601558	-0.000240
C180	C	0.276615	0.648673	-0.000269
C181	C	0.462481	0.601513	-0.138962
C182	C	0.462466	0.648613	-0.186072
C183	C	0.643458	0.254667	-0.027131
C184	C	0.687716	0.210403	-0.027114
C185	C	0.736949	0.188265	-0.000008
C186	C	0.741923	0.210397	0.027080
C187	C	0.697665	0.254663	0.027060
C188	C	0.489686	0.254739	0.234983
C189	C	0.489698	0.210489	0.279251
C190	C	0.462608	0.188354	0.274296
C191	C	0.435500	0.210476	0.225067
C192	C	0.435486	0.254727	0.180800
C193	C	0.697663	0.254702	0.180822
C194	C	0.741932	0.210447	0.225088
C195	C	0.736976	0.188320	0.274316
C196	C	0.687748	0.210455	0.279277
C197	C	0.643481	0.254712	0.235011
C198	C	0.227385	0.670772	-0.181134
C199	C	0.183116	0.715041	-0.225401
C200	C	0.188071	0.737170	-0.274628
C201	C	0.237300	0.715032	-0.279589
C202	C	0.281567	0.670767	-0.235324
C203	C	0.281590	0.670806	0.026814
C204	C	0.237332	0.715082	0.026785
C205	C	0.188099	0.737221	-0.000323
C206	C	0.183124	0.715087	-0.027409
C207	C	0.227383	0.670815	-0.027383
C208	C	0.489561	0.670734	-0.181100
C209	C	0.489558	0.714983	-0.225360
C210	C	0.462456	0.737114	-0.274592
C211	C	0.435360	0.714989	-0.279563
C212	C	0.435367	0.670737	-0.235303
H213	H	0.413393	0.192460	0.049055
H214	H	0.782012	0.192429	0.221039
H215	H	0.511774	0.192484	0.319331
H216	H	0.603374	0.272692	-0.049210
H217	H	0.413294	0.733015	-0.319654
O218	O	0.462413	0.780085	-0.317637
C219	C	0.432671	0.794892	-0.362160
H220	H	0.430642	0.756079	-0.352000
H221	H	0.451434	0.804084	-0.393403
H222	H	0.391887	0.836487	-0.377081
H223	H	0.773026	0.152283	0.310355
H224	H	0.511730	0.192450	-0.049233
O225	O	0.779977	0.145204	0.000107
C226	C	0.809633	0.093992	0.051396
H227	H	0.799964	0.107361	0.079348
H228	H	0.852564	0.072557	0.056540
H229	H	0.800353	0.060649	0.059772
O230	O	0.516025	0.355846	-0.760150
C231	C	0.539943	0.307999	-0.707202
H232	H	0.545304	0.323887	-0.683605
H233	H	0.579316	0.270083	-0.701015
H234	H	0.514553	0.291336	-0.694170
O235	O	-0.297458	0.355801	0.053418
C236	C	-0.270161	0.322843	0.106322
H237	H	-0.245741	0.338258	0.110744
H238	H	-0.243844	0.273248	0.122953
H239	H	-0.298823	0.330373	0.128048
H240	H	0.511746	0.272756	0.239028
H241	H	0.413337	0.561113	-0.779129
O242	O	0.222610	0.649209	-0.053610
C243	C	0.246584	0.587194	-0.018791
H244	H	0.276754	0.568420	0.016877
H245	H	0.266226	0.564248	-0.038431
H246	H	0.216157	0.578766	-0.006663
H247	H	0.413411	0.272718	0.049075
H248	H	0.321646	0.652745	-0.239370
H249	H	0.511704	0.364347	-0.140898
O250	O	0.683031	0.188870	0.327137
C251	C	0.732662	0.145071	0.365137
H252	H	0.761990	0.125720	0.347896
H253	H	0.732198	0.107828	0.399273
H254	H	0.743929	0.166246	0.378970
O255	O	-0.140739	0.623763	-0.080767
C256	C	-0.116789	0.627011	-0.118806
H257	H	-0.086614	0.579943	-0.107394
H258	H	-0.097155	0.649963	-0.122105
H259	H	-0.147228	0.653752	-0.157677
H260	H	0.413345	0.561118	-0.859409
O261	O	0.329373	0.649388	0.053157
C262	C	0.324263	0.678414	0.077061
H263	H	0.284763	0.723282	0.055781
H264	H	0.355998	0.686036	0.075604
H265	H	0.327895	0.649398	0.119126
O266	O	0.462699	0.145347	0.317353
C267	C	0.492423	0.130587	0.361859
H268	H	0.521068	0.142783	0.351692
H269	H	0.514500	0.080562	0.393136
H270	H	0.465739	0.156479	0.376739
H271	H	0.152065	0.773271	-0.000340
H272	H	0.701708	0.272711	0.140742
O273	O	0.381941	0.623762	-0.557989
C274	C	0.343899	0.627024	-0.585215
H275	H	0.355300	0.579961	-0.568312
H276	H	0.340608	0.649975	-0.627805
H277	H	0.305026	0.653774	-0.581546
H278	H	0.511621	0.732993	-0.221302
H279	H	0.241392	0.733096	0.048843
H280	H	-0.396705	0.561063	-0.049344
H281	H	0.413300	0.652731	-0.239359
H282	H	0.386272	-0.011043	0.076095
H283	H	0.143033	0.733120	-0.049479
H284	H	0.413416	0.272729	0.140721
O285	O	0.145121	0.780182	-0.317679
C286	C	0.160044	0.794959	-0.362197
H287	H	0.200891	0.782769	-0.352044
H288	H	0.132064	0.844984	-0.393466
H289	H	0.159245	0.769072	-0.377079
H290	H	0.413445	0.192447	0.221040
H291	H	0.603403	0.272725	0.239059
O292	O	0.242142	0.736402	-0.327397
C293	C	0.269409	0.689135	-0.333014
H294	H	0.293886	0.644880	-0.293155
H295	H	0.295668	0.695800	-0.356348
H296	H	0.240724	0.688504	-0.354082
O297	O	0.222478	0.569678	-0.053691
C298	C	0.169531	0.617528	-0.077615
H299	H	0.145933	0.601641	-0.082977
H300	H	0.163350	0.655441	-0.116988
H301	H	0.156496	0.634196	-0.052229
H302	H	0.413323	-0.266993	0.048934
O303	O	0.409129	-0.350820	0.053196
C304	C	0.443927	-0.412845	0.091242
H305	H	0.479593	-0.431618	0.079862
H306	H	0.424264	-0.435759	0.094506
H307	H	0.456061	-0.421313	0.130121
H308	H	0.012615	0.310165	0.076187
O309	O	0.381997	0.072786	0.080301
C310	C	0.343955	0.134811	0.045500
H311	H	0.355340	0.153581	0.009838
H312	H	0.340688	0.157725	0.065163
H313	H	0.305075	0.143282	0.033360
H314	H	0.223340	0.652757	-0.141055
H315	H	0.143037	0.733057	-0.221351
O316	O	0.409058	0.569620	-0.240164
C317	C	0.385123	0.617464	-0.293114
H318	H	0.406385	0.601567	-0.316698
H319	H	0.386571	0.655374	-0.299288
H320	H	0.343060	0.634138	-0.306172
O321	O	0.515937	0.649286	-0.133318
C322	C	0.539838	0.678316	-0.138431
H323	H	0.545195	0.696545	-0.177920
H324	H	0.579211	0.645110	-0.106680
H325	H	0.514438	0.716764	-0.134827
H326	H	0.413334	0.561061	-0.319560
O327	O	0.382036	-0.147252	0.080380
C328	C	0.401945	-0.172854	0.133285
H329	H	0.443268	-0.186199	0.142919
H330	H	0.401838	-0.214151	0.157790
H331	H	0.376828	-0.138915	0.141928
O332	O	0.381921	-0.059969	0.080267
C333	C	0.329020	-0.034360	0.060320
H334	H	0.319426	-0.021054	0.019008
H335	H	0.304500	0.006964	0.060387
H336	H	0.320358	-0.068280	0.085435
H337	H	0.511733	0.272707	-0.049220
H338	H	-0.220283	0.615281	-0.076463
O339	O	0.543105	-0.060141	-0.080639
C340	C	0.567006	-0.089152	-0.104558
H341	H	0.572360	-0.134001	-0.083306
H342	H	0.606379	-0.096809	-0.103076
H343	H	0.541605	-0.060107	-0.146631
H344	H	0.538788	-0.143782	-0.076394
H345	H	0.511649	-0.266984	-0.049368
H346	H	0.386243	0.615299	-0.602712
O347	O	0.515887	-0.350806	-0.053597
C348	C	0.510055	-0.394582	-0.047807
H349	H	0.500074	-0.413934	-0.011216
H350	H	0.547773	-0.431828	-0.044686
H351	H	0.477603	-0.373383	-0.082837
H352	H	0.538809	0.069191	-0.076346
H353	H	0.538796	-0.011055	-0.076366
H354	H	0.321756	0.364402	0.049027
H355	H	0.386235	0.615276	-0.469957
O356	O	0.682786	0.188952	-0.053432
C357	C	0.629840	0.217992	-0.077363
H358	H	0.606248	0.236234	-0.056118
H359	H	0.623677	0.184790	-0.075888
H360	H	0.616781	0.256433	-0.119435
H361	H	0.241498	0.364390	0.049043
H362	H	0.145345	0.310174	0.076169
O363	O	0.543017	0.301679	-0.309577
C364	C	0.508226	0.298436	-0.282379
H365	H	0.472547	0.345505	-0.299301
H366	H	0.527885	0.275494	-0.239785
H367	H	0.496112	0.271687	-0.286058
O368	O	0.065962	0.301598	0.080448
C369	C	0.118915	0.253763	0.104390
H370	H	0.142496	0.269666	0.083128
H371	H	0.125102	0.215844	0.102950
H372	H	0.131964	0.237099	0.146451
H373	H	-0.316446	0.561071	-0.049344
O374	O	-0.210269	0.355881	0.053372
C375	C	-0.183054	0.352636	0.091409
H376	H	-0.199965	0.399704	0.079997
H377	H	-0.140462	0.329688	0.094704
H378	H	-0.186726	0.325891	0.130282
H379	H	-0.087548	0.615298	-0.076470
O380	O	0.789711	0.188966	0.053425
C381	C	0.784620	0.217969	0.077347
H382	H	0.745128	0.262844	0.056075
H383	H	0.816367	0.225572	0.075901
H384	H	0.788250	0.188945	0.119410
H385	H	0.538835	0.310164	-0.397614
O386	O	-0.008040	0.623800	-0.080650
C387	C	0.015949	0.627047	-0.045875
H388	H	0.018011	0.596286	-0.005039
H389	H	-0.007534	0.674993	-0.057642
H390	H	0.056764	0.612487	-0.046824
O391	O	-0.066805	0.301608	0.080532
C392	C	-0.039504	0.268645	0.133436
H393	H	-0.015082	0.284057	0.137859
H394	H	-0.013189	0.219051	0.150064
H395	H	-0.068164	0.276173	0.155165
H396	H	0.143081	0.561103	-0.049385
H397	H	0.511728	0.364400	-0.680750
O398	O	0.543142	0.301610	-0.529485
C399	C	0.567059	0.253766	-0.476536
H400	H	0.572413	0.269659	-0.452941
H401	H	0.606434	0.215851	-0.470347
H402	H	0.541670	0.237100	-0.463505
H403	H	0.511709	0.364349	-0.221176
O404	O	0.543013	0.301689	-0.442327
C405	C	0.508217	0.298443	-0.415136
H406	H	0.472545	0.345512	-0.432045
H407	H	0.527878	0.275478	-0.372536
H408	H	0.496091	0.271715	-0.418838
H409	H	0.386250	0.615304	-0.682978
H410	H	0.701723	0.272674	0.049120
