data_functionalizedCrystal
_audit_creation_method	'MofGen! by Chris Wilmer'
_symmetry_space_group_name_H-M	'P1'
_symmetry_Int_Tables_number	1
_symmetry_cell_setting	triclinic
loop_
_symmetry_equiv_pos_as_xyz
  x,y,z
_cell_length_a	19.288864
_cell_length_b	14.044220
_cell_length_c	13.101039
_cell_angle_alpha	86.332523
_cell_angle_beta	93.359745
_cell_angle_gamma	88.162561
loop_
_atom_site_label
_atom_site_type_symbol
_atom_site_fract_x
_atom_site_fract_y
_atom_site_fract_z
O1	O	0.932453	0.112946	0.085550
O2	O	1.432453	0.612946	0.585550
O3	O	0.731215	0.128897	0.085481
O4	O	1.231215	0.628897	0.585481
O5	O	0.828813	-0.017050	0.085504
O6	O	1.328813	0.482950	0.585504
O7	O	0.834855	0.258893	0.085526
O8	O	1.334855	0.758893	0.585526
O9	O	0.821811	-0.006561	-0.084928
O10	O	1.321811	0.493439	0.415072
O11	O	0.724213	0.139386	-0.084951
O12	O	1.224213	0.639386	0.415049
O13	O	0.925452	0.123435	-0.084882
O14	O	1.425452	0.623435	0.415118
Zn15	Zn	0.823721	0.133076	-0.111976
Zn16	Zn	1.323721	0.633076	0.388024
Zn17	Zn	0.832946	0.119256	0.112575
Zn18	Zn	1.332946	0.619256	0.612575
O19	O	0.827853	0.269381	-0.084905
O20	O	1.327853	0.769381	0.415095
C21	C	0.701804	0.133629	0.000256
C22	C	1.201804	0.633629	0.500256
C23	C	0.624600	0.132090	0.000229
C24	C	1.124600	0.632090	0.500229
C25	C	0.822668	-0.047108	0.000287
C26	C	1.322668	0.452892	0.500287
C27	C	0.814780	-0.152300	0.000283
C28	C	1.314780	0.347700	0.500283
C29	C	0.585407	0.217723	0.000252
C30	C	1.085407	0.717723	0.500252
C31	C	0.512868	0.216275	0.000263
C32	C	1.012868	0.716275	0.500263
C33	C	0.479525	0.129189	0.000272
C34	C	0.979525	0.629189	0.500272
C35	C	0.518727	0.043545	0.000243
C36	C	1.018727	0.543545	0.500243
C37	C	0.591265	0.044996	0.000221
C38	C	1.091265	0.544996	0.500221
C39	C	0.369318	0.057053	0.060010
C40	C	0.869318	0.557053	0.560010
C41	C	0.296782	0.055605	0.060038
C42	C	0.796782	0.555605	0.560038
C43	C	0.255794	0.124710	0.000333
C44	C	0.755794	0.624710	0.500333
C45	C	0.287352	0.195278	-0.059386
C46	C	0.787352	0.695278	0.440614
C47	C	0.359889	0.196729	-0.059407
C48	C	0.859889	0.696729	0.440593
C49	C	0.400870	0.127606	0.000294
C50	C	0.900870	0.627606	0.500294
C51	C	0.137945	0.208779	0.000367
C52	C	0.637945	0.708779	0.500367
C53	C	0.065404	0.207328	0.000372
C54	C	0.565404	0.707328	0.500372
C55	C	0.071266	0.034595	0.000362
C56	C	0.571266	0.534595	0.500362
C57	C	0.143805	0.036049	0.000347
C58	C	0.643805	0.536049	0.500347
C59	C	0.177140	0.123143	0.000354
C60	C	0.677140	0.623143	0.500354
C61	C	0.800360	-0.344900	0.000293
C62	C	1.300360	0.155100	0.500293
C63	C	0.856304	-0.402774	0.000315
C64	C	1.356304	0.097226	0.500315
C65	C	0.848280	-0.509943	0.000321
C66	C	1.348280	-0.009943	0.500321
C67	C	0.808382	-0.237721	0.000287
C68	C	1.308382	0.262279	0.500287
C69	C	0.954863	0.118703	0.000345
C70	C	1.454863	0.618703	0.500345
C71	C	1.032066	0.120241	0.000379
C72	C	1.532066	0.620241	0.500379
C73	C	0.833999	0.299440	0.000314
C74	C	1.333999	0.799440	0.500314
C75	C	0.841887	0.404631	0.000325
C76	C	1.341887	0.904631	0.500325
N77	N	0.817430	0.142506	-0.265226
N78	N	1.317430	0.642506	0.234774
C79	C	0.808872	0.155346	-0.474271
C80	C	1.308872	0.655346	0.025729
C81	C	0.847797	0.096981	-0.525137
C82	C	1.347797	0.596981	-0.025137
C83	C	0.843035	0.104125	-0.641457
C84	C	1.343035	0.604125	-0.141457
C85	C	0.813633	0.148203	-0.357941
C86	C	1.313633	0.648203	0.142059
N87	N	0.839241	0.109818	0.265825
N88	N	1.339241	0.609818	0.765825
H89	H	0.612544	0.288642	0.000260
H90	H	1.112544	0.788642	0.500260
O91	O	0.927728	-0.361790	0.000329
O92	O	1.427728	0.138210	0.500329
H93	H	0.959187	-0.390504	0.069808
H94	H	1.459187	0.109496	0.569808
O95	O	0.728935	-0.385870	0.000252
O96	O	1.228935	0.114130	0.500252
H97	H	0.733763	-0.464836	0.000246
H98	H	1.233763	0.035164	0.500246
O99	O	0.023131	0.299698	0.000389
O100	O	0.523131	0.799698	0.500389
H101	H	-0.032911	0.284061	0.000388
H102	H	0.467089	0.784061	0.500388
H103	H	0.271094	-0.001852	0.108669
H104	H	0.771094	0.498148	0.608669
H105	H	0.884699	0.041649	-0.481326
H106	H	1.384699	0.541649	0.018674
H107	H	0.480950	0.286010	0.000279
H108	H	0.980950	0.786010	0.500279
O109	O	0.393930	0.272802	-0.123856
O110	O	0.893930	0.772802	0.376144
H111	H	0.353247	0.320603	-0.165390
H112	H	0.853247	0.820603	0.334610
O113	O	0.760001	0.228649	-0.532290
O114	O	1.260001	0.728649	-0.032290
H115	H	0.763892	0.222834	-0.615870
H116	H	1.263892	0.722834	-0.115870
H117	H	0.253981	0.251550	-0.108004
H118	H	0.753981	0.751550	0.391996
H119	H	0.044121	-0.036316	0.000433
H120	H	0.544121	0.463684	0.500433
O121	O	0.173908	0.302711	0.000354
O122	O	0.673908	0.802711	0.500354
H123	H	0.134463	0.362017	0.000353
H124	H	0.634463	0.862017	0.500353
H125	H	0.402686	0.000777	0.108635
H126	H	0.902686	0.500777	0.608635
O127	O	0.186085	-0.056312	0.000331
O128	O	0.686085	0.443688	0.500331
H129	H	0.150716	-0.117115	0.000345
H130	H	0.650716	0.382885	0.500345
H131	H	0.623176	-0.024739	0.000203
H132	H	1.123176	0.475261	0.500203
O133	O	0.482771	-0.050387	0.000253
O134	O	0.982771	0.449613	0.500253
H135	H	0.425746	-0.037011	0.000282
H136	H	0.925746	0.462989	0.500282
