data_functionalizedCrystal
_audit_creation_method	'MofGen! by Chris Wilmer'
_symmetry_space_group_name_H-M	'P1'
_symmetry_Int_Tables_number	1
_symmetry_cell_setting	triclinic
loop_
_symmetry_equiv_pos_as_xyz
  x,y,z
_cell_length_a	18.050590
_cell_length_b	18.050589
_cell_length_c	17.077396
_cell_angle_alpha	89.975358
_cell_angle_beta	90.001070
_cell_angle_gamma	89.984959
loop_
_atom_site_label
_atom_site_type_symbol
_atom_site_fract_x
_atom_site_fract_y
_atom_site_fract_z
Zn1	Zn	-1.135327	-0.295921	-0.443477
Zn2	Zn	-0.885327	-0.045921	-0.193477
Zn3	Zn	-0.635327	0.204079	0.056523
Zn4	Zn	-0.385327	0.454079	0.306523
Zn5	Zn	-1.135227	-0.420118	-0.312220
Zn6	Zn	-0.885227	-0.170118	-0.062220
Zn7	Zn	-0.635227	0.079882	0.187780
Zn8	Zn	-0.385227	0.329882	0.437780
Zn9	Zn	-1.011136	-0.295918	-0.312268
Zn10	Zn	-0.761136	-0.045918	-0.062268
Zn11	Zn	-0.511136	0.204082	0.187732
Zn12	Zn	-0.261136	0.454082	0.437732
Zn13	Zn	-1.011094	-0.420045	-0.443486
Zn14	Zn	-0.761094	-0.170045	-0.193486
Zn15	Zn	-0.511094	0.079955	0.056514
Zn16	Zn	-0.261094	0.329955	0.306514
O17	O	-1.073196	-0.358000	-0.377863
O18	O	-0.823196	-0.108000	-0.127863
O19	O	-0.573196	0.142000	0.122137
O20	O	-0.323196	0.392000	0.372137
O21	O	-1.239238	-0.312428	-0.426043
O22	O	-0.989238	-0.062428	-0.176043
O23	O	-0.739238	0.187572	0.073957
O24	O	-0.489238	0.437572	0.323957
O25	O	-1.118742	-0.403672	-0.202380
O26	O	-0.868742	-0.153672	0.047620
O27	O	-0.618742	0.096328	0.297620
O28	O	-0.368742	0.346328	0.547620
O29	O	-1.027669	-0.191994	-0.329689
O30	O	-0.777669	0.058006	-0.079689
O31	O	-0.527669	0.308006	0.170311
O32	O	-0.277669	0.558006	0.420311
O33	O	-1.239165	-0.403675	-0.329608
O34	O	-0.989165	-0.153675	-0.079608
O35	O	-0.739165	0.096325	0.170392
O36	O	-0.489165	0.346325	0.420392
O37	O	-1.118912	-0.191996	-0.426088
O38	O	-0.868912	0.058004	-0.176088
O39	O	-0.618912	0.308004	0.073912
O40	O	-0.368912	0.558004	0.323912
O41	O	-1.027573	-0.312423	-0.202414
O42	O	-0.777573	-0.062423	0.047586
O43	O	-0.527573	0.187577	0.297586
O44	O	-0.277573	0.437577	0.547586
O45	O	-0.907206	-0.312352	-0.329698
O46	O	-0.657206	-0.062352	-0.079698
O47	O	-0.407206	0.187648	0.170302
O48	O	-0.157206	0.437648	0.420302
O49	O	-1.027598	-0.403550	-0.553332
O50	O	-0.777598	-0.153550	-0.303332
O51	O	-0.527598	0.096450	-0.053332
O52	O	-0.277598	0.346450	0.196668
O53	O	-0.907175	-0.403547	-0.426103
O54	O	-0.657175	-0.153547	-0.176103
O55	O	-0.407175	0.096453	0.073897
O56	O	-0.157175	0.346453	0.323897
O57	O	-1.118871	-0.312357	-0.553326
O58	O	-0.868871	-0.062357	-0.303326
O59	O	-0.618871	0.187643	-0.053326
O60	O	-0.368871	0.437643	0.196674
O61	O	-1.118702	-0.524033	-0.329617
O62	O	-0.868702	-0.274033	-0.079617
O63	O	-0.618702	-0.024033	0.170383
O64	O	-0.368702	0.225967	0.420383
O65	O	-1.027501	-0.523979	-0.426057
O66	O	-0.777501	-0.273979	-0.176057
O67	O	-0.527501	-0.023979	0.073943
O68	O	-0.277501	0.226021	0.323943
C69	C	-0.880244	-0.357942	-0.377907
C70	C	-0.630244	-0.107942	-0.127907
C71	C	-0.380244	0.142058	0.122093
C72	C	-0.130244	0.392058	0.372093
C73	C	-0.797698	-0.357935	-0.377944
C74	C	-0.547698	-0.107935	-0.127944
C75	C	-0.297698	0.142065	0.122056
C76	C	-0.047698	0.392065	0.372056
C77	C	-0.598252	-0.407661	-0.430256
C78	C	-0.348252	-0.157661	-0.180256
C79	C	-0.098252	0.092339	0.069744
C80	C	0.151748	0.342339	0.319744
C81	C	-0.548861	-0.339942	-0.449569
C82	C	-0.298861	-0.089942	-0.199569
C83	C	-0.048861	0.160058	0.050431
C84	C	0.201139	0.410058	0.300431
C85	C	-0.646568	-0.357970	-0.377914
C86	C	-0.396568	-0.107970	-0.127914
C87	C	-0.146568	0.142030	0.122086
C88	C	0.103432	0.392030	0.372086
C89	C	-0.548878	-0.425722	-0.358607
C90	C	-0.298878	-0.175722	-0.108607
C91	C	-0.048878	0.074278	0.141393
C92	C	0.201122	0.324278	0.391393
C93	C	-0.500583	-0.358010	-0.377886
C94	C	-0.250583	-0.108010	-0.127886
C95	C	-0.000583	0.141990	0.122114
C96	C	0.249417	0.391990	0.372114
C97	C	-0.598263	-0.290215	-0.397265
C98	C	-0.348263	-0.040215	-0.147265
C99	C	-0.098263	0.209785	0.102735
C100	C	0.151737	0.459785	0.352735
C101	C	-0.598285	-0.376041	-0.306269
C102	C	-0.348285	-0.126041	-0.056269
C103	C	-0.098285	0.123959	0.193731
C104	C	0.151715	0.373959	0.443731
C105	C	-0.548915	-0.308275	-0.325556
C106	C	-0.298915	-0.058275	-0.075556
C107	C	-0.048915	0.191725	0.174444
C108	C	0.201085	0.441725	0.424444
C109	C	-0.730666	-0.357948	-0.377932
C110	C	-0.480666	-0.107948	-0.127932
C111	C	-0.230666	0.142052	0.122068
C112	C	0.019334	0.392052	0.372068
C113	C	-0.416486	-0.358024	-0.377868
C114	C	-0.166486	-0.108024	-0.127868
C115	C	0.083514	0.141976	0.122132
C116	C	0.333514	0.391976	0.372132
C117	C	-1.073106	-0.550953	-0.377850
C118	C	-0.823106	-0.300953	-0.127850
C119	C	-0.573106	-0.050953	0.122150
C120	C	-0.323106	0.199047	0.372150
C121	C	-1.073136	-0.633498	-0.377871
C122	C	-0.823136	-0.383498	-0.127871
C123	C	-0.573136	-0.133498	0.122129
C124	C	-0.323136	0.116502	0.372129
C125	C	-0.266902	-0.358049	-0.377832
C126	C	-0.016902	-0.108049	-0.127832
C127	C	0.233098	0.141951	0.122168
C128	C	0.483098	0.391951	0.372168
C129	C	-0.349447	-0.358044	-0.377853
C130	C	-0.099447	-0.108044	-0.127853
C131	C	0.150553	0.141956	0.122147
C132	C	0.400553	0.391956	0.372147
C133	C	-1.023590	-0.832947	-0.430297
C134	C	-0.773590	-0.582947	-0.180297
C135	C	-0.523590	-0.332947	0.069703
C136	C	-0.273590	-0.082947	0.319703
C137	C	-1.005487	-0.882384	-0.358674
C138	C	-0.755487	-0.632384	-0.108674
C139	C	-0.505487	-0.382384	0.141326
C140	C	-0.255487	-0.132384	0.391326
C141	C	-1.073209	-0.784629	-0.377881
C142	C	-0.823209	-0.534629	-0.127881
C143	C	-0.573209	-0.284629	0.122119
C144	C	-0.323209	-0.034629	0.372119
C145	C	-1.091349	-0.882273	-0.449512
C146	C	-0.841349	-0.632273	-0.199512
C147	C	-0.591349	-0.382273	0.050488
C148	C	-0.341349	-0.132273	0.300488
C149	C	-1.073278	-0.930614	-0.377897
C150	C	-0.823278	-0.680614	-0.127897
C151	C	-0.573278	-0.430614	0.122103
C152	C	-0.323278	-0.180614	0.372103
C153	C	-1.055070	-0.832979	-0.306220
C154	C	-0.805070	-0.582979	-0.056220
C155	C	-0.555070	-0.332979	0.193780
C156	C	-0.305070	-0.082979	0.443780
C157	C	-1.140963	-0.832863	-0.397107
C158	C	-0.890963	-0.582863	-0.147107
C159	C	-0.640963	-0.332863	0.102893
C160	C	-0.390963	-0.082863	0.352893
C161	C	-1.122886	-0.882278	-0.325434
C162	C	-0.872886	-0.632278	-0.075434
C163	C	-0.622886	-0.382278	0.174566
C164	C	-0.372886	-0.132278	0.424566
C165	C	-1.073167	-0.700530	-0.377872
C166	C	-0.823167	-0.450530	-0.127872
C167	C	-0.573167	-0.200530	0.122128
C168	C	-0.323167	0.049470	0.372128
C169	C	-1.073320	-1.014710	-0.377897
C170	C	-0.823320	-0.764710	-0.127897
C171	C	-0.573320	-0.514710	0.122103
C172	C	-0.323320	-0.264710	0.372103
C173	C	-1.073306	-0.164295	-0.377893
C174	C	-0.823306	0.085705	-0.127893
C175	C	-0.573306	0.335705	0.122107
C176	C	-0.323306	0.585705	0.372107
C177	C	-1.073353	-0.081749	-0.377906
C178	C	-0.823353	0.168251	-0.127906
C179	C	-0.573353	0.418251	0.122094
C180	C	-0.323353	0.668251	0.372094
C181	C	-1.073241	-0.357946	-0.582607
C182	C	-0.823241	-0.107946	-0.332607
C183	C	-0.573241	0.142054	-0.082607
C184	C	-0.323241	0.392054	0.167393
C185	C	-1.073260	-0.357922	-0.669857
C186	C	-0.823260	-0.107922	-0.419857
C187	C	-0.573260	0.142078	-0.169857
C188	C	-0.323260	0.392078	0.080143
C189	C	-1.120788	-0.310434	-0.710845
C190	C	-0.870788	-0.060434	-0.460845
C191	C	-0.620788	0.189566	-0.210845
C192	C	-0.370788	0.439566	0.039155
C193	C	-1.120797	-0.310409	-0.792826
C194	C	-0.870797	-0.060409	-0.542826
C195	C	-0.620797	0.189591	-0.292826
C196	C	-0.370797	0.439591	-0.042826
C197	C	-1.073281	-0.357877	-0.833817
C198	C	-0.823281	-0.107877	-0.583817
C199	C	-0.573281	0.142123	-0.333817
C200	C	-0.323281	0.392123	-0.083817
C201	C	-1.025748	-0.405368	-0.792823
C202	C	-0.775748	-0.155368	-0.542823
C203	C	-0.525748	0.094632	-0.292823
C204	C	-0.275748	0.344632	-0.042823
C205	C	-1.025736	-0.405388	-0.710844
C206	C	-0.775736	-0.155388	-0.460844
C207	C	-0.525736	0.094612	-0.210844
C208	C	-0.275736	0.344612	0.039156
C209	C	-1.025778	-0.405323	-0.963693
C210	C	-0.775778	-0.155323	-0.713693
C211	C	-0.525778	0.094677	-0.463693
C212	C	-0.275778	0.344677	-0.213693
C213	C	-1.025791	-0.405304	-1.045678
C214	C	-0.775791	-0.155304	-0.795678
C215	C	-0.525791	0.094696	-0.545678
C216	C	-0.275791	0.344696	-0.295678
C217	C	-1.120839	-0.310344	-1.045675
C218	C	-0.870839	-0.060344	-0.795675
C219	C	-0.620839	0.189656	-0.545675
C220	C	-0.370839	0.439656	-0.295675
C221	C	-1.120827	-0.310365	-0.963696
C222	C	-0.870827	-0.060365	-0.713696
C223	C	-0.620827	0.189635	-0.463696
C224	C	-0.370827	0.439635	-0.213696
C225	C	-1.073294	-0.357856	-0.922708
C226	C	-0.823294	-0.107856	-0.672708
C227	C	-0.573294	0.142144	-0.422708
C228	C	-0.323294	0.392144	-0.172708
C229	C	-1.073194	-0.358001	-0.173915
C230	C	-0.823194	-0.108001	0.076085
C231	C	-0.573194	0.141999	0.326085
C232	C	-0.323194	0.391999	0.576085
C233	C	-1.073319	-0.357815	-0.086666
C234	C	-0.823319	-0.107815	0.163334
C235	C	-0.573319	0.142185	0.413334
C236	C	-0.323319	0.392185	0.663334
H237	H	-0.527389	-0.266222	-0.281281
H238	H	-0.277389	-0.016222	-0.031281
H239	H	-0.027389	0.233778	0.218719
H240	H	0.222611	0.483778	0.468719
H241	H	-0.948221	-0.904153	-0.342427
H242	H	-0.698221	-0.654153	-0.092427
H243	H	-0.448221	-0.404153	0.157573
H244	H	-0.198221	-0.154153	0.407573
H245	H	-0.527181	-0.483001	-0.342291
H246	H	-0.277181	-0.233001	-0.092291
H247	H	-0.027181	0.016999	0.157709
H248	H	0.222819	0.266999	0.407709
H249	H	-1.039688	-0.811415	-0.245632
H250	H	-0.789688	-0.561415	0.004368
H251	H	-0.539688	-0.311415	0.254368
H252	H	-0.289688	-0.061415	0.504368
Cl253	Cl	-0.631611	-0.201752	-0.422567
Cl254	Cl	-0.381611	0.048248	-0.172567
Cl255	Cl	-0.131611	0.298248	0.077433
Cl256	Cl	0.118389	0.548248	0.327433
Cl257	Cl	-1.180566	-0.250694	-0.912165
Cl258	Cl	-0.930566	-0.000694	-0.662165
Cl259	Cl	-0.680566	0.249306	-0.412165
Cl260	Cl	-0.430566	0.499306	-0.162165
H261	H	-1.198216	-0.811097	-0.413387
H262	H	-0.948216	-0.561097	-0.163387
H263	H	-0.698216	-0.311097	0.086613
H264	H	-0.448216	-0.061097	0.336613
Cl265	Cl	-0.631804	-0.399637	-0.212755
Cl266	Cl	-0.381804	-0.149637	0.037245
Cl267	Cl	-0.131804	0.100363	0.287245
Cl268	Cl	0.118196	0.350363	0.537245
Cl269	Cl	-0.966021	-0.465027	-0.912166
Cl270	Cl	-0.716021	-0.215027	-0.662166
Cl271	Cl	-0.466021	0.034973	-0.412166
Cl272	Cl	-0.216021	0.284973	-0.162166
H273	H	-1.159540	-0.271674	-1.079051
H274	H	-0.909540	-0.021674	-0.829051
H275	H	-0.659540	0.228326	-0.579051
H276	H	-0.409540	0.478326	-0.329051
Cl277	Cl	-0.958714	-0.799500	-0.498637
Cl278	Cl	-0.708714	-0.549500	-0.248637
Cl279	Cl	-0.458714	-0.299500	0.001363
Cl280	Cl	-0.208714	-0.049500	0.251363
Cl281	Cl	-0.631702	-0.472432	-0.498662
Cl282	Cl	-0.381702	-0.222432	-0.248662
Cl283	Cl	-0.131702	0.027568	0.001338
Cl284	Cl	0.118298	0.277568	0.251338
H285	H	-1.164877	-0.903802	-0.281064
H286	H	-0.914877	-0.653802	-0.031064
H287	H	-0.664877	-0.403802	0.218936
H288	H	-0.414877	-0.153802	0.468936
Cl289	Cl	-1.114994	-0.915707	-0.543027
Cl290	Cl	-0.864994	-0.665707	-0.293027
Cl291	Cl	-0.614994	-0.415707	-0.043027
Cl292	Cl	-0.364994	-0.165707	0.206973
H293	H	-1.159483	-0.271782	-0.677476
H294	H	-0.909483	-0.021782	-0.427476
H295	H	-0.659483	0.228218	-0.177476
H296	H	-0.409483	0.478218	0.072524
H297	H	-0.987027	-0.444051	-0.677472
H298	H	-0.737027	-0.194051	-0.427472
H299	H	-0.487027	0.055949	-0.177472
H300	H	-0.237027	0.305949	0.072528
Cl301	Cl	-0.966048	-0.464970	-1.097208
Cl302	Cl	-0.716048	-0.214970	-0.847208
Cl303	Cl	-0.466048	0.035030	-0.597208
Cl304	Cl	-0.216048	0.285030	-0.347208
Cl305	Cl	-1.180582	-0.250740	-0.844350
Cl306	Cl	-0.930582	-0.000740	-0.594350
Cl307	Cl	-0.680582	0.249260	-0.344350
Cl308	Cl	-0.430582	0.499260	-0.094350
Cl309	Cl	-0.966011	-0.465039	-0.844354
Cl310	Cl	-0.716011	-0.215039	-0.594354
Cl311	Cl	-0.466011	0.034961	-0.344354
Cl312	Cl	-0.216011	0.284961	-0.094354
Cl313	Cl	-0.515341	-0.316361	-0.543093
Cl314	Cl	-0.265341	-0.066361	-0.293093
Cl315	Cl	-0.015341	0.183639	-0.043093
Cl316	Cl	0.234659	0.433639	0.206907
