data_functionalizedCrystal
_audit_creation_method	'MofGen! by Chris Wilmer'
_symmetry_space_group_name_H-M	'P1'
_symmetry_Int_Tables_number	1
_symmetry_cell_setting	triclinic
loop_
_symmetry_equiv_pos_as_xyz
  x,y,z
_cell_length_a	18.101398
_cell_length_b	18.101397
_cell_length_c	12.645324
_cell_angle_alpha	90.039370
_cell_angle_beta	90.028097
_cell_angle_gamma	90.015732
loop_
_atom_site_label
_atom_site_type_symbol
_atom_site_fract_x
_atom_site_fract_y
_atom_site_fract_z
Zn1	Zn	1.132203	-0.294867	0.599535
Zn2	Zn	1.132114	-0.418732	0.422252
Zn3	Zn	1.008354	-0.294899	0.422264
Zn4	Zn	1.008336	-0.418661	0.599452
O5	O	1.070252	-0.356790	0.510876
O6	O	1.235824	-0.311314	0.576049
O7	O	1.115667	-0.402348	0.273906
O8	O	1.024828	-0.191262	0.445819
O9	O	1.235759	-0.402318	0.445799
O10	O	1.115819	-0.191238	0.576060
O11	O	1.024741	-0.311369	0.273915
O12	O	0.904719	-0.311300	0.445738
O13	O	1.024797	-0.402196	0.747810
O14	O	0.904706	-0.402227	0.575917
O15	O	1.115802	-0.311245	0.747872
O16	O	1.115650	-0.522356	0.445718
O17	O	1.024710	-0.522303	0.575905
C18	C	0.877841	-0.356760	0.510820
C19	C	0.795527	-0.356765	0.510822
C20	C	0.496436	-0.356811	0.510911
C21	C	0.527745	-0.299316	0.429406
C22	C	0.613363	-0.299470	0.429058
C23	C	0.644819	-0.356787	0.510867
C24	C	0.613714	-0.434802	0.480336
C25	C	0.528069	-0.434482	0.479770
C26	C	0.528052	-0.336969	0.623139
C27	C	0.613703	-0.335232	0.622526
C28	C	0.728678	-0.356779	0.510844
C29	C	0.412577	-0.356824	0.510931
C30	C	1.070189	-0.549200	0.510824
C31	C	1.070229	-0.631514	0.510838
C32	C	1.070324	-0.930605	0.510935
C33	C	1.127381	-0.899282	0.428804
C34	C	1.127578	-0.813664	0.429017
C35	C	1.070277	-0.782223	0.510886
C36	C	1.091438	-0.813220	0.622630
C37	C	1.091879	-0.898865	0.622183
C38	C	0.991954	-0.899111	0.482287
C39	C	0.992341	-0.813462	0.479793
C40	C	1.070249	-0.698363	0.510865
C41	C	1.070353	-1.014465	0.510963
C42	C	1.263414	-0.356820	0.510932
C43	C	1.345728	-0.356833	0.510956
C44	C	1.070307	-0.356709	0.787381
C45	C	1.070331	-0.356675	0.905211
C46	C	1.070336	-0.163628	0.510951
C47	C	1.070371	-0.081314	0.510982
C48	C	1.070239	-0.356816	0.235446
C49	C	1.070359	-0.356642	0.117616
C50	C	1.127805	-0.299623	1.072814
C51	C	1.127621	-0.299417	0.950254
C52	C	0.992313	-0.335461	0.949683
C53	C	0.992662	-0.335028	1.072282
C54	C	1.090242	-0.435023	1.072397
C55	C	1.091949	-0.434630	0.949792
H56	H	0.634089	-0.478788	0.537843
H57	H	0.508056	-0.451308	0.397725
N58	N	0.641225	-0.222840	0.454396
H59	H	0.672106	-0.204002	0.393618
H60	H	0.672329	-0.224575	0.520675
H61	H	1.053149	-0.479399	0.919126
N62	N	0.640453	-0.316854	0.318905
H63	H	0.671317	-0.363314	0.320562
H64	H	0.671400	-0.274410	0.292016
N65	N	1.110179	-0.222504	0.911447
H66	H	1.063709	-0.223745	0.867238
H67	H	1.152601	-0.203664	0.867169
N68	N	0.642059	-0.386662	0.707281
H69	H	0.621157	-0.371466	0.778067
H70	H	0.697766	-0.384049	0.709813
N71	N	1.110589	-0.223134	1.113638
H72	H	1.147745	-0.186846	1.084481
H73	H	1.113166	-0.223050	1.193423
H74	H	1.185473	-0.312703	0.920188
N75	N	0.642059	-0.457480	0.372826
H76	H	0.671146	-0.504865	0.379380
H77	H	0.675013	-0.417296	0.343798
N78	N	0.499467	-0.262928	0.659917
H79	H	0.465727	-0.241496	0.604194
H80	H	0.542434	-0.228350	0.672128
N81	N	0.934041	-0.387643	1.111547
H82	H	0.908085	-0.411012	1.049212
H83	H	0.897000	-0.359649	1.155827
H84	H	1.185630	-0.793123	0.447972
H85	H	1.048405	-0.477509	1.101376
N86	N	0.500626	-0.493144	0.554973
H87	H	0.544167	-0.519099	0.588340
H88	H	0.469670	-0.530179	0.514840
H89	H	1.149165	-0.918786	0.646448
N90	N	0.932990	-0.785109	0.553202
H91	H	0.955885	-0.751466	0.607904
H92	H	0.908348	-0.828185	0.589661
H93	H	0.507165	-0.241288	0.448333
H94	H	1.052142	-0.919581	0.685485
N95	N	1.204690	-0.317001	1.111893
H96	H	1.205652	-0.314668	1.191685
H97	H	1.240651	-0.279755	1.082156
N98	N	0.935638	-0.925939	0.561517
H99	H	0.960725	-0.958335	0.615708
H100	H	0.896155	-0.955263	0.523726
N101	N	0.640645	-0.259191	0.653034
H102	H	0.620456	-0.245635	0.724917
H103	H	0.623113	-0.222056	0.598997
N104	N	0.498933	-0.316285	0.319970
H105	H	0.465718	-0.361077	0.322950
H106	H	0.541776	-0.326479	0.270956
N107	N	0.970333	-0.259136	1.110201
H108	H	0.960358	-0.226278	1.047276
H109	H	1.011537	-0.237262	1.154076
H110	H	1.051151	-0.792850	0.685469
N111	N	0.501240	-0.392437	0.703587
H112	H	0.468773	-0.430238	0.667572
H113	H	0.471994	-0.366120	0.760216
N114	N	0.971186	-0.786877	0.370751
H115	H	0.923904	-0.757414	0.375006
H116	H	0.963636	-0.830854	0.322749
N117	N	1.166473	-0.784748	0.655317
H118	H	1.186865	-0.751778	0.597914
H119	H	1.201004	-0.827819	0.666817
H120	H	1.114339	-0.792710	0.346161
N121	N	1.110056	-0.926624	0.318715
H122	H	1.065057	-0.959585	0.321008
H123	H	1.153555	-0.955474	0.290528
N124	N	1.203859	-0.927721	0.453610
H125	H	1.201707	-0.960805	0.517818
H126	H	1.237826	-0.884646	0.468317
H127	H	0.948346	-0.375714	0.920503
N128	N	0.966447	-0.927798	0.376221
H129	H	0.963522	-0.983496	0.378445
H130	H	1.002690	-0.912167	0.319806
H131	H	0.975149	-0.278804	0.918997
N132	N	1.164309	-0.460584	1.113372
H133	H	1.185727	-0.421608	1.161670
H134	H	1.198879	-0.469077	1.051890
H135	H	1.149364	-0.450626	0.920725
