data_functionalizedCrystal
_audit_creation_method	'MofGen! by Chris Wilmer'
_symmetry_space_group_name_H-M	'P1'
_symmetry_Int_Tables_number	1
_symmetry_cell_setting	triclinic
loop_
_symmetry_equiv_pos_as_xyz
  x,y,z
_cell_length_a	18.101398
_cell_length_b	19.805405
_cell_length_c	19.805399
_cell_angle_alpha	89.970699
_cell_angle_beta	90.023953
_cell_angle_gamma	89.978323
loop_
_atom_site_label
_atom_site_type_symbol
_atom_site_fract_x
_atom_site_fract_y
_atom_site_fract_z
Zn1	Zn	1.132142	0.269564	0.382791
Zn2	Zn	1.632142	0.769564	0.882791
Zn3	Zn	1.132049	0.382753	0.269599
Zn4	Zn	1.632049	0.882753	0.769599
Zn5	Zn	1.008302	0.269574	0.269607
Zn6	Zn	1.508302	0.769574	0.769607
Zn7	Zn	1.008262	0.382707	0.382737
Zn8	Zn	1.508262	0.882707	0.882737
O9	O	1.070189	0.326149	0.326183
O10	O	1.570189	0.826149	0.826183
O11	O	1.235763	0.284594	0.367795
O12	O	1.735763	0.784594	0.867795
O13	O	1.115612	0.367762	0.174883
O14	O	1.615612	0.867762	0.674883
O15	O	1.024786	0.174856	0.284646
O16	O	1.524786	0.674856	0.784646
O17	O	1.235695	0.367753	0.284633
O18	O	1.735695	0.867753	0.784633
O19	O	1.115770	0.174849	0.367802
O20	O	1.615770	0.674849	0.867802
O21	O	1.024695	0.284610	0.174889
O22	O	1.524695	0.784610	0.674889
O23	O	0.904664	0.284566	0.284594
O24	O	1.404664	0.784566	0.784594
O25	O	1.024718	0.367676	0.477461
O26	O	1.524718	0.867676	0.977461
O27	O	0.904635	0.367685	0.367711
O28	O	1.404635	0.867685	0.867711
O29	O	1.115732	0.284550	0.477500
O30	O	1.615732	0.784550	0.977500
O31	O	1.115573	0.477463	0.284581
O32	O	1.615573	0.977463	0.784581
O33	O	1.024627	0.477430	0.367703
O34	O	1.524627	0.977430	0.867703
C35	C	0.877778	0.326122	0.326148
C36	C	1.377778	0.826122	0.826148
C37	C	0.795464	0.326127	0.326149
C38	C	1.295464	0.826127	0.826149
C39	C	1.070106	0.502006	0.326151
C40	C	1.570106	1.002006	0.826151
C41	C	1.070138	0.577238	0.326159
C42	C	1.570138	1.077238	0.826159
C43	C	1.070231	0.326107	0.502726
C44	C	1.570231	0.826107	1.002726
C45	C	1.070248	0.326089	0.577958
C46	C	1.570248	0.826089	1.077958
C47	C	0.496373	0.326169	0.326206
C48	C	0.996373	0.826169	0.826206
C49	C	0.527692	0.273611	0.274166
C50	C	1.027692	0.773611	0.774166
C51	C	0.613311	0.273752	0.273944
C52	C	1.113311	0.773752	0.773944
C53	C	0.644756	0.326147	0.326178
C54	C	1.144756	0.826147	0.826178
C55	C	0.613644	0.397446	0.306685
C56	C	1.113644	0.897446	0.806685
C57	C	0.527999	0.397154	0.306323
C58	C	1.027999	0.897154	0.806323
C59	C	0.527986	0.308047	0.397861
C60	C	1.027986	0.808047	0.897861
C61	C	0.613637	0.306459	0.397470
C62	C	1.113637	0.806459	0.897470
C63	C	0.728615	0.326139	0.326163
C64	C	1.228615	0.826139	0.826163
C65	C	0.412514	0.326181	0.326219
C66	C	0.912514	0.826181	0.826219
C67	C	1.263351	0.326178	0.326219
C68	C	1.763351	0.826178	0.826219
C69	C	1.345665	0.326190	0.326234
C70	C	1.845665	0.826190	0.826234
C71	C	1.070293	0.149607	0.326231
C72	C	1.570293	0.649607	0.826231
C73	C	1.070337	0.074375	0.326251
C74	C	1.570337	0.574375	0.826251
C75	C	1.117539	0.612577	0.282923
C76	C	1.617539	1.112577	0.782923
C77	C	1.117571	0.683265	0.282938
C78	C	1.617571	1.183265	0.782938
C79	C	1.070196	0.718613	0.326186
C80	C	1.570196	1.218613	0.826186
C81	C	1.022793	0.683269	0.369427
C82	C	1.522793	1.183269	0.869427
C83	C	1.022766	0.612582	0.369415
C84	C	1.522766	1.112582	0.869415
C85	C	1.022902	0.968342	0.369477
C86	C	1.522902	1.468342	0.869477
C87	C	1.022931	1.039034	0.369485
C88	C	1.522931	1.539034	0.869485
C89	C	1.117707	1.039025	0.283000
C90	C	1.617707	1.539025	0.783000
C91	C	1.117680	0.968338	0.282988
C92	C	1.617680	1.468338	0.782988
C93	C	1.070280	0.933000	0.326231
C94	C	1.570280	1.433000	0.826231
C95	C	1.070247	0.856352	0.326215
C96	C	1.570247	1.356352	0.826215
C97	C	1.070225	0.795260	0.326199
C98	C	1.570225	1.295260	0.826199
C99	C	1.070190	0.326143	0.150327
C100	C	1.570190	0.826143	0.650327
C101	C	1.070316	0.325971	0.075096
C102	C	1.570316	0.825971	0.575096
C103	C	1.117640	0.282803	0.613324
C104	C	1.617640	0.782803	1.113324
C105	C	1.117648	0.282783	0.684012
C106	C	1.617648	0.782783	1.184012
C107	C	1.070267	0.326053	0.719334
C108	C	1.570267	0.826053	1.219334
C109	C	1.022869	0.369341	0.683963
C110	C	1.522869	0.869341	1.183963
C111	C	1.022858	0.369357	0.613276
C112	C	1.522858	0.869357	1.113276
C113	C	1.022911	0.369278	0.969037
C114	C	1.522911	0.869278	1.469037
C115	C	1.022927	0.369260	1.039729
C116	C	1.522927	0.869260	1.539729
C117	C	1.117701	0.282705	1.039773
C118	C	1.617701	0.782705	1.539773
C119	C	1.117690	0.282720	0.969086
C120	C	1.617690	0.782720	1.469086
C121	C	1.070290	0.326005	0.933721
C122	C	1.570290	0.826005	1.433721
C123	C	1.070281	0.326025	0.857073
C124	C	1.570281	0.826025	1.357073
C125	C	1.070279	0.326037	0.795981
C126	C	1.570279	0.826037	1.295981
H127	H	0.507117	0.220578	0.286251
H128	H	1.007117	0.720578	0.786251
H129	H	1.156306	1.067806	0.247792
H130	H	1.656306	1.567806	0.747792
H131	H	0.634012	0.437655	0.343401
H132	H	1.134012	0.937655	0.843401
H133	H	0.984168	0.583810	0.404624
H134	H	1.484168	1.083810	0.904624
H135	H	1.156226	0.247570	0.584570
H136	H	1.656226	0.747570	1.084570
N137	N	1.166063	0.238563	0.720127
N138	N	1.666063	0.738563	1.220127
N139	N	1.208368	0.199937	0.688582
N140	N	1.708368	0.699937	1.188582
H141	H	1.242563	0.168704	0.714087
H142	H	1.742563	0.668704	1.214087
N143	N	0.501991	0.447939	0.351793
N144	N	1.001991	0.947939	0.851793
N145	N	0.462373	0.431861	0.400909
N146	N	0.962373	0.931861	0.900909
H147	H	0.444007	0.467729	0.433020
H148	H	0.944007	0.967729	0.933020
H149	H	1.156275	0.247488	0.940331
H150	H	1.656275	0.747488	1.440331
H151	H	1.156293	0.247458	1.068575
H152	H	1.656293	0.747458	1.568575
H153	H	0.984340	0.404497	1.068485
H154	H	1.484340	0.904497	1.568485
H155	H	0.984288	0.404570	0.712727
H156	H	1.484288	0.904570	1.212727
N157	N	1.165987	0.719378	0.238782
N158	N	1.665987	1.219378	0.738782
N159	N	1.213177	0.758774	0.262650
N160	N	1.713177	1.258774	0.762650
H161	H	1.247373	0.784281	0.231465
H162	H	1.747373	1.284281	0.731465
H163	H	0.984259	0.404598	0.584482
H164	H	1.484259	0.904598	1.084482
N165	N	0.974389	0.719364	0.413603
N166	N	1.474389	1.219364	0.913603
N167	N	0.932067	0.687800	0.452201
N168	N	1.432067	1.187800	0.952201
H169	H	0.897877	0.713290	0.483399
H170	H	1.397877	1.213290	0.983399
H171	H	0.984326	0.404533	0.940251
H172	H	1.484326	0.904533	1.440251
H173	H	0.635045	0.341950	0.438321
H174	H	1.135045	0.841950	0.938321
N175	N	0.502605	0.356076	0.446507
N176	N	1.002605	0.856076	0.946507
N177	N	0.517998	0.417217	0.439671
N178	N	1.017998	0.917217	0.939671
H179	H	0.500075	0.451141	0.474024
H180	H	1.000075	0.951141	0.974024
N181	N	1.165920	0.576473	0.238734
N182	N	1.665920	1.076473	0.738734
N183	N	1.161049	0.584416	0.176275
N184	N	1.661049	1.084416	0.676275
H185	H	1.195220	0.558920	0.145065
H186	H	1.695220	1.058920	0.645065
N187	N	0.639698	0.207423	0.289263
N188	N	1.139698	0.707423	0.789263
N189	N	0.623186	0.180226	0.344185
N190	N	1.123186	0.680226	0.844185
H191	H	0.641815	0.133376	0.354998
H192	H	1.141815	0.633376	0.854998
N193	N	0.500647	0.288467	0.207950
N194	N	1.000647	0.788467	0.707950
N195	N	0.458407	0.337594	0.198919
N196	N	0.958407	0.837594	0.698919
H197	H	0.439305	0.348088	0.152155
H198	H	0.939305	0.848088	0.652155
H199	H	0.984354	1.067813	0.404708
H200	H	1.484354	1.567813	0.904708
N201	N	0.638966	0.288781	0.207334
N202	N	1.138966	0.788781	0.707334
N203	N	0.593618	0.299204	0.160867
N204	N	1.093618	0.799204	0.660867
H205	H	0.611736	0.309821	0.113821
H206	H	1.111736	0.809821	0.613821
N207	N	1.166063	0.932222	0.238811
N208	N	1.666063	1.432222	0.738811
N209	N	1.166026	0.869109	0.238802
N210	N	1.666026	1.369109	0.738802
H211	H	1.200195	0.843601	0.207600
H212	H	1.700195	1.343601	0.707600
H213	H	0.635061	0.413081	0.254867
H214	H	1.135061	0.913081	0.754867
N215	N	0.502903	0.416437	0.240607
N216	N	1.002903	0.916437	0.740607
N217	N	0.548641	0.430014	0.195330
N218	N	1.048641	0.930014	0.695330
H219	H	0.530921	0.443632	0.148916
H220	H	1.030921	0.943632	0.648916
N221	N	0.500909	0.243962	0.420090
N222	N	1.000909	0.743962	0.920090
N223	N	0.457978	0.210865	0.383386
N224	N	0.957978	0.710865	0.883386
H225	H	0.438853	0.165603	0.399078
H226	H	0.938853	0.665603	0.899078
N227	N	0.974491	0.932257	0.413657
N228	N	1.474491	1.432257	0.913657
N229	N	0.979371	0.940118	0.476117
N230	N	1.479371	1.440118	0.976117
H231	H	0.945179	0.914632	0.507324
H232	H	1.445179	1.414632	1.007324
N233	N	0.639150	0.240636	0.415901
N234	N	1.139150	0.740636	0.915901
N235	N	0.680103	0.208307	0.376715
N236	N	1.180103	0.708307	0.876715
H237	H	0.698127	0.161819	0.389730
H238	H	1.198127	0.661819	0.889730
