data_functionalizedCrystal
_audit_creation_method	'MofGen! by Chris Wilmer'
_symmetry_space_group_name_H-M	'P1'
_symmetry_Int_Tables_number	1
_symmetry_cell_setting	triclinic
loop_
_symmetry_equiv_pos_as_xyz
  x,y,z
_cell_length_a	11.169417
_cell_length_b	18.101397
_cell_length_c	11.169409
_cell_angle_alpha	89.960119
_cell_angle_beta	89.980176
_cell_angle_gamma	90.021344
loop_
_atom_site_label
_atom_site_type_symbol
_atom_site_fract_x
_atom_site_fract_y
_atom_site_fract_z
Zn1	Zn	1.834878	-0.294752	-0.678480
Zn2	Zn	1.834732	-0.418619	-0.477770
Zn3	Zn	1.634164	-0.294797	-0.477814
Zn4	Zn	1.634136	-0.418558	-0.678415
O5	O	1.734477	-0.356682	-0.578120
O6	O	2.002808	-0.311190	-0.651864
O7	O	1.808077	-0.402238	-0.309826
O8	O	1.660862	-0.191159	-0.504478
O9	O	2.002701	-0.402194	-0.504404
O10	O	1.808326	-0.191125	-0.651907
O11	O	1.660720	-0.311267	-0.309859
O12	O	1.466210	-0.311208	-0.504416
O13	O	1.660814	-0.402091	-0.846374
O14	O	1.466190	-0.402135	-0.651796
O15	O	1.808298	-0.311131	-0.846421
O16	O	1.808049	-0.522244	-0.504341
O17	O	1.660672	-0.522199	-0.651754
C18	C	1.422653	-0.356670	-0.578104
C19	C	1.289253	-0.356683	-0.578126
C20	C	1.734375	-0.549092	-0.578062
C21	C	1.734440	-0.631406	-0.578077
C22	C	1.734594	-0.930497	-0.578186
C23	C	1.827061	-0.899169	-0.485190
C24	C	1.827381	-0.813551	-0.485431
C25	C	1.734518	-0.782115	-0.578131
C26	C	1.768813	-0.813109	-0.704636
C27	C	1.769528	-0.898754	-0.704129
C28	C	1.607585	-0.899011	-0.545773
C29	C	1.608212	-0.813361	-0.542949
C30	C	1.734473	-0.698255	-0.578108
C31	C	1.734642	-1.014357	-0.578218
C32	C	2.047520	-0.356693	-0.578136
C33	C	2.180920	-0.356699	-0.578143
C34	C	1.734569	-0.356599	-0.891162
C35	C	1.734609	-0.356564	-1.024563
C36	C	1.734613	-0.163520	-0.578205
C37	C	1.734671	-0.081206	-0.578241
C38	C	1.734455	-0.356710	-0.266295
C39	C	1.734648	-0.356537	-0.132896
H40	H	1.805924	-0.792599	-0.391629
H41	H	1.538690	-0.919270	-0.613507
C42	C	1.682516	-0.926750	-0.800936
H43	H	1.646894	-0.885778	-0.840404
H44	H	1.621859	-0.955962	-0.764623
H45	H	1.725134	-0.955770	-0.857526
H46	H	1.703524	-0.792743	-0.775789
H47	H	1.805863	-0.919822	-0.391107
C48	C	1.892829	-0.784061	-0.742355
H49	H	1.923871	-0.753053	-0.681188
H50	H	1.885613	-0.756667	-0.814563
H51	H	1.945523	-0.824548	-0.754558
H52	H	1.582353	-0.793113	-0.449852
C53	C	1.510129	-0.784467	-0.627747
H54	H	1.545082	-0.752832	-0.685983
H55	H	1.452220	-0.757771	-0.582968
H56	H	1.472588	-0.824977	-0.666632
C57	C	1.565436	-0.928274	-0.423314
H58	H	1.488632	-0.908612	-0.405462
H59	H	1.620676	-0.913608	-0.363203
H60	H	1.560985	-0.980663	-0.425736
C61	C	1.953465	-0.928155	-0.513830
H62	H	1.950133	-0.959264	-0.582218
H63	H	1.982985	-0.955429	-0.447425
H64	H	2.005257	-0.887648	-0.529542
H65	H	1.862366	-0.918669	-0.731587
C66	C	1.954471	-0.785788	-0.514409
H67	H	2.006102	-0.826854	-0.526091
H68	H	1.983251	-0.756671	-0.449806
H69	H	1.952467	-0.756722	-0.585230
