data_functionalizedCrystal
_audit_creation_method	'MofGen! by Chris Wilmer'
_symmetry_space_group_name_H-M	'P1'
_symmetry_Int_Tables_number	1
_symmetry_cell_setting	triclinic
loop_
_symmetry_equiv_pos_as_xyz
  x,y,z
_cell_length_a	13.897449
_cell_length_b	13.897448
_cell_length_c	13.897441
_cell_angle_alpha	90.030599
_cell_angle_beta	90.020733
_cell_angle_gamma	90.018972
loop_
_atom_site_label
_atom_site_type_symbol
_atom_site_fract_x
_atom_site_fract_y
_atom_site_fract_z
Zn1	Zn	1.474703	-0.383951	0.545381
Zn2	Zn	1.808036	-0.050618	0.878715
Zn3	Zn	2.141369	0.282715	1.212048
Zn4	Zn	1.474597	-0.545273	0.384083
Zn5	Zn	1.807930	-0.211940	0.717416
Zn6	Zn	2.141263	0.121394	1.050749
Zn7	Zn	1.313392	-0.383997	0.384100
Zn8	Zn	1.646725	-0.050664	0.717433
Zn9	Zn	1.980058	0.282670	1.050766
Zn10	Zn	1.313373	-0.545210	0.545335
Zn11	Zn	1.646707	-0.211876	0.878669
Zn12	Zn	1.980040	0.121457	1.212002
O13	O	1.394016	-0.464608	0.464725
O14	O	1.727349	-0.131274	0.798058
O15	O	2.060683	0.202059	1.131391
O16	O	1.609670	-0.405358	0.523997
O17	O	1.943003	-0.072025	0.857330
O18	O	2.276337	0.261308	1.190663
O19	O	1.453176	-0.523925	0.249103
O20	O	1.786509	-0.190592	0.582436
O21	O	2.119842	0.142742	0.915770
O22	O	1.334842	-0.249009	0.405520
O23	O	1.668175	0.084324	0.738854
O24	O	2.001509	0.417657	1.072187
O25	O	1.609592	-0.523881	0.405491
O26	O	1.942926	-0.190547	0.738825
O27	O	2.276259	0.142786	1.072158
O28	O	1.453356	-0.248976	0.524013
O29	O	1.786690	0.084358	0.857347
O30	O	2.120023	0.417691	1.190680
O31	O	1.334739	-0.405436	0.249116
O32	O	1.668073	-0.072103	0.582449
O33	O	2.001406	0.261230	0.915782
O34	O	1.178408	-0.405375	0.405476
O35	O	1.511741	-0.072042	0.738809
O36	O	1.845074	0.261292	1.072142
O37	O	1.334811	-0.523773	0.680323
O38	O	1.668144	-0.190439	1.013656
O39	O	2.001477	0.142894	1.346990
O40	O	1.178394	-0.523817	0.523935
O41	O	1.511728	-0.190484	0.857268
O42	O	1.845061	0.142850	1.190601
O43	O	1.453339	-0.405297	0.680357
O44	O	1.786672	-0.071963	1.013690
O45	O	2.120005	0.261370	1.347023
O46	O	1.453158	-0.680246	0.405447
O47	O	1.786491	-0.346913	0.738780
O48	O	2.119825	-0.013579	1.072113
O49	O	1.334708	-0.680200	0.523918
O50	O	1.668041	-0.346866	0.857252
O51	O	2.001375	-0.013533	1.190585
C52	C	1.143402	-0.464595	0.464703
C53	C	1.476735	-0.131261	0.798036
C54	C	1.810068	0.202072	1.131369
C55	C	1.036188	-0.464613	0.464716
C56	C	1.369521	-0.131279	0.798049
C57	C	1.702855	0.202054	1.131383
C58	C	0.839893	-0.464616	0.464741
C59	C	1.173226	-0.131283	0.798075
C60	C	1.506559	0.202051	1.131408
C61	C	0.949125	-0.464611	0.464725
C62	C	1.282459	-0.131278	0.798058
C63	C	1.615792	0.202056	1.131391
C64	C	1.393946	-0.715222	0.464697
C65	C	1.727279	-0.381889	0.798030
C66	C	2.060612	-0.048555	1.131363
C67	C	1.394004	-0.822436	0.464717
C68	C	1.727337	-0.489103	0.798050
C69	C	2.060671	-0.155769	1.131384
C70	C	1.394105	-1.018731	0.464778
C71	C	1.727438	-0.685398	0.798111
C72	C	2.060772	-0.352064	1.131444
C73	C	1.394046	-0.909499	0.464747
C74	C	1.727379	-0.576165	0.798080
C75	C	2.060713	-0.242832	1.131413
C76	C	1.645609	-0.464621	0.464747
C77	C	1.978942	-0.131288	0.798081
C78	C	2.312276	0.202045	1.131414
C79	C	1.752823	-0.464627	0.464757
C80	C	2.086156	-0.131294	0.798090
C81	C	2.419490	0.202040	1.131424
C82	C	1.394085	-0.464522	0.716318
C83	C	1.727418	-0.131189	1.049651
C84	C	2.060751	0.202144	1.382984
C85	C	1.394114	-0.464486	0.823532
C86	C	1.727447	-0.131153	1.156865
C87	C	2.060780	0.202181	1.490198
C88	C	1.394113	-0.213015	0.464774
C89	C	1.727446	0.120319	0.798107
C90	C	2.060780	0.453652	1.131440
C91	C	1.394154	-0.105801	0.464795
C92	C	1.727488	0.227533	0.798128
C93	C	2.060821	0.560866	1.131461
C94	C	1.394003	-0.464623	0.214110
C95	C	1.727337	-0.131290	0.547444
C96	C	2.060670	0.202044	0.880777
C97	C	1.394161	-0.464388	0.106897
C98	C	1.727494	-0.131054	0.440230
C99	C	2.060828	0.202279	0.773564
C100	C	1.394140	-0.464421	1.019827
C101	C	1.727473	-0.131088	1.353160
C102	C	2.060807	0.202246	1.686494
C103	C	1.394122	-0.464460	0.910594
C104	C	1.727456	-0.131126	1.243928
C105	C	2.060789	0.202207	1.577261
