data_functionalizedCrystal
_audit_creation_method	'MofGen! by Chris Wilmer'
_symmetry_space_group_name_H-M	'P1'
_symmetry_Int_Tables_number	1
_symmetry_cell_setting	triclinic
loop_
_symmetry_equiv_pos_as_xyz
  x,y,z
_cell_length_a	19.288859
_cell_length_b	14.519731
_cell_length_c	17.766277
_cell_angle_alpha	89.992662
_cell_angle_beta	89.989768
_cell_angle_gamma	83.411289
loop_
_atom_site_label
_atom_site_type_symbol
_atom_site_fract_x
_atom_site_fract_y
_atom_site_fract_z
O1	O	0.921776	0.115017	-0.062611
O2	O	1.421776	0.615017	0.437389
O3	O	0.719572	0.130542	-0.062609
O4	O	1.219572	0.630542	0.437391
O5	O	0.826027	-0.011492	-0.062603
O6	O	1.326027	0.488508	0.437397
O7	O	0.815321	0.257051	-0.062617
O8	O	1.315321	0.757051	0.437383
O9	O	0.826009	-0.011499	0.062585
O10	O	1.326009	0.488501	0.562585
O11	O	0.719553	0.130535	0.062579
O12	O	1.219553	0.630535	0.562579
O13	O	0.921758	0.115010	0.062578
O14	O	1.421758	0.615010	0.562578
Cu15	Cu	0.820654	0.122771	0.074009
Cu16	Cu	1.320654	0.622771	0.574009
Cu17	Cu	0.820676	0.122780	-0.074041
Cu18	Cu	1.320676	0.622780	0.425959
O19	O	0.815302	0.257043	0.062572
O20	O	1.315302	0.757043	0.562572
C21	C	0.693684	0.130040	-0.000015
C22	C	1.193684	0.630040	0.499985
C23	C	0.616575	0.128543	-0.000014
C24	C	1.116575	0.628543	0.499986
C25	C	0.052802	0.201757	-0.000019
C26	C	0.552802	0.701757	0.499981
C27	C	0.125253	0.203171	-0.000023
C28	C	0.625253	0.703171	0.499977
C29	C	0.169655	0.119832	-0.000017
C30	C	0.669655	0.619832	0.499983
C31	C	0.141601	0.035073	-0.000027
C32	C	0.641601	0.535073	0.499973
C33	C	0.069150	0.033661	-0.000030
C34	C	0.569150	0.533661	0.499970
C35	C	0.290692	0.057676	0.043848
C36	C	0.790692	0.557676	0.543848
C37	C	0.363141	0.059091	0.043856
C38	C	0.863141	0.559091	0.543856
C39	C	0.393117	0.124184	-0.000010
C40	C	0.893117	0.624184	0.499990
C41	C	0.350635	0.187876	-0.043874
C42	C	0.850635	0.687876	0.456126
C43	C	0.278184	0.186464	-0.043877
C44	C	0.778184	0.686464	0.456123
C45	C	0.248217	0.121354	-0.000014
C46	C	0.748217	0.621354	0.499986
C47	C	0.499724	0.210472	-0.000010
C48	C	0.999724	0.710472	0.499990
C49	C	0.572178	0.211883	-0.000018
C50	C	1.072178	0.711883	0.499982
C51	C	0.588524	0.043782	-0.000015
C52	C	1.088524	0.543782	0.499985
C53	C	0.516071	0.042373	-0.000014
C54	C	1.016071	0.542373	0.499986
C55	C	0.471676	0.125721	-0.000007
C56	C	0.971676	0.625721	0.499993
C57	C	0.825516	-0.045852	-0.000009
C58	C	1.325516	0.454148	0.499991
C59	C	0.824013	-0.148222	-0.000008
C60	C	1.324013	0.351778	0.499992
C61	C	0.822792	-0.231359	-0.000010
C62	C	1.322792	0.268641	0.499990
C63	C	0.821265	-0.335658	-0.000016
C64	C	1.321265	0.164342	0.499984
C65	C	0.820054	-0.418789	-0.000021
C66	C	1.320054	0.081211	0.499979
C67	C	0.818528	-0.523095	-0.000025
C68	C	1.318528	-0.023095	0.499975
C69	C	0.947645	0.115512	-0.000018
C70	C	1.447645	0.615512	0.499982
C71	C	1.024755	0.117008	-0.000024
C72	C	1.524755	0.617008	0.499976
C73	C	0.815813	0.291403	-0.000024
C74	C	1.315813	0.791403	0.499976
C75	C	0.817316	0.393774	-0.000030
C76	C	1.317316	0.893774	0.499970
N77	N	0.820643	0.122765	0.178140
N78	N	1.320643	0.622765	0.678140
N79	N	0.820692	0.122779	-0.178171
N80	N	1.320692	0.622779	0.321829
C81	C	0.867797	0.059903	0.217529
C82	C	1.367797	0.559903	0.717529
C83	C	0.867801	0.059899	0.296331
C84	C	1.367801	0.559899	0.796331
C85	C	0.820658	0.122772	0.335740
C86	C	1.320658	0.622772	0.835740
C87	C	0.773495	0.185639	0.296341
C88	C	1.273495	0.685639	0.796341
C89	C	0.773488	0.185635	0.217541
C90	C	1.273488	0.685635	0.717541
C91	C	0.811666	0.206800	0.460574
C92	C	1.311666	0.706800	0.960574
C93	C	0.811678	0.206805	0.539373
C94	C	1.311678	0.706805	1.039373
C95	C	0.820676	0.122783	0.578787
C96	C	1.320676	0.622783	1.078787
C97	C	0.829677	0.038753	0.539392
C98	C	1.329677	0.538753	1.039392
C99	C	0.829670	0.038750	0.460591
C100	C	1.329670	0.538750	0.960591
C101	C	0.820660	0.122783	0.421186
C102	C	1.320660	0.622783	0.921186
C103	C	0.867837	0.059912	0.703622
C104	C	1.367837	0.559912	1.203622
C105	C	0.867836	0.059906	0.782425
C106	C	1.367836	0.559906	1.282425
C107	C	0.773534	0.185654	0.782434
C108	C	1.273534	0.685654	1.282434
C109	C	0.773531	0.185652	0.703632
C110	C	1.273531	0.685652	1.203632
C111	C	0.820687	0.122781	0.664231
C112	C	1.320687	0.622781	1.164231
H113	H	0.375039	0.240883	-0.079591
H114	H	0.875039	0.740883	0.420409
O115	O	0.636406	-0.046107	-0.000009
O116	O	1.136406	0.453893	0.499991
H117	H	0.626406	-0.086686	0.051014
H118	H	1.126406	0.413314	0.551014
H119	H	0.493236	-0.026638	-0.000013
H120	H	0.993236	0.473362	0.499987
H121	H	0.804354	0.275227	0.571442
H122	H	1.304354	0.775227	1.071442
O123	O	0.722685	0.253473	0.824926
O124	O	1.222685	0.753473	1.324926
H125	H	0.730614	0.242920	0.886340
H126	H	1.230614	0.742920	1.386340
H127	H	0.397725	0.007234	0.079577
H128	H	0.897725	0.507234	0.579577
O129	O	0.602424	0.303301	-0.000010
O130	O	1.102424	0.803301	0.499990
H131	H	0.635043	0.307987	-0.051037
H132	H	1.135043	0.807987	0.448963
H133	H	0.243597	0.238323	-0.079594
H134	H	0.743597	0.738323	0.420406
H135	H	0.906201	0.008707	0.328408
H136	H	1.406201	0.508707	0.828408
O137	O	0.722657	0.253460	0.338849
O138	O	1.222657	0.753460	0.838849
H139	H	0.731599	0.325318	0.323702
H140	H	1.231599	0.825318	0.823702
H141	H	0.804327	0.275224	0.428490
H142	H	1.304327	0.775224	0.928490
H143	H	0.463575	0.278339	-0.000006
H144	H	0.963575	0.778339	0.499994
H145	H	0.836996	-0.029670	0.428519
H146	H	1.336996	0.470330	0.928519
O147	O	0.722632	0.253445	0.175048
O148	O	1.222632	0.753445	0.675048
H149	H	0.689852	0.297170	0.215687
H150	H	1.189852	0.797170	0.715687
O151	O	0.258359	-0.012525	0.091171
O152	O	0.758359	0.487475	0.591171
H153	H	0.279197	-0.083524	0.073131
H154	H	0.779197	0.416476	0.573131
O155	O	0.004918	0.291650	-0.000015
O156	O	0.504918	0.791650	0.499985
H157	H	0.014911	0.332228	-0.051041
H158	H	0.514911	0.832228	0.448959
O159	O	0.155515	0.294584	-0.000004
O160	O	0.655515	0.794584	0.499996
H161	H	0.137699	0.334638	-0.051021
H162	H	0.637699	0.834638	0.448979
O163	O	0.189485	-0.054818	-0.000013
O164	O	0.689485	0.445182	0.499987
H165	H	0.244577	-0.039599	0.000001
H166	H	0.744577	0.460401	0.500001
H167	H	0.046316	-0.035354	-0.000035
H168	H	0.546316	0.464646	0.499965
O169	O	0.918646	-0.007915	0.175030
O170	O	1.418646	0.492085	0.675030
H171	H	0.951431	-0.051635	0.215665
H172	H	1.451431	0.448365	0.715665
H173	H	0.837004	-0.029665	0.571481
H174	H	1.337004	0.470335	1.071481
O175	O	0.918685	-0.007905	0.661116
O176	O	1.418685	0.492095	1.161116
H177	H	0.951468	-0.051631	0.701748
H178	H	1.451468	0.448369	1.201748
O179	O	0.918705	-0.007888	0.824916
O180	O	1.418705	0.492112	1.324916
H181	H	0.951498	-0.051594	0.784276
H182	H	1.451498	0.448406	1.284276
H183	H	0.735137	0.236843	0.671559
H184	H	1.235137	0.736843	1.171559
