data_functionalizedCrystal
_audit_creation_method	'MofGen! by Chris Wilmer'
_symmetry_space_group_name_H-M	'P1'
_symmetry_Int_Tables_number	1
_symmetry_cell_setting	triclinic
loop_
_symmetry_equiv_pos_as_xyz
  x,y,z
_cell_length_a	15.995350
_cell_length_b	18.366186
_cell_length_c	19.288865
_cell_angle_alpha	89.988521
_cell_angle_beta	83.314311
_cell_angle_gamma	89.994601
loop_
_atom_site_label
_atom_site_type_symbol
_atom_site_fract_x
_atom_site_fract_y
_atom_site_fract_z
O1	O	1.110653	-0.060497	0.089532
O2	O	0.866836	-0.060513	0.100587
O3	O	0.995790	-0.060490	-0.006052
O4	O	0.981700	-0.060519	0.196172
O5	O	0.995768	0.060610	-0.006058
O6	O	0.866814	0.060587	0.100582
O7	O	1.110631	0.060603	0.089526
Zn8	Zn	0.988719	0.079822	0.095053
Zn9	Zn	0.988748	-0.079732	0.095060
O10	O	0.981678	0.060580	0.196166
C11	C	0.835632	0.000035	0.100128
C12	C	0.742687	0.000030	0.098757
N13	N	0.988706	0.188713	0.095048
N14	N	0.988768	-0.188623	0.095060
C15	C	0.404958	0.000046	0.093836
C16	C	0.452679	0.000327	0.017889
C17	C	0.549364	0.000049	0.019260
C18	C	0.572509	0.000038	0.096277
C19	C	0.531294	-0.069118	0.133740
C20	C	0.434665	-0.069171	0.131832
C21	C	0.434295	0.068542	0.133395
C22	C	0.531241	0.069451	0.133377
C23	C	0.667202	0.000032	0.097661
C24	C	0.310266	0.000047	0.092455
C25	C	1.141835	0.000053	0.089986
C26	C	1.234781	0.000054	0.091356
C27	C	0.995326	0.000062	-0.031933
C28	C	0.993965	0.000068	-0.109040
C29	C	1.045825	0.226824	0.047851
C30	C	1.045830	0.303051	0.047848
C31	C	0.988724	0.341166	0.095054
C32	C	0.931594	0.303046	0.142255
C33	C	0.931585	0.226820	0.142252
C34	C	0.977516	0.461916	0.158313
C35	C	0.977531	0.538141	0.158317
C36	C	0.988748	0.576273	0.095063
C37	C	0.999968	0.538171	0.031802
C38	C	0.999959	0.461945	0.031800
C39	C	0.988728	0.423821	0.095062
C40	C	1.045876	0.697039	0.047859
C41	C	1.045876	0.773268	0.047855
C42	C	0.931644	0.773261	0.142267
C43	C	0.931640	0.697033	0.142265
C44	C	0.988761	0.658927	0.095062
C45	C	1.069629	0.000077	-0.153540
C46	C	1.068350	0.000065	-0.225990
C47	C	0.991403	0.000060	-0.253937
C48	C	0.915729	0.000047	-0.209428
C49	C	0.917010	0.000052	-0.136979
C50	C	0.930906	0.042474	-0.362384
C51	C	0.929628	0.042475	-0.434831
C52	C	0.987450	0.000043	-0.477393
C53	C	1.046563	-0.042379	-0.447500
C54	C	1.047843	-0.042374	-0.375051
C55	C	0.990006	0.000055	-0.332495
C56	C	1.061733	0.000038	-0.600453
C57	C	1.060451	0.000022	-0.672904
C58	C	0.907827	0.000011	-0.656340
C59	C	0.909111	0.000020	-0.583890
C60	C	0.986066	0.000037	-0.555951
C61	C	0.982142	0.000027	0.222047
C62	C	0.983503	0.000015	0.299154
H63	H	0.577895	0.049623	-0.010187
C64	C	0.550092	-0.072608	0.210180
N65	N	0.564253	-0.075235	0.267755
C66	C	0.406675	0.139357	0.099844
N67	N	0.385874	0.192692	0.074566
C68	C	0.868783	0.184897	0.194205
N69	N	0.821493	0.153319	0.233348
C70	C	0.587165	-0.067032	-0.020782
N71	N	0.615636	-0.117560	-0.050943
C72	C	1.108701	0.815189	-0.004080
N73	N	1.156018	0.846765	-0.043202
H74	H	0.968400	0.569158	0.209827
C75	C	1.012306	0.580110	-0.037783
N76	N	1.021599	0.611702	-0.090192
H77	H	1.124394	0.000049	-0.577704
H78	H	0.853078	0.000041	-0.232187
H79	H	0.968367	0.430876	0.209825
H80	H	0.885097	0.334083	0.180689
C81	C	0.868864	0.655110	0.194236
N82	N	0.821597	0.623534	0.233399
C83	C	1.154282	0.000089	-0.122811
N84	N	1.218043	0.000097	-0.099665
C85	C	0.833769	0.000044	-0.088027
N86	N	0.771072	0.000040	-0.051155
H87	H	1.122068	0.000025	-0.709136
H88	H	0.546393	0.073620	0.189541
H89	H	1.129967	0.000069	-0.262229
H90	H	1.095974	-0.076917	-0.350715
H91	H	0.885144	0.804293	0.180700
C92	C	0.825874	0.000015	-0.534938
N93	N	0.763175	0.000008	-0.498067
C94	C	1.012289	0.420035	-0.037785
N95	N	1.021572	0.388469	-0.090198
C96	C	0.427790	0.067326	-0.023127
N97	N	0.409037	0.117792	-0.054022
C98	C	1.110169	-0.089060	-0.494313
N99	N	1.158075	-0.124219	-0.529575
C100	C	1.108702	0.655119	-0.004072
N101	N	1.156021	0.623547	-0.043188
H102	H	0.845176	0.000003	-0.679094
C103	C	0.410082	-0.138995	0.094924
N104	N	0.391571	-0.191587	0.067120
C105	C	0.864604	0.089139	-0.467707
N106	N	0.815624	0.124287	-0.492467
H107	H	1.092345	0.334087	0.009413
H108	H	1.092334	0.195799	0.009414
C109	C	0.867297	0.089159	-0.315572
N110	N	0.819389	0.124321	-0.280315
H111	H	0.433208	-0.048986	-0.012327
H112	H	0.402207	-0.072317	0.187591
H113	H	0.559775	-0.120578	0.107724
H114	H	0.558651	0.120612	0.106030
H115	H	0.402323	0.069002	0.189390
