data_functionalizedCrystal
_audit_creation_method	'MofGen! by Chris Wilmer'
_symmetry_space_group_name_H-M	'P1'
_symmetry_Int_Tables_number	1
_symmetry_cell_setting	triclinic
loop_
_symmetry_equiv_pos_as_xyz
  x,y,z
_cell_length_a	19.288864
_cell_length_b	17.019294
_cell_length_c	17.766277
_cell_angle_alpha	86.114664
_cell_angle_beta	89.976791
_cell_angle_gamma	83.264601
loop_
_atom_site_label
_atom_site_type_symbol
_atom_site_fract_x
_atom_site_fract_y
_atom_site_fract_z
O1	O	0.921527	0.098406	-0.069213
O2	O	1.421527	0.598406	0.430787
O3	O	0.719290	0.111681	-0.070022
O4	O	1.219290	0.611681	0.429978
O5	O	0.826050	-0.009809	-0.062171
O6	O	1.326050	0.490191	0.437829
O7	O	0.814768	0.219897	-0.077064
O8	O	1.314768	0.719897	0.422936
O9	O	0.826031	-0.009815	0.063018
O10	O	1.326031	0.490185	0.563018
O11	O	0.719271	0.111675	0.055167
O12	O	1.219271	0.611675	0.555167
O13	O	0.921508	0.098400	0.055976
O14	O	1.421508	0.598400	0.555976
Cu15	Cu	0.820388	0.105037	0.067002
Cu16	Cu	1.320388	0.605037	0.567002
Cu17	Cu	0.820410	0.105044	-0.081048
Cu18	Cu	1.320410	0.605044	0.418952
O19	O	0.814749	0.219891	0.048125
O20	O	1.314749	0.719891	0.548125
C21	C	0.693403	0.111251	-0.007393
C22	C	1.193403	0.611251	0.492607
C23	C	0.616298	0.109969	-0.007290
C24	C	1.116298	0.609969	0.492710
C25	C	0.825612	-0.039200	0.002328
C26	C	1.325612	0.460800	0.502328
C27	C	0.824328	-0.126766	0.008002
C28	C	1.324328	0.373234	0.508002
C29	C	0.571728	0.181254	-0.011924
C30	C	1.071728	0.681254	0.488076
C31	C	0.499278	0.180049	-0.011854
C32	C	0.999278	0.680049	0.488146
C33	C	0.471402	0.107555	-0.007165
C34	C	0.971402	0.607555	0.492835
C35	C	0.515982	0.036261	-0.002527
C36	C	1.015982	0.536261	0.497473
C37	C	0.588430	0.037468	-0.002589
C38	C	1.088430	0.537468	0.497411
C39	C	0.363046	0.050570	-0.047355
C40	C	0.863046	0.550570	0.452645
C41	C	0.290600	0.049366	-0.047297
C42	C	0.790600	0.549366	0.452703
C43	C	0.247950	0.103831	-0.006969
C44	C	0.747950	0.603831	0.493031
C45	C	0.277755	0.159513	0.033291
C46	C	0.777755	0.659513	0.533291
C47	C	0.350203	0.160720	0.033228
C48	C	0.850203	0.660720	0.533228
C49	C	0.392846	0.106239	-0.007097
C50	C	0.892846	0.606239	0.492903
C51	C	0.124822	0.173815	-0.011527
C52	C	0.624822	0.673815	0.488473
C53	C	0.052372	0.172607	-0.011452
C54	C	0.552372	0.672607	0.488548
C55	C	0.069077	0.028817	-0.002132
C56	C	0.569077	0.528817	0.497868
C57	C	0.141526	0.030026	-0.002200
C58	C	0.641526	0.530026	0.497800
C59	C	0.169394	0.102528	-0.006900
C60	C	0.669394	0.602528	0.493100
C61	C	0.823737	-0.167897	-0.057572
C62	C	1.323737	0.332103	0.442428
C63	C	0.822526	-0.250174	-0.052239
C64	C	1.322526	0.249826	0.447761
C65	C	0.821912	-0.291319	0.018670
C66	C	1.321912	0.208681	0.518670
C67	C	0.822501	-0.250182	0.084249
C68	C	1.322501	0.249818	0.584249
C69	C	0.823707	-0.167906	0.078915
C70	C	1.323707	0.332094	0.578915
C71	C	0.818265	-0.539739	0.038191
C72	C	1.318265	-0.039739	0.538191
C73	C	0.817062	-0.622022	0.043520
C74	C	1.317062	-0.122022	0.543520
C75	C	0.817085	-0.622008	-0.092968
C76	C	1.317085	-0.122008	0.407032
C77	C	0.818296	-0.539730	-0.098297
C78	C	1.318296	-0.039730	0.401703
C79	C	0.818881	-0.498600	-0.032717
C80	C	1.318881	0.001400	0.467283
C81	C	0.820676	-0.375420	0.024124
C82	C	1.320676	0.124580	0.524124
C83	C	0.820112	-0.414500	-0.038172
C84	C	1.320112	0.085500	0.461828
C85	C	0.947395	0.098830	-0.006654
C86	C	1.447395	0.598830	0.493346
C87	C	1.024501	0.100113	-0.006762
C88	C	1.524501	0.600113	0.493238
C89	C	0.815186	0.249281	-0.016375
C90	C	1.315186	0.749281	0.483625
C91	C	0.816470	0.336847	-0.022054
C92	C	1.316470	0.836847	0.477946
N93	N	0.820378	0.105031	0.171133
N94	N	1.320378	0.605031	0.671133
N95	N	0.820426	0.105044	-0.185178
N96	N	1.320426	0.605044	0.314822
C97	C	0.867666	0.051262	0.213995
C98	C	1.367666	0.551262	0.713995
C99	C	0.867670	0.051258	0.292797
C100	C	1.367670	0.551258	0.792797
C101	C	0.820392	0.105038	0.328733
C102	C	1.320392	0.605038	0.828733
C103	C	0.773095	0.158812	0.285862
C104	C	1.273095	0.658812	0.785862
C105	C	0.773088	0.158808	0.207062
C106	C	1.273088	0.658808	0.707062
C107	C	0.811221	0.176913	0.448913
C108	C	1.311221	0.676913	0.948913
C109	C	0.811233	0.176917	0.527711
C110	C	1.311233	0.676917	1.027711
C111	C	0.820411	0.105047	0.571779
C112	C	1.320411	0.605047	1.071779
C113	C	0.829591	0.033170	0.537039
C114	C	1.329591	0.533170	1.037039
C115	C	0.829584	0.033167	0.458239
C116	C	1.329584	0.533167	0.958239
C117	C	0.820395	0.105047	0.414178
C118	C	1.320395	0.605047	0.914178
C119	C	0.867706	0.051269	0.700087
C120	C	1.367706	0.551269	1.200087
C121	C	0.867705	0.051264	0.778891
C122	C	1.367705	0.551264	1.278891
C123	C	0.773134	0.158825	0.771954
C124	C	1.273134	0.658825	1.271954
C125	C	0.773131	0.158823	0.693152
C126	C	1.273131	0.658823	1.193152
C127	C	0.820421	0.105046	0.657224
C128	C	1.320421	0.605046	1.157224
H129	H	0.594412	0.240290	-0.015753
H130	H	1.094412	0.740290	0.484247
H131	H	0.734636	0.202610	0.801213
H132	H	1.234636	0.702610	1.301213
H133	H	0.243031	0.203863	0.066130
H134	H	0.743031	0.703863	0.566130
H135	H	0.906171	0.007472	0.184744
H136	H	1.406171	0.507472	0.684744
F137	F	0.722803	0.216055	0.647532
F138	F	1.222803	0.716055	1.147532
F139	F	0.918004	-0.005974	0.338421
F140	F	1.418004	0.494026	0.838421
H141	H	0.837057	-0.025358	0.429957
H142	H	1.337057	0.474642	0.929957
H143	H	0.822047	-0.283659	-0.105636
H144	H	1.322047	0.216341	0.394364
H145	H	0.837065	-0.025354	0.572917
H146	H	1.337065	0.474646	1.072917
F147	F	0.451835	0.255924	-0.016784
F148	F	0.951835	0.755924	0.483216
F149	F	0.821839	-0.293973	0.159716
F150	F	1.321839	0.206027	0.659716
H151	H	0.266338	0.004029	-0.080083
H152	H	0.766338	0.504029	0.419917
H153	H	0.374467	0.206055	0.066012
H154	H	0.874467	0.706055	0.566012
H155	H	0.803762	0.235444	0.555990
H156	H	1.303762	0.735444	1.055990
H157	H	0.397766	0.006216	-0.080199
H158	H	0.897766	0.506216	0.419801
H159	H	0.818797	-0.506236	-0.156038
H160	H	1.318797	-0.006236	0.343962
F161	F	0.918034	-0.005968	0.661849
F162	F	1.418034	0.494032	1.161849
H163	H	0.906211	0.007474	0.813790
H164	H	1.406211	0.507474	1.313790
F165	F	0.801502	0.253414	0.402019
F166	F	1.301502	0.753414	0.902019
F167	F	0.004936	0.248483	-0.016380
F168	F	0.504936	0.748483	0.483620
H169	H	0.493281	-0.022764	0.001280
H170	H	0.993281	0.477236	0.501280
F171	F	0.722776	0.216045	0.324109
F172	F	1.222776	0.716045	0.824109
F173	F	0.722755	0.216040	0.161443
F174	F	1.222755	0.716040	0.661443
H175	H	0.046382	-0.030209	0.001638
H176	H	0.546382	0.469791	0.501638
F177	F	0.820019	-0.419216	0.099588
F178	F	1.320019	0.080784	0.599588
H179	H	0.147513	0.232849	-0.015343
H180	H	0.647513	0.732849	0.484657
F181	F	0.824396	-0.124115	-0.133044
F182	F	1.324396	0.375885	0.366956
F183	F	0.188963	-0.045846	0.002728
F184	F	0.688963	0.454154	0.502728
H185	H	0.816607	-0.655504	-0.146359
H186	H	1.316607	-0.155504	0.353641
F187	F	0.635867	-0.038407	0.002343
F188	F	1.135867	0.461593	0.502343
F189	F	0.816411	-0.665811	0.118994
F190	F	1.316411	-0.165811	0.618994
H191	H	0.818756	-0.506263	0.091590
H192	H	1.318756	-0.006263	0.591590
F193	F	0.824335	-0.124132	0.148708
F194	F	1.324335	0.375868	0.648708
F195	F	0.820767	-0.370709	-0.113636
F196	F	1.320767	0.129291	0.386364
