data_functionalizedCrystal
_audit_creation_method	'MofGen! by Chris Wilmer'
_symmetry_space_group_name_H-M	'P1'
_symmetry_Int_Tables_number	1
_symmetry_cell_setting	triclinic
loop_
_symmetry_equiv_pos_as_xyz
  x,y,z
_cell_length_a	27.731993
_cell_length_b	27.732048
_cell_length_c	14.750779
_cell_angle_alpha	77.459753
_cell_angle_beta	102.543346
_cell_angle_gamma	82.631525
loop_
_atom_site_label
_atom_site_type_symbol
_atom_site_fract_x
_atom_site_fract_y
_atom_site_fract_z
O1	O	0.630405	0.067928	-0.079584
O2	O	0.489600	0.076709	-0.079644
O3	O	0.564378	0.001918	-0.079594
O4	O	0.555627	0.142718	-0.079634
O5	O	0.585516	-0.019222	0.080070
O6	O	0.510738	0.055568	0.080020
O7	O	0.651544	0.046787	0.080080
Zn8	Zn	0.584497	0.047821	0.105401
Zn9	Zn	0.556646	0.075674	-0.104964
O10	O	0.576765	0.121578	0.080030
C11	C	0.482161	0.065959	0.000181
C12	C	0.428501	0.065420	0.000159
C13	C	0.033825	0.073007	-0.086827
C14	C	0.235479	0.075077	-0.086854
O15	O	0.251752	0.085126	-0.160874
N16	N	0.272221	0.063813	0.000178
C17	C	0.258549	0.052026	0.087222
O18	O	0.294429	0.042488	0.161246
C19	C	0.056896	0.049952	0.087247
C20	C	0.020155	0.061223	0.000210
C21	C	-0.002916	0.084275	-0.173857
C22	C	-0.053327	0.083760	-0.173849
C23	C	-0.066997	0.071976	-0.086812
C24	C	-0.030256	0.060708	0.000218
C25	C	0.043225	0.038163	0.174290
C26	C	-0.007192	0.037644	0.174289
C27	C	-0.043934	0.048914	0.087252
C28	C	-0.094337	0.048409	0.087263
N29	N	-0.131080	0.059673	0.000232
C30	C	-0.117410	0.071457	-0.086806
C31	C	0.364418	0.053117	0.087202
C32	C	0.414831	0.053636	0.087196
C33	C	0.391758	0.076686	-0.086880
C34	C	0.341343	0.076170	-0.086872
C35	C	0.327676	0.064381	0.000171
C36	C	-0.223275	0.070375	-0.086783
C37	C	-0.273689	0.069861	-0.086768
C38	C	-0.250611	0.046808	0.087307
C39	C	-0.200201	0.047325	0.087292
C40	C	-0.186535	0.059108	0.000239
O41	O	-0.110646	0.038360	0.161244
O42	O	-0.153295	0.080984	-0.160819
C43	C	0.084235	0.073522	-0.086834
C44	C	0.120976	0.062253	0.000195
C45	C	0.107306	0.050469	0.087232
C46	C	0.171389	0.062772	0.000189
C47	C	0.185059	0.074556	-0.086848
C48	C	0.148316	0.085821	-0.173879
C49	C	0.097905	0.085306	-0.173872
C50	C	0.144049	0.039204	0.174264
C51	C	0.194458	0.039721	0.174249
C52	C	0.208129	0.051505	0.087212
C53	C	0.574764	-0.026660	0.000241
C54	C	0.574212	-0.080315	0.000248
C55	C	0.614913	-0.419134	0.000217
C56	C	0.612860	-0.620791	0.000202
O57	O	0.650078	-0.652051	0.000176
N58	N	0.568521	-0.639904	0.000184
C59	C	0.524691	-0.608598	0.000164
O60	O	0.486930	-0.629480	0.000138
C61	C	0.526744	-0.406941	0.000171
C62	C	0.571087	-0.387833	0.000199
C63	C	0.659252	-0.400025	0.000243
C64	C	0.659765	-0.349614	0.000252
C65	C	0.615940	-0.318313	0.000234
C66	C	0.571600	-0.337422	0.000207
C67	C	0.482914	-0.375635	0.000143
C68	C	0.483431	-0.325218	0.000143
C69	C	0.527774	-0.306109	0.000170
C70	C	0.528288	-0.255710	0.000198
N71	N	0.572627	-0.236597	0.000216
C72	C	0.616453	-0.267898	0.000234
C73	C	0.523617	-0.714472	0.000162
C74	C	0.523104	-0.764886	0.000161
C75	C	0.611272	-0.777076	0.000198
C76	C	0.611786	-0.726661	0.000205
C77	C	0.567956	-0.695359	0.000180
C78	C	0.617528	-0.162032	0.000254
C79	C	0.618038	-0.111617	0.000266
C80	C	0.529869	-0.099431	0.000224
C81	C	0.529359	-0.149842	0.000217
C82	C	0.573192	-0.181142	0.000228
O83	O	0.491088	-0.224420	0.000214
O84	O	0.654206	-0.247004	0.000238
C85	C	0.614399	-0.469545	0.000208
C86	C	0.570060	-0.488654	0.000181
C87	C	0.526234	-0.457352	0.000163
C88	C	0.569547	-0.539068	0.000181
C89	C	0.613373	-0.570370	0.000199
C90	C	0.657712	-0.551257	0.000217
C91	C	0.658225	-0.500846	0.000226
C92	C	0.481895	-0.476465	0.000145
C93	C	0.481386	-0.526876	0.000137
C94	C	0.525212	-0.558178	0.000155
C95	C	0.658982	0.057537	0.000253
C96	C	0.712641	0.058077	0.000269
C97	C	0.566379	0.150156	0.000193
C98	C	0.566930	0.203812	0.000179
N99	N	0.603509	0.028812	0.248969
N100	N	0.537638	0.094680	-0.248533
C101	C	0.484543	0.147749	0.600707
C102	C	0.497868	0.134431	0.701215
C103	C	0.564097	0.068228	0.701223
C104	C	0.550776	0.081539	0.600712
C105	C	0.510998	0.121300	0.550463
C106	C	0.577232	0.055089	0.550468
C107	C	0.563913	0.068400	0.449967
C108	C	0.524138	0.108161	0.399710
C109	C	0.497680	0.134611	0.449961
C110	C	0.617011	0.015331	0.600719
C111	C	0.643467	-0.011118	0.550475
C112	C	0.630146	0.002190	0.449972
C113	C	0.590371	0.041950	0.399715
C114	C	0.656605	-0.024260	0.399720
C115	C	0.643286	-0.010949	0.299219
C116	C	0.577053	0.055261	0.299214
H117	H	-0.303604	0.079040	-0.157647
Cl118	Cl	0.676548	-0.044199	0.236052
H119	H	0.695873	-0.334061	0.000271
H120	H	-0.083238	0.092936	-0.244723
H121	H	0.446206	-0.450983	0.000128
Cl122	Cl	0.461014	0.039477	0.196618
Cl123	Cl	0.347244	0.038302	0.196640
H124	H	0.073133	0.028984	0.245165
H125	H	0.627856	0.004496	0.682554
H126	H	0.653220	-0.187510	0.000259
Cl127	Cl	0.165511	0.100636	-0.283296
Cl128	Cl	0.712807	-0.590618	0.000244
H129	H	0.465285	0.166985	0.409046
H130	H	0.654149	-0.096062	0.000291
Cl131	Cl	0.467359	-0.788904	0.000145
H132	H	0.493255	-0.165405	0.000221
H133	H	0.694942	-0.425506	0.000254
Cl134	Cl	0.434530	0.197730	0.537532
Cl135	Cl	-0.024370	0.022820	0.283722
H136	H	-0.212155	0.079970	-0.157670
H137	H	-0.170285	0.038157	0.158164
Cl138	Cl	0.240643	0.025554	0.283678
Cl139	Cl	0.014258	0.099091	-0.283290
Cl140	Cl	0.126872	0.024394	0.283694
Cl141	Cl	0.693473	-0.061101	0.613652
H142	H	0.647894	-0.711107	0.000227
H143	H	0.311431	0.085347	-0.157746
H144	H	0.646957	-0.802570	0.000213
Cl145	Cl	0.408952	0.091501	-0.196297
H146	H	-0.261751	0.037216	0.158170
H147	H	0.596486	0.035856	0.742147
Cl148	Cl	0.051723	0.099474	-0.283296
H149	H	0.487924	-0.688989	0.000141
H150	H	0.446805	-0.391183	0.000115
H151	H	0.447738	-0.299733	0.000120
Cl152	Cl	0.713972	-0.476831	0.000252
Cl153	Cl	0.425635	-0.550892	0.000107
Cl154	Cl	0.527040	0.105243	0.236039
Cl155	Cl	0.474777	-0.060071	0.000200
Cl156	Cl	0.507396	0.124897	0.273363
Cl157	Cl	0.464604	0.167689	0.764373
Cl158	Cl	0.706614	-0.074238	0.462901
