data_functionalizedCrystal
_audit_creation_method	'MofGen! by Chris Wilmer'
_symmetry_space_group_name_H-M	'P1'
_symmetry_Int_Tables_number	1
_symmetry_cell_setting	triclinic
loop_
_symmetry_equiv_pos_as_xyz
  x,y,z
_cell_length_a	14.809374
_cell_length_b	21.606444
_cell_length_c	21.606444
_cell_angle_alpha	60.001331
_cell_angle_beta	90.001385
_cell_angle_gamma	52.845983
loop_
_atom_site_label
_atom_site_type_symbol
_atom_site_fract_x
_atom_site_fract_y
_atom_site_fract_z
Zr1	Zr	0.990994	0.527971	-0.006465
O2	O	0.826724	0.681872	-0.117676
O3	O	1.041352	0.391255	0.027625
O4	O	1.041339	0.520381	-0.101495
O5	O	0.826746	0.552740	0.113298
O6	O	1.210629	0.494846	-0.088728
O7	O	0.826738	0.552746	0.011444
O8	O	1.210653	0.263863	0.142243
O9	O	0.826723	0.783723	-0.117673
O10	O	1.189167	0.422067	0.051695
O11	O	1.062834	0.441119	0.118180
O12	O	1.062819	0.593148	-0.033842
O13	O	0.936486	0.612201	0.032643
Zr14	Zr	1.261005	0.487236	0.176344
Zr15	Zr	1.260992	0.487245	0.013897
Zr16	Zr	0.991007	0.527962	0.155982
Zr17	Zr	0.990991	0.690412	-0.006460
Zr18	Zr	1.261008	0.324795	0.176339
O19	O	1.210647	0.623951	0.142254
O20	O	1.210627	0.623964	-0.088724
O21	O	0.826744	0.681859	0.113302
O22	O	1.425275	0.333335	0.287555
O23	O	1.425255	0.333348	0.056577
O24	O	1.041372	0.391242	0.258603
O25	O	1.425253	0.462467	0.056581
O26	O	1.210660	0.494826	0.271374
O27	O	1.041370	0.520361	0.258607
O28	O	1.425261	0.462461	0.158435
O29	O	1.041335	0.751351	-0.101488
O30	O	1.210664	0.263856	0.271367
O31	O	1.425276	0.231484	0.287552
O32	O	1.425265	0.231491	0.158428
O33	O	0.826734	0.783716	0.011451
O34	O	1.041346	0.751344	0.027636
O35	O	1.189180	0.422058	0.203721
O36	O	1.315513	0.403006	0.137236
O37	O	1.189165	0.574087	0.051699
O38	O	1.062832	0.593140	0.118184
C39	C	1.126003	0.304415	0.084933
C40	C	1.126004	0.235454	0.084931
C41	C	1.191946	0.193112	0.050225
C42	C	1.191950	0.128311	0.050231
C43	C	1.126005	0.105860	0.084937
C44	C	1.060061	0.148205	0.119648
C45	C	1.060065	0.212999	0.119647
C46	C	1.060047	-0.113102	0.119653
C47	C	1.060045	-0.177899	0.119649
C48	C	1.191932	-0.197790	0.050237
C49	C	1.191936	-0.132996	0.050236
C50	C	1.125998	-0.090660	0.084950
C51	C	1.125996	-0.020397	0.084945
C52	C	1.125999	0.035604	0.084938
C53	C	0.788273	0.558546	0.059470
C54	C	0.673652	0.575835	0.050826
C55	C	0.685227	0.498675	0.089404
C56	C	0.566762	0.516542	0.080470
C57	C	1.463726	0.456661	0.110409
C58	C	1.578347	0.439372	0.119053
C59	C	1.125982	0.507615	-0.118256
C60	C	1.125977	0.507619	-0.187219
C61	C	1.125996	0.710792	0.084946
C62	C	1.125995	0.779752	0.084948
C63	C	1.060023	0.596921	-0.264267
C64	C	1.060034	0.596917	-0.329061
C65	C	1.125992	0.507610	-0.316806
C66	C	1.191953	0.418301	-0.239750
C67	C	1.191949	0.418305	-0.174957
C68	C	1.191973	0.418283	-0.501052
C69	C	1.191969	0.418286	-0.565853
C70	C	1.060058	0.596895	-0.655155
C71	C	1.060054	0.596899	-0.590363
C72	C	1.126020	0.507589	-0.513312
C73	C	1.126010	0.507594	-0.443055
C74	C	1.125996	0.507605	-0.387062
C75	C	1.126017	0.507592	0.288135
C76	C	1.126022	0.507588	0.357098
C77	C	1.463730	0.253473	0.110403
C78	C	1.578352	0.167223	0.119045
C79	C	1.126020	0.304403	0.288129
C80	C	1.126027	0.235439	0.357090
C81	C	1.463747	0.253461	0.313599
C82	C	1.578375	0.167208	0.391204
C83	C	0.788252	0.761745	-0.143720
C84	C	0.673624	0.847999	-0.221325
C85	C	0.788269	0.761734	0.059476
C86	C	0.673647	0.847984	0.050834
C87	C	1.125979	0.710803	-0.118250
C88	C	1.125972	0.779767	-0.187211
C89	C	1.566229	0.136669	0.078445
C90	C	1.673919	0.055639	0.086549
C91	C	1.793730	0.005160	0.135258
C92	C	1.805851	0.035720	0.175859
C93	C	1.698163	0.116754	0.167750
C94	C	1.191982	0.193103	0.434133
C95	C	1.191983	0.128314	0.498934
C96	C	1.126037	0.105856	0.486692
C97	C	1.060075	0.148200	0.409641
C98	C	1.060066	0.212994	0.344840
C99	C	1.698162	0.116755	0.392944
C100	C	1.805877	0.035718	0.465857
C101	C	1.793804	0.005131	0.537028
C102	C	1.674005	0.055592	0.535285
C103	C	1.566292	0.136632	0.462373
C104	C	0.553837	0.898459	-0.223065
C105	C	0.446122	0.979516	-0.295978
C106	C	0.458195	1.010107	-0.367149
C107	C	0.577994	0.959642	-0.365406
C108	C	0.685707	0.878591	-0.292494
C109	C	0.685770	0.878545	0.091427
C110	C	0.578080	0.959593	0.083305
C111	C	0.458269	1.010074	0.034594
C112	C	0.446148	0.979510	-0.006004
C113	C	0.553836	0.898468	0.002114
C114	C	1.191931	0.802203	-0.174943
C115	C	1.191949	0.866989	-0.239731
C116	C	1.126000	0.909346	-0.316786
C117	C	1.060039	0.886904	-0.329053
C118	C	1.060029	0.822113	-0.264265
H119	H	1.245627	-0.232270	0.021974
H120	H	0.587810	0.984559	-0.423363
N121	N	0.988949	0.258633	0.261748
H122	H	0.998944	0.303087	0.222547
H123	H	0.896721	0.299376	0.248791
H124	H	0.783240	0.837506	-0.291086
H125	H	0.348587	1.020593	-0.297381
N126	N	1.437097	0.191026	0.460505
H127	H	1.370682	0.247005	0.403521
H128	H	1.427120	0.219361	0.488410
N129	N	1.437012	0.191103	0.025908
H130	H	1.445692	0.159444	0.001420
H131	H	1.389451	0.263324	-0.017563
N132	N	1.935083	-0.018711	0.467734
H133	H	1.945163	0.029207	0.439861
H134	H	1.945080	-0.047116	0.439890
N135	N	0.988906	0.932594	-0.412164
H136	H	1.049394	0.912198	-0.436253
H137	H	0.922552	1.007637	-0.445749
N138	N	0.988910	-0.067441	0.157086
H139	H	0.922541	0.007614	0.115692
H140	H	1.049477	-0.087917	0.201586
H141	H	1.006365	0.247477	0.147906
N142	N	0.988893	0.693246	-0.277490
H143	H	0.998895	0.679701	-0.224754
H144	H	0.896664	0.741814	-0.313102
N145	N	1.660829	0.022688	0.042755
H146	H	1.568587	0.066961	0.010676
H147	H	1.702648	-0.048666	0.082333
N148	N	0.540752	0.865510	-0.041671
H149	H	0.448508	0.909791	-0.073757
H150	H	0.582553	0.794161	-0.002089
N151	N	0.814522	0.393647	0.141909
H152	H	0.805971	0.344608	0.166426
H153	H	0.862048	0.383066	0.185359
H154	H	0.370478	1.076105	-0.426513
N155	N	0.988944	0.123985	0.157090
H156	H	0.998944	0.076515	0.151824
H157	H	0.896716	0.187385	0.129304
N158	N	0.540792	0.865489	-0.146310
H159	H	0.627196	0.806486	-0.099849
H160	H	0.493156	0.845847	-0.143902
N161	N	0.814987	0.824107	0.143968
H162	H	0.806307	0.855779	0.168442
H163	H	0.862538	0.828211	0.111119
H164	H	1.006342	-0.196176	0.147914
H165	H	1.245654	0.345586	-0.112221
H166	H	0.576038	0.655122	0.011186
H167	H	1.245664	0.345585	-0.229776
N168	N	1.711218	0.149721	0.316193
H169	H	1.758787	0.169432	0.313712
H170	H	1.624776	0.208686	0.269772
H171	H	1.006331	0.669635	-0.391795
H172	H	1.006340	0.669622	-0.600349
H173	H	1.881407	-0.060822	0.141855
N174	N	0.988881	0.797921	-0.277502
H175	H	0.947107	0.834590	-0.336149
H176	H	0.922572	0.819205	-0.257355
N177	N	1.126066	0.035958	0.556587
H178	H	1.036754	0.071971	0.549893
H179	H	1.177921	0.012563	0.607216
N180	N	0.437469	0.621578	0.027962
H181	H	0.371168	0.619454	0.029025
H182	H	0.427414	0.657773	-0.028295
H183	H	1.881521	-0.060858	0.596392
H184	H	1.006383	0.129905	0.399684
N185	N	1.660992	0.022595	0.612051
H186	H	1.747411	-0.036402	0.658499
H187	H	1.613383	0.002932	0.614467
H188	H	1.903416	-0.005391	0.215517
N189	N	0.591170	0.992546	0.127097
H190	H	0.683412	0.948258	0.159191
H191	H	0.549359	0.987580	0.163832
H192	H	0.370592	1.076062	0.027991
H193	H	0.348583	1.020624	-0.045664
H194	H	1.708051	0.141620	0.200817
N195	N	1.263118	0.321954	-0.417959
H196	H	1.228521	0.292483	-0.414505
H197	H	1.253103	0.335565	-0.378812
H198	H	1.245634	0.767725	-0.112206
H199	H	1.245660	0.885253	-0.229728
H200	H	1.245683	0.211380	0.444116
N201	N	1.126034	0.979219	-0.386653
H202	H	1.088512	1.038639	-0.389502
H203	H	1.074273	1.002579	-0.437296
H204	H	1.245702	0.093844	0.561667
N205	N	0.707641	0.334337	0.171558
H206	H	0.699088	0.285301	0.196073
H207	H	0.755175	0.323750	0.215010
N208	N	1.263066	0.217329	0.012784
H209	H	1.355326	0.153977	0.040553
H210	H	1.252962	0.264831	0.018051
N211	N	1.263069	0.082649	0.012793
H212	H	1.202577	0.103047	-0.031693
H213	H	1.329442	0.007605	0.054238
N214	N	1.263053	-0.108773	0.012797
H215	H	1.304830	-0.145432	-0.009188
H216	H	1.329357	-0.130052	0.054228
N217	N	0.988909	0.693226	-0.738261
H218	H	0.998920	0.679677	-0.777451
H219	H	1.023528	0.722662	-0.741650
N220	N	1.263125	0.321957	-0.552635
H221	H	1.304921	0.265378	-0.493991
H222	H	1.329416	0.308515	-0.572795
