data_functionalizedCrystal
_audit_creation_method	'MofGen! by Chris Wilmer'
_symmetry_space_group_name_H-M	'P1'
_symmetry_Int_Tables_number	1
_symmetry_cell_setting	triclinic
loop_
_symmetry_equiv_pos_as_xyz
  x,y,z
_cell_length_a	10.540514
_cell_length_b	10.540539
_cell_length_c	9.616153
_cell_angle_alpha	90.004388
_cell_angle_beta	90.002713
_cell_angle_gamma	84.520326
loop_
_atom_site_label
_atom_site_type_symbol
_atom_site_fract_x
_atom_site_fract_y
_atom_site_fract_z
O1	O	1.685901	0.178751	0.115656
O2	O	1.316484	0.195641	0.115654
O3	O	1.509621	0.002489	0.115653
O4	O	1.492765	0.371903	0.115657
O5	O	1.509613	0.002475	-0.115638
O6	O	1.316476	0.195627	-0.115637
O7	O	1.685894	0.178738	-0.115635
Zn8	Zn	1.501184	0.187180	-0.152359
Zn9	Zn	1.501194	0.187198	0.152378
O10	O	1.492757	0.371890	-0.115635
C11	C	1.269177	0.194374	0.000008
C12	C	1.128227	0.190605	0.000008
C13	C	1.057522	0.328745	0.000012
C14	C	0.910908	0.324871	0.000544
C15	C	0.935894	0.115486	0.131837
C16	C	1.082433	0.120339	0.131941
C17	C	1.082827	0.118280	-0.131090
C18	C	0.935848	0.116947	-0.132816
C19	C	1.508353	-0.044821	0.000010
C20	C	1.504571	-0.185769	0.000018
C21	C	1.359652	-0.369182	0.000536
C22	C	1.363486	-0.222564	0.000016
C23	C	1.572463	-0.247440	-0.132061
C24	C	1.567648	-0.393984	-0.132172
C25	C	1.570526	-0.394487	0.130850
C26	C	1.571826	-0.247505	0.132596
C27	C	1.733201	0.180004	0.000013
C28	C	1.874151	0.183774	0.000023
C29	C	1.494025	0.419199	0.000012
C30	C	1.497807	0.560147	0.000013
N31	N	1.501186	0.187167	-0.360333
C32	C	1.604888	0.084201	-0.580660
C33	C	1.604608	0.083808	-0.419493
C34	C	1.368480	0.157049	-0.418865
C35	C	1.369097	0.156327	-0.580083
C36	C	1.529029	0.320614	-0.580206
C37	C	1.532024	0.319741	-0.418978
N38	N	1.501202	0.187201	0.360352
H39	H	0.893290	0.162306	0.230308
C40	C	1.581037	-0.048764	-0.635400
N41	N	1.563067	-0.148912	-0.676631
C42	C	1.712426	-0.217229	-0.138717
N43	N	1.817844	-0.194463	-0.143734
C44	C	1.499840	-0.432084	-0.265546
N45	N	1.448761	-0.460773	-0.366003
C46	C	1.334830	0.027029	-0.364356
N47	N	1.309494	-0.070907	-0.323306
C48	C	0.880452	0.184355	-0.264562
N49	N	0.838716	0.235128	-0.363791
H50	H	0.869180	0.378364	0.095591
C51	C	0.853258	0.397478	-0.127047
N52	N	0.809840	0.452192	-0.223139
H53	H	1.623797	0.349271	-0.620854
C54	C	0.903165	-0.021992	-0.144111
N55	N	0.878547	-0.126646	-0.152610
H56	H	1.303923	-0.397772	0.095252
C57	C	1.580403	-0.049915	-0.367404
N58	N	1.562165	-0.150639	-0.328172
C59	C	1.710793	-0.214806	0.143368
N60	N	1.815471	-0.190182	0.151468
C61	C	1.426905	0.424185	-0.631753
N62	N	1.349983	0.502185	-0.670587
C63	C	1.708192	-0.458307	0.132057
N64	N	1.811876	-0.506384	0.132957
H65	H	1.703825	0.102040	-0.619420
H66	H	1.344753	0.058994	-0.617701
H67	H	1.629654	0.342568	-0.380722
C68	C	1.508838	-0.437094	0.266091
N69	N	1.462361	-0.469182	0.367948
H70	H	1.703216	0.101918	-0.379918
H71	H	1.289561	0.228433	-0.619105
H72	H	1.114318	0.164258	-0.231032
H73	H	1.289412	0.230018	-0.380547
C74	C	1.284676	-0.409951	-0.126733
N75	N	1.228213	-0.440648	-0.222605
H76	H	1.461488	0.400067	-0.378704
C77	C	0.905743	-0.024515	0.137964
N78	N	0.883029	-0.129963	0.142578
C79	C	1.096067	0.404446	-0.127673
N80	N	1.125106	0.461464	-0.223851
C81	C	1.146672	-0.019371	-0.132815
N82	N	1.194765	-0.123046	-0.134102
H83	H	1.087752	0.383969	0.094399
C84	C	1.120572	0.187724	0.265571
N85	N	1.149292	0.238477	0.366226
H86	H	1.310065	-0.179951	0.094695
C87	C	1.147291	-0.016743	0.139547
N88	N	1.196135	-0.119992	0.145289
H89	H	1.669114	-0.441962	-0.138164
H90	H	1.309684	-0.180809	-0.094822
H91	H	1.525295	-0.204842	-0.230350
H92	H	1.522150	-0.206637	0.230304
