data_functionalizedCrystal
_audit_creation_method	'MofGen! by Chris Wilmer'
_symmetry_space_group_name_H-M	'P1'
_symmetry_Int_Tables_number	1
_symmetry_cell_setting	triclinic
loop_
_symmetry_equiv_pos_as_xyz
  x,y,z
_cell_length_a	27.732025
_cell_length_b	17.699083
_cell_length_c	16.176319
_cell_angle_alpha	90.001389
_cell_angle_beta	90.007718
_cell_angle_gamma	97.041759
loop_
_atom_site_label
_atom_site_type_symbol
_atom_site_fract_x
_atom_site_fract_y
_atom_site_fract_z
O1	O	0.061128	-1.003532	-0.068604
O2	O	0.561128	-0.503532	0.431396
O3	O	0.069080	-0.783083	-0.068628
O4	O	0.569080	-0.283083	0.431372
O5	O	-0.005269	-0.900163	-0.068640
O6	O	0.494731	-0.400163	0.431360
O7	O	0.135477	-0.886452	-0.068592
O8	O	0.635477	-0.386452	0.431408
O9	O	-0.005274	-0.900147	0.068853
O10	O	0.494726	-0.400147	0.568853
O11	O	0.069076	-0.783067	0.068865
O12	O	0.569076	-0.283067	0.568865
O13	O	0.061123	-1.003516	0.068889
O14	O	0.561123	-0.503516	0.568889
Cu15	Cu	0.065099	-0.893290	0.081431
Cu16	Cu	0.565099	-0.393290	0.581431
Cu17	Cu	0.065104	-0.893309	-0.081170
Cu18	Cu	0.565104	-0.393309	0.418830
O19	O	0.135472	-0.886436	0.068902
O20	O	0.635472	-0.386436	0.568902
C21	C	0.068793	-0.754880	0.000115
C22	C	0.568793	-0.254880	0.500115
C23	C	0.067938	-0.670870	0.000105
C24	C	0.567938	-0.170870	0.500105
C25	C	-0.023279	-0.899870	0.000098
C26	C	0.476721	-0.399870	0.500098
C27	C	-0.076938	-0.899011	0.000073
C28	C	0.423062	-0.399011	0.500073
C29	C	0.061410	-1.031719	0.000144
C30	C	0.561410	-0.531719	0.500144
C31	C	0.062265	-1.115729	0.000149
C32	C	0.562265	-0.615729	0.500149
C33	C	-0.460123	-0.892918	-0.074827
C34	C	0.039877	-0.392918	0.425173
C35	C	-0.258452	-0.896132	-0.074853
C36	C	0.241548	-0.396132	0.425147
O37	O	-0.232381	-0.896585	-0.138595
O38	O	0.267619	-0.396585	0.361405
N39	N	-0.233232	-0.896525	0.000092
N40	N	0.266768	-0.396525	0.500092
C41	C	-0.258433	-0.896120	0.075050
C42	C	0.241567	-0.396120	0.575050
O43	O	-0.232355	-0.896536	0.138795
O44	O	0.267645	-0.396536	0.638795
C45	C	-0.460103	-0.892912	0.075075
C46	C	0.039897	-0.392912	0.575075
C47	C	-0.485320	-0.892511	0.000125
C48	C	0.014680	-0.392511	0.500125
C49	C	-0.485340	-0.892519	-0.149771
C50	C	0.014660	-0.392519	0.350229
C51	C	-0.535754	-0.891711	-0.149763
C52	C	-0.035754	-0.391711	0.350237
C53	C	-0.560951	-0.891303	-0.074812
C54	C	-0.060951	-0.391303	0.425188
C55	C	-0.535735	-0.891703	0.000132
C56	C	-0.035735	-0.391703	0.500132
C57	C	-0.485304	-0.892512	0.150032
C58	C	0.014696	-0.392512	0.650032
C59	C	-0.535725	-0.891711	0.150031
C60	C	-0.035725	-0.391711	0.650031
C61	C	-0.560942	-0.891311	0.075081
C62	C	-0.060942	-0.391311	0.575081
C63	C	-0.611346	-0.890488	0.075091
C64	C	-0.111346	-0.390488	0.575091
N65	N	-0.636566	-0.890095	0.000146
N66	N	-0.136566	-0.390095	0.500146
C67	C	-0.611369	-0.890503	-0.074806
C68	C	-0.111369	-0.390503	0.425194
C69	C	-0.152553	-0.897803	0.075031
C70	C	0.347447	-0.397803	0.575031
C71	C	-0.102135	-0.898603	0.075025
C72	C	0.397865	-0.398603	0.575025
C73	C	-0.102158	-0.898617	-0.074878
C74	C	0.397842	-0.398617	0.425122
C75	C	-0.152576	-0.897811	-0.074871
C76	C	0.347424	-0.397811	0.425129
C77	C	-0.177773	-0.897410	0.000086
C78	C	0.322227	-0.397410	0.500086
C79	C	-0.717243	-0.888806	-0.074785
C80	C	-0.217243	-0.388806	0.425215
C81	C	-0.767661	-0.887995	-0.074771
C82	C	-0.267661	-0.387995	0.425229
C83	C	-0.767635	-0.887986	0.075132
C84	C	-0.267635	-0.387986	0.575132
C85	C	-0.717220	-0.888792	0.075118
C86	C	-0.217220	-0.388792	0.575118
C87	C	-0.692026	-0.889205	0.000153
C88	C	-0.192026	-0.389205	0.500153
O89	O	-0.637449	-0.890043	0.138800
O90	O	-0.137449	-0.390043	0.638800
O91	O	-0.637457	-0.890104	-0.138541
O92	O	-0.137457	-0.390104	0.361459
C93	C	-0.409708	-0.893726	-0.074834
C94	C	0.090292	-0.393726	0.425166
C95	C	-0.384491	-0.894126	0.000110
C96	C	0.115509	-0.394126	0.500110
C97	C	-0.409689	-0.893718	0.075062
C98	C	0.090311	-0.393718	0.575062
C99	C	-0.334074	-0.894927	0.000104
C100	C	0.165926	-0.394927	0.500104
C101	C	-0.308876	-0.895334	-0.074847
C102	C	0.191124	-0.395334	0.425153
C103	C	-0.334097	-0.894941	-0.149793
C104	C	0.165903	-0.394941	0.350207
C105	C	-0.384511	-0.894134	-0.149785
C106	C	0.115489	-0.394134	0.350215
C107	C	-0.384469	-0.894111	0.150007
C108	C	0.115531	-0.394111	0.650007
C109	C	-0.334054	-0.894918	0.149994
C110	C	0.165946	-0.394918	0.649994
C111	C	-0.308857	-0.895326	0.075042
C112	C	0.191143	-0.395326	0.575042
C113	C	0.153483	-0.886729	0.000162
C114	C	0.653483	-0.386729	0.500162
C115	C	0.207141	-0.887588	0.000181
C116	C	0.707141	-0.387588	0.500181
N117	N	0.065095	-0.893282	0.195797
N118	N	0.565095	-0.393282	0.695797
C119	C	0.111580	-0.621859	0.000120
C120	C	0.611580	-0.121859	0.500120
C121	C	0.110774	-0.542922	0.000131
C122	C	0.610774	-0.042922	0.500131
C123	C	0.066325	-0.512999	0.000120
C124	C	0.566325	-0.012999	0.500120
C125	C	0.022681	-0.562017	0.000107
C126	C	0.522681	-0.062017	0.500107
C127	C	0.023487	-0.640951	0.000102
C128	C	0.523487	-0.140951	0.500102
C129	C	0.019426	-0.243683	0.000126
C130	C	0.519426	0.256317	0.500126
C131	C	0.018623	-0.164742	0.000128
C132	C	0.518623	0.335258	0.500128
C133	C	0.106713	-0.145654	0.000154
C134	C	0.606713	0.354346	0.500154
C135	C	0.107519	-0.224588	0.000150
C136	C	0.607519	0.275412	0.500150
C137	C	0.063875	-0.273599	0.000141
C138	C	0.563875	0.226401	0.500141
C139	C	0.064750	-0.359190	0.000132
C140	C	0.564750	0.140810	0.500132
C141	C	0.065450	-0.427409	0.000123
C142	C	0.565450	0.072591	0.500123
N143	N	0.065105	-0.893323	-0.195535
N144	N	0.565105	-0.393323	0.304465
C145	C	0.032186	-0.945141	0.239055
C146	C	0.532186	-0.445141	0.739055
C147	C	0.032186	-0.945145	0.325602
C148	C	0.532186	-0.445145	0.825602
C149	C	0.065096	-0.893293	0.368889
C150	C	0.565096	-0.393293	0.868889
C151	C	0.098006	-0.841429	0.325625
C152	C	0.598006	-0.341429	0.825625
C153	C	0.098004	-0.841422	0.239079
C154	C	0.598004	-0.341422	0.739079
C155	C	0.098015	-0.841455	0.674653
C156	C	0.598015	-0.341455	1.174653
C157	C	0.098016	-0.841467	0.761204
C158	C	0.598016	-0.341467	1.261204
C159	C	0.032197	-0.945177	0.761176
C160	C	0.532197	-0.445177	1.261176
C161	C	0.032195	-0.945170	0.674631
C162	C	0.532195	-0.445170	1.174631
C163	C	0.065103	-0.893304	0.631374
C164	C	0.565103	-0.393304	1.131374
C165	C	0.065102	-0.893300	0.537529
C166	C	0.565102	-0.393300	1.037529
C167	C	0.065099	-0.893300	0.462732
C168	C	0.565099	-0.393300	0.962732
H169	H	-0.788190	-0.887666	-0.135807
H170	H	-0.288190	-0.387666	0.364193
C171	C	-0.004028	-1.002175	0.373183
C172	C	0.495972	-0.502175	0.873183
N173	N	-0.031310	-1.045126	0.409020
N174	N	0.468690	-0.545126	0.909020
C175	C	0.134204	-0.784384	0.373243
C176	C	0.634204	-0.284384	0.873243
N177	N	0.161469	-0.741417	0.409109
N178	N	0.661469	-0.241417	0.909109
H179	H	0.143714	-0.248947	0.000155
H180	H	0.643714	0.251053	0.500155
H181	H	-0.016112	-0.283578	0.000120
H182	H	0.483888	0.216422	0.500120
H183	H	0.005400	-0.987408	0.796405
H184	H	0.505400	-0.487408	1.296405
C185	C	0.134219	-0.784419	0.808818
C186	C	0.634219	-0.284419	1.308818
N187	N	0.161485	-0.741451	0.844681
N188	N	0.661485	-0.241451	1.344681
C189	C	0.154723	-0.091735	0.000175
C190	C	0.654723	0.408265	0.500175
N191	N	0.190884	-0.051125	0.000189
N192	N	0.690884	0.448875	0.500189
C193	C	-0.004019	-1.002182	0.191448
C194	C	0.495981	-0.502182	0.691448
N195	N	-0.031291	-1.045146	0.155592
N196	N	0.468709	-0.545146	0.655592
C197	C	-0.306321	-0.895357	0.232451
C198	C	0.193679	-0.395357	0.732451
N199	N	-0.285435	-0.895695	0.294556
N200	N	0.214565	-0.395695	0.794556
H201	H	-0.017574	-0.140382	0.000120
H202	H	0.482426	0.359618	0.500120
H203	H	-0.013510	-0.537647	0.000110
H204	H	0.486490	-0.037647	0.500110
C205	C	0.134278	-0.784498	0.627081
C206	C	0.634278	-0.284498	1.127081
N207	N	0.161615	-0.741630	0.591248
N208	N	0.661615	-0.241630	1.091248
H209	H	-0.313572	-0.895268	-0.210821
H210	H	0.186428	-0.395268	0.289179
C211	C	-0.024522	-0.694864	0.000083
C212	C	0.475478	-0.194864	0.500083
N213	N	-0.060684	-0.735470	0.000070
N214	N	0.439316	-0.235470	0.500070
H215	H	0.005398	-0.987395	0.639389
H216	H	0.505398	-0.487395	1.139389
H217	H	-0.696735	-0.889143	-0.135828
H218	H	-0.196735	-0.389143	0.364172
C219	C	-0.563491	-0.891331	-0.232215
C220	C	-0.063491	-0.391331	0.267785
N221	N	-0.584381	-0.891067	-0.294323
N222	N	-0.084381	-0.391067	0.205677
H223	H	0.124801	-0.799193	0.203859
H224	H	0.624801	-0.299193	0.703859
H225	H	-0.464830	-0.892853	-0.210809
H226	H	0.035170	-0.392853	0.289191
C227	C	-0.074402	-0.899034	0.157476
C228	C	0.425598	-0.399034	0.657476
N229	N	-0.053515	-0.899363	0.219581
N230	N	0.446485	-0.399363	0.719581
C231	C	-0.074432	-0.899072	-0.157325
C232	C	0.425568	-0.399072	0.342675
N233	N	-0.053547	-0.899421	-0.219421
N234	N	0.446453	-0.399421	0.280579
C235	C	-0.180262	-0.897351	0.157495
C236	C	0.319738	-0.397351	0.657495
N237	N	-0.201131	-0.897006	0.219608
N238	N	0.298869	-0.397006	0.719608
C239	C	-0.180311	-0.897387	-0.157321
C240	C	0.319689	-0.397387	0.342679
N241	N	-0.201199	-0.897075	-0.219426
N242	N	0.298801	-0.397075	0.280574
H243	H	-0.464782	-0.892846	0.211064
H244	H	0.035218	-0.392846	0.711064
C245	C	-0.412246	-0.893725	-0.232237
C246	C	0.087754	-0.393725	0.267763
N247	N	-0.433133	-0.893430	-0.294345
N248	N	0.066867	-0.393430	0.205655
C249	C	0.160477	-0.654766	0.000133
C250	C	0.660477	-0.154766	0.500133
N251	N	0.197308	-0.679549	0.000147
N252	N	0.697308	-0.179549	0.500147
H253	H	-0.696685	-0.889089	0.136149
H254	H	-0.196685	-0.389089	0.636149
C255	C	-0.795361	-0.887534	0.157574
C256	C	-0.295361	-0.387534	0.657574
N257	N	-0.816247	-0.887199	0.219671
N258	N	-0.316247	-0.387199	0.719671
C259	C	-0.412178	-0.893655	0.232464
C260	C	0.087822	-0.393655	0.732464
N261	N	-0.433047	-0.893306	0.294577
N262	N	0.066953	-0.393306	0.794577
C263	C	-0.563438	-0.891266	0.232492
C264	C	-0.063438	-0.391266	0.732492
N265	N	-0.584311	-0.890928	0.294601
N266	N	-0.084311	-0.390928	0.794601
C267	C	0.158783	-0.489013	0.000162
C268	C	0.658783	0.010987	0.500162
N269	N	0.194945	-0.448408	0.000192
N270	N	0.694945	0.051592	0.500192
