data_functionalizedCrystal
_audit_creation_method	'MofGen! by Chris Wilmer'
_symmetry_space_group_name_H-M	'P1'
_symmetry_Int_Tables_number	1
_symmetry_cell_setting	triclinic
loop_
_symmetry_equiv_pos_as_xyz
  x,y,z
_cell_length_a	16.625546
_cell_length_b	13.032831
_cell_length_c	13.032268
_cell_angle_alpha	90.886977
_cell_angle_beta	82.855386
_cell_angle_gamma	97.173222
loop_
_atom_site_label
_atom_site_type_symbol
_atom_site_fract_x
_atom_site_fract_y
_atom_site_fract_z
Zn1	Zn	-0.544521	-1.498429	0.780776
Zn2	Zn	-0.211187	-1.165096	1.114110
Zn3	Zn	0.122146	-0.831763	1.447443
Zn4	Zn	-0.664651	-1.520160	0.608784
Zn5	Zn	-0.331318	-1.186827	0.942117
Zn6	Zn	0.002015	-0.853494	1.275450
Zn7	Zn	-0.510838	-1.348291	0.587021
Zn8	Zn	-0.177505	-1.014957	0.920354
Zn9	Zn	0.155828	-0.681624	1.253688
Zn10	Zn	-0.660292	-1.326409	0.758909
Zn11	Zn	-0.326958	-0.993076	1.092243
Zn12	Zn	0.006375	-0.659742	1.425576
O13	O	-0.595075	-1.423322	0.683873
O14	O	-0.261742	-1.089989	1.017206
O15	O	0.071591	-0.756656	1.350539
O16	O	-0.576377	-1.645231	0.776220
O17	O	-0.243044	-1.311898	1.109554
O18	O	0.090290	-0.978564	1.442887
O19	O	-0.631976	-1.515614	0.461981
O20	O	-0.298642	-1.182280	0.795315
O21	O	0.034691	-0.848947	1.128648
O22	O	-0.402484	-1.368270	0.612767
O23	O	-0.069151	-1.034937	0.946100
O24	O	0.264182	-0.701603	1.279434
O25	O	-0.664636	-1.661197	0.649858
O26	O	-0.331303	-1.327864	0.983191
O27	O	0.002030	-0.994530	1.316525
O28	O	-0.427231	-1.478576	0.755118
O29	O	-0.093897	-1.145243	1.088452
O30	O	0.239436	-0.811909	1.421785
O31	O	-0.518970	-1.389342	0.445992
O32	O	-0.185637	-1.056008	0.779326
O33	O	0.147697	-0.722675	1.112659
O34	O	-0.514743	-1.201469	0.591563
O35	O	-0.181410	-0.868136	0.924897
O36	O	0.151924	-0.534802	1.258230
O37	O	-0.657206	-1.330976	0.905725
O38	O	-0.323873	-0.997642	1.239059
O39	O	0.009460	-0.664309	1.572392
O40	O	-0.624546	-1.185392	0.717849
O41	O	-0.291212	-0.852059	1.051182
O42	O	0.042121	-0.518726	1.384515
O43	O	-0.572150	-1.457358	0.921791
O44	O	-0.238816	-1.124025	1.255125
O45	O	0.094517	-0.790692	1.588458
O46	O	-0.776895	-1.494396	0.628654
O47	O	-0.443562	-1.161063	0.961988
O48	O	-0.110228	-0.827729	1.295321
O49	O	-0.773692	-1.352048	0.738951
O50	O	-0.440359	-1.018714	1.072284
O51	O	-0.107025	-0.685381	1.405618
C52	C	-0.804552	-1.423230	0.683817
C53	C	-0.471219	-1.089897	1.017151
C54	C	-0.137885	-0.756564	1.350484
C55	C	-0.894180	-1.423281	0.683840
C56	C	-0.560847	-1.089948	1.017173
C57	C	-0.227513	-0.756614	1.350506
C58	C	-0.565517	-1.156114	0.649972
C59	C	-0.232184	-0.822781	0.983305
C60	C	0.101150	-0.489447	1.316639
C61	C	-0.552893	-1.041798	0.635494
C62	C	-0.219560	-0.708465	0.968827
C63	C	0.113774	-0.375131	1.302160
C64	C	-0.617949	-1.389302	0.952117
C65	C	-0.284616	-1.055969	1.285451
C66	C	0.048718	-0.722635	1.618784
C67	C	-0.627696	-1.374805	1.066427
C68	C	-0.294363	-1.041471	1.399761
C69	C	0.038970	-0.708138	1.733094
C70	C	-1.222385	-1.423447	0.683970
C71	C	-0.889051	-1.090113	1.017303
C72	C	-0.555718	-0.756780	1.350636
C73	C	-1.131068	-1.423397	0.683936
C74	C	-0.797735	-1.090064	1.017269
C75	C	-0.464401	-0.756730	1.350603
C76	C	-1.058285	-1.423363	0.683904
C77	C	-0.724952	-1.090030	1.017237
C78	C	-0.391619	-0.756696	1.350571
C79	C	-0.966963	-1.423315	0.683872
C80	C	-0.633630	-1.089981	1.017205
C81	C	-0.300296	-0.756648	1.350538
C82	C	-0.384786	-1.423440	0.683954
C83	C	-0.051453	-1.090106	1.017288
C84	C	0.281881	-0.756773	1.350621
C85	C	-0.295173	-1.423490	0.683989
C86	C	0.038160	-1.090156	1.017322
C87	C	0.371493	-0.756823	1.350656
C88	C	-0.624750	-1.691574	0.717906
C89	C	-0.291417	-1.358241	1.051239
C90	C	0.041917	-1.024907	1.384573
C91	C	-0.637396	-1.805887	0.732409
C92	C	-0.304062	-1.472554	1.065742
C93	C	0.029271	-1.139220	1.399076
C94	C	-0.601664	-0.982917	0.691429
C95	C	-0.268331	-0.649584	1.024762
C96	C	0.065003	-0.316251	1.358096
C97	C	-0.588618	-0.864766	0.676466
C98	C	-0.255285	-0.531432	1.009800
C99	C	0.078049	-0.198099	1.343133
C100	C	-0.572239	-1.457270	0.416679
C101	C	-0.238906	-1.123936	0.750012
C102	C	0.094427	-0.790603	1.083346
C103	C	-0.562287	-1.471966	0.302395
C104	C	-0.228954	-1.138633	0.635728
C105	C	0.104380	-0.805300	0.969062
C106	C	-0.589958	-1.430873	1.125339
C107	C	-0.256624	-1.097539	1.458673
C108	C	0.076709	-0.764206	1.792006
C109	C	-0.600031	-1.415890	1.243485
C110	C	-0.266698	-1.082557	1.576818
C111	C	0.066636	-0.749224	1.910151
H112	H	-0.653074	-1.019978	0.750398
H113	H	-0.319741	-0.686645	1.083731
H114	H	0.013592	-0.353312	1.417065
H115	H	-0.688808	-0.842942	0.791385
H116	H	-0.355475	-0.509608	1.124718
H117	H	-0.022142	-0.176275	1.458052
H118	H	-0.639795	-1.356786	1.280509
H119	H	-0.306461	-1.023452	1.613842
H120	H	0.026872	-0.690119	1.947176
H121	H	-0.501477	-1.004736	0.576533
H122	H	-0.168144	-0.671403	0.909866
H123	H	0.165189	-0.338069	1.243199
F124	F	-0.537959	-1.508094	1.076942
F125	F	-0.204626	-1.174760	1.410275
F126	F	0.128708	-0.841427	1.743608
H127	H	-0.522512	-1.531059	1.265370
H128	H	-0.189179	-1.197726	1.598704
H129	H	0.144155	-0.864392	1.932037
H130	H	-0.537199	-0.827708	0.617501
H131	H	-0.203865	-0.494375	0.950834
H132	H	0.129468	-0.161042	1.284168
F133	F	-0.679671	-1.297557	1.114821
F134	F	-0.346338	-0.964224	1.448155
F135	F	-0.013005	-0.630891	1.781488
