data_functionalizedCrystal
_audit_creation_method	'MofGen! by Chris Wilmer'
_symmetry_space_group_name_H-M	'P1'
_symmetry_Int_Tables_number	1
_symmetry_cell_setting	triclinic
loop_
_symmetry_equiv_pos_as_xyz
  x,y,z
_cell_length_a	12.759401
_cell_length_b	12.759399
_cell_length_c	12.759393
_cell_angle_alpha	89.973195
_cell_angle_beta	89.977503
_cell_angle_gamma	90.015072
loop_
_atom_site_label
_atom_site_type_symbol
_atom_site_fract_x
_atom_site_fract_y
_atom_site_fract_z
Zn1	Zn	-1.606270	0.418192	0.594091
Zn2	Zn	-1.606162	0.593908	0.418422
Zn3	Zn	-1.430568	0.418246	0.418421
Zn4	Zn	-1.430562	0.593832	0.594055
O5	O	-1.518390	0.506045	0.506247
O6	O	-1.753276	0.441511	0.570804
O7	O	-1.582827	0.570660	0.271401
O8	O	-1.453923	0.271218	0.441739
O9	O	-1.753197	0.570608	0.441741
O10	O	-1.583010	0.271178	0.570802
O11	O	-1.453819	0.441602	0.271400
O12	O	-1.283546	0.441529	0.441704
O13	O	-1.453912	0.570479	0.741081
O14	O	-1.283542	0.570531	0.570741
O15	O	-1.583004	0.441437	0.741107
O16	O	-1.582821	0.740919	0.441706
O17	O	-1.453808	0.740863	0.570742
C18	C	-1.245423	0.506029	0.506219
C19	C	-1.128646	0.506047	0.506232
C20	C	-1.073809	0.573320	0.573314
C21	C	-0.964085	0.573323	0.573332
C22	C	-0.964045	0.438776	0.439176
C23	C	-1.073767	0.438769	0.439164
C24	C	-1.518330	0.779012	0.506243
C25	C	-1.518401	0.895789	0.506276
C26	C	-1.518469	0.505944	0.780281
C27	C	-1.518503	0.505901	0.897057
C28	C	-0.792424	0.506059	0.506269
C29	C	-0.909200	0.506057	0.506261
C30	C	-1.585655	0.950645	0.439167
C31	C	-1.585724	1.060369	0.439210
C32	C	-1.451275	1.060371	0.573474
C33	C	-1.451212	0.950649	0.573436
C34	C	-1.518483	1.232011	0.506293
C35	C	-1.518533	1.115235	0.506358
C36	C	-1.518373	0.506069	0.233280
C37	C	-1.518543	0.505816	0.116504
C38	C	-1.585726	0.438698	0.951935
C39	C	-1.585744	0.438653	1.061659
C40	C	-1.451312	0.573022	1.061619
C41	C	-1.451290	0.573061	0.951896
H42	H	-0.919442	0.628102	0.627959
N43	N	-1.658221	0.366267	0.892789
H44	H	-1.648017	0.376494	0.814952
H45	H	-1.733248	0.382634	0.911991
H46	H	-0.919349	0.384003	0.384570
N47	N	-1.378806	1.119542	0.645903
H48	H	-1.389047	1.197375	0.635743
H49	H	-1.303771	1.100436	0.629474
H50	H	-1.640365	0.905980	0.384483
N51	N	-1.378673	0.891473	0.645823
H52	H	-1.336113	0.942875	0.688369
H53	H	-1.330050	0.846024	0.602996
N54	N	-1.132922	0.366193	0.366821
H55	H	-1.081509	0.323576	0.324334
H56	H	-1.178422	0.408888	0.318123
H57	H	-1.640491	1.105028	0.384565
H58	H	-1.640482	0.383928	1.106335
H59	H	-1.396592	0.627704	1.106282
N60	N	-1.378773	0.645554	0.892716
H61	H	-1.421435	0.694265	0.847191
H62	H	-1.330102	0.602794	0.847252
N63	N	-1.133003	0.645879	0.645648
H64	H	-1.081610	0.688495	0.688148
H65	H	-1.178562	0.603170	0.694335
