data_functionalizedCrystal
_audit_creation_method	'MofGen! by Chris Wilmer'
_symmetry_space_group_name_H-M	'P1'
_symmetry_Int_Tables_number	1
_symmetry_cell_setting	triclinic
loop_
_symmetry_equiv_pos_as_xyz
  x,y,z
_cell_length_a	10.489741
_cell_length_b	10.489741
_cell_length_c	14.048226
_cell_angle_alpha	89.993872
_cell_angle_beta	89.996252
_cell_angle_gamma	84.539174
loop_
_atom_site_label
_atom_site_type_symbol
_atom_site_fract_x
_atom_site_fract_y
_atom_site_fract_z
O1	O	1.694057	0.179971	-0.079101
O2	O	1.322861	0.196864	-0.079116
O3	O	1.516906	0.002819	-0.079103
O4	O	1.500013	0.374015	-0.079115
O5	O	1.516882	0.002808	0.079219
O6	O	1.322838	0.196852	0.079205
O7	O	1.694033	0.179959	0.079220
Zn8	Zn	1.508432	0.188404	0.104350
Zn9	Zn	1.508463	0.188419	-0.104245
O10	O	1.499989	0.374003	0.079207
C11	C	1.275318	0.195582	0.000043
C12	C	1.133688	0.191765	0.000037
C13	C	1.065548	0.068300	0.000050
C14	C	0.973433	0.126629	-0.078010
C15	C	0.973444	0.126647	0.078082
C16	C	1.043439	0.250145	-0.078088
C17	C	1.043459	0.250145	0.078075
C18	C	0.951371	0.308564	-0.000005
C19	C	1.515618	-0.044718	0.000057
C20	C	1.511801	-0.186348	0.000056
C21	C	1.388336	-0.254488	0.000044
C22	C	1.446648	-0.346616	0.078107
C23	C	1.446700	-0.346579	-0.077986
C24	C	1.570163	-0.276611	0.078183
C25	C	1.570199	-0.276564	-0.077980
C26	C	1.628600	-0.368665	0.000102
C27	C	1.741577	0.181241	0.000059
C28	C	1.883206	0.185058	0.000059
C29	C	1.501277	0.421541	0.000045
C30	C	1.505094	0.563170	0.000040
N31	N	1.508420	0.188392	0.246710
N32	N	1.508485	0.188420	-0.246606
C33	C	1.594370	0.102505	0.296534
C34	C	1.594379	0.102505	0.396192
C35	C	1.508442	0.188398	0.446024
C36	C	1.422483	0.274289	0.396193
C37	C	1.422469	0.274282	0.296537
C38	C	1.422520	0.274299	0.603907
C39	C	1.422535	0.274307	0.703570
C40	C	1.594429	0.102521	0.703562
C41	C	1.594416	0.102514	0.603906
C42	C	1.508457	0.188407	0.554082
H43	H	0.942456	0.074379	0.144077
H44	H	1.664355	0.032567	0.255968
H45	H	1.664398	0.032580	0.563333
H46	H	0.942429	0.074394	-0.144003
H47	H	1.352519	0.344238	0.563344
H48	H	1.730204	-0.418089	0.000150
H49	H	1.622349	-0.245783	0.144253
H50	H	1.352505	0.344221	0.436772
H51	H	1.664419	0.032584	0.744135
H52	H	1.394397	-0.377633	0.144099
H53	H	1.352478	0.344218	0.255971
H54	H	1.115238	-0.033196	-0.000044
H55	H	1.352555	0.344249	0.744138
H56	H	1.074276	0.302349	-0.144156
H57	H	1.664365	0.032569	0.436758
H58	H	1.074495	0.302338	0.144070
H59	H	0.901947	0.410168	-0.000051
H60	H	1.286824	-0.204837	0.000118
H61	H	1.622405	-0.245515	-0.143976
H62	H	1.394454	-0.377538	-0.143988
