data_functionalizedCrystal
_audit_creation_method	'MofGen! by Chris Wilmer'
_symmetry_space_group_name_H-M	'P1'
_symmetry_Int_Tables_number	1
_symmetry_cell_setting	triclinic
loop_
_symmetry_equiv_pos_as_xyz
  x,y,z
_cell_length_a	10.489741
_cell_length_b	10.489716
_cell_length_c	16.053802
_cell_angle_alpha	92.595649
_cell_angle_beta	87.395203
_cell_angle_gamma	84.534155
loop_
_atom_site_label
_atom_site_type_symbol
_atom_site_fract_x
_atom_site_fract_y
_atom_site_fract_z
O1	O	1.699366	0.174653	-0.069369
O2	O	1.328170	0.191545	-0.069382
O3	O	1.522231	-0.002501	-0.069378
O4	O	1.505305	0.368699	-0.069373
O5	O	1.511549	0.008136	0.069480
O6	O	1.317488	0.202182	0.069477
O7	O	1.688684	0.185290	0.069489
Zn8	Zn	1.501390	0.195424	0.091530
Zn9	Zn	1.515464	0.181410	-0.091422
O10	O	1.494623	0.379336	0.069486
C11	C	1.275297	0.195587	0.000046
C12	C	1.133668	0.191770	0.000041
C13	C	1.065539	0.068304	0.000047
C14	C	0.978673	0.121384	-0.068415
C15	C	0.968176	0.131900	0.068489
C16	C	1.048673	0.244896	-0.068478
C17	C	1.038180	0.255400	0.068488
C18	C	0.951343	0.308568	0.000009
C19	C	1.515618	-0.044715	0.000048
C20	C	1.511814	-0.186347	0.000041
C21	C	1.630818	-0.284020	0.000052
C22	C	1.573200	-0.366625	-0.068412
C23	C	1.562641	-0.356102	0.068492
C24	C	1.454250	-0.267090	-0.068480
C25	C	1.443704	-0.256558	0.068485
C26	C	1.386000	-0.339115	0.000004
C27	C	1.741556	0.181247	0.000060
C28	C	1.883186	0.185064	0.000059
C29	C	1.501235	0.421550	0.000057
C30	C	1.505040	0.563181	0.000059
N31	N	1.491794	0.204988	0.216390
N32	N	1.525070	0.171837	-0.216283
C33	C	1.574398	0.122451	0.260085
C34	C	1.567697	0.129153	0.347492
C35	C	1.478398	0.218399	0.391202
C36	C	1.395785	0.300939	0.347500
C37	C	1.402481	0.294230	0.260095
C38	C	1.449152	0.247668	0.652611
C39	C	1.442466	0.254374	0.740022
C40	C	1.614377	0.082585	0.740008
C41	C	1.621069	0.075889	0.652601
C42	C	1.538452	0.158425	0.608907
N43	N	1.471550	0.225254	0.480545
N44	N	1.545295	0.151563	0.519565
H45	H	1.064768	0.312032	0.126373
H46	H	1.282411	-0.363548	-0.000036
H47	H	0.901913	0.410170	-0.000027
H48	H	1.323070	0.373601	0.383094
O49	O	1.754326	-0.254602	-0.000188
C50	C	1.822182	-0.311091	-0.072508
H51	H	1.751830	-0.329794	-0.122695
H52	H	1.892962	-0.243545	-0.096421
H53	H	1.876623	-0.405609	-0.056887
H54	H	1.634959	0.061944	0.383069
O55	O	0.926083	0.074675	0.137516
C56	C	0.984777	-0.051992	0.137237
H57	H	1.078012	-0.060353	0.097156
H58	H	1.006269	-0.077229	0.203819
H59	H	0.917514	-0.120821	0.110511
H60	H	1.627889	-0.414553	-0.126292
H61	H	0.952116	0.064709	-0.126297
H62	H	1.335214	0.361439	0.224519
O63	O	1.378514	-0.199551	0.137598
C64	C	1.330073	-0.294104	0.186477
H65	H	1.389310	-0.389927	0.171545
H66	H	1.335865	-0.265492	0.255458
H67	H	1.225877	-0.303350	0.171954
H68	H	1.115244	-0.033199	-0.000040
O69	O	1.399805	-0.220917	-0.137705
C70	C	1.467809	-0.278428	-0.209681
H71	H	1.520651	-0.373567	-0.193720
H72	H	1.397769	-0.296152	-0.260237
H73	H	1.539993	-0.212072	-0.233289
H74	H	1.693784	0.003218	0.617014
H75	H	1.608450	-0.395141	0.126372
H76	H	1.083954	0.292658	-0.126422
O77	O	1.661182	0.035644	0.217759
C78	C	1.732672	-0.035747	0.275073
H79	H	1.675588	-0.032914	0.337384
H80	H	1.753144	-0.139369	0.249825
H81	H	1.827091	0.007311	0.284356
H82	H	1.681638	0.015387	0.775591
O83	O	1.355825	0.341033	0.782613
C84	C	1.367620	0.329234	0.869127
H85	H	1.467690	0.283469	0.881049
H86	H	1.351758	0.428248	0.902343
H87	H	1.292952	0.266449	0.893948
O88	O	1.368851	0.327980	0.610303
C89	C	1.288584	0.408168	0.667629
H90	H	1.336129	0.414898	0.729926
H91	H	1.271977	0.507913	0.642373
H92	H	1.192742	0.366536	0.676942
