data_functionalizedCrystal
_audit_creation_method	'MofGen! by Chris Wilmer'
_symmetry_space_group_name_H-M	'P1'
_symmetry_Int_Tables_number	1
_symmetry_cell_setting	triclinic
loop_
_symmetry_equiv_pos_as_xyz
  x,y,z
_cell_length_a	25.639239
_cell_length_b	21.395362
_cell_length_c	21.395356
_cell_angle_alpha	90.047076
_cell_angle_beta	89.971496
_cell_angle_gamma	89.943053
loop_
_atom_site_label
_atom_site_type_symbol
_atom_site_fract_x
_atom_site_fract_y
_atom_site_fract_z
Zn1	Zn	-0.207909	-0.957819	-0.354651
Zn2	Zn	0.125424	-0.624486	-0.021317
Zn3	Zn	0.458758	-0.291152	0.312016
Zn4	Zn	-0.295343	-0.957709	-0.249872
Zn5	Zn	0.037990	-0.624375	0.083462
Zn6	Zn	0.371324	-0.291042	0.416795
Zn7	Zn	-0.207951	-0.853036	-0.249844
Zn8	Zn	0.125382	-0.519702	0.083489
Zn9	Zn	0.458716	-0.186369	0.416822
Zn10	Zn	-0.295343	-0.852988	-0.354569
Zn11	Zn	0.037990	-0.519655	-0.021235
Zn12	Zn	0.371323	-0.186322	0.312098
O13	O	-0.251637	-0.905388	-0.302234
O14	O	0.081697	-0.572055	0.031100
O15	O	0.415030	-0.238721	0.364433
O16	O	-0.219490	-1.045482	-0.340797
O17	O	0.113844	-0.712149	-0.007464
O18	O	0.447177	-0.378816	0.325870
O19	O	-0.283768	-0.943797	-0.162190
O20	O	0.049566	-0.610464	0.171143
O21	O	0.382899	-0.277130	0.504477
O22	O	-0.134780	-0.867001	-0.263770
O23	O	0.198553	-0.533668	0.069563
O24	O	0.531886	-0.200335	0.402897
O25	O	-0.283727	-1.045401	-0.263816
O26	O	0.049606	-0.712068	0.069517
O27	O	0.382940	-0.378735	0.402850
O28	O	-0.134749	-0.943985	-0.340771
O29	O	0.198584	-0.610652	-0.007437
O30	O	0.531917	-0.277318	0.325896
O31	O	-0.219561	-0.866894	-0.162170
O32	O	0.113772	-0.533561	0.171163
O33	O	0.447105	-0.200228	0.504497
O34	O	-0.219562	-0.765351	-0.263691
O35	O	0.113772	-0.432018	0.069643
O36	O	0.447105	-0.098685	0.402976
O37	O	-0.283728	-0.866921	-0.442258
O38	O	0.049606	-0.533588	-0.108924
O39	O	0.382939	-0.200254	0.224409
O40	O	-0.283768	-0.765317	-0.340631
O41	O	0.049565	-0.431983	-0.007298
O42	O	0.382898	-0.098650	0.326035
O43	O	-0.219490	-0.943939	-0.442318
O44	O	0.113843	-0.610606	-0.108984
O45	O	0.447177	-0.277273	0.224349
O46	O	-0.368508	-0.943751	-0.263737
O47	O	-0.035175	-0.610418	0.069596
O48	O	0.298159	-0.277085	0.402930
O49	O	-0.368508	-0.866814	-0.340658
O50	O	-0.035175	-0.533481	-0.007324
O51	O	0.298158	-0.200147	0.326009
C52	C	-0.251670	-0.742600	-0.302149
C53	C	0.081663	-0.409267	0.031184
C54	C	0.414997	-0.075934	0.364517
C55	C	-0.251697	-0.672959	-0.302128
C56	C	0.081637	-0.339626	0.031205
C57	C	0.414970	-0.006292	0.364538
C58	C	-0.285175	-0.640244	-0.342129
C59	C	0.048159	-0.306911	-0.008796
C60	C	0.381492	0.026423	0.324538
C61	C	-0.285164	-0.574809	-0.342152
C62	C	0.048169	-0.241475	-0.008819
C63	C	0.381503	0.091858	0.324515
C64	C	-0.251681	-0.542091	-0.302164
C65	C	0.081652	-0.208757	0.031170
C66	C	0.414986	0.124576	0.364503
C67	C	-0.218197	-0.574813	-0.262160
C68	C	0.115137	-0.241480	0.071173
C69	C	0.448470	0.091853	0.404507
C70	C	-0.218205	-0.640247	-0.262142
C71	C	0.115129	-0.306914	0.071191
C72	C	0.448462	0.026419	0.404524
C73	C	-0.247480	-0.438368	-0.245751
C74	C	0.085853	-0.105034	0.087582
C75	C	0.419186	0.228299	0.420916
C76	C	-0.247476	-0.372935	-0.245768
C77	C	0.085857	-0.039601	0.087566
C78	C	0.419191	0.293732	0.420899
C79	C	-0.251654	-0.340270	-0.302218
C80	C	0.081679	-0.006937	0.031115
C81	C	0.415013	0.326397	0.364448
C82	C	-0.255847	-0.373046	-0.358654
C83	C	0.077486	-0.039713	-0.025321
C84	C	0.410820	0.293620	0.308013
C85	C	-0.255855	-0.438480	-0.358637
C86	C	0.077478	-0.105147	-0.025303
C87	C	0.410812	0.228186	0.308030
C88	C	-0.251669	-0.471138	-0.302178
C89	C	0.081665	-0.137805	0.031155
C90	C	0.414998	0.195528	0.364488
C91	C	-0.285122	-0.236603	-0.342247
C92	C	0.048211	0.096731	-0.008914
C93	C	0.381544	0.430064	0.324419
C94	C	-0.285108	-0.171166	-0.342272
C95	C	0.048225	0.162167	-0.008938
C96	C	0.381559	0.495501	0.324395
C97	C	-0.218144	-0.171172	-0.262274
C98	C	0.115190	0.162161	0.071059
C99	C	0.448523	0.495495	0.404393
C100	C	-0.218155	-0.236607	-0.262255
C101	C	0.115178	0.096726	0.071078
C102	C	0.448512	0.430059	0.404411
C103	C	-0.251647	-0.269319	-0.302241
C104	C	0.081686	0.064015	0.031092
C105	C	0.415020	0.397348	0.364425
C106	C	-0.387479	-0.905283	-0.302205
C107	C	-0.054146	-0.571949	0.031128
C108	C	0.279187	-0.238616	0.364462
C109	C	-0.445593	-0.905295	-0.302214
C110	C	-0.112260	-0.571961	0.031120
C111	C	0.221073	-0.238628	0.364453
C112	C	-0.805943	-0.945554	-0.262250
C113	C	-0.472610	-0.612220	0.071084
C114	C	-0.139277	-0.278887	0.404417
C115	C	-0.860548	-0.945578	-0.262258
C116	C	-0.527214	-0.612245	0.071075
C117	C	-0.193881	-0.278911	0.404409
O118	O	-0.888774	-0.979698	-0.228247
O119	O	-0.555440	-0.646365	0.105086
O120	O	-0.222107	-0.313032	0.438419
N121	N	-0.887876	-0.905498	-0.302275
N122	N	-0.554542	-0.572165	0.031058
N123	N	-0.221209	-0.238831	0.364391
C124	C	-0.860596	-0.865396	-0.342292
C125	C	-0.527263	-0.532062	-0.008958
C126	C	-0.193930	-0.198729	0.324375
O127	O	-0.888855	-0.831307	-0.376331
O128	O	-0.555521	-0.497974	-0.042997
O129	O	-0.222188	-0.164640	0.290336
C130	C	-0.805993	-0.865375	-0.342286
C131	C	-0.472660	-0.532042	-0.008952
C132	C	-0.139326	-0.198708	0.324381
C133	C	-0.778668	-0.905453	-0.302261
C134	C	-0.445335	-0.572120	0.031072
C135	C	-0.112001	-0.238786	0.364405
C136	C	-0.778618	-0.985629	-0.222229
C137	C	-0.445285	-0.652296	0.111105
C138	C	-0.111952	-0.318963	0.444438
C139	C	-0.724018	-0.985604	-0.222220
C140	C	-0.390685	-0.652271	0.111114
C141	C	-0.057351	-0.318937	0.444447
C142	C	-0.696742	-0.945503	-0.262231
C143	C	-0.363409	-0.612170	0.071102
C144	C	-0.030076	-0.278837	0.404435
C145	C	-0.724067	-0.905428	-0.302252
C146	C	-0.390734	-0.572095	0.031081
C147	C	-0.057401	-0.238761	0.364414
C148	C	-0.778715	-0.825276	-0.382305
C149	C	-0.445381	-0.491943	-0.048971
C150	C	-0.112048	-0.158609	0.284362
C151	C	-0.724108	-0.825259	-0.382296
C152	C	-0.390774	-0.491926	-0.048962
C153	C	-0.057441	-0.158593	0.284371
C154	C	-0.696783	-0.865337	-0.342271
C155	C	-0.363449	-0.532004	-0.008938
C156	C	-0.030116	-0.198671	0.324395
C157	C	-0.642191	-0.865302	-0.342255
C158	C	-0.308858	-0.531969	-0.008922
C159	C	0.024475	-0.198635	0.324412
N160	N	-0.614864	-0.905382	-0.302237
N161	N	-0.281530	-0.572049	0.031096
N162	N	0.051803	-0.238715	0.364429
C163	C	-0.642139	-0.945483	-0.262226
C164	C	-0.308806	-0.612149	0.071108
C165	C	0.024528	-0.278816	0.404441
C166	C	-0.975267	-0.865443	-0.342301
C167	C	-0.641934	-0.532109	-0.008968
C168	C	-0.308600	-0.198776	0.324365
C169	C	-1.029869	-0.865460	-0.342304
C170	C	-0.696536	-0.532127	-0.008971
C171	C	-0.363203	-0.198793	0.324362
C172	C	-1.029817	-0.945643	-0.262271
C173	C	-0.696484	-0.612310	0.071062
C174	C	-0.363150	-0.278977	0.404395
C175	C	-0.975214	-0.945623	-0.262266
C176	C	-0.641880	-0.612289	0.071068
C177	C	-0.308547	-0.278956	0.404401
C178	C	-0.947939	-0.905523	-0.302284
C179	C	-0.614606	-0.572190	0.031050
C180	C	-0.281272	-0.238856	0.364383
C181	C	-0.527474	-0.945426	-0.262209
C182	C	-0.194141	-0.612093	0.071124
C183	C	0.139193	-0.278759	0.404457
C184	C	-0.472869	-0.945395	-0.262202
C185	C	-0.139535	-0.612062	0.071131
C186	C	0.193798	-0.278729	0.404465
C187	C	-0.472926	-0.865215	-0.342237
C188	C	-0.139592	-0.531881	-0.008904
C189	C	0.193741	-0.198548	0.324430
C190	C	-0.527526	-0.865243	-0.342242
C191	C	-0.194193	-0.531909	-0.008909
C192	C	0.139140	-0.198576	0.324424
C193	C	-0.554799	-0.905354	-0.302226
C194	C	-0.221466	-0.572020	0.031107
C195	C	0.111867	-0.238687	0.364440
O196	O	-0.613931	-0.831201	-0.376250
O197	O	-0.280598	-0.497867	-0.042917
O198	O	0.052736	-0.164534	0.290417
O199	O	-0.613874	-0.979571	-0.228198
O200	O	-0.280541	-0.646238	0.105135
O201	O	0.052793	-0.312905	0.438468
C202	C	-0.115264	-0.905511	-0.302276
C203	C	0.218070	-0.572177	0.031057
C204	C	0.551403	-0.238844	0.364390
C205	C	-0.057149	-0.905563	-0.302295
C206	C	0.276184	-0.572230	0.031039
C207	C	0.609517	-0.238896	0.364372
C208	C	-0.251604	-0.905437	-0.465657
C209	C	0.081729	-0.572104	-0.132324
C210	C	0.415062	-0.238771	0.201010
C211	C	-0.251590	-0.905458	-0.535298
C212	C	0.081743	-0.572125	-0.201965
C213	C	0.415076	-0.238792	0.131368
C214	C	-0.251612	-0.068811	-0.302301
C215	C	0.081721	0.264522	0.031032
C216	C	0.415054	0.597855	0.364366
C217	C	-0.251624	-0.138452	-0.302284
C218	C	0.081709	0.194881	0.031050
C219	C	0.415042	0.528214	0.364383
C220	C	-0.218154	-0.865426	-0.567991
C221	C	0.115179	-0.532092	-0.234658
C222	C	0.448512	-0.198759	0.098675
C223	C	-0.218145	-0.865424	-0.633427
C224	C	0.115189	-0.532090	-0.300093
C225	C	0.448522	-0.198757	0.033240
C226	C	-0.251565	-0.905465	-0.666167
C227	C	0.081768	-0.572132	-0.332834
C228	C	0.415101	-0.238798	0.000500
C229	C	-0.285008	-0.945501	-0.633466
C230	C	0.048325	-0.612167	-0.300133
C231	C	0.381659	-0.278834	0.033201
C232	C	-0.285020	-0.945497	-0.568032
C233	C	0.048313	-0.612164	-0.234699
C234	C	0.381646	-0.278830	0.098635
C235	C	-0.255661	-0.961916	-0.769876
C236	C	0.077672	-0.628583	-0.436543
C237	C	0.411006	-0.295250	-0.103210
C238	C	-0.255645	-0.961921	-0.835309
C239	C	0.077688	-0.628588	-0.501976
C240	C	0.411022	-0.295254	-0.168643
C241	C	-0.251530	-0.905475	-0.867988
C242	C	0.081803	-0.572142	-0.534654
C243	C	0.415136	-0.238809	-0.201321
C244	C	-0.247421	-0.849024	-0.835225
C245	C	0.085913	-0.515690	-0.501892
C246	C	0.419246	-0.182357	-0.168558
C247	C	-0.247433	-0.849020	-0.769791
C248	C	0.085900	-0.515687	-0.436458
C249	C	0.419234	-0.182354	-0.103124
C250	C	-0.251556	-0.905473	-0.737119
C251	C	0.081777	-0.572140	-0.403786
C252	C	0.415111	-0.238806	-0.070453
C253	C	-0.218082	-0.865437	-0.971633
C254	C	0.115251	-0.532104	-0.638300
C255	C	0.448585	-0.198771	-0.304966
C256	C	-0.218076	-0.865434	-1.037070
C257	C	0.115257	-0.532101	-0.703736
C258	C	0.448591	-0.198767	-0.370403
C259	C	-0.284936	-0.945517	-1.037108
C260	C	0.048397	-0.612183	-0.703775
C261	C	0.381730	-0.278850	-0.370441
C262	C	-0.284945	-0.945514	-0.971672
C263	C	0.048388	-0.612181	-0.638339
C264	C	0.381721	-0.278848	-0.305006
C265	C	-0.251515	-0.905475	-0.938939
C266	C	0.081818	-0.572142	-0.605606
C267	C	0.415152	-0.238809	-0.272272
C268	C	-0.251631	-0.905375	-0.139446
C269	C	0.081702	-0.572042	0.193887
C270	C	0.415036	-0.238708	0.527220
C271	C	-0.251498	-0.905475	-0.069805
C272	C	0.081836	-0.572142	0.263528
C273	C	0.415169	-0.238809	0.596861
H274	H	-0.190934	-0.548170	-0.229602
H275	H	0.142399	-0.214837	0.103731
H276	H	0.475733	0.118497	0.437064
H277	H	-0.312446	-0.666874	-0.374689
H278	H	0.020888	-0.333540	-0.041356
H279	H	0.354221	-0.000207	0.291977
F280	F	-0.320797	-0.539984	-0.384728
F281	F	0.012536	-0.206651	-0.051395
F282	F	0.345870	0.126683	0.281939
H283	H	-0.259248	-0.346452	-0.404622
H284	H	0.074085	-0.013119	-0.071289
H285	H	0.407418	0.320214	0.262045
F286	F	-0.243062	-0.788942	-0.734925
F287	F	0.090272	-0.455609	-0.401592
F288	F	0.423605	-0.122275	-0.068258
H289	H	-0.190896	-0.263244	-0.229679
H290	H	0.142437	0.070089	0.103654
H291	H	0.475770	0.403423	0.436987
H292	H	-0.190935	-0.832821	-0.541344
H293	H	0.142398	-0.499487	-0.208010
H294	H	0.475732	-0.166154	0.125323
H295	H	-0.244066	-0.803061	-0.861831
H296	H	0.089267	-0.469727	-0.528497
H297	H	0.422600	-0.136394	-0.195164
H298	H	-0.259007	-1.007885	-0.743275
H299	H	0.074326	-0.674552	-0.409942
H300	H	0.407659	-0.341218	-0.076608
F301	F	-0.182547	-0.822824	-0.668228
F302	F	0.150786	-0.489491	-0.334895
F303	F	0.484119	-0.156158	-0.001561
H304	H	-1.052113	-0.832818	-0.374890
H305	H	-0.718779	-0.499485	-0.041557
H306	H	-0.385446	-0.166152	0.291776
F307	F	-0.182571	-0.675066	-0.219567
F308	F	0.150762	-0.341733	0.113767
F309	F	0.484096	-0.008399	0.447100
F310	F	-0.182506	-0.822822	-0.936794
F311	F	0.150828	-0.489489	-0.603460
F312	F	0.484161	-0.156156	-0.270127
H313	H	-0.952969	-0.978258	-0.229675
H314	H	-0.619635	-0.644925	0.103659
H315	H	-0.286302	-0.311591	0.436992
H316	H	-0.190879	-0.144533	-0.229718
H317	H	0.142455	0.188800	0.103616
H318	H	0.475788	0.522133	0.436949
H319	H	-0.190850	-0.832830	-1.063687
H320	H	0.142483	-0.499497	-0.730354
H321	H	0.475817	-0.166163	-0.397021
F322	F	-0.443888	-0.822540	-0.384820
F323	F	-0.110554	-0.489207	-0.051486
F324	F	0.222779	-0.155874	0.281847
H325	H	-0.312147	-0.978121	-1.063764
H326	H	0.021186	-0.644787	-0.730431
H327	H	0.354519	-0.311454	-0.397098
F328	F	-0.694943	-1.028268	-0.179627
F329	F	-0.361610	-0.694935	0.153706
F330	F	-0.028277	-0.361602	0.487040
H331	H	-0.312247	-0.978099	-0.541414
H332	H	0.021086	-0.644766	-0.208080
H333	H	0.354419	-0.311432	0.125253
H334	H	-0.312391	-0.263238	-0.374809
H335	H	0.020942	0.070096	-0.041476
H336	H	0.354276	0.403429	0.291857
H337	H	-0.450622	-0.978032	-0.229607
H338	H	-0.117289	-0.644698	0.103726
H339	H	0.216044	-0.311365	0.437060
H340	H	-0.312171	-0.978115	-0.945054
H341	H	0.021162	-0.644781	-0.611720
H342	H	0.354495	-0.311448	-0.278387
H343	H	-0.953063	-0.832784	-0.374887
H344	H	-0.619729	-0.499450	-0.041554
H345	H	-0.286396	-0.166117	0.291780
F346	F	-1.058855	-0.988322	-0.219686
F347	F	-0.725522	-0.654988	0.113647
F348	F	-0.392188	-0.321655	0.446981
F349	F	-0.260023	-1.022001	-0.870172
F350	F	0.073311	-0.688667	-0.536838
F351	F	0.406644	-0.355334	-0.203505
H352	H	-0.259267	-0.465164	-0.404589
H353	H	0.074066	-0.131831	-0.071255
H354	H	0.407399	0.201502	0.262078
F355	F	-0.320739	-0.136349	-0.384852
F356	F	0.012594	0.196985	-0.051518
F357	F	0.345928	0.530318	0.281815
H358	H	-0.244065	-0.346253	-0.199814
H359	H	0.089268	-0.012920	0.133519
H360	H	0.422601	0.320414	0.466853
H361	H	-0.800953	-0.792637	-0.414894
H362	H	-0.467620	-0.459304	-0.081561
H363	H	-0.134287	-0.125970	0.251773
H364	H	-0.312220	-0.978103	-0.660127
H365	H	0.021114	-0.644769	-0.326794
H366	H	0.354447	-0.311436	0.006539
H367	H	-0.549673	-0.978090	-0.229626
H368	H	-0.216340	-0.644756	0.103707
H369	H	0.116994	-0.311423	0.437041
F370	F	-0.243035	-0.473125	-0.185664
F371	F	0.090299	-0.139792	0.147669
F372	F	0.423632	0.193541	0.481003
H373	H	-0.800820	-1.018287	-0.189646
H374	H	-0.467487	-0.684954	0.143687
H375	H	-0.134154	-0.351621	0.477020
H376	H	-0.701903	-0.792606	-0.414885
H377	H	-0.368570	-0.459273	-0.081552
H378	H	-0.035237	-0.125939	0.251781
H379	H	-0.549776	-0.832610	-0.374835
H380	H	-0.216442	-0.499276	-0.041502
H381	H	0.116891	-0.165943	0.291831
