data_functionalizedCrystal
_audit_creation_method	'MofGen! by Chris Wilmer'
_symmetry_space_group_name_H-M	'P1'
_symmetry_Int_Tables_number	1
_symmetry_cell_setting	triclinic
loop_
_symmetry_equiv_pos_as_xyz
  x,y,z
_cell_length_a	17.640112
_cell_length_b	25.639240
_cell_length_c	25.639243
_cell_angle_alpha	90.016535
_cell_angle_beta	78.812563
_cell_angle_gamma	101.259448
loop_
_atom_site_label
_atom_site_type_symbol
_atom_site_fract_x
_atom_site_fract_y
_atom_site_fract_z
Zn1	Zn	1.208263	-0.046453	0.134300
Zn2	Zn	1.541596	0.286880	0.467634
Zn3	Zn	1.874930	0.620213	0.800967
Zn4	Zn	1.208183	-0.133868	0.046864
Zn5	Zn	1.541517	0.199465	0.380198
Zn6	Zn	1.874850	0.532798	0.713531
Zn7	Zn	1.076114	-0.064135	0.064519
Zn8	Zn	1.409448	0.269198	0.397852
Zn9	Zn	1.742781	0.602531	0.731185
Zn10	Zn	1.076023	-0.151569	0.151910
Zn11	Zn	1.409356	0.181764	0.485243
Zn12	Zn	1.742689	0.515098	0.818577
O13	O	1.142146	-0.099007	0.099398
O14	O	1.475479	0.234327	0.432732
O15	O	1.808813	0.567660	0.766065
O16	O	1.318867	-0.043241	0.107944
O17	O	1.652200	0.290092	0.441277
O18	O	1.985534	0.623425	0.774610
O19	O	1.190669	-0.124610	-0.023960
O20	O	1.524002	0.208723	0.309374
O21	O	1.857336	0.542056	0.642707
O22	O	1.093716	0.011385	0.073794
O23	O	1.427049	0.344718	0.407127
O24	O	1.760382	0.678052	0.740461
O25	O	1.318809	-0.107465	0.043705
O26	O	1.652142	0.225868	0.377038
O27	O	1.985475	0.559202	0.710371
O28	O	1.190805	0.024376	0.125062
O29	O	1.524138	0.357709	0.458396
O30	O	1.857472	0.691043	0.791729
O31	O	1.093638	-0.073378	-0.010989
O32	O	1.426972	0.259955	0.322344
O33	O	1.760305	0.593289	0.655678
O34	O	0.965487	-0.090542	0.090869
O35	O	1.298821	0.242792	0.424203
O36	O	1.632154	0.576125	0.757536
O37	O	1.093560	-0.137633	0.222740
O38	O	1.426893	0.195700	0.556073
O39	O	1.760226	0.529034	0.889407
O40	O	0.965420	-0.154779	0.155075
O41	O	1.298753	0.178555	0.488409
O42	O	1.632087	0.511888	0.821742
O43	O	1.190716	-0.060405	0.209802
O44	O	1.524049	0.272928	0.543135
O45	O	1.857383	0.606262	0.876469
O46	O	1.190580	-0.209391	0.060780
O47	O	1.523914	0.123942	0.394114
O48	O	1.857247	0.457275	0.727447
O49	O	1.093482	-0.222396	0.137957
O50	O	1.426816	0.110937	0.471290
O51	O	1.760149	0.444271	0.804623
C52	C	0.936773	-0.126500	0.126799
C53	C	1.270106	0.206833	0.460133
C54	C	1.603439	0.540167	0.793466
C55	C	0.848913	-0.138274	0.138534
C56	C	1.182246	0.195059	0.471867
C57	C	1.515580	0.528392	0.805201
C58	C	0.560020	-0.009549	0.010256
C59	C	0.893353	0.323785	0.343589
C60	C	1.226686	0.657118	0.676922
C61	C	0.477462	-0.020623	0.021289
C62	C	0.810796	0.312710	0.354622
C63	C	1.144129	0.646043	0.687956
C64	C	0.477447	-0.087605	0.088032
C65	C	0.810780	0.245728	0.421365
C66	C	1.144113	0.579061	0.754698
C67	C	0.560006	-0.076535	0.077005
C68	C	0.893339	0.256799	0.410339
C69	C	1.226672	0.590132	0.743672
C70	C	0.601286	-0.037506	0.038116
C71	C	0.934619	0.295827	0.371450
C72	C	1.267952	0.629160	0.704783
C73	C	0.601272	-0.104492	0.104866
C74	C	0.934605	0.228841	0.438200
C75	C	1.267938	0.562174	0.771533
C76	C	0.683823	-0.093424	0.093839
C77	C	1.017157	0.239909	0.427172
C78	C	1.350490	0.573242	0.760506
C79	C	0.725109	-0.054399	0.054951
C80	C	1.058443	0.278934	0.388284
C81	C	1.391776	0.612268	0.721617
C82	C	0.683838	-0.026438	0.027089
C83	C	1.017171	0.306895	0.360422
C84	C	1.350504	0.640228	0.693756
C85	C	0.559990	-0.143523	0.143752
C86	C	0.893323	0.189810	0.477086
C87	C	1.226657	0.523144	0.810419
C88	C	0.601256	-0.171481	0.171613
C89	C	0.934589	0.161853	0.504947
C90	C	1.267923	0.495186	0.838280
C91	C	0.683809	-0.160410	0.160589
C92	C	1.017143	0.172923	0.493922
C93	C	1.350476	0.506256	0.827255
C94	C	0.725095	-0.121385	0.121700
C95	C	1.058429	0.211949	0.455034
C96	C	1.391762	0.545282	0.788367
C97	C	0.725081	-0.188371	0.188450
C98	C	1.058415	0.144963	0.521784
C99	C	1.391748	0.478296	0.855117
C100	C	0.807633	-0.177303	0.177423
C101	C	1.140966	0.156031	0.510756
C102	C	1.474300	0.489364	0.844090
C103	C	0.807647	-0.110317	0.110673
C104	C	1.140980	0.223016	0.444006
C105	C	1.474314	0.556350	0.777340
C106	C	1.142034	-0.234864	0.099372
C107	C	1.475367	0.098469	0.432706
C108	C	1.808701	0.431803	0.766039
C109	C	1.142059	-0.292975	0.099369
C110	C	1.475392	0.040358	0.432702
C111	C	1.808725	0.373692	0.766036
C112	C	1.192725	-0.646520	0.126151
C113	C	1.526059	-0.313187	0.459484
C114	C	1.859392	0.020147	0.792817
C115	C	1.192749	-0.701121	0.126158
C116	C	1.526082	-0.367788	0.459491
C117	C	1.859415	-0.034455	0.792825
O118	O	1.235694	-0.723579	0.148905
O119	O	1.569028	-0.390246	0.482238
O120	O	1.902361	-0.056912	0.815571
N121	N	1.142256	-0.735231	0.099434
N122	N	1.475589	-0.401898	0.432767
N123	N	1.808922	-0.068564	0.766101
C124	C	1.091730	-0.714738	0.072705
C125	C	1.425063	-0.381405	0.406039
C126	C	1.758397	-0.048071	0.739372
O127	O	1.048783	-0.748765	0.049976
O128	O	1.382117	-0.415431	0.383309
O129	O	1.715450	-0.082098	0.716642
C130	C	1.091703	-0.660138	0.072701
C131	C	1.425037	-0.326805	0.406035
C132	C	1.758370	0.006528	0.739368
C133	C	1.142205	-0.626030	0.099423
C134	C	1.475539	-0.292697	0.432756
C135	C	1.808872	0.040637	0.766089
C136	C	1.243223	-0.612413	0.152870
C137	C	1.576556	-0.279079	0.486204
C138	C	1.909889	0.054254	0.819537
C139	C	1.243200	-0.557815	0.152862
C140	C	1.576534	-0.224482	0.486195
C141	C	1.909867	0.108852	0.819528
C142	C	1.192680	-0.537325	0.126134
C143	C	1.526014	-0.203992	0.459467
C144	C	1.859347	0.129342	0.792800
C145	C	1.142183	-0.571433	0.099414
C146	C	1.475516	-0.238099	0.432748
C147	C	1.808850	0.095234	0.766081
C148	C	1.041175	-0.639647	0.045976
C149	C	1.374508	-0.306313	0.379309
C150	C	1.707841	0.027020	0.712643
C151	C	1.041152	-0.585043	0.045975
C152	C	1.374485	-0.251709	0.379308
C153	C	1.707819	0.081624	0.712641
C154	C	1.091654	-0.550934	0.072696
C155	C	1.424987	-0.217601	0.406029
C156	C	1.758321	0.115732	0.739363
C157	C	1.091641	-0.496345	0.072678
C158	C	1.424974	-0.163012	0.406011
C159	C	1.758307	0.170322	0.739344
N160	N	1.142134	-0.462235	0.099402
N161	N	1.475467	-0.128902	0.432735
N162	N	1.808801	0.204431	0.766068
C163	C	1.192654	-0.482725	0.126130
C164	C	1.525987	-0.149392	0.459463
C165	C	1.859320	0.183941	0.792796
C166	C	1.091789	-0.829401	0.072717
C167	C	1.425122	-0.496067	0.406050
C168	C	1.758456	-0.162734	0.739383
C169	C	1.091819	-0.883999	0.072717
C170	C	1.425153	-0.550666	0.406051
C171	C	1.758486	-0.217332	0.739384
C172	C	1.192837	-0.870379	0.126171
C173	C	1.526170	-0.537045	0.459504
C174	C	1.859504	-0.203712	0.792838
C175	C	1.192810	-0.815779	0.126167
C176	C	1.526143	-0.482445	0.459500
C177	C	1.859477	-0.149112	0.792834
C178	C	1.142282	-0.795291	0.099441
C179	C	1.475616	-0.461958	0.432774
C180	C	1.808949	-0.128624	0.766107
C181	C	1.192603	-0.368067	0.126110
C182	C	1.525936	-0.034734	0.459443
C183	C	1.859270	0.298600	0.792776
C184	C	1.192578	-0.313465	0.126097
C185	C	1.525912	0.019868	0.459430
C186	C	1.859245	0.353202	0.792764
C187	C	1.091558	-0.327090	0.072646
C188	C	1.424892	0.006243	0.405979
C189	C	1.758225	0.339576	0.739312
C190	C	1.091585	-0.381687	0.072656
C191	C	1.424919	-0.048354	0.405989
C192	C	1.758252	0.284979	0.739323
C193	C	1.142111	-0.402174	0.099392
C194	C	1.475444	-0.068841	0.432725
C195	C	1.808777	0.264493	0.766058
O196	O	1.048715	-0.473850	0.049945
O197	O	1.382048	-0.140517	0.383278
O198	O	1.715381	0.192817	0.716611
O199	O	1.235586	-0.448694	0.148861
O200	O	1.568919	-0.115360	0.482195
O201	O	1.902252	0.217973	0.815528
C202	C	1.348321	-0.071406	0.071891
C203	C	1.681654	0.261927	0.405224
C204	C	2.014988	0.595260	0.738557
C205	C	1.436180	-0.059645	0.060168
C206	C	1.769514	0.273689	0.393502
C207	C	2.102847	0.607022	0.726835
C208	C	1.142137	-0.099021	0.235772
C209	C	1.475470	0.234312	0.569106
C210	C	1.808803	0.567646	0.902439
C211	C	1.142133	-0.099027	0.293887
C212	C	1.475466	0.234306	0.627220
C213	C	1.808799	0.567639	0.960554
C214	C	1.142279	0.037384	0.099433
C215	C	1.475613	0.370718	0.432766
C216	C	1.808946	0.704051	0.766100
C217	C	1.142336	0.095506	0.099448
C218	C	1.475670	0.428839	0.432781
C219	C	1.809003	0.762173	0.766114
C220	C	1.091548	-0.139225	0.551811
C221	C	1.424881	0.194108	0.885144
C222	C	1.758214	0.527442	1.218478
C223	C	1.091544	-0.139226	0.497207
C224	C	1.424878	0.194107	0.830540
C225	C	1.758211	0.527441	1.163874
O226	O	1.048506	-0.173410	0.474697
O227	O	1.381839	0.159923	0.808030
O228	O	1.715173	0.493256	1.141363
N229	N	1.142130	-0.099020	0.463161
N230	N	1.475464	0.234313	0.796495
N231	N	1.808797	0.567647	1.129828
C232	C	1.192717	-0.058807	0.483723
C233	C	1.526050	0.274526	0.817056
C234	C	1.859384	0.607859	1.150389
O235	O	1.235744	-0.024609	0.449750
O236	O	1.569077	0.308725	0.783083
O237	O	1.902410	0.642058	1.116417
C238	C	1.192716	-0.058805	0.538326
C239	C	1.526049	0.274529	0.871659
C240	C	1.859383	0.607862	1.204993
C241	C	1.142132	-0.099016	0.572369
C242	C	1.475466	0.234317	0.905702
C243	C	1.808799	0.567650	1.239035
C244	C	1.040968	-0.179433	0.585853
C245	C	1.374301	0.153900	0.919186
C246	C	1.707634	0.487234	1.252520
C247	C	1.040972	-0.179433	0.640453
C248	C	1.374306	0.153901	0.973786
C249	C	1.707639	0.487234	1.307120
C250	C	1.091557	-0.139224	0.661011
C251	C	1.424890	0.194110	0.994344
C252	C	1.758224	0.527443	1.327677
C253	C	1.142137	-0.099016	0.626969
C254	C	1.475470	0.234318	0.960302
C255	C	1.808804	0.567651	1.293635
C256	C	1.243298	-0.018590	0.558887
C257	C	1.576632	0.314743	0.892220
C258	C	1.909965	0.648076	1.225554
C259	C	1.243292	-0.018591	0.613495
C260	C	1.576626	0.314742	0.946828
C261	C	1.909959	0.648076	1.280161
C262	C	1.192709	-0.058803	0.647537
C263	C	1.526042	0.274531	0.980871
C264	C	1.859375	0.607864	1.314204
C265	C	1.192726	-0.058806	0.702126
C266	C	1.526060	0.274527	1.035460
C267	C	1.859393	0.607860	1.368793
N268	N	1.142140	-0.099012	0.736172
N269	N	1.475474	0.234321	1.069505
N270	N	1.808807	0.567654	1.402839
C271	C	1.091556	-0.139221	0.715614
C272	C	1.424889	0.194112	1.048948
C273	C	1.758222	0.527446	1.382281
C274	C	1.192715	-0.058815	0.369052
C275	C	1.526048	0.274518	0.702386
C276	C	1.859381	0.607851	1.035719
C277	C	1.192721	-0.058820	0.314449
C278	C	1.526054	0.274514	0.647782
C279	C	1.859387	0.607847	0.981116
C280	C	1.091546	-0.139238	0.327938
C281	C	1.424880	0.194095	0.661271
C282	C	1.758213	0.527429	0.994604
C283	C	1.091545	-0.139235	0.382541
C284	C	1.424879	0.194098	0.715874
C285	C	1.758212	0.527431	1.049208
C286	C	1.142129	-0.099022	0.403098
C287	C	1.475462	0.234312	0.736431
C288	C	1.808796	0.567645	1.069765
C289	C	1.091570	-0.139217	0.830277
C290	C	1.424903	0.194116	1.163611
C291	C	1.758236	0.527450	1.496944
C292	C	1.091581	-0.139214	0.884881
C293	C	1.424914	0.194119	1.218215
C294	C	1.758248	0.527453	1.551548
C295	C	1.192752	-0.058794	0.871389
C296	C	1.526085	0.274539	1.204722
C297	C	1.859419	0.607872	1.538055
C298	C	1.192744	-0.058799	0.816789
C299	C	1.526077	0.274535	1.150122
C300	C	1.859410	0.607868	1.483456
C301	C	1.142146	-0.099013	0.796236
C302	C	1.475480	0.234321	1.129569
C303	C	1.808813	0.567654	1.462902
O304	O	1.235740	-0.024638	0.724674
O305	O	1.569074	0.308695	1.058008
O306	O	1.902407	0.642028	1.391341
O307	O	1.048529	-0.173410	0.749593
O308	O	1.381862	0.159923	1.082927
O309	O	1.715196	0.493257	1.416260
C310	C	1.142152	-0.099006	0.963555
C311	C	1.475486	0.234327	1.296888
C312	C	1.808819	0.567660	1.630222
C313	C	1.142166	-0.099005	0.905439
C314	C	1.475499	0.234328	1.238772
C315	C	1.808832	0.567661	1.572106
H316	H	0.841260	-0.078528	0.079014
H317	H	1.174593	0.254805	0.412347
H318	H	1.507927	0.588138	0.745680
H319	H	1.050704	-0.911765	0.050951
H320	H	1.384037	-0.578431	0.384285
H321	H	1.717370	-0.245098	0.717618
H322	H	1.233919	-0.026080	0.286734
H323	H	1.567253	0.307254	0.620068
H324	H	1.900586	0.640587	0.953401
Br325	Br	0.972573	-0.557241	0.009702
Br326	Br	1.305906	-0.223908	0.343036
Br327	Br	1.639239	0.109425	0.676369
Br328	Br	0.545226	-0.224454	0.224381
Br329	Br	0.878560	0.108879	0.557715
Br330	Br	1.211893	0.442213	0.891048
H331	H	1.233939	-0.026058	0.789069
H332	H	1.567272	0.307275	1.122402
H333	H	1.900605	0.640609	1.455736
H334	H	1.233740	-0.384741	0.147885
H335	H	1.567073	-0.051407	0.481218
H336	H	1.900407	0.281926	0.814551
H337	H	0.593632	0.022240	-0.021404
H338	H	0.926966	0.355573	0.311929
H339	H	1.260299	0.688906	0.645263
Br340	Br	0.421460	0.017318	-0.016532
Br341	Br	0.754793	0.350652	0.316801
Br342	Br	1.088127	0.683985	0.650134
Br343	Br	0.972320	-0.234009	0.686646
Br344	Br	1.305653	0.099325	1.019979
Br345	Br	1.638986	0.432658	1.353312
H346	H	1.050428	-0.310399	0.050882
H347	H	1.383761	0.022935	0.384215
H348	H	1.717095	0.356268	0.717549
H349	H	1.233912	-0.026068	0.385785
H350	H	1.567246	0.307265	0.719118
H351	H	1.900579	0.640598	1.052451
Br352	Br	0.421417	-0.140579	0.140800
Br353	Br	0.754750	0.192755	0.474133
Br354	Br	1.088083	0.526088	0.807466
Br355	Br	0.837146	-0.039380	0.039979
Br356	Br	1.170479	0.293953	0.373312
Br357	Br	1.503812	0.627286	0.706646
H358	H	1.284321	-0.530047	0.174622
H359	H	1.617654	-0.196714	0.507956
H360	H	1.950988	0.136620	0.841289
Br361	Br	1.311791	-0.640209	0.189152
Br362	Br	1.645124	-0.306876	0.522486
Br363	Br	1.978457	0.026457	0.855819
Br364	Br	1.023059	-0.427977	0.036381
Br365	Br	1.356392	-0.094643	0.369715
Br366	Br	1.689726	0.238690	0.703048
Br367	Br	1.022932	-0.193793	0.931079
Br368	Br	1.356265	0.139540	1.264412
Br369	Br	1.689598	0.472874	1.597746
Br370	Br	1.022901	-0.193793	0.802392
Br371	Br	1.356235	0.139540	1.135725
Br372	Br	1.689568	0.472873	1.469059
Br373	Br	0.972630	-0.685923	0.009710
Br374	Br	1.305963	-0.352590	0.343044
Br375	Br	1.639296	-0.019256	0.676377
H376	H	0.492771	-0.152533	0.152730
H377	H	0.826104	0.180800	0.486063
H378	H	1.159438	0.514133	0.819396
Br379	Br	0.739869	0.026534	-0.025685
Br380	Br	1.073202	0.359868	0.307649
Br381	Br	1.406535	0.693201	0.640982
Br382	Br	1.311951	0.035987	0.512700
Br383	Br	1.645285	0.369320	0.846033
Br384	Br	1.978618	0.702653	1.179366
H385	H	0.999771	-0.212176	0.569122
H386	H	1.333104	0.121157	0.902456
H387	H	1.666437	0.454490	1.235789
Br388	Br	1.261402	-0.004229	0.899299
Br389	Br	1.594735	0.329104	1.232632
Br390	Br	1.928068	0.662437	1.565965
H391	H	0.691458	-0.220151	0.220110
H392	H	1.024792	0.113182	0.553443
H393	H	1.358125	0.446516	0.886777
Br394	Br	0.863642	-0.215248	0.215231
Br395	Br	1.196976	0.118085	0.548565
Br396	Br	1.530309	0.451419	0.881898
H397	H	1.050646	-0.812722	0.050948
H398	H	1.383979	-0.479389	0.384282
H399	H	1.717312	-0.146056	0.717615
H400	H	1.233706	-0.285695	0.147856
H401	H	1.567039	0.047639	0.481189
H402	H	1.900373	0.380972	0.814523
Br403	Br	1.261351	-0.769495	0.162433
Br404	Br	1.594684	-0.436161	0.495766
Br405	Br	1.928018	-0.102828	0.829099
H406	H	1.050356	-0.171978	0.311190
H407	H	1.383690	0.161356	0.644523
H408	H	1.717023	0.494689	0.977857
Br409	Br	1.261401	-0.898197	0.162445
Br410	Br	1.594734	-0.564863	0.495778
Br411	Br	1.928068	-0.231530	0.829111
Br412	Br	1.022893	-0.193810	0.428736
Br413	Br	1.356227	0.139523	0.762070
Br414	Br	1.689560	0.472857	1.095403
Br415	Br	1.311935	0.035994	0.641391
Br416	Br	1.645268	0.369327	0.974724
Br417	Br	1.978602	0.702661	1.308058
