data_functionalizedCrystal
_audit_creation_method	'MofGen! by Chris Wilmer'
_symmetry_space_group_name_H-M	'P1'
_symmetry_Int_Tables_number	1
_symmetry_cell_setting	triclinic
loop_
_symmetry_equiv_pos_as_xyz
  x,y,z
_cell_length_a	18.215405
_cell_length_b	11.169417
_cell_length_c	18.215399
_cell_angle_alpha	90.016030
_cell_angle_beta	90.030551
_cell_angle_gamma	90.026135
loop_
_atom_site_label
_atom_site_type_symbol
_atom_site_fract_x
_atom_site_fract_y
_atom_site_fract_z
Zn1	Zn	-0.292967	1.834800	0.416028
Zn2	Zn	0.207033	2.334800	0.916028
Zn3	Zn	-0.416039	1.834650	0.292956
Zn4	Zn	0.083961	2.334650	0.792956
Zn5	Zn	-0.292993	1.634098	0.292983
Zn6	Zn	0.207007	2.134098	0.792983
Zn7	Zn	-0.415999	1.634042	0.415989
Zn8	Zn	0.084001	2.134042	0.915989
O9	O	-0.354500	1.734398	0.354489
O10	O	0.145500	2.234398	0.854489
O11	O	-0.309299	2.002730	0.399707
O12	O	0.190701	2.502730	0.899707
O13	O	-0.399744	1.808007	0.189975
O14	O	0.100256	2.308007	0.689975
O15	O	-0.190005	1.660807	0.309333
O16	O	0.309995	2.160807	0.809333
O17	O	-0.399719	2.002620	0.309287
O18	O	0.100281	2.502620	0.809287
O19	O	-0.189986	1.808262	0.399733
O20	O	0.310014	2.308262	0.899733
O21	O	-0.309343	1.660662	0.189995
O22	O	0.190657	2.160662	0.689995
O23	O	-0.309305	1.466141	0.309296
O24	O	0.190695	1.966141	0.809296
O25	O	-0.399652	1.660712	0.518979
O26	O	0.100348	2.160712	1.018979
O27	O	-0.399677	1.466100	0.399667
O28	O	0.100323	1.966100	0.899667
O29	O	-0.309261	1.808208	0.519007
O30	O	0.190739	2.308208	1.019007
O31	O	-0.519018	1.807953	0.309249
O32	O	-0.019018	2.307953	0.809249
O33	O	-0.518989	1.660567	0.399641
O34	O	-0.018989	2.160567	0.899641
C35	C	-0.354490	1.422573	0.354481
C36	C	0.145510	1.922573	0.854481
C37	C	-0.354503	1.289173	0.354495
C38	C	0.145497	1.789173	0.854495
C39	C	-0.545706	1.734271	0.354454
C40	C	-0.045706	2.234271	0.854454
C41	C	-0.627505	1.734326	0.354463
C42	C	-0.127505	2.234326	0.854463
C43	C	-0.815689	1.811250	0.307483
C44	C	-0.315689	2.311250	0.807483
C45	C	-0.892548	1.811304	0.307501
C46	C	-0.392548	2.311304	0.807501
C47	C	-0.892558	1.657698	0.401548
C48	C	-0.392558	2.157698	0.901548
C49	C	-0.815701	1.657651	0.401534
C50	C	-0.315701	2.157651	0.901534
C51	C	-0.777268	1.734426	0.354497
C52	C	-0.277268	2.234426	0.854497
C53	C	-0.930984	1.734526	0.354529
C54	C	-0.430984	2.234526	0.854529
C55	C	-1.014318	1.734584	0.354549
C56	C	-0.514318	2.234584	0.854549
C57	C	-0.693929	1.734370	0.354478
C58	C	-0.193929	2.234370	0.854478
C59	C	-0.162547	1.734557	0.354541
C60	C	0.337453	2.234557	0.854541
C61	C	-0.080748	1.734626	0.354563
C62	C	0.419252	2.234626	0.854563
C63	C	-0.354510	2.047440	0.354498
C64	C	0.145490	2.547440	0.854498
C65	C	-0.354515	2.180840	0.354502
C66	C	0.145485	2.680840	0.854502
C67	C	-0.354449	1.734471	0.546442
C68	C	0.145551	2.234471	1.046442
C69	C	-0.354427	1.734502	0.628241
C70	C	0.145573	2.234502	1.128241
C71	C	-0.354497	1.734394	0.163283
C72	C	0.145503	2.234394	0.663283
C73	C	-0.354311	1.734595	0.081484
C74	C	0.145689	2.234595	0.581484
C75	C	-0.307317	1.811330	0.816451
C76	C	0.192683	2.311330	1.316451
C77	C	-0.307295	1.811345	0.893310
C78	C	0.192705	2.311345	1.393310
C79	C	-0.401424	1.657758	0.893269
C80	C	0.098576	2.157758	1.393269
C81	C	-0.401441	1.657739	0.816412
C82	C	0.098559	2.157739	1.316412
C83	C	-0.354389	1.734532	0.778005
C84	C	0.145611	2.234532	1.278005
C85	C	-0.354350	1.734565	0.931721
C86	C	0.145650	2.234565	1.431721
C87	C	-0.354327	1.734580	1.015055
C88	C	0.145673	2.234580	1.515055
C89	C	-0.354410	1.734515	0.694666
C90	C	0.145590	2.234515	1.194666
H91	H	-0.784399	1.873767	0.269183
H92	H	-0.284399	2.373767	0.769183
Cl93	Cl	-0.460618	1.561176	0.768075
Cl94	Cl	0.039382	2.061176	1.268075
H95	H	-0.784416	1.595091	0.439822
H96	H	-0.284416	2.095091	0.939822
Cl97	Cl	-0.940878	1.561183	0.460675
Cl98	Cl	-0.440878	2.061183	0.960675
Cl99	Cl	-0.248123	1.907907	0.941639
Cl100	Cl	0.251877	2.407907	1.441639
H101	H	-0.269001	1.873857	0.785182
H102	H	0.230999	2.373857	1.285182
H103	H	-0.439734	1.595239	0.924549
H104	H	0.060266	2.095239	1.424549
H105	H	-0.923827	1.873864	0.269218
H106	H	-0.423827	2.373864	0.769218
