data_functionalizedCrystal
_audit_creation_method	'MofGen! by Chris Wilmer'
_symmetry_space_group_name_H-M	'P1'
_symmetry_Int_Tables_number	1
_symmetry_cell_setting	triclinic
loop_
_symmetry_equiv_pos_as_xyz
  x,y,z
_cell_length_a	12.827892
_cell_length_b	19.077142
_cell_length_c	19.076919
_cell_angle_alpha	89.925643
_cell_angle_beta	92.275535
_cell_angle_gamma	92.288937
loop_
_atom_site_label
_atom_site_type_symbol
_atom_site_fract_x
_atom_site_fract_y
_atom_site_fract_z
Zn1	Zn	-0.505587	-1.058322	-0.440475
Zn2	Zn	-0.673612	-1.062979	-0.322976
Zn3	Zn	-0.491585	-0.945538	-0.318264
Zn4	Zn	-0.672979	-0.940801	-0.435725
O5	O	-0.585941	-1.001910	-0.379360
O6	O	-0.534001	-1.157272	-0.428849
O7	O	-0.643871	-1.051332	-0.224020
O8	O	-0.347210	-0.960533	-0.334492
O9	O	-0.657448	-1.160694	-0.342523
O10	O	-0.357497	-1.043394	-0.424280
O11	O	-0.510137	-0.965049	-0.220558
O12	O	-0.509523	-0.846578	-0.329886
O13	O	-0.656369	-0.952459	-0.534686
O14	O	-0.642792	-0.843097	-0.416183
O15	O	-0.533387	-1.038801	-0.538176
O16	O	-0.819761	-1.046739	-0.337916
O17	O	-0.819296	-0.956975	-0.420752
C18	C	-0.574570	-0.819341	-0.372008
C19	C	-0.569732	-0.741236	-0.368879
C20	C	-0.857448	-1.001867	-0.379346
C21	C	-0.973604	-1.001912	-0.379366
C22	C	-0.636942	-0.702752	-0.412269
C23	C	-0.632382	-0.629364	-0.409333
C24	C	-0.560617	-0.594463	-0.363003
C25	C	-0.493400	-0.632952	-0.319611
C26	C	-0.497955	-0.706338	-0.322551
C27	C	-0.539537	-0.375173	-0.349402
C28	C	-0.534988	-0.301782	-0.346463
C29	C	-0.673970	-0.298199	-0.436187
C30	C	-0.678523	-0.371587	-0.439120
C31	C	-0.611303	-0.410070	-0.395731
N32	N	-0.555956	-0.519449	-0.359999
N33	N	-0.615958	-0.485082	-0.398739
C34	C	-1.025591	-1.046378	-0.338426
C35	C	-1.145645	-1.046426	-0.338445
C36	C	-0.313376	-1.001972	-0.379390
C37	C	-0.197226	-1.001999	-0.379403
C38	C	-0.596369	-0.994582	-0.562640
C39	C	-0.600813	-0.991459	-0.640744
C40	C	-0.597351	-0.185193	-0.386733
C41	C	-0.602198	-0.263298	-0.389853
C42	C	-0.538874	-1.034943	-0.679255
C43	C	-0.543045	-1.032000	-0.752641
C44	C	-0.609162	-0.985576	-0.787514
C45	C	-0.671103	-0.942087	-0.748998
C46	C	-0.666926	-0.945027	-0.675613
C47	C	-0.628515	-0.971960	-1.006796
C48	C	-0.632690	-0.969025	-1.080186
C49	C	-0.504629	-1.058938	-1.083824
C50	C	-0.500463	-1.061876	-1.010438
C51	C	-0.562401	-1.018385	-0.971927
N52	N	-0.613429	-0.982569	-0.862526
N53	N	-0.558127	-1.021389	-0.896916
C54	C	-0.575480	-1.009250	-0.196794
C55	C	-0.570751	-1.012510	-0.118697
H56	H	-0.695384	-0.731164	-0.449994
O57	O	-1.198847	-1.091951	-0.296667
C58	C	-1.177382	-1.161356	-0.314906
H59	H	-1.099720	-1.161712	-0.341926
H60	H	-1.172801	-1.194941	-0.265492
H61	H	-1.242267	-1.183539	-0.352047
H62	H	-0.434962	-0.604529	-0.281891
O63	O	-0.696941	-0.923863	-1.113951
C64	C	-0.750733	-0.886118	-1.064227
H65	H	-0.704802	-0.885786	-1.011822
H66	H	-0.759635	-0.829904	-1.083201
H67	H	-0.831258	-0.912142	-1.057448
O68	O	-0.727259	-0.902869	-0.638231
C69	C	-0.833384	-0.917479	-0.656783
H70	H	-0.843297	-0.972803	-0.679227
H71	H	-0.881886	-0.913357	-0.608270
H72	H	-0.860786	-0.878090	-0.697850
H73	H	-0.981221	-1.084416	-0.303363
H74	H	-0.476537	-0.273367	-0.308740
O75	O	-0.697788	-0.592089	-0.451501
C76	C	-0.762098	-0.638630	-0.493028
H77	H	-0.767244	-0.692088	-0.466339
H78	H	-0.843559	-0.617124	-0.499566
H79	H	-0.727496	-0.644313	-0.546759
O80	O	-0.735304	-0.897051	-0.782982
C81	C	-0.725693	-0.903768	-0.856012
H82	H	-0.695421	-0.957604	-0.868227
H83	H	-0.805258	-0.897865	-0.883699
H84	H	-0.668632	-0.861268	-0.875163
H85	H	-0.736964	-0.399999	-0.476846
O86	O	-0.739151	-0.260708	-0.478310
C87	C	-0.719764	-0.188452	-0.465771
H88	H	-0.637139	-0.179350	-0.442447
H89	H	-0.728235	-0.158469	-0.517281
H90	H	-0.778239	-0.169109	-0.427447
H91	H	-0.484808	-0.406498	-0.314066
O92	O	-0.444424	-1.101248	-1.121127
C93	C	-0.385150	-1.142838	-1.074609
H94	H	-0.425130	-1.147358	-1.022392
H95	H	-0.378652	-1.197355	-1.098047
H96	H	-0.303740	-1.117433	-1.065774
H97	H	-0.443220	-0.737672	-0.287222
O98	O	-0.482723	-1.074213	-0.789967
C99	C	-0.376596	-1.059588	-0.771431
H100	H	-0.369725	-1.034707	-0.717061
H101	H	-0.332758	-1.110414	-0.770964
H102	H	-0.341489	-1.021818	-0.811279
H103	H	-1.152527	-0.963924	-0.414453
O104	O	-0.688522	-0.929646	-0.969352
C105	C	-0.623776	-0.885990	-0.925070
H106	H	-0.542465	-0.880783	-0.947026
H107	H	-0.658151	-0.831937	-0.922046
H108	H	-0.618356	-0.909947	-0.870331
O109	O	-1.026653	-0.956631	-0.421240
C110	C	-1.094762	-0.994850	-0.468253
H111	H	-1.112856	-1.049129	-0.445652
H112	H	-1.170348	-0.965925	-0.476462
H113	H	-1.056160	-1.000402	-0.520659
O114	O	-0.436133	-1.106861	-0.976496
C115	C	-0.363717	-1.068546	-0.932474
H116	H	-0.396664	-1.015740	-0.919315
H117	H	-0.348501	-1.099234	-0.882031
H118	H	-0.287429	-1.059681	-0.960476
O119	O	-0.474581	-1.079944	-0.645302
C120	C	-0.402163	-1.041650	-0.601263
H121	H	-0.435080	-0.988833	-0.588113
H122	H	-0.386996	-1.072343	-0.550816
H123	H	-0.325855	-1.032810	-0.629246
