data_functionalizedCrystal
_audit_creation_method	'MofGen! by Chris Wilmer'
_symmetry_space_group_name_H-M	'P1'
_symmetry_Int_Tables_number	1
_symmetry_cell_setting	triclinic
loop_
_symmetry_equiv_pos_as_xyz
  x,y,z
_cell_length_a	14.971482
_cell_length_b	10.654551
_cell_length_c	14.048226
_cell_angle_alpha	89.996418
_cell_angle_beta	89.994098
_cell_angle_gamma	84.048985
loop_
_atom_site_label
_atom_site_type_symbol
_atom_site_fract_x
_atom_site_fract_y
_atom_site_fract_z
O1	O	1.187840	0.163637	-0.079142
O2	O	1.687840	0.663637	0.420858
O3	O	0.927546	0.183240	-0.079146
O4	O	1.427546	0.683240	0.420854
O5	O	1.063677	-0.009365	-0.079145
O6	O	1.563677	0.490635	0.420855
O7	O	1.051709	0.356242	-0.079144
O8	O	1.551709	0.856242	0.420856
O9	O	1.063661	-0.009377	0.079177
O10	O	1.563661	0.490623	0.579177
O11	O	0.927530	0.183229	0.079175
O12	O	1.427530	0.683229	0.579175
O13	O	1.187823	0.163625	0.079179
O14	O	1.687823	0.663625	0.579179
Zn15	Zn	1.057674	0.173425	0.104314
Zn16	Zn	1.557674	0.673425	0.604314
Zn17	Zn	1.057696	0.173440	-0.104281
Zn18	Zn	1.557696	0.673440	0.395719
O19	O	1.051692	0.356230	0.079178
O20	O	1.551692	0.856230	0.579178
C21	C	0.894208	0.182358	0.000014
C22	C	1.394208	0.682358	0.500014
C23	C	0.794897	0.179734	0.000012
C24	C	1.294897	0.679734	0.500012
C25	C	0.748236	0.178491	0.086314
C26	C	1.248236	0.678491	0.586314
C27	C	0.654924	0.176005	0.086315
C28	C	1.154924	0.676005	0.586315
C29	C	0.608274	0.174770	0.000013
C30	C	1.108274	0.674770	0.500013
C31	C	0.654941	0.176009	-0.086295
C32	C	1.154941	0.676009	0.413705
C33	C	0.748252	0.178486	-0.086295
C34	C	1.248252	0.678486	0.413705
C35	C	0.460451	0.170849	-0.086289
C36	C	0.960451	0.670849	0.413711
C37	C	0.367133	0.168374	-0.086290
C38	C	0.867133	0.668374	0.413710
C39	C	0.367123	0.168368	0.086321
C40	C	0.867123	0.668368	0.586321
C41	C	0.460434	0.170845	0.086321
C42	C	0.960434	0.670845	0.586321
C43	C	0.507095	0.172086	0.000012
C44	C	1.007095	0.672086	0.500012
C45	C	1.062790	-0.056159	0.000014
C46	C	1.562790	0.443841	0.500014
C47	C	1.060160	-0.195574	0.000007
C48	C	1.560160	0.304426	0.500007
C49	C	1.058936	-0.261067	-0.086292
C50	C	1.558936	0.238933	0.413708
C51	C	1.056457	-0.392061	-0.086287
C52	C	1.556457	0.107939	0.413713
C53	C	1.056431	-0.392058	0.086323
C54	C	1.556431	0.107942	0.586323
C55	C	1.058904	-0.261066	0.086318
C56	C	1.558904	0.238934	0.586318
C57	C	1.058954	-0.261070	-0.185947
C58	C	1.558954	0.238930	0.314053
C59	C	1.056475	-0.392064	-0.185943
C60	C	1.556475	0.107936	0.314057
C61	C	1.221161	0.164507	0.000017
C62	C	1.721161	0.664507	0.500017
C63	C	1.320473	0.167131	0.000012
C64	C	1.820473	0.667131	0.500012
C65	C	1.052580	0.403025	0.000017
C66	C	1.552580	0.903025	0.500017
C67	C	1.055209	0.542439	0.000017
C68	C	1.555209	1.042439	0.500017
N69	N	1.057665	0.173414	0.246675
N70	N	1.557665	0.673414	0.746675
N71	N	1.057711	0.173441	-0.246642
N72	N	1.557711	0.673441	0.253358
C73	C	1.117964	0.088164	0.296493
C74	C	1.617964	0.588164	0.796493
C75	C	1.117970	0.088163	0.396151
C76	C	1.617970	0.588163	0.896151
C77	C	1.057681	0.173420	0.445988
C78	C	1.557681	0.673420	0.945988
C79	C	0.997377	0.258674	0.396163
C80	C	1.497377	0.758674	0.896163
C81	C	0.997367	0.258668	0.296507
C82	C	1.497367	0.758668	0.796507
C83	C	0.997402	0.258683	0.603877
C84	C	1.497402	0.758683	1.103877
C85	C	0.997413	0.258691	0.703539
C86	C	1.497413	0.758691	1.203539
C87	C	1.118005	0.088179	0.703521
C88	C	1.618005	0.588179	1.203521
C89	C	1.117995	0.088172	0.603865
C90	C	1.617995	0.588172	1.103865
C91	C	1.057692	0.173429	0.554047
C92	C	1.557692	0.673429	1.054047
H93	H	0.329153	0.167369	-0.156564
H94	H	0.829153	0.667369	0.343436
Br95	Br	0.955943	-0.182809	-0.249731
Br96	Br	1.455943	0.317191	0.250269
Br97	Br	0.811538	0.180180	0.203445
Br98	Br	1.311538	0.680180	0.703445
H99	H	1.167068	0.018745	0.436713
H100	H	1.667068	0.518745	0.936713
Br101	Br	1.199823	-0.027521	0.536226
Br102	Br	1.699823	0.472479	1.036226
H103	H	0.991244	-0.420928	-0.216875
H104	H	1.491244	0.079072	0.283125
H105	H	1.124194	-0.232202	-0.216866
H106	H	1.624194	0.267798	0.283134
Br107	Br	0.915524	0.374362	0.228895
Br108	Br	1.415524	0.874362	0.728895
Br109	Br	0.915556	0.374385	0.536268
Br110	Br	1.415556	0.874385	1.036268
H111	H	1.059896	-0.207746	0.156591
H112	H	1.559896	0.292254	0.656591
H113	H	0.616951	0.174995	-0.156564
H114	H	1.116951	0.674995	0.343436
Br115	Br	1.199795	-0.027540	0.228868
Br116	Br	1.699795	0.472460	0.728868
Br117	Br	1.159505	-0.470333	-0.249707
Br118	Br	1.659505	0.029667	0.250293
H119	H	1.167106	0.018760	0.744090
H120	H	1.667106	0.518760	1.244090
H121	H	1.055407	-0.445397	0.156594
H122	H	1.555407	0.054603	0.656594
Br123	Br	0.915589	0.374402	0.771169
Br124	Br	1.415589	0.874402	1.271169
H125	H	0.948284	0.328087	0.436746
H126	H	1.448284	0.828087	0.936746
H127	H	0.616939	0.174972	0.156591
H128	H	1.116939	0.674972	0.656591
Br129	Br	0.523744	0.172540	0.203447
Br130	Br	1.023744	0.672540	0.703447
H131	H	0.329128	0.167358	0.156597
H132	H	0.829128	0.667358	0.656597
H133	H	0.498439	0.171860	-0.156571
H134	H	0.998439	0.671860	0.343429
H135	H	0.786241	0.179500	-0.156571
H136	H	1.286241	0.679500	0.343429
