data_functionalizedCrystal
_audit_creation_method	'MofGen! by Chris Wilmer'
_symmetry_space_group_name_H-M	'P1'
_symmetry_Int_Tables_number	1
_symmetry_cell_setting	triclinic
loop_
_symmetry_equiv_pos_as_xyz
  x,y,z
_cell_length_a	11.792254
_cell_length_b	11.792241
_cell_length_c	8.140239
_cell_angle_alpha	89.996328
_cell_angle_beta	89.997328
_cell_angle_gamma	84.196007
loop_
_atom_site_label
_atom_site_type_symbol
_atom_site_fract_x
_atom_site_fract_y
_atom_site_fract_z
O1	O	1.506897	0.155635	-0.136613
O2	O	2.006897	0.655635	0.363387
O3	O	1.176558	0.171652	-0.136616
O4	O	1.676558	0.671652	0.363384
O5	O	1.349744	-0.001527	-0.136603
O6	O	1.849744	0.498473	0.363397
O7	O	1.333711	0.328814	-0.136626
O8	O	1.833711	0.828814	0.363374
O9	O	1.349735	-0.001529	0.136624
O10	O	1.849735	0.498471	0.636624
O11	O	1.176549	0.171650	0.136611
O12	O	1.676549	0.671650	0.636611
O13	O	1.506888	0.155633	0.136614
O14	O	2.006888	0.655633	0.636614
Zn15	Zn	1.341717	0.163641	0.179993
Zn16	Zn	1.841717	0.663641	0.679993
Zn17	Zn	1.341729	0.163644	-0.179995
Zn18	Zn	1.841729	0.663644	0.320005
O19	O	1.333702	0.328812	0.136601
O20	O	1.833702	0.828812	0.636601
C21	C	1.134263	0.170642	-0.000003
C22	C	1.634263	0.670642	0.499997
C23	C	1.008250	0.167622	-0.000004
C24	C	1.508250	0.667622	0.499996
C25	C	0.905913	0.165168	-0.000011
C26	C	1.405913	0.665168	0.499989
C27	C	0.777527	0.162100	-0.000012
C28	C	1.277527	0.662100	0.499988
C29	C	1.348732	-0.043819	0.000010
C30	C	1.848732	0.456181	0.500010
C31	C	1.345718	-0.169832	0.000008
C32	C	1.845718	0.330168	0.500008
C33	C	1.340175	-0.400545	-0.000019
C34	C	1.840175	0.099455	0.499981
C35	C	1.343255	-0.272160	-0.000004
C36	C	1.843255	0.227840	0.499996
C37	C	1.549183	0.156643	-0.000002
C38	C	2.049183	0.656643	0.499998
C39	C	1.675196	0.159663	-0.000012
C40	C	2.175196	0.659663	0.499988
C41	C	1.334714	0.371104	-0.000016
C42	C	1.834714	0.871104	0.499984
C43	C	1.337728	0.497118	-0.000025
C44	C	1.837728	0.997118	0.499975
N45	N	1.341716	0.163639	0.425676
N46	N	1.841716	0.663639	0.925676
N47	N	1.341739	0.163637	-0.425678
N48	N	1.841739	0.663637	0.074322
