data_functionalizedCrystal
_audit_creation_method	'MofGen! by Chris Wilmer'
_symmetry_space_group_name_H-M	'P1'
_symmetry_Int_Tables_number	1
_symmetry_cell_setting	triclinic
loop_
_symmetry_equiv_pos_as_xyz
  x,y,z
_cell_length_a	11.026607
_cell_length_b	10.489741
_cell_length_c	10.065875
_cell_angle_alpha	98.879541
_cell_angle_beta	79.302338
_cell_angle_gamma	96.562595
loop_
_atom_site_label
_atom_site_type_symbol
_atom_site_fract_x
_atom_site_fract_y
_atom_site_fract_z
O1	O	1.632468	0.520484	-0.113500
O2	O	1.278630	0.459543	-0.113501
O3	O	1.463599	0.306188	-0.113492
O4	O	1.447499	0.673839	-0.113509
O5	O	1.428329	0.335581	0.113495
O6	O	1.243360	0.488935	0.113486
O7	O	1.597198	0.549877	0.113487
Zn8	Zn	1.414679	0.524073	0.149526
Zn9	Zn	1.461149	0.485347	-0.149540
O10	O	1.412229	0.703232	0.113478
C11	C	1.215686	0.462996	-0.000008
C12	C	1.080679	0.429482	-0.000008
C13	C	1.007682	0.522021	-0.000013
C14	C	0.868146	0.487384	-0.000013
C15	C	1.444748	0.273085	0.000000
C16	C	1.441110	0.130655	-0.000002
C17	C	1.323420	0.036624	-0.000012
C18	C	1.361626	-0.028776	0.111904
C19	C	1.396427	-0.057724	-0.111887
C20	C	1.479350	0.067142	0.112007
C21	C	1.514151	0.038187	-0.111885
C22	C	1.552438	-0.027164	0.000059
C23	C	1.660143	0.546423	-0.000009
C24	C	1.795151	0.579937	-0.000018
C25	C	1.431080	0.736334	-0.000017
C26	C	1.434720	0.878763	-0.000024
N27	N	1.382974	0.550504	0.353630
N28	N	1.492864	0.458908	-0.353644
C29	C	1.450110	0.494533	0.421412
C30	C	1.425718	0.514887	0.578578
H31	H	1.048490	0.626890	-0.000010
H32	H	1.525641	0.431539	0.363091
H33	H	0.827348	0.382504	-0.000043
O34	O	1.582997	0.383672	0.577009
C35	C	1.640704	0.335613	0.670551
H36	H	1.575093	0.335963	0.772457
H37	H	1.664491	0.232402	0.629161
H38	H	1.729191	0.399609	0.685674
H39	H	0.835951	0.684814	-0.000014
H40	H	1.361318	-0.111898	-0.206513
H41	H	1.649281	-0.055275	0.000121
O42	O	1.335521	0.589868	0.648291
C43	C	1.246932	0.514987	0.730937
H44	H	1.290956	0.428695	0.752194
H45	H	1.212778	0.576922	0.831480
H46	H	1.165429	0.478793	0.675971
H47	H	1.307434	0.613486	0.411952
O48	O	1.031987	0.304358	-0.000246
C49	C	0.977636	0.264260	-0.117787
H50	H	1.021069	0.327262	-0.199955
H51	H	0.994120	0.158732	-0.157245
H52	H	0.873770	0.274359	-0.091207
O53	O	1.207905	0.070460	0.000355
C54	C	1.127933	0.036702	0.118561
H55	H	1.184692	0.029892	0.200627
H56	H	1.060068	0.113804	0.157620
H57	H	1.074369	-0.060883	0.093024
O58	O	1.590893	0.073582	-0.224903
C59	C	1.546847	0.009315	-0.342676
H60	H	1.443457	-0.020263	-0.315862
H61	H	1.563110	0.076967	-0.423888
H62	H	1.598355	-0.080725	-0.383511
H63	H	1.297126	-0.058490	0.206521
O64	O	1.521006	0.131457	0.225157
C65	C	1.440913	0.096615	0.342825
H66	H	1.388834	-0.001715	0.316748
H67	H	1.497379	0.090856	0.425462
H68	H	1.371764	0.172527	0.381415
