data_functionalizedCrystal
_audit_creation_method	'MofGen! by Chris Wilmer'
_symmetry_space_group_name_H-M	'P1'
_symmetry_Int_Tables_number	1
_symmetry_cell_setting	triclinic
loop_
_symmetry_equiv_pos_as_xyz
  x,y,z
_cell_length_a	19.902436
_cell_length_b	23.196402
_cell_length_c	23.196401
_cell_angle_alpha	60.008822
_cell_angle_beta	90.014541
_cell_angle_gamma	59.997492
loop_
_atom_site_label
_atom_site_type_symbol
_atom_site_fract_x
_atom_site_fract_y
_atom_site_fract_z
Zr1	Zr	0.647320	0.630934	-0.075582
O2	O	0.540006	0.751211	-0.167636
O3	O	0.680214	0.510665	-0.047366
O4	O	0.680185	0.630932	-0.167632
O5	O	0.540062	0.630942	0.047500
O6	O	0.790764	0.630920	-0.167624
O7	O	0.540035	0.630944	-0.047371
O8	O	0.790817	0.415785	0.047509
O9	O	0.540009	0.846078	-0.167632
O10	O	0.776771	0.560121	-0.035323
O11	O	0.694267	0.560129	0.035473
O12	O	0.694232	0.701728	-0.106124
O13	O	0.611728	0.701735	-0.035328
Zr14	Zr	0.823722	0.630913	0.075739
Zr15	Zr	0.823680	0.630916	-0.075570
Zr16	Zr	0.647362	0.630931	0.075727
Zr17	Zr	0.647324	0.782236	-0.075576
Zr18	Zr	0.823717	0.479611	0.075732
O19	O	0.790827	0.751182	0.047523
O20	O	0.790767	0.751186	-0.167619
O21	O	0.540066	0.751208	0.047506
O22	O	0.931036	0.510636	0.167793
O23	O	0.930976	0.510639	-0.047349
O24	O	0.680274	0.510661	0.167775
O25	O	0.930980	0.630904	-0.047344
O26	O	0.790857	0.630915	0.167788
O27	O	0.680278	0.630926	0.167781
O28	O	0.931007	0.630903	0.047528
O29	O	0.680192	0.846064	-0.167622
O30	O	0.790850	0.415783	0.167779
O31	O	0.931033	0.415769	0.167789
O32	O	0.931000	0.415770	0.047518
O33	O	0.540042	0.846076	-0.047362
O34	O	0.680225	0.846062	-0.047352
O35	O	0.776810	0.560119	0.106280
O36	O	0.859314	0.560112	0.035485
O37	O	0.776775	0.701718	-0.035316
O38	O	0.694271	0.701725	0.035479
C39	C	0.735515	0.441667	0.000070
C40	C	0.735513	0.377435	0.000067
C41	C	0.778573	0.347261	-0.036890
C42	C	0.778581	0.286900	-0.036884
C43	C	0.735513	0.256727	0.000069
C44	C	0.692450	0.286905	0.037035
C45	C	0.692450	0.347259	0.037034
C46	C	0.663357	0.194705	-0.005210
C47	C	0.663354	0.134356	-0.005214
C48	C	0.735514	0.070572	0.000076
C49	C	0.807675	0.067153	0.005357
C50	C	0.807675	0.127507	0.005356
C51	C	0.735508	0.191283	0.000075
C52	C	0.778587	-0.025053	-0.036876
C53	C	0.778597	-0.085419	-0.036866
C54	C	0.692458	-0.085407	0.037049
C55	C	0.692456	-0.025048	0.037042
C56	C	0.735518	0.005128	0.000076
C57	C	0.514921	0.630946	0.000063
C58	C	0.440051	0.630953	0.000058
C59	C	0.168049	0.630913	0.000085
C60	C	0.144473	0.720241	-0.044364
C61	C	0.222311	0.720297	-0.044610
C62	C	0.302992	0.630934	0.000072
C63	C	0.300571	0.586572	-0.032500
C64	C	0.222343	0.587144	-0.032829
C65	C	0.223361	0.585307	0.077126
C66	C	0.300282	0.586986	0.077007
C67	C	0.379259	0.630940	0.000064
C68	C	0.091784	0.630904	0.000090
C69	C	0.956121	0.630901	0.000094
C70	C	1.030991	0.630894	0.000099
C71	C	0.735468	0.630926	-0.189186
C72	C	0.735450	0.630927	-0.253421
C73	C	0.735527	0.820180	0.000086
C74	C	0.735529	0.884412	0.000089
C75	C	0.692370	0.704842	-0.320551
C76	C	0.692391	0.704843	-0.380906
C77	C	0.735481	0.630925	-0.374127
C78	C	0.778571	0.557001	-0.306984
C79	C	0.778555	0.557002	-0.246631
C80	C	0.729360	0.574298	-0.441447
C81	C	0.729369	0.574300	-0.501801
C82	C	0.735533	0.630919	-0.560275
C83	C	0.741670	0.687550	-0.558395
C84	C	0.741655	0.687551	-0.498041
C85	C	0.735503	0.630916	-0.439566
C86	C	0.692473	0.704840	-0.692852
C87	C	0.692500	0.704838	-0.753207
C88	C	0.778674	0.556994	-0.679282
C89	C	0.778653	0.556998	-0.618930
C90	C	0.735548	0.630923	-0.625719
C91	C	0.735574	0.630920	0.189343
C92	C	0.735592	0.630919	0.253577
C93	C	0.956115	0.441645	0.000086
C94	C	1.030982	0.377405	0.000088
C95	C	0.735568	0.441664	0.189335
C96	C	0.735583	0.377431	0.253566
C97	C	0.956168	0.441642	0.189350
C98	C	1.031053	0.377402	0.253587
C99	C	0.514874	0.820205	-0.189193
C100	C	0.439989	0.884445	-0.253430
C101	C	0.514927	0.820202	0.000071
C102	C	0.440059	0.884441	0.000069
C103	C	0.735474	0.820183	-0.189178
C104	C	0.735458	0.884415	-0.253410
C105	C	1.023054	0.347243	-0.036878
C106	C	1.093393	0.286891	-0.036890
C107	C	1.171660	0.256700	0.000069
C108	C	1.179587	0.286868	0.037036
C109	C	1.109248	0.347223	0.037043
C110	C	0.778678	0.347262	0.320697
C111	C	0.778690	0.286917	0.381056
C112	C	0.735611	0.256738	0.374282
C113	C	0.692512	0.286913	0.307144
C114	C	0.692496	0.347262	0.246787
C115	C	1.109294	0.347230	0.246799
C116	C	1.179663	0.286877	0.307151
C117	C	1.171791	0.256694	0.374290
C118	C	1.093542	0.286872	0.381077
C119	C	1.023174	0.347227	0.320726
C120	C	0.361748	0.914624	-0.246642
C121	C	0.291378	0.974995	-0.306994
C122	C	0.299251	1.005182	-0.374133
C123	C	0.377500	0.975001	-0.380920
C124	C	0.447868	0.914635	-0.320569
C125	C	0.447988	0.914610	0.037028
C126	C	0.377648	0.974978	0.037023
C127	C	0.299382	1.005172	0.000063
C128	C	0.291455	0.975001	-0.036901
C129	C	0.361793	0.914638	-0.036900
C130	C	0.778545	0.914575	-0.246613
C131	C	0.778546	0.974921	-0.306960
C132	C	0.735455	1.005110	-0.374103
C133	C	0.692368	0.974944	-0.380898
C134	C	0.692372	0.914595	-0.320552
H135	H	0.657388	-0.000477	0.067134
H136	H	0.813656	0.496816	-0.301468
H137	H	0.511710	0.890031	0.067131
C138	C	0.222015	1.071570	0.000072
N139	N	0.163745	1.121578	0.000084
C140	C	0.645005	1.008132	-0.454762
N141	N	0.609341	1.033123	-0.510398
H142	H	1.115720	0.371796	0.192136
C143	C	1.117983	0.380387	0.077719
N144	N	1.124569	0.405362	0.108359
H145	H	0.657383	0.371828	0.067129
H146	H	0.383901	0.999586	-0.435592
H147	H	0.511573	0.890063	-0.326104
C148	C	0.645096	0.380432	0.172944
N149	N	0.609393	0.405413	0.117326
H150	H	0.657375	0.765035	-0.698381
C151	C	1.249027	0.190302	0.000059
N152	N	1.307297	0.140289	0.000053
H153	H	1.086923	0.262336	-0.066992
H154	H	0.657282	0.890046	-0.326096
H155	H	0.746654	0.733660	-0.496513
C156	C	0.825957	0.881374	-0.172761
N157	N	0.861675	0.856367	-0.117138
H158	H	0.384118	0.999534	0.067127
H159	H	0.813757	0.371827	0.326227
H160	H	0.813640	0.371827	-0.066988
C161	C	0.645133	0.253703	0.299704
N162	N	0.609453	0.228684	0.294103
C163	C	0.645087	0.786155	-0.827055
N164	N	0.609367	0.847404	-0.882679
C165	C	0.722613	0.512009	-0.503864
N166	N	0.717525	0.465089	-0.505416
H167	H	0.221039	0.755280	-0.022932
C168	C	0.826114	0.253728	0.454901
N169	N	0.861836	0.228729	0.510519
C170	C	0.219893	0.767607	-0.121385
N171	N	0.218073	0.803239	-0.179214
C172	C	0.887058	-0.003009	0.011181
N173	N	0.946846	-0.055857	0.015567
H174	H	0.735631	0.207599	0.423434
C175	C	1.265688	0.253642	0.077693
N176	N	1.330542	0.228610	0.108321
H177	H	0.243285	0.519504	0.110400
H178	H	1.229095	0.207549	0.423426
C179	C	1.265729	0.253686	0.299669
N180	N	1.330552	0.228685	0.294032
C181	C	1.084895	0.253654	0.454937
N182	N	1.078385	0.228628	0.510570
C183	C	0.937110	0.380407	0.328205
N184	N	0.872288	0.405397	0.333843
H185	H	0.227721	0.999594	-0.066994
H186	H	0.355327	0.890076	-0.066995
H187	H	0.813760	0.496808	-0.673761
H188	H	0.355322	0.890050	-0.191979
C189	C	0.825943	1.008096	-0.299469
N190	N	0.861642	1.033082	-0.293825
C191	C	0.090544	0.767373	-0.120679
N192	N	0.049926	0.802870	-0.178161
C193	C	0.825951	0.253704	-0.077544
N194	N	0.861628	0.228703	-0.108169
C195	C	0.583979	0.138118	-0.011015
N196	N	0.524192	0.140951	-0.015379
H197	H	0.735458	1.054250	-0.423235
C198	C	0.205313	1.008183	-0.299512
N199	N	0.140490	1.033178	-0.293875
H200	H	0.866431	0.124719	0.009658
C201	C	0.825965	0.008134	-0.077531
N202	N	0.861653	0.033128	-0.108152
H203	H	0.813667	-0.109991	-0.066958
H204	H	0.657391	-0.109973	0.067137
H205	H	0.241947	1.054336	-0.423269
H206	H	0.604588	0.246648	-0.009533
H207	H	0.657384	0.262334	0.067123
C208	C	0.826036	0.475684	-0.545081
N209	N	0.861727	0.414435	-0.489457
H210	H	0.185785	0.618669	-0.089520
C211	C	0.091579	0.767606	-0.014994
N212	N	0.051740	0.803280	0.007133
H213	H	0.241697	0.521605	-0.002548
H214	H	0.357391	0.520866	-0.001683
H215	H	0.302107	0.617383	-0.088652
H216	H	0.299913	0.619331	0.101340
C217	C	0.174320	0.623932	0.113879
N218	N	0.137377	0.653033	0.141554
H219	H	0.357750	0.521790	0.112913
H220	H	0.657307	0.765035	-0.435574
C221	C	0.644963	0.786163	-0.328024
N222	N	0.609259	0.847414	-0.333652
H223	H	0.746685	0.733657	-0.606007
H224	H	0.813637	0.496810	-0.191969
C225	C	0.722576	0.512010	-0.377128
N226	N	0.717466	0.465097	-0.328685
H227	H	0.959332	0.371824	-0.066982
