data_functionalizedCrystal
_audit_creation_method	'MofGen! by Chris Wilmer'
_symmetry_space_group_name_H-M	'P1'
_symmetry_Int_Tables_number	1
_symmetry_cell_setting	triclinic
loop_
_symmetry_equiv_pos_as_xyz
  x,y,z
_cell_length_a	15.021413
_cell_length_b	8.559649
_cell_length_c	8.559649
_cell_angle_alpha	110.221336
_cell_angle_beta	89.996524
_cell_angle_gamma	89.993953
loop_
_atom_site_label
_atom_site_type_symbol
_atom_site_fract_x
_atom_site_fract_y
_atom_site_fract_z
O1	O	0.074018	-2.126892	-0.055053
O2	O	0.074022	-1.651407	0.028728
O3	O	0.074019	-1.931040	-0.250905
O4	O	0.074021	-1.847259	0.224580
O5	O	-0.074046	-1.930999	-0.250873
O6	O	-0.074043	-1.651366	0.028760
O7	O	-0.074046	-2.126850	-0.055022
Zn8	Zn	-0.097553	-1.889101	-0.013126
Zn9	Zn	0.097528	-1.889156	-0.013168
O10	O	-0.074043	-1.847217	0.224611
C11	C	-0.000010	-1.591077	0.035093
C12	C	-0.000009	-1.411378	0.053992
N13	N	-0.230690	-1.889076	-0.013100
C14	C	-0.000012	-1.937369	-0.311198
C15	C	-0.000007	-1.956268	-0.490898
C16	C	-0.529704	-1.760617	0.116985
C17	C	-0.470345	-1.745733	-0.025130
C18	C	-0.587727	-1.889155	-0.013175
C19	C	-0.470344	-1.903925	0.128983
C20	C	-0.412303	-1.889111	-0.013130
C21	C	-0.529675	-1.874207	-0.155355
C22	C	-0.529679	-2.032451	-0.001155
C23	C	-0.470347	-2.017641	-0.143384
C24	C	-0.688785	-1.889176	-0.013199
C25	C	-0.311248	-1.889093	-0.013123
N26	N	0.230666	-1.889196	-0.013209
C27	C	-0.000013	-2.187180	-0.061387
C28	C	-0.000008	-2.366879	-0.080286
C29	C	-0.000011	-1.840889	0.284904
C30	C	-0.000010	-1.821990	0.464604
H31	H	-0.444277	-1.624535	-0.035286
H32	H	-0.000003	-1.311990	0.183420
H33	H	-0.444451	-2.126341	-0.253543
H34	H	-0.555766	-1.651885	0.226935
H35	H	-0.444299	-1.916459	0.249186
O36	O	-0.560778	-1.859037	-0.298640
C37	C	-0.654634	-1.859216	-0.296923
H38	H	-0.679219	-1.818748	-0.162789
H39	H	-0.680023	-1.989968	-0.368553
C40	C	-0.659458	-1.787156	-0.544223
C41	C	-0.689653	-1.737440	-0.379477
H42	H	-0.681061	-1.712046	-0.595153
H43	H	-0.596226	-1.787041	-0.545385
H44	H	-0.680618	-1.896117	-0.603893
H45	H	-0.668484	-1.628490	-0.319805
H46	H	-0.752883	-1.737533	-0.378307
H47	H	-0.000012	-1.692570	-0.436018
H48	H	-0.555764	-2.153604	0.009061
H49	H	-0.000004	-1.466258	-0.209705
H50	H	-0.000015	-2.085696	-0.590286
