data_functionalizedCrystal
_audit_creation_method	'MofGen! by Chris Wilmer'
_symmetry_space_group_name_H-M	'P1'
_symmetry_Int_Tables_number	1
_symmetry_cell_setting	triclinic
loop_
_symmetry_equiv_pos_as_xyz
  x,y,z
_cell_length_a	19.121063
_cell_length_b	19.121102
_cell_length_c	21.395356
_cell_angle_alpha	87.537776
_cell_angle_beta	92.411537
_cell_angle_gamma	90.126902
loop_
_atom_site_label
_atom_site_type_symbol
_atom_site_fract_x
_atom_site_fract_y
_atom_site_fract_z
Zn1	Zn	-0.324921	1.059882	-0.406899
Zn2	Zn	0.008412	1.393215	-0.073566
Zn3	Zn	0.341746	1.726549	0.259768
Zn4	Zn	-0.442155	1.054780	-0.306385
Zn5	Zn	-0.108822	1.388114	0.026948
Zn6	Zn	0.224512	1.721447	0.360282
Zn7	Zn	-0.319930	0.942636	-0.297490
Zn8	Zn	0.013403	1.275969	0.035844
Zn9	Zn	0.346737	1.609302	0.369177
Zn10	Zn	-0.437111	0.937607	-0.406480
Zn11	Zn	-0.103778	1.270940	-0.073146
Zn12	Zn	0.229555	1.604274	0.260187
O13	O	-0.381029	0.998726	-0.354313
O14	O	-0.047696	1.332060	-0.020980
O15	O	0.285637	1.665393	0.312353
O16	O	-0.344672	1.157311	-0.397464
O17	O	-0.011339	1.490644	-0.064131
O18	O	0.321995	1.823977	0.269203
O19	O	-0.425964	1.039873	-0.217527
O20	O	-0.092630	1.373207	0.115807
O21	O	0.240703	1.706540	0.449140
O22	O	-0.222489	0.962429	-0.308456
O23	O	0.110845	1.295762	0.024877
O24	O	0.444178	1.629095	0.358211
O25	O	-0.430803	1.153562	-0.323617
O26	O	-0.097470	1.486896	0.009717
O27	O	0.235863	1.820229	0.343050
O28	O	-0.226155	1.048569	-0.388839
O29	O	0.107178	1.381902	-0.055505
O30	O	0.440511	1.715236	0.277828
O31	O	-0.336166	0.957481	-0.210992
O32	O	-0.002832	1.290815	0.122342
O33	O	0.330501	1.624148	0.455675
O34	O	-0.331275	0.843863	-0.308049
O35	O	0.002058	1.177197	0.025284
O36	O	0.335392	1.510530	0.358617
O37	O	-0.422207	0.953858	-0.494214
O38	O	-0.088874	1.287191	-0.160880
O39	O	0.244460	1.620524	0.172453
O40	O	-0.417367	0.840169	-0.388124
O41	O	-0.084034	1.173502	-0.054791
O42	O	0.249299	1.506835	0.278543
O43	O	-0.339781	1.043693	-0.494522
O44	O	-0.006448	1.377026	-0.161188
O45	O	0.326885	1.710359	0.172145
O46	O	-0.539590	1.034997	-0.323210
O47	O	-0.206256	1.368330	0.010123
O48	O	0.127077	1.701664	0.343457
O49	O	-0.535884	0.948911	-0.396749
O50	O	-0.202551	1.282244	-0.063416
O51	O	0.130783	1.615577	0.269917
C52	C	-0.373233	0.816578	-0.347076
C53	C	-0.039899	1.149912	-0.013743
C54	C	0.293434	1.483245	0.319590
C55	C	-0.369914	0.738654	-0.343996
C56	C	-0.036581	1.071987	-0.010662
C57	C	0.296752	1.405321	0.322671
C58	C	-0.413247	0.700137	-0.384178
C59	C	-0.079913	1.033470	-0.050845
C60	C	0.253420	1.366803	0.282488
C61	C	-0.410119	0.626919	-0.381287
C62	C	-0.076786	0.960252	-0.047953
C63	C	0.256547	1.293586	0.285380
C64	C	-0.363663	0.592220	-0.338208
C65	C	-0.030329	0.925553	-0.004875
C66	C	0.303004	1.258886	0.328458
C67	C	-0.320325	0.630742	-0.298024
C68	C	0.013008	0.964075	0.035309
C69	C	0.346341	1.297409	0.368643
C70	C	-0.323450	0.703959	-0.300919
C71	C	0.009884	1.037292	0.032414
C72	C	0.343217	1.370625	0.365747
C73	C	-0.351980	0.371248	-0.327386
C74	C	-0.018647	0.704582	0.005947
C75	C	0.314687	1.037915	0.339280
C76	C	-0.348860	0.298026	-0.324493
C77	C	-0.015527	0.631360	0.008841
C78	C	0.317806	0.964693	0.342174
C79	C	-0.438654	0.294208	-0.407756
C80	C	-0.105320	0.627542	-0.074423
C81	C	0.228013	0.960875	0.258910
C82	C	-0.441777	0.367426	-0.410645
C83	C	-0.108443	0.700760	-0.077312
C84	C	0.224890	1.034093	0.256021
C85	C	-0.398437	0.405943	-0.370463
C86	C	-0.065104	0.739276	-0.037130
C87	C	0.268230	1.072609	0.296203
C88	C	-0.360466	0.517379	-0.335250
C89	C	-0.027133	0.850712	-0.001917
C90	C	0.306200	1.184046	0.331417
C91	C	-0.401630	0.480782	-0.373425
C92	C	-0.068297	0.814115	-0.040092
C93	C	0.265036	1.147448	0.293242
C94	C	-0.563175	0.990874	-0.360914
C95	C	-0.229841	1.324207	-0.027580
C96	C	0.103492	1.657540	0.305753
C97	C	-0.641100	0.987578	-0.363761
C98	C	-0.307767	1.320912	-0.030427
C99	C	0.025567	1.654245	0.302906
C100	C	-0.679617	1.030886	-0.326845
C101	C	-0.346284	1.364219	0.006488
C102	C	-0.012950	1.697552	0.339822
C103	C	-0.752836	1.027791	-0.329527
C104	C	-0.419503	1.361124	0.003807
C105	C	-0.086170	1.694457	0.337140
C106	C	-0.787537	0.981384	-0.369121
C107	C	-0.454204	1.314718	-0.035788
C108	C	-0.120870	1.648051	0.297546
C109	C	-0.749015	0.938075	-0.406041
C110	C	-0.415681	1.271408	-0.072708
C111	C	-0.082348	1.604742	0.260626
C112	C	-0.675797	0.941174	-0.403362
C113	C	-0.342464	1.274507	-0.070029
C114	C	-0.009130	1.607841	0.263304
C115	C	-1.008512	0.969786	-0.379126
C116	C	-0.675178	1.303119	-0.045792
C117	C	-0.341845	1.636453	0.287541
C118	C	-1.081734	0.966689	-0.381800
C119	C	-0.748401	1.300022	-0.048467
C120	C	-0.415068	1.633356	0.284866
C121	C	-1.085551	1.056406	-0.305286
C122	C	-0.752218	1.389739	0.028047
C123	C	-0.418884	1.723073	0.361380
C124	C	-1.012332	1.059498	-0.302608
C125	C	-0.678998	1.392831	0.030725
C126	C	-0.345665	1.726164	0.364058
C127	C	-0.973816	1.016191	-0.339531
C128	C	-0.640483	1.349525	-0.006197
C129	C	-0.307149	1.682858	0.327136
C130	C	-0.862379	0.978218	-0.371862
C131	C	-0.529045	1.311551	-0.038528
C132	C	-0.195712	1.644885	0.294805
C133	C	-0.898976	1.019362	-0.336793
C134	C	-0.565642	1.352695	-0.003460
C135	C	-0.232309	1.686028	0.329874
C136	C	-0.198174	1.006629	-0.347702
C137	C	0.135160	1.339962	-0.014369
C138	C	0.468493	1.673295	0.318965
C139	C	-0.120251	1.009996	-0.344884
C140	C	0.213082	1.343330	-0.011551
C141	C	0.546415	1.676663	0.321782
C142	C	-0.380988	0.998783	-0.517737
C143	C	-0.047655	1.332117	-0.184404
C144	C	0.285678	1.665450	0.148929
C145	C	-0.380971	0.998808	-0.587379
C146	C	-0.047638	1.332141	-0.254046
C147	C	0.285696	1.665474	0.079288
C148	C	-0.388857	1.181585	-0.361579
C149	C	-0.055524	1.514919	-0.028246
C150	C	0.277810	1.848252	0.305087
C151	C	-0.392193	1.259509	-0.364675
C152	C	-0.058859	1.592842	-0.031342
C153	C	0.274474	1.926176	0.301991
C154	C	-0.334208	0.955918	-0.616680
C155	C	-0.000875	1.289252	-0.283346
C156	C	0.332458	1.622585	0.049987
C157	C	-0.334195	0.955916	-0.682114
C158	C	-0.000862	1.289250	-0.348781
C159	C	0.332471	1.622583	-0.015448
C160	C	-0.380938	0.998817	-0.718246
C161	C	-0.047605	1.332150	-0.384913
C162	C	0.285729	1.665483	-0.051580
C163	C	-0.427709	1.041709	-0.688938
C164	C	-0.094376	1.375042	-0.355605
C165	C	0.238958	1.708375	-0.022272
C166	C	-0.427726	1.041704	-0.623505
C167	C	-0.094392	1.375038	-0.290171
C168	C	0.238941	1.708371	0.043162
C169	C	-0.389149	1.061748	-0.824637
C170	C	-0.055815	1.395081	-0.491303
C171	C	0.277518	1.728415	-0.157970
C172	C	-0.389127	1.061754	-0.890069
C173	C	-0.055794	1.395087	-0.556736
C174	C	0.277539	1.728421	-0.223403
C175	C	-0.380891	0.998830	-0.920066
C176	C	-0.047558	1.332164	-0.586733
C177	C	0.285776	1.665497	-0.253399
C178	C	-0.372661	0.935899	-0.884622
C179	C	-0.039328	1.269233	-0.551288
C180	C	0.294005	1.602566	-0.217955
C181	C	-0.372678	0.935895	-0.819188
C182	C	-0.039344	1.269228	-0.485855
C183	C	0.293989	1.602562	-0.152521
C184	C	-0.380925	0.998826	-0.789199
C185	C	-0.047592	1.332159	-0.455865
C186	C	0.285741	1.665493	-0.122532
C187	C	-0.334112	0.955935	-1.020318
C188	C	-0.000778	1.289269	-0.686985
C189	C	0.332555	1.622602	-0.353652
C190	C	-0.334104	0.955932	-1.085755
C191	C	-0.000770	1.289265	-0.752421
C192	C	0.332563	1.622599	-0.419088
C193	C	-0.427614	1.041731	-1.092577
C194	C	-0.094281	1.375064	-0.759244
C195	C	0.239053	1.708398	-0.425911
C196	C	-0.427626	1.041728	-1.027142
C197	C	-0.094292	1.375061	-0.693809
C198	C	0.239041	1.708394	-0.360476
C199	C	-0.380871	0.998831	-0.991017
C200	C	-0.047537	1.332164	-0.657683
C201	C	0.285796	1.665498	-0.324350
C202	C	-0.381022	0.998712	-0.191525
C203	C	-0.047688	1.332045	0.141808
C204	C	0.285645	1.665379	0.475142
C205	C	-0.380847	0.998832	-0.121882
C206	C	-0.047514	1.332165	0.211451
C207	C	0.285819	1.665499	0.544785
H208	H	-0.473937	0.262841	-0.440471
H209	H	-0.140604	0.596174	-0.107138
H210	H	0.192729	0.929507	0.226195
H211	H	-0.282496	0.602484	-0.262951
H212	H	0.050837	0.935817	0.070382
H213	H	0.384170	1.269151	0.403715
H214	H	-0.296139	0.920986	-0.587270
H215	H	0.037194	1.254319	-0.253937
H216	H	0.370527	1.587652	0.079397
C217	C	-1.119904	0.915640	-0.425363
C218	C	-0.786570	1.248974	-0.092030
C219	C	-0.453237	1.582307	0.241303
N220	N	-1.148653	0.877193	-0.458174
N221	N	-0.815320	1.210527	-0.124841
N222	N	-0.481986	1.543860	0.208493
C223	C	-0.398214	1.130973	-0.791647
C224	C	-0.064880	1.464306	-0.458314
C225	C	0.268453	1.797640	-0.124981
N226	N	-0.405043	1.183111	-0.766801
N227	N	-0.071709	1.516445	-0.433467
N228	N	0.261624	1.849778	-0.100134
H229	H	-0.870721	1.057149	-0.304558
H230	H	-0.537387	1.390482	0.028776
H231	H	-0.204054	1.723815	0.362109
C232	C	-0.304309	0.413606	-0.283181
C233	C	0.029024	0.746940	0.050153
C234	C	0.362358	1.080273	0.383486
N235	N	-0.268402	0.445513	-0.249881
N236	N	0.064931	0.778846	0.083452
N237	N	0.398265	1.112180	0.416785
H238	H	-0.311022	0.269777	-0.289417
H239	H	0.022312	0.603110	0.043916
H240	H	0.355645	0.936443	0.377250
H241	H	-0.465671	1.076663	-1.121995
H242	H	-0.132338	1.409996	-0.788662
H243	H	0.200995	1.743329	-0.455329
C244	C	-0.492886	0.405590	-0.458032
C245	C	-0.159553	0.738923	-0.124698
C246	C	0.173781	1.072257	0.208635
N247	N	-0.531385	0.434335	-0.493721
N248	N	-0.198052	0.767668	-0.160388
N249	N	0.135281	1.101001	0.172945
C250	C	-0.363632	0.866672	-0.780202
C251	C	-0.030299	1.200005	-0.446869
C252	C	0.303034	1.533338	-0.113535
N253	N	-0.356823	0.814531	-0.750838
N254	N	-0.023489	1.147864	-0.417505
N255	N	0.309844	1.481198	-0.084171
C256	C	-0.479045	1.088935	-0.994911
C257	C	-0.145712	1.422269	-0.661577
C258	C	0.187621	1.755602	-0.328244
N259	N	-0.517772	1.124501	-0.970634
N260	N	-0.184438	1.457834	-0.637301
N261	N	0.148895	1.791167	-0.303967
C262	C	-0.479156	1.088903	-0.591273
C263	C	-0.145823	1.422236	-0.257940
C264	C	0.187510	1.755570	0.075393
N265	N	-0.517889	1.124460	-0.566996
N266	N	-0.184556	1.457793	-0.233662
N267	N	0.148777	1.791127	0.099671
H268	H	-0.890640	0.940432	-0.404098
H269	H	-0.557307	1.273766	-0.070765
H270	H	-0.223973	1.607099	0.262569
C271	C	-0.633429	0.893533	-0.443973
C272	C	-0.300095	1.226866	-0.110640
C273	C	0.033238	1.560199	0.222694
N274	N	-0.601518	0.857649	-0.474564
N275	N	-0.268184	1.190983	-0.141231
N276	N	0.065149	1.524316	0.192102
C277	C	-0.457802	0.584553	-0.425479
C278	C	-0.124469	0.917886	-0.092146
C279	C	0.208865	1.251219	0.241187
N280	N	-0.493723	0.552642	-0.458764
N281	N	-0.160390	0.885976	-0.125431
N282	N	0.172943	1.219309	0.207903
C283	C	-0.275782	0.746327	-0.256714
C284	C	0.057551	1.079661	0.076620
C285	C	0.390885	1.412994	0.409953
N286	N	-0.239876	0.778238	-0.223418
N287	N	0.093457	1.111572	0.109916
N288	N	0.426791	1.444905	0.443249
H289	H	-0.651369	1.068672	-0.294600
H290	H	-0.318035	1.402005	0.038733
H291	H	0.015298	1.735338	0.372067
C292	C	-0.363607	0.866677	-0.917613
C293	C	-0.030274	1.200010	-0.584280
C294	C	0.303059	1.533343	-0.250946
N295	N	-0.356789	0.814540	-0.942465
N296	N	-0.023456	1.147873	-0.609132
N297	N	0.309878	1.481207	-0.275799
H298	H	-0.439452	0.509037	-0.408502
H299	H	-0.106119	0.842371	-0.075168
H300	H	0.227215	1.175704	0.258165
C301	C	-0.282656	0.908750	-1.117985
C302	C	0.050677	1.242083	-0.784651
C303	C	0.384010	1.575417	-0.451318
N304	N	-0.243903	0.873214	-1.142261
N305	N	0.089430	1.206547	-0.808928
N306	N	0.422764	1.539880	-0.475594
C307	C	-0.795202	1.075428	-0.288912
C308	C	-0.461868	1.408762	0.044422
C309	C	-0.128535	1.742095	0.377755
N310	N	-0.827111	1.111310	-0.258318
N311	N	-0.493777	1.444643	0.075015
N312	N	-0.160444	1.777977	0.408349
C313	C	-0.282748	0.908736	-0.714352
C314	C	0.050585	1.242070	-0.381019
C315	C	0.383919	1.575403	-0.047685
N316	N	-0.243996	0.873202	-0.738632
N317	N	0.089337	1.206535	-0.405298
N318	N	0.422671	1.539868	-0.071965
H319	H	-0.296042	0.921006	-0.990903
H320	H	0.037292	1.254339	-0.657570
H321	H	0.370625	1.587672	-0.324237
C322	C	-0.464353	0.738299	-0.431568
C323	C	-0.131020	1.071633	-0.098235
C324	C	0.202313	1.404966	0.235099
N325	N	-0.502846	0.767041	-0.467265
N326	N	-0.169513	1.100375	-0.133932
N327	N	0.163820	1.433708	0.199402
C328	C	-0.787188	0.887025	-0.449593
C329	C	-0.453855	1.220358	-0.116260
C330	C	-0.120521	1.553692	0.217073
N331	N	-0.815939	0.848570	-0.482395
N332	N	-0.482606	1.181903	-0.149062
N333	N	-0.149273	1.515236	0.184272
H334	H	-0.395825	1.112996	-0.918923
H335	H	-0.062492	1.446329	-0.585590
H336	H	0.270841	1.779663	-0.252256
C337	C	-0.974166	1.110531	-0.259035
C338	C	-0.640832	1.443864	0.074299
C339	C	-0.307499	1.777197	0.407632
N340	N	-0.945419	1.148961	-0.226206
N341	N	-0.612085	1.482294	0.107127
N342	N	-0.278752	1.815628	0.440460
H343	H	-0.465767	1.076638	-0.718361
H344	H	-0.132434	1.409972	-0.385028
H345	H	0.200899	1.743305	-0.051694
H346	H	-0.977158	0.934523	-0.409188
H347	H	-0.643824	1.267856	-0.075855
H348	H	-0.310491	1.601190	0.257479
C349	C	-1.127924	1.104042	-0.264677
C350	C	-0.794591	1.437375	0.068657
C351	C	-0.461257	1.770709	0.401990
N352	N	-1.159840	1.139925	-0.234089
N353	N	-0.826506	1.473258	0.099244
N354	N	-0.493173	1.806592	0.432578
H355	H	-0.322643	0.489119	-0.300175
H356	H	0.010691	0.822452	0.033159
H357	H	0.344024	1.155785	0.366492
