data_functionalizedCrystal
_audit_creation_method	'MofGen! by Chris Wilmer'
_symmetry_space_group_name_H-M	'P1'
_symmetry_Int_Tables_number	1
_symmetry_cell_setting	triclinic
loop_
_symmetry_equiv_pos_as_xyz
  x,y,z
_cell_length_a	14.044220
_cell_length_b	11.792254
_cell_length_c	10.268362
_cell_angle_alpha	89.994545
_cell_angle_beta	90.000433
_cell_angle_gamma	88.693738
loop_
_atom_site_label
_atom_site_type_symbol
_atom_site_fract_x
_atom_site_fract_y
_atom_site_fract_z
O1	O	1.259124	0.273770	-0.108163
O2	O	0.983104	0.263891	-0.108196
O3	O	1.127806	0.104289	-0.108169
O4	O	1.114422	0.433372	-0.108189
O5	O	1.127793	0.104281	0.108431
O6	O	0.983091	0.263883	0.108405
O7	O	1.259111	0.273762	0.108438
Cu8	Cu	1.121100	0.268821	0.128199
Cu9	Cu	1.121115	0.268831	-0.127957
O10	O	1.114409	0.433364	0.108411
C11	C	0.947761	0.259563	0.000100
C12	C	0.842468	0.246664	0.000088
C13	C	1.126956	0.061915	0.000130
C14	C	1.124433	-0.064335	0.000129
C15	C	1.122383	-0.166864	0.000124
C16	C	1.119819	-0.295491	0.000112
C17	C	0.649685	0.223082	0.000115
C18	C	0.592525	0.314566	0.000115
C19	C	0.485254	0.301445	0.000130
C20	C	0.756966	0.236201	0.000100
C21	C	1.294455	0.278090	0.000139
C22	C	1.399747	0.290989	0.000142
C23	C	1.115259	0.475738	0.000108
C24	C	1.117782	0.601988	0.000101
N25	N	1.121096	0.268814	0.308364
N26	N	1.121126	0.268830	-0.308123
C27	C	1.121110	0.268829	0.574035
C28	C	1.121099	0.268824	0.426197
H29	H	0.624152	0.402743	0.000103
C30	C	0.606965	0.103970	0.000114
H31	H	0.539425	0.110668	0.000109
H32	H	0.627551	0.063868	0.075641
H33	H	0.627544	0.063897	-0.075435
