data_functionalizedCrystal
_audit_creation_method	'MofGen! by Chris Wilmer'
_symmetry_space_group_name_H-M	'P1'
_symmetry_Int_Tables_number	1
_symmetry_cell_setting	triclinic
loop_
_symmetry_equiv_pos_as_xyz
  x,y,z
_cell_length_a	6.817900
_cell_length_b	17.078472
_cell_length_c	14.858340
_cell_angle_alpha	96.032736
_cell_angle_beta	104.519754
_cell_angle_gamma	99.306020
loop_
_atom_site_label
_atom_site_type_symbol
_atom_site_fract_x
_atom_site_fract_y
_atom_site_fract_z
V1	V	-4.017344	-0.110273	-0.289867
O2	O	-4.026477	0.004778	-0.284445
O3	O	-3.948306	-0.218152	-0.287792
O4	O	-3.974244	-0.108805	-0.416329
O5	O	-4.000359	-0.105325	-0.155017
V6	V	-4.502960	-0.096485	-0.273749
O7	O	-4.274012	-0.140519	-0.325222
O8	O	-4.696489	-0.066238	-0.238393
O9	O	-4.348792	0.011395	-0.275824
O10	O	-4.611224	-0.211536	-0.279170
O11	O	-4.637342	-0.101432	-0.408598
O12	O	-4.322854	-0.097952	-0.147286
C13	C	-3.788114	-0.244444	-0.283195
C14	C	-3.812989	-0.332638	-0.282341
C15	C	-3.821200	-0.104960	-0.447157
C16	C	-3.867107	-0.104474	-0.550540
C17	C	-4.006199	-0.378120	-0.286576
C18	C	-4.029562	-0.460989	-0.285779
C19	C	-3.859711	-0.498372	-0.280742
C20	C	-3.666487	-0.452883	-0.276510
C21	C	-3.643129	-0.370018	-0.277313
C22	C	-3.910106	-0.745771	-0.277849
C23	C	-3.933478	-0.828642	-0.277043
C24	C	-4.296553	-0.836742	-0.286314
C25	C	-4.273175	-0.753874	-0.287111
C26	C	-4.079958	-0.708393	-0.282884
N27	N	-3.883586	-0.583076	-0.279925
N28	N	-4.056088	-0.623691	-0.283708
C29	C	-3.904387	-0.104078	-0.634499
C30	C	-3.951172	-0.103578	-0.739829
C31	C	-3.988477	-0.103179	-0.823781
C32	C	-4.035266	-0.102681	-0.929117
C33	C	-4.172324	0.037682	-0.280418
C34	C	-4.126687	0.125875	-0.281277
C35	C	-4.139239	-0.101800	-0.116454
C36	C	-4.072571	-0.102283	-0.013069
H37	H	-4.186891	-0.498018	-0.289229
H38	H	-3.752777	-0.708749	-0.274401
H39	H	-3.528195	-0.483328	-0.272414
H40	H	-4.144511	-0.347688	-0.290669
N41	N	-4.446727	-0.715716	-0.292278
N42	N	-4.602929	-0.736575	-0.361149
H43	H	-4.725512	-0.709631	-0.364799
N44	N	-3.445748	-0.323563	-0.272970
N45	N	-3.294758	-0.321229	-0.203922
H46	H	-3.155351	-0.288422	-0.200855
N47	N	-4.493928	-0.883186	-0.290635
N48	N	-4.580826	-0.867765	-0.227984
H49	H	-4.720235	-0.900565	-0.231039
H50	H	-3.795164	-0.859079	-0.272963
