data_functionalizedCrystal
_audit_creation_method	'MofGen! by Chris Wilmer'
_symmetry_space_group_name_H-M	'P1'
_symmetry_Int_Tables_number	1
_symmetry_cell_setting	triclinic
loop_
_symmetry_equiv_pos_as_xyz
  x,y,z
_cell_length_a	13.032951
_cell_length_b	13.033615
_cell_length_c	13.032268
_cell_angle_alpha	89.080892
_cell_angle_beta	89.114265
_cell_angle_gamma	90.906029
loop_
_atom_site_label
_atom_site_type_symbol
_atom_site_fract_x
_atom_site_fract_y
_atom_site_fract_z
Zn1	Zn	-1.423952	-0.684124	-0.684588
Zn2	Zn	-0.923952	-0.184124	-0.184588
Zn3	Zn	-1.429256	-0.835039	-0.491368
Zn4	Zn	-0.929256	-0.335039	0.008632
Zn5	Zn	-1.278421	-0.641803	-0.496781
Zn6	Zn	-0.778421	-0.141803	0.003219
Zn7	Zn	-1.236102	-0.829553	-0.642259
Zn8	Zn	-0.736102	-0.329553	-0.142259
O9	O	-1.341933	-0.747630	-0.578749
O10	O	-0.841933	-0.247630	-0.078749
O11	O	-1.566397	-0.724150	-0.674406
O12	O	-1.066397	-0.224150	-0.174406
O13	O	-1.429177	-0.793990	-0.350339
O14	O	-0.929177	-0.293990	0.149661
O15	O	-1.313218	-0.505685	-0.541674
O16	O	-0.813218	-0.005685	-0.041674
O17	O	-1.570293	-0.835027	-0.532448
O18	O	-1.070293	-0.335027	-0.032448
O19	O	-1.420139	-0.536778	-0.679655
O20	O	-0.920139	-0.036778	-0.179655
O21	O	-1.318360	-0.652021	-0.354316
O22	O	-0.818360	-0.152021	0.145684
O23	O	-1.131067	-0.646702	-0.500630
O24	O	-0.631067	-0.146702	-0.000630
O25	O	-1.241090	-0.825677	-0.789621
O26	O	-0.741090	-0.325677	-0.289621
O27	O	-1.099975	-0.784640	-0.607513
O28	O	-0.599975	-0.284640	-0.107513
O29	O	-1.379103	-0.718831	-0.820719
O30	O	-0.879103	-0.218831	-0.320719
O31	O	-1.388142	-0.976043	-0.491404
O32	O	-0.888142	-0.476043	0.008596
O33	O	-1.246233	-0.972013	-0.602263
O34	O	-0.746233	-0.472013	-0.102263
C35	C	-1.078769	-0.710484	-0.550066
C36	C	-0.578769	-0.210484	-0.050066
C37	C	-0.966180	-0.694620	-0.537816
C38	C	-0.466180	-0.194620	-0.037816
C39	C	-1.313195	-1.010784	-0.541678
C40	C	-0.813195	-0.510784	-0.041678
C41	C	-1.300989	-1.123379	-0.525863
C42	C	-0.800989	-0.623379	-0.025863
C43	C	-1.304785	-0.776363	-0.842951
C44	C	-0.804785	-0.276363	-0.342951
C45	C	-1.288954	-0.788607	-0.955538
C46	C	-0.788954	-0.288607	-0.455538
C47	C	-0.900631	-0.755885	-0.585132
C48	C	-0.400631	-0.255885	-0.085132
C49	C	-0.784264	-0.739490	-0.572472
C50	C	-0.284264	-0.239490	-0.072472
C51	C	-0.606126	-0.784909	-0.607539
C52	C	-0.106126	-0.284909	-0.107539
C53	C	-0.718715	-0.800764	-0.619794
C54	C	-0.218715	-0.300764	-0.119794
C55	C	-1.370807	-0.483455	-0.615990
C56	C	-0.870807	0.016545	-0.115990
C57	C	-1.383112	-0.370879	-0.631860
C58	C	-0.883112	0.129121	-0.131860
C59	C	-1.335695	-0.305305	-0.570665
C60	C	-0.835695	0.194695	-0.070665
C61	C	-1.348412	-0.188952	-0.587066
C62	C	-0.848412	0.311048	-0.087066
C63	C	-1.350183	-0.741201	-1.021120
C64	C	-0.850183	-0.241201	-0.521120
C65	C	-1.333823	-0.753855	-1.137485
C66	C	-0.833823	-0.253855	-0.637485
C67	C	-1.379003	-0.718944	-0.315591
C68	C	-0.879003	-0.218944	0.184409
C69	C	-1.395060	-0.706442	-0.203066
C70	C	-0.895060	-0.206442	0.296934
H71	H	-0.930661	-0.820471	-0.635017
H72	H	-0.430661	-0.320471	-0.135017
H73	H	-1.250968	-0.153371	-0.461330
H74	H	-0.750968	0.346629	0.038670
H75	H	-0.754239	-0.674893	-0.522592
H76	H	-0.254239	-0.174893	-0.022592
C77	C	-1.450675	-0.330357	-0.719043
C78	C	-0.950675	0.169643	-0.219043
N79	N	-1.501567	-0.299837	-0.784711
N80	N	-1.001567	0.200163	-0.284711
C81	C	-1.415978	-0.148435	-0.674254
C82	C	-0.915978	0.351565	-0.174254
N83	N	-1.466870	-0.117915	-0.739921
N84	N	-0.966870	0.382085	-0.239921
H85	H	-1.285682	-0.335304	-0.506135
H86	H	-0.785682	0.164696	-0.006135
H87	H	-1.269281	-0.803805	-1.167482
H88	H	-0.769281	-0.303805	-0.667482
C89	C	-0.759272	-0.888029	-0.687188
C90	C	-0.259272	-0.388029	-0.187188
N91	N	-0.789820	-0.953756	-0.737946
N92	N	-0.289820	-0.453756	-0.237946
C93	C	-0.925616	-0.607360	-0.470428
C94	C	-0.425616	-0.107360	0.029572
N95	N	-0.895065	-0.541634	-0.419668
N96	N	-0.395065	-0.041634	0.080332
C97	C	-1.437362	-0.673709	-0.980595
C98	C	-0.937362	-0.173709	-0.480595
N99	N	-1.503028	-0.622873	-0.950073
N100	N	-1.003028	-0.122873	-0.450073
C101	C	-1.482248	-0.638951	-1.162549
C102	C	-0.982248	-0.138951	-0.662549
N103	N	-1.547918	-0.588120	-1.132029
N104	N	-1.047918	-0.088120	-0.632029
H105	H	-1.224417	-0.838554	-0.985540
H106	H	-0.724417	-0.338554	-0.485540
