data_functionalizedCrystal
_audit_creation_method	'MofGen! by Chris Wilmer'
_symmetry_space_group_name_H-M	'P1'
_symmetry_Int_Tables_number	1
_symmetry_cell_setting	triclinic
loop_
_symmetry_equiv_pos_as_xyz
  x,y,z
_cell_length_a	18.050591
_cell_length_b	10.686285
_cell_length_c	10.686551
_cell_angle_alpha	80.915481
_cell_angle_beta	94.403376
_cell_angle_gamma	94.372862
loop_
_atom_site_label
_atom_site_type_symbol
_atom_site_fract_x
_atom_site_fract_y
_atom_site_fract_z
Zn1	Zn	1.186466	0.450288	0.679255
Zn2	Zn	1.186405	0.678868	0.450753
Zn3	Zn	1.053419	0.466628	0.466989
Zn4	Zn	1.071121	0.662473	0.662932
O5	O	1.124353	0.564564	0.564982
O6	O	1.290385	0.480633	0.648980
O7	O	1.161331	0.664413	0.275275
O8	O	1.063685	0.286837	0.508773
O9	O	1.290341	0.648569	0.481100
O10	O	1.161433	0.274832	0.664724
O11	O	1.063627	0.508481	0.287203
O12	O	0.951840	0.492584	0.492945
O13	O	1.093855	0.620627	0.842729
O14	O	0.964846	0.636471	0.636904
O15	O	1.178598	0.464735	0.854722
O16	O	1.178496	0.854316	0.465273
O17	O	1.093797	0.842271	0.621160
C18	C	1.138082	0.894347	0.539711
C19	C	1.144026	1.035427	0.528942
C20	C	0.931396	0.564522	0.564916
C21	C	0.848850	0.564533	0.564915
C22	C	1.138208	0.539029	0.896071
C23	C	1.144113	0.528148	1.037162
C24	C	0.642310	0.486174	0.486833
C25	C	0.596437	0.604347	0.446740
C26	C	0.697724	0.564567	0.564969
C27	C	0.596516	0.446434	0.605056
C28	C	0.551742	0.564590	0.565020
C29	C	0.652939	0.682805	0.524811
C30	C	0.653021	0.524810	0.683187
C31	C	0.607176	0.643060	0.643132
C32	C	0.781820	0.564552	0.564937
C33	C	0.467649	0.564617	0.565052
C34	C	1.318063	0.564607	0.565050
C35	C	1.400611	0.564625	0.565079
C36	C	1.110591	0.233491	0.590380
C37	C	1.104727	0.092407	0.601203
C38	C	1.110590	0.589908	0.235188
C39	C	1.104815	0.600432	0.094126
H40	H	0.657969	0.419963	0.420672
O41	O	1.194653	0.435123	1.115546
H42	H	1.237297	0.487324	1.171618
H43	H	1.066535	1.033262	0.671310
O44	O	0.563674	0.648918	0.314341
H45	H	0.533794	0.735936	0.314311
H46	H	1.182214	1.094581	0.458823
H47	H	0.591658	0.709447	0.709225
O48	O	0.685479	0.815202	0.479755
H49	H	0.746931	0.814142	0.480035
O50	O	0.685818	0.480210	0.815548
H51	H	0.663142	0.382067	0.848597
O52	O	1.054258	0.693433	1.015765
H53	H	1.057392	0.687664	0.913528
H54	H	0.571808	0.346537	0.638895
