data_functionalizedCrystal
_audit_creation_method	'MofGen! by Chris Wilmer'
_symmetry_space_group_name_H-M	'P1'
_symmetry_Int_Tables_number	1
_symmetry_cell_setting	triclinic
loop_
_symmetry_equiv_pos_as_xyz
  x,y,z
_cell_length_a	21.295417
_cell_length_b	19.077241
_cell_length_c	19.076919
_cell_angle_alpha	90.113904
_cell_angle_beta	92.266620
_cell_angle_gamma	87.677787
loop_
_atom_site_label
_atom_site_type_symbol
_atom_site_fract_x
_atom_site_fract_y
_atom_site_fract_z
Zn1	Zn	-0.228522	-1.058264	-0.440543
Zn2	Zn	-0.329403	-1.062893	-0.323027
Zn3	Zn	-0.228191	-0.945480	-0.318321
Zn4	Zn	-0.337799	-0.940711	-0.435761
O5	O	-0.280979	-1.001837	-0.379413
O6	O	-0.238529	-1.157212	-0.428925
O7	O	-0.312324	-1.051251	-0.224072
O8	O	-0.140144	-0.960500	-0.334565
O9	O	-0.312646	-1.160613	-0.342586
O10	O	-0.140388	-1.043362	-0.424362
O11	O	-0.237964	-0.964988	-0.220615
O12	O	-0.246106	-0.846513	-0.329929
O13	O	-0.326956	-0.952372	-0.534726
O14	O	-0.326635	-0.843010	-0.416212
O15	O	-0.246671	-1.038738	-0.538239
O16	O	-0.418607	-1.046626	-0.337950
O17	O	-0.424776	-0.956860	-0.420775
C18	C	-0.287246	-0.819265	-0.372041
C19	C	-0.289942	-0.741159	-0.368904
C20	C	-0.252687	-0.702692	-0.412451
C21	C	-0.255218	-0.629303	-0.409497
C22	C	-0.295007	-0.594383	-0.363000
C23	C	-0.332264	-0.632855	-0.319448
C24	C	-0.329730	-0.706242	-0.322399
C25	C	-0.306715	-0.375088	-0.349345
C26	C	-0.309248	-0.301696	-0.346399
C27	C	-0.232201	-0.298149	-0.436447
C28	C	-0.229673	-0.371538	-0.439397
C29	C	-0.266927	-0.410004	-0.395843
N30	N	-0.297597	-0.519368	-0.359981
N31	N	-0.264334	-0.485017	-0.398858
C32	C	-0.444532	-1.001747	-0.379370
C33	C	-0.514500	-1.001771	-0.379378
C34	C	-0.544134	-1.048551	-0.336298
C35	C	-0.609876	-1.048583	-0.336316
C36	C	-0.645981	-1.001824	-0.379405
C37	C	-0.616340	-0.955041	-0.422493
C38	C	-0.550599	-0.955014	-0.422480
N39	N	-0.751561	-0.940136	-0.382279
N40	N	-0.814012	-0.940163	-0.382288
C41	C	-0.844055	-1.001901	-0.379448
N42	N	-0.809287	-1.063612	-0.376586
N43	N	-0.746830	-1.063584	-0.376574
C44	C	-0.717266	-1.001847	-0.379424
C45	C	-0.944973	-1.048719	-0.336385
C46	C	-1.010717	-1.048752	-0.336407
C47	C	-1.017180	-0.955204	-0.422580
C48	C	-0.951438	-0.955177	-0.422562
C49	C	-0.915338	-1.001933	-0.379460
C50	C	-0.116787	-1.001947	-0.379472
C51	C	-0.046818	-1.001993	-0.379497
C52	C	-0.287787	-0.994507	-0.562691
C53	C	-0.290688	-0.991383	-0.640794
C54	C	-0.274684	-0.185123	-0.386808
C55	C	-0.271993	-0.263229	-0.389946
C56	C	-0.250253	-1.034879	-0.679317
C57	C	-0.252977	-1.031935	-0.752702
C58	C	-0.296140	-0.985499	-0.787563
C59	C	-0.336577	-0.941998	-0.749035
C60	C	-0.333849	-0.944938	-0.675651
C61	C	-0.308776	-0.971879	-1.006841
C62	C	-0.311502	-0.968943	-1.080230
C63	C	-0.227901	-1.058880	-1.083892
C64	C	-0.225180	-1.061820	-1.010506
C65	C	-0.265615	-1.018316	-0.971985
N66	N	-0.298927	-0.982490	-0.862574
N67	N	-0.262825	-1.021322	-0.896974
C68	C	-0.274150	-1.009179	-0.196849
C69	C	-0.271067	-1.012439	-0.118753
H70	H	-0.337050	-0.406398	-0.313880
H71	H	-0.360066	-0.737561	-0.286938
H72	H	-0.927308	-0.917082	-0.457638
H73	H	-0.190034	-1.099635	-0.982128
C74	C	-0.642480	-1.100042	-0.288919
N75	N	-0.667036	-1.138800	-0.253218
C76	C	-0.376032	-0.594440	-0.268300
N77	N	-0.409001	-0.565506	-0.229775
C78	C	-1.043314	-1.100215	-0.289012
N79	N	-1.067866	-1.138977	-0.253313
H80	H	-0.514743	-1.086624	-0.301205
C81	C	-0.656057	-0.903603	-0.469888
N82	N	-0.685972	-0.864859	-0.505589
C83	C	-0.353254	-0.924021	-0.964476
N84	N	-0.386756	-0.887971	-0.932564
C85	C	-0.518001	-0.903560	-0.469882
N86	N	-0.493447	-0.864806	-0.505589
C87	C	-0.905262	-1.100162	-0.288983
N88	N	-0.875353	-1.138911	-0.253283
H89	H	-0.220052	-1.067356	-0.784064
C90	C	-1.056892	-0.903769	-0.469980
N91	N	-1.086807	-0.865028	-0.505684
C92	C	-0.202770	-1.085963	-0.640976
N93	N	-0.167002	-1.124439	-0.612100
H94	H	-0.371719	-0.904185	-0.777424
H95	H	-0.194981	-1.094297	-1.115264
H96	H	-0.346652	-0.931127	-1.108612
H97	H	-0.366770	-0.909512	-0.644286
C98	C	-0.208915	-0.741097	-0.463602
N99	N	-0.175942	-0.770023	-0.502127
C100	C	-0.191213	-0.255831	-0.484341
N101	N	-0.160335	-0.223957	-0.520412
C102	C	-0.185895	-0.409945	-0.490541
N103	N	-0.152921	-0.438873	-0.529063
C104	C	-0.214236	-0.586993	-0.457405
N105	N	-0.183367	-0.555125	-0.493491
H106	H	-0.341652	-0.273266	-0.308535
