data_functionalizedCrystal
_audit_creation_method	'MofGen! by Chris Wilmer'
_symmetry_space_group_name_H-M	'P1'
_symmetry_Int_Tables_number	1
_symmetry_cell_setting	triclinic
loop_
_symmetry_equiv_pos_as_xyz
  x,y,z
_cell_length_a	16.109301
_cell_length_b	16.109301
_cell_length_c	14.586319
_cell_angle_alpha	90.005214
_cell_angle_beta	89.998857
_cell_angle_gamma	96.538468
loop_
_atom_site_label
_atom_site_type_symbol
_atom_site_fract_x
_atom_site_fract_y
_atom_site_fract_z
O1	O	1.103131	-0.106867	-0.076193
O2	O	0.861069	-0.120166	-0.076206
O3	O	0.988749	0.007514	-0.076190
O4	O	0.975450	-0.234548	-0.076209
O5	O	0.988740	0.007516	0.076291
O6	O	0.861060	-0.120164	0.076275
O7	O	1.103122	-0.106865	0.076288
Cu8	Cu	0.982090	-0.113515	0.090204
Cu9	Cu	0.982100	-0.113517	-0.090122
O10	O	0.975441	-0.234546	0.076272
C11	C	0.830089	-0.119627	0.000033
C12	C	0.737794	-0.118011	0.000028
C13	C	0.428796	-0.188494	0.000038
C14	C	0.515516	-0.190020	0.000033
C15	C	0.535389	-0.038531	0.000033
C16	C	0.448671	-0.037007	0.000032
C17	C	0.395376	-0.111991	0.000039
C18	C	0.568815	-0.115041	0.000035
C19	C	0.662841	-0.116694	0.000029
C20	C	0.301344	-0.110338	0.000043
C21	C	1.134101	-0.107405	0.000047
C22	C	1.226396	-0.109020	0.000046
C23	C	0.988206	0.038490	0.000051
C24	C	0.986591	0.130785	0.000052
N25	N	0.982089	-0.113513	0.217036
C26	C	0.975984	-0.265522	0.000029
C27	C	0.977599	-0.357817	0.000021
C28	C	1.058599	0.353058	0.000042
C29	C	1.057075	0.439778	0.000034
C30	C	0.905586	0.419904	0.000029
C31	C	0.907111	0.333185	0.000030
C32	C	0.983620	0.299765	0.000041
C33	C	0.980571	0.473204	0.000033
C34	C	0.978918	0.567230	0.000024
C35	C	0.985273	0.205733	0.000048
N36	N	0.982108	-0.113512	-0.216954
C37	C	1.038644	-0.056994	0.452049
C38	C	1.038647	-0.056992	0.548031
C39	C	0.925547	-0.170033	0.548026
C40	C	0.925541	-0.170030	0.452046
C41	C	0.982094	-0.113512	0.404060
C42	C	0.982103	-0.113513	0.596021
C43	C	0.982105	-0.113511	0.700088
C44	C	0.982092	-0.113513	0.299987
H45	H	0.421461	0.025296	0.000029
C46	C	1.151758	-0.038924	0.344055
C47	C	1.100762	0.005155	0.399279
H48	H	1.190097	-0.000545	0.311477
H49	H	1.118078	-0.072596	0.301759
H50	H	1.181694	-0.073516	0.381483
H51	H	1.070821	0.039742	0.361850
H52	H	1.134446	0.038841	0.441580
H53	H	0.846050	0.289791	0.000027
C54	C	0.644451	0.047628	-0.078345
C55	C	0.593977	0.043887	0.000035
H56	H	0.680623	0.098509	-0.078337
H57	H	0.610211	0.045077	-0.131510
H58	H	0.676762	0.001841	-0.078335
H59	H	0.561662	0.089670	0.000021
H60	H	0.628221	0.046446	0.053214
H61	H	1.120897	0.325850	0.000049
H62	H	0.879487	-0.216054	0.412971
C63	C	0.287037	-0.253425	0.000041
C64	C	0.370212	-0.270915	0.000037
H65	H	0.250874	-0.304311	0.000044
H66	H	0.276913	-0.222062	-0.053128
H67	H	0.276915	-0.222052	0.053220
H68	H	0.380336	-0.302283	-0.053145
H69	H	0.380341	-0.302291	0.053211
H70	H	1.118130	0.483167	0.000032
C71	C	1.088870	-0.006797	0.695160
C72	C	1.100808	0.005133	0.600781
H73	H	1.127244	0.031564	0.727724
H74	H	1.097885	-0.062281	0.710879
H75	H	1.033386	0.002251	0.710884
H76	H	1.156291	-0.003921	0.585056
H77	H	1.091800	0.060630	0.585056
C78	C	0.812410	-0.188046	0.655982
C79	C	0.863393	-0.232160	0.600779
H80	H	0.774044	-0.226404	0.688552
H81	H	0.782512	-0.153438	0.618548
H82	H	0.846102	-0.154388	0.698294
H83	H	0.829702	-0.265813	0.558462
H84	H	0.893293	-0.266782	0.638217
C85	C	0.487156	-0.339604	0.000047
C86	C	0.552251	-0.274115	0.000038
H87	H	0.509836	-0.391522	0.000055
H88	H	0.453748	-0.335865	-0.053123
H89	H	0.453746	-0.335845	0.053224
H90	H	0.585658	-0.277871	-0.053143
H91	H	0.585674	-0.277856	0.053213
C92	C	0.835983	0.544014	0.000037
C93	C	0.821490	0.456643	0.000031
H94	H	0.784064	0.566692	0.000046
H95	H	0.866848	0.562300	-0.053133
H96	H	0.866857	0.562303	0.053214
H97	H	0.790622	0.438354	-0.053149
H98	H	0.790613	0.438349	0.053207
