data_functionalizedCrystal
_audit_creation_method	'MofGen! by Chris Wilmer'
_symmetry_space_group_name_H-M	'P1'
_symmetry_Int_Tables_number	1
_symmetry_cell_setting	triclinic
loop_
_symmetry_equiv_pos_as_xyz
  x,y,z
_cell_length_a	19.902436
_cell_length_b	19.902436
_cell_length_c	14.628931
_cell_angle_alpha	59.997395
_cell_angle_beta	60.002547
_cell_angle_gamma	89.999900
loop_
_atom_site_label
_atom_site_type_symbol
_atom_site_fract_x
_atom_site_fract_y
_atom_site_fract_z
Zr1	Zr	0.647235	-0.088242	1.000696
O2	O	0.680112	-0.195537	1.000719
O3	O	0.539958	-0.055341	1.000674
O4	O	0.539945	-0.195523	1.191402
O5	O	0.790701	0.055214	0.659559
O6	O	0.539945	-0.195523	1.341834
O7	O	0.680125	-0.055354	0.809991
O8	O	0.539969	0.055238	1.000656
O9	O	0.790677	-0.195548	1.000737
O10	O	0.611638	-0.041320	1.112949
O11	O	0.694160	0.041196	0.888418
O12	O	0.694144	-0.123852	1.112975
O13	O	0.776666	-0.041336	0.888444
Zr14	Zr	0.823591	0.088102	1.000696
Zr15	Zr	0.647235	-0.088242	1.240618
Zr16	Zr	0.823591	0.088101	0.760775
Zr17	Zr	0.823574	-0.088259	1.000725
Zr18	Zr	0.647252	0.088119	1.000668
O19	O	0.930868	0.055200	1.000719
O20	O	0.680111	-0.195537	1.341856
O21	O	0.930868	0.055200	0.659581
O22	O	0.790714	0.195397	1.000674
O23	O	0.539958	-0.055340	1.341811
O24	O	0.790715	0.195397	0.659536
O25	O	0.680124	-0.055354	1.341834
O26	O	0.930881	0.195383	0.809991
O27	O	0.930881	0.195383	0.659559
O28	O	0.790701	0.055214	1.191402
O29	O	0.790677	-0.195548	1.191442
O30	O	0.680149	0.195407	0.809951
O31	O	0.680149	0.195408	1.000656
O32	O	0.539969	0.055238	1.191362
O33	O	0.930857	-0.055379	0.810031
O34	O	0.930857	-0.055378	1.000737
O35	O	0.776682	0.123711	0.888418
O36	O	0.694160	0.041196	1.112949
O37	O	0.776666	-0.041336	1.112975
O38	O	0.859188	0.041180	0.888444
C39	C	0.514839	-0.000049	1.000661
C40	C	0.439978	-0.000042	1.000649
C41	C	0.167930	-0.000080	1.000713
C42	C	0.248477	0.052224	0.859074
C43	C	0.326380	0.052009	0.858985
C44	C	0.302896	-0.000060	1.000680
C45	C	0.248783	-0.089730	1.071031
C46	C	0.171221	-0.089455	1.070125
C47	C	0.170064	0.036567	1.073014
C48	C	0.248941	0.038392	1.070352
C49	C	0.379171	-0.000054	1.000669
C50	C	0.091653	-0.000092	1.000728
C51	C	0.735392	-0.220670	1.000732
C52	C	0.735385	-0.295540	1.000744
C53	C	0.735422	-0.567542	1.000680
C54	C	0.683615	-0.591104	1.142319
C55	C	0.683325	-0.513266	1.142408
C56	C	0.735404	-0.432599	1.000713
C57	C	0.697447	-0.435009	0.930362
C58	C	0.697065	-0.513236	0.931267
C59	C	0.825210	-0.512257	0.928379
C60	C	0.825070	-0.435336	0.931041
C61	C	0.735394	-0.356332	1.000723
C62	C	0.735429	-0.643807	1.000665
C63	C	0.955987	-0.000092	1.000732
C64	C	1.030848	-0.000099	1.000744
C65	C	0.735413	-0.000070	0.700591
C66	C	0.735413	-0.000071	0.598738
C67	C	0.735434	0.220530	1.000661
C68	C	0.735441	0.295399	1.000649
C69	C	0.694485	0.040871	0.553316
C70	C	0.694484	0.040872	0.448045
C71	C	0.735413	-0.000070	1.300802
C72	C	0.735413	-0.000070	1.402655
C73	C	0.514818	-0.220648	1.300802
C74	C	0.439950	-0.295511	1.402655
C75	C	0.514839	-0.000048	1.300766
C76	C	0.439978	-0.000041	1.402607
C77	C	0.735434	0.220530	0.700556
C78	C	0.735442	0.295399	0.598691
C79	C	0.955987	-0.000092	0.700627
C80	C	1.030848	-0.000099	0.598786
C81	C	0.956008	0.220508	0.700591
C82	C	1.030876	0.295370	0.598738
C83	C	0.735392	-0.220670	1.300837
C84	C	0.735384	-0.295539	1.402702
C85	C	0.447858	-0.373755	1.450510
C86	C	0.377518	-0.444103	1.546225
C87	C	0.299271	-0.436205	1.594077
C88	C	0.291364	-0.357952	1.546218
C89	C	0.361703	-0.287606	1.450511
C90	C	0.361739	-0.043117	1.450443
C91	C	0.291393	-0.043127	1.546147
C92	C	0.299286	-0.000055	1.594006
C93	C	0.377533	0.043023	1.546167
C94	C	0.447878	0.043027	1.450471
C95	C	0.778528	0.373638	0.550844
C96	C	0.778551	0.443993	0.455117
C97	C	0.735483	0.436106	0.407246
C98	C	0.692395	0.357859	0.455097
C99	C	0.692377	0.287506	0.550815
C100	C	1.109087	0.042970	0.550960
C101	C	1.179433	0.042960	0.455283
C102	C	1.171539	-0.000115	0.407426
C103	C	1.093293	-0.043189	0.455261
C104	C	1.022948	-0.043183	0.550943
C105	C	1.109110	0.287446	0.550911
C106	C	1.179463	0.357780	0.455195
C107	C	1.171581	0.436038	0.407316
C108	C	1.093339	0.443961	0.455148
C109	C	1.022988	0.373628	0.550855
C110	C	0.778457	-0.287627	1.450549
C111	C	0.778447	-0.357968	1.546274
C112	C	0.735370	-0.436221	1.594145
C113	C	0.692292	-0.444132	1.546294
C114	C	0.692297	-0.373792	1.450577
H115	H	0.250172	0.118420	0.803472
H116	H	0.770455	-0.035120	0.559689
H117	H	0.227688	-0.078206	1.585082
N118	N	0.650524	0.084853	0.602268
N119	N	0.668784	0.160811	0.527553
H120	H	0.637734	0.191876	0.562122
H121	H	0.735504	0.493399	0.329306
H122	H	1.115543	0.223730	0.589882
N123	N	0.166303	0.118141	1.016136
N124	N	0.162003	0.150261	0.921610
H125	H	0.159349	0.207874	0.881428
H126	H	0.659438	0.075917	0.408991
N127	N	0.527801	0.087043	1.401579
N128	N	0.590610	0.087054	1.316129
H129	H	0.647056	0.118142	1.281600
N130	N	0.375352	0.020102	0.789358
N131	N	0.390878	-0.043017	0.844736
H132	H	0.425464	-0.065556	0.795564
H133	H	0.355252	-0.223899	1.411549
H134	H	0.511565	-0.380202	1.411557
H135	H	0.383973	-0.507812	1.585176
H136	H	0.286246	-0.119270	1.022187
H137	H	0.242001	-0.000064	1.671927
N138	N	1.259359	0.086971	0.406400
N139	N	1.322167	0.086967	0.320970
H140	H	1.378614	0.118051	0.286445
H141	H	0.383948	0.078090	1.585149
N142	N	0.873880	-0.487268	0.797485
N143	N	0.947609	-0.442685	0.723121
H144	H	0.981978	-0.425041	0.630681
H145	H	0.959289	0.380092	0.589793
H146	H	0.657224	-0.380246	1.411624
N147	N	0.227434	-0.508074	1.691843
N148	N	0.234516	-0.577928	1.734551
H149	H	0.183784	-0.628690	1.803597
N150	N	0.943037	-0.087183	0.599774
N151	N	0.936010	-0.125635	0.557024
H152	H	0.879574	-0.156713	0.591507
H153	H	0.770451	-0.035126	0.441716
H154	H	0.227646	-0.351533	1.585195
H155	H	0.813602	0.380075	0.589806
N156	N	1.259372	0.349661	0.406366
N157	N	1.266390	0.279780	0.449146
H158	H	1.322824	0.274043	0.414666
N159	N	0.353649	-0.087115	1.401572
N160	N	0.283780	-0.125570	1.444310
H161	H	0.278058	-0.156647	1.409803
H162	H	0.229015	-0.130388	1.175215
N163	N	0.735356	-0.508075	1.691927
N164	N	0.669021	-0.558699	1.798734
H165	H	0.669013	-0.609445	1.867794
H166	H	1.228872	0.493302	0.329385
H167	H	0.813638	0.507698	0.416173
H168	H	0.813530	-0.351510	1.585217
H169	H	0.657331	0.351450	0.416106
H170	H	0.657286	0.223803	0.589770
H171	H	1.115530	0.078052	0.589907
H172	H	1.228825	-0.000112	0.329516
N173	N	1.085268	0.523891	0.406282
N174	N	1.048568	0.544908	0.352882
H175	H	1.042864	0.601358	0.318387
N176	N	1.085252	-0.087184	0.406360
N177	N	1.148072	-0.087173	0.320926
H178	H	1.142396	-0.118241	0.286381
H179	H	0.813539	-0.223915	1.411582
N180	N	0.648277	-0.524083	1.595268
N181	N	0.591579	-0.572915	1.712774
H182	H	0.560493	-0.629388	1.747382
N183	N	0.375793	0.134841	0.789756
N184	N	0.346995	0.178894	0.827141
H185	H	0.381891	0.237398	0.778242
N186	N	0.249419	0.020628	0.789698
N187	N	0.191027	-0.040244	0.844116
H188	H	0.191689	-0.062562	0.795123
H189	H	0.114182	-0.130543	1.174045
N190	N	0.171481	-0.126261	1.007430
N191	N	0.228833	-0.151972	0.964644
H192	H	0.229021	-0.177967	0.920363
H193	H	0.230410	0.004257	1.173728
N194	N	0.295777	0.121259	1.006002
N195	N	0.360550	0.135880	0.997342
H196	H	0.393636	0.194404	0.951890
N197	N	0.098835	-0.010997	1.203903
N198	N	0.046673	-0.071625	1.243913
H199	H	-0.003637	-0.105218	1.336348
H200	H	0.708967	-0.630240	1.197902
N201	N	0.715269	-0.514743	1.211642
N202	N	0.737931	-0.573405	1.260237
H203	H	0.760492	-0.574453	1.309139
H204	H	0.617092	-0.515042	1.197940
N205	N	0.601033	-0.641179	1.211706
N206	N	0.580168	-0.659588	1.157295
H207	H	0.521847	-0.694960	1.206298
H208	H	0.630994	-0.549775	0.981247
H209	H	0.732360	-0.493892	0.827348
H210	H	0.733366	-0.378199	0.826178
H211	H	0.856917	-0.548570	0.973713
N212	N	0.615345	-0.433072	0.991661
N213	N	0.561775	-0.488714	1.108117
H214	H	0.503788	-0.487351	1.151420
N215	N	0.860637	-0.435808	0.995395
N216	N	0.820150	-0.434133	1.092212
H217	H	0.845268	-0.434461	1.137665
H218	H	0.866919	-0.377879	0.827667
