data_functionalizedCrystal
_audit_creation_method	'MofGen! by Chris Wilmer'
_symmetry_space_group_name_H-M	'P1'
_symmetry_Int_Tables_number	1
_symmetry_cell_setting	triclinic
loop_
_symmetry_equiv_pos_as_xyz
  x,y,z
_cell_length_a	15.944551
_cell_length_b	23.532407
_cell_length_c	14.421503
_cell_angle_alpha	89.999621
_cell_angle_beta	89.996859
_cell_angle_gamma	83.173708
loop_
_atom_site_label
_atom_site_type_symbol
_atom_site_fract_x
_atom_site_fract_y
_atom_site_fract_z
O1	O	1.113910	0.073442	-0.077025
O2	O	0.869284	0.082498	-0.077049
O3	O	0.998974	-0.004933	-0.077019
O4	O	0.984221	0.160873	-0.077055
O5	O	0.998953	-0.004920	0.077204
O6	O	0.869263	0.082511	0.077174
O7	O	1.113889	0.073455	0.077199
Cu8	Cu	0.991574	0.077984	0.091268
Cu9	Cu	0.991599	0.077969	-0.091119
O10	O	0.984199	0.160886	0.077169
C11	C	0.837983	0.082128	0.000060
C12	C	0.744746	0.081001	0.000051
C13	C	0.530369	0.024113	0.000081
C14	C	0.469137	0.050524	-0.075964
C15	C	0.574038	0.078962	0.000063
C16	C	0.469138	0.050550	0.076088
C17	C	0.409142	0.076989	0.000078
C18	C	0.514034	0.105388	-0.076046
C19	C	0.514041	0.105406	0.076075
C20	C	0.452826	0.131856	0.000010
C21	C	0.669030	0.080097	0.000053
C22	C	0.314150	0.075858	0.000081
C23	C	0.998588	-0.026144	0.000095
C24	C	0.997458	-0.089366	0.000102
C25	C	1.067121	-0.488199	0.000058
C26	C	1.066072	-0.547603	0.000051
O27	O	1.130650	-0.584098	0.000023
N28	N	0.988971	-0.570528	0.000044
C29	C	0.912915	-0.534045	0.000035
O30	O	0.847239	-0.558999	0.000027
C31	C	0.913965	-0.474642	0.000035
C32	C	0.991071	-0.451721	0.000052
C33	C	1.144220	-0.465277	0.000073
C34	C	1.145269	-0.405877	0.000082
C35	C	1.069219	-0.369399	0.000076
C36	C	0.992120	-0.392320	0.000060
C37	C	0.837910	-0.438160	0.000019
C38	C	0.838967	-0.378754	0.000019
C39	C	0.916072	-0.355832	0.000035
C40	C	0.917118	-0.296442	0.000063
N41	N	0.994219	-0.273517	0.000070
C42	C	1.070269	-0.309995	0.000076
C43	C	0.910716	-0.658796	0.000032
C44	C	0.909664	-0.718198	0.000038
C45	C	1.062821	-0.731752	0.000053
C46	C	1.063872	-0.672349	0.000053
C47	C	0.987816	-0.635871	0.000039
C48	C	1.072466	-0.185250	0.000096
C49	C	1.073508	-0.125844	0.000108
C50	C	0.920352	-0.112295	0.000089
C51	C	0.919309	-0.171696	0.000081
C52	C	0.995373	-0.208173	0.000081
O53	O	0.852574	-0.259913	0.000087
O54	O	1.135935	-0.285033	0.000072
C55	C	1.145190	0.073824	0.000088
C56	C	1.238427	0.074951	0.000090
C57	C	0.984586	0.182097	0.000053
C58	C	0.985715	0.245318	0.000040
N59	N	0.991562	0.077994	0.219550
N60	N	0.991618	0.077954	-0.219400
C61	C	0.931583	0.118404	0.469190
C62	C	1.007390	0.129461	0.530997
C63	C	0.991583	0.077981	0.408711
C64	C	0.915795	0.066938	0.530998
C65	C	0.991596	0.077969	0.591433
C66	C	1.067428	0.089063	0.469158
C67	C	0.975783	0.026517	0.469153
C68	C	1.051645	0.037552	0.530932
C69	C	0.991574	0.077989	0.303450
C70	C	0.991613	0.077960	0.696691
H71	H	0.449231	0.027320	-0.140246
H72	H	1.126658	-0.653691	0.000066
H73	H	0.564086	-0.021407	-0.000003
H74	H	0.851698	0.057603	0.558164
O75	O	0.765138	-0.343262	0.000131
C76	C	0.761133	-0.308508	0.080020
H77	H	0.827770	-0.305491	0.106662
H78	H	0.722931	-0.328061	0.135941
C79	C	0.636500	-0.251912	0.023033
C80	C	0.718347	-0.248203	0.055751
H81	H	0.610105	-0.214714	0.008066
H82	H	0.639197	-0.275328	-0.030788
H83	H	0.604676	-0.268209	0.069640
H84	H	0.750172	-0.231913	0.009141
H85	H	0.715655	-0.224783	0.109564
O86	O	0.959903	-0.025427	0.436821
C87	C	1.022435	-0.068089	0.469626
H88	H	1.052229	-0.052315	0.535194
H89	H	1.073157	-0.077866	0.414283
C90	C	0.945386	-0.142165	0.411115
C91	C	0.981974	-0.122793	0.491651
H92	H	0.920430	-0.175910	0.424698
H93	H	0.903259	-0.113423	0.389010
H94	H	0.987661	-0.150308	0.365004
H95	H	0.939698	-0.114643	0.537757
H96	H	1.024094	-0.151535	0.513764
O97	O	0.871203	0.159290	0.436880
C98	C	0.888184	0.213473	0.468413
H99	H	0.958182	0.211868	0.485745
H100	H	0.849044	0.225671	0.533107
C101	C	0.779077	0.260318	0.370764
C102	C	0.865052	0.258349	0.392044
H103	H	0.764805	0.288001	0.323659
H104	H	0.767634	0.223815	0.349522
H105	H	0.746471	0.270481	0.424683
H106	H	0.897656	0.248180	0.338129
H107	H	0.876500	0.294852	0.413276
H108	H	0.533835	0.128563	-0.140407
O109	O	1.143962	0.100175	0.436916
C110	C	1.207170	0.057770	0.469102
H111	H	1.177634	0.017326	0.486838
H112	H	1.238062	0.073952	0.533683
C113	C	1.310661	0.093897	0.371277
C114	C	1.274385	0.044221	0.393054
H115	H	1.352125	0.085541	0.324369
H116	H	1.268078	0.122468	0.349595
H117	H	1.336398	0.107377	0.425101
H118	H	1.248641	0.030746	0.339233
H119	H	1.316966	0.015648	0.414725
O120	O	0.412840	0.186224	-0.000212
C121	C	0.435738	0.214918	-0.080484
H122	H	0.457924	0.182218	-0.136260
H123	H	0.489001	0.241436	-0.063074
C124	C	0.331583	0.294775	-0.047836
C125	C	0.358825	0.254613	-0.116344
H126	H	0.284141	0.319263	-0.069955
H127	H	0.316158	0.275445	0.006247
H128	H	0.375976	0.316868	-0.033334
H129	H	0.314436	0.232516	-0.130836
H130	H	0.374240	0.273940	-0.170431
H131	H	1.102445	0.003360	0.557872
H132	H	1.134405	-0.214943	0.000092
H133	H	0.533968	0.128591	0.140359
O134	O	0.846503	-0.076830	-0.000084
C135	C	0.842566	-0.042054	-0.079946
H136	H	0.885714	-0.063807	-0.135764
H137	H	0.863942	0.001142	-0.061881
C138	C	0.698108	-0.006315	-0.047630
C139	C	0.751099	-0.033035	-0.116189
H140	H	0.641687	-0.000749	-0.069985
H141	H	0.700761	-0.029742	0.006177
H142	H	0.715932	0.029679	-0.032582
H143	H	0.733281	-0.069031	-0.131227
H144	H	0.748441	-0.009613	-0.169999
O145	O	0.445510	0.022795	0.152759
C146	C	0.485381	-0.033991	0.152464
H147	H	0.544811	-0.036724	0.107952
H148	H	0.440382	-0.063528	0.122787
C149	C	0.436449	-0.049071	0.307032
C150	C	0.509445	-0.052427	0.252367
H151	H	0.451290	-0.060445	0.368657
H152	H	0.409584	-0.010814	0.307230
H153	H	0.398957	-0.073685	0.282291
H154	H	0.546931	-0.027808	0.277103
H155	H	0.536317	-0.090680	0.252176
O156	O	1.023230	0.181373	0.563525
C157	C	0.954868	0.205129	0.618660
H158	H	0.918984	0.169443	0.645763
H159	H	0.910655	0.236108	0.575168
C160	C	1.032466	0.281269	0.667736
C161	C	0.988397	0.237438	0.701031
H162	H	1.053147	0.301200	0.718544
H163	H	1.078522	0.265265	0.630587
H164	H	0.995615	0.307078	0.631493
H165	H	1.025251	0.211625	0.737263
H166	H	0.942348	0.253438	0.738187
O167	O	0.763031	-0.460445	0.000157
C168	C	0.757815	-0.494415	0.080011
H169	H	0.801573	-0.480369	0.135856
H170	H	0.777588	-0.541257	0.061950
C171	C	0.612556	-0.504473	0.047606
C172	C	0.666294	-0.487218	0.116200
H173	H	0.556101	-0.500036	0.069928
H174	H	0.616070	-0.481589	-0.006195
H175	H	0.629043	-0.543507	0.032562
H176	H	0.649813	-0.448183	0.131235
H177	H	0.662775	-0.510095	0.170004
H178	H	1.136300	-0.107185	0.000124
H179	H	1.208056	-0.387220	0.000092
H180	H	0.846878	-0.736855	0.000041
O181	O	1.218158	-0.500649	-0.000041
C182	C	1.265004	-0.490262	-0.079917
H183	H	1.243982	-0.445207	-0.106554
H184	H	1.253823	-0.522760	-0.135847
C185	C	1.385497	-0.551214	-0.022917
C186	C	1.359682	-0.495875	-0.055629
H187	H	1.443899	-0.554679	-0.007938
H188	H	1.353935	-0.558214	0.030896
H189	H	1.376172	-0.578290	-0.069531
H190	H	1.368997	-0.468801	-0.009011
H191	H	1.391248	-0.488871	-0.109434
O192	O	1.136622	-0.767275	0.000007
C193	C	1.119153	-0.824619	0.000020
H194	H	1.053197	-0.826898	-0.029178
H195	H	1.122479	-0.841802	0.074006
C196	C	1.265680	-0.858167	-0.024606
C197	C	1.184675	-0.860967	-0.060475
H198	H	1.306098	-0.880589	-0.061919
H199	H	1.277450	-0.819533	-0.024612
H200	H	1.268439	-0.872485	0.037048
H201	H	1.181913	-0.846642	-0.122123
H202	H	1.172905	-0.899599	-0.060481
H203	H	0.856524	-0.190359	0.000094
H204	H	0.848778	-0.629098	0.000028
