data_functionalizedCrystal
_audit_creation_method	'MofGen! by Chris Wilmer'
_symmetry_space_group_name_H-M	'P1'
_symmetry_Int_Tables_number	1
_symmetry_cell_setting	triclinic
loop_
_symmetry_equiv_pos_as_xyz
  x,y,z
_cell_length_a	17.038278
_cell_length_b	17.038272
_cell_length_c	15.500227
_cell_angle_alpha	93.033254
_cell_angle_beta	86.950586
_cell_angle_gamma	91.111028
loop_
_atom_site_label
_atom_site_type_symbol
_atom_site_fract_x
_atom_site_fract_y
_atom_site_fract_z
O1	O	1.052165	0.167124	-0.071953
O2	O	1.385498	0.500457	0.261381
O3	O	1.718832	0.833791	0.594714
O4	O	0.824354	0.164418	-0.071953
O5	O	1.157687	0.497751	0.261381
O6	O	1.491020	0.831085	0.594714
O7	O	0.936905	0.051866	-0.071946
O8	O	1.270238	0.385199	0.261388
O9	O	1.603572	0.718532	0.594721
O10	O	0.939614	0.279676	-0.071959
O11	O	1.272947	0.613010	0.261374
O12	O	1.606280	0.946343	0.594707
O13	O	0.930073	0.058667	0.071942
O14	O	1.263406	0.392000	0.405276
O15	O	1.596740	0.725333	0.738609
O16	O	0.817522	0.171219	0.071936
O17	O	1.150855	0.504553	0.405269
O18	O	1.484188	0.837886	0.738602
O19	O	1.045333	0.173925	0.071936
O20	O	1.378666	0.507258	0.405269
O21	O	1.712000	0.840592	0.738602
Cu22	Cu	0.930804	0.173193	0.085074
Cu23	Cu	1.264137	0.506527	0.418407
Cu24	Cu	1.597470	0.839860	0.751740
Cu25	Cu	0.938883	0.165150	-0.085091
Cu26	Cu	1.272216	0.498483	0.248243
Cu27	Cu	1.605550	0.831817	0.581576
O28	O	0.932782	0.286478	0.071929
O29	O	1.266115	0.619811	0.405262
O30	O	1.599448	0.953144	0.738595
C31	C	0.791645	0.165356	-0.000009
C32	C	1.124978	0.498689	0.333325
C33	C	1.458312	0.832023	0.666658
C34	C	0.704361	0.158009	-0.000008
C35	C	1.037695	0.491342	0.333325
C36	C	1.371028	0.824675	0.666658
C37	C	0.210936	0.112871	-0.000009
C38	C	0.544269	0.446204	0.333324
C39	C	0.877602	0.779538	0.666658
C40	C	0.292947	0.119781	-0.000004
C41	C	0.626281	0.453114	0.333329
C42	C	0.959614	0.786448	0.666662
C43	C	0.329347	0.194154	-0.000013
C44	C	0.662681	0.527487	0.333321
C45	C	0.996014	0.860821	0.666654
C46	C	0.283731	0.261622	-0.000017
C47	C	0.617065	0.594955	0.333316
C48	C	0.950398	0.928289	0.666650
C49	C	0.201721	0.254712	-0.000016
C50	C	0.535054	0.588045	0.333318
C51	C	0.868388	0.921379	0.666651
C52	C	0.576735	0.218567	-0.000012
C53	C	0.910068	0.551900	0.333322
C54	C	1.243402	0.885233	0.666655
C55	C	0.658751	0.225472	-0.000015
C56	C	0.992085	0.558805	0.333318
C57	C	1.325418	0.892138	0.666651
C58	C	0.667962	0.083630	-0.000001
C59	C	1.001295	0.416963	0.333332
C60	C	1.334628	0.750297	0.666666
C61	C	0.585950	0.076726	-0.000005
C62	C	0.919283	0.410059	0.333328
C63	C	1.252616	0.743393	0.666662
C64	C	0.540340	0.144194	-0.000005
C65	C	0.873674	0.477528	0.333329
C66	C	1.207007	0.810861	0.666662
C67	C	0.413176	0.201219	-0.000010
C68	C	0.746510	0.534552	0.333323
C69	C	1.079843	0.867885	0.666656
C70	C	0.456513	0.137129	-0.000001
C71	C	0.789846	0.470463	0.333333
C72	C	1.123179	0.803796	0.666666
C73	C	0.931026	0.025973	-0.000002
C74	C	1.264360	0.359307	0.333332
C75	C	1.597693	0.692640	0.666665
C76	C	0.923678	-0.061310	-0.000002
C77	C	1.257011	0.272023	0.333331
C78	C	1.590345	0.605357	0.666665
C79	C	0.991142	-0.106920	-0.000001
C80	C	1.324475	0.226413	0.333332
C81	C	1.657808	0.559747	0.666666
C82	C	0.984233	-0.188932	-0.000009
C83	C	1.317566	0.144401	0.333324
C84	C	1.650900	0.477735	0.666657
C85	C	0.909860	-0.225333	-0.000012
C86	C	1.243193	0.108001	0.333321
C87	C	1.576527	0.441334	0.666654
C88	C	0.842392	-0.179717	-0.000016
C89	C	1.175725	0.153616	0.333318
C90	C	1.509058	0.486950	0.666651
C91	C	0.849301	-0.097706	-0.000014
C92	C	1.182634	0.235627	0.333320
C93	C	1.515968	0.568960	0.666653
C94	C	0.885450	-0.472721	-0.000024
C95	C	1.218783	-0.139388	0.333309
C96	C	1.552117	0.193946	0.666643
C97	C	0.878545	-0.554737	-0.000024
C98	C	1.211879	-0.221404	0.333310
C99	C	1.545212	0.111929	0.666643
C100	C	1.020388	-0.563947	-0.000019
C101	C	1.353721	-0.230614	0.333315
C102	C	1.687054	0.102720	0.666648
C103	C	1.027291	-0.481934	-0.000011
C104	C	1.360624	-0.148601	0.333322
C105	C	1.693957	0.184732	0.666655
C106	C	0.959822	-0.436326	-0.000020
C107	C	1.293156	-0.102993	0.333314
C108	C	1.626489	0.230341	0.666647
C109	C	0.902797	-0.309162	-0.000018
C110	C	1.236130	0.024171	0.333315
C111	C	1.569463	0.357505	0.666649
C112	C	0.966887	-0.352498	-0.000020
C113	C	1.300220	-0.019165	0.333313
C114	C	1.633553	0.314168	0.666647
C115	C	1.078042	0.172987	-0.000010
C116	C	1.411375	0.506320	0.333323
C117	C	1.744708	0.839654	0.666656
C118	C	1.165326	0.180334	-0.000016
C119	C	1.498659	0.513667	0.333317
C120	C	1.831992	0.847001	0.666651
C121	C	0.938661	0.312370	-0.000017
C122	C	1.271994	0.645703	0.333316
C123	C	1.605327	0.979036	0.666649
C124	C	0.946009	0.399653	-0.000023
C125	C	1.279342	0.732986	0.333311
C126	C	1.612676	1.066320	0.666644
N127	N	0.925127	0.178850	0.204758
N128	N	1.258460	0.512184	0.538092
N129	N	1.591793	0.845517	0.871425
N130	N	0.944566	0.159487	-0.204775
N131	N	1.277899	0.492820	0.128558
N132	N	1.611232	0.826154	0.461891
C133	C	0.972838	0.131178	0.250038
C134	C	1.306171	0.464511	0.583371
C135	C	1.639504	0.797845	0.916705
C136	C	0.968552	0.135464	0.340611
C137	C	1.301885	0.468797	0.673944
C138	C	1.635219	0.802131	1.007277
C139	C	0.916559	0.187427	0.385902
C140	C	1.249892	0.520760	0.719235
C141	C	1.583226	0.854094	1.052569
C142	C	0.868843	0.235101	0.340616
C143	C	1.202176	0.568435	0.673949
C144	C	1.535509	0.901768	1.007283
C145	C	0.873125	0.230811	0.250045
C146	C	1.206458	0.564144	0.583378
C147	C	1.539791	0.897477	0.916712
C148	C	0.901132	0.202871	0.659368
C149	C	1.234465	0.536204	0.992701
C150	C	1.567798	0.869537	1.326034
C151	C	0.896855	0.207160	0.749945
C152	C	1.230188	0.540493	1.083278
C153	C	1.563521	0.873826	1.416612
C154	C	0.996564	0.107521	0.749933
C155	C	1.329897	0.440854	1.083267
C156	C	1.663230	0.774187	1.416600
C157	C	1.000845	0.103238	0.659361
C158	C	1.334178	0.436571	0.992694
C159	C	1.667511	0.769904	1.326027
C160	C	0.953125	0.150909	0.614083
C161	C	1.286459	0.484243	0.947416
C162	C	1.619792	0.817576	1.280749
C163	C	0.912179	0.191811	0.478482
C164	C	1.245512	0.525145	0.811815
C165	C	1.578845	0.858478	1.145148
C166	C	0.957502	0.146521	0.521505
C167	C	1.290835	0.479854	0.854838
C168	C	1.624169	0.813187	1.188171
H169	H	0.705105	0.028701	-0.000000
H170	H	1.038439	0.362035	0.333333
H171	H	1.371772	0.695368	0.666667
H172	H	1.051704	-0.077289	0.000007
H173	H	1.385037	0.256045	0.333340
H174	H	1.718371	0.589378	0.666673
H175	H	0.999832	0.104209	0.484626
H176	H	1.333165	0.437542	0.817959
H177	H	1.666499	0.770876	1.151293
H178	H	0.869846	0.234122	0.515365
H179	H	1.203180	0.567455	0.848699
H180	H	1.536513	0.900789	1.182032
H181	H	1.043182	0.060925	0.622486
H182	H	1.376515	0.394259	0.955820
H183	H	1.709848	0.727592	1.289153
H184	H	0.330080	0.064845	0.000005
H185	H	0.663413	0.398179	0.333338
H186	H	0.996746	0.731512	0.666672
H187	H	1.039169	-0.226064	-0.000007
H188	H	1.372503	0.107269	0.333327
H189	H	1.705836	0.440602	0.666660
H190	H	0.688385	0.286039	-0.000010
H191	H	1.021718	0.619372	0.333324
H192	H	1.355051	0.952705	0.666657
H193	H	0.539610	0.273504	-0.000016
H194	H	0.872943	0.606838	0.333318
H195	H	1.206276	0.940171	0.666651
H196	H	1.035413	0.068708	0.786807
H197	H	1.368747	0.402041	1.120140
H198	H	1.702080	0.735374	1.453474
H199	H	0.781835	-0.209361	-0.000024
H200	H	1.115169	0.123972	0.333310
H201	H	1.448502	0.457306	0.666643
H202	H	0.556319	0.016164	0.000002
H203	H	0.889652	0.349497	0.333335
H204	H	1.222985	0.682830	0.666669
H205	H	0.164586	0.309648	-0.000018
H206	H	0.497919	0.642981	0.333315
H207	H	0.831252	0.976314	0.666648
H208	H	1.087853	-0.452303	-0.000009
H209	H	1.421186	-0.118970	0.333325
H210	H	1.754520	0.214364	0.666658
H211	H	0.817978	-0.584371	-0.000012
H212	H	1.151312	-0.251038	0.333321
H213	H	1.484645	0.082296	0.666655
H214	H	0.313374	0.322179	-0.000019
H215	H	0.646708	0.655512	0.333315
H216	H	0.980041	0.988845	0.666648
H217	H	0.830512	-0.435596	-0.000030
H218	H	1.163845	-0.102263	0.333303
H219	H	1.497179	0.231070	0.666636
H220	H	0.426872	0.076574	-0.000004
H221	H	0.760206	0.409908	0.333330
H222	H	1.093539	0.743241	0.666663
H223	H	0.834272	0.269630	0.213179
H224	H	1.167606	0.602963	0.546513
H225	H	1.500939	0.936296	0.879846
H226	H	0.181305	0.052308	-0.000008
H227	H	0.514639	0.385642	0.333326
H228	H	0.847972	0.718975	0.666659
H229	H	0.442823	0.261774	-0.000020
H230	H	0.776156	0.595107	0.333314
H231	H	1.109489	0.928440	0.666647
H232	H	1.075316	-0.601090	-0.000014
H233	H	1.408650	-0.267757	0.333320
H234	H	1.741983	0.065577	0.666653
H235	H	0.794365	-0.060572	-0.000015
H236	H	1.127698	0.272762	0.333319
H237	H	1.461032	0.606095	0.666652
H238	H	1.027442	-0.322858	-0.000037
H239	H	1.360775	0.010475	0.333297
H240	H	1.694109	0.343808	0.666630
H241	H	1.007401	0.096645	0.377477
H242	H	1.340735	0.429978	0.710810
H243	H	1.674068	0.763312	1.044143
H244	H	0.842241	-0.338809	-0.000018
H245	H	1.175575	-0.005475	0.333315
H246	H	1.508908	0.327858	0.666648
H247	H	1.015179	0.088868	0.213168
H248	H	1.348513	0.422201	0.546501
H249	H	1.681846	0.755534	0.879834
H250	H	0.826504	0.277408	0.377497
H251	H	1.159838	0.610742	0.710831
H252	H	1.493171	0.944075	1.044164
H253	H	0.854514	0.249477	0.786817
H254	H	1.187847	0.582811	1.120150
H255	H	1.521180	0.916144	1.453484
H256	H	0.862278	0.241688	0.622510
H257	H	1.195612	0.575022	0.955843
H258	H	1.528945	0.908355	1.289176
