data_functionalizedCrystal
_audit_creation_method	'MofGen! by Chris Wilmer'
_symmetry_space_group_name_H-M	'P1'
_symmetry_Int_Tables_number	1
_symmetry_cell_setting	triclinic
loop_
_symmetry_equiv_pos_as_xyz
  x,y,z
_cell_length_a	17.699083
_cell_length_b	15.944551
_cell_length_c	16.176319
_cell_angle_alpha	89.992246
_cell_angle_beta	89.998611
_cell_angle_gamma	83.390877
loop_
_atom_site_label
_atom_site_type_symbol
_atom_site_fract_x
_atom_site_fract_y
_atom_site_fract_z
O1	O	1.004260	0.106222	-0.068632
O2	O	0.783905	0.120042	-0.068660
O3	O	0.900100	-0.009156	-0.068638
O4	O	0.888065	0.235419	-0.068654
O5	O	0.900084	-0.009164	0.068855
O6	O	0.783889	0.120033	0.068833
O7	O	1.004244	0.106214	0.068861
Cu8	Cu	0.894065	0.113123	0.081401
Cu9	Cu	0.894084	0.113133	-0.081200
O10	O	0.888049	0.235411	0.068839
C11	C	0.755700	0.119542	0.000083
C12	C	0.671679	0.118057	0.000073
C13	C	0.623187	0.193893	0.000068
C14	C	0.544242	0.192492	0.000079
C15	C	0.513789	0.115254	0.000089
C16	C	0.562287	0.039412	0.000096
C17	C	0.641231	0.040814	0.000091
C18	C	0.243914	0.033758	0.000117
C19	C	0.164964	0.032362	0.000119
C20	C	0.146925	0.185436	0.000105
C21	C	0.225869	0.186837	0.000100
C22	C	0.274360	0.110996	0.000112
C23	C	0.359962	0.112516	0.000102
C24	C	0.428189	0.113733	0.000093
C25	C	0.899593	-0.040453	0.000109
C26	C	0.898095	-0.133696	0.000109
C27	C	0.822492	-0.348393	0.000088
C28	C	0.857591	-0.409488	0.067885
C29	C	0.895385	-0.304416	0.000102
C30	C	0.857624	-0.409464	-0.067672
C31	C	0.892762	-0.469323	0.000092
C32	C	0.930505	-0.364283	0.067955
C33	C	0.930527	-0.364252	-0.067663
C34	C	0.965680	-0.425329	0.000150
C35	C	0.896894	-0.209417	0.000109
C36	C	0.891259	-0.564321	0.000092
C37	C	1.032450	0.106713	0.000116
C38	C	1.116471	0.108199	0.000121
C39	C	0.888557	0.266708	0.000090
C40	C	0.890055	0.359951	0.000085
N41	N	0.894058	0.113116	0.195767
N42	N	0.894098	0.113133	-0.195565
C43	C	0.945524	0.055930	0.239040
C44	C	0.945528	0.055929	0.325588
C45	C	0.894068	0.113118	0.368859
C46	C	0.842596	0.170306	0.325579
C47	C	0.842589	0.170303	0.239034
C48	C	0.842622	0.170322	0.674608
C49	C	0.842634	0.170323	0.761159
C50	C	0.945561	0.055949	0.761161
C51	C	0.945554	0.055945	0.674616
C52	C	0.894080	0.113130	0.631343
C53	C	0.894075	0.113129	0.537499
C54	C	0.894076	0.113124	0.462702
H55	H	0.107434	0.247189	0.000100
C56	C	0.632102	0.324809	-0.070623
C57	C	0.656654	0.278798	0.000057
H58	H	0.652758	0.377229	-0.070623
H59	H	0.648750	0.293595	-0.118559
H60	H	0.578145	0.334817	-0.070610
H61	H	0.710611	0.268785	0.000042
H62	H	0.640010	0.310019	0.048006
H63	H	0.537486	-0.023476	0.000116
H64	H	0.961303	-0.344360	0.125335
C65	C	1.085870	-0.446368	-0.070102
C66	C	1.047438	-0.470243	0.000209
H67	H	1.136348	-0.474086	-0.070058
H68	H	1.060114	-0.461843	-0.118285
H69	H	1.087224	-0.386984	-0.069637
H70	H	1.046080	-0.529628	-0.000259
H71	H	1.073201	-0.454775	0.048405
C72	C	0.200106	0.338010	0.000097
C73	C	0.259341	0.271739	0.000094
H74	H	0.220772	0.390424	0.000100
H75	H	0.169692	0.334286	-0.047847
H76	H	0.169690	0.334268	0.048048
H77	H	0.289755	0.275477	-0.047861
H78	H	0.289769	0.275465	0.048042
H79	H	0.987432	0.009364	0.203814
C80	C	0.796909	0.221105	0.458245
C81	C	0.786032	0.233172	0.373142
H82	H	0.761991	0.259923	0.487604
H83	H	0.788688	0.165065	0.472437
H84	H	0.847423	0.230159	0.472409
H85	H	0.735519	0.224112	0.358976
H86	H	0.794247	0.289226	0.358944
C87	C	0.740855	0.283368	0.247719
C88	C	0.786019	0.233166	0.191464
H89	H	0.705932	0.322180	0.218350
H90	H	0.713635	0.248443	0.281483
H91	H	0.772369	0.313538	0.281467
H92	H	0.754505	0.202991	0.157720
H93	H	0.813241	0.268096	0.157686
C94	C	0.933847	-0.359685	-0.215960
C95	C	0.972120	-0.337147	-0.145030
H96	H	0.959519	-0.342944	-0.263726
H97	H	0.932801	-0.419104	-0.216791
H98	H	0.883267	-0.332278	-0.215470
H99	H	1.022699	-0.364560	-0.145517
H100	H	0.973175	-0.277717	-0.144199
H101	H	0.987435	0.009364	0.360821
C102	C	0.444995	0.279719	-0.070611
C103	C	0.490941	0.275855	0.000065
H104	H	0.412088	0.331185	-0.070617
H105	H	0.476167	0.277081	-0.118550
H106	H	0.415562	0.233518	-0.070590
H107	H	0.520379	0.322053	0.000041
H108	H	0.459766	0.278501	0.048016
C109	C	0.741039	-0.397248	-0.144919
C110	C	0.816002	-0.436486	-0.145050
H111	H	0.715343	-0.413924	-0.192690
H112	H	0.715639	-0.413502	-0.096790
H113	H	0.741299	-0.337704	-0.145203
H114	H	0.815742	-0.496030	-0.144760
H115	H	0.841408	-0.420236	-0.193192
H116	H	0.987460	0.009379	0.639387
C117	C	0.990009	-0.089532	0.787818
C118	C	1.002135	-0.006922	0.808729
H119	H	1.024939	-0.128342	0.817181
H120	H	0.939506	-0.098578	0.802012
H121	H	0.997373	-0.097704	0.730081
H122	H	0.994766	0.001252	0.866466
H123	H	1.052650	0.002128	0.794541
C124	C	0.156036	-0.098558	-0.070533
C125	C	0.131491	-0.052546	0.000137
H126	H	0.135373	-0.150975	-0.070519
H127	H	0.139389	-0.067342	-0.118477
H128	H	0.209993	-0.108574	-0.070523
H129	H	0.077534	-0.042524	0.000123
H130	H	0.148133	-0.083769	0.048092
H131	H	0.283386	-0.027997	0.000127
C132	C	0.740871	0.283371	0.752468
C133	C	0.786058	0.233182	0.808725
H134	H	0.705944	0.322170	0.781836
H135	H	0.772365	0.313547	0.718705
H136	H	0.713651	0.248429	0.718721
H137	H	0.813283	0.268123	0.842469
H138	H	0.754561	0.203004	0.842503
C139	C	0.651138	-0.110639	0.000093
C140	C	0.694536	-0.042547	0.000089
H141	H	0.684047	-0.162103	0.000088
H142	H	0.619976	-0.108006	0.048039
H143	H	0.619967	-0.107991	-0.047855
H144	H	0.725703	-0.045191	0.048041
H145	H	0.725711	-0.045181	-0.047862
H146	H	0.826754	-0.429535	0.125194
C147	C	0.702818	-0.325913	0.071243
C148	C	0.740816	-0.303249	0.000166
H149	H	0.652398	-0.298037	0.071295
H150	H	0.701307	-0.385265	0.071729
H151	H	0.728973	-0.309794	0.118911
H152	H	0.714664	-0.319374	-0.047502
H153	H	0.742323	-0.243884	-0.000327
C154	C	0.826196	0.284664	0.577278
C155	C	0.786052	0.233192	0.627053
H156	H	0.791270	0.323478	0.547916
H157	H	0.857701	0.314824	0.611034
H158	H	0.856832	0.250595	0.539119
H159	H	0.755420	0.267261	0.665217
H160	H	0.754533	0.203030	0.593295
