data_functionalizedCrystal
_audit_creation_method	'MofGen! by Chris Wilmer'
_symmetry_space_group_name_H-M	'P1'
_symmetry_Int_Tables_number	1
_symmetry_cell_setting	triclinic
loop_
_symmetry_equiv_pos_as_xyz
  x,y,z
_cell_length_a	18.050589
_cell_length_b	12.759401
_cell_length_c	18.050582
_cell_angle_alpha	89.988208
_cell_angle_beta	89.981795
_cell_angle_gamma	90.027265
loop_
_atom_site_label
_atom_site_type_symbol
_atom_site_fract_x
_atom_site_fract_y
_atom_site_fract_z
Zn1	Zn	-0.295726	1.606086	-0.419873
Zn2	Zn	-0.419909	1.605960	-0.295693
Zn3	Zn	-0.295735	1.430409	-0.295704
Zn4	Zn	-0.419876	1.430336	-0.419848
O5	O	-0.357811	1.518198	-0.357779
O6	O	-0.312208	1.753091	-0.403406
O7	O	-0.403455	1.582651	-0.191769
O8	O	-0.191809	1.453797	-0.312191
O9	O	-0.403445	1.752998	-0.312171
O10	O	-0.191802	1.582866	-0.403417
O11	O	-0.312225	1.453674	-0.191778
O12	O	-0.312193	1.283378	-0.312166
O13	O	-0.403390	1.453671	-0.523776
O14	O	-0.403399	1.283324	-0.403374
O15	O	-0.312177	1.582795	-0.523794
O16	O	-0.523829	1.582579	-0.312147
O17	O	-0.523805	1.453549	-0.403363
C18	C	-0.357794	1.245230	-0.357769
C19	C	-0.357804	1.128454	-0.357782
C20	C	-0.310387	1.073633	-0.405362
C21	C	-0.310401	0.963909	-0.405367
C22	C	-0.405257	0.963836	-0.310210
C23	C	-0.405238	1.073558	-0.310202
C24	C	-0.262953	1.128529	-0.452942
C25	C	-0.215533	1.073708	-0.500526
C26	C	-0.215547	0.963984	-0.500531
C27	C	-0.262982	0.909081	-0.452951
C28	C	-0.550764	1.518071	-0.357767
C29	C	-0.633309	1.518113	-0.357787
C30	C	-0.832774	1.448015	-0.407373
C31	C	-0.882208	1.422412	-0.339606
C32	C	-0.784440	1.518216	-0.357796
C33	C	-0.882088	1.543870	-0.425570
C34	C	-0.930425	1.518314	-0.357812
C35	C	-0.832786	1.492563	-0.289994
C36	C	-0.832662	1.614066	-0.376004
C37	C	-0.882073	1.588499	-0.308191
C38	C	-0.700341	1.518157	-0.357788
C39	C	-1.014521	1.518373	-0.357812
C40	C	-0.164106	1.518354	-0.357808
C41	C	-0.081560	1.518420	-0.357820
C42	C	-0.357779	1.518239	-0.551485
C43	C	-0.357764	1.518256	-0.634031
C44	C	-0.357830	1.792231	-0.357790
C45	C	-0.357837	1.909008	-0.357795
C46	C	-0.407298	1.448093	-0.833471
C47	C	-0.425453	1.543946	-0.882861
C48	C	-0.357708	1.518308	-0.785161
C49	C	-0.339533	1.422508	-0.882854
C50	C	-0.357654	1.518350	-0.931146
C51	C	-0.375898	1.614211	-0.833463
C52	C	-0.289946	1.492709	-0.833452
C53	C	-0.308075	1.588628	-0.882819
C54	C	-0.357740	1.518283	-0.701063
C55	C	-0.357622	1.518386	-1.015243
C56	C	-0.357791	1.518217	-0.164827
C57	C	-0.357596	1.518403	-0.082282
H58	H	-0.443877	0.919125	-0.271474
F59	F	-0.215095	1.464340	-0.805062
H60	H	-0.482735	1.565623	-0.904563
F61	F	-0.165047	1.132141	-0.551155
H62	H	-0.324182	1.341474	-0.904550
H63	H	-0.262974	0.819736	-0.452943
H64	H	-0.266115	1.648093	-0.904350
F65	F	-0.165073	0.905642	-0.551168
H66	H	-0.811220	1.470809	-0.232669
H67	H	-0.262936	1.217872	-0.452943
F68	F	-0.455711	1.131906	-0.259568
H69	H	-0.903584	1.647908	-0.266224
H70	H	-0.391313	1.695269	-0.811859
H71	H	-0.811126	1.388561	-0.449238
F72	F	-0.910651	1.316519	-0.319478
F73	F	-0.910397	1.572180	-0.500477
F74	F	-0.462182	1.370553	-0.805148
F75	F	-0.804196	1.719930	-0.396156
