data_functionalizedCrystal
_audit_creation_method	'MofGen! by Chris Wilmer'
_symmetry_space_group_name_H-M	'P1'
_symmetry_Int_Tables_number	1
_symmetry_cell_setting	triclinic
loop_
_symmetry_equiv_pos_as_xyz
  x,y,z
_cell_length_a	11.792241
_cell_length_b	19.188930
_cell_length_c	10.268362
_cell_angle_alpha	89.989600
_cell_angle_beta	89.999728
_cell_angle_gamma	96.330901
loop_
_atom_site_label
_atom_site_type_symbol
_atom_site_fract_x
_atom_site_fract_y
_atom_site_fract_z
O1	O	-1.505476	0.095695	-0.108170
O2	O	-1.174988	0.105558	-0.108207
O3	O	-1.349769	-0.000975	-0.108162
O4	O	-1.330695	0.202228	-0.108215
O5	O	-1.349754	-0.000980	0.108439
O6	O	-1.174973	0.105553	0.108394
O7	O	-1.505461	0.095691	0.108430
Cu8	Cu	-1.340216	0.100622	0.128190
Cu9	Cu	-1.340233	0.100627	-0.127966
O10	O	-1.330680	0.202224	0.108386
C11	C	-1.132699	0.104936	0.000089
C12	C	-1.006713	0.103082	0.000077
C13	C	-0.776051	0.099672	0.000112
C14	C	-0.904408	0.101566	0.000093
C15	C	-1.349144	-0.026992	0.000142
C16	C	-1.347290	-0.104507	0.000153
C17	C	-1.449846	-0.148850	0.000170
C18	C	-1.448104	-0.221684	0.000149
C19	C	-1.343800	-0.250171	0.000137
C20	C	-1.241230	-0.205818	0.000112
C21	C	-1.242975	-0.132986	0.000120
N22	N	-1.264067	-0.358629	0.073842
N23	N	-1.262416	-0.427817	0.073837
C24	C	-1.338536	-0.469609	0.000110
N25	N	-1.416387	-0.439602	-0.073595
N26	N	-1.418041	-0.370407	-0.073585
C27	C	-1.341896	-0.329144	0.000128
C28	C	-1.439211	-0.592928	0.000103
C29	C	-1.437464	-0.665762	0.000074
C30	C	-1.230588	-0.649895	0.000050
C31	C	-1.232337	-0.577062	0.000066
C32	C	-1.336652	-0.548583	0.000099
C33	C	-0.547751	0.096313	0.000128
C34	C	-0.673737	0.098167	0.000123
C35	C	-1.331305	0.228240	0.000079
C36	C	-1.333159	0.305755	0.000059
N37	N	-1.340211	0.100617	0.308355
N38	N	-1.340247	0.100625	-0.308132
C39	C	-1.340228	0.100625	0.574026
C40	C	-1.340215	0.100623	0.426188
H41	H	-1.531620	-0.257795	0.000158
H42	H	-1.156305	-0.229017	0.000099
H43	H	-1.159459	-0.096881	0.000106
C44	C	-1.564592	-0.117527	0.000189
C45	C	-1.594241	-0.069653	0.112670
C46	C	-1.708988	-0.038329	0.112685
C47	C	-1.794085	-0.054879	0.000218
C48	C	-1.764438	-0.102755	-0.112271
C49	C	-1.649692	-0.134079	-0.112286
H50	H	-1.531244	-0.057399	0.195932
H51	H	-1.730934	-0.002887	0.195957
H52	H	-1.879028	-0.031691	0.000229
H53	H	-1.827435	-0.115009	-0.195533
H54	H	-1.627745	-0.169520	-0.195558
H55	H	-1.524150	-0.569739	0.000124
H56	H	-1.520981	-0.701866	0.000081
H57	H	-1.145661	-0.673089	0.000033
C58	C	-1.119522	-0.528280	0.000070
C59	C	-1.004787	-0.559610	0.000060
C60	C	-0.891966	-0.510827	0.000063
C61	C	-0.893880	-0.430714	0.000075
C62	C	-1.008620	-0.399380	0.000085
C63	C	-1.121441	-0.448163	0.000083
H64	H	-1.003365	-0.618918	0.000051
H65	H	-0.807028	-0.534023	0.000055
H66	H	-0.810363	-0.394602	0.000077
H67	H	-1.010041	-0.340072	0.000094
H68	H	-1.206379	-0.424967	0.000090
