data_functionalizedCrystal
_audit_creation_method	'MofGen! by Chris Wilmer'
_symmetry_space_group_name_H-M	'P1'
_symmetry_Int_Tables_number	1
_symmetry_cell_setting	triclinic
loop_
_symmetry_equiv_pos_as_xyz
  x,y,z
_cell_length_a	12.759401
_cell_length_b	16.625545
_cell_length_c	12.759393
_cell_angle_alpha	90.033904
_cell_angle_beta	90.019377
_cell_angle_gamma	90.027265
loop_
_atom_site_label
_atom_site_type_symbol
_atom_site_fract_x
_atom_site_fract_y
_atom_site_fract_z
Zn1	Zn	1.606176	-0.320917	0.593989
Zn2	Zn	2.106176	0.179083	1.093989
Zn3	Zn	1.606037	-0.455774	0.418302
Zn4	Zn	2.106037	0.044226	0.918302
Zn5	Zn	1.430478	-0.320963	0.418326
Zn6	Zn	1.930478	0.179037	0.918326
Zn7	Zn	1.430433	-0.455716	0.593941
Zn8	Zn	1.930433	0.044284	1.093941
O9	O	1.518281	-0.388343	0.506139
O10	O	2.018281	0.111657	1.006139
O11	O	1.753179	-0.338812	0.570694
O12	O	2.253179	0.161188	1.070694
O13	O	1.582709	-0.437935	0.271284
O14	O	2.082709	0.062065	0.771284
O15	O	1.453862	-0.208125	0.441658
O16	O	1.953862	0.291875	0.941658
O17	O	1.753077	-0.437890	0.441617
O18	O	2.253077	0.062110	0.941617
O19	O	1.582946	-0.208091	0.570717
O20	O	2.082946	0.291909	1.070717
O21	O	1.453727	-0.338890	0.271301
O22	O	1.953727	0.161110	0.771301
O23	O	1.283451	-0.338833	0.441611
O24	O	1.783451	0.161167	0.941611
O25	O	1.453786	-0.437791	0.740968
O26	O	1.953786	0.062209	1.240968
O27	O	1.283418	-0.437835	0.570635
O28	O	1.783418	0.062165	1.070635
O29	O	1.582903	-0.338755	0.741004
O30	O	2.082903	0.161245	1.241004
O31	O	1.582666	-0.568599	0.441571
O32	O	2.082666	-0.068599	0.941571
O33	O	1.453651	-0.568556	0.570612
O34	O	1.953651	-0.068556	1.070612
C35	C	1.245314	-0.388333	0.506121
C36	C	1.745314	0.111667	1.006121
C37	C	1.128537	-0.388349	0.506138
C38	C	1.628537	0.111651	1.006138
C39	C	0.964009	-0.336849	0.573464
C40	C	1.464009	0.163151	1.073464
C41	C	1.073733	-0.336846	0.573452
C42	C	1.573733	0.163154	1.073452
C43	C	1.073611	-0.439863	0.438838
C44	C	1.573611	0.060137	0.938838
C45	C	0.963889	-0.439868	0.438855
C46	C	1.463889	0.060132	0.938855
C47	C	0.964081	-0.277370	0.651179
C48	C	1.464081	0.222630	1.151179
C49	C	1.073805	-0.277368	0.651168
C50	C	1.573805	0.222632	1.151168
C51	C	1.518167	-0.597834	0.506106
C52	C	2.018167	-0.097834	1.006106
C53	C	1.518214	-0.687455	0.506127
C54	C	2.018214	-0.187455	1.006127
C55	C	1.518255	-0.760237	0.506148
C56	C	2.018255	-0.260237	1.006148
C57	C	1.518316	-0.851545	0.506171
C58	C	2.018316	-0.351545	1.006171
C59	C	1.518371	-0.924322	0.506185
C60	C	2.018371	-0.424322	1.006185
C61	C	1.518431	-1.015636	0.506206
C62	C	2.018431	-0.515636	1.006206
C63	C	1.792314	-0.388352	0.506158
C64	C	2.292314	0.111648	1.006158
C65	C	1.909091	-0.388357	0.506167
C66	C	2.409091	0.111643	1.006167
C67	C	1.518355	-0.388261	0.780173
C68	C	2.018355	0.111739	1.280173
C69	C	1.518386	-0.388227	0.896950
C70	C	2.018386	0.111773	1.396950
C71	C	1.518424	-0.178034	0.506196
C72	C	2.018424	0.321966	1.006196
C73	C	1.518485	-0.088413	0.506219
C74	C	2.018485	0.411587	1.006219
C75	C	1.518268	-0.388365	0.233172
C76	C	2.018268	0.111635	0.733172
C77	C	1.518441	-0.388173	0.116396
C78	C	2.018441	0.111827	0.616396
C79	C	1.585627	-0.336654	0.951832
C80	C	2.085627	0.163346	1.451832
C81	C	1.585652	-0.336625	1.061556
C82	C	2.085652	0.163375	1.561556
C83	C	1.451193	-0.439748	1.061506
C84	C	1.951193	0.060252	1.561506
C85	C	1.451163	-0.439773	0.951784
C86	C	1.951163	0.060227	1.451784
C87	C	1.663259	-0.277119	0.951861
C88	C	2.163259	0.222881	1.451861
C89	C	1.663284	-0.277089	1.061586
C90	C	2.163284	0.222911	1.561586
H91	H	0.930065	-0.218027	0.622175
H92	H	1.430065	0.281973	1.122175
Br93	Br	1.123487	-0.173255	0.615070
Br94	Br	1.623487	0.326745	1.115070
Br95	Br	1.359883	-0.509751	0.877303
Br96	Br	1.859883	-0.009751	1.377303
H97	H	1.396460	-0.481713	1.106165
H98	H	1.896460	0.018287	1.606165
H99	H	1.118241	-0.481803	0.384037
H100	H	1.618241	0.018197	0.884037
Br101	Br	1.627005	-0.173046	0.902261
Br102	Br	2.127005	0.326954	1.402261
Br103	Br	1.130578	-0.314764	0.779901
Br104	Br	1.630578	0.185236	1.279901
H105	H	0.934336	-0.294166	0.732517
H106	H	1.434336	0.205834	1.232517
Br107	Br	1.792039	-0.314424	0.895121
Br108	Br	2.292039	0.185576	1.395121
Br109	Br	1.614613	-0.178255	1.118351
Br110	Br	2.114613	0.321745	1.618351
Br111	Br	1.798899	-0.304946	1.111229
Br112	Br	2.298899	0.195054	1.611229
H113	H	0.919179	-0.481818	0.384065
H114	H	1.419179	0.018182	0.884065
