data_functionalizedCrystal
_audit_creation_method	'MofGen! by Chris Wilmer'
_symmetry_space_group_name_H-M	'P1'
_symmetry_Int_Tables_number	1
_symmetry_cell_setting	triclinic
loop_
_symmetry_equiv_pos_as_xyz
  x,y,z
_cell_length_a	19.188905
_cell_length_b	9.065218
_cell_length_c	8.140239
_cell_angle_alpha	90.001686
_cell_angle_beta	89.990158
_cell_angle_gamma	95.924779
loop_
_atom_site_label
_atom_site_type_symbol
_atom_site_fract_x
_atom_site_fract_y
_atom_site_fract_z
O1	O	0.927584	-0.183998	-0.136878
O2	O	0.724463	-0.208830	-0.136821
O3	O	0.830222	0.018375	-0.136848
O4	O	0.821825	-0.411203	-0.136852
O5	O	0.830216	0.018377	0.136380
O6	O	0.724457	-0.208827	0.136406
O7	O	0.927578	-0.183995	0.136349
Zn8	Zn	0.826017	-0.196411	0.179758
Zn9	Zn	0.826024	-0.196414	-0.180230
O10	O	0.821819	-0.411200	0.136375
C11	C	0.698442	-0.208031	-0.000200
C12	C	0.620918	-0.205635	-0.000179
C13	C	0.584521	-0.204486	-0.149119
C14	C	0.511680	-0.202219	-0.149140
C15	C	0.475240	-0.201071	-0.000211
C16	C	0.511646	-0.202229	0.148749
C17	C	0.584485	-0.204511	0.148765
N18	N	0.365538	-0.113536	0.110623
N19	N	0.296344	-0.111365	0.110597
C20	C	0.255780	-0.194199	-0.000251
N21	N	0.287026	-0.279267	-0.111098
N22	N	0.356226	-0.281432	-0.111077
C23	C	0.396259	-0.198598	-0.000212
C24	C	0.140400	-0.190593	-0.149224
C25	C	0.067557	-0.188335	-0.149238
C26	C	0.067526	-0.188330	0.148655
C27	C	0.140366	-0.190603	0.148665
C28	C	0.176800	-0.191728	-0.000279
C29	C	0.829412	0.073335	-0.000236
C30	C	0.826999	0.237093	-0.000244
C31	C	0.953598	-0.184795	-0.000275
C32	C	1.031122	-0.187190	-0.000308
C33	C	0.822629	-0.466160	-0.000239
C34	C	0.825042	-0.629919	-0.000243
N35	N	0.826016	-0.196408	0.425441
N36	N	0.826030	-0.196406	-0.425913
H37	H	0.037923	-0.187408	-0.270528
H38	H	0.482039	-0.201285	-0.270429
H39	H	0.614180	-0.205401	-0.270401
C40	C	0.180405	-0.191818	0.312514
C41	C	0.163248	-0.319551	0.435419
C42	C	0.203283	-0.320757	0.599280
C43	C	0.260475	-0.194230	0.640237
C44	C	0.277635	-0.066488	0.517328
C45	C	0.237600	-0.065282	0.353467
H46	H	0.120908	-0.413222	0.405103
H47	H	0.190580	-0.415321	0.690265
H48	H	0.290112	-0.195123	0.761537
H49	H	0.319974	0.027184	0.547644
H50	H	0.250303	0.029282	0.262483
C51	C	0.471566	-0.200964	0.312572
C52	C	0.414353	-0.327462	0.353519
C53	C	0.374273	-0.326205	0.517348
C54	C	0.391406	-0.198450	0.640231
C55	C	0.448622	-0.071942	0.599288
C56	C	0.488702	-0.073199	0.435458
H57	H	0.401667	-0.422043	0.262551
H58	H	0.331918	-0.419855	0.547657
H59	H	0.361737	-0.197519	0.761507
H60	H	0.461308	0.022639	0.690256
H61	H	0.531057	0.020452	0.405150
H62	H	0.037857	-0.187405	0.269916
H63	H	0.614120	-0.205448	0.270054
H64	H	0.170065	-0.191524	-0.270503
