data_functionalizedCrystal
_audit_creation_method	'MofGen! by Chris Wilmer'
_symmetry_space_group_name_H-M	'P1'
_symmetry_Int_Tables_number	1
_symmetry_cell_setting	triclinic
loop_
_symmetry_equiv_pos_as_xyz
  x,y,z
_cell_length_a	19.288840
_cell_length_b	9.016244
_cell_length_c	19.288865
_cell_angle_alpha	89.992525
_cell_angle_beta	96.868869
_cell_angle_gamma	90.014551
loop_
_atom_site_label
_atom_site_type_symbol
_atom_site_fract_x
_atom_site_fract_y
_atom_site_fract_z
O1	O	0.921363	0.123605	-0.086562
O2	O	0.719099	0.123556	-0.098269
O3	O	0.826075	0.123552	0.008715
O4	O	0.814387	0.123608	-0.193546
O5	O	0.826060	-0.123128	0.008713
O6	O	0.719084	-0.123125	-0.098271
O7	O	0.921347	-0.123076	-0.086564
Cu8	Cu	0.820214	-0.145624	-0.092418
Cu9	Cu	0.820232	0.146104	-0.092415
O10	O	0.814371	-0.123072	-0.193549
C11	C	0.693215	0.000209	-0.097896
C12	C	0.616110	0.000189	-0.096774
N13	N	0.820206	-0.350810	-0.092420
C14	C	0.579915	0.134658	-0.096234
C15	C	0.507468	0.134676	-0.095172
C16	C	0.471221	0.000217	-0.094636
C17	C	0.507424	-0.134270	-0.095181
C18	C	0.579869	-0.134284	-0.096250
C19	C	0.361887	-0.102789	-0.052259
C20	C	0.289444	-0.102769	-0.051186
C21	C	0.247778	0.000255	-0.091342
C22	C	0.278564	0.103283	-0.132563
C23	C	0.351008	0.103269	-0.133632
C24	C	0.392667	0.000217	-0.093477
C25	C	0.133027	0.134752	-0.089651
C26	C	0.060578	0.134765	-0.088593
C27	C	0.060537	-0.134185	-0.088595
C28	C	0.132983	-0.134194	-0.089660
C29	C	0.169225	0.000279	-0.090185
C30	C	0.762810	-0.585841	-0.149462
C31	C	0.762933	-0.413950	-0.149671
C32	C	0.892634	-0.413126	-0.108017
C33	C	0.892319	-0.585070	-0.108420
C34	C	0.805898	-0.585379	-0.019587
C35	C	0.804226	-0.413425	-0.020081
C36	C	0.947232	0.000275	-0.086937
C37	C	1.024336	0.000304	-0.088059
C38	C	0.825692	0.000208	0.034591
C39	C	0.824563	0.000194	0.111694
N40	N	0.820246	0.351290	-0.092408
C41	C	0.814755	0.000276	-0.219424
C42	C	0.815884	0.000299	-0.296527
C43	C	0.887331	0.000202	0.156396
C44	C	0.886270	0.000225	0.228843
C45	C	0.822438	0.000211	0.256585
C46	C	0.759661	0.000211	0.211873
C47	C	0.760723	0.000203	0.139428
C48	C	0.772252	-0.086208	0.364867
C49	C	0.771192	-0.086209	0.437311
C50	C	0.819158	0.000243	0.480030
C51	C	0.868195	0.086677	0.450297
C52	C	0.869258	0.086669	0.377852
C53	C	0.821278	0.000221	0.335139
C54	C	0.880781	0.000278	0.603288
C55	C	0.879717	0.000311	0.675736
C56	C	0.753106	0.000282	0.658764
C57	C	0.754171	0.000264	0.586318
C58	C	0.818010	0.000256	0.558584
H59	H	0.477993	0.244180	-0.094733
O60	O	0.691258	-0.640694	-0.137406
H61	H	0.651666	-0.594852	-0.178290
H62	H	0.937386	0.000238	0.265246
O63	O	0.919933	0.179944	0.496360
H64	H	0.910951	0.165450	0.551730
O65	O	0.947425	0.000314	0.723950
H66	H	0.949987	0.100871	0.757348
O67	O	0.021436	-0.279216	-0.088149
H68	H	-0.035027	-0.256618	-0.087359
O69	O	0.718309	-0.179438	0.469379
H70	H	0.664838	-0.143858	0.448285
H71	H	0.939314	0.000200	0.133820
H72	H	0.771821	-0.629016	-0.203202
H73	H	0.772067	-0.372785	-0.203717
O74	O	0.950621	-0.640167	-0.055463
H75	H	0.942439	-0.598951	-0.002834
H76	H	0.936381	-0.372222	-0.067559
H77	H	0.904997	-0.625141	-0.161521
O78	O	0.922133	0.179909	0.345778
H79	H	0.955306	0.240043	0.387647
H80	H	0.932763	0.000278	0.580706
O81	O	0.909834	-0.356070	-0.177557
H82	H	0.866915	-0.283349	-0.201116
O83	O	0.691606	-0.358135	-0.137427
H84	H	0.696255	-0.289538	-0.089316
H85	H	0.843356	-0.370452	0.024346
H86	H	0.264385	-0.186654	-0.017619
H87	H	0.701132	0.000277	0.681351
O88	O	0.172028	-0.279229	-0.090253
H89	H	0.134654	-0.372727	-0.089704
H90	H	0.162536	0.244248	-0.090086
O91	O	0.384216	0.214365	-0.178095
H92	H	0.343077	0.286004	-0.205846
H93	H	0.750949	-0.372700	-0.008238
O94	O	0.686470	0.000219	0.538096
H95	H	0.641904	0.000195	0.569555
O96	O	0.233635	0.214407	-0.175884
H97	H	0.178087	0.197100	-0.168226
H98	H	0.031109	0.244270	-0.088158
H99	H	0.754247	-0.628844	-0.004530
H100	H	0.609339	-0.243789	-0.096690
O101	O	0.720518	-0.179466	0.318793
H102	H	0.686250	-0.239586	0.351638
O103	O	0.406827	-0.213906	-0.008942
H104	H	0.373253	-0.285524	0.019910
H105	H	0.707687	0.000203	0.234465
H106	H	0.477907	-0.243748	-0.094746
O107	O	0.693021	0.000168	0.091206
H108	H	0.648453	0.000152	0.122664
H109	H	0.609419	0.244157	-0.096661
O110	O	0.861373	-0.639237	0.036656
H111	H	0.898987	-0.710764	0.012906
