data_functionalizedCrystal
_audit_creation_method	'MofGen! by Chris Wilmer'
_symmetry_space_group_name_H-M	'P1'
_symmetry_Int_Tables_number	1
_symmetry_cell_setting	triclinic
loop_
_symmetry_equiv_pos_as_xyz
  x,y,z
_cell_length_a	21.395364
_cell_length_b	21.395361
_cell_length_c	21.395355
_cell_angle_alpha	90.021511
_cell_angle_beta	90.025600
_cell_angle_gamma	90.028209
loop_
_atom_site_label
_atom_site_type_symbol
_atom_site_fract_x
_atom_site_fract_y
_atom_site_fract_z
Zn1	Zn	-0.957859	0.249553	-0.354266
Zn2	Zn	-0.457859	0.749553	0.145734
Zn3	Zn	-0.957762	0.354313	-0.249483
Zn4	Zn	-0.457762	0.854313	0.250517
Zn5	Zn	-0.853074	0.249548	-0.249501
Zn6	Zn	-0.353074	0.749548	0.250499
Zn7	Zn	-0.853043	0.354292	-0.354221
Zn8	Zn	-0.353043	0.854292	0.145779
O9	O	-0.905434	0.301926	-0.301868
O10	O	-0.405434	0.801926	0.198132
O11	O	-1.045524	0.263460	-0.340377
O12	O	-0.545524	0.763460	0.159623
O13	O	-0.943847	0.340422	-0.161807
O14	O	-0.443847	0.840422	0.338193
O15	O	-0.867028	0.161871	-0.263424
O16	O	-0.367028	0.661871	0.236576
O17	O	-1.045452	0.340427	-0.263394
O18	O	-0.545452	0.840427	0.236606
O19	O	-0.944013	0.161874	-0.340395
O20	O	-0.444013	0.661874	0.159605
O21	O	-0.866933	0.263452	-0.161820
O22	O	-0.366933	0.763452	0.338180
O23	O	-0.765392	0.263432	-0.263381
O24	O	-0.265392	0.763432	0.236619
O25	O	-0.866975	0.340391	-0.441905
O26	O	-0.366975	0.840391	0.058095
O27	O	-0.765369	0.340387	-0.340319
O28	O	-0.265369	0.840387	0.159681
O29	O	-0.943983	0.263440	-0.441938
O30	O	-0.443983	0.763440	0.058062
O31	O	-0.943817	0.441988	-0.263351
O32	O	-0.443817	0.941988	0.236649
O33	O	-0.866881	0.441973	-0.340301
O34	O	-0.366881	0.941973	0.159699
C35	C	-0.742647	0.301907	-0.301847
C36	C	-0.242647	0.801907	0.198153
C37	C	-0.673006	0.301914	-0.301853
C38	C	-0.173006	0.801914	0.198147
C39	C	-0.171214	0.342060	-0.341879
C40	C	0.328786	0.842060	0.158121
C41	C	-0.236649	0.342061	-0.341874
C42	C	0.263351	0.842061	0.158126
C43	C	-0.269367	0.301931	-0.301878
C44	C	0.230633	0.801931	0.198122
C45	C	-0.236644	0.261809	-0.261873
C46	C	0.263356	0.761809	0.238127
C47	C	-0.171210	0.261813	-0.261876
C48	C	0.328790	0.761813	0.238124
C49	C	-0.373056	0.245467	-0.297031
C50	C	0.126944	0.745467	0.202969
C51	C	-0.438489	0.245462	-0.297033
C52	C	0.061511	0.745462	0.202967
C53	C	-0.471188	0.301917	-0.301867
C54	C	0.028812	0.801917	0.198133
C55	C	-0.438446	0.358380	-0.306712
C56	C	0.061554	0.858380	0.193288
C57	C	-0.373012	0.358385	-0.306714
C58	C	0.126988	0.858385	0.193286
C59	C	-0.340320	0.301922	-0.301871
C60	C	0.159680	0.801922	0.198129
C61	C	-0.574856	0.342041	-0.341860
C62	C	-0.074856	0.842041	0.158140
C63	C	-0.640292	0.342044	-0.341850
C64	C	-0.140292	0.842044	0.158150
C65	C	-0.640286	0.261786	-0.261853
C66	C	-0.140286	0.761786	0.238147
C67	C	-0.574850	0.261790	-0.261860
C68	C	-0.074850	0.761790	0.238140
C69	C	-0.542139	0.301916	-0.301867
C70	C	-0.042139	0.801916	0.198133
C71	C	-0.905486	0.301914	-0.465291
C72	C	-0.405486	0.801914	0.034709
C73	C	-0.905509	0.301908	-0.534932
C74	C	-0.405509	0.801908	-0.034932
C75	C	-0.905352	0.464714	-0.301833
C76	C	-0.405352	0.964714	0.198167
C77	C	-0.905374	0.534355	-0.301839
C78	C	-0.405374	1.034355	0.198161
C79	C	-0.068858	0.301942	-0.301885
C80	C	0.431142	0.801942	0.198115
C81	C	-0.138499	0.301940	-0.301882
C82	C	0.361501	0.801940	0.198118
C83	C	-0.905535	0.138503	-0.301916
C84	C	-0.405535	0.638503	0.198084
C85	C	-0.905577	0.068862	-0.301937
C86	C	-0.405577	0.568862	0.198063
C87	C	-0.945470	0.567056	-0.261812
C88	C	-0.445470	1.067056	0.238188
C89	C	-0.945499	0.632491	-0.261826
C90	C	-0.445499	1.132491	0.238174
C91	C	-0.905421	0.665224	-0.301860
C92	C	-0.405421	1.165224	0.198140
C93	C	-0.865322	0.632516	-0.341895
C94	C	-0.365322	1.132516	0.158105
C95	C	-0.865298	0.567081	-0.341885
C96	C	-0.365298	1.067081	0.158115
C97	C	-0.849006	0.768936	-0.306769
C98	C	-0.349006	1.268936	0.193231
C99	C	-0.849029	0.834369	-0.306776
C100	C	-0.349029	1.334369	0.193224
C101	C	-0.905494	0.867044	-0.301897
C102	C	-0.405494	1.367044	0.198103
C103	C	-0.961938	0.834278	-0.296999
C104	C	-0.461938	1.334278	0.203001
C105	C	-0.961915	0.768844	-0.296988
C106	C	-0.461915	1.268844	0.203012
C107	C	-0.905442	0.736176	-0.301877
C108	C	-0.405442	1.236176	0.198123
C109	C	-0.945625	0.970697	-0.261883
C110	C	-0.445625	1.470697	0.238117
C111	C	-0.945655	1.036134	-0.261901
C112	C	-0.445655	1.536134	0.238099
C113	C	-0.865472	1.036157	-0.341968
C114	C	-0.365472	1.536157	0.158032
C115	C	-0.865448	0.970722	-0.341953
C116	C	-0.365448	1.470722	0.158047
C117	C	-0.905523	0.937996	-0.301907
C118	C	-0.405523	1.437996	0.198093
C119	C	-0.945605	0.261838	-0.567664
C120	C	-0.445605	0.761838	-0.067664
C121	C	-0.945604	0.261811	-0.633099
C122	C	-0.445604	0.761811	-0.133099
C123	C	-0.905513	0.301866	-0.665801
C124	C	-0.405513	0.801866	-0.165801
C125	C	-0.865409	0.341939	-0.633062
C126	C	-0.365409	0.841939	-0.133062
C127	C	-0.865407	0.341960	-0.567627
C128	C	-0.365407	0.841960	-0.067627
C129	C	-0.900538	0.358281	-0.769463
C130	C	-0.400538	0.858281	-0.269463
C131	C	-0.900544	0.358261	-0.834896
C132	C	-0.400544	0.858261	-0.334896
C133	C	-0.905517	0.301800	-0.867622
C134	C	-0.405517	0.801800	-0.367622
C135	C	-0.910497	0.245357	-0.834906
C136	C	-0.410497	0.745357	-0.334906
C137	C	-0.910494	0.245378	-0.769472
C138	C	-0.410494	0.745378	-0.269472
C139	C	-0.905511	0.301847	-0.736753
C140	C	-0.405511	0.801847	-0.236753
C141	C	-0.945615	0.261697	-0.971305
C142	C	-0.445615	0.761697	-0.471305
C143	C	-0.945610	0.261669	-1.036742
C144	C	-0.445610	0.761669	-0.536742
C145	C	-0.865418	0.341802	-1.036703
C146	C	-0.365418	0.841802	-0.536703
C147	C	-0.865420	0.341824	-0.971268
C148	C	-0.365420	0.841824	-0.471268
C149	C	-0.905522	0.301773	-0.938573
C150	C	-0.405522	0.801773	-0.438573
C151	C	-0.905419	0.301894	-0.139080
C152	C	-0.405419	0.801894	0.360920
C153	C	-0.905518	0.301723	-0.069439
C154	C	-0.405518	0.801723	0.430561
H155	H	-0.465143	0.199486	-0.293095
H156	H	0.034857	0.699486	0.206905
H157	H	-0.978254	0.229178	-0.659754
H158	H	-0.478254	0.729178	-0.159754
H159	H	-0.263291	0.374731	-0.374446
H160	H	0.236709	0.874731	0.125554
F161	F	-0.988176	0.667300	-0.219221
F162	F	-0.488176	1.167300	0.280779
H163	H	-0.832766	0.374549	-0.659691
H164	H	-0.332766	0.874549	-0.159691
H165	H	-0.896320	0.404246	-0.742824
H166	H	-0.396320	0.904246	-0.242824
F167	F	-0.988282	0.219209	-0.532871
F168	F	-0.488282	0.719209	-0.032871
F169	F	-0.988291	0.219068	-0.936507
F170	F	-0.488291	0.719068	-0.436507
H171	H	-0.978260	0.229035	-1.063391
H172	H	-0.478260	0.729035	-0.563391
H173	H	-0.803068	0.861042	-0.310758
H174	H	-0.303068	1.361042	0.189242
F175	F	-0.988275	0.935866	-0.219263
F176	F	-0.488275	1.435866	0.280737
H177	H	-0.832770	0.374409	-1.063328
H178	H	-0.332770	0.874409	-0.563328
F179	F	-0.822769	0.935918	-0.384553
F180	F	-0.322769	1.435918	0.115447
H181	H	-0.978310	1.062757	-0.229308
H182	H	-0.478310	1.562757	0.270692
F183	F	-0.271466	0.219102	-0.219305
F184	F	0.228534	0.719102	0.280695
F185	F	-0.822821	1.070989	-0.384580
F186	F	-0.322821	1.570989	0.115420
H187	H	-0.666924	0.229114	-0.229286
H188	H	-0.166924	0.729114	0.270714
H189	H	-0.803022	0.742339	-0.310744
H190	H	-0.303022	1.242339	0.189256
H191	H	-0.548221	0.374716	-0.374435
H192	H	-0.048221	0.874716	0.125565
F193	F	-0.136404	0.384769	-0.384455
F194	F	0.363596	0.884769	0.115545
F195	F	-0.540031	0.219084	-0.219293
F196	F	-0.040031	0.719084	0.280707
H197	H	-0.144574	0.229141	-0.229305
H198	H	0.355426	0.729141	0.270695
F199	F	-0.675110	0.384751	-0.384419
F200	F	-0.175110	0.884751	0.115581
H201	H	-0.832773	0.374458	-0.944618
H202	H	-0.332773	0.874458	-0.444618
H203	H	-0.346438	0.199492	-0.293084
H204	H	0.153562	0.699492	0.206916
H205	H	-0.978103	0.540412	-0.229206
H206	H	-0.478103	1.040412	0.270794
F207	F	-0.822670	0.667353	-0.384505
F208	F	-0.322670	1.167353	0.115495
F209	F	-0.822620	0.532278	-0.384489
F210	F	-0.322620	1.032278	0.115511
H211	H	-0.914547	0.199421	-0.742837
H212	H	-0.414547	0.699421	-0.242837
H213	H	-0.832753	0.374589	-0.540978
H214	H	-0.332753	0.874589	-0.040978
F215	F	-0.895250	0.418331	-0.869709
F216	F	-0.395250	0.918331	-0.369709
F217	F	-0.915792	0.185262	-0.869729
F218	F	-0.415792	0.685262	-0.369729
H219	H	-0.346356	0.404359	-0.310658
H220	H	0.153644	0.904359	0.189342
F221	F	-0.473241	0.418470	-0.311856
F222	F	0.026759	0.918470	0.188144
H223	H	-1.007918	0.860881	-0.293027
H224	H	-0.507918	1.360881	0.206973
F225	F	-1.021985	0.733975	-0.291780
F226	F	-0.521985	1.233975	0.208220
