data_functionalizedCrystal
_audit_creation_method	'MofGen! by Chris Wilmer'
_symmetry_space_group_name_H-M	'P1'
_symmetry_Int_Tables_number	1
_symmetry_cell_setting	triclinic
loop_
_symmetry_equiv_pos_as_xyz
  x,y,z
_cell_length_a	15.297327
_cell_length_b	12.759401
_cell_length_c	12.759393
_cell_angle_alpha	89.981504
_cell_angle_beta	80.358266
_cell_angle_gamma	80.293454
loop_
_atom_site_label
_atom_site_type_symbol
_atom_site_fract_x
_atom_site_fract_y
_atom_site_fract_z
Zn1	Zn	-0.359102	-1.533799	0.666297
Zn2	Zn	-0.509990	-1.503249	0.521002
Zn3	Zn	-0.359150	-1.358091	0.490645
Zn4	Zn	-0.509920	-1.327659	0.696630
O5	O	-0.434541	-1.430699	0.593643
O6	O	-0.379127	-1.676766	0.647033
O7	O	-0.490029	-1.483944	0.369964
O8	O	-0.232898	-1.406921	0.488547
O9	O	-0.489984	-1.654320	0.540286
O10	O	-0.232864	-1.536012	0.617597
O11	O	-0.379208	-1.377297	0.347661
O12	O	-0.379140	-1.207035	0.517960
O13	O	-0.489865	-1.355053	0.839617
O14	O	-0.489911	-1.184677	0.669295
O15	O	-0.379060	-1.506503	0.817332
O16	O	-0.636226	-1.454435	0.569698
O17	O	-0.636175	-1.325430	0.698731
C18	C	-0.434524	-1.157735	0.593626
C19	C	-0.434539	-1.040956	0.593648
C20	C	-0.668934	-1.383343	0.640823
C21	C	-0.769208	-1.363180	0.661042
C22	C	-0.434450	-1.430791	0.867659
C23	C	-0.434411	-1.430831	0.984427
C24	C	-1.051846	-1.575241	0.449495
C25	C	-0.957633	-1.594185	0.430493
C26	C	-0.910523	-1.536436	0.488129
C27	C	-0.957634	-1.459739	0.564769
C28	C	-1.051856	-1.440787	0.583767
C29	C	-0.910532	-1.401982	0.622401
C30	C	-0.957643	-1.325285	0.699042
C31	C	-1.051856	-1.306338	0.718037
C32	C	-1.098967	-1.364087	0.660401
C33	C	-0.816310	-1.420933	0.603403
C34	C	-0.816320	-1.286480	0.737676
C35	C	-0.910532	-1.267536	0.756677
C36	C	-0.199232	-1.478269	0.546302
C37	C	-0.098957	-1.498541	0.526129
C38	C	-0.434558	-1.704729	0.593662
C39	C	-0.434565	-1.821504	0.593670
C40	C	-0.492309	-0.974461	0.672355
C41	C	-0.492321	-0.864734	0.672369
C42	C	-0.376788	-0.888009	0.514958
C43	C	-0.376773	-0.997734	0.514949
C44	C	-0.550075	-1.017683	0.751054
C45	C	-0.607851	-0.951186	0.829768
C46	C	-0.607862	-0.841460	0.829781
C47	C	-0.550098	-0.798230	0.751081
C48	C	-0.434566	-1.430681	0.320681
C49	C	-0.434351	-1.430897	0.203862
C50	C	-0.376709	-1.509701	1.027686
C51	C	-0.376676	-1.509733	1.137404
C52	C	-0.492055	-1.352019	1.160596
C53	C	-0.492083	-1.351984	1.050879
C54	C	-0.319037	-1.588548	0.961234
C55	C	-0.261331	-1.667426	1.004492
C56	C	-0.261299	-1.667457	1.114210
C57	C	-0.318972	-1.588611	1.180669
H58	H	-0.777960	-1.483380	0.541002
N59	N	-0.199066	-1.752521	1.160880
H60	H	-0.157242	-1.718291	1.197987
H61	H	-0.162595	-1.802439	1.102084
H62	H	-0.329760	-0.852801	0.450883
H63	H	-0.654900	-0.787322	0.893880
N64	N	-0.554246	-1.266984	1.232283
H65	H	-0.596044	-1.301239	1.286218
H66	H	-0.590746	-1.217030	1.188160
H67	H	-0.329724	-1.051878	0.450865
H68	H	-0.948904	-1.205089	0.819079
H69	H	-0.319059	-1.588533	0.871896
H70	H	-0.919279	-1.656629	0.368092
N71	N	-0.199138	-1.752471	0.932821
H72	H	-0.207919	-1.740492	0.856753
H73	H	-0.213197	-1.824660	0.954846
N74	N	-0.554325	-1.266924	1.004218
H75	H	-0.545588	-1.278866	0.924629
H76	H	-0.540274	-1.194735	1.020565
H77	H	-0.654875	-0.986393	0.893847
N78	N	-0.318930	-1.588633	1.299006
H79	H	-0.273621	-1.650559	1.316328
H80	H	-0.380841	-1.595402	1.337810
H81	H	-0.833810	-1.551863	0.472652
H82	H	-1.090213	-1.622246	0.402570
N83	N	-0.765514	-1.224186	0.799838
H84	H	-0.726362	-1.274730	0.840669
H85	H	-0.809709	-1.172719	0.851206
N86	N	-1.200585	-1.343655	0.680900
H87	H	-1.223276	-1.391881	0.632761
H88	H	-1.223274	-1.266995	0.666132
N89	N	-1.102662	-1.223601	0.800685
H90	H	-1.086206	-1.243186	0.872448
H91	H	-1.169480	-1.220387	0.803884
N92	N	-0.550068	-1.136027	0.751032
H93	H	-0.595428	-1.153321	0.812827
H94	H	-0.488169	-1.174886	0.757973
H95	H	-0.550104	-0.708884	0.751106
