data_functionalizedCrystal
_audit_creation_method	'MofGen! by Chris Wilmer'
_symmetry_space_group_name_H-M	'P1'
_symmetry_Int_Tables_number	1
_symmetry_cell_setting	triclinic
loop_
_symmetry_equiv_pos_as_xyz
  x,y,z
_cell_length_a	19.805405
_cell_length_b	18.215407
_cell_length_c	18.215399
_cell_angle_alpha	89.979405
_cell_angle_beta	90.030610
_cell_angle_gamma	89.973669
loop_
_atom_site_label
_atom_site_type_symbol
_atom_site_fract_x
_atom_site_fract_y
_atom_site_fract_z
Zn1	Zn	-0.269472	-1.125064	0.416117
Zn2	Zn	-0.382663	-1.124969	0.293045
Zn3	Zn	-0.269493	-1.001997	0.293063
Zn4	Zn	-0.382624	-1.001959	0.416068
O5	O	-0.326063	-1.063497	0.354573
O6	O	-0.284494	-1.228036	0.399804
O7	O	-0.367675	-1.108633	0.190063
O8	O	-0.174773	-1.018377	0.309414
O9	O	-0.367655	-1.227966	0.309384
O10	O	-0.174758	-1.108794	0.399822
O11	O	-0.284530	-1.018285	0.190076
O12	O	-0.284492	-0.899008	0.309367
O13	O	-0.367589	-1.018313	0.519059
O14	O	-0.367609	-0.898980	0.399739
O15	O	-0.284456	-1.108758	0.519095
O16	O	-0.477374	-1.108596	0.309337
O17	O	-0.477346	-1.018221	0.399721
C18	C	-0.326049	-0.872291	0.354550
C19	C	-0.326060	-0.790492	0.354557
C20	C	-0.501919	-1.063415	0.354538
C21	C	-0.577151	-1.063446	0.354547
C22	C	-0.369406	-0.602303	0.401552
C23	C	-0.369407	-0.525444	0.401560
C24	C	-0.282724	-0.525444	0.307598
C25	C	-0.282719	-0.602301	0.307594
C26	C	-0.326064	-0.640729	0.354570
C27	C	-0.326070	-0.487013	0.354582
C28	C	-0.326071	-0.403679	0.354590
C29	C	-0.326062	-0.724068	0.354563
C30	C	-0.612487	-1.110550	0.307533
C31	C	-0.683176	-1.110582	0.307550
C32	C	-0.718526	-1.063505	0.354577
C33	C	-0.683185	-1.016399	0.401596
C34	C	-0.612498	-1.016372	0.401583
C35	C	-0.968258	-1.016507	0.401650
C36	C	-1.038950	-1.016536	0.401658
C37	C	-1.038936	-1.110717	0.307617
C38	C	-0.968249	-1.110690	0.307604
C39	C	-0.932914	-1.063587	0.354626
C40	C	-0.856265	-1.063555	0.354608
C41	C	-0.795173	-1.063533	0.354591
C42	C	-0.149520	-1.063601	0.354625
C43	C	-0.074288	-1.063645	0.354647
C44	C	-0.326016	-1.063542	0.546526
C45	C	-0.325996	-1.063561	0.628325
C46	C	-0.326074	-0.255450	0.354594
C47	C	-0.326074	-0.337249	0.354595
C48	C	-0.326060	-1.063495	0.163367
C49	C	-0.325889	-1.063619	0.081569
C50	C	-0.282669	-1.110673	0.816539
C51	C	-0.282649	-1.110682	0.893398
C52	C	-0.369219	-1.016502	0.893350
C53	C	-0.369235	-1.016490	0.816492
C54	C	-0.325961	-1.063580	0.778089
C55	C	-0.325925	-1.063600	0.931805
C56	C	-0.325904	-1.063609	1.015139
C57	C	-0.325981	-1.063570	0.694750
H58	H	-0.404698	-0.633589	0.439805
H59	H	-0.247421	-0.633588	0.269335
H60	H	-1.067714	-1.149073	0.269333
H61	H	-0.404488	-0.978136	0.785185
Cl62	Cl	-0.568053	-1.169732	0.248405
H63	H	-0.939494	-0.978153	0.439936
H64	H	-0.247395	-1.149028	0.924701
H65	H	-0.404699	-0.494162	0.439819
H66	H	-0.711973	-0.978071	0.439889
H67	H	-0.583727	-0.978016	0.439867
H68	H	-0.711943	-1.148938	0.269265
Cl69	Cl	-0.228238	-0.477129	0.248544
Cl70	Cl	-1.083390	-0.957351	0.460784
Cl71	Cl	-0.923812	-1.169875	0.248482
H72	H	-0.247430	-1.149014	0.785274
H73	H	-0.404453	-0.978165	0.924627
