data_functionalizedCrystal
_audit_creation_method	'MofGen! by Chris Wilmer'
_symmetry_space_group_name_H-M	'P1'
_symmetry_Int_Tables_number	1
_symmetry_cell_setting	triclinic
loop_
_symmetry_equiv_pos_as_xyz
  x,y,z
_cell_length_a	14.044191
_cell_length_b	17.699083
_cell_length_c	16.176319
_cell_angle_alpha	90.007696
_cell_angle_beta	90.004783
_cell_angle_gamma	88.237396
loop_
_atom_site_label
_atom_site_type_symbol
_atom_site_fract_x
_atom_site_fract_y
_atom_site_fract_z
O1	O	-1.257292	-0.182469	-0.068710
O2	O	-0.757292	0.317531	0.431290
O3	O	-0.981337	-0.175880	-0.068720
O4	O	-0.481337	0.324120	0.431280
O5	O	-1.127111	-0.069523	-0.068707
O6	O	-0.627111	0.430477	0.431293
O7	O	-1.111518	-0.288826	-0.068722
O8	O	-0.611518	0.211174	0.431278
O9	O	-1.127091	-0.069514	0.068786
O10	O	-0.627091	0.430486	0.568786
O11	O	-0.981317	-0.175871	0.068773
O12	O	-0.481317	0.324129	0.568773
O13	O	-1.257272	-0.182460	0.068784
O14	O	-0.757272	0.317540	0.568784
Cu15	Cu	-1.119293	-0.179165	0.081333
Cu16	Cu	-0.619293	0.320835	0.581333
Cu17	Cu	-1.119317	-0.179175	-0.081269
Cu18	Cu	-0.619317	0.320825	0.418731
O19	O	-1.111498	-0.288817	0.068771
O20	O	-0.611498	0.211183	0.568771
C21	C	-1.126542	-0.041283	0.000040
C22	C	-0.626542	0.458717	0.500040
C23	C	-1.124866	0.042850	0.000040
C24	C	-0.624866	0.542850	0.500040
C25	C	-0.946020	-0.172993	0.000025
C26	C	-0.446020	0.327007	0.500025
C27	C	-0.840814	-0.164395	0.000022
C28	C	-0.340814	0.335605	0.500022
C29	C	-1.292590	-0.185347	0.000036
C30	C	-0.792590	0.314653	0.500036
C31	C	-1.397796	-0.193945	0.000035
C32	C	-0.897796	0.306055	0.500035
C33	C	-0.590423	-0.209655	0.000027
C34	C	-0.090423	0.290345	0.500027
C35	C	-0.648192	-0.148688	0.000030
C36	C	-0.148192	0.351312	0.500030
C37	C	-0.755376	-0.157430	0.000025
C38	C	-0.255376	0.342570	0.500025
C39	C	-0.483229	-0.200915	0.000031
C40	C	0.016771	0.299085	0.500031
C41	C	-1.112067	-0.317057	0.000022
C42	C	-0.612067	0.182943	0.500022
C43	C	-1.113743	-0.401191	0.000017
C44	C	-0.613743	0.098809	0.500017
N45	N	-1.119283	-0.179158	0.195698
N46	N	-0.619283	0.320842	0.695698
C47	C	-1.210432	0.085567	0.000044
C48	C	-0.710432	0.585567	0.500044
C49	C	-1.208852	0.164620	0.000037
C50	C	-0.708852	0.664620	0.500037
C51	C	-1.121704	0.200954	0.000031
C52	C	-0.621704	0.700954	0.500031
C53	C	-1.036131	0.158231	0.000024
C54	C	-0.536131	0.658231	0.500024
C55	C	-1.037713	0.079180	0.000026
C56	C	-0.537713	0.579180	0.500026
C57	C	-1.029751	0.477035	0.000017
C58	C	-0.529751	0.977035	0.500017
C59	C	-1.028176	0.556091	0.000018
C60	C	-0.528176	1.056091	0.500018
C61	C	-1.200890	0.562474	0.000028
C62	C	-0.700890	1.062474	0.500028
C63	C	-1.202471	0.483423	0.000030
C64	C	-0.702471	0.983423	0.500030
C65	C	-1.116899	0.440707	0.000019
C66	C	-0.616899	0.940707	0.500019
C67	C	-1.118614	0.354990	0.000025
C68	C	-0.618614	0.854990	0.500025
C69	C	-1.119988	0.286670	0.000031
C70	C	-0.619988	0.786670	0.500031
N71	N	-1.119334	-0.179177	-0.195634
N72	N	-0.619334	0.320823	0.304366
C73	C	-1.183851	-0.132085	0.238968
C74	C	-0.683851	0.367915	0.738968
C75	C	-1.183856	-0.132085	0.325515
C76	C	-0.683856	0.367915	0.825515
C77	C	-1.119297	-0.179161	0.368791
C78	C	-0.619297	0.320839	0.868791
C79	C	-1.054722	-0.226236	0.325515
C80	C	-0.554722	0.273764	0.825515
C81	C	-1.054713	-0.226232	0.238969
C82	C	-0.554713	0.273768	0.738969
C83	C	-1.054754	-0.226252	0.674543
C84	C	-0.554754	0.273748	1.174543
C85	C	-1.054770	-0.226254	0.761094
C86	C	-0.554770	0.273746	1.261094
C87	C	-1.183897	-0.132105	0.761089
C88	C	-0.683897	0.367895	1.261089
C89	C	-1.183888	-0.132101	0.674543
C90	C	-0.683888	0.367899	1.174543
C91	C	-1.119311	-0.179172	0.631275
C92	C	-0.619311	0.320828	1.131275
C93	C	-1.119305	-0.179171	0.537431
C94	C	-0.619305	0.320829	1.037431
C95	C	-1.119306	-0.179167	0.462633
C96	C	-0.619306	0.320833	0.962633
H97	H	-0.617152	-0.089927	-0.000024
H98	H	-0.117152	0.410073	0.499976
C99	C	-1.298333	0.443459	0.000033
C100	C	-0.798333	0.943459	0.500033
H101	H	-1.349068	0.480222	0.000026
H102	H	-0.849068	0.980222	0.500026
H103	H	-1.302536	0.412758	0.047978
H104	H	-0.802536	0.912758	0.547978
H105	H	-1.302541	0.412751	-0.047922
H106	H	-0.802541	0.912751	0.452078
C107	C	-0.983748	-0.278048	0.626955
C108	C	-0.483748	0.221952	1.126955
H109	H	-0.992983	-0.271305	0.569213
H110	H	-0.492983	0.228695	1.069213
H111	H	-0.993941	-0.329248	0.641136
H112	H	-0.493941	0.170752	1.141136
H113	H	-0.920512	-0.265538	0.641145
H114	H	-0.420512	0.234462	1.141145
H115	H	-0.621461	-0.268411	0.000020
H116	H	-0.121461	0.231589	0.500020
C117	C	-0.935626	0.430057	0.000019
C118	C	-0.435626	0.930057	0.500019
H119	H	-0.883501	0.463021	0.000027
H120	H	-0.383501	0.963021	0.500027
H121	H	-0.932650	0.399078	-0.047925
H122	H	-0.432650	0.899078	0.452075
H123	H	-0.932650	0.399096	0.047975
H124	H	-0.432650	0.899096	0.547975
C125	C	-1.306296	0.045606	0.000051
C126	C	-0.806296	0.545606	0.500051
H127	H	-1.357029	0.082372	0.000044
H128	H	-0.857029	0.582372	0.500044
H129	H	-1.310499	0.014907	0.047997
H130	H	-0.810499	0.514907	0.547997
H131	H	-1.310509	0.014897	-0.047902
H132	H	-0.810509	0.514897	0.452098
C133	C	-0.932310	0.596058	0.000001
C134	C	-0.432310	1.096058	0.500001
H135	H	-0.881572	0.559296	-0.000015
H136	H	-0.381572	1.059296	0.499985
H137	H	-0.928089	0.626770	0.047946
H138	H	-0.428089	1.126770	0.547946
H139	H	-0.928123	0.626756	-0.047954
H140	H	-0.428123	1.126756	0.452046
H141	H	-1.278528	0.199396	0.000042
H142	H	-0.778528	0.699396	0.500042
H143	H	-1.270567	0.597262	0.000033
H144	H	-0.770567	1.097262	0.500033
C145	C	-0.940271	0.198197	0.000020
C146	C	-0.440271	0.698197	0.500020
H147	H	-0.951582	0.251395	0.000029
H148	H	-0.451582	0.751395	0.500029
H149	H	-0.905051	0.183925	-0.047927
H150	H	-0.405051	0.683925	0.452073
H151	H	-0.905044	0.183933	0.047973
H152	H	-0.405044	0.683933	0.547973
H153	H	-0.968036	0.044401	0.000022
H154	H	-0.468036	0.544401	0.500022
C155	C	-0.983709	-0.278020	0.373115
C156	C	-0.483709	0.221980	0.873115
H157	H	-0.992968	-0.271287	0.430856
H158	H	-0.492968	0.228713	0.930856
H159	H	-0.920479	-0.265502	0.358946
H160	H	-0.420479	0.234498	0.858946
H161	H	-0.993888	-0.329227	0.358917
H162	H	-0.493888	0.170773	0.858917
H163	H	-1.236427	-0.093754	0.203738
H164	H	-0.736427	0.406246	0.703738
H165	H	-1.002134	-0.264562	0.203740
H166	H	-0.502134	0.235438	0.703740
C167	C	-1.254923	-0.080319	0.808686
C168	C	-0.754923	0.419681	1.308686
H169	H	-1.245678	-0.087054	0.866427
H170	H	-0.745678	0.412946	1.366427
H171	H	-1.318150	-0.092838	0.794491
H172	H	-0.818150	0.407162	1.294491
H173	H	-1.244743	-0.029110	0.794510
H174	H	-0.744743	0.470890	1.294510
C175	C	-1.254918	-0.080334	0.626940
C176	C	-0.754918	0.419666	1.126940
H177	H	-1.245675	-0.087082	0.569200
H178	H	-0.745675	0.412918	1.069200
H179	H	-1.244767	-0.029124	0.641127
H180	H	-0.744767	0.470876	1.141127
H181	H	-1.318145	-0.092872	0.641119
H182	H	-0.818145	0.407128	1.141119
C183	C	-1.254889	-0.080313	0.373108
C184	C	-0.754889	0.419687	0.873108
H185	H	-1.293347	-0.052284	0.334940
H186	H	-0.793347	0.447716	0.834940
H187	H	-1.220887	-0.046490	0.406884
H188	H	-0.720887	0.453510	0.906884
H189	H	-1.294275	-0.110230	0.406855
H190	H	-0.794275	0.389770	0.906855
H191	H	-1.002194	-0.264590	0.796328
H192	H	-0.502194	0.235410	1.296328
