data_functionalizedCrystal
_audit_creation_method	'MofGen! by Chris Wilmer'
_symmetry_space_group_name_H-M	'P1'
_symmetry_Int_Tables_number	1
_symmetry_cell_setting	triclinic
loop_
_symmetry_equiv_pos_as_xyz
  x,y,z
_cell_length_a	10.723024
_cell_length_b	23.532357
_cell_length_c	9.198806
_cell_angle_alpha	89.991292
_cell_angle_beta	89.996352
_cell_angle_gamma	83.648080
loop_
_atom_site_label
_atom_site_type_symbol
_atom_site_fract_x
_atom_site_fract_y
_atom_site_fract_z
O1	O	1.654668	0.079873	-0.120903
O2	O	1.291275	0.087518	-0.120910
O3	O	1.483962	0.000833	-0.120876
O4	O	1.461981	0.166558	-0.120936
O5	O	1.483947	0.000833	0.120909
O6	O	1.291259	0.087518	0.120875
O7	O	1.654653	0.079872	0.120882
Cu8	Cu	1.472955	0.083695	0.142956
Cu9	Cu	1.472973	0.083695	-0.142983
O10	O	1.461966	0.166557	0.120849
C11	C	1.244785	0.086961	-0.000017
C12	C	1.106283	0.085297	-0.000019
C13	C	1.029770	0.133801	-0.000037
C14	C	0.886621	0.132082	-0.000039
C15	C	1.483405	-0.020387	0.000021
C16	C	1.481752	-0.083617	0.000035
C17	C	1.471382	-0.475695	-0.131841
C18	C	1.469811	-0.535105	-0.131849
O19	O	1.468963	-0.565827	-0.243938
N20	N	1.469023	-0.564821	-0.000054
C21	C	1.469794	-0.535124	0.131758
O22	O	1.468979	-0.565855	0.243859
C23	C	1.471357	-0.475715	0.131765
C24	C	1.472157	-0.446003	-0.000039
C25	C	1.472181	-0.445983	-0.263634
C26	C	1.473754	-0.386577	-0.263625
C27	C	1.474529	-0.356884	-0.131823
C28	C	1.473731	-0.386597	-0.000030
C29	C	1.472119	-0.446019	0.263575
C30	C	1.473681	-0.386606	0.263571
C31	C	1.474481	-0.356893	0.131767
C32	C	1.476079	-0.297499	0.131781
N33	N	1.476867	-0.267783	-0.000015
C34	C	1.476092	-0.297475	-0.131817
C35	C	1.466511	-0.659887	0.131734
C36	C	1.464958	-0.719296	0.131728
C37	C	1.464972	-0.719272	-0.131880
C38	C	1.466534	-0.659863	-0.131873
C39	C	1.467299	-0.630171	-0.000062
C40	C	1.479398	-0.172720	-0.131788
C41	C	1.480977	-0.113309	-0.131767
C42	C	1.480956	-0.113338	0.131840
C43	C	1.479384	-0.172743	0.131820
C44	C	1.478600	-0.202433	-0.000006
O45	O	1.476923	-0.266739	0.243812
O46	O	1.476891	-0.266736	-0.243899
C47	C	1.701143	0.080429	-0.000013
C48	C	1.839644	0.082093	-0.000021
C49	C	1.462523	0.187778	-0.000051
C50	C	1.464176	0.251007	-0.000075
N51	N	1.472951	0.083694	0.344070
N52	N	1.472986	0.083691	-0.344097
C53	C	1.553860	0.047137	0.416281
C54	C	1.553880	0.047135	0.583693
H55	H	0.905379	0.040568	-0.000015
O56	O	1.481508	-0.084472	-0.259864
C57	C	1.373881	-0.060313	-0.485202
C58	C	1.373124	-0.092977	-0.340166
H59	H	1.286276	-0.067187	-0.550180
H60	H	1.375052	-0.012736	-0.462702
H61	H	1.460940	-0.076868	-0.550143
H62	H	1.286078	-0.076470	-0.275152
H63	H	1.372018	-0.140550	-0.362769
O64	O	1.636467	0.009716	0.657607
C65	C	1.710175	-0.089052	0.704553
C66	C	1.616594	-0.046736	0.620725
H67	H	1.694123	-0.134702	0.674788
H68	H	1.810142	-0.081405	0.674661
H69	H	1.695482	-0.082371	0.826364
H70	H	1.631173	-0.053392	0.498895
H71	H	1.516661	-0.054393	0.650738
O72	O	1.464400	-0.748196	0.259720
C73	C	1.570649	-0.821344	0.412686
C74	C	1.571472	-0.788651	0.267698
H75	H	1.657193	-0.854068	0.419170
H76	H	1.571547	-0.789945	0.506948
H77	H	1.482532	-0.844250	0.419233
H78	H	1.659573	-0.765744	0.261009
H79	H	1.570507	-0.820077	0.173505
H80	H	1.481593	-0.089152	0.239149
H81	H	1.403692	0.114989	0.406186
O82	O	1.057954	0.034249	-0.000260
C83	C	0.928811	-0.027567	-0.125459
C84	C	0.983478	0.030261	-0.125382
H85	H	0.868565	-0.030805	-0.226594
H86	H	1.008633	-0.063843	-0.125540
H87	H	0.868691	-0.030846	-0.024225
H88	H	1.043583	0.033596	-0.226599
H89	H	0.903597	0.066509	-0.125225
H90	H	1.403717	0.114993	0.593814
H91	H	1.478754	-0.196885	-0.239133
H92	H	1.623112	0.015838	0.354167
H93	H	1.070243	0.176600	-0.000045
O94	O	1.474592	-0.357713	0.391528
C95	C	1.584491	-0.296723	0.544606
C96	C	1.583601	-0.329403	0.399629
H97	H	1.672629	-0.273836	0.551216
H98	H	1.497952	-0.264000	0.551221
H99	H	1.583587	-0.328179	0.638765
H100	H	1.584548	-0.297990	0.305388
H101	H	1.670132	-0.362134	0.393141
O102	O	0.808075	0.181584	-0.000253
C103	C	0.643041	0.239899	-0.125589
C104	C	0.731905	0.183808	-0.125508
H105	H	0.581454	0.241720	-0.226862
H106	H	0.581246	0.241730	-0.024474
H107	H	0.700710	0.277793	-0.125530
H108	H	0.674336	0.145882	-0.125618
H109	H	0.793704	0.182027	-0.226614
H110	H	1.474401	-0.362390	-0.370954
H111	H	1.471545	-0.470152	-0.370969
H112	H	1.467184	-0.635675	-0.239199
O113	O	1.467320	-0.631138	0.259914
C114	C	1.467063	-0.637440	0.521373
C115	C	1.466180	-0.670066	0.376318
H116	H	1.466115	-0.668897	0.615523
H117	H	1.555147	-0.614517	0.528081
H118	H	1.380481	-0.604739	0.527895
H119	H	1.552702	-0.702794	0.369699
H120	H	1.378038	-0.692950	0.369672
H121	H	1.471470	-0.470201	0.370904
O122	O	1.463986	-0.748133	-0.259880
C123	C	1.354139	-0.809195	-0.412812
C124	C	1.355083	-0.776524	-0.267827
H125	H	1.266113	-0.832167	-0.419270
H126	H	1.354891	-0.777777	-0.507076
H127	H	1.440778	-0.841861	-0.419380
H128	H	1.268459	-0.743858	-0.261116
H129	H	1.354395	-0.807976	-0.173631
H130	H	1.478744	-0.196937	0.239145
