data_functionalizedCrystal
_audit_creation_method	'MofGen! by Chris Wilmer'
_symmetry_space_group_name_H-M	'P1'
_symmetry_Int_Tables_number	1
_symmetry_cell_setting	triclinic
loop_
_symmetry_equiv_pos_as_xyz
  x,y,z
_cell_length_a	13.262522
_cell_length_b	13.339070
_cell_length_c	9.130313
_cell_angle_alpha	90.000326
_cell_angle_beta	74.084003
_cell_angle_gamma	99.428816
loop_
_atom_site_label
_atom_site_type_symbol
_atom_site_fract_x
_atom_site_fract_y
_atom_site_fract_z
O1	O	1.432364	0.136388	-0.692351
O2	O	1.131107	0.151229	-0.572353
O3	O	1.247161	-0.003600	-0.618576
O4	O	1.316310	0.291217	-0.646128
O5	O	1.247160	-0.003595	-0.374977
O6	O	1.131106	0.151233	-0.328754
O7	O	1.432364	0.136392	-0.448752
Cu8	Cu	1.281735	0.143813	-0.366510
Cu9	Cu	1.281736	0.143808	-0.654595
O10	O	1.316310	0.291221	-0.402529
C11	C	1.091761	0.150401	-0.434881
C12	C	0.974521	0.147914	-0.388182
C13	C	0.919449	0.146750	-0.233449
C14	C	0.809295	0.144404	-0.189560
C15	C	0.754203	0.143230	-0.300400
C16	C	0.809276	0.144402	-0.455137
C17	C	0.919440	0.146740	-0.499030
C18	C	0.754194	0.143220	-0.565981
C19	C	0.809268	0.144391	-0.720718
C20	C	0.919421	0.146730	-0.764603
C21	C	0.974513	0.147904	-0.653763
C22	C	0.644030	0.140882	-0.522088
C23	C	0.644022	0.140872	-0.787669
C24	C	0.754176	0.143218	-0.831558
C25	C	1.235480	-0.041336	-0.492126
C26	C	1.200663	-0.153783	-0.478263
C27	C	1.471383	-0.517443	-0.586097
C28	C	1.504099	-0.411793	-0.599114
C29	C	1.428243	-0.347285	-0.568903
C30	C	1.319665	-0.388438	-0.525671
C31	C	1.286946	-0.494098	-0.512640
C32	C	1.243806	-0.323941	-0.495447
C33	C	1.135228	-0.365093	-0.452215
C34	C	1.102514	-0.470743	-0.439187
C35	C	1.178371	-0.535250	-0.469399
C36	C	1.276525	-0.218281	-0.508477
C37	C	1.092087	-0.194936	-0.435021
C38	C	1.059372	-0.300585	-0.422003
C39	C	1.471709	0.137221	-0.586227
C40	C	1.588949	0.139707	-0.632936
C41	C	1.327991	0.328957	-0.528983
C42	C	1.362808	0.441405	-0.542855
N43	N	1.281742	0.143816	-0.163890
N44	N	1.281735	0.143797	-0.857217
C45	C	1.333155	0.075281	-0.107716
C46	C	1.333149	0.075269	0.045623
C47	C	1.230315	0.212336	0.086600
C48	C	1.230315	0.212342	-0.066734
C49	C	1.392530	-0.003850	-0.131374
C50	C	1.392524	-0.003862	0.021965
H51	H	0.964257	0.147670	-0.890599
H52	H	1.346292	-0.077326	0.087930
H53	H	0.799032	0.144171	-0.957548
H54	H	1.352661	-0.081628	-0.157111
Br55	Br	1.160521	0.305328	0.218463
Br56	Br	1.530991	0.036749	-0.265810
Br57	Br	1.534956	0.024483	0.034608
H58	H	1.533134	-0.569973	-0.610678
Br59	Br	0.569301	0.139289	-0.312096
Br60	Br	0.994218	0.148333	-0.083041
Br61	Br	1.124017	0.151106	-0.713323
H62	H	0.664511	0.141322	-0.264656
H63	H	1.014104	-0.504245	-0.403974
H64	H	0.764460	0.143437	-0.063572
H65	H	1.592503	-0.378295	-0.634312
H66	H	1.188439	0.268140	-0.112464
Br67	Br	1.133973	-0.678639	-0.451931
H68	H	0.599167	0.139917	-0.877925
H69	H	1.030318	-0.142413	-0.410413
H70	H	1.364929	-0.184785	-0.543677
Br71	Br	0.912020	-0.356448	-0.363341
Br72	Br	1.472645	-0.203901	-0.586575
