data_functionalizedCrystal
_audit_creation_method	'MofGen! by Chris Wilmer'
_symmetry_space_group_name_H-M	'P1'
_symmetry_Int_Tables_number	1
_symmetry_cell_setting	triclinic
loop_
_symmetry_equiv_pos_as_xyz
  x,y,z
_cell_length_a	18.215407
_cell_length_b	16.959453
_cell_length_c	18.215399
_cell_angle_alpha	89.971557
_cell_angle_beta	89.983115
_cell_angle_gamma	90.017431
loop_
_atom_site_label
_atom_site_type_symbol
_atom_site_fract_x
_atom_site_fract_y
_atom_site_fract_z
Zn1	Zn	1.125093	-0.314740	-0.416067
Zn2	Zn	1.625093	0.185260	0.083933
Zn3	Zn	1.125013	-0.446927	-0.293001
Zn4	Zn	1.625013	0.053073	0.206999
Zn5	Zn	1.002027	-0.314760	-0.293020
Zn6	Zn	1.502027	0.185240	0.206980
Zn7	Zn	1.002002	-0.446875	-0.416031
Zn8	Zn	1.502002	0.053125	0.083969
O9	O	1.063534	-0.380826	-0.354530
O10	O	1.563534	0.119174	0.145470
O11	O	1.228067	-0.332289	-0.399749
O12	O	1.728067	0.167711	0.100251
O13	O	1.108676	-0.429425	-0.190019
O14	O	1.608676	0.070575	0.309981
O15	O	1.018396	-0.204147	-0.309365
O16	O	1.518396	0.295853	0.190635
O17	O	1.228008	-0.429405	-0.309333
O18	O	1.728008	0.070595	0.190667
O19	O	1.108812	-0.204132	-0.399768
O20	O	1.608812	0.295868	0.100232
O21	O	1.018318	-0.332322	-0.190033
O22	O	1.518318	0.167678	0.309967
O23	O	0.899040	-0.332272	-0.309330
O24	O	1.399040	0.167728	0.190670
O25	O	1.018354	-0.429317	-0.519020
O26	O	1.518354	0.070683	-0.019020
O27	O	0.899021	-0.429336	-0.399706
O28	O	1.399021	0.070664	0.100294
O29	O	1.108788	-0.332238	-0.519047
O30	O	1.608788	0.167762	-0.019047
O31	O	1.108652	-0.557531	-0.309298
O32	O	1.608652	-0.057531	0.190702
O33	O	1.018276	-0.557493	-0.399687
O34	O	1.518276	-0.057493	0.100313
C35	C	0.872328	-0.380801	-0.354517
C36	C	1.372328	0.119199	0.145483
C37	C	0.790529	-0.380810	-0.354529
C38	C	1.290529	0.119190	0.145471
C39	C	0.602365	-0.330345	-0.401683
C40	C	1.102365	0.169655	0.098317
C41	C	0.525506	-0.330352	-0.401685
C42	C	1.025506	0.169648	0.098315
C43	C	0.525456	-0.431328	-0.307389
C44	C	1.025456	0.068672	0.192611
C45	C	0.602313	-0.431317	-0.307384
C46	C	1.102313	0.068683	0.192616
C47	C	0.640765	-0.380826	-0.354535
C48	C	1.140765	0.119174	0.145465
C49	C	0.487049	-0.380845	-0.354543
C50	C	0.987049	0.119155	0.145457
C51	C	0.403716	-0.380852	-0.354545
C52	C	0.903716	0.119148	0.145455
C53	C	0.724104	-0.380817	-0.354531
C54	C	1.224104	0.119183	0.145469
C55	C	1.063473	-0.586192	-0.354503
C56	C	1.563473	-0.086192	0.145497
C57	C	1.063514	-0.674048	-0.354516
C58	C	1.563514	-0.174048	0.145484
C59	C	1.110674	-1.045458	-0.401691
C60	C	1.610674	-0.545458	0.098309
C61	C	1.016600	-1.045590	-0.307478
C62	C	1.516600	-0.545590	0.192522
C63	C	1.016572	-0.963044	-0.307461
C64	C	1.516572	-0.463044	0.192539
C65	C	1.063596	-0.921701	-0.354560
C66	C	1.563596	-0.421701	0.145440
C67	C	1.110647	-0.962904	-0.401677
C68	C	1.610647	-0.462904	0.098323
C69	C	0.969517	-0.921835	-0.260350
C70	C	1.469517	-0.421835	0.239650
C71	C	0.969487	-0.839284	-0.260332
C72	C	1.469487	-0.339284	0.239668
C73	C	1.016515	-0.797940	-0.307429
C74	C	1.516515	-0.297940	0.192571
C75	C	1.063568	-0.839148	-0.354546
C76	C	1.563568	-0.339148	0.145454
C77	C	1.110592	-0.797805	-0.401646
C78	C	1.610592	-0.297805	0.098354
C79	C	1.157650	-0.839011	-0.448761
C80	C	1.657650	-0.339011	0.051239
C81	C	1.157675	-0.921560	-0.448774
C82	C	1.657675	-0.421560	0.051226
C83	C	1.016490	-0.715391	-0.307416
C84	C	1.516490	-0.215391	0.192584
C85	C	1.110565	-0.715251	-0.401632
C86	C	1.610565	-0.215251	0.098368
C87	C	1.255487	-0.380850	-0.354543
C88	C	1.755487	0.119150	0.145457
C89	C	1.337286	-0.380861	-0.354549
C90	C	1.837286	0.119139	0.145451
C91	C	1.063577	-0.380770	-0.546483
C92	C	1.563577	0.119230	-0.046483
C93	C	1.063596	-0.380746	-0.628281
C94	C	1.563596	0.119254	-0.128281
C95	C	1.063616	-0.174657	-0.354573
C96	C	1.563616	0.325343	0.145427
C97	C	1.063651	-0.086801	-0.354591
C98	C	1.563651	0.413199	0.145409
C99	C	1.110712	-0.330129	-0.893354
C100	C	1.610712	0.169871	-0.393354
C101	C	1.110703	-0.330150	-0.816495
C102	C	1.610703	0.169850	-0.316495
C103	C	1.016539	-0.431248	-0.816457
C104	C	1.516539	0.068752	-0.316457
C105	C	1.016552	-0.431230	-0.893315
C106	C	1.516552	0.068770	-0.393315
C107	C	1.063637	-0.380666	-0.931761
C108	C	1.563637	0.119334	-0.431761
C109	C	1.063616	-0.380705	-0.778045
C110	C	1.563616	0.119295	-0.278045
C111	C	1.063606	-0.380729	-0.694711
C112	C	1.563606	0.119271	-0.194711
C113	C	1.063648	-0.380643	-1.015100
C114	C	1.563648	0.119357	-0.515100
C115	C	1.063533	-0.380824	-0.163323
C116	C	1.563533	0.119176	0.336677
C117	C	1.063658	-0.380625	-0.081525
C118	C	1.563658	0.119375	0.418475
H119	H	0.633580	-0.472425	-0.268986
H120	H	1.133580	0.027575	0.231014
H121	H	0.633670	-0.289230	-0.440074
H122	H	1.133670	0.210770	0.059926
H123	H	0.978173	-0.681845	-0.269059
H124	H	1.478173	-0.181845	0.230941
Br125	Br	0.473393	-0.261836	-0.465672
Br126	Br	0.973393	0.238164	0.034328
Br127	Br	1.221456	-0.782894	-0.512689
Br128	Br	1.721456	-0.282894	-0.012689
Br129	Br	1.174392	-0.659149	-0.465551
Br130	Br	1.674392	-0.159149	0.034449
Br131	Br	0.473265	-0.499848	-0.243403
Br132	Br	0.973265	0.000152	0.256597
Br133	Br	1.221530	-0.977487	-0.512711
Br134	Br	1.721530	-0.477487	-0.012711
H135	H	1.148989	-1.079012	-0.440049
H136	H	1.648989	-0.579012	0.059951
H137	H	0.978312	-1.079256	-0.269134
H138	H	1.478312	-0.579256	0.230866
Br139	Br	0.905686	-0.977946	-0.196451
Br140	Br	1.405686	-0.477946	0.303549
Br141	Br	0.905622	-0.783368	-0.196395
Br142	Br	1.405622	-0.283368	0.303605
H143	H	1.149052	-0.288956	-0.924655
H144	H	1.649052	0.211044	-0.424655
H145	H	1.149037	-0.288998	-0.785228
H146	H	1.649037	0.211002	-0.285228
H147	H	0.978203	-0.472415	-0.785145
H148	H	1.478203	0.027585	-0.285145
H149	H	0.978218	-0.472388	-0.924587
H150	H	1.478218	0.027612	-0.424587
