data_functionalizedCrystal
_audit_creation_method	'MofGen! by Chris Wilmer'
_symmetry_space_group_name_H-M	'P1'
_symmetry_Int_Tables_number	1
_symmetry_cell_setting	triclinic
loop_
_symmetry_equiv_pos_as_xyz
  x,y,z
_cell_length_a	18.101398
_cell_length_b	18.101397
_cell_length_c	16.959447
_cell_angle_alpha	90.033674
_cell_angle_beta	90.006190
_cell_angle_gamma	90.016023
loop_
_atom_site_label
_atom_site_type_symbol
_atom_site_fract_x
_atom_site_fract_y
_atom_site_fract_z
Zn1	Zn	1.132150	-0.294903	0.446719
Zn2	Zn	1.632150	0.205097	0.946719
Zn3	Zn	1.132076	-0.418756	0.314532
Zn4	Zn	1.632076	0.081244	0.814532
Zn5	Zn	1.008316	-0.294923	0.314575
Zn6	Zn	1.508316	0.205077	0.814575
Zn7	Zn	1.008282	-0.418697	0.446690
Zn8	Zn	1.508282	0.081303	0.946690
O9	O	1.070206	-0.356820	0.380629
O10	O	1.570206	0.143180	0.880629
O11	O	1.235773	-0.311348	0.429178
O12	O	1.735773	0.188652	0.929178
O13	O	1.115643	-0.402362	0.203927
O14	O	1.615643	0.097638	0.703927
O15	O	1.024788	-0.191287	0.332134
O16	O	1.524788	0.308713	0.832134
O17	O	1.235719	-0.402342	0.332062
O18	O	1.735719	0.097658	0.832062
O19	O	1.115768	-0.191273	0.429220
O20	O	1.615768	0.308727	0.929220
O21	O	1.024717	-0.311383	0.203958
O22	O	1.524717	0.188617	0.703958
O23	O	0.904679	-0.311326	0.332106
O24	O	1.404679	0.188674	0.832106
O25	O	1.024730	-0.402243	0.557305
O26	O	1.524730	0.097757	1.057305
O27	O	0.904654	-0.402263	0.429170
O28	O	1.404654	0.097737	0.929170
O29	O	1.115735	-0.311292	0.557326
O30	O	1.615735	0.188708	1.057326
O31	O	1.115610	-0.522381	0.332034
O32	O	1.615610	-0.022381	0.832034
O33	O	1.024659	-0.522338	0.429129
O34	O	1.524659	-0.022338	0.929129
C35	C	0.877796	-0.356791	0.380640
C36	C	1.377796	0.143209	0.880640
C37	C	0.795482	-0.356796	0.380664
C38	C	1.295482	0.143204	0.880664
C39	C	0.496391	-0.356840	0.380630
C40	C	0.996391	0.143160	0.880630
C41	C	0.527725	-0.414331	0.441399
C42	C	1.027725	0.085669	0.941399
C43	C	0.613343	-0.414151	0.441649
C44	C	1.113343	0.085849	0.941649
C45	C	0.644773	-0.356819	0.380647
C46	C	1.144773	0.143181	0.880647
C47	C	0.613703	-0.278815	0.403415
C48	C	1.113703	0.221185	0.903415
C49	C	0.528058	-0.279161	0.403847
C50	C	1.028058	0.220839	0.903847
C51	C	0.527947	-0.376664	0.296948
C52	C	1.027947	0.123336	0.796948
C53	C	0.613597	-0.378375	0.297395
C54	C	1.113597	0.121625	0.797395
C55	C	0.728633	-0.356802	0.380655
C56	C	1.228633	0.143198	0.880655
C57	C	0.412531	-0.356851	0.380625
C58	C	0.912531	0.143149	0.880625
C59	C	1.070143	-0.549230	0.380591
C60	C	1.570143	-0.049230	0.880591
C61	C	1.070183	-0.631544	0.380601
C62	C	1.570183	-0.131544	0.880601
C63	C	1.070278	-0.930635	0.380673
C64	C	1.570278	-0.430635	0.880673
C65	C	1.127342	-0.899306	0.319419
C66	C	1.627342	-0.399306	0.819419
C67	C	1.127540	-0.813688	0.319578
C68	C	1.627540	-0.313688	0.819578
C69	C	1.070231	-0.782253	0.380636
C70	C	1.570231	-0.282253	0.880636
C71	C	1.091382	-0.813258	0.463950
C72	C	1.591382	-0.313258	0.963950
C73	C	1.091824	-0.898903	0.463616
C74	C	1.591824	-0.398903	0.963616
C75	C	0.991910	-0.899139	0.359334
C76	C	1.491910	-0.399139	0.859334
C77	C	0.992298	-0.813490	0.357474
C78	C	1.492298	-0.313490	0.857474
C79	C	1.070203	-0.698393	0.380621
C80	C	1.570203	-0.198393	0.880621
C81	C	1.070308	-1.014495	0.380694
C82	C	1.570308	-0.514495	0.880694
C83	C	1.263368	-0.356850	0.380618
C84	C	1.763368	0.143150	0.880618
C85	C	1.345682	-0.356862	0.380614
C86	C	1.845682	0.143138	0.880614
C87	C	1.070237	-0.356759	0.586797
C88	C	1.570237	0.143241	1.086797
C89	C	1.070250	-0.356732	0.674654
C90	C	1.570250	0.143268	1.174654
C91	C	1.070290	-0.163658	0.380685
C92	C	1.570290	0.336342	0.880685
C93	C	1.070326	-0.081344	0.380709
C94	C	1.570326	0.418656	0.880709
C95	C	1.070218	-0.356827	0.175263
C96	C	1.570218	0.143173	0.675263
C97	C	1.070348	-0.356645	0.087407
C98	C	1.570348	0.143355	0.587407
C99	C	1.022957	-0.404008	1.046121
C100	C	1.522957	0.095992	1.546121
C101	C	1.117721	-0.309300	1.046138
C102	C	1.617721	0.190700	1.546138
C103	C	1.117701	-0.309316	0.963592
C104	C	1.617701	0.190684	1.463592
C105	C	1.070309	-0.356679	0.922307
C106	C	1.570309	0.143321	1.422307
C107	C	1.022937	-0.404027	0.963568
C108	C	1.522937	0.095973	1.463568
C109	C	1.165078	-0.261974	0.922326
C110	C	1.665078	0.238026	1.422326
C111	C	1.165060	-0.261989	0.839775
C112	C	1.665060	0.238011	1.339775
C113	C	1.117664	-0.309349	0.798488
C114	C	1.617664	0.190651	1.298488
C115	C	1.070289	-0.356698	0.839753
C116	C	1.570289	0.143302	1.339753
C117	C	1.022898	-0.404062	0.798468
C118	C	1.522898	0.095938	1.298468
C119	C	0.975519	-0.451408	0.839732
C120	C	1.475519	0.048592	1.339732
C121	C	0.975541	-0.451388	0.922281
C122	C	1.475541	0.048612	1.422281
C123	C	1.117642	-0.309369	0.715939
C124	C	1.617642	0.190631	1.215939
C125	C	1.022878	-0.404080	0.715914
C126	C	1.522878	0.095920	1.215914
H127	H	0.634061	-0.234819	0.360534
H128	H	1.134061	0.265181	0.860534
H129	H	0.507330	-0.234790	0.361615
H130	H	1.007330	0.265210	0.861615
H131	H	1.203666	-0.223418	0.955946
H132	H	1.703666	0.276582	1.455946
N133	N	0.639699	-0.486713	0.423741
N134	N	1.139699	0.013287	0.923741
N135	N	0.623139	-0.516464	0.359597
N136	N	1.123139	-0.016464	0.859597
H137	H	0.641749	-0.567715	0.346951
H138	H	1.141749	-0.067715	0.846951
H139	H	1.156219	-0.270823	0.682346
H140	H	1.656219	0.229177	1.182346
N141	N	0.500829	-0.446791	0.270991
N142	N	1.000829	0.053209	0.770991
N143	N	0.457910	-0.483013	0.313859
N144	N	0.957910	0.016987	0.813859
H145	H	0.438756	-0.532543	0.295535
H146	H	0.938756	-0.032543	0.795535
H147	H	0.506208	-0.401381	0.503044
H148	H	1.006208	0.098619	1.003044
H149	H	0.984380	-0.442554	1.079722
H150	H	1.484380	0.057446	1.579722
H151	H	0.635161	-0.261698	0.463925
H152	H	1.135161	0.238302	0.963925
N153	N	0.640433	-0.329646	0.237554
N154	N	1.140433	0.170354	0.737554
N155	N	0.627017	-0.262013	0.241553
N156	N	1.127017	0.237987	0.741553
H157	H	0.645971	-0.227590	0.199293
H158	H	1.145971	0.272410	0.699293
N159	N	0.936087	-0.786649	0.409336
N160	N	1.436087	-0.286649	0.909336
N161	N	0.924488	-0.718779	0.414937
N162	N	1.424488	-0.218779	0.914937
H163	H	0.884791	-0.699822	0.451571
H164	H	1.384791	-0.199822	0.951571
H165	H	0.633840	-0.401034	0.503652
H166	H	1.133840	0.098966	1.003652
N167	N	1.041966	-0.924916	0.522829
N168	N	1.541966	-0.424916	1.022829
N169	N	1.033415	-0.992751	0.533136
N170	N	1.533415	-0.492751	1.033136
H171	H	0.998209	-1.011122	0.574959
H172	H	1.498209	-0.511122	1.074959
H173	H	1.156309	-0.270743	1.079758
H174	H	1.656309	0.229257	1.579758
H175	H	0.507121	-0.472364	0.427289
H176	H	1.007121	0.027636	0.927289
H177	H	1.203639	-0.223436	0.806184
H178	H	1.703639	0.276564	1.306184
H179	H	1.051090	-0.792893	0.510815
H180	H	1.551090	-0.292893	1.010815
H181	H	0.507683	-0.334787	0.251669
H182	H	1.007683	0.165213	0.751669
H183	H	0.936970	-0.489936	0.955885
H184	H	1.436970	0.010064	1.455885
H185	H	0.936935	-0.489974	0.806107
H186	H	1.436935	0.010026	1.306107
N187	N	0.639090	-0.450382	0.275866
N188	N	1.139090	0.049618	0.775866
N189	N	0.706808	-0.462749	0.270088
N190	N	1.206808	0.037251	0.770088
H191	H	0.724821	-0.513604	0.254888
H192	H	1.224821	-0.013604	0.754888
N193	N	0.503015	-0.258065	0.480592
N194	N	1.003015	0.241935	0.980592
N195	N	0.548789	-0.243192	0.533463
N196	N	1.048789	0.256808	1.033463
H197	H	0.531106	-0.228293	0.587667
H198	H	1.031106	0.271707	1.087667
N199	N	1.110936	-0.787400	0.242080
N200	N	1.610936	-0.287400	0.742080
N201	N	1.099122	-0.832308	0.187496
N202	N	1.599122	-0.332308	0.687496
H203	H	1.087397	-0.813747	0.132758
H204	H	1.587397	-0.313747	0.632758
H205	H	1.185075	-0.920778	0.333375
H206	H	1.685075	-0.420778	0.833375
N207	N	1.110944	-0.925216	0.241693
N208	N	1.610944	-0.425216	0.741693
N209	N	1.057012	-0.967077	0.230532
N210	N	1.557012	-0.467077	0.730532
H211	H	1.045429	-0.985382	0.175636
H212	H	1.545429	-0.485382	0.675636
H213	H	1.185590	-0.793148	0.333696
H214	H	1.685590	-0.293148	0.833696
H215	H	1.148024	-0.791754	0.482332
H216	H	1.648024	-0.291754	0.982332
H217	H	1.149107	-0.918825	0.481693
H218	H	1.649107	-0.418825	0.981693
N219	N	0.967784	-0.926305	0.284436
N220	N	1.467784	-0.426305	0.784436
N221	N	1.004913	-0.913172	0.223904
N222	N	1.504913	-0.413172	0.723904
H223	H	0.987882	-0.932358	0.171004
H224	H	1.487882	-0.432358	0.671004
H225	H	0.976349	-0.793233	0.296163
H226	H	1.476349	-0.293233	0.796163
H227	H	0.949393	-0.919400	0.403948
H228	H	1.449393	-0.419400	0.903948
H229	H	0.984279	-0.442643	0.682306
H230	H	1.484279	0.057357	1.182306
