data_functionalizedCrystal
_audit_creation_method	'MofGen! by Chris Wilmer'
_symmetry_space_group_name_H-M	'P1'
_symmetry_Int_Tables_number	1
_symmetry_cell_setting	triclinic
loop_
_symmetry_equiv_pos_as_xyz
  x,y,z
_cell_length_a	14.971482
_cell_length_b	10.654546
_cell_length_c	13.448316
_cell_angle_alpha	90.001295
_cell_angle_beta	89.993258
_cell_angle_gamma	95.951934
loop_
_atom_site_label
_atom_site_type_symbol
_atom_site_fract_x
_atom_site_fract_y
_atom_site_fract_z
O1	O	1.187839	-0.163636	-0.082668
O2	O	0.927545	-0.183240	-0.082671
O3	O	1.063678	0.009366	-0.082675
O4	O	1.051706	-0.356242	-0.082664
O5	O	1.063660	0.009376	0.082708
O6	O	0.927526	-0.183229	0.082712
O7	O	1.187820	-0.163626	0.082716
Cu8	Cu	1.057672	-0.173427	0.097815
Cu9	Cu	1.057694	-0.173439	-0.097770
O10	O	1.051687	-0.356232	0.082720
C11	C	0.894206	-0.182359	0.000020
C12	C	0.794895	-0.179734	0.000018
C13	C	0.748233	-0.178492	0.090170
C14	C	0.654921	-0.176006	0.090171
C15	C	0.608272	-0.174771	0.000019
C16	C	0.654940	-0.176009	-0.090140
C17	C	0.748251	-0.178486	-0.090140
C18	C	0.460450	-0.170849	-0.090133
C19	C	0.367132	-0.168374	-0.090134
C20	C	0.367120	-0.168369	0.090177
C21	C	0.460431	-0.170846	0.090177
C22	C	0.507093	-0.172086	0.000018
C23	C	1.062791	0.056159	0.000013
C24	C	1.060162	0.195575	0.000002
C25	C	1.140315	0.275922	0.000002
C26	C	1.137840	0.406916	-0.000011
C27	C	0.975053	0.377203	-0.000022
C28	C	0.977529	0.246212	-0.000015
C29	C	1.222949	0.225285	0.000019
C30	C	1.303108	0.305633	0.000021
C31	C	1.300634	0.436628	0.000007
C32	C	1.217999	0.487274	-0.000008
C33	C	1.221159	-0.164507	0.000022
C34	C	1.320471	-0.167132	0.000018
N35	N	1.057662	-0.173417	0.235379
C36	C	1.052577	0.596975	0.000016
C37	C	1.055212	0.457561	-0.000018
C38	C	1.117961	-0.088167	0.287418
C39	C	1.117966	-0.088167	0.391521
C40	C	1.057675	-0.173424	0.443584
C41	C	0.997370	-0.258678	0.391538
C42	C	0.997362	-0.258672	0.287437
C43	C	0.997393	-0.258689	0.608518
C44	C	0.997403	-0.258698	0.712627
C45	C	1.117997	-0.088185	0.712603
C46	C	1.117988	-0.088178	0.608501
C47	C	1.057684	-0.173434	0.556463
N48	N	1.057701	-0.173448	0.764665
H49	H	0.616935	-0.174974	0.163581
H50	H	0.498410	-0.171859	0.163587
N51	N	1.215327	0.628560	-0.000037
H52	H	1.278643	0.671779	-0.000040
H53	H	1.182727	0.654187	0.061268
N54	N	0.932331	-0.350629	0.231308
H55	H	0.941471	-0.337686	0.157461
H56	H	0.868793	-0.335973	0.249522
H57	H	1.365903	0.502045	-0.000002
H58	H	0.907776	0.418450	-0.000032
H59	H	1.370386	0.264388	0.000008
N60	N	0.932386	-0.350662	0.768784
H61	H	0.894180	-0.404668	0.720023
H62	H	0.892556	-0.302499	0.811997
N63	N	0.316794	-0.167035	0.187419
H64	H	0.250461	-0.167046	0.173744
H65	H	0.339004	-0.088782	0.226184
N66	N	0.316809	-0.167017	-0.187361
H67	H	0.271321	-0.243778	-0.191382
H68	H	0.360581	-0.168119	-0.244425
H69	H	0.498439	-0.171859	-0.163551
H70	H	1.224973	0.118624	0.000034
N71	N	0.604623	-0.174665	-0.187372
H72	H	0.559137	-0.251428	-0.191390
H73	H	0.648402	-0.175777	-0.244430
H74	H	0.786207	-0.179509	0.163582
H75	H	0.786242	-0.179500	-0.163551
H76	H	0.912261	0.180790	-0.000014
N77	N	1.182994	0.003782	0.231268
H78	H	1.221192	0.057789	0.280035
H79	H	1.148408	0.059385	0.188086
H80	H	1.167064	-0.018749	0.433891
H81	H	1.167085	-0.018761	0.566112
H82	H	1.167098	-0.018766	0.754979
N83	N	0.932349	-0.350636	0.552387
H84	H	0.894158	-0.404651	0.601163
H85	H	0.966930	-0.406231	0.509183
N86	N	0.932347	-0.350633	0.447696
H87	H	0.943194	-0.439788	0.429568
H88	H	0.868803	-0.335913	0.429578
