data_functionalizedCrystal
_audit_creation_method	'MofGen! by Chris Wilmer'
_symmetry_space_group_name_H-M	'P1'
_symmetry_Int_Tables_number	1
_symmetry_cell_setting	triclinic
loop_
_symmetry_equiv_pos_as_xyz
  x,y,z
_cell_length_a	19.077399
_cell_length_b	16.120484
_cell_length_c	19.076919
_cell_angle_alpha	84.953390
_cell_angle_beta	85.520477
_cell_angle_gamma	95.103433
loop_
_atom_site_label
_atom_site_type_symbol
_atom_site_fract_x
_atom_site_fract_y
_atom_site_fract_z
Zn1	Zn	1.048310	-0.299593	0.368742
Zn2	Zn	1.046980	-0.433749	0.256839
Zn3	Zn	0.935164	-0.299615	0.255597
Zn4	Zn	0.923888	-0.445419	0.379927
O5	O	0.988585	-0.369594	0.315276
O6	O	1.147000	-0.312495	0.349736
O7	O	1.036310	-0.411082	0.157810
O8	O	0.955449	-0.182448	0.265405
O9	O	1.146023	-0.411060	0.267522
O10	O	1.038577	-0.182431	0.348532
O11	O	0.954159	-0.312534	0.156898
O12	O	0.834802	-0.323850	0.276251
O13	O	0.936230	-0.430950	0.477308
O14	O	0.826517	-0.430972	0.367596
O15	O	1.027643	-0.323811	0.469090
O16	O	1.025375	-0.552462	0.278368
O17	O	0.934940	-0.561036	0.368800
C18	C	0.805024	-0.378680	0.323003
C19	C	0.726494	-0.382588	0.326327
C20	C	0.693894	-0.328575	0.280400
C21	C	0.620106	-0.332254	0.283523
C22	C	0.578921	-0.389944	0.332576
C23	C	0.611526	-0.443963	0.378504
C24	C	0.685312	-0.440287	0.375378
C25	C	0.357783	-0.406930	0.347016
C26	C	0.283992	-0.410600	0.350141
C27	C	0.292578	-0.298892	0.255158
C28	C	0.366365	-0.295218	0.252038
C29	C	0.398964	-0.349240	0.297964
N30	N	0.503498	-0.393704	0.335770
N31	N	0.474385	-0.345483	0.294766
C32	C	0.978808	-0.587128	0.324947
C33	C	0.974689	-0.680188	0.329105
C34	C	0.967172	-0.850570	0.336711
C35	C	1.010125	-0.887772	0.293848
C36	C	1.005942	-0.982578	0.298080
C37	C	0.971354	-0.755755	0.332480
C38	C	1.172863	-0.360473	0.307520
C39	C	1.251392	-0.356586	0.304214
C40	C	0.980827	-0.378680	0.499550
C41	C	0.977521	-0.382551	0.578077
C42	C	0.998419	-0.151210	0.305583
C43	C	1.002610	-0.058148	0.301452
C44	C	0.996357	-0.360482	0.131715
C45	C	0.999810	-0.356367	0.053173
C46	C	1.023559	-0.328592	0.610691
C47	C	1.020444	-0.332227	0.684476
C48	C	0.971294	-0.389826	0.725644
C49	C	0.925251	-0.443788	0.693024
C50	C	0.928363	-0.440149	0.619241
C51	C	0.956880	-0.406690	0.946770
C52	C	0.953772	-0.410327	1.020558
C53	C	1.048965	-0.298764	1.012004
C54	C	1.052076	-0.295133	0.938220
C55	C	1.006030	-0.349092	0.905607
N56	N	0.968110	-0.393545	0.801063
N57	N	1.009211	-0.345368	0.830189
H58	H	0.593567	-0.288275	0.246121
H59	H	0.384316	-0.450919	0.384412
O60	O	0.243912	-0.466685	0.397703
C61	C	0.200504	-0.520840	0.361618
H62	H	0.193011	-0.489125	0.307272
H63	H	0.146912	-0.536115	0.393084
H64	H	0.226487	-0.581070	0.355319
O65	O	1.099865	-0.239275	0.898188
C66	C	1.145141	-0.282552	0.855673
H67	H	1.145639	-0.349369	0.880650
H68	H	1.200900	-0.249502	0.851178
H69	H	1.125498	-0.283778	0.800813
H70	H	0.927261	-0.889919	0.376581
H71	H	1.063584	-0.281690	0.577177
O72	O	0.406441	-0.239289	0.204351
C73	C	0.448889	-0.282491	0.158948
H74	H	0.456063	-0.346660	0.186130
H75	H	0.502697	-0.245317	0.145810
H76	H	0.422233	-0.290430	0.108191
H77	H	1.050038	-0.848420	0.253974
H78	H	0.577986	-0.490938	0.418441
O79	O	1.065241	-0.279778	0.716044
C80	C	1.109280	-0.228150	0.663886
H81	H	1.112398	-0.259731	0.612711
H82	H	1.164449	-0.217520	0.682469
H83	H	1.086608	-0.165452	0.654302
H84	H	1.086452	-0.254833	1.038566
O85	O	0.717014	-0.492836	0.419894
C86	C	0.758973	-0.542712	0.380188
H87	H	0.738837	-0.546145	0.325706
H88	H	0.755855	-0.608406	0.408481
H89	H	0.816155	-0.513917	0.374269
O90	O	0.906080	-0.466248	1.060656
C91	C	0.913197	-0.457871	1.132771
H92	H	0.968536	-0.428263	1.139337
H93	H	0.904386	-0.522203	1.163802
H94	H	0.872426	-0.416377	1.153488
H95	H	0.919396	-0.450639	0.920226
O96	O	0.877568	-0.499715	0.733118
C97	C	0.884681	-0.491345	0.805235
H98	H	0.940014	-0.461725	0.811805
H99	H	0.875880	-0.555680	0.836260
H100	H	0.843900	-0.449863	0.825956
H101	H	0.890867	-0.484080	0.592688
H102	H	0.266028	-0.254911	0.217767
H103	H	0.727423	-0.281592	0.240461
