data_functionalizedCrystal
_audit_creation_method	'MofGen! by Chris Wilmer'
_symmetry_space_group_name_H-M	'P1'
_symmetry_Int_Tables_number	1
_symmetry_cell_setting	triclinic
loop_
_symmetry_equiv_pos_as_xyz
  x,y,z
_cell_length_a	21.295418
_cell_length_b	21.295420
_cell_length_c	14.908308
_cell_angle_alpha	86.721801
_cell_angle_beta	86.737501
_cell_angle_gamma	90.023182
loop_
_atom_site_label
_atom_site_type_symbol
_atom_site_fract_x
_atom_site_fract_y
_atom_site_fract_z
Zn1	Zn	-0.271206	0.941788	0.510068
Zn2	Zn	0.062127	1.275122	0.843401
Zn3	Zn	0.395461	1.608455	1.176734
Zn4	Zn	-0.370408	0.947784	0.359203
Zn5	Zn	-0.037075	1.281117	0.692536
Zn6	Zn	0.296259	1.614450	1.025870
Zn7	Zn	-0.265150	0.842598	0.359227
Zn8	Zn	0.068184	1.175931	0.692560
Zn9	Zn	0.401517	1.509264	1.025893
Zn10	Zn	-0.376431	0.836489	0.510010
Zn11	Zn	-0.043098	1.169822	0.843344
Zn12	Zn	0.290236	1.503156	1.176677
O13	O	-0.320799	0.892165	0.434627
O14	O	0.012535	1.225498	0.767960
O15	O	0.345868	1.558831	1.101294
O16	O	-0.284379	1.030672	0.490069
O17	O	0.048954	1.364006	0.823402
O18	O	0.382288	1.697339	1.156736
O19	O	-0.351390	0.938896	0.232965
O20	O	-0.018057	1.272229	0.566299
O21	O	0.315277	1.605563	0.899632
O22	O	-0.177865	0.855803	0.379270
O23	O	0.155468	1.189136	0.712603
O24	O	0.488802	1.522470	1.045937
O25	O	-0.357262	1.035077	0.379230
O26	O	-0.023929	1.368410	0.712563
O27	O	0.309404	1.701744	1.045896
O28	O	-0.182315	0.928678	0.490092
O29	O	0.151019	1.262011	0.823425
O30	O	0.484352	1.595345	1.156759
O31	O	-0.274057	0.861617	0.232983
O32	O	0.059276	1.194950	0.566316
O33	O	0.392609	1.528283	0.899649
O34	O	-0.279898	0.753699	0.379214
O35	O	0.053436	1.087032	0.712548
O36	O	0.386769	1.420365	1.045881
O37	O	-0.367528	0.845392	0.636259
O38	O	-0.034195	1.178725	0.969592
O39	O	0.299139	1.512058	1.302926
O40	O	-0.361656	0.749211	0.489995
O41	O	-0.028322	1.082544	0.823328
O42	O	0.305011	1.415877	1.156661
O43	O	-0.290219	0.922755	0.636301
O44	O	0.043114	1.256088	0.969634
O45	O	0.376447	1.589421	1.302968
O46	O	-0.459295	0.932973	0.379174
O47	O	-0.125962	1.266306	0.712508
O48	O	0.207372	1.599639	1.045841
O49	O	-0.463720	0.851205	0.489972
O50	O	-0.130387	1.184538	0.823305
O51	O	0.202947	1.517872	1.156638
C52	C	-0.320774	0.728614	0.434601
C53	C	0.012560	1.061947	0.767935
C54	C	0.345893	1.395281	1.101268
C55	C	-0.320779	0.658646	0.434612
C56	C	0.012554	0.991979	0.767945
C57	C	0.345888	1.325312	1.101279
C58	C	-0.282948	0.156888	0.492448
C59	C	0.050386	0.490222	0.825782
C60	C	0.383719	0.823555	1.159115
C61	C	-0.282943	0.222631	0.492448
C62	C	0.050390	0.555964	0.825782
C63	C	0.383724	0.889298	1.159115
C64	C	-0.320819	0.257805	0.434648
C65	C	0.012515	0.591138	0.767981
C66	C	0.345848	0.924471	1.101315
C67	C	-0.358714	0.227230	0.376860
C68	C	-0.025381	0.560563	0.710193
C69	C	0.307953	0.893897	1.043526
C70	C	-0.358722	0.161488	0.376868
C71	C	-0.025389	0.494822	0.710201
C72	C	0.307944	0.828155	1.043535
N73	N	-0.322387	0.364182	0.355656
N74	N	0.010947	0.697515	0.688990
N75	N	0.344280	1.030849	1.022323
N76	N	-0.322375	0.426634	0.355651
N77	N	0.010958	0.759967	0.688984
N78	N	0.344291	1.093300	1.022318
C79	C	-0.320797	0.455880	0.434621
C80	C	0.012536	0.789214	0.767955
C81	C	0.345870	1.122547	1.101288
N82	N	-0.319218	0.420316	0.513599
N83	N	0.014115	0.753650	0.846932
N84	N	0.347448	1.086983	1.180266
N85	N	-0.319226	0.357859	0.513603
N86	N	0.014107	0.691192	0.846936
N87	N	0.347440	1.024526	1.180270
C88	C	-0.320814	0.329091	0.434633
C89	C	0.012519	0.662424	0.767966
C90	C	0.345853	0.995757	1.101300
C91	C	-0.282902	0.557733	0.492410
C92	C	0.050431	0.891066	0.825744
C93	C	0.383765	1.224399	1.159077
C94	C	-0.282902	0.623476	0.492412
C95	C	0.050431	0.956810	0.825745
C96	C	0.383765	1.290143	1.159078
C97	C	-0.358669	0.628074	0.376815
C98	C	-0.025336	0.961408	0.710149
C99	C	0.307997	1.294741	1.043482
C100	C	-0.358673	0.562332	0.376822
C101	C	-0.025340	0.895665	0.710155
C102	C	0.307993	1.228998	1.043488
C103	C	-0.320786	0.527165	0.434618
C104	C	0.012547	0.860498	0.767952
C105	C	0.345880	1.193832	1.101285
C106	C	-0.484349	0.892093	0.434584
C107	C	-0.151015	1.225426	0.767917
C108	C	0.182318	1.558759	1.101251
C109	C	-0.554317	0.892118	0.434596
C110	C	-0.220984	1.225452	0.767929
C111	C	0.112350	1.558785	1.101262
C112	C	-1.051457	0.934886	0.377080
C113	C	-0.718124	1.268220	0.710414
C114	C	-0.384790	1.601553	1.043747
C115	C	-0.985714	0.934863	0.377059
C116	C	-0.652380	1.268197	0.710392
C117	C	-0.319047	1.601530	1.043726
C118	C	-0.955160	0.892251	0.434690
C119	C	-0.621827	1.225584	0.768024
C120	C	-0.288494	1.558917	1.101357
C121	C	-0.990355	0.849647	0.492331
C122	C	-0.657022	1.182981	0.825664
C123	C	-0.323689	1.516314	1.158997
C124	C	-1.056097	0.849667	0.492344
C125	C	-0.722764	1.183001	0.825677
C126	C	-0.389430	1.516334	1.159011
N127	N	-0.855083	0.884177	0.513629
N128	N	-0.521749	1.217510	0.846963
N129	N	-0.188416	1.550843	1.180296
N130	N	-0.792630	0.884161	0.513614
N131	N	-0.459297	1.217495	0.846948
N132	N	-0.125964	1.550828	1.180281
C133	C	-0.757084	0.892187	0.434652
C134	C	-0.423751	1.225520	0.767986
C135	C	-0.090417	1.558853	1.101319
N136	N	-0.786349	0.900240	0.355704
N137	N	-0.453016	1.233574	0.689038
N138	N	-0.119682	1.566907	1.022371
N139	N	-0.848807	0.900259	0.355720
N140	N	-0.515473	1.233592	0.689054
N141	N	-0.182140	1.566926	1.022387
C142	C	-0.883875	0.892224	0.434682
C143	C	-0.550541	1.225557	0.768015
C144	C	-0.217208	1.558891	1.101348
C145	C	-0.650611	0.934759	0.376988
C146	C	-0.317277	1.268093	0.710321
C147	C	0.016056	1.601426	1.043654
C148	C	-0.584866	0.934732	0.376965
C149	C	-0.251533	1.268065	0.710298
C150	C	0.081801	1.601399	1.043631
C151	C	-0.589509	0.849519	0.492245
C152	C	-0.256176	1.182852	0.825578
C153	C	0.077157	1.516186	1.158911
C154	C	-0.655252	0.849544	0.492260
C155	C	-0.321919	1.182877	0.825593
C156	C	0.011414	1.516210	1.158926
C157	C	-0.685799	0.892167	0.434632
C158	C	-0.352466	1.225500	0.767966
C159	C	-0.019132	1.558834	1.101299
C160	C	-0.156611	0.892253	0.434690
C161	C	0.176722	1.225587	0.768023
C162	C	0.510056	1.558920	1.101357
C163	C	-0.086644	0.892291	0.434717
C164	C	0.246689	1.225624	0.768050
C165	C	0.580023	1.558958	1.101383
C166	C	-0.330221	0.882723	0.669928
C167	C	0.003112	1.216056	1.003261
C168	C	0.336446	1.549390	1.336595
C169	C	-0.334236	0.878699	0.770199
C170	C	-0.000903	1.212033	1.103533
C171	C	0.332430	1.545366	1.436866
C172	C	-0.320824	1.056354	0.434653
C173	C	0.012509	1.389687	0.767986
C174	C	0.345842	1.723021	1.101320
C175	C	-0.320835	1.126322	0.434664
C176	C	0.012498	1.459655	0.767998
C177	C	0.345831	1.792988	1.101331
C178	C	-0.311367	0.901606	0.200241
C179	C	0.021966	1.234939	0.533575
C180	C	0.355299	1.568273	0.866908
C181	C	-0.307175	0.905752	0.099971
C182	C	0.026158	1.239085	0.433304
C183	C	0.359492	1.572418	0.766637
C184	C	-0.261266	0.951695	0.958665
C185	C	0.072068	1.285028	1.291998
C186	C	0.405401	1.618362	1.625332
C187	C	-0.265036	0.947916	1.052879
C188	C	0.068297	1.281250	1.386212
C189	C	0.401631	1.614583	1.719545
C190	C	-0.345545	0.867361	1.052842
C191	C	-0.012211	1.200694	1.386176
C192	C	0.321122	1.534028	1.719509
C193	C	-0.341774	0.871140	0.958629
C194	C	-0.008441	1.204473	1.291962
C195	C	0.324893	1.537806	1.625295
C196	C	-0.299634	0.913309	0.911543
C197	C	0.033700	1.246642	1.244876
C198	C	0.367033	1.579975	1.578210
C199	C	-0.295867	0.917090	0.817328
C200	C	0.037467	1.250423	1.150661
C201	C	0.370800	1.583756	1.483994
C202	C	-0.376372	0.836532	0.817293
C203	C	-0.043038	1.169865	1.150626
C204	C	0.290295	1.503198	1.483960
C205	C	-0.380142	0.832753	0.911507
C206	C	-0.046809	1.166087	1.244840
C207	C	0.286525	1.499420	1.578173
H208	H	-0.389555	0.255872	0.329801
H209	H	-0.056221	0.589206	0.663134
H210	H	0.277112	0.922539	0.996467
H211	H	-0.407615	0.805276	0.778916
H212	H	-0.074282	1.138610	1.112250
H213	H	0.259051	1.471943	1.445583
H214	H	-0.957059	0.969551	0.330122
H215	H	-0.623726	1.302884	0.663456
H216	H	-0.290393	1.636217	0.996789
H217	H	-0.556216	0.969416	0.330025
H218	H	-0.222882	1.302750	0.663359
H219	H	0.110451	1.636083	0.996692
Cl220	Cl	-0.235307	0.261067	0.565094
Cl221	Cl	0.098026	0.594400	0.898428
Cl222	Cl	0.431360	0.927733	1.231761
Cl223	Cl	-1.089855	0.988468	0.304631
Cl224	Cl	-0.756522	1.321801	0.637964
Cl225	Cl	-0.423189	1.655135	0.971298
H226	H	-0.261555	0.951427	0.778992
H227	H	0.071778	1.284760	1.112325
H228	H	0.405112	1.618094	1.445659
Cl229	Cl	-1.100335	0.796116	0.564811
Cl230	Cl	-0.767001	1.129450	0.898144
Cl231	Cl	-0.433668	1.462783	1.231477
Cl232	Cl	-0.216799	0.996175	1.112115
Cl233	Cl	0.116534	1.329508	1.445448
Cl234	Cl	0.449868	1.662842	1.778782
Cl235	Cl	-0.235324	0.112682	0.565114
Cl236	Cl	0.098010	0.446015	0.898448
Cl237	Cl	0.431343	0.779349	1.231781
H238	H	-0.683902	0.814859	0.539196
H239	H	-0.350569	1.148193	0.872530
H240	H	-0.017235	1.481526	1.205863
Cl241	Cl	-0.406354	0.123059	0.304214
Cl242	Cl	-0.073020	0.456393	0.637548
Cl243	Cl	0.260313	0.789726	0.970881
H244	H	-0.226957	0.986034	0.920327
H245	H	0.106377	1.319367	1.253661
H246	H	0.439710	1.652700	1.586994
Cl247	Cl	-0.433115	0.779743	0.970708
Cl248	Cl	-0.099781	1.113077	1.304042
Cl249	Cl	0.233552	1.446410	1.637375
Cl250	Cl	-0.235276	0.513520	0.565070
Cl251	Cl	0.098057	0.846853	0.898403
Cl252	Cl	0.431390	1.180187	1.231737
Cl253	Cl	-0.235272	0.661904	0.565069
Cl254	Cl	0.098061	0.995237	0.898403
Cl255	Cl	0.431394	1.328570	1.231736
Cl256	Cl	-0.551105	0.795941	0.564685
Cl257	Cl	-0.217772	1.129274	0.898019
Cl258	Cl	0.115562	1.462607	1.231352
Cl259	Cl	-0.406291	0.672286	0.304158
Cl260	Cl	-0.072958	1.005620	0.637492
Cl261	Cl	0.260376	1.338953	0.970825
H262	H	-0.379853	0.833029	1.091195
H263	H	-0.046519	1.166362	1.424529
H264	H	0.286814	1.499696	1.757862
H265	H	-0.965475	0.814951	0.539254
H266	H	-0.632142	1.148284	0.872587
H267	H	-0.298809	1.481617	1.205920
Cl268	Cl	-0.689015	0.988338	0.304538
Cl269	Cl	-0.355682	1.321671	0.637871
Cl270	Cl	-0.022348	1.655005	0.971204
H271	H	-0.389523	0.537444	0.329764
H272	H	-0.056189	0.870778	0.663097
H273	H	0.277144	1.204111	0.996430
