data_functionalizedCrystal
_audit_creation_method	'MofGen! by Chris Wilmer'
_symmetry_space_group_name_H-M	'P1'
_symmetry_Int_Tables_number	1
_symmetry_cell_setting	triclinic
loop_
_symmetry_equiv_pos_as_xyz
  x,y,z
_cell_length_a	16.959454
_cell_length_b	13.032831
_cell_length_c	13.032268
_cell_angle_alpha	90.886977
_cell_angle_beta	97.150351
_cell_angle_gamma	82.825094
loop_
_atom_site_label
_atom_site_type_symbol
_atom_site_fract_x
_atom_site_fract_y
_atom_site_fract_z
Zn1	Zn	-0.533808	1.498450	-0.780847
Zn2	Zn	-0.033808	1.998450	-0.280847
Zn3	Zn	-0.651576	1.520186	-0.608869
Zn4	Zn	-0.151576	2.020186	-0.108869
Zn5	Zn	-0.500789	1.348310	-0.587087
Zn6	Zn	-0.000789	1.848310	-0.087087
Zn7	Zn	-0.647302	1.326434	-0.758994
Zn8	Zn	-0.147302	1.826434	-0.258994
O9	O	-0.583369	1.423345	-0.683949
O10	O	-0.083369	1.923345	-0.183949
O11	O	-0.565038	1.645253	-0.776295
O12	O	-0.065038	2.145253	-0.276295
O13	O	-0.619543	1.515638	-0.462063
O14	O	-0.119543	2.015638	0.037937
O15	O	-0.394566	1.368285	-0.612819
O16	O	0.105434	1.868285	-0.112819
O17	O	-0.651561	1.661222	-0.649944
O18	O	-0.151561	2.161222	-0.149944
O19	O	-0.418826	1.478592	-0.755173
O20	O	0.081174	1.978592	-0.255173
O21	O	-0.508760	1.389361	-0.446059
O22	O	-0.008760	1.889361	0.053941
O23	O	-0.504616	1.201488	-0.591629
O24	O	-0.004616	1.701488	-0.091629
O25	O	-0.644277	1.331000	-0.905810
O26	O	-0.144277	1.831000	-0.405810
O27	O	-0.612259	1.185416	-0.717929
O28	O	-0.112259	1.685416	-0.217929
O29	O	-0.560894	1.457380	-0.921865
O30	O	-0.060894	1.957380	-0.421865
O31	O	-0.761611	1.494425	-0.628754
O32	O	-0.261611	1.994425	-0.128754
O33	O	-0.758471	1.352077	-0.739051
O34	O	-0.258471	1.852077	-0.239051
C35	C	-0.554392	1.156135	-0.650045
C36	C	-0.054392	1.656135	-0.150045
C37	C	-0.542016	1.041819	-0.635565
C38	C	-0.042016	1.541819	-0.135565
C39	C	-0.589828	0.982940	-0.691506
C40	C	-0.089828	1.482940	-0.191506
C41	C	-0.577038	0.864788	-0.676542
C42	C	-0.077038	1.364788	-0.176542
C43	C	-0.788724	1.423261	-0.683921
C44	C	-0.288724	1.923261	-0.183921
C45	C	-0.876589	1.423315	-0.683955
C46	C	-0.376589	1.923315	-0.183955
C47	C	-1.246472	1.349320	-0.741386
C48	C	-0.746472	1.849320	-0.241386
C49	C	-1.249702	1.497643	-0.626654
C50	C	-0.749702	1.997643	-0.126654
C51	C	-1.167152	1.497608	-0.626640
C52	C	-0.667152	1.997608	-0.126640
C53	C	-1.124257	1.423427	-0.683998
C54	C	-0.624257	1.923427	-0.183998
C55	C	-1.163913	1.349281	-0.741371
C56	C	-0.663913	1.849281	-0.241371
C57	C	-1.127488	1.571746	-0.569260
C58	C	-0.627488	2.071746	-0.069260
C59	C	-1.044932	1.571713	-0.569243
C60	C	-0.544932	2.071713	-0.069243
C61	C	-1.002037	1.497536	-0.626608
C62	C	-0.502037	1.997536	-0.126608
C63	C	-1.041698	1.423388	-0.683984
C64	C	-0.541698	1.923388	-0.183984
C65	C	-0.998804	1.349208	-0.741342
C66	C	-0.498804	1.849208	-0.241342
C67	C	-1.038465	1.275063	-0.798724
C68	C	-0.538465	1.775063	-0.298724
C69	C	-1.121018	1.275104	-0.798736
C70	C	-0.621018	1.775104	-0.298736
C71	C	-0.919484	1.497495	-0.626597
C72	C	-0.419484	1.997495	-0.126597
C73	C	-0.916245	1.349169	-0.741327
C74	C	-0.416245	1.849169	-0.241327
C75	C	-0.377216	1.423454	-0.684004
C76	C	0.122784	1.923454	-0.184004
C77	C	-0.289366	1.423501	-0.684027
C78	C	0.210634	1.923501	-0.184027
C79	C	-0.605792	1.389325	-0.952197
C80	C	-0.105792	1.889325	-0.452197
C81	C	-0.615348	1.374828	-1.066508
C82	C	-0.115348	1.874828	-0.566508
C83	C	-0.612460	1.691598	-0.717986
C84	C	-0.112460	2.191598	-0.217986
C85	C	-0.624856	1.805911	-0.732491
C86	C	-0.124856	2.305911	-0.232491
C87	C	-0.578351	1.430895	-1.125415
C88	C	-0.078351	1.930895	-0.625415
C89	C	-0.588227	1.415913	-1.243562
C90	C	-0.088227	1.915913	-0.743562
C91	C	-0.560982	1.457291	-0.416753
C92	C	-0.060982	1.957291	0.083247
C93	C	-0.551225	1.471987	-0.302467
C94	C	-0.051225	1.971987	0.197533
H95	H	-0.526630	0.827729	-0.617570
H96	H	-0.026630	1.327729	-0.117570
C97	C	-1.001312	1.653268	-0.506115
C98	C	-0.501312	2.153268	-0.006115
N99	N	-0.968456	1.714694	-0.458565
N100	N	-0.468456	2.214694	0.041435
H101	H	-0.512233	1.531079	-1.265438
H102	H	-0.012233	2.031079	-0.765438
C103	C	-0.657921	1.033006	-0.771175
C104	C	-0.157921	1.533006	-0.271175
N105	N	-0.709213	1.070714	-0.831181
N106	N	-0.209213	1.570714	-0.331181
C107	C	-0.668012	1.294991	-1.116535
C108	C	-0.168012	1.794991	-0.616535
N109	N	-0.707681	1.234856	-1.154213
N110	N	-0.207681	1.734856	-0.654213
C111	C	-0.525681	1.510725	-1.075388
C112	C	-0.025681	2.010725	-0.575388
N113	N	-0.486008	1.570856	-1.037708
N114	N	0.013992	2.070856	-0.537708
H115	H	-0.491612	1.004755	-0.576597
H116	H	0.008388	1.504755	-0.076597
C117	C	-0.869070	1.267573	-0.804442
C118	C	-0.369070	1.767573	-0.304442
N119	N	-0.833539	1.206118	-0.851983
N120	N	-0.333539	1.706118	-0.351983
H121	H	-0.675257	0.842968	-0.791474
H122	H	-0.175257	1.342968	-0.291474
C123	C	-0.875861	1.579050	-0.563482
C124	C	-0.375861	2.079050	-0.063482
N125	N	-0.843006	1.640485	-0.515943
N126	N	-0.343006	2.140485	-0.015943
C127	C	-0.991270	1.193467	-0.861816
C128	C	-0.491270	1.693467	-0.361816
N129	N	-0.955720	1.132011	-0.909336
N130	N	-0.455720	1.632011	-0.409336
H131	H	-1.153317	1.214739	-0.845452
H132	H	-0.653317	1.714739	-0.345452
C133	C	-0.640894	1.336072	-1.293584
C134	C	-0.140894	1.836072	-0.793584
N135	N	-0.680562	1.275936	-1.331263
N136	N	-0.180562	1.775936	-0.831263
H137	H	-1.278768	1.288956	-0.788108
H138	H	-0.778768	1.788956	-0.288108
H139	H	-1.284630	1.558032	-0.579948
H140	H	-0.784630	2.058032	-0.079948
C141	C	-1.174673	1.653326	-0.506153
C142	C	-0.674673	2.153326	-0.006153
N143	N	-1.210217	1.714772	-0.458616
N144	N	-0.710217	2.214772	0.041384
