data_functionalizedCrystal
_audit_creation_method	'MofGen! by Chris Wilmer'
_symmetry_space_group_name_H-M	'P1'
_symmetry_Int_Tables_number	1
_symmetry_cell_setting	triclinic
loop_
_symmetry_equiv_pos_as_xyz
  x,y,z
_cell_length_a	12.759400
_cell_length_b	13.032951
_cell_length_c	13.032268
_cell_angle_alpha	89.114265
_cell_angle_beta	97.150187
_cell_angle_gamma	97.182956
loop_
_atom_site_label
_atom_site_type_symbol
_atom_site_fract_x
_atom_site_fract_y
_atom_site_fract_z
Zn1	Zn	-0.709607	-1.498511	-0.780886
Zn2	Zn	-0.209607	-0.998511	-0.280886
Zn3	Zn	-0.866143	-1.520262	-0.608909
Zn4	Zn	-0.366143	-1.020262	-0.108909
Zn5	Zn	-0.665710	-1.348368	-0.587122
Zn6	Zn	-0.165710	-0.848368	-0.087122
Zn7	Zn	-0.860453	-1.326510	-0.759029
Zn8	Zn	-0.360453	-0.826510	-0.259029
O9	O	-0.775479	-1.423413	-0.683986
O10	O	-0.275479	-0.923413	-0.183986
O11	O	-0.751125	-1.645318	-0.776338
O12	O	-0.251125	-1.145318	-0.276338
O13	O	-0.823566	-1.515710	-0.462102
O14	O	-0.323566	-1.015710	0.037898
O15	O	-0.524522	-1.368330	-0.612855
O16	O	-0.024522	-0.868330	-0.112855
O17	O	-0.866131	-1.661298	-0.649987
O18	O	-0.366131	-1.161298	-0.149987
O19	O	-0.556773	-1.478639	-0.755213
O20	O	-0.056773	-0.978639	-0.255213
O21	O	-0.676308	-1.389420	-0.446096
O22	O	-0.176308	-0.889420	0.053904
O23	O	-0.670791	-1.201547	-0.591661
O24	O	-0.170791	-0.701547	-0.091661
O25	O	-0.856433	-1.331076	-0.905844
O26	O	-0.356433	-0.831076	-0.405844
O27	O	-0.813868	-1.185488	-0.717960
O28	O	-0.313868	-0.685488	-0.217960
O29	O	-0.745607	-1.457445	-0.921903
O30	O	-0.245607	-0.957445	-0.421903
O31	O	-1.012400	-1.494515	-0.628793
O32	O	-0.512400	-0.994515	-0.128793
O33	O	-1.008220	-1.352167	-0.739085
O34	O	-0.508220	-0.852167	-0.239085
C35	C	-0.736949	-1.156201	-0.650075
C36	C	-0.236949	-0.656201	-0.150075
C37	C	-0.720494	-1.041883	-0.635592
C38	C	-0.220494	-0.541883	-0.135592
C39	C	-0.784042	-0.983010	-0.691531
C40	C	-0.284042	-0.483010	-0.191531
C41	C	-0.767036	-0.864857	-0.676564
C42	C	-0.267036	-0.364857	-0.176564
C43	C	-1.048435	-1.423354	-0.683957
C44	C	-0.548435	-0.923354	-0.183957
C45	C	-1.165224	-1.423419	-0.683991
C46	C	-0.665224	-0.923419	-0.183991
C47	C	-1.222247	-1.497604	-0.626644
C48	C	-0.722247	-0.997604	-0.126644
C49	C	-1.331983	-1.497663	-0.626684
C50	C	-0.831983	-0.997663	-0.126684
C51	C	-1.327664	-1.349344	-0.741420
C52	C	-0.827664	-0.849344	-0.241420
C53	C	-1.217931	-1.349290	-0.741385
C54	C	-0.717931	-0.849290	-0.241385
C55	C	-1.169540	-1.571733	-0.569250
C56	C	-0.669540	-1.071733	-0.069250
C57	C	-1.226562	-1.645923	-0.511897
C58	C	-0.726562	-1.145923	-0.011897
C59	C	-1.336299	-1.645982	-0.511937
C60	C	-0.836299	-1.145982	-0.011937
C61	C	-1.389013	-1.571851	-0.569329
C62	C	-0.889013	-1.071851	-0.069329
C63	C	-0.501463	-1.423496	-0.684042
C64	C	-0.001463	-0.923496	-0.184042
C65	C	-0.384694	-1.423532	-0.684065
C66	C	0.115306	-0.923532	-0.184065
C67	C	-0.805282	-1.389396	-0.952233
C68	C	-0.305282	-0.889396	-0.452233
C69	C	-0.817982	-1.374900	-1.066544
C70	C	-0.317982	-0.874900	-0.566544
C71	C	-0.814147	-0.691669	-0.718024
C72	C	-0.314147	-0.191669	-0.218024
C73	C	-0.830592	-0.805986	-0.732511
C74	C	-0.330592	-0.305986	-0.232511
C75	C	-0.768810	-1.430962	-1.125453
C76	C	-0.268810	-0.930962	-0.625453
C77	C	-0.781935	-1.415981	-1.243599
C78	C	-0.281935	-0.915981	-0.743599
C79	C	-0.745724	-1.457356	-0.416791
C80	C	-0.245724	-0.957356	0.083209
C81	C	-0.732756	-1.472051	-0.302506
C82	C	-0.232756	-0.972051	0.197494
H83	H	-0.700033	-0.827791	-0.617591
H84	H	-0.200033	-0.327791	-0.117591
H85	H	-0.897587	-0.843049	-0.791494
H86	H	-0.397587	-0.343049	-0.291494
O87	O	-0.664122	-1.550335	-1.253473
O88	O	-0.164122	-1.050335	-0.753473
H89	H	-0.598639	-1.510488	-1.198690
H90	H	-0.098639	-1.010488	-0.698690
O91	O	-1.156418	-1.269278	-0.803237
O92	O	-0.656418	-0.769278	-0.303237
H93	H	-1.093824	-1.222817	-0.750512
H94	H	-0.593824	-0.722817	-0.250512
O95	O	-0.631757	-0.992779	-0.557471
O96	O	-0.131757	-0.492779	-0.057471
H97	H	-0.554236	-1.011083	-0.577832
H98	H	-0.054236	-0.511083	-0.077832
O99	O	-1.051183	-1.571670	-0.569215
O100	O	-0.551183	-1.071670	-0.069215
H101	H	-1.024111	-1.635683	-0.519679
H102	H	-0.524111	-1.135683	-0.019679
H103	H	-1.183638	-1.706283	-0.465177
H104	H	-0.683638	-1.206283	0.034823
H105	H	-1.382726	-1.706397	-0.465246
H106	H	-0.882726	-1.206397	0.034754
H107	H	-1.478370	-1.571912	-0.569366
H108	H	-0.978370	-1.071912	-0.069366
H109	H	-1.370592	-1.288989	-0.788145
H110	H	-0.870592	-0.788989	-0.288145
O111	O	-0.850575	-1.337702	-1.292632
O112	O	-0.350575	-0.837702	-0.792632
H113	H	-0.850117	-1.338222	-1.377734
H114	H	-0.350117	-0.838222	-0.877734
O115	O	-0.872772	-1.032114	-0.769660
O116	O	-0.372772	-0.532114	-0.269660
H117	H	-0.950296	-1.013802	-0.749314
H118	H	-0.450296	-0.513802	-0.249314
O119	O	-0.700179	-1.509242	-1.076415
O120	O	-0.200179	-1.009242	-0.576415
H121	H	-0.700650	-1.508732	-0.991315
H122	H	-0.200650	-1.008732	-0.491315
O123	O	-0.886618	-1.296625	-1.115582
O124	O	-0.386618	-0.796625	-0.615582
H125	H	-0.886160	-1.297145	-1.200684
H126	H	-0.386160	-0.797145	-0.700684
