data_functionalizedCrystal
_audit_creation_method	'MofGen! by Chris Wilmer'
_symmetry_space_group_name_H-M	'P1'
_symmetry_Int_Tables_number	1
_symmetry_cell_setting	triclinic
loop_
_symmetry_equiv_pos_as_xyz
  x,y,z
_cell_length_a	10.654549
_cell_length_b	10.654555
_cell_length_c	15.186229
_cell_angle_alpha	89.998792
_cell_angle_beta	89.995613
_cell_angle_gamma	84.488236
loop_
_atom_site_label
_atom_site_type_symbol
_atom_site_fract_x
_atom_site_fract_y
_atom_site_fract_z
O1	O	1.667844	0.176426	-0.073245
O2	O	1.302367	0.193225	-0.073241
O3	O	1.493501	0.002087	-0.073243
O4	O	1.476710	0.367564	-0.073243
O5	O	1.493488	0.002084	0.073214
O6	O	1.302354	0.193222	0.073216
O7	O	1.667831	0.176423	0.073213
Zn8	Zn	1.485090	0.184822	0.096468
Zn9	Zn	1.485107	0.184826	-0.096496
O10	O	1.476697	0.367561	0.073214
C11	C	1.255562	0.191989	-0.000012
C12	C	1.116119	0.188295	-0.000011
C13	C	0.826143	0.409917	-0.000036
C14	C	0.877685	0.525935	-0.000032
C15	C	1.008703	0.529410	-0.000021
C16	C	1.088184	0.416855	-0.000016
C17	C	1.036643	0.300837	-0.000019
C18	C	0.905620	0.297374	-0.000028
C19	C	1.064577	0.072277	-0.000015
C20	C	0.933559	0.068798	-0.000020
C21	C	1.144058	-0.040278	-0.000009
C22	C	1.092517	-0.156299	-0.000007
C23	C	0.961490	-0.159770	-0.000017
C24	C	0.882018	-0.047220	-0.000023
C25	C	1.492259	-0.044712	-0.000016
C26	C	1.488561	-0.184155	-0.000021
C27	C	1.481607	-0.446189	0.159657
C28	C	1.483332	-0.380676	0.239493
C29	C	1.486800	-0.249657	0.239493
C30	C	1.488541	-0.184148	0.159649
C31	C	1.486817	-0.249661	0.079814
C32	C	1.483352	-0.380683	0.079822
C33	C	1.486837	-0.249668	-0.079857
C34	C	1.483377	-0.380688	-0.079859
C35	C	1.488577	-0.184158	-0.159700
C36	C	1.486862	-0.249673	-0.239538
C37	C	1.483395	-0.380700	-0.239534
C38	C	1.481653	-0.446201	-0.159694
C39	C	1.714635	0.177659	-0.000018
C40	C	1.854079	0.181353	-0.000025
C41	C	1.477939	0.414360	-0.000015
C42	C	1.481637	0.553803	-0.000015
N43	N	1.485088	0.184819	0.228160
N44	N	1.485120	0.184819	-0.228189
C45	C	1.569751	0.100212	0.453882
C46	C	1.569755	0.100209	0.546072
C47	C	1.400447	0.269430	0.546083
C48	C	1.400438	0.269426	0.453895
C49	C	1.485097	0.184819	0.407797
C50	C	1.485110	0.184820	0.592175
C51	C	1.485114	0.184817	0.692131
C52	C	1.485092	0.184819	0.307834
H53	H	1.250739	-0.037440	-0.000004
H54	H	1.050667	0.623882	-0.000017
H55	H	1.194865	0.419695	-0.000017
C56	C	0.737892	-0.051027	-0.000036
N57	N	0.629334	-0.053889	-0.000050
C58	C	1.477804	-0.590315	0.159665
N59	N	1.474938	-0.698872	0.159672
H60	H	0.719460	0.407098	-0.000030
H61	H	1.491395	-0.077475	-0.159695
H62	H	1.481981	-0.434031	-0.304546
H63	H	0.919534	-0.254246	-0.000025
H64	H	1.488271	-0.196323	-0.304540
C65	C	1.662872	0.007125	0.596762
N66	N	1.733006	-0.062995	0.634941
C67	C	1.492344	-0.040022	0.159654
N68	N	1.495211	0.068536	0.159657
H69	H	1.481911	-0.434028	0.304500
H70	H	1.331521	0.338318	0.583624
C71	C	1.662869	0.007131	0.403178
N72	N	1.733004	-0.062984	0.364990
C73	C	1.488697	-0.177591	0.327315
N74	N	1.490128	-0.123311	0.393463
C75	C	1.477837	-0.590325	-0.159683
N76	N	1.474956	-0.698881	-0.159671
C77	C	1.307364	0.362562	0.403198
N78	N	1.237283	0.432728	0.365012
H79	H	1.157239	-0.247932	-0.000008
C80	C	0.790248	0.649739	-0.000035
N81	N	0.724392	0.742989	-0.000036
