data_functionalizedCrystal
_audit_creation_method	'MofGen! by Chris Wilmer'
_symmetry_space_group_name_H-M	'P1'
_symmetry_Int_Tables_number	1
_symmetry_cell_setting	triclinic
loop_
_symmetry_equiv_pos_as_xyz
  x,y,z
_cell_length_a	12.594517
_cell_length_b	25.639233
_cell_length_c	12.594516
_cell_angle_alpha	89.987509
_cell_angle_beta	90.011616
_cell_angle_gamma	89.986289
loop_
_atom_site_label
_atom_site_type_symbol
_atom_site_fract_x
_atom_site_fract_y
_atom_site_fract_z
Zn1	Zn	1.627218	-0.295647	-0.423877
Zn2	Zn	1.627146	-0.208221	-0.601840
Zn3	Zn	1.449246	-0.208224	-0.423875
Zn4	Zn	1.449218	-0.295624	-0.601814
O5	O	1.538207	-0.251929	-0.512851
O6	O	1.776154	-0.284058	-0.447496
O7	O	1.603529	-0.135056	-0.578242
O8	O	1.472896	-0.219832	-0.274930
O9	O	1.776101	-0.219827	-0.578245
O10	O	1.603652	-0.284061	-0.274931
O11	O	1.472826	-0.135058	-0.447492
O12	O	1.300296	-0.219809	-0.447467
O13	O	1.472848	-0.368792	-0.578200
O14	O	1.300275	-0.284022	-0.578198
O15	O	1.603625	-0.368809	-0.447471
O16	O	1.603501	-0.219804	-0.750782
O17	O	1.472778	-0.284019	-0.750763
C18	C	1.261666	-0.251914	-0.512830
C19	C	1.143360	-0.251919	-0.512847
C20	C	1.074088	-0.217061	-0.441645
C21	C	1.003287	-0.204201	-0.538727
C22	C	1.003362	-0.264788	-0.415812
C23	C	1.074118	-0.239035	-0.609979
C24	C	1.074199	-0.299644	-0.486999
C25	C	1.003431	-0.286802	-0.584148
C26	C	1.538241	-0.388302	-0.512833
C27	C	1.538256	-0.446416	-0.512825
C28	C	1.606437	-0.806794	-0.444552
C29	C	1.606451	-0.861398	-0.444523
O30	O	1.664335	-0.889647	-0.386600
N31	N	1.538373	-0.888699	-0.512575
C32	C	1.470270	-0.861392	-0.580654
O33	O	1.412366	-0.889627	-0.638535
C34	C	1.470253	-0.806789	-0.580677
C35	C	1.538342	-0.779491	-0.512628
C36	C	1.674521	-0.779496	-0.376507
C37	C	1.674509	-0.724895	-0.376538
C38	C	1.606413	-0.697593	-0.444614
C39	C	1.538330	-0.724891	-0.512659
C40	C	1.402145	-0.779483	-0.648750
C41	C	1.402133	-0.724876	-0.648767
C42	C	1.470223	-0.697578	-0.580718
C43	C	1.470223	-0.642987	-0.580766
N44	N	1.538301	-0.615687	-0.512713
C45	C	1.606396	-0.642989	-0.444637
C46	C	1.470311	-0.976063	-0.580599
C47	C	1.470334	-1.030665	-0.580582
C48	C	1.606513	-1.030667	-0.444448
C49	C	1.606495	-0.976064	-0.444472
C50	C	1.538389	-0.948762	-0.512546
C51	C	1.606366	-0.528324	-0.444709
C52	C	1.606351	-0.473719	-0.444749
C53	C	1.470169	-0.473721	-0.580878
C54	C	1.470187	-0.528322	-0.580842
C55	C	1.538289	-0.555622	-0.512749
O56	O	1.412365	-0.614703	-0.638656
O57	O	1.664281	-0.614747	-0.386757
C58	C	1.815828	-0.251945	-0.512874
C59	C	1.934133	-0.251951	-0.512883
C60	C	1.538158	-0.251920	-0.789392
C61	C	1.538234	-0.251933	-0.907698
C62	C	1.538234	-0.116086	-0.512793
C63	C	1.538425	-0.057973	-0.512501
C64	C	1.609417	-0.217044	-0.976923
C65	C	1.635414	-0.264766	-1.047645
C66	C	1.512369	-0.204242	-1.047774
C67	C	1.564281	-0.299680	-0.976862
C68	C	1.441191	-0.239124	-0.976985
C69	C	1.467152	-0.286879	-1.047675
C70	C	1.538285	-0.251950	-0.235231
C71	C	1.538319	-0.251958	-0.116925
H72	H	1.661802	-0.451495	-0.389334
H73	H	1.661818	-0.550546	-0.389257
H74	H	1.729952	-0.702674	-0.321123
H75	H	1.729972	-0.801720	-0.321066
H76	H	1.406991	-0.316428	-1.078545
Cl77	Cl	1.384564	-0.439388	-0.666451
H78	H	1.105371	-0.339978	-0.465085
Cl79	Cl	1.692094	-0.941753	-0.358918
H80	H	1.105112	-0.187546	-0.381491
H81	H	1.669623	-0.187567	-0.945856
Cl82	Cl	1.478538	-0.141958	-1.095866
Cl83	Cl	0.955827	-0.332337	-0.677238
Cl84	Cl	1.762179	-0.281525	-1.095547
Cl85	Cl	0.955196	-0.141911	-0.572516
Cl86	Cl	1.121897	-0.222178	-0.736735
H87	H	0.972226	-0.275641	-0.333747
Cl88	Cl	1.692116	-1.065001	-0.358863
Cl89	Cl	1.314460	-0.222355	-0.929028
Cl90	Cl	1.598275	-0.361982	-0.928982
Cl91	Cl	1.384692	-0.941746	-0.666196
Cl92	Cl	1.384593	-0.562640	-0.666396
Cl93	Cl	1.384748	-1.064976	-0.666150
H94	H	1.346660	-0.702650	-0.704192
Cl95	Cl	1.316545	-0.813787	-0.734308
