data_functionalizedCrystal
_audit_creation_method	'MofGen! by Chris Wilmer'
_symmetry_space_group_name_H-M	'P1'
_symmetry_Int_Tables_number	1
_symmetry_cell_setting	triclinic
loop_
_symmetry_equiv_pos_as_xyz
  x,y,z
_cell_length_a	14.519709
_cell_length_b	12.837942
_cell_length_c	12.996460
_cell_angle_alpha	90.000533
_cell_angle_beta	90.000602
_cell_angle_gamma	90.745457
loop_
_atom_site_label
_atom_site_type_symbol
_atom_site_fract_x
_atom_site_fract_y
_atom_site_fract_z
O1	O	1.235614	-0.135901	0.085431
O2	O	1.485614	0.114099	0.335431
O3	O	1.735614	0.364099	0.585431
O4	O	1.985614	0.614099	0.835431
O5	O	0.968520	-0.151906	0.085462
O6	O	1.218520	0.098094	0.335462
O7	O	1.468520	0.348094	0.585462
O8	O	1.718520	0.598094	0.835462
O9	O	1.096145	0.007010	0.085441
O10	O	1.346145	0.257010	0.335441
O11	O	1.596145	0.507010	0.585441
O12	O	1.846145	0.757010	0.835441
O13	O	1.107990	-0.294818	0.085452
O14	O	1.357990	-0.044818	0.335452
O15	O	1.607990	0.205182	0.585452
O16	O	1.857990	0.455182	0.835452
O17	O	1.096127	0.007001	-0.085693
O18	O	1.346127	0.257001	0.164307
O19	O	1.596127	0.507001	0.414307
O20	O	1.846127	0.757001	0.664307
O21	O	0.968503	-0.151916	-0.085671
O22	O	1.218503	0.098084	0.164329
O23	O	1.468503	0.348084	0.414329
O24	O	1.718503	0.598084	0.664329
O25	O	1.235597	-0.135911	-0.085703
O26	O	1.485597	0.114089	0.164297
O27	O	1.735597	0.364089	0.414297
O28	O	1.985597	0.614089	0.664297
Cu29	Cu	1.102048	-0.143914	-0.101313
Cu30	Cu	1.352048	0.106086	0.148687
Cu31	Cu	1.602048	0.356086	0.398687
Cu32	Cu	1.852048	0.606086	0.648687
Cu33	Cu	1.102069	-0.143903	0.101073
Cu34	Cu	1.352069	0.106097	0.351073
Cu35	Cu	1.602069	0.356097	0.601073
Cu36	Cu	1.852069	0.606097	0.851073
O37	O	1.107972	-0.294827	-0.085681
O38	O	1.357972	-0.044827	0.164319
O39	O	1.607972	0.205173	0.414319
O40	O	1.857972	0.455173	0.664319
C41	C	0.934087	-0.151165	-0.000101
C42	C	1.184087	0.098835	0.249899
C43	C	1.434087	0.348835	0.499899
C44	C	1.684087	0.598835	0.749899
C45	C	0.831513	-0.148930	-0.000089
C46	C	1.081513	0.101070	0.249911
C47	C	1.331513	0.351070	0.499911
C48	C	1.581513	0.601070	0.749911
C49	C	0.455906	-0.140701	-0.000136
C50	C	0.705906	0.109299	0.249864
C51	C	0.955906	0.359299	0.499864
C52	C	1.205906	0.609299	0.749864
C53	C	0.560411	-0.142986	-0.000122
C54	C	0.810411	0.107014	0.249878
C55	C	1.060411	0.357014	0.499878
C56	C	1.310411	0.607014	0.749878
C57	C	0.643706	-0.144815	-0.000111
C58	C	0.893706	0.105185	0.249889
C59	C	1.143706	0.355185	0.499889
C60	C	1.393706	0.605185	0.749889
C61	C	0.748218	-0.147101	-0.000100
C62	C	0.998218	0.102899	0.249900
C63	C	1.248218	0.352899	0.499900
C64	C	1.498218	0.602899	0.749900
C65	C	1.092134	0.045633	-0.000125
C66	C	1.342134	0.295633	0.249875
C67	C	1.592134	0.545633	0.499875
C68	C	1.842134	0.795633	0.749875
C69	C	1.080200	0.160732	-0.000122
C70	C	1.330200	0.410732	0.249878
C71	C	1.580200	0.660732	0.499878
C72	C	1.830200	0.910732	0.749878
C73	C	1.270030	-0.136652	-0.000138
C74	C	1.520030	0.113348	0.249862
C75	C	1.770030	0.363348	0.499862
C76	C	2.020030	0.613348	0.749862
C77	C	1.372604	-0.138887	-0.000143
C78	C	1.622604	0.111113	0.249857
C79	C	1.872604	0.361113	0.499857
C80	C	2.122604	0.611113	0.749857
C81	C	1.111982	-0.333450	-0.000113
C82	C	1.361982	-0.083450	0.249887
C83	C	1.611982	0.166550	0.499887
C84	C	1.861982	0.416550	0.749887
C85	C	1.123916	-0.448550	-0.000110
C86	C	1.373916	-0.198550	0.249890
C87	C	1.623916	0.051450	0.499890
C88	C	1.873916	0.301450	0.749890
C89	C	1.223671	0.401425	-0.000117
C90	C	1.473671	0.651425	0.249883
C91	C	1.723671	0.901425	0.499883
C92	C	1.973671	1.151425	0.749883
C93	C	1.212462	0.509571	-0.000114
C94	C	1.462462	0.759571	0.249886
C95	C	1.712462	1.009571	0.499886
C96	C	1.962462	1.259571	0.749886
C97	C	1.046574	0.485174	-0.000105
C98	C	1.296574	0.735174	0.249895
C99	C	1.546574	0.985174	0.499895
C100	C	1.796574	1.235174	0.749895
C101	C	1.057783	0.377028	-0.000108
C102	C	1.307783	0.627028	0.249892
C103	C	1.557783	0.877028	0.499892
C104	C	1.807783	1.127028	0.749892
C105	C	1.146334	0.335157	-0.000116
C106	C	1.396334	0.585157	0.249884
C107	C	1.646334	0.835157	0.499884
C108	C	1.896334	1.085157	0.749884
C109	C	1.157542	0.227009	-0.000126
C110	C	1.407542	0.477009	0.249874
C111	C	1.657542	0.727009	0.499874
C112	C	1.907542	0.977009	0.749874
C113	C	0.991656	0.202614	-0.000110
C114	C	1.241656	0.452614	0.249890
C115	C	1.491656	0.702614	0.499890
C116	C	1.741656	0.952614	0.749890
C117	C	0.980447	0.310760	-0.000107
C118	C	1.230447	0.560760	0.249893
C119	C	1.480447	0.810760	0.499893
C120	C	1.730447	1.060760	0.749893
N121	N	1.102040	-0.143921	-0.243660
N122	N	1.352040	0.106079	0.006340
N123	N	1.602040	0.356079	0.256340
N124	N	1.852040	0.606079	0.506340
C125	C	1.102045	-0.143924	-0.336766
C126	C	1.352045	0.106076	-0.086766
C127	C	1.602045	0.356076	0.163234
C128	C	1.852045	0.606076	0.413234
C129	C	1.102053	-0.143917	-0.453571
C130	C	1.352053	0.106083	-0.203571
C131	C	1.602053	0.356083	0.046429
C132	C	1.852053	0.606083	0.296429
C133	C	1.102063	-0.143905	-0.546669
C134	C	1.352063	0.106095	-0.296669
C135	C	1.602063	0.356095	-0.046669
C136	C	1.852063	0.606095	0.203331
C137	C	1.102072	-0.143899	-0.663482
C138	C	1.352072	0.106101	-0.413482
C139	C	1.602072	0.356101	-0.163482
C140	C	1.852072	0.606101	0.086518
N141	N	1.102083	-0.143888	0.243420
N142	N	1.352083	0.106112	0.493420
N143	N	1.602083	0.356112	0.743420
N144	N	1.852083	0.606112	0.993420
H145	H	1.229645	0.192920	-0.000136
H146	H	1.479645	0.442920	0.249864
H147	H	1.729645	0.692920	0.499864
H148	H	1.979645	0.942920	0.749864
C149	C	1.321070	0.355363	-0.000133
C150	C	1.571070	0.605363	0.249867
C151	C	1.821070	0.855363	0.499867
C152	C	2.071070	1.105363	0.749867
H153	H	1.365525	0.410320	-0.000132
H154	H	1.615525	0.660320	0.249868
H155	H	1.865525	0.910320	0.499868
H156	H	2.115525	1.160320	0.749868
H157	H	1.328881	0.313681	-0.059813
H158	H	1.578881	0.563681	0.190187
H159	H	1.828881	0.813681	0.440187
H160	H	2.078881	1.063681	0.690187
H161	H	1.328897	0.313683	0.059551
H162	H	1.578897	0.563683	0.309551
H163	H	1.828897	0.813683	0.559551
H164	H	2.078897	1.063683	0.809551
H165	H	0.974480	0.519285	-0.000088
H166	H	1.224480	0.769285	0.249912
H167	H	1.474480	1.019285	0.499912
H168	H	1.724480	1.269285	0.749912
H169	H	1.275438	0.563524	-0.000112
H170	H	1.525438	0.813524	0.249888
H171	H	1.775438	1.063524	0.499888
H172	H	2.025438	1.313524	0.749888
H173	H	0.928683	0.148646	-0.000117
H174	H	1.178683	0.398646	0.249883
H175	H	1.428683	0.648646	0.499883
H176	H	1.678683	0.898646	0.749883
C177	C	0.883049	0.356824	-0.000105
C178	C	1.133049	0.606824	0.249895
C179	C	1.383049	0.856824	0.499895
C180	C	1.633049	1.106824	0.749895
H181	H	0.887448	0.430724	-0.000111
H182	H	1.137448	0.680724	0.249889
H183	H	1.387448	0.930724	0.499889
H184	H	1.637448	1.180724	0.749889
H185	H	0.850803	0.334087	0.059570
H186	H	1.100803	0.584087	0.309570
H187	H	1.350803	0.834087	0.559570
H188	H	1.600803	1.084087	0.809570
H189	H	0.850811	0.334090	-0.059794
H190	H	1.100811	0.584090	0.190206
H191	H	1.350811	0.834090	0.440206
H192	H	1.600811	1.084090	0.690206
