data_functionalizedCrystal
_audit_creation_method	'MofGen! by Chris Wilmer'
_symmetry_space_group_name_H-M	'P1'
_symmetry_Int_Tables_number	1
_symmetry_cell_setting	triclinic
loop_
_symmetry_equiv_pos_as_xyz
  x,y,z
_cell_length_a	16.956984
_cell_length_b	10.967829
_cell_length_c	15.455313
_cell_angle_alpha	80.579194
_cell_angle_beta	87.518126
_cell_angle_gamma	80.479988
loop_
_atom_site_label
_atom_site_type_symbol
_atom_site_fract_x
_atom_site_fract_y
_atom_site_fract_z
O1	O	1.062111	0.045310	-0.078907
O2	O	0.830504	0.088575	-0.085374
O3	O	0.950363	-0.113090	-0.055227
O4	O	0.942252	0.246975	-0.109054
O5	O	0.943508	-0.101602	0.087318
O6	O	0.823649	0.100062	0.057171
O7	O	1.055256	0.056798	0.063638
Cu8	Cu	0.938827	0.079479	0.073420
Cu9	Cu	0.946933	0.065894	-0.095156
O10	O	0.935397	0.258463	0.033491
C11	C	0.797397	0.096534	-0.014433
C12	C	0.708960	0.103121	-0.015418
C13	C	0.675474	-0.007007	0.001047
C14	C	0.592378	-0.000811	0.000115
C15	C	0.542769	0.115514	-0.017276
C16	C	0.576260	0.225649	-0.033745
C17	C	0.659355	0.219452	-0.032819
C18	C	0.293387	0.146190	-0.021868
C19	C	0.210286	0.152379	-0.022791
C20	C	0.226411	-0.074082	0.011067
C21	C	0.309506	-0.080269	0.011997
C22	C	0.342990	0.029866	-0.004476
N23	N	0.457831	0.121850	-0.018227
N24	N	0.427927	0.023528	-0.003531
C25	C	0.945828	-0.153203	0.022899
C26	C	0.942516	-0.289841	0.043320
C27	C	0.944591	-0.356704	-0.021419
C28	C	0.941169	-0.497927	-0.000315
C29	C	1.088364	0.048839	-0.007305
C30	C	1.176801	0.042252	-0.006326
C31	C	0.939933	0.298576	-0.044637
C32	C	0.943244	0.435213	-0.065063
N33	N	0.933131	0.089033	0.191987
N34	N	0.952635	0.056330	-0.213722
C35	C	0.984070	0.003386	0.250185
C36	C	0.979770	0.010622	0.339911
C37	C	0.924534	0.103511	0.371437
C38	C	0.873590	0.189162	0.313232
C39	C	0.877887	0.181919	0.223509
C40	C	0.905988	0.134738	0.638350
C41	C	0.901697	0.141976	0.728081
C42	C	1.007876	-0.036566	0.754753
C43	C	1.012171	-0.043795	0.665026
C44	C	0.961224	0.041852	0.606830
N45	N	0.920139	0.110912	0.463151
N46	N	0.965615	0.034444	0.515119
H47	H	0.169895	0.247110	-0.036950
H48	H	0.828612	0.264790	0.338906
C49	C	0.822542	0.275065	0.160452
C50	C	0.773264	0.357986	0.207260
C51	C	0.722274	0.443818	0.149202
H52	H	0.790432	0.231413	0.131564
H53	H	0.853495	0.320713	0.118211
H54	H	0.742314	0.312343	0.249485
H55	H	0.805352	0.401668	0.236145
H56	H	0.753227	0.489466	0.106960
H57	H	0.690170	0.400155	0.120316
H58	H	0.688838	0.500097	0.180951
H59	H	0.938202	-0.337148	0.114369
C60	C	0.329579	0.265907	-0.039720
C61	C	0.268343	0.369102	-0.055120
C62	C	0.301655	0.479412	-0.071556
H63	H	0.364038	0.264377	-0.089785
H64	H	0.359246	0.272273	0.009656
H65	H	0.238690	0.362737	-0.104491
H66	H	0.233880	0.370673	-0.005065
H67	H	0.331322	0.485778	-0.022180
H68	H	0.336114	0.477869	-0.121620
H69	H	0.260112	0.549443	-0.081999
H70	H	1.029052	-0.072249	0.224523
H71	H	1.021248	-0.059119	0.387296
C72	C	0.935383	-0.560746	0.094485
C73	C	0.934113	-0.471687	0.150120
C74	C	0.928772	-0.529508	0.237453
H75	H	0.980287	-0.624702	0.107390
H76	H	0.887704	-0.596410	0.103085
H77	H	0.981786	-0.436043	0.141525
H78	H	0.889210	-0.407727	0.137244
H79	H	0.881093	-0.565171	0.246053
H80	H	0.973678	-0.593462	0.250349
H81	H	0.927903	-0.469088	0.275212
H82	H	0.947545	-0.517483	-0.136119
H83	H	1.057148	-0.119432	0.639360
H84	H	1.049354	-0.106296	0.802144
H85	H	0.565119	-0.090488	0.013521
H86	H	0.349894	-0.174992	0.026163
H87	H	0.856715	0.217623	0.753743
C88	C	0.850639	0.227884	0.575307
C89	C	0.801366	0.310802	0.622120
C90	C	0.750373	0.396640	0.564068
H91	H	0.818526	0.184237	0.546419
H92	H	0.881590	0.273534	0.533065
H93	H	0.770417	0.265158	0.664347
H94	H	0.833457	0.354479	0.651006
H95	H	0.781325	0.442290	0.521826
H96	H	0.718266	0.352982	0.535183
H97	H	0.716941	0.452917	0.595821
H98	H	0.199139	-0.163748	0.024469
C99	C	0.729200	-0.133429	0.019902
C100	C	0.682086	-0.228548	0.034096
C101	C	0.731549	-0.345028	0.051452
H102	H	0.759578	-0.136732	0.070688
H103	H	0.764329	-0.144625	-0.028753
H104	H	0.646972	-0.217356	0.082746
H105	H	0.651710	-0.225285	-0.016681
H106	H	0.766678	-0.356224	0.002797
H107	H	0.761925	-0.348318	0.102237
H108	H	0.699590	-0.409580	0.061076
H109	H	0.535861	0.320362	-0.047911
C110	C	0.950466	-0.293851	-0.116197
C111	C	1.020253	-0.349649	-0.155331
C112	C	1.025688	-0.291803	-0.242646
H113	H	0.952051	-0.207317	-0.117921
H114	H	0.905230	-0.303316	-0.147163
H115	H	1.065477	-0.340172	-0.124374
H116	H	1.018684	-0.436177	-0.153631
H117	H	0.980452	-0.301268	-0.273611
H118	H	1.027271	-0.205271	-0.244361
H119	H	1.073034	-0.329660	-0.269211
C120	C	0.695558	0.339165	-0.050671
C121	C	0.634328	0.442366	-0.066077
C122	C	0.667647	0.552670	-0.082519
H123	H	0.730018	0.337624	-0.100735
H124	H	0.725227	0.345533	-0.001296
H125	H	0.604674	0.436000	-0.115446
H126	H	0.599864	0.443948	-0.016022
H127	H	0.697315	0.559038	-0.033144
H128	H	0.702106	0.551116	-0.132582
H129	H	0.626108	0.622706	-0.092965
