data_functionalizedCrystal
_audit_creation_method	'MofGen! by Chris Wilmer'
_symmetry_space_group_name_H-M	'P1'
_symmetry_Int_Tables_number	1
_symmetry_cell_setting	triclinic
loop_
_symmetry_equiv_pos_as_xyz
  x,y,z
_cell_length_a	8.597340
_cell_length_b	14.519731
_cell_length_c	7.088929
_cell_angle_alpha	83.763267
_cell_angle_beta	103.954719
_cell_angle_gamma	84.516174
loop_
_atom_site_label
_atom_site_type_symbol
_atom_site_fract_x
_atom_site_fract_y
_atom_site_fract_z
O1	O	2.101745	0.126654	0.187229
O2	O	1.637107	0.141709	0.110684
O3	O	1.881729	-0.000078	0.151001
O4	O	1.857122	0.268441	0.146912
O5	O	1.914420	-0.019069	0.474364
O6	O	1.669798	0.122718	0.434047
O7	O	2.134436	0.107663	0.510592
Cu8	Cu	1.905102	0.113456	0.501845
Cu9	Cu	1.866441	0.135916	0.119431
O10	O	1.889814	0.249450	0.470275
C11	C	1.593988	0.131655	0.262570
C12	C	1.416801	0.129979	0.233381
C13	C	1.896922	-0.043931	0.312493
C14	C	1.893468	-0.146305	0.311925
C15	C	1.890660	-0.229444	0.311458
C16	C	1.887151	-0.333746	0.310865
C17	C	1.884366	-0.416879	0.310394
C18	C	1.880858	-0.521188	0.309805
C19	C	2.177555	0.117718	0.358702
C20	C	2.354740	0.119395	0.387878
C21	C	1.874620	0.293304	0.308779
C22	C	1.878073	0.395679	0.309334
N23	N	1.932306	0.097659	0.770817
N24	N	1.839250	0.151706	-0.149539
H25	H	1.334372	0.137758	0.078760
H26	H	1.437161	0.111609	0.542489
C27	C	1.708950	0.227367	0.718686
N28	N	1.610804	0.284355	0.619420
C29	C	2.062611	0.021993	0.902601
N30	N	2.160753	-0.034998	1.001862
