data_functionalizedCrystal
_audit_creation_method	'MofGen! by Chris Wilmer'
_symmetry_space_group_name_H-M	'P1'
_symmetry_Int_Tables_number	1
_symmetry_cell_setting	triclinic
loop_
_symmetry_equiv_pos_as_xyz
  x,y,z
_cell_length_a	12.759395
_cell_length_b	13.897447
_cell_length_c	12.759387
_cell_angle_alpha	89.968560
_cell_angle_beta	89.980569
_cell_angle_gamma	90.019375
loop_
_atom_site_label
_atom_site_type_symbol
_atom_site_fract_x
_atom_site_fract_y
_atom_site_fract_z
Zn1	Zn	1.606233	-0.383968	-0.593970
Zn2	Zn	1.606109	-0.545296	-0.418289
Zn3	Zn	1.430532	-0.384016	-0.418310
Zn4	Zn	1.430509	-0.545222	-0.593931
O5	O	1.518346	-0.464625	-0.506125
O6	O	1.753238	-0.405379	-0.570673
O7	O	1.582776	-0.523952	-0.271270
O8	O	1.453900	-0.249028	-0.441637
O9	O	1.753147	-0.523906	-0.441601
O10	O	1.582988	-0.248993	-0.570694
O11	O	1.453780	-0.405461	-0.271286
O12	O	1.283508	-0.405390	-0.441600
O13	O	1.453862	-0.523781	-0.740957
O14	O	1.283491	-0.523827	-0.570627
O15	O	1.582966	-0.405308	-0.740986
O16	O	1.582754	-0.680268	-0.441563
O17	O	1.453741	-0.680214	-0.570606
C18	C	1.245378	-0.464606	-0.506112
C19	C	1.128602	-0.464621	-0.506131
C20	C	1.128677	-0.341399	-0.640752
C21	C	1.073854	-0.279799	-0.708070
C22	C	0.964133	-0.279817	-0.708083
C23	C	0.909232	-0.341438	-0.640768
C24	C	0.964055	-0.403037	-0.573450
C25	C	1.073779	-0.403016	-0.573446
C26	C	0.963979	-0.526253	-0.438826
C27	C	1.073700	-0.526243	-0.438816
C28	C	0.909078	-0.587875	-0.371511
C29	C	0.963901	-0.649480	-0.304196
C30	C	1.073629	-0.649462	-0.304187
C31	C	1.128523	-0.587842	-0.371498
C32	C	1.518260	-0.715240	-0.506101
C33	C	1.518320	-0.822454	-0.506125
C34	C	1.518371	-0.909523	-0.506149
C35	C	1.518444	-1.018756	-0.506176
C36	C	1.792379	-0.464645	-0.506139
C37	C	1.909156	-0.464654	-0.506144
C38	C	1.518425	-0.464531	-0.780159
C39	C	1.518459	-0.464491	-0.896935
C40	C	1.518460	-0.213032	-0.506172
C41	C	1.518509	-0.105819	-0.506193
C42	C	1.652904	-0.341133	-0.896985
C43	C	1.720141	-0.279440	-0.951871
C44	C	1.720167	-0.279405	-1.061593
C45	C	1.652946	-0.341067	-1.116431
C46	C	1.585709	-0.402761	-1.061545
C47	C	1.585692	-0.402791	-0.951821
C48	C	1.451260	-0.526112	-1.061496
C49	C	1.451238	-0.526153	-0.951774
C50	C	1.384039	-0.587775	-1.116334
C51	C	1.316805	-0.649474	-1.061449
C52	C	1.316783	-0.649508	-0.951720
C53	C	1.384001	-0.587847	-0.896888
C54	C	1.518327	-0.464650	-0.233158
C55	C	1.518497	-0.464419	-0.116381
H56	H	0.919496	-0.229651	-0.762894
H57	H	1.384060	-0.587738	-1.205675
O58	O	1.251442	-0.709536	-0.898570
C59	C	1.192108	-0.763932	-0.970504
H60	H	1.235151	-0.767242	-1.048726
H61	H	1.180862	-0.839944	-0.938793
H62	H	1.112332	-0.728600	-0.982162
O63	O	0.910687	-0.709467	-0.238865
C64	C	0.937460	-0.805629	-0.261655
H65	H	1.017142	-0.807669	-0.302033
H66	H	0.941170	-0.848795	-0.185747
H67	H	0.875720	-0.838183	-0.315612
H68	H	1.118259	-0.699620	-0.249364
H69	H	1.383994	-0.587872	-0.807547
O70	O	1.235106	-0.587827	-0.371683
C71	C	1.271803	-0.612735	-0.472315
H72	H	1.208599	-0.596343	-0.532869
H73	H	1.345220	-0.569233	-0.491073
H74	H	1.291264	-0.692769	-0.474378
H75	H	1.262074	-0.699670	-1.106107
O76	O	1.652987	-0.341021	-0.790402
C77	C	1.726754	-0.273392	-0.753770
H78	H	1.741511	-0.217015	-0.817013
H79	H	1.695064	-0.236810	-0.680365
H80	H	1.803336	-0.311662	-0.734311
O81	O	1.785327	-0.219409	-0.898645
C82	C	1.762448	-0.123259	-0.925492
H83	H	1.678525	-0.118361	-0.955644
H84	H	1.771513	-0.075630	-0.853345
H85	H	1.818804	-0.098035	-0.989193
H86	H	1.774910	-0.229163	-1.106280
H87	H	1.118567	-0.229627	-0.762875
O88	O	1.235260	-0.341237	-0.640848
C89	C	1.271961	-0.273665	-0.714716
H90	H	1.208750	-0.217332	-0.729545
H91	H	1.345365	-0.237017	-0.683087
H92	H	1.291447	-0.312004	-0.791246
O93	O	1.653133	-0.341112	-1.223014
C94	C	1.753825	-0.365858	-1.259687
H95	H	1.797228	-0.407939	-1.196458
H96	H	1.746291	-0.412081	-1.333084
H97	H	1.799379	-0.297566	-1.279174
O98	O	0.802649	-0.341627	-0.640781
C99	C	0.765981	-0.434102	-0.667611
H100	H	0.829191	-0.489635	-0.649549
H101	H	0.692552	-0.451202	-0.620194
H102	H	0.746548	-0.436247	-0.754782
H103	H	0.819737	-0.587882	-0.371524
