data_functionalizedCrystal
_audit_creation_method	'MofGen! by Chris Wilmer'
_symmetry_space_group_name_H-M	'P1'
_symmetry_Int_Tables_number	1
_symmetry_cell_setting	triclinic
loop_
_symmetry_equiv_pos_as_xyz
  x,y,z
_cell_length_a	10.654545
_cell_length_b	15.995362
_cell_length_c	9.730223
_cell_angle_alpha	89.999158
_cell_angle_beta	90.003812
_cell_angle_gamma	96.009770
loop_
_atom_site_label
_atom_site_type_symbol
_atom_site_fract_x
_atom_site_fract_y
_atom_site_fract_z
O1	O	1.666315	-0.117586	0.114258
O2	O	1.300691	-0.128794	0.114262
O3	O	1.493490	-0.001361	0.114270
O4	O	1.473516	-0.245019	0.114250
O5	O	1.493474	-0.001353	-0.114310
O6	O	1.300675	-0.128786	-0.114318
O7	O	1.666300	-0.117578	-0.114322
Zn8	Zn	1.483485	-0.123181	-0.150612
Zn9	Zn	1.483505	-0.123191	0.150552
O10	O	1.473501	-0.245011	-0.114329
C11	C	1.253896	-0.127968	-0.000027
C12	C	1.114484	-0.125508	-0.000025
C13	C	1.048986	-0.124346	-0.124624
C14	C	0.917997	-0.122021	-0.124624
C15	C	0.918014	-0.122024	0.124586
C16	C	1.049002	-0.124343	0.124585
C17	C	1.492654	0.029842	-0.000015
C18	C	1.490170	0.122807	0.000001
C19	C	1.481250	0.460604	0.000028
C20	C	1.343939	0.413966	0.000538
C21	C	1.346424	0.317262	0.000014
C22	C	1.485675	0.293019	0.000015
C23	C	1.553391	0.333708	-0.130510
C24	C	1.549935	0.430363	-0.130610
C25	C	1.552789	0.430696	0.129328
C26	C	1.552763	0.333751	0.131044
C27	C	1.488182	0.198307	0.000004
C28	C	1.478747	0.555316	0.000030
C29	C	1.713095	-0.118404	-0.000030
C30	C	1.852507	-0.120864	-0.000023
N31	N	1.483481	-0.123174	-0.356148
C32	C	1.474321	0.723784	-0.000019
C33	C	1.476755	0.630816	0.000041
C34	C	1.407349	-0.071934	-0.572006
C35	C	1.407333	-0.071922	-0.428123
C36	C	1.559660	-0.174434	-0.428064
C37	C	1.559683	-0.174441	-0.571944
N38	N	1.483520	-0.123192	0.356088
H39	H	1.293193	0.289145	0.093579
H40	H	1.654028	0.461870	0.130211
H41	H	1.655695	0.318989	-0.135363
Br42	Br	0.829112	-0.120442	-0.293731
Br43	Br	1.303949	-0.002356	-0.330542
H44	H	1.621717	-0.216182	-0.630491
Br45	Br	1.137851	-0.125925	-0.293736
Br46	Br	0.829143	-0.120417	0.293691
H47	H	1.102332	-0.125287	0.226055
H48	H	1.621667	-0.216160	-0.369450
Br49	Br	1.303990	-0.002380	-0.669672
Br50	Br	1.722017	0.307161	0.144197
Br51	Br	1.474985	0.286868	-0.292422
H52	H	1.289061	0.432812	0.094144
Br53	Br	1.257077	0.271333	-0.156202
Br54	Br	1.252593	0.447557	-0.154127
Br55	Br	1.467603	0.461354	-0.293235
H56	H	1.650747	0.462027	-0.136527
H57	H	1.507900	0.451492	0.228263
H58	H	1.503253	0.306786	0.227603
