data_functionalizedCrystal
_audit_creation_method	'MofGen! by Chris Wilmer'
_symmetry_space_group_name_H-M	'P1'
_symmetry_Int_Tables_number	1
_symmetry_cell_setting	triclinic
loop_
_symmetry_equiv_pos_as_xyz
  x,y,z
_cell_length_a	17.038272
_cell_length_b	14.971486
_cell_length_c	13.448316
_cell_angle_alpha	90.006811
_cell_angle_beta	89.995356
_cell_angle_gamma	92.637158
loop_
_atom_site_label
_atom_site_type_symbol
_atom_site_fract_x
_atom_site_fract_y
_atom_site_fract_z
O1	O	1.037595	-0.194251	-0.082653
O2	O	0.809961	-0.191166	-0.082664
O3	O	0.929879	-0.062965	-0.082651
O4	O	0.917677	-0.322452	-0.082666
O5	O	0.929864	-0.062955	0.082733
O6	O	0.809946	-0.191157	0.082720
O7	O	1.037580	-0.194241	0.082731
Cu8	Cu	0.923762	-0.192698	0.097826
Cu9	Cu	0.923779	-0.192709	-0.097759
O10	O	0.917662	-0.322442	0.082718
C11	C	0.780822	-0.188356	0.000027
C12	C	0.694019	-0.179986	0.000023
C13	C	1.066719	-0.197051	0.000038
C14	C	1.153522	-0.205421	0.000035
C15	C	0.929326	-0.029595	0.000040
C16	C	0.927691	0.069825	0.000039
C17	C	1.203547	-0.128577	0.000036
C18	C	1.285106	-0.136447	0.000039
C19	C	1.316640	-0.221161	0.000034
C20	C	1.266609	-0.298010	0.000036
C21	C	1.185050	-0.290140	0.000040
C22	C	1.562430	-0.248965	0.000029
C23	C	1.643995	-0.256830	0.000022
C24	C	1.662487	-0.095266	0.000027
C25	C	1.580926	-0.087403	0.000025
C26	C	1.530902	-0.164252	0.000032
C27	C	1.400007	-0.229207	0.000034
C28	C	1.447537	-0.156205	0.000039
C29	C	0.918215	-0.355812	0.000024
C30	C	0.919850	-0.455232	0.000019
N31	N	0.923755	-0.192690	0.235390
C32	C	0.998140	0.121776	0.000043
C33	C	0.996598	0.215190	0.000033
C34	C	0.924607	0.256653	0.000026
C35	C	0.854153	0.204695	0.000019
C36	C	0.855695	0.111282	0.000022
C37	C	0.850944	0.399398	0.000016
C38	C	0.849402	0.492817	0.000015
C39	C	0.991847	0.503306	0.000027
C40	C	0.993389	0.409893	0.000030
C41	C	0.922935	0.357942	0.000024
N42	N	0.923793	-0.192711	-0.235324
C43	C	0.976871	-0.135949	0.287436
C44	C	0.976876	-0.135948	0.391540
C45	C	0.923768	-0.192694	0.443595
C46	C	0.870646	-0.249438	0.391542
C47	C	0.870638	-0.249433	0.287440
C48	C	0.870667	-0.249446	0.608522
C49	C	0.870676	-0.249452	0.712630
C50	C	0.976906	-0.135961	0.712621
C51	C	0.976898	-0.135956	0.608520
C52	C	0.923777	-0.192701	0.556474
H53	H	1.177879	-0.059594	0.000034
Cl54	Cl	1.043687	-0.064627	0.778054
Cl55	Cl	1.043667	-0.064624	0.543077
Cl56	Cl	1.683635	-0.363336	0.000017
H57	H	0.790780	0.526573	0.000025
H58	H	0.795537	0.238461	0.000007
Cl59	Cl	1.499553	-0.345578	0.000024
H60	H	0.827400	-0.295638	0.433931
H61	H	1.292289	-0.366987	0.000038
Cl62	Cl	1.043644	-0.064610	0.222006
H63	H	1.049214	0.545610	0.000028
H64	H	1.325834	-0.073872	0.000044
Cl65	Cl	1.043651	-0.064614	0.456971
Cl66	Cl	0.803857	-0.320765	0.222012
Cl67	Cl	1.083893	0.357770	0.000033
Cl68	Cl	1.088648	0.069661	0.000062
H69	H	1.053965	0.257485	0.000039
H70	H	1.555258	-0.018419	0.000029
Cl71	Cl	0.803882	-0.320782	0.543096
Cl72	Cl	0.762371	0.334089	0.000009
Cl73	Cl	0.803906	-0.320791	0.778063
Cl74	Cl	1.725378	0.001339	0.000026
Cl75	Cl	1.122161	-0.386748	0.000046
Cl76	Cl	1.407893	-0.049711	0.000050
H77	H	1.425690	-0.298182	0.000027
H78	H	0.798329	0.068984	0.000019
