data_functionalizedCrystal
_audit_creation_method	'MofGen! by Chris Wilmer'
_symmetry_space_group_name_H-M	'P1'
_symmetry_Int_Tables_number	1
_symmetry_cell_setting	triclinic
loop_
_symmetry_equiv_pos_as_xyz
  x,y,z
_cell_length_a	16.120530
_cell_length_b	25.639239
_cell_length_c	16.120297
_cell_angle_alpha	92.868703
_cell_angle_beta	90.128140
_cell_angle_gamma	87.134054
loop_
_atom_site_label
_atom_site_type_symbol
_atom_site_fract_x
_atom_site_fract_y
_atom_site_fract_z
Zn1	Zn	1.247330	-0.264883	-0.534536
Zn2	Zn	1.254246	-0.348114	-0.395469
Zn3	Zn	1.115324	-0.256048	-0.388455
Zn4	Zn	1.108202	-0.347633	-0.527439
O5	O	1.181275	-0.304170	-0.461475
O6	O	1.364612	-0.279823	-0.521994
O7	O	1.241692	-0.332406	-0.278174
O8	O	1.132921	-0.184058	-0.407868
O9	O	1.369693	-0.340973	-0.419823
O10	O	1.229905	-0.190549	-0.515193
O11	O	1.139627	-0.264765	-0.273020
O12	O	0.998015	-0.264298	-0.400986
O13	O	1.120783	-0.340152	-0.644745
O14	O	0.992782	-0.331585	-0.503096
O15	O	1.223000	-0.279356	-0.649960
O16	O	1.234787	-0.421212	-0.412941
O17	O	1.127489	-0.420858	-0.509898
C18	C	0.965226	-0.296931	-0.450510
C19	C	0.872799	-0.293847	-0.445839
C20	C	0.703571	-0.288206	-0.437318
C21	C	0.659817	-0.320174	-0.485692
C22	C	0.565653	-0.317035	-0.480951
C23	C	0.797744	-0.291344	-0.442058
C24	C	1.181138	-0.440006	-0.461430
C25	C	1.181153	-0.498121	-0.461442
C26	C	1.237279	-0.858668	-0.411087
C27	C	1.237311	-0.913274	-0.411099
O28	O	1.284889	-0.941661	-0.368236
N29	N	1.181419	-0.940415	-0.461537
C30	C	1.125497	-0.912948	-0.511972
O31	O	1.077960	-0.941048	-0.554875
C32	C	1.125470	-0.858344	-0.511963
C33	C	1.181360	-0.831205	-0.461515
C34	C	1.293166	-0.831529	-0.360644
C35	C	1.293133	-0.776927	-0.360630
C36	C	1.237214	-0.749464	-0.411059
C37	C	1.181327	-0.776603	-0.461502
C38	C	1.069553	-0.830878	-0.562401
C39	C	1.069531	-0.776270	-0.562388
C40	C	1.125421	-0.749131	-0.511941
C41	C	1.125375	-0.694538	-0.511917
N42	N	1.181267	-0.667396	-0.461479
C43	C	1.237187	-0.694860	-0.411050
C44	C	1.125559	-1.027621	-0.511988
C45	C	1.125581	-1.082224	-0.511993
C46	C	1.237397	-1.082546	-0.411121
C47	C	1.237370	-1.027942	-0.411113
C48	C	1.181451	-1.000480	-0.461550
C49	C	1.237113	-0.580191	-0.411025
C50	C	1.237072	-0.525584	-0.411013
C51	C	1.125260	-0.525267	-0.511887
C52	C	1.125297	-0.579869	-0.511896
C53	C	1.181230	-0.607330	-0.461463
O54	O	1.077824	-0.666116	-0.554760
O55	O	1.284723	-0.666754	-0.368163
C56	C	1.398168	-0.311437	-0.472483
C57	C	1.490595	-0.314534	-0.477173
C58	C	1.170326	-0.310686	-0.678368
C59	C	1.165659	-0.313462	-0.770795
C60	C	1.181436	-0.167804	-0.461539
C61	C	1.181504	-0.109693	-0.461567
C62	C	1.157110	-0.318520	-0.940019
C63	C	1.205605	-0.289668	-0.983790
C64	C	1.200848	-0.292482	-1.077952
C65	C	1.161866	-0.315706	-0.845849
C66	C	1.192231	-0.297643	-0.245427
C67	C	1.197058	-0.294724	-0.153009
H68	H	1.282660	-0.602544	-0.369959
O69	O	0.699357	-0.355657	-0.539414
C70	C	0.685076	-0.424992	-0.644227
C71	C	0.640187	-0.384824	-0.583445
H72	H	0.637258	-0.448592	-0.679830
H73	H	0.723557	-0.403699	-0.689844
H74	H	0.727657	-0.452446	-0.607955
H75	H	0.597565	-0.357359	-0.619647
H76	H	0.601758	-0.406151	-0.537828
O77	O	0.664031	-0.252701	-0.383641
C78	C	0.678303	-0.183425	-0.278727
C79	C	0.723200	-0.223597	-0.339495
H80	H	0.726122	-0.159891	-0.243006
H81	H	0.635764	-0.155909	-0.314935
H82	H	0.639777	-0.204764	-0.233210
H83	H	0.761770	-0.202302	-0.385026
H84	H	0.765688	-0.251112	-0.303233
O85	O	1.291448	-0.499305	-0.361985
C86	C	1.402322	-0.505395	-0.261898
C87	C	1.340801	-0.535220	-0.317392
H88	H	1.442228	-0.534418	-0.225817
H89	H	1.443886	-0.482409	-0.302270
H90	H	1.366348	-0.477270	-0.216477
H91	H	1.376708	-0.563371	-0.362822
H92	H	1.299237	-0.558171	-0.276968
H93	H	1.079789	-0.601967	-0.552977
H94	H	1.112023	-0.345331	-0.973262
O95	O	1.347399	-0.750623	-0.311516
C96	C	1.395000	-0.731019	-0.172151
C97	C	1.333501	-0.760840	-0.227677
H98	H	1.383773	-0.739259	-0.104354
H99	H	1.461316	-0.744408	-0.190155
H100	H	1.385399	-0.687276	-0.180840
H101	H	1.343026	-0.804587	-0.219017
H102	H	1.267207	-0.747407	-0.209659
O103	O	1.347625	-0.858133	-0.311700
C104	C	1.491171	-0.878241	-0.278681
C105	C	1.429573	-0.848092	-0.334162
H106	H	1.557439	-0.870142	-0.296833
H107	H	1.480073	-0.865004	-0.210873
H108	H	1.481595	-0.921933	-0.287301
H109	H	1.439113	-0.804394	-0.325615
H110	H	1.440686	-0.861372	-0.401950
H111	H	1.282881	-1.005849	-0.370035
O112	O	1.291745	-1.109316	-0.362273
C113	C	1.341427	-1.193593	-0.317702
C114	C	1.279817	-1.163339	-0.373034
H115	H	1.331793	-1.237275	-0.326369
H116	H	1.407708	-1.185510	-0.335839
H117	H	1.330351	-1.180382	-0.249881
H118	H	1.290817	-1.176532	-0.440870
H119	H	1.213558	-1.171423	-0.354826
H120	H	1.079729	-0.502898	-0.552943
O121	O	1.071253	-1.108504	-0.561068
C122	C	0.960312	-1.102404	-0.661080
C123	C	1.021805	-1.072581	-0.605551
H124	H	0.920306	-1.073373	-0.697045
H125	H	0.996226	-1.130502	-0.706591
H126	H	0.918840	-1.125420	-0.620659
H127	H	1.063292	-1.049535	-0.645905
H128	H	0.985840	-1.044515	-0.560034
O129	O	1.071342	-1.000929	-0.561072
C130	C	1.054345	-0.942238	-0.672722
C131	C	1.115835	-0.972444	-0.617205
H132	H	1.090293	-0.919192	-0.718107
H133	H	1.014417	-0.970999	-0.708829
H134	H	1.012794	-0.914131	-0.632281
H135	H	1.157439	-1.000552	-0.657584
H136	H	1.155705	-0.943654	-0.581092
O137	O	1.015232	-0.857153	-0.611487
C138	C	0.904306	-0.851045	-0.711513
C139	C	0.965795	-0.821226	-0.655973
H140	H	0.864308	-0.822011	-0.747482
H141	H	0.940223	-0.879143	-0.757022
H142	H	0.862826	-0.874061	-0.671101
H143	H	1.007290	-0.798181	-0.696319
H144	H	0.929827	-0.793160	-0.610459
H145	H	1.023996	-0.753913	-0.603463
H146	H	1.250696	-0.262854	-0.950546
