data_functionalizedCrystal
_audit_creation_method	'MofGen! by Chris Wilmer'
_symmetry_space_group_name_H-M	'P1'
_symmetry_Int_Tables_number	1
_symmetry_cell_setting	triclinic
loop_
_symmetry_equiv_pos_as_xyz
  x,y,z
_cell_length_a	16.625548
_cell_length_b	12.645330
_cell_length_c	12.645324
_cell_angle_alpha	89.968341
_cell_angle_beta	89.978231
_cell_angle_gamma	90.018760
loop_
_atom_site_label
_atom_site_type_symbol
_atom_site_fract_x
_atom_site_fract_y
_atom_site_fract_z
Zn1	Zn	1.232717	-0.421930	-0.599440
Zn2	Zn	1.232628	-0.599239	-0.422180
Zn3	Zn	1.097876	-0.421993	-0.422185
Zn4	Zn	1.097860	-0.599155	-0.599396
O5	O	1.165270	-0.510579	-0.510801
O6	O	1.345537	-0.445459	-0.575943
O7	O	1.214723	-0.575788	-0.273834
O8	O	1.115806	-0.273637	-0.445719
O9	O	1.345473	-0.575727	-0.445711
O10	O	1.214873	-0.273591	-0.575948
O11	O	1.115721	-0.445567	-0.273837
O12	O	0.985041	-0.445485	-0.445677
O13	O	1.115780	-0.575584	-0.747750
O14	O	0.985030	-0.575645	-0.575873
O15	O	1.214858	-0.445377	-0.747782
O16	O	1.214708	-0.747575	-0.445668
O17	O	1.115694	-0.747513	-0.575868
C18	C	0.955779	-0.510564	-0.510771
C19	C	0.866158	-0.510583	-0.510783
C20	C	0.537983	-0.510590	-0.510829
C21	C	0.629291	-0.510585	-0.510813
C22	C	0.702068	-0.510587	-0.510805
C23	C	0.793382	-0.510581	-0.510791
C24	C	1.165211	-0.786009	-0.510786
C25	C	1.165260	-0.903839	-0.510815
C26	C	1.103228	-1.071408	-0.592976
C27	C	1.102910	-0.948849	-0.592712
C28	C	1.142257	-0.948447	-0.399093
C29	C	1.141878	-1.071045	-0.399592
C30	C	1.250676	-1.070923	-0.539469
C31	C	1.250152	-0.948316	-0.541912
C32	C	1.375579	-0.510595	-0.510831
C33	C	1.465200	-0.510602	-0.510844
C34	C	1.165327	-0.510464	-0.787306
C35	C	1.165351	-0.510415	-0.905136
C36	C	1.165351	-0.234074	-0.510839
C37	C	1.165386	-0.116244	-0.510855
C38	C	1.227696	-0.428485	-0.950038
C39	C	1.227963	-0.428699	-1.072598
C40	C	1.188136	-0.622184	-1.073017
C41	C	1.188565	-0.621738	-0.950419
C42	C	1.080115	-0.481495	-0.950307
C43	C	1.080595	-0.479003	-1.072914
C44	C	1.165260	-0.510617	-0.235371
C45	C	1.165392	-0.510367	-0.117541
H46	H	1.117303	-0.918685	-0.675553
O47	O	1.052603	-0.375348	-0.909352
H48	H	0.995601	-0.385297	-0.864716
O49	O	1.019994	-1.112335	-0.568180
H50	H	0.996913	-1.157890	-0.636768
O51	O	1.269763	-0.655153	-1.113688
H52	H	1.315574	-0.596768	-1.087853
O53	O	1.057859	-0.370002	-1.111457
H54	H	1.106740	-0.338290	-1.162193
O55	O	1.310883	-0.453581	-0.909256
H56	H	1.334154	-0.385093	-0.863710
O57	O	1.015826	-0.552285	-1.113341
H58	H	1.043183	-0.612471	-1.166114
O59	O	1.311639	-0.454078	-1.111471
H60	H	1.312125	-0.454309	-1.199243
O61	O	1.121818	-1.110862	-0.702976
H62	H	1.175596	-1.162783	-0.700311
O63	O	1.129848	-0.705244	-1.111563
H64	H	1.163004	-0.766179	-1.157257
O65	O	1.019163	-0.910113	-0.567574
H66	H	0.978733	-0.978948	-0.555550
H67	H	1.271660	-1.101757	-0.619552
O68	O	1.059293	-1.109070	-0.367493
H69	H	1.020001	-1.039893	-0.351766
H70	H	1.145097	-0.684862	-0.920712
H71	H	1.185187	-1.100709	-0.336318
H72	H	1.186094	-0.919295	-0.336234
O73	O	1.060529	-0.907920	-0.366394
H74	H	1.036163	-0.856022	-0.429527
O75	O	1.273150	-0.909676	-0.650813
H76	H	1.224329	-0.859000	-0.682666
O77	O	1.271085	-0.654127	-0.912542
H78	H	1.310311	-0.669956	-0.981789
O79	O	1.018583	-0.560518	-0.911830
H80	H	1.048511	-0.620105	-0.860783
H81	H	1.298902	-0.917671	-0.486455
O82	O	1.312065	-1.109563	-0.460421
H83	H	1.282024	-1.160768	-0.401016
H84	H	1.213752	-0.345801	-1.102705
H85	H	1.213652	-0.345336	-0.920583
