data_functionalizedCrystal
_audit_creation_method	'MofGen! by Chris Wilmer'
_symmetry_space_group_name_H-M	'P1'
_symmetry_Int_Tables_number	1
_symmetry_cell_setting	triclinic
loop_
_symmetry_equiv_pos_as_xyz
  x,y,z
_cell_length_a	16.120530
_cell_length_b	18.101397
_cell_length_c	16.120297
_cell_angle_alpha	87.130973
_cell_angle_beta	89.871860
_cell_angle_gamma	87.115827
loop_
_atom_site_label
_atom_site_type_symbol
_atom_site_fract_x
_atom_site_fract_y
_atom_site_fract_z
Zn1	Zn	1.247464	-0.375192	0.534538
Zn2	Zn	1.580797	-0.041859	0.867872
Zn3	Zn	1.914131	0.291474	1.201205
Zn4	Zn	1.254422	-0.493085	0.395472
Zn5	Zn	1.587756	-0.159752	0.728806
Zn6	Zn	1.921089	0.173581	1.062139
Zn7	Zn	1.115454	-0.362678	0.388457
Zn8	Zn	1.448787	-0.029345	0.721791
Zn9	Zn	1.782120	0.303989	1.055124
Zn10	Zn	1.108379	-0.492403	0.527442
Zn11	Zn	1.441712	-0.159070	0.860775
Zn12	Zn	1.775045	0.174263	1.194108
O13	O	1.181430	-0.430840	0.461477
O14	O	1.514763	-0.097506	0.794811
O15	O	1.848096	0.235827	1.128144
O16	O	1.364754	-0.396354	0.521997
O17	O	1.698087	-0.063020	0.855330
O18	O	2.031420	0.270313	1.188663
O19	O	1.241861	-0.470835	0.278177
O20	O	1.575194	-0.137501	0.611510
O21	O	1.908527	0.195832	0.944843
O22	O	1.133014	-0.260709	0.407869
O23	O	1.466347	0.072624	0.741203
O24	O	1.799681	0.405958	1.074536
O25	O	1.369866	-0.482969	0.419826
O26	O	1.703199	-0.149636	0.753159
O27	O	2.036532	0.183697	1.086492
O28	O	1.230001	-0.269903	0.515194
O29	O	1.563335	0.063430	0.848528
O30	O	1.896668	0.396764	1.181861
O31	O	1.139761	-0.375025	0.273023
O32	O	1.473094	-0.041692	0.606356
O33	O	1.806428	0.291642	0.939689
O34	O	0.998148	-0.374364	0.400988
O35	O	1.331482	-0.041030	0.734321
O36	O	1.664815	0.292303	1.067655
O37	O	1.120956	-0.481807	0.644748
O38	O	1.454289	-0.148474	0.978082
O39	O	1.787622	0.184860	1.311415
O40	O	0.992950	-0.469672	0.503099
O41	O	1.326284	-0.136339	0.836433
O42	O	1.659617	0.196994	1.169766
O43	O	1.223141	-0.395692	0.649962
O44	O	1.556474	-0.062359	0.983295
O45	O	1.889808	0.270974	1.316629
O46	O	1.235000	-0.596624	0.412944
O47	O	1.568334	-0.263291	0.746278
O48	O	1.901667	0.070043	1.079611
O49	O	1.127703	-0.596123	0.509902
O50	O	1.461036	-0.262790	0.843235
O51	O	1.794369	0.070544	1.176568
C52	C	0.965377	-0.420587	0.450513
C53	C	1.298710	-0.087253	0.783846
C54	C	1.632044	0.246080	1.117180
C55	C	0.872948	-0.416219	0.445842
C56	C	1.206281	-0.082886	0.779175
C57	C	1.539614	0.250448	1.112509
C58	C	0.703717	-0.408228	0.437321
C59	C	1.037051	-0.074894	0.770654
C60	C	1.370384	0.258439	1.103988
C61	C	0.659979	-0.453509	0.485695
C62	C	0.993312	-0.120176	0.819028
C63	C	1.326646	0.213158	1.152361
C64	C	0.565814	-0.449063	0.480954
C65	C	0.899147	-0.115729	0.814287
C66	C	1.232480	0.217604	1.147620
C67	C	0.797891	-0.412673	0.442061
C68	C	1.131225	-0.079340	0.775394
C69	C	1.464558	0.253994	1.108728
C70	C	1.181360	-0.623245	0.461434
C71	C	1.514694	-0.289912	0.794767
C72	C	1.848027	0.043421	1.128100
C73	C	1.181406	-0.705562	0.461446
C74	C	1.514739	-0.372229	0.794780
C75	C	1.848072	-0.038895	1.128113
C76	C	1.181508	-1.004661	0.461528
C77	C	1.514841	-0.671328	0.794861
C78	C	1.848175	-0.337995	1.128194
C79	C	1.248846	-0.973605	0.400344
C80	C	1.582179	-0.640271	0.733677
C81	C	1.915513	-0.306938	1.067010
C82	C	1.249060	-0.888004	0.400522
C83	C	1.582393	-0.554670	0.733855
C84	C	1.915726	-0.221337	1.067188
C85	C	1.181457	-0.856275	0.461487
C86	C	1.514791	-0.522941	0.794820
C87	C	1.848124	-0.189608	1.128153
C88	C	1.200770	-0.892157	0.550340
C89	C	1.534103	-0.558824	0.883673
C90	C	1.867436	-0.225490	1.217006
C91	C	1.201283	-0.977810	0.550014
C92	C	1.534617	-0.644477	0.883347
C93	C	1.867950	-0.311144	1.216681
C94	C	1.094648	-0.968039	0.434609
C95	C	1.427981	-0.634706	0.767942
C96	C	1.761314	-0.301373	1.101275
C97	C	1.095182	-0.882327	0.432674
C98	C	1.428515	-0.548993	0.766007
C99	C	1.761848	-0.215660	1.099341
C100	C	1.181427	-0.772413	0.461469
C101	C	1.514760	-0.439080	0.794802
C102	C	1.848094	-0.105746	1.128135
C103	C	1.181540	-1.088523	0.461552
C104	C	1.514873	-0.755190	0.794885
C105	C	1.848207	-0.421856	1.128218
C106	C	1.398326	-0.441134	0.472485
C107	C	1.731659	-0.107800	0.805819
C108	C	2.064993	0.225533	1.139152
C109	C	1.490754	-0.445520	0.477176
C110	C	1.824088	-0.112187	0.810510
C111	C	2.157421	0.221147	1.143843
C112	C	1.170483	-0.440070	0.678371
C113	C	1.503816	-0.106736	1.011704
C114	C	1.837150	0.226597	1.345038
C115	C	1.165818	-0.444003	0.770798
C116	C	1.499152	-0.110669	1.104131
C117	C	1.832485	0.222664	1.437465
C118	C	1.181521	-0.237685	0.461541
C119	C	1.514854	0.095648	0.794874
C120	C	1.848187	0.428982	1.128208
C121	C	1.181560	-0.155374	0.461568
C122	C	1.514893	0.177960	0.794901
C123	C	1.848226	0.511293	1.128235
C124	C	1.192381	-0.421595	0.245430
C125	C	1.525715	-0.088261	0.578763
C126	C	1.859048	0.245072	0.912097
C127	C	1.197207	-0.417461	0.153012
C128	C	1.530541	-0.084127	0.486345
C129	C	1.863874	0.249206	0.819678
C130	C	1.157271	-0.451166	0.940022
C131	C	1.490604	-0.117832	1.273356
C132	C	1.823938	0.215501	1.606689
C133	C	1.205752	-0.410300	0.983793
C134	C	1.539085	-0.076966	1.317126
C135	C	1.872419	0.256367	1.650460
C136	C	1.200996	-0.414285	1.077955
C137	C	1.534330	-0.080952	1.411288
C138	C	1.867663	0.252381	1.744622
C139	C	1.162026	-0.447181	0.845851
C140	C	1.495359	-0.113848	1.179185
C141	C	1.828692	0.219486	1.512518
H142	H	1.237492	-0.863558	0.334778
H143	H	1.570826	-0.530224	0.668111
H144	H	1.904159	-0.196891	1.001445
C145	C	1.336094	-0.865274	0.425066
C146	C	1.669428	-0.531940	0.758399
C147	C	2.002761	-0.198607	1.091733
H148	H	1.336525	-0.812819	0.425252
H149	H	1.669858	-0.479485	0.758586
H150	H	2.003191	-0.146152	1.091919
H151	H	1.349683	-0.886019	0.478911
H152	H	1.683016	-0.552685	0.812245
H153	H	2.016349	-0.219352	1.145578
H154	H	1.375774	-0.882952	0.386165
H155	H	1.709107	-0.549619	0.719498
H156	H	2.042440	-0.216285	1.052831
C157	C	1.285398	-0.868351	0.580808
C158	C	1.618731	-0.535017	0.914141
C159	C	1.952064	-0.201684	1.247474
H160	H	1.296538	-0.890363	0.634625
H161	H	1.629871	-0.557030	0.967959
H162	H	1.963204	-0.223696	1.301292
H163	H	1.327705	-0.884049	0.543550
H164	H	1.661038	-0.550715	0.876883
H165	H	1.994371	-0.217382	1.210216
H166	H	1.284163	-0.815962	0.583048
H167	H	1.617497	-0.482629	0.916381
H168	H	1.950830	-0.149295	1.249714
H169	H	0.670445	-0.366126	0.392350
H170	H	1.003778	-0.032793	0.725683
H171	H	1.337111	0.300541	1.059016
H172	H	1.237468	-0.990763	0.334414
H173	H	1.570801	-0.657430	0.667747
H174	H	1.904135	-0.324097	1.001081
C175	C	1.266654	-0.358997	0.938888
C176	C	1.599987	-0.025664	1.272222
C177	C	1.933321	0.307669	1.605555
H178	H	1.261908	-0.363020	0.880574
H179	H	1.595242	-0.029687	1.213907
H180	H	1.928575	0.303646	1.547241
H181	H	1.253814	-0.309250	0.952460
H182	H	1.587147	0.024083	1.285793
H183	H	1.920481	0.357417	1.619127
H184	H	1.321819	-0.373087	0.955917
H185	H	1.655153	-0.039754	1.289250
H186	H	1.988486	0.293580	1.622584
C187	C	0.704926	-0.510410	0.546428
C188	C	1.038259	-0.177077	0.879762
C189	C	1.371593	0.156257	1.213095
H190	H	0.763238	-0.505984	0.541675
H191	H	1.096571	-0.172651	0.875008
H192	H	1.429904	0.160683	1.208341
H193	H	0.687951	-0.501395	0.601631
H194	H	1.021284	-0.168061	0.934965
H195	H	1.354617	0.165272	1.268298
H196	H	0.691330	-0.558966	0.533427
H197	H	1.024664	-0.225632	0.866760
H198	H	1.357997	0.107701	1.200093
C199	C	1.335420	-1.007594	0.424627
C200	C	1.668753	-0.674260	0.757960
C201	C	2.002087	-0.340927	1.091294
H202	H	1.330706	-1.040627	0.471893
H203	H	1.664040	-0.707294	0.805226
H204	H	1.997373	-0.373960	1.138559
H205	H	1.358210	-1.033863	0.379656
H206	H	1.691543	-0.700529	0.712989
H207	H	2.024876	-0.367196	1.046322
H208	H	1.370752	-0.969255	0.437333
H209	H	1.704086	-0.635922	0.770666
H210	H	2.037419	-0.302589	1.103999
H211	H	1.264642	-1.001591	0.572299
H212	H	1.597975	-0.668258	0.905632
H213	H	1.931308	-0.334925	1.238966
C214	C	1.137590	-1.005827	0.614029
C215	C	1.470924	-0.672494	0.947363
C216	C	1.804257	-0.339160	1.280696
H217	H	1.111521	-0.964859	0.640124
H218	H	1.444854	-0.631526	0.973457
H219	H	1.778188	-0.298192	1.306790
H220	H	1.096841	-1.031967	0.586739
H221	H	1.430174	-0.698634	0.920072
H222	H	1.763507	-0.365300	1.253406
H223	H	1.165129	-1.037930	0.654735
H224	H	1.498462	-0.704597	0.988068
H225	H	1.831795	-0.371263	1.321401
H226	H	1.153030	-0.871763	0.597344
H227	H	1.486364	-0.538429	0.930677
H228	H	1.819697	-0.205096	1.264011
H229	H	1.076220	-0.985989	0.370708
H230	H	1.409554	-0.652656	0.704041
H231	H	1.742887	-0.319322	1.037375
H232	H	1.080539	-0.858460	0.367264
H233	H	1.413872	-0.525127	0.700597
H234	H	1.747206	-0.191793	1.033930
H235	H	1.042670	-0.860418	0.473617
H236	H	1.376004	-0.527085	0.806950
H237	H	1.709337	-0.193751	1.140283
H238	H	1.044530	-0.988050	0.479117
H239	H	1.377864	-0.654717	0.812451
H240	H	1.711197	-0.321384	1.145784
H241	H	1.112198	-0.489143	0.973265
H242	H	1.445531	-0.155810	1.306598
H243	H	1.778864	0.177523	1.639932
