data_functionalizedCrystal
_audit_creation_method	'MofGen! by Chris Wilmer'
_symmetry_space_group_name_H-M	'P1'
_symmetry_Int_Tables_number	1
_symmetry_cell_setting	triclinic
loop_
_symmetry_equiv_pos_as_xyz
  x,y,z
_cell_length_a	16.625546
_cell_length_b	19.805407
_cell_length_c	19.805399
_cell_angle_alpha	90.019197
_cell_angle_beta	89.972133
_cell_angle_gamma	89.981382
loop_
_atom_site_label
_atom_site_type_symbol
_atom_site_fract_x
_atom_site_fract_y
_atom_site_fract_z
Zn1	Zn	-0.321103	-1.034754	-0.382711
Zn2	Zn	0.178897	-0.534754	0.117289
Zn3	Zn	-0.455940	-1.034677	-0.269523
Zn4	Zn	0.044060	-0.534677	0.230477
Zn5	Zn	-0.321116	-0.921569	-0.269537
Zn6	Zn	0.178884	-0.421569	0.230463
Zn7	Zn	-0.455888	-0.921540	-0.382670
Zn8	Zn	0.044112	-0.421540	0.117330
O9	O	-0.388512	-0.978135	-0.326110
O10	O	0.111488	-0.478135	0.173890
O11	O	-0.339006	-1.129460	-0.367708
O12	O	0.160994	-0.629460	0.132292
O13	O	-0.438083	-1.019652	-0.174808
O14	O	0.061917	-0.519652	0.325192
O15	O	-0.208282	-0.936628	-0.284573
O16	O	0.291718	-0.436628	0.215427
O17	O	-0.438070	-1.129404	-0.284549
O18	O	0.061930	-0.629404	0.215451
O19	O	-0.208272	-1.019784	-0.367722
O20	O	0.291728	-0.519784	0.132278
O21	O	-0.339028	-0.936552	-0.174818
O22	O	0.160972	-0.436552	0.325182
O23	O	-0.338978	-0.826848	-0.284533
O24	O	0.161022	-0.326848	0.215467
O25	O	-0.437982	-0.936579	-0.477392
O26	O	0.062018	-0.436579	0.022608
O27	O	-0.437994	-0.826827	-0.367651
O28	O	0.062006	-0.326827	0.132349
O29	O	-0.338955	-1.019756	-0.477423
O30	O	0.161045	-0.519756	0.022577
O31	O	-0.568766	-1.019625	-0.284509
O32	O	-0.068766	-0.519625	0.215491
O33	O	-0.568728	-0.936504	-0.367638
O34	O	-0.068728	-0.436504	0.132362
C35	C	-0.388483	-0.802279	-0.326090
C36	C	0.111517	-0.302279	0.173910
C37	C	-0.388489	-0.727047	-0.326097
C38	C	0.111511	-0.227047	0.173903
C39	C	-0.336997	-0.691733	-0.369463
C40	C	0.163003	-0.191733	0.130537
C41	C	-0.336999	-0.621045	-0.369464
C42	C	0.163001	-0.121045	0.130536
C43	C	-0.388499	-0.585671	-0.326101
C44	C	0.111501	-0.085671	0.173899
C45	C	-0.439994	-0.620990	-0.282731
C46	C	0.060006	-0.120990	0.217269
C47	C	-0.439987	-0.691677	-0.282727
C48	C	0.060013	-0.191677	0.217273
C49	C	-0.440023	-0.335917	-0.282744
C50	C	0.059977	0.164083	0.217256
C51	C	-0.440028	-0.265225	-0.282753
C52	C	0.059972	0.234775	0.217247
C53	C	-0.337036	-0.265284	-0.369481
C54	C	0.162964	0.234716	0.130519
C55	C	-0.337029	-0.335971	-0.369478
C56	C	0.162971	0.164029	0.130522
C57	C	-0.388520	-0.371284	-0.326104
C58	C	0.111480	0.128716	0.173896
C59	C	-0.388516	-0.447932	-0.326103
C60	C	0.111484	0.052068	0.173897
C61	C	-0.388508	-0.509024	-0.326106
C62	C	0.111492	-0.009024	0.173894
C63	C	-0.598003	-0.978071	-0.326082
C64	C	-0.098003	-0.478071	0.173918
C65	C	-0.687624	-0.978105	-0.326092
C66	C	-0.187624	-0.478105	0.173908
C67	C	-1.015800	-0.978224	-0.326163
C68	C	-0.515800	-0.478224	0.173837
C69	C	-0.924491	-0.978189	-0.326145
C70	C	-0.424491	-0.478189	0.173855
C71	C	-0.851715	-0.978164	-0.326127
C72	C	-0.351715	-0.478164	0.173873
C73	C	-0.760400	-0.978130	-0.326110
C74	C	-0.260400	-0.478130	0.173890
C75	C	-0.178203	-0.978218	-0.326154
C76	C	0.321797	-0.478218	0.173846
C77	C	-0.088582	-0.978253	-0.326172
C78	C	0.411418	-0.478253	0.173828
C79	C	-0.388461	-0.978173	-0.502653
C80	C	0.111539	-0.478173	-0.002653
C81	C	-0.388440	-0.978189	-0.577885
C82	C	0.111560	-0.478189	-0.077885
C83	C	-0.388536	-0.154678	-0.326125
C84	C	0.111464	0.345322	0.173875
C85	C	-0.388531	-0.229910	-0.326116
C86	C	0.111469	0.270090	0.173884
C87	C	-0.336874	-1.021501	-0.613246
C88	C	0.163126	-0.521501	-0.113246
C89	C	-0.336851	-1.021508	-0.683935
C90	C	0.163149	-0.521508	-0.183935
C91	C	-0.388398	-0.978206	-0.719261
C92	C	0.111602	-0.478206	-0.219261
C93	C	-0.439965	-0.934889	-0.683895
C94	C	0.060035	-0.434889	-0.183895
C95	C	-0.439984	-0.934880	-0.613208
C96	C	0.060016	-0.434880	-0.113208
C97	C	-0.439890	-0.934928	-0.968968
C98	C	0.060110	-0.434928	-0.468968
C99	C	-0.439869	-0.934942	-1.039660
C100	C	0.060131	-0.434942	-0.539660
C101	C	-0.336757	-1.021556	-1.039695
C102	C	0.163243	-0.521556	-0.539695
C103	C	-0.336776	-1.021546	-0.969008
C104	C	0.163224	-0.521546	-0.469008
C105	C	-0.388340	-0.978227	-0.933648
C106	C	0.111660	-0.478227	-0.433648
C107	C	-0.388364	-0.978219	-0.857000
C108	C	0.111636	-0.478219	-0.357000
C109	C	-0.388379	-0.978217	-0.795908
C110	C	0.111621	-0.478217	-0.295908
C111	C	-0.388504	-0.978136	-0.150254
C112	C	0.111496	-0.478136	0.349746
C113	C	-0.388299	-0.978251	-0.075023
C114	C	0.111701	-0.478251	0.424977
H115	H	-0.481967	-0.236426	-0.247440
H116	H	0.018033	0.263574	0.252560
H117	H	-0.295106	-0.236524	-0.404795
H118	H	0.204894	0.263476	0.095205
H119	H	-0.294768	-1.056826	-1.068494
H120	H	0.205232	-0.556826	-0.568494
H121	H	-0.481951	-0.364660	-0.247428
H122	H	0.018049	0.135340	0.252572
H123	H	-0.481922	-0.592184	-0.247421
H124	H	0.018078	-0.092184	0.252579
H125	H	-0.294901	-1.056764	-0.584489
H126	H	0.205099	-0.556764	-0.084489
C127	C	-0.495864	-0.887848	-1.077894
C128	C	0.004136	-0.387848	-0.577894
C129	C	-0.541010	-0.849895	-1.031799
C130	C	-0.041010	-0.349895	-0.531799
C131	C	-0.592590	-0.806502	-1.066995
C132	C	-0.092590	-0.306502	-0.566995
H133	H	-0.531066	-0.913653	-1.105468
H134	H	-0.031066	-0.413653	-0.605468
H135	H	-0.465020	-0.858342	-1.105457
H136	H	0.034980	-0.358342	-0.605457
H137	H	-0.571852	-0.879398	-1.004248
H138	H	-0.071852	-0.379398	-0.504248
H139	H	-0.505829	-0.824076	-1.004224
H140	H	-0.005829	-0.324076	-0.504224
H141	H	-0.561746	-0.776996	-1.094558
H142	H	-0.061746	-0.276996	-0.594558
H143	H	-0.627787	-0.832313	-1.094568
H144	H	-0.127787	-0.332313	-0.594568
H145	H	-0.623222	-0.780741	-1.035725
H146	H	-0.123222	-0.280741	-0.535725
C147	C	-0.495792	-0.887929	-0.930461
C148	C	0.004208	-0.387929	-0.430461
C149	C	-0.484765	-0.897170	-0.860995
C150	C	0.015235	-0.397170	-0.360995
C151	C	-0.536244	-0.853879	-0.825499
C152	C	-0.036244	-0.353879	-0.325499
H153	H	-0.549998	-0.897775	-0.941956
H154	H	-0.049998	-0.397775	-0.441956
H155	H	-0.483974	-0.842444	-0.942003
H156	H	0.016026	-0.342444	-0.442003
H157	H	-0.496589	-0.942645	-0.849458
H158	H	0.003411	-0.442645	-0.349458
H159	H	-0.430570	-0.887319	-0.849481
H160	H	0.069430	-0.387319	-0.349481
H161	H	-0.524427	-0.808394	-0.837041
H162	H	-0.024427	-0.308394	-0.337041
H163	H	-0.590447	-0.863729	-0.836999
H164	H	-0.090447	-0.363729	-0.336999
H165	H	-0.528765	-0.860139	-0.778362
H166	H	-0.028765	-0.360139	-0.278362
H167	H	-0.294863	-1.056778	-0.712722
H168	H	0.205137	-0.556778	-0.212722
C169	C	-0.281067	-0.374463	-0.416447
C170	C	0.218933	0.125537	0.083553
C171	C	-0.229339	-0.415053	-0.378197
C172	C	0.270661	0.084947	0.121803
C173	C	-0.177781	-0.450526	-0.421441
C174	C	0.322219	0.049474	0.078559
H175	H	-0.250322	-0.343385	-0.442290
H176	H	0.249678	0.156615	0.057710
H177	H	-0.311933	-0.402083	-0.445879
H178	H	0.188067	0.097917	0.054121
H179	H	-0.198477	-0.387435	-0.348777
H180	H	0.301523	0.112565	0.151223
H181	H	-0.260063	-0.446143	-0.352355
H182	H	0.239937	0.053857	0.147645
H183	H	-0.208647	-0.478146	-0.450873
H184	H	0.291353	0.021854	0.049127
H185	H	-0.147041	-0.419443	-0.447282
H186	H	0.352959	0.080557	0.052718
H187	H	-0.142683	-0.478075	-0.395495
H188	H	0.357317	0.021925	0.104505
C189	C	-0.496031	-0.729986	-0.235730
C190	C	0.003969	-0.229986	0.264270
C191	C	-0.575834	-0.712796	-0.250360
C192	C	-0.075834	-0.212796	0.249640
C193	C	-0.627484	-0.748079	-0.207084
C194	C	-0.127484	-0.248079	0.292916
H195	H	-0.484268	-0.718416	-0.190246
H196	H	0.015732	-0.218416	0.309754
H197	H	-0.488704	-0.777157	-0.241943
H198	H	0.011296	-0.277157	0.258057
H199	H	-0.583157	-0.665636	-0.244141
H200	H	-0.083157	-0.165636	0.255859
H201	H	-0.587622	-0.724369	-0.295836
H202	H	-0.087622	-0.224369	0.204164
H203	H	-0.620157	-0.795250	-0.213297
H204	H	-0.120157	-0.295250	0.286703
H205	H	-0.615714	-0.736506	-0.161603
H206	H	-0.115714	-0.236506	0.338397
H207	H	-0.681636	-0.736426	-0.217009
H208	H	-0.181636	-0.236426	0.282991
H209	H	-0.294804	-1.056809	-0.940249
H210	H	0.205196	-0.556809	-0.440249
H211	H	-0.481933	-0.899630	-0.712663
H212	H	0.018067	-0.399630	-0.212663
H213	H	-0.481966	-0.899604	-0.584417
H214	H	0.018034	-0.399604	-0.084417
H215	H	-0.295062	-0.720529	-0.404775
H216	H	0.204938	-0.220529	0.095225
H217	H	-0.295071	-0.592295	-0.404778
H218	H	0.204929	-0.092295	0.095222
