data_functionalizedCrystal
_audit_creation_method	'MofGen! by Chris Wilmer'
_symmetry_space_group_name_H-M	'P1'
_symmetry_Int_Tables_number	1
_symmetry_cell_setting	triclinic
loop_
_symmetry_equiv_pos_as_xyz
  x,y,z
_cell_length_a	16.120530
_cell_length_b	19.121063
_cell_length_c	16.120297
_cell_angle_alpha	84.820568
_cell_angle_beta	89.871860
_cell_angle_gamma	89.687057
loop_
_atom_site_label
_atom_site_type_symbol
_atom_site_fract_x
_atom_site_fract_y
_atom_site_fract_z
Zn1	Zn	1.228532	-0.355748	0.551587
Zn2	Zn	1.229542	-0.467532	0.417878
Zn3	Zn	1.097153	-0.343883	0.404937
Zn4	Zn	1.083532	-0.466885	0.549816
O5	O	1.159690	-0.408512	0.481054
O6	O	1.344754	-0.375813	0.540007
O7	O	1.218103	-0.446434	0.299571
O8	O	1.119859	-0.247198	0.419716
O9	O	1.345496	-0.457940	0.441771
O10	O	1.216382	-0.255916	0.527458
O11	O	1.120838	-0.355590	0.290063
O12	O	0.979258	-0.354963	0.417999
O13	O	1.096644	-0.456838	0.666641
O14	O	0.969251	-0.445332	0.524441
O15	O	1.203175	-0.375186	0.667942
O16	O	1.204895	-0.565705	0.440054
O17	O	1.097623	-0.565230	0.536989
C18	C	0.944155	-0.398790	0.469624
C19	C	0.851946	-0.394649	0.464754
C20	C	0.683119	-0.387072	0.455870
C21	C	0.637096	-0.430006	0.506302
C22	C	0.543155	-0.425790	0.501358
C23	C	0.777068	-0.391287	0.460812
C24	C	1.149912	-0.590946	0.489753
C25	C	1.145804	-0.668997	0.493506
C26	C	1.199763	-0.705893	0.444847
C27	C	1.195904	-0.779230	0.448382
C28	C	1.138080	-0.815670	0.500573
C29	C	1.084118	-0.778769	0.549237
C30	C	1.087982	-0.705433	0.545706
C31	C	1.123621	-1.037085	0.513761
C32	C	1.119760	-1.110426	0.517287
C33	C	1.231547	-1.110882	0.416433
C34	C	1.235403	-1.037545	0.412903
C35	C	1.181443	-1.000650	0.461570
C36	C	1.134132	-0.890632	0.504185
C37	C	1.185396	-0.925690	0.457962
C38	C	1.376067	-0.418272	0.492530
C39	C	1.468274	-0.422431	0.497420
C40	C	1.148278	-0.417263	0.698367
C41	C	1.143414	-0.420993	0.790973
C42	C	1.169527	-0.225367	0.472341
C43	C	1.173720	-0.147322	0.468628
C44	C	1.171108	-0.399746	0.264587
C45	C	1.176143	-0.395826	0.171981
C46	C	1.134506	-0.427785	0.960523
C47	C	1.185049	-0.389036	1.002436
C48	C	1.180092	-0.392815	1.096780
C49	C	1.139461	-0.424006	0.866171
H50	H	0.668246	-0.469929	0.553190
C51	C	0.641044	-0.333145	0.392524
C52	C	0.545734	-0.328959	0.387608
C53	C	0.503648	-0.275035	0.324260
C54	C	0.556871	-0.225297	0.265829
C55	C	0.652186	-0.229481	0.270744
C56	C	0.694272	-0.283405	0.334091
H57	H	0.506331	-0.365779	0.430864
H58	H	0.433089	-0.271938	0.320622
H59	H	0.525715	-0.185380	0.218935
H60	H	0.691589	-0.192661	0.227488
H61	H	0.764831	-0.286502	0.337729
H62	H	1.087516	-0.463794	0.995491
H63	H	1.246846	-0.676228	0.402345
C64	C	1.255266	-0.819812	0.394857
C65	C	1.254076	-0.805654	0.299298
C66	C	1.313445	-0.846233	0.245773
C67	C	1.374004	-0.900971	0.287806
C68	C	1.375196	-0.915132	0.383370
C69	C	1.315827	-0.874552	0.436896
H70	H	1.209245	-0.765131	0.268178
H71	H	1.312563	-0.835750	0.175030
H72	H	1.417953	-0.931010	0.248183
H73	H	1.420027	-0.955654	0.414490
H74	H	1.316710	-0.885035	0.507639
H75	H	1.232042	-0.353024	0.967466
H76	H	1.282487	-1.007877	0.370405
C77	C	1.290906	-1.151467	0.362908
C78	C	1.286664	-1.232134	0.366789
C79	C	1.346028	-1.272719	0.313265
C80	C	1.409634	-1.232637	0.255859
C81	C	1.413878	-1.151966	0.251976
C82	C	1.354514	-1.111381	0.305500
H83	H	1.239577	-1.261809	0.409287
H84	H	1.342886	-1.332437	0.316140
H85	H	1.453579	-1.262681	0.216237
H86	H	1.460966	-1.122291	0.209479
H87	H	1.357656	-1.051663	0.302625
H88	H	1.072682	-1.140094	0.559802
H89	H	1.079684	-1.007051	0.553387
C90	C	1.020514	-0.818852	0.606649
C91	C	0.954651	-0.864937	0.569473
C92	C	0.891044	-0.905019	0.626885
C93	C	0.893301	-0.899016	0.721474
C94	C	0.959166	-0.852929	0.758655
C95	C	1.022773	-0.812847	0.701243
H96	H	0.952978	-0.869383	0.499449
H97	H	0.842286	-0.939136	0.599361
H98	H	0.846215	-0.928687	0.763974
H99	H	0.960839	-0.848483	0.828679
H100	H	1.071531	-0.778730	0.728767
C101	C	1.028624	-0.664843	0.599228
C102	C	0.934148	-0.670466	0.587840
C103	C	0.874790	-0.629877	0.641366
C104	C	0.909908	-0.583665	0.706281
C105	C	1.004388	-0.578041	0.717673
C106	C	1.063746	-0.618630	0.664146
H107	H	0.908147	-0.704676	0.539783
H108	H	0.804849	-0.634041	0.632933
H109	H	0.865968	-0.553619	0.745905
H110	H	1.030389	-0.543830	0.765730
H111	H	1.133687	-0.614466	0.672579
C112	C	1.070527	-0.930721	0.561591
C113	C	1.004674	-0.976813	0.524409
C114	C	0.941072	-1.016906	0.581817
C115	C	0.943323	-1.010906	0.676406
C116	C	1.009177	-0.964811	0.713593
C117	C	1.072779	-0.924719	0.656185
H118	H	1.003006	-0.981256	0.454384
H119	H	0.892322	-1.051028	0.554289
H120	H	0.896241	-1.040585	0.718903
H121	H	1.010845	-0.960368	0.783618
H122	H	1.121529	-0.890597	0.683713
H123	H	1.232479	-0.896019	0.415471
