data_functionalizedCrystal
_audit_creation_method	'MofGen! by Chris Wilmer'
_symmetry_space_group_name_H-M	'P1'
_symmetry_Int_Tables_number	1
_symmetry_cell_setting	triclinic
loop_
_symmetry_equiv_pos_as_xyz
  x,y,z
_cell_length_a	11.026660
_cell_length_b	27.732048
_cell_length_c	9.483335
_cell_angle_alpha	99.244292
_cell_angle_beta	78.625516
_cell_angle_gamma	95.613745
loop_
_atom_site_label
_atom_site_type_symbol
_atom_site_fract_x
_atom_site_fract_y
_atom_site_fract_z
O1	O	1.587292	0.207968	0.120956
O2	O	1.234420	0.184959	0.120950
O3	O	1.421820	0.127052	0.120926
O4	O	1.399892	0.265875	0.120981
O5	O	1.459928	0.115262	-0.120855
O6	O	1.272528	0.173170	-0.120830
O7	O	1.625400	0.196179	-0.120824
Cu8	Cu	1.452444	0.183598	-0.142904
Cu9	Cu	1.407376	0.197540	0.143030
O10	O	1.438000	0.254086	-0.120800
C11	C	1.208344	0.174819	0.000059
C12	C	1.073868	0.162165	0.000055
C13	C	0.860416	0.184032	0.000068
C14	C	0.999403	0.197112	0.000070
C15	C	1.440414	0.103109	0.000032
C16	C	1.439031	0.049329	0.000020
C17	C	1.541035	-0.280302	0.000096
C18	C	1.535892	-0.482424	0.000116
O19	O	1.629168	-0.505281	0.000181
N20	N	1.424774	-0.511547	0.000113
C21	C	1.314933	-0.490137	0.000114
O22	O	1.220301	-0.519545	0.000127
C23	C	1.320077	-0.288016	0.000104
C24	C	1.431204	-0.258896	0.000093
C25	C	1.652153	-0.251182	0.000086
C26	C	1.653439	-0.200656	0.000073
C27	C	1.543607	-0.179249	0.000070
C28	C	1.432490	-0.208369	0.000080
C29	C	1.210235	-0.266606	0.000116
C30	C	1.211531	-0.216072	0.000117
C31	C	1.322658	-0.186952	0.000106
C32	C	1.323944	-0.136435	0.000064
N33	N	1.435061	-0.107312	0.000067
C34	C	1.544893	-0.128719	0.000070
C35	C	1.312241	-0.596253	0.000116
C36	C	1.310956	-0.646783	0.000116
C37	C	1.531914	-0.639066	0.000121
C38	C	1.533200	-0.588536	0.000111
C39	C	1.423359	-0.567130	0.000120
C40	C	1.547585	-0.022609	0.000042
C41	C	1.548863	0.027922	0.000023
C42	C	1.327904	0.020201	0.000026
C43	C	1.326627	-0.030326	0.000037
C44	C	1.436477	-0.051729	0.000050
O45	O	1.230715	-0.113544	0.000015
O46	O	1.639507	-0.099301	0.000090
C47	C	1.539749	-0.330829	0.000109
C48	C	1.428632	-0.359949	0.000119
C49	C	1.318800	-0.338543	0.000116
C50	C	1.427346	-0.410479	0.000119
C51	C	1.537178	-0.431886	0.000122
C52	C	1.648295	-0.402763	0.000125
C53	C	1.649581	-0.352236	0.000112
C54	C	1.207683	-0.367666	0.000112
C55	C	1.206406	-0.418193	0.000124
C56	C	1.316238	-0.439599	0.000127
C57	C	1.651476	0.206319	0.000070
C58	C	1.785950	0.218974	0.000084
C59	C	1.419405	0.278030	0.000098
C60	C	1.420787	0.331810	0.000119
N61	N	1.484151	0.173792	-0.344014
C62	C	1.443116	0.186489	-0.583640
C63	C	1.416704	0.194650	-0.416231
N64	N	1.375679	0.207343	0.344140
H65	H	1.038542	0.236712	0.000077
N66	N	0.837774	0.271429	0.000117
H67	H	0.823291	0.283678	-0.089501
H68	H	0.929698	0.273302	0.000173
N69	N	1.545499	0.154838	-0.665900
H70	H	1.509488	0.126379	-0.729074
H71	H	1.586842	0.142077	-0.594617
N72	N	1.273290	0.238994	-0.573618
H73	H	1.290788	0.273180	-0.600011
H74	H	1.268980	0.240298	-0.465711
N75	N	1.314325	0.226308	-0.333988
H76	H	1.309970	0.227651	-0.226055
H77	H	1.232641	0.211967	-0.360538
H78	H	1.034718	0.122569	0.000136
N79	N	1.668726	0.059330	0.000002
H80	H	1.738105	0.038098	0.000010
H81	H	1.659951	0.084840	0.089626
H82	H	1.119743	-0.290307	0.000134
N83	N	1.586550	0.142142	-0.426247
H84	H	1.550555	0.113679	-0.489424
H85	H	1.627881	0.129386	-0.354945
H86	H	1.637035	-0.040029	0.000058
N87	N	0.808588	0.131577	0.000025
H88	H	0.716648	0.129668	0.000021
H89	H	0.823153	0.119356	0.089645
H90	H	1.740072	-0.328530	0.000103
H91	H	1.743929	-0.176950	0.000070
N92	N	1.770625	-0.274266	0.000088
H93	H	1.841201	-0.248144	0.000081
H94	H	1.789034	-0.299435	-0.089548
N95	N	1.089211	-0.344586	0.000096
H96	H	1.098945	-0.328172	-0.089540
H97	H	1.070737	-0.319440	0.089775
N98	N	1.653056	-0.557130	0.000097
H99	H	1.722433	-0.578363	0.000095
H100	H	1.644284	-0.531622	0.089730
H101	H	1.621343	-0.656504	0.000123
N102	N	1.191105	-0.678191	0.000089
H103	H	1.121728	-0.656957	0.000086
H104	H	1.171620	-0.694951	0.089717
N105	N	1.209453	0.043293	-0.000017
H106	H	1.227141	0.079721	-0.000031
H107	H	1.146843	0.037158	0.089609
N108	N	1.193763	-0.573169	0.000123
H109	H	1.123186	-0.599290	0.000116
H110	H	1.203606	-0.556747	-0.089509
N111	N	1.093055	-0.192984	0.000134
H112	H	1.022470	-0.219102	0.000142
H113	H	1.102894	-0.176563	-0.089501
H114	H	1.236145	-0.054039	0.000006
N115	N	1.766761	-0.425857	0.000115
H116	H	1.749071	-0.462286	0.000122
H117	H	1.801105	-0.410968	0.089745
H118	H	1.115908	-0.441899	0.000120
