data_functionalizedCrystal
_audit_creation_method	'MofGen! by Chris Wilmer'
_symmetry_space_group_name_H-M	'P1'
_symmetry_Int_Tables_number	1
_symmetry_cell_setting	triclinic
loop_
_symmetry_equiv_pos_as_xyz
  x,y,z
_cell_length_a	19.805407
_cell_length_b	16.120484
_cell_length_c	19.805399
_cell_angle_alpha	92.869501
_cell_angle_beta	89.983114
_cell_angle_gamma	92.925608
loop_
_atom_site_label
_atom_site_type_symbol
_atom_site_fract_x
_atom_site_fract_y
_atom_site_fract_z
Zn1	Zn	1.021057	-0.331915	-0.396377
Zn2	Zn	1.015239	-0.471337	-0.288925
Zn3	Zn	0.907876	-0.331942	-0.283202
Zn4	Zn	0.902099	-0.471289	-0.402070
O5	O	0.961568	-0.401621	-0.342643
O6	O	1.115002	-0.350419	-0.382135
O7	O	1.000980	-0.452877	-0.193450
O8	O	0.927742	-0.215272	-0.293437
O9	O	1.110727	-0.452851	-0.303191
O10	O	1.010896	-0.215253	-0.376586
O11	O	0.922101	-0.350464	-0.189246
O12	O	0.812394	-0.350418	-0.298958
O13	O	0.917896	-0.452770	-0.496030
O14	O	0.808149	-0.452796	-0.386289
O15	O	1.005294	-0.350373	-0.491847
O16	O	0.995378	-0.587997	-0.308711
O17	O	0.912255	-0.587962	-0.391838
C18	C	0.785713	-0.401605	-0.342621
C19	C	0.710480	-0.401618	-0.342628
C20	C	0.672940	-0.455007	-0.388035
C21	C	0.602252	-0.455008	-0.388044
C22	C	0.569104	-0.401625	-0.342643
C23	C	0.606649	-0.348230	-0.297235
C24	C	0.677336	-0.348225	-0.297229
C25	C	0.321575	-0.348249	-0.297258
C26	C	0.250882	-0.348260	-0.297266
C27	C	0.246490	-0.455032	-0.388073
C28	C	0.317178	-0.455027	-0.388067
C29	C	0.354717	-0.401630	-0.342661
C30	C	0.431365	-0.401628	-0.342652
C31	C	0.492457	-0.401630	-0.342649
C32	C	0.952577	-0.618229	-0.351528
C33	C	0.948792	-0.710895	-0.355352
C34	C	0.941887	-0.880557	-0.362347
C35	C	0.981370	-0.921844	-0.322951
C36	C	0.977528	-1.016250	-0.326843
C37	C	0.945728	-0.786143	-0.358456
C38	C	1.138110	-0.401638	-0.342666
C39	C	1.213342	-0.401645	-0.342676
C40	C	0.961600	-0.401563	-0.519184
C41	C	0.961614	-0.401538	-0.594415
C42	C	0.970612	-0.184167	-0.333738
C43	C	0.974467	-0.091501	-0.329944
C44	C	0.920554	-0.348207	-0.627569
C45	C	0.920564	-0.348191	-0.698257
C46	C	0.961638	-0.401502	-0.735789
C47	C	1.002699	-0.454840	-0.702630
C48	C	1.002685	-0.454860	-0.631944
C49	C	1.002756	-0.454762	-0.987700
C50	C	1.002768	-0.454736	-1.058391
C51	C	0.920635	-0.348093	-1.054013
C52	C	0.920621	-0.348113	-0.983327
C53	C	0.961679	-0.401453	-0.950174
C54	C	0.961667	-0.401471	-0.873527
C55	C	0.961654	-0.401481	-0.812435
C56	C	0.961577	-0.401618	-0.166787
C57	C	0.961705	-0.401408	-0.091547
H58	H	0.571690	-0.498483	-0.425018
C59	C	0.875401	-0.289524	-0.734730
C60	C	0.907466	-0.224066	-0.780654
C61	C	0.862300	-0.165398	-0.817128
C62	C	0.785071	-0.172187	-0.807678
C63	C	0.753002	-0.237647	-0.761751
C64	C	0.798167	-0.296315	-0.725277
H65	H	0.964639	-0.219038	-0.787652
H66	H	0.886040	-0.116940	-0.851126
H67	H	0.751637	-0.128757	-0.834678
H68	H	0.695828	-0.242675	-0.754753
H69	H	0.774427	-0.344773	-0.691279
C70	C	0.875462	-0.289423	-1.090483
C71	C	0.820825	-0.325527	-1.140547
C72	C	0.775656	-0.266857	-1.177014
C73	C	0.785124	-0.172084	-1.163419
C74	C	0.839764	-0.135976	-1.113353
C75	C	0.884933	-0.194646	-1.076885
H76	H	0.813813	-0.395687	-1.150613
H77	H	0.735208	-0.293587	-1.214076
H78	H	0.751688	-0.128653	-1.190415
H79	H	0.846776	-0.065815	-1.103287
H80	H	0.925381	-0.167916	-1.039823
H81	H	0.215918	-0.498507	-0.425048
C82	C	1.030931	-0.873823	-0.273430
C83	C	1.024972	-0.885778	-0.196964
C84	C	1.074528	-0.837753	-0.147442
C85	C	1.130044	-0.777774	-0.174386
C86	C	1.136005	-0.765816	-0.250856
C87	C	1.086449	-0.813840	-0.300378
H88	H	0.983873	-0.930181	-0.177015
H89	H	1.070114	-0.846606	-0.090834
H90	H	1.166728	-0.742223	-0.137727
H91	H	1.177104	-0.721413	-0.270805
H92	H	1.090863	-0.804988	-0.356986
H93	H	0.887176	-0.304698	-0.952771
C94	C	0.892322	-0.928583	-0.411855
C95	C	0.836814	-0.988557	-0.384890
C96	C	0.787249	-1.036595	-0.434395
C97	C	0.793192	-1.024658	-0.510865
C98	C	0.848702	-0.964681	-0.537833
C99	C	0.898267	-0.916643	-0.488328
H100	H	0.832413	-0.997396	-0.328279
H101	H	0.746156	-1.080994	-0.414431
H102	H	0.756501	-1.060219	-0.547511
H103	H	0.853103	-0.955842	-0.594444
H104	H	0.939360	-0.872244	-0.508293
H105	H	0.887111	-0.304790	-0.597015
C106	C	1.047853	-0.513524	-0.595471
C107	C	1.093036	-0.572165	-0.636752
C108	C	1.138203	-0.630834	-0.600280
C109	C	1.138187	-0.630861	-0.522528
C110	C	1.093002	-0.572218	-0.481243
C111	C	1.047836	-0.513549	-0.517715
H112	H	1.093049	-0.572146	-0.694312
H113	H	1.171651	-0.674245	-0.630843
H114	H	1.171622	-0.674292	-0.495530
H115	H	1.092989	-0.572237	-0.423683
H116	H	1.014387	-0.470137	-0.487152
C117	C	1.047950	-0.513387	-1.099678
C118	C	1.038474	-0.608166	-1.093845
C119	C	1.083654	-0.666812	-1.135131
C120	C	1.138308	-0.630680	-1.182252
C121	C	1.147786	-0.535896	-1.188087
C122	C	1.102606	-0.477249	-1.146801
H123	H	0.998014	-0.634918	-1.058962
H124	H	1.076637	-0.736978	-1.130811
H125	H	1.171753	-0.674093	-1.212815
H126	H	1.188246	-0.509143	-1.222970
H127	H	1.109623	-0.407084	-1.151121
C128	C	1.047925	-0.513428	-0.951238
C129	C	1.093108	-0.572063	-0.992524
C130	C	1.138280	-0.630731	-0.956058
C131	C	1.138269	-0.630765	-0.878307
C132	C	1.093084	-0.572127	-0.837016
C133	C	1.047912	-0.513459	-0.873482
H134	H	1.093118	-0.572040	-1.050085
H135	H	1.171729	-0.674138	-0.986625
H136	H	1.171708	-0.674194	-0.851313
H137	H	1.093074	-0.572150	-0.779456
H138	H	1.014463	-0.470052	-0.842915
H139	H	0.699924	-0.498481	-0.425003
H140	H	1.036139	-0.498251	-0.733195
C141	C	0.353639	-0.513747	-0.438011
C142	C	0.312347	-0.572470	-0.487962
C143	C	0.348808	-0.631189	-0.537909
C144	C	0.426561	-0.631184	-0.537904
C145	C	0.467858	-0.572458	-0.487951
C146	C	0.431397	-0.513740	-0.438004
H147	H	0.254785	-0.572476	-0.487968
H148	H	0.318237	-0.674661	-0.574888
H149	H	0.453552	-0.674651	-0.574878
H150	H	0.525420	-0.572453	-0.487945
H151	H	0.461968	-0.470267	-0.401025
C152	C	0.570189	-0.289501	-0.247297
C153	C	0.611484	-0.230767	-0.197355
C154	C	0.575027	-0.172035	-0.147417
C155	C	0.497273	-0.172036	-0.147422
C156	C	0.455974	-0.230771	-0.197366
C157	C	0.492432	-0.289504	-0.247304
H158	H	0.669046	-0.230764	-0.197350
H159	H	0.605600	-0.128555	-0.110446
H160	H	0.470285	-0.128559	-0.110455
H161	H	0.398412	-0.230774	-0.197371
H162	H	0.461858	-0.332984	-0.284275
H163	H	0.352131	-0.304776	-0.260280
C164	C	0.214419	-0.289530	-0.247325
C165	C	0.255708	-0.230792	-0.197381
C166	C	0.219243	-0.172067	-0.147443
C167	C	0.141490	-0.172080	-0.147448
C168	C	0.100196	-0.230820	-0.197394
C169	C	0.136660	-0.289545	-0.247332
H170	H	0.313270	-0.230781	-0.197375
H171	H	0.249812	-0.128584	-0.110470
H172	H	0.114497	-0.128608	-0.110481
H173	H	0.042634	-0.230831	-0.197400
H174	H	0.106092	-0.333028	-0.284305
H175	H	0.707901	-0.304747	-0.260257
