data_functionalizedCrystal
_audit_creation_method	'MofGen! by Chris Wilmer'
_symmetry_space_group_name_H-M	'P1'
_symmetry_Int_Tables_number	1
_symmetry_cell_setting	triclinic
loop_
_symmetry_equiv_pos_as_xyz
  x,y,z
_cell_length_a	23.532355
_cell_length_b	13.339070
_cell_length_c	12.376457
_cell_angle_alpha	104.398083
_cell_angle_beta	78.786949
_cell_angle_gamma	99.228396
loop_
_atom_site_label
_atom_site_type_symbol
_atom_site_fract_x
_atom_site_fract_y
_atom_site_fract_z
O1	O	0.782834	0.102913	-0.093843
O2	O	1.282834	0.602913	0.406157
O3	O	0.619838	0.120700	-0.093878
O4	O	1.119838	0.620700	0.406122
O5	O	0.682629	-0.035263	-0.093861
O6	O	1.182629	0.464737	0.406139
O7	O	0.720043	0.258876	-0.093860
O8	O	1.220043	0.758876	0.406140
O9	O	0.666931	0.003675	0.094147
O10	O	1.166931	0.503675	0.594147
O11	O	0.604140	0.159638	0.094130
O12	O	1.104140	0.659638	0.594130
O13	O	0.767136	0.141851	0.094165
O14	O	1.267136	0.641851	0.594165
Zn15	Zn	0.683145	0.156927	0.123998
Zn16	Zn	1.183145	0.656927	0.623998
Zn17	Zn	0.703829	0.105625	-0.123711
Zn18	Zn	1.203829	0.605625	0.376289
O19	O	0.704345	0.297814	0.094148
O20	O	1.204345	0.797814	0.594148
C21	C	0.668460	-0.053418	0.000140
C22	C	1.168460	0.446582	0.500140
C23	C	0.649623	-0.165526	0.000132
C24	C	1.149623	0.334474	0.500132
C25	C	0.590701	0.139724	0.000122
C26	C	1.090701	0.639724	0.500122
C27	C	0.527268	0.138384	0.000108
C28	C	1.027268	0.638384	0.500108
C29	C	0.796097	-0.531833	0.000163
C30	C	1.296097	-0.031833	0.500163
C31	C	0.813797	-0.426501	0.000178
C32	C	1.313797	0.073499	0.500178
C33	C	0.772755	-0.361252	0.000166
C34	C	1.272755	0.138748	0.500166
C35	C	0.714010	-0.401345	0.000140
C36	C	1.214010	0.098655	0.500140
C37	C	0.696307	-0.506686	0.000135
C38	C	1.196307	-0.006686	0.500135
C39	C	0.672965	-0.336105	0.000137
C40	C	1.172965	0.163895	0.500137
C41	C	0.614220	-0.376198	0.000112
C42	C	1.114220	0.123802	0.500112
C43	C	0.596520	-0.481529	0.000105
C44	C	1.096520	0.018471	0.500105
C45	C	0.637562	-0.546778	0.000117
C46	C	1.137562	-0.046778	0.500117
C47	C	0.690668	-0.230765	0.000143
C48	C	1.190668	0.269235	0.500143
C49	C	0.590878	-0.205618	0.000114
C50	C	1.090878	0.294382	0.500114
C51	C	0.573178	-0.310950	0.000100
C52	C	1.073178	0.189050	0.500100
C53	C	0.125339	0.151216	0.102638
C54	C	0.625339	0.651216	0.602638
C55	C	0.065734	0.149944	0.102643
C56	C	0.565734	0.649944	0.602643
O57	O	0.027626	0.167303	0.189800
O58	O	0.527626	0.667303	0.689800
N59	N	0.044481	0.128089	0.000160
N60	N	0.544481	0.628089	0.500160
C61	C	0.082835	0.107493	-0.102334
C62	C	0.582835	0.607493	0.397666
O63	O	0.059285	0.088785	-0.189503
O64	O	0.559285	0.588785	0.310497
C65	C	0.142438	0.108757	-0.102337
C66	C	0.642438	0.608757	0.397663
C67	C	0.163689	0.130624	0.000153
C68	C	0.663689	0.630624	0.500153
C69	C	0.146589	0.173080	0.205120
C70	C	0.646589	0.673080	0.705120
C71	C	0.206190	0.174354	0.205115
C72	C	0.706190	0.674354	0.705115
C73	C	0.244540	0.153762	0.102629
C74	C	0.744540	0.653762	0.602629
C75	C	0.223290	0.131898	0.000148
C76	C	0.723290	0.631898	0.500148
C77	C	0.180791	0.088154	-0.204830
C78	C	0.680791	0.588154	0.295170
C79	C	0.240398	0.089419	-0.204824
C80	C	0.740398	0.589419	0.295176
C81	C	0.261648	0.111287	-0.102334
C82	C	0.761648	0.611287	0.397666
C83	C	0.321241	0.112579	-0.102343
C84	C	0.821241	0.612579	0.397657
N85	N	0.342494	0.134435	0.000140
N86	N	0.842494	0.634435	0.500140
C87	C	0.304144	0.155026	0.102626
C88	C	0.804144	0.655026	0.602626
C89	C	-0.042336	0.104837	-0.102319
C90	C	0.457664	0.604837	0.397681
C91	C	-0.101937	0.103580	-0.102317
C92	C	0.398063	0.603580	0.397683
C93	C	-0.119035	0.146030	0.102660
C94	C	0.380965	0.646030	0.602660
C95	C	-0.059432	0.147294	0.102657
C96	C	0.440568	0.647294	0.602657
C97	C	-0.021083	0.126693	0.000164
C98	C	0.478917	0.626693	0.500164
C99	C	0.429311	0.157699	0.102608
C100	C	0.929311	0.657699	0.602608
C101	C	0.488918	0.158975	0.102594
C102	C	0.988918	0.658975	0.602594
C103	C	0.506010	0.116520	-0.102382
C104	C	1.006010	0.616520	0.397618
C105	C	0.446408	0.115249	-0.102369
C106	C	0.946408	0.615249	0.397631
C107	C	0.408059	0.135838	0.000135
C108	C	0.908059	0.635838	0.500135
O109	O	0.359382	0.095227	-0.189455
O110	O	0.859382	0.595227	0.310545
O111	O	0.327702	0.173718	0.189780
O112	O	0.827702	0.673718	0.689780
C113	C	0.796273	0.122828	0.000163
C114	C	1.296273	0.622828	0.500163
C115	C	0.859707	0.124166	0.000169
C116	C	1.359707	0.624166	0.500169
C117	C	0.718514	0.315969	0.000145
C118	C	1.218514	0.815969	0.500145
C119	C	0.737352	0.428076	0.000146
C120	C	1.237352	0.928076	0.500146
N121	N	0.669034	0.191939	0.293052
N122	N	1.169034	0.691939	0.793052
N123	N	0.717944	0.070605	-0.292765
N124	N	1.217944	0.570605	0.207235
C125	C	0.750698	-0.010689	0.648059
C126	C	1.250698	0.489311	1.148059
C127	C	0.760572	-0.035194	0.529722
C128	C	1.260572	0.464806	1.029722
C129	C	0.737688	0.021587	0.470549
C130	C	1.237688	0.521587	0.970549
C131	C	0.704929	0.102878	0.529725
C132	C	1.204929	0.602878	1.029725
C133	C	0.695058	0.127390	0.648073
C134	C	1.195058	0.627390	1.148073
C135	C	0.682048	0.159666	0.470563
C136	C	1.182048	0.659666	0.970563
C137	C	0.649289	0.240956	0.529738
C138	C	1.149289	0.740956	1.029738
C139	C	0.639420	0.265464	0.648076
C140	C	1.139420	0.765464	1.148076
C141	C	0.662304	0.208684	0.707249
C142	C	1.162304	0.708684	1.207249
C143	C	0.691919	0.135153	0.352214
C144	C	1.191919	0.635153	0.852214
C145	C	0.636279	0.273232	0.352228
C146	C	1.136279	0.773232	0.852228
C147	C	0.626405	0.297737	0.470565
C148	C	1.126405	0.797737	0.970565
H149	H	0.738498	-0.198131	0.000164
H150	H	1.238498	0.301869	0.500164
Cl151	Cl	0.005870	0.078947	-0.231181
Cl152	Cl	0.505870	0.578947	0.268819
H153	H	0.829506	-0.584964	0.000183
H154	H	1.329506	-0.084964	0.500183
Cl155	Cl	0.887646	-0.376110	0.000185
Cl156	Cl	1.387646	0.123890	0.500185
Cl157	Cl	0.607512	0.344622	0.277846
Cl158	Cl	1.107512	0.844622	0.777846
Cl159	Cl	0.288604	0.063517	-0.333681
Cl160	Cl	0.788604	0.563517	0.166319
Cl161	Cl	0.554231	0.090628	-0.231215
Cl162	Cl	1.054231	0.590628	0.268785
H163	H	0.506216	0.176786	0.186057
H164	H	1.006216	0.676786	0.686057
H165	H	0.769331	-0.056907	0.696246
H166	H	1.269331	0.443093	1.196246
Cl167	Cl	0.499329	-0.361366	0.000065
Cl168	Cl	0.999329	0.138634	0.500065
Cl169	Cl	-0.032724	0.174782	0.231505
Cl170	Cl	0.467276	0.674782	0.731505
Cl171	Cl	0.795008	-0.228834	0.000178
Cl172	Cl	1.295008	0.271166	0.500178
H173	H	0.654263	0.228632	0.803609
H174	H	1.154263	0.728632	1.303609
Cl175	Cl	0.750099	-0.009223	0.321780
Cl176	Cl	1.250099	0.490777	0.821780
H177	H	-0.150271	0.162795	0.186110
H178	H	0.349729	0.662795	0.686110
H179	H	0.548686	-0.514167	0.000093
H180	H	1.048686	-0.014167	0.500093
H181	H	0.623154	-0.632550	0.000101
H182	H	1.123154	-0.132550	0.500101
H183	H	0.612751	0.331663	0.696257
H184	H	1.112751	0.831663	1.196257
Cl185	Cl	-0.128642	0.076109	-0.231167
Cl186	Cl	0.371358	0.576109	0.268833
H187	H	0.223486	0.192154	0.288572
H188	H	0.723486	0.692154	0.788572
H189	H	0.787244	-0.101378	0.481546
H190	H	1.287244	0.398622	0.981546
Cl191	Cl	0.539278	-0.123597	0.000107
Cl192	Cl	1.039278	0.376403	0.500107
H193	H	0.599733	0.363926	0.518761
H194	H	1.099733	0.863926	1.018761
Cl195	Cl	0.381109	0.183582	0.231472
Cl196	Cl	0.881109	0.683582	0.731472
Cl197	Cl	0.098388	0.198977	0.333977
Cl198	Cl	0.598388	0.698977	0.833977
H199	H	0.163500	0.070346	-0.288288
H200	H	0.663500	0.570346	0.211712
Cl201	Cl	0.419694	0.087775	-0.231214
Cl202	Cl	0.919694	0.587775	0.268786
Cl203	Cl	0.733099	0.032963	0.277837
Cl204	Cl	1.233099	0.532963	0.777837
