data_functionalizedCrystal
_audit_creation_method	'MofGen! by Chris Wilmer'
_symmetry_space_group_name_H-M	'P1'
_symmetry_Int_Tables_number	1
_symmetry_cell_setting	triclinic
loop_
_symmetry_equiv_pos_as_xyz
  x,y,z
_cell_length_a	8.597340
_cell_length_b	14.044209
_cell_length_c	7.681481
_cell_angle_alpha	96.268823
_cell_angle_beta	103.474906
_cell_angle_gamma	90.777011
loop_
_atom_site_label
_atom_site_type_symbol
_atom_site_fract_x
_atom_site_fract_y
_atom_site_fract_z
O1	O	2.118481	-0.131085	0.174970
O2	O	1.656567	-0.146188	0.104884
O3	O	1.880595	-0.000651	0.138901
O4	O	1.894453	-0.276623	0.140953
O5	O	1.908163	0.017303	0.435944
O6	O	1.684136	-0.128235	0.401928
O7	O	2.146049	-0.113132	0.472014
Zn8	Zn	1.919470	-0.117833	0.484133
Zn9	Zn	1.883147	-0.141487	0.092765
O10	O	1.922022	-0.258669	0.437997
C11	C	1.610879	-0.136590	0.244383
C12	C	1.433670	-0.134726	0.217496
C13	C	1.888310	0.043640	0.286504
C14	C	1.870207	0.148866	0.283766
C15	C	1.837107	0.341526	0.278729
C16	C	1.965519	0.399163	0.298210
C17	C	1.947102	0.506366	0.295408
C18	C	1.855522	0.234313	0.281531
C19	C	2.191737	-0.122731	0.332511
C20	C	2.368945	-0.124595	0.359386
C21	C	1.914311	0.697040	0.290404
C22	C	1.932427	0.591817	0.293175
N23	N	1.944270	-0.101688	0.751233
N24	N	1.858358	-0.157624	-0.174333
H25	H	1.353504	-0.141973	0.075432
O26	O	2.113076	0.361866	0.320382
C27	C	2.284467	0.253916	0.194650
C28	C	2.117290	0.296066	0.169323
H29	H	2.287940	0.200724	0.072523
H30	H	2.311043	0.215635	0.321169
H31	H	2.378229	0.314248	0.208967
H32	H	2.023421	0.235791	0.154928
H33	H	2.090852	0.334372	0.042836
O34	O	1.689584	0.378862	0.256433
C35	C	1.536487	0.521308	0.233115
C36	C	1.703648	0.479139	0.258410
H37	H	1.547797	0.602385	0.234667
H38	H	1.480471	0.503953	0.347215
H39	H	1.457416	0.488785	0.098593
H40	H	1.782843	0.511637	0.392868
H41	H	1.759535	0.496485	0.144209
H42	H	1.770658	-0.214718	0.737153
H43	H	2.031988	-0.044597	0.839758
H44	H	1.449103	-0.117341	0.501441
