data_functionalizedCrystal
_audit_creation_method	'MofGen! by Chris Wilmer'
_symmetry_space_group_name_H-M	'P1'
_symmetry_Int_Tables_number	1
_symmetry_cell_setting	triclinic
loop_
_symmetry_equiv_pos_as_xyz
  x,y,z
_cell_length_a	12.594516
_cell_length_b	19.077267
_cell_length_c	19.077174
_cell_angle_alpha	89.926135
_cell_angle_beta	92.277804
_cell_angle_gamma	92.283164
loop_
_atom_site_label
_atom_site_type_symbol
_atom_site_fract_x
_atom_site_fract_y
_atom_site_fract_z
Zn1	Zn	-0.511552	-1.090200	-0.354200
Zn2	Zn	-0.011552	-0.590200	0.145800
Zn3	Zn	-0.682119	-1.085418	-0.236708
Zn4	Zn	-0.182119	-0.585418	0.263292
Zn5	Zn	-0.497302	-0.967982	-0.241426
Zn6	Zn	0.002698	-0.467982	0.258574
Zn7	Zn	-0.682630	-0.972680	-0.358893
Zn8	Zn	-0.182630	-0.472680	0.141107
O9	O	-0.593401	-1.029070	-0.297807
O10	O	-0.093401	-0.529070	0.202193
O11	O	-0.539928	-1.187895	-0.334676
O12	O	-0.039928	-0.687895	0.165324
O13	O	-0.651425	-1.065873	-0.139003
O14	O	-0.151425	-0.565873	0.360997
O15	O	-0.350250	-0.984230	-0.256396
O16	O	0.149750	-0.484230	0.243604
O17	O	-0.665242	-1.184382	-0.248355
O18	O	-0.165242	-0.684382	0.251645
O19	O	-0.360719	-1.074023	-0.339251
O20	O	0.139281	-0.574023	0.160749
O21	O	-0.515641	-0.979593	-0.142469
O22	O	-0.015641	-0.479593	0.357531
O23	O	-0.516137	-0.870276	-0.260946
O24	O	-0.016137	-0.370276	0.239054
O25	O	-0.666113	-0.992236	-0.456601
O26	O	-0.166113	-0.492236	0.043399
O27	O	-0.652296	-0.873727	-0.347249
O28	O	-0.152296	-0.373727	0.152751
O29	O	-0.540423	-1.078578	-0.453154
O30	O	-0.040423	-0.578578	0.046846
O31	O	-0.831130	-1.070427	-0.252905
O32	O	-0.331130	-0.570427	0.247095
O33	O	-0.831505	-0.987599	-0.342674
O34	O	-0.331505	-0.487599	0.157326
C35	C	-0.582726	-0.846505	-0.305119
C36	C	-0.082726	-0.346505	0.194881
C37	C	-0.578186	-0.768404	-0.308264
C38	C	-0.078186	-0.268404	0.191736
C39	C	-0.641183	-0.729877	-0.264732
C40	C	-0.141183	-0.229877	0.235268
C41	C	-0.636919	-0.656493	-0.267696
C42	C	-0.136919	-0.156493	0.232304
C43	C	-0.569651	-0.621637	-0.314189
C44	C	-0.069651	-0.121637	0.185811
C45	C	-0.506651	-0.660170	-0.357726
C46	C	-0.006651	-0.160170	0.142274
C47	C	-0.510922	-0.733552	-0.354765
C48	C	-0.010922	-0.233552	0.145235
C49	C	-0.549898	-0.402363	-0.327875
C50	C	-0.049898	0.097637	0.172125
C51	C	-0.545629	-0.328975	-0.330832
C52	C	-0.045629	0.171025	0.169168
C53	C	-0.675899	-0.325303	-0.240802
C54	C	-0.175899	0.174697	0.259198
C55	C	-0.680159	-0.398688	-0.237842
C56	C	-0.180159	0.101312	0.262158
C57	C	-0.617164	-0.437214	-0.281382
C58	C	-0.117164	0.062786	0.218618
N59	N	-0.565287	-0.546627	-0.317219
N60	N	-0.065287	-0.046627	0.182781
N61	N	-0.621533	-0.512223	-0.278355
N62	N	-0.121533	-0.012223	0.221645
C63	C	-0.869939	-1.029024	-0.297802
C64	C	-0.369939	-0.529024	0.202198
C65	C	-0.988248	-1.029069	-0.297820
C66	C	-0.488248	-0.529069	0.202180
C67	C	-1.057741	-0.984013	-0.346613
C68	C	-0.557741	-0.484013	0.153387
C69	C	-1.123548	-0.964322	-0.283181
C70	C	-0.623548	-0.464322	0.216819
C71	C	-1.133244	-1.048824	-0.361260
C72	C	-0.633244	-0.548824	0.138740
C73	C	-1.052492	-1.009343	-0.234356
C74	C	-0.552492	-0.509343	0.265644
C75	C	-1.062187	-1.093877	-0.312478
C76	C	-0.562187	-0.593877	0.187522
C77	C	-1.127960	-1.074209	-0.249001
C78	C	-0.627960	-0.574209	0.250999
C79	C	-0.315785	-1.029136	-0.297826
C80	C	0.184215	-0.529136	0.202174
C81	C	-0.197482	-1.029164	-0.297835
C82	C	0.302518	-0.529164	0.202165
C83	C	-0.604914	-1.036464	-0.481086
C84	C	-0.104914	-0.536464	0.018914
C85	C	-0.609821	-1.039615	-0.559189
C86	C	-0.109821	-0.539615	-0.059189
C87	C	-0.604103	-0.212347	-0.290456
C88	C	-0.104103	0.287653	0.209544
C89	C	-0.608626	-0.290448	-0.287300
C90	C	-0.108626	0.209552	0.212700
C91	C	-0.541432	-0.996177	-0.597686
C92	C	-0.041432	-0.496177	-0.097686
C93	C	-0.546051	-0.999135	-0.671072
C94	C	-0.046051	-0.499135	-0.171072
C95	C	-0.619054	-1.045536	-0.705960
C96	C	-0.119054	-0.545536	-0.205960
C97	C	-0.687450	-1.088976	-0.667458
C98	C	-0.187450	-0.588976	-0.167458
C99	C	-0.682836	-1.086014	-0.594073
C100	C	-0.182836	-0.586014	-0.094073
C101	C	-0.640441	-1.059208	-0.925243
C102	C	-0.140441	-0.559208	-0.425243
C103	C	-0.645048	-1.062168	-0.998633
C104	C	-0.145048	-0.562168	-0.498633
C105	C	-0.503649	-0.972326	-1.002243
C106	C	-0.003649	-0.472326	-0.502243
C107	C	-0.499037	-0.969371	-0.928856
C108	C	0.000963	-0.469371	-0.428856
C109	C	-0.567436	-1.012809	-0.890361
C110	C	-0.067436	-0.512809	-0.390361
N111	N	-0.623775	-1.048562	-0.780972
N112	N	-0.123775	-0.548562	-0.280972
N113	N	-0.562720	-1.009778	-0.815350
N114	N	-0.062720	-0.509778	-0.315350
C115	C	-0.581857	-1.021745	-0.115238
C116	C	-0.081857	-0.521745	0.384762
C117	C	-0.576659	-1.018730	-0.037130
C118	C	-0.076659	-0.518730	0.462870
H119	H	-0.734934	-0.427062	-0.199982
H120	H	-0.234934	0.072938	0.300018
H121	H	-0.439592	-0.931585	-0.900456
H122	H	0.060408	-0.431585	-0.400456
H123	H	-0.695956	-0.758251	-0.226869
H124	H	-0.195956	-0.258251	0.273131
Br125	Br	-0.722394	-0.604208	-0.208598
Br126	Br	-0.222394	-0.104208	0.291402
Br127	Br	-0.993866	-0.981456	-0.144921
Br128	Br	-0.493866	-0.481456	0.355079
Br129	Br	-0.410828	-0.913377	-1.054490
Br130	Br	0.089172	-0.413377	-0.554490
H131	H	-0.498604	-0.433722	-0.363329
H132	H	0.001396	0.066278	0.136671
Br133	Br	-1.016961	-1.185134	-0.333170
Br134	Br	-0.516961	-0.685134	0.166830
H135	H	-0.459623	-0.764920	-0.390213
H136	H	0.040377	-0.264920	0.109787
Br137	Br	-1.192094	-1.076608	-0.450669
Br138	Br	-0.692094	-0.576608	0.049331
H139	H	-0.704497	-1.099957	-1.027036
H140	H	-0.204497	-0.599957	-0.527036
H141	H	-0.696148	-1.094571	-0.893909
H142	H	-0.196148	-0.594571	-0.393909
H143	H	-0.746897	-1.126753	-0.695870
H144	H	-0.246897	-0.626753	-0.195870
H145	H	-0.481979	-0.958396	-0.569286
H146	H	0.018021	-0.458396	-0.069286
Br147	Br	-1.006325	-0.920389	-0.415296
Br148	Br	-0.506325	-0.420389	0.084704
Br149	Br	-0.454321	-0.281670	-0.393928
Br150	Br	0.045679	0.218330	0.106072
H151	H	-1.158603	-1.112350	-0.207699
H152	H	-0.658603	-0.612350	0.292301
Br153	Br	-0.453289	-0.940141	-0.723318
Br154	Br	0.046711	-0.440141	-0.223318
H155	H	-0.738518	-1.121392	-0.562730
H156	H	-0.238518	-0.621392	-0.062730
Br157	Br	-0.761389	-0.273015	-0.181718
Br158	Br	-0.261389	0.226985	0.318282
Br159	Br	-0.415369	-0.612866	-0.420832
Br160	Br	0.084631	-0.112866	0.079168
H161	H	-1.150684	-0.909560	-0.270796
H162	H	-0.650684	-0.409560	0.229204
