data_functionalizedCrystal
_audit_creation_method	'MofGen! by Chris Wilmer'
_symmetry_space_group_name_H-M	'P1'
_symmetry_Int_Tables_number	1
_symmetry_cell_setting	triclinic
loop_
_symmetry_equiv_pos_as_xyz
  x,y,z
_cell_length_a	19.188925
_cell_length_b	23.532407
_cell_length_c	18.266242
_cell_angle_alpha	90.002302
_cell_angle_beta	89.995855
_cell_angle_gamma	97.004348
loop_
_atom_site_label
_atom_site_type_symbol
_atom_site_fract_x
_atom_site_fract_y
_atom_site_fract_z
O1	O	0.084757	-0.755439	-0.060823
O2	O	0.097020	-0.589602	-0.060837
O3	O	-0.010783	-0.677308	-0.060826
O4	O	0.192560	-0.667733	-0.060835
O5	O	-0.010785	-0.677298	0.060936
O6	O	0.097018	-0.589592	0.060925
O7	O	0.084754	-0.755430	0.060939
Zn8	Zn	0.090886	-0.672509	0.080264
Zn9	Zn	0.090889	-0.672522	-0.080163
O10	O	0.192557	-0.667723	0.060927
C11	C	-0.036794	-0.676993	0.000055
C12	C	-0.114296	-0.676064	0.000053
C13	C	0.096707	-0.568380	0.000042
C14	C	0.095768	-0.505161	0.000037
C15	C	-0.676210	-0.721305	0.000038
C16	C	-0.603390	-0.722183	0.000045
C17	C	-0.558291	-0.670720	0.000040
C18	C	-0.586018	-0.618375	0.000048
C19	C	-0.658837	-0.617498	0.000049
N20	N	-0.437491	-0.633466	-0.041407
N21	N	-0.368316	-0.634302	-0.041409
C22	C	-0.338890	-0.673358	0.000040
N23	N	-0.381254	-0.711555	0.041483
N24	N	-0.450435	-0.710720	0.041482
C25	C	-0.479330	-0.671665	0.000040
C26	C	-0.232211	-0.726652	0.000045
C27	C	-0.159389	-0.727528	0.000056
C28	C	-0.142019	-0.623718	0.000052
C29	C	-0.214840	-0.622844	0.000048
C30	C	-0.259932	-0.674312	0.000041
C31	C	0.028100	-0.238851	0.000056
C32	C	0.028973	-0.298253	0.000056
O33	O	-0.024707	-0.334884	0.000085
N34	N	0.093061	-0.321014	0.000049
C35	C	0.156282	-0.284370	0.000048
O36	O	0.210875	-0.309185	0.000043
C37	C	0.155409	-0.224969	0.000053
C38	C	0.091316	-0.202211	0.000053
C39	C	-0.035987	-0.216093	0.000057
C40	C	-0.036859	-0.156695	0.000055
C41	C	0.026357	-0.120055	0.000052
C42	C	0.090444	-0.142813	0.000051
C43	C	0.218629	-0.188326	0.000057
C44	C	0.217751	-0.128922	0.000063
C45	C	0.153658	-0.106164	0.000063
C46	C	0.152788	-0.046776	0.000046
N47	N	0.088699	-0.024014	0.000054
C48	C	0.025484	-0.060654	0.000056
C49	C	0.158110	-0.409116	0.000040
C50	C	0.158984	-0.468516	0.000030
C51	C	0.031674	-0.482395	0.000039
C52	C	0.030801	-0.422994	0.000044
C53	C	0.094022	-0.386355	0.000047
C54	C	0.023657	0.064086	0.000052
C55	C	0.022791	0.123490	0.000047
C56	C	0.150100	0.137364	0.000041
C57	C	0.150967	0.077965	0.000042
C58	C	0.087740	0.041328	0.000050
O59	O	0.206440	-0.010110	0.000021
O60	O	-0.029100	-0.035831	0.000072
C61	C	0.218569	-0.668038	0.000045
C62	C	0.296070	-0.668967	0.000042
C63	C	0.085068	0.223349	0.000054
C64	C	0.086007	0.160130	0.000044
N65	N	0.090883	-0.672505	0.189751
N66	N	0.090886	-0.672531	-0.189650
C67	C	0.043164	-0.711368	0.772033
C68	C	0.043166	-0.711369	0.695388
C69	C	0.090883	-0.672522	0.657063
C70	C	0.138614	-0.633682	0.695390
C71	C	0.138616	-0.633686	0.772033
N72	N	0.100092	-0.622103	0.536732
N73	N	0.100086	-0.622101	0.463924
C74	C	0.090881	-0.672508	0.426141
N75	N	0.081669	-0.722920	0.463916
N76	N	0.081671	-0.722921	0.536731
C77	C	0.090886	-0.672514	0.573956
C78	C	0.043158	-0.711349	0.304717
C79	C	0.043165	-0.711351	0.228070
C80	C	0.138610	-0.633660	0.228073
C81	C	0.138607	-0.633663	0.304718
C82	C	0.090877	-0.672507	0.343035
H83	H	-0.712920	-0.763215	0.000037
H84	H	0.177464	-0.602033	0.196870
H85	H	-0.681405	-0.574877	0.000053
N86	N	-0.095961	-0.571149	0.000034
N87	N	-0.098274	-0.536302	-0.051295
H88	H	-0.065742	-0.499173	-0.051307
N89	N	-0.040926	0.026667	0.000072
N90	N	-0.083644	0.028660	0.051400
H91	H	-0.129256	0.002232	0.051412
H92	H	0.211175	-0.487040	0.000020
H93	H	0.004303	-0.742996	0.664185
H94	H	0.004296	-0.742981	0.335916
H95	H	0.209595	-0.379287	0.000037
H96	H	-0.580816	-0.764805	0.000042
N97	N	-0.539943	-0.565812	0.000034
N98	N	-0.497370	-0.554726	-0.051295
H99	H	-0.464828	-0.517602	-0.051304
N100	N	0.187339	-0.593977	0.343861
N101	N	0.165405	-0.558685	0.386632
H102	H	0.199824	-0.530655	0.414277
N103	N	-0.102323	-0.133443	0.000078
N104	N	-0.103106	-0.080408	0.000089
H105	H	-0.149343	-0.063989	0.000111
N106	N	-0.278286	-0.779218	0.000040
N107	N	-0.320853	-0.790312	-0.051287
H108	H	-0.353392	-0.827437	-0.051291
H109	H	-0.136823	-0.770149	0.000058
N110	N	0.284106	-0.211553	0.000053
N111	N	0.340537	-0.178822	0.000054
H112	H	0.386785	-0.195224	0.000051
H113	H	-0.237408	-0.580224	0.000046
H114	H	0.269234	-0.099092	0.000069
H115	H	-0.029403	0.142016	0.000045
H116	H	-0.087468	-0.245920	0.000061
N117	N	0.216441	0.054725	0.000032
N118	N	0.272878	0.087448	0.000027
H119	H	0.319121	0.071039	0.000027
H120	H	0.201569	0.167207	0.000035
H121	H	-0.021389	-0.404469	0.000045
H122	H	0.177467	-0.602054	0.664182
N123	N	-0.032901	-0.519828	0.000065
N124	N	-0.075615	-0.517844	0.051399
H125	H	-0.121219	-0.544282	0.051418
N126	N	0.187371	-0.594011	0.811166
N127	N	0.229978	-0.559331	0.776943
H128	H	0.264412	-0.531309	0.804581
N129	N	-0.005557	-0.751055	0.188939
N130	N	-0.048145	-0.785748	0.223164
H131	H	-0.082546	-0.813799	0.195527
H132	H	0.004302	-0.742998	0.803229
