data_functionalizedCrystal
_audit_creation_method	'MofGen! by Chris Wilmer'
_symmetry_space_group_name_H-M	'P1'
_symmetry_Int_Tables_number	1
_symmetry_cell_setting	triclinic
loop_
_symmetry_equiv_pos_as_xyz
  x,y,z
_cell_length_a	6.817900
_cell_length_b	11.102193
_cell_length_c	16.255661
_cell_angle_alpha	93.856118
_cell_angle_beta	103.488922
_cell_angle_gamma	108.604125
loop_
_atom_site_label
_atom_site_type_symbol
_atom_site_fract_x
_atom_site_fract_y
_atom_site_fract_z
V1	V	-4.052933	-0.176866	-0.263874
O2	O	-4.013087	0.007443	-0.258848
O3	O	-4.030104	-0.349680	-0.262073
O4	O	-4.004160	-0.174609	-0.378957
O5	O	-4.039211	-0.168840	-0.141154
V6	V	-4.533295	-0.154766	-0.249195
O7	O	-4.321123	-0.225345	-0.296073
O8	O	-4.715302	-0.106287	-0.216997
O9	O	-4.332917	0.018048	-0.250997
O10	O	-4.690538	-0.339075	-0.254222
O11	O	-4.664414	-0.162792	-0.371916
O12	O	-4.358861	-0.157023	-0.134112
C13	C	-3.881338	-0.391794	-0.257911
C14	C	-3.943958	-0.533075	-0.257205
C15	C	-3.975691	-0.761648	-0.100858
C16	C	-3.903304	-0.676817	-0.023686
C17	C	-3.844470	-0.544073	-0.024351
C18	C	-3.858019	-0.496158	-0.102196
C19	C	-3.930406	-0.580988	-0.179368
C20	C	-3.989243	-0.713734	-0.178694
C21	C	-4.016344	-0.617905	-0.334376
C22	C	-4.075195	-0.750651	-0.333713
C23	C	-4.029894	-0.569990	-0.412221
C24	C	-4.102296	-0.654822	-0.489395
C25	C	-4.161135	-0.787574	-0.488727
C26	C	-4.147581	-0.835481	-0.410885
C27	C	-3.848242	-0.168472	-0.407008
C28	C	-3.889818	-0.167770	-0.501089
C29	C	-3.799132	-0.159386	-0.723907
C30	C	-3.971590	-0.267596	-0.793386
C31	C	-3.966007	-0.166454	-0.673338
C32	C	-3.867656	-0.057005	-0.771497
C33	C	-4.039586	-0.165177	-0.839721
C34	C	-4.137962	-0.274761	-0.741586
C35	C	-4.033952	-0.064075	-0.719682
C36	C	-4.206551	-0.172316	-0.789140
C37	C	-3.923616	-0.167191	-0.577488
C38	C	-4.081996	-0.164450	-0.935570
C39	C	-4.145026	0.060155	-0.255157
C40	C	-4.061645	0.201434	-0.255868
C41	C	-4.178122	-0.163164	-0.106057
C42	C	-4.115784	-0.163860	-0.011975
H43	H	-4.023612	-0.869735	-0.100309
H44	H	-3.945673	-0.353642	-0.825473
H45	H	-4.195491	-0.943567	-0.410333
N46	N	-3.889460	-0.725783	0.055820
N47	N	-3.941991	-0.844306	0.056409
H48	H	-3.932206	-0.878886	0.112560
N49	N	-3.582683	-0.152689	-0.688152
N50	N	-3.456923	-0.060451	-0.632167
H51	H	-3.304061	-0.055726	-0.606912
N52	N	-4.280819	-0.390325	-0.724687
N53	N	-4.271659	-0.409553	-0.649219
H54	H	-4.372546	-0.491169	-0.637282
N55	N	-4.423189	-0.179215	-0.824694
N56	N	-4.575898	-0.273892	-0.818606
H57	H	-4.728902	-0.278770	-0.843717
N58	N	-4.066344	0.043882	-0.679399
N59	N	-3.955140	0.155558	-0.684513
H60	H	-3.977994	0.231814	-0.656060
N61	N	-3.724787	0.058408	-0.788563
N62	N	-3.526205	0.083288	-0.764352
H63	H	-3.425291	0.164784	-0.776416
N64	N	-3.770505	-0.457431	0.054484
N65	N	-3.758397	-0.500219	0.123981
H66	H	-3.706156	-0.439029	0.179659
H67	H	-3.810085	-0.388068	-0.102730
H68	H	-3.981976	-0.461901	-0.412757
N69	N	-4.116094	-0.605856	-0.568895
N70	N	-4.063530	-0.487331	-0.569477
H71	H	-4.073273	-0.452742	-0.625625
H72	H	-4.220061	-0.856637	-0.551569
