data_functionalizedCrystal
_audit_creation_method	'MofGen! by Chris Wilmer'
_symmetry_space_group_name_H-M	'P1'
_symmetry_Int_Tables_number	1
_symmetry_cell_setting	triclinic
loop_
_symmetry_equiv_pos_as_xyz
  x,y,z
_cell_length_a	18.050591
_cell_length_b	25.639239
_cell_length_c	18.050582
_cell_angle_alpha	90.025345
_cell_angle_beta	90.021817
_cell_angle_gamma	90.034692
loop_
_atom_site_label
_atom_site_type_symbol
_atom_site_fract_x
_atom_site_fract_y
_atom_site_fract_z
Zn1	Zn	1.135245	-0.208236	0.420021
Zn2	Zn	1.135131	-0.295665	0.295826
Zn3	Zn	1.011062	-0.208239	0.295832
Zn4	Zn	1.010990	-0.295636	0.419962
O5	O	1.073107	-0.251944	0.357910
O6	O	1.239155	-0.219844	0.403568
O7	O	1.118656	-0.284081	0.191902
O8	O	1.027614	-0.135074	0.312333
O9	O	1.239071	-0.284078	0.312323
O10	O	1.118850	-0.135071	0.403574
O11	O	1.027503	-0.219850	0.191906
O12	O	0.907128	-0.219822	0.312276
O13	O	1.027490	-0.284029	0.523894
O14	O	0.907075	-0.284032	0.403473
O15	O	1.118780	-0.219817	0.523938
O16	O	1.118585	-0.368826	0.312266
O17	O	1.027379	-0.368805	0.403468
C18	C	0.880155	-0.251925	0.357869
C19	C	0.797609	-0.251929	0.357869
C20	C	0.598166	-0.216971	0.308390
C21	C	0.548734	-0.264659	0.290112
C22	C	0.646479	-0.251945	0.357903
C23	C	0.548829	-0.204274	0.376179
C24	C	0.500494	-0.251956	0.357934
C25	C	0.598134	-0.299658	0.339589
C26	C	0.598234	-0.239240	0.425688
C27	C	0.548824	-0.286961	0.407435
C28	C	0.730577	-0.251938	0.357883
C29	C	0.416397	-0.251968	0.357954
C30	C	1.072982	-0.387787	0.357876
C31	C	1.072997	-0.445901	0.357886
C32	C	1.120722	-0.806262	0.310502
C33	C	1.120751	-0.860866	0.310512
O34	O	1.161199	-0.889102	0.270187
N35	N	1.073238	-0.888183	0.357959
C36	C	1.025698	-0.860893	0.405405
O37	O	0.985287	-0.889142	0.445764
C38	C	1.025673	-0.806289	0.405398
C39	C	1.073184	-0.778976	0.357943
C40	C	1.168230	-0.778948	0.263051
C41	C	1.168200	-0.724348	0.263040
C42	C	1.120662	-0.697061	0.310481
C43	C	1.073154	-0.724375	0.357932
C44	C	0.978138	-0.779000	0.452847
C45	C	0.978118	-0.724393	0.452837
C46	C	1.025629	-0.697079	0.405381
C47	C	1.025587	-0.642488	0.405362
N48	N	1.073100	-0.615171	0.357914
C49	C	1.120638	-0.642458	0.310474
C50	C	1.025754	-0.975563	0.405416
C51	C	1.025774	-1.030166	0.405420
C52	C	1.120828	-1.030136	0.310528
C53	C	1.120804	-0.975532	0.310521
C54	C	1.073267	-0.948247	0.357969
C55	C	1.120571	-0.527793	0.310455
C56	C	1.120534	-0.473187	0.310446
C57	C	1.025483	-0.473222	0.405340
C58	C	1.025516	-0.527823	0.405347
C59	C	1.073066	-0.555107	0.357901
O60	O	0.985161	-0.614218	0.445668
O61	O	1.161048	-0.614202	0.270129
C62	C	1.266813	-0.251964	0.357952
C63	C	1.349358	-0.251973	0.357970
C64	C	1.073139	-0.251919	0.551616
C65	C	1.073153	-0.251909	0.634162
C66	C	1.073253	-0.115571	0.357961
C67	C	1.073315	-0.057457	0.357982
C68	C	1.073118	-0.251931	0.164958
C69	C	1.073248	-0.251794	0.082413
C70	C	1.023556	-0.286770	0.882964
C71	C	1.005428	-0.239081	0.833577
C72	C	1.073216	-0.251832	0.931282
C73	C	1.091277	-0.299556	0.833588
C74	C	1.073183	-0.251872	0.785297
C75	C	1.055053	-0.204117	0.882982
C76	C	1.140934	-0.264624	0.882998
C77	C	1.122832	-0.216902	0.833633
C78	C	1.073233	-0.251809	1.015381
C79	C	1.073166	-0.251889	0.701200
H80	H	0.527295	-0.316576	0.449320
C81	C	1.219753	-0.808655	0.211545
C82	C	1.177789	-0.840079	0.163911
C83	C	1.225239	-0.867462	0.116476
H84	H	1.248083	-0.784637	0.183217
H85	H	1.252071	-0.829941	0.240013
H86	H	1.145485	-0.818794	0.135447
H87	H	1.149461	-0.864107	0.192219
H88	H	1.257557	-0.888748	0.144944
H89	H	1.253567	-0.843440	0.088153
H90	H	1.196774	-0.888790	0.084156
H91	H	1.039697	-0.163762	0.904588
H92	H	1.198199	-0.275445	0.904722
H93	H	1.106569	-0.339900	0.811892
C94	C	0.974050	-0.557549	0.456906
C95	C	1.016088	-0.588855	0.504545
C96	C	0.968708	-0.616248	0.552050
H97	H	0.945714	-0.533537	0.485228
H98	H	0.941736	-0.578917	0.428490
H99	H	1.048390	-0.567489	0.532959
H100	H	1.044423	-0.612877	0.476244
H101	H	0.936393	-0.637616	0.523634
H102	H	0.940374	-0.592232	0.580367
H103	H	0.997223	-0.637496	0.584374
C104	C	0.974093	-1.059845	0.456815
C105	C	0.926520	-1.091233	0.414727
C106	C	0.878898	-1.118574	0.462051
H107	H	1.002405	-1.081155	0.489223
H108	H	0.945736	-1.035786	0.485052
H109	H	0.954875	-1.115290	0.386502
H110	H	0.898193	-1.069936	0.382320
H111	H	0.850541	-1.094515	0.490288
H112	H	0.907216	-1.139881	0.494457
H113	H	0.846610	-1.139870	0.433501
H114	H	0.948146	-0.228275	0.811868
H115	H	1.159292	-0.550001	0.271822
C116	C	0.627019	-0.177644	0.252386
C117	C	0.601947	-0.191198	0.181530
C118	C	0.628519	-0.154989	0.129919
H119	H	0.609427	-0.143842	0.264788
H120	H	0.679648	-0.177698	0.253029
H121	H	0.549329	-0.191139	0.180889
H122	H	0.619536	-0.224995	0.169105
H123	H	0.681148	-0.155043	0.130562
H124	H	0.610926	-0.121189	0.142328
H125	H	0.611518	-0.164183	0.081837
C126	C	1.178713	-0.177403	0.804966
C127	C	1.159441	-0.127560	0.830115
C128	C	1.210892	-0.091158	0.803712
H129	H	1.226714	-0.186117	0.822620
H130	H	1.178674	-0.177800	0.752335
H131	H	1.159488	-0.127164	0.882734
H132	H	1.111449	-0.118829	0.812463
H133	H	1.210854	-0.091555	0.751082
H134	H	1.258890	-0.099877	0.821368
H135	H	1.197820	-0.057335	0.820766
C136	C	0.967658	-0.326162	0.911900
C137	C	1.004334	-0.363747	0.954539
C138	C	0.952866	-0.400042	0.981201
H139	H	0.931923	-0.308809	0.941624
H140	H	0.943609	-0.342648	0.871331
H141	H	1.028372	-0.347263	0.995102
H142	H	1.040065	-0.381113	0.924831
H143	H	0.928817	-0.416528	0.940633
H144	H	0.917134	-0.382685	1.010923
H145	H	0.977744	-0.425551	1.010129
C146	C	0.519557	-0.278971	0.213754
C147	C	0.442002	-0.279231	0.215010
C148	C	0.415087	-0.292396	0.144684
H149	H	0.536368	-0.254093	0.178581
H150	H	0.537090	-0.312612	0.200376
H151	H	0.424476	-0.245596	0.228379
H152	H	0.425172	-0.304109	0.250169
H153	H	0.432620	-0.326037	0.131305
H154	H	0.431902	-0.267517	0.109516
H155	H	0.362464	-0.292579	0.145528
H156	H	0.619993	-0.228472	0.482982
C157	C	0.627030	-0.353393	0.318880
C158	C	0.704591	-0.352750	0.319057
C159	C	0.731237	-0.402238	0.299973
H160	H	0.609819	-0.378303	0.353812
H161	H	0.609711	-0.362484	0.270869
H162	H	0.721903	-0.343666	0.367061
H163	H	0.721822	-0.327850	0.284124
H164	H	0.713918	-0.411329	0.251962
H165	H	0.714021	-0.427144	0.334908
H166	H	0.783865	-0.401807	0.300084
H167	H	0.527132	-0.163959	0.391599
C168	C	1.172204	-0.443627	0.258893
C169	C	1.213855	-0.479215	0.217367
C170	C	1.261466	-0.452006	0.169879
H171	H	1.143889	-0.422358	0.226434
H172	H	1.204573	-0.422304	0.287314
H173	H	1.181489	-0.500530	0.188948
H174	H	1.242185	-0.500486	0.249806
H175	H	1.293835	-0.430683	0.198300
H176	H	1.233145	-0.430737	0.137425
H177	H	1.289737	-0.476148	0.141702
C178	C	1.219751	-0.694766	0.211403
C179	C	1.203653	-0.708101	0.137911
C180	C	1.251139	-0.680870	0.090323
H181	H	1.212985	-0.658328	0.218084
H182	H	1.269656	-0.703694	0.222289
H183	H	1.153760	-0.699168	0.127030
H184	H	1.210424	-0.744533	0.131207
H185	H	1.301043	-0.689799	0.101208
H186	H	1.244368	-0.644434	0.097010
H187	H	1.240227	-0.689917	0.040454
C188	C	1.172434	-0.945813	0.259122
C189	C	1.219986	-0.914411	0.301212
C190	C	1.267555	-0.887025	0.253887
H191	H	1.200816	-0.969830	0.230854
H192	H	1.144060	-0.924512	0.226742
H193	H	1.248358	-0.935710	0.333579
H194	H	1.191625	-0.890385	0.329479
H195	H	1.239180	-0.865723	0.221507
H196	H	1.295932	-0.911045	0.225621
H197	H	1.299820	-0.865711	0.282438
C198	C	1.172478	-1.059862	0.259164
C199	C	1.162367	-1.113526	0.269375
C200	C	1.209964	-1.140927	0.222108
H201	H	1.161746	-1.051029	0.209200
H202	H	1.222361	-1.050885	0.270150
H203	H	1.112496	-1.122499	0.258384
H204	H	1.173104	-1.122374	0.319329
H205	H	1.259847	-1.131950	0.233094
H206	H	1.199228	-1.132090	0.172148
H207	H	1.203115	-1.177341	0.229035
H208	H	0.987037	-0.953350	0.444052
H209	H	0.939445	-0.801229	0.491487
H210	H	0.986776	-0.450997	0.443964
C211	C	0.926425	-0.694864	0.504384
C212	C	0.884816	-0.730476	0.545929
C213	C	0.837184	-0.703294	0.593414
H214	H	0.954722	-0.673530	0.536832
H215	H	0.894029	-0.673607	0.475961
H216	H	0.917208	-0.751723	0.574350
H217	H	0.856504	-0.751811	0.513500
H218	H	0.804788	-0.682037	0.564991
H219	H	0.865487	-0.681961	0.625857
H220	H	0.808942	-0.727452	0.621603
