data_functionalizedCrystal
_audit_creation_method	'MofGen! by Chris Wilmer'
_symmetry_space_group_name_H-M	'P1'
_symmetry_Int_Tables_number	1
_symmetry_cell_setting	triclinic
loop_
_symmetry_equiv_pos_as_xyz
  x,y,z
_cell_length_a	27.440280
_cell_length_b	14.446369
_cell_length_c	14.446369
_cell_angle_alpha	59.997075
_cell_angle_beta	89.994590
_cell_angle_gamma	59.995688
loop_
_atom_site_label
_atom_site_type_symbol
_atom_site_fract_x
_atom_site_fract_y
_atom_site_fract_z
Zr1	Zr	0.469513	1.013129	-0.121518
O2	O	0.391697	1.206264	-0.269323
O3	O	0.493366	0.820009	-0.076207
O4	O	0.493367	1.013132	-0.269329
O5	O	0.391697	1.013132	0.076136
O6	O	0.573569	1.013117	-0.269334
O7	O	0.391695	1.013141	-0.076201
O8	O	0.573567	0.667655	0.076126
O9	O	0.391700	1.358595	-0.269323
O10	O	0.563395	0.899425	-0.056887
O11	O	0.503543	0.899430	0.056804
O12	O	0.503544	1.126808	-0.170572
O13	O	0.443692	1.126813	-0.056880
Zr14	Zr	0.597429	1.013092	0.121434
Zr15	Zr	0.597426	1.013105	-0.121527
Zr16	Zr	0.469516	1.013115	0.121442
Zr17	Zr	0.469518	1.256079	-0.121519
Zr18	Zr	0.597424	0.770142	0.121435
O19	O	0.573576	1.206211	0.076123
O20	O	0.573573	1.206230	-0.269335
O21	O	0.391700	1.206245	0.076135
O22	O	0.675245	0.819956	0.269239
O23	O	0.675242	0.819975	-0.076219
O24	O	0.493369	0.819990	0.269251
O25	O	0.675245	1.013088	-0.076220
O26	O	0.573574	1.013088	0.269245
O27	O	0.493372	1.013103	0.269250
O28	O	0.675246	1.013080	0.076117
O29	O	0.493373	1.358576	-0.269330
O30	O	0.573568	0.667644	0.269246
O31	O	0.675242	0.667625	0.269239
O32	O	0.675240	0.667636	0.076119
O33	O	0.391701	1.358584	-0.076203
O34	O	0.493375	1.358565	-0.076210
O35	O	0.563397	0.899412	0.170488
O36	O	0.623250	0.899408	0.056796
O37	O	0.563399	1.126790	-0.056888
O38	O	0.503546	1.126795	0.056803
C39	C	0.533466	0.709217	-0.000040
C40	C	0.533464	0.606078	-0.000040
C41	C	0.495712	0.566792	0.071675
C42	C	0.495885	0.459157	0.072055
C43	C	0.598531	0.371346	0.051876
C44	C	0.598315	0.478591	0.052421
C45	C	0.506690	0.653810	-0.123716
C46	C	0.505384	0.547637	-0.123532
C47	C	0.373471	1.013140	-0.000031
C48	C	0.319169	1.013150	-0.000027
C49	C	-0.017530	1.013086	-0.083968
C50	C	-0.068547	1.013076	-0.083968
O51	O	-0.094923	1.013031	-0.155318
N52	N	-0.094064	1.013074	-0.000046
C53	C	-0.068557	1.013068	0.083889
O54	O	-0.094946	1.013064	0.155273
C55	C	-0.017538	1.013068	0.083894
C56	C	0.007973	1.013083	-0.000041
C57	C	0.007982	1.013100	-0.167895
C58	C	0.058996	1.013111	-0.167895
C59	C	0.084498	1.013109	-0.083968
C60	C	0.058987	1.013095	-0.000041
C61	C	0.007971	1.013052	0.167833
C62	C	0.058994	1.013051	0.167830
C63	C	0.084505	1.013067	0.083896
C64	C	0.135503	1.013105	0.083885
N65	N	0.161020	1.013107	-0.000037
C66	C	0.135517	1.013109	-0.083964
C67	C	-0.175701	1.013066	0.083875
C68	C	-0.226722	1.013075	0.083867
C69	C	-0.226708	1.013081	-0.083990
C70	C	-0.175688	1.013081	-0.083985
C71	C	-0.150184	1.013068	-0.000047
C72	C	0.242650	1.013135	-0.083958
C73	C	0.293667	1.013152	-0.083954
C74	C	0.293650	1.013139	0.083906
C75	C	0.242636	1.013129	0.083898
C76	C	0.217138	1.013122	-0.000039
O77	O	0.161912	1.013144	0.155202
O78	O	0.161917	1.013096	-0.155326
C79	C	0.693470	1.013080	-0.000053
C80	C	0.747773	1.013070	-0.000057
C81	C	0.533468	1.013127	-0.303948
C82	C	0.533467	1.013132	-0.407091
C83	C	0.533476	1.317004	-0.000044
C84	C	0.533478	1.420142	-0.000044
C85	C	0.495537	1.156528	-0.625458
C86	C	0.495697	1.156625	-0.518226
C87	C	0.598503	0.941891	-0.410419
C88	C	0.598300	0.942801	-0.518188
C89	C	0.506899	0.939865	-0.516818
C90	C	0.505579	0.942568	-0.410848
C91	C	0.533474	1.013093	0.303864
C92	C	0.533475	1.013088	0.407007
C93	C	0.693465	0.709187	-0.000052
C94	C	0.747766	0.606038	-0.000055
C95	C	0.533468	0.709200	0.303866
C96	C	0.533468	0.606056	0.407009
C97	C	0.693468	0.709170	0.303855
C98	C	0.747770	0.606016	0.406994
C99	C	0.373474	1.317050	-0.303939
C100	C	0.319172	1.420204	-0.407078
C101	C	0.373477	1.317033	-0.000033
C102	C	0.319176	1.420182	-0.000029
C103	C	0.533473	1.317020	-0.303950
C104	C	0.533474	1.420165	-0.407093
C105	C	0.742022	0.557608	-0.059408
C106	C	0.793039	0.460702	-0.059434
C107	C	0.849798	0.412222	-0.000099
C108	C	0.855540	0.460662	0.059256
C109	C	0.804524	0.557573	0.059275
C110	C	0.804518	0.557571	0.396084
C111	C	0.855545	0.460660	0.492985
C112	C	0.849822	0.412189	0.600796
C113	C	0.793068	0.460644	0.611704
C114	C	0.742042	0.557559	0.514804
C115	C	0.262424	1.468661	-0.396168
C116	C	0.211397	1.565602	-0.493069
C117	C	0.217120	1.614078	-0.600880
C118	C	0.273874	1.565617	-0.611788
C119	C	0.324900	1.468685	-0.514888
C120	C	0.324920	1.468623	0.059314
C121	C	0.273903	1.565555	0.059313
C122	C	0.217144	1.614039	-0.000025
C123	C	0.211402	1.565594	-0.059376
C124	C	0.262417	1.468670	-0.059381
C125	C	0.495534	0.459745	0.481999
C126	C	0.495695	0.566674	0.374664
C127	C	0.598503	0.479187	0.481563
C128	C	0.598299	0.371803	0.588428
C129	C	0.506902	0.546787	0.590020
C130	C	0.505582	0.655266	0.481342
H131	H	0.514473	0.370202	0.163286
C132	C	0.638563	0.331311	0.694587
H133	H	0.654977	0.380493	0.672271
H134	H	0.615622	0.347793	0.740566
H135	H	0.669942	0.240659	0.736405
H136	H	0.079758	1.013037	0.236186
H137	H	-0.012793	1.013039	0.236180
C138	C	0.520204	1.232207	-0.699726
H139	H	0.497028	1.318769	-0.718962
H140	H	0.560514	1.189182	-0.659050
H141	H	0.518278	1.235375	-0.766999
H142	H	-0.247495	1.013083	0.152204
C143	C	0.786777	0.407321	0.730296
H144	H	0.745672	0.450054	0.722928
H145	H	0.805388	0.315821	0.770563
H146	H	0.805385	0.423211	0.770557
C147	C	0.443182	1.001876	-0.584376
H148	H	0.427971	0.956246	-0.536858
H149	H	0.418279	1.091086	-0.610601
H150	H	0.443990	0.996538	-0.647350
H151	H	0.447989	0.495709	0.037264
C152	C	0.387348	1.415307	0.124592
H153	H	0.383453	1.458059	0.159921
H154	H	0.408549	1.323810	0.180754
H155	H	0.408551	1.431192	0.073362
C156	C	0.538988	0.698793	0.515722
H157	H	0.521179	0.728066	0.560485
H158	H	0.579619	0.627079	0.558322
H159	H	0.536756	0.768150	0.449530
H160	H	0.175566	1.693006	-0.679773
C161	C	0.627037	1.011181	-0.586212
H162	H	0.627169	1.012333	-0.652540
H163	H	0.604791	1.098436	-0.607131
H164	H	0.666888	0.964938	-0.540926
C165	C	0.256120	1.415355	-0.277586
H166	H	0.294633	1.350676	-0.221427
H167	H	0.234925	1.484930	-0.269085
H168	H	0.234916	1.377556	-0.269087
H169	H	0.619734	0.437767	0.143417
C170	C	0.214566	1.013135	0.176211
H171	H	0.237063	1.013135	0.226194
H172	H	0.174673	1.089060	0.141736
H173	H	0.214660	0.937187	0.217675
H174	H	-0.154920	1.013093	-0.152331
H175	H	0.165182	1.605084	-0.107687
C176	C	0.917968	0.407335	0.480972
H177	H	0.947542	0.342675	0.554118
H178	H	0.922425	0.369531	0.440712
H179	H	0.922451	0.476902	0.440688
C180	C	0.387320	1.415377	-0.526903
H181	H	0.383414	1.458126	-0.604992
H182	H	0.408536	1.431236	-0.491570
H183	H	0.408515	1.323877	-0.491580
H184	H	0.278527	1.605099	-0.699579
C185	C	0.905954	0.305574	0.707376
H186	H	0.940569	0.283661	0.685428
H187	H	0.905967	0.337320	0.751228
H188	H	0.905961	0.229948	0.751215
C189	C	0.543653	0.689284	-0.196232
H190	H	0.575244	0.675111	-0.151416
H191	H	0.559760	0.635897	-0.223239
H192	H	0.518759	0.778743	-0.258766
C193	C	0.440854	1.012723	-0.411537
H194	H	0.424227	0.969583	-0.413818
H195	H	0.440491	1.010861	-0.344883
H196	H	0.417907	1.101012	-0.476350
C197	C	0.321711	1.013127	0.176223
H198	H	0.355752	1.013119	0.164202
H199	H	0.293365	1.089048	0.172759
H200	H	0.333344	0.937175	0.248670
H201	H	0.891333	0.333310	-0.000122
C202	C	0.430836	0.686641	0.024937
H203	H	0.426190	0.761716	-0.038727
H204	H	0.404541	0.671428	0.002619
H205	H	0.421755	0.700736	0.082086
C206	C	0.544051	0.513299	0.695678
H207	H	0.527782	0.590215	0.693413
H208	H	0.543161	0.449848	0.761965
H209	H	0.584131	0.479185	0.696827
C210	C	0.256092	1.415379	-0.124646
H211	H	0.214981	1.458131	-0.159970
H212	H	0.274694	1.431246	-0.180811
H213	H	0.274689	1.323878	-0.073411
H214	H	0.514130	1.212863	-0.520681
H215	H	0.620106	0.278897	0.141991
C216	C	0.280230	1.618814	0.124613
H217	H	0.321342	1.576035	0.159966
H218	H	0.261636	1.710310	0.073404
H219	H	0.261625	1.602926	0.180777
C220	C	0.520582	0.518310	0.194194
H221	H	0.553874	0.521902	0.201833
H222	H	0.490486	0.572482	0.211292
H223	H	0.532743	0.430614	0.245046
C224	C	0.679622	0.610824	0.526819
H225	H	0.683527	0.568059	0.604908
H226	H	0.658409	0.702323	0.491487
H227	H	0.658424	0.594921	0.491495
H228	H	0.447806	1.212532	-0.519846
C229	C	0.148975	1.618880	-0.481050
H230	H	0.152879	1.576104	-0.402962
H231	H	0.127769	1.710374	-0.516368
H232	H	0.127770	1.603001	-0.516390
H233	H	0.175609	1.692960	-0.000012
C234	C	0.087060	1.013105	-0.260209
H235	H	0.121096	1.013114	-0.248204
H236	H	0.098686	0.937171	-0.256720
H237	H	0.058708	1.089044	-0.332663
C238	C	0.638409	0.508631	-0.013593
H239	H	0.654760	0.455291	-0.040617
H240	H	0.615380	0.598238	-0.075961
H241	H	0.669837	0.490860	0.035099
H242	H	0.447804	0.656034	0.320396
C243	C	0.810825	0.610876	0.277505
H244	H	0.851934	0.568143	0.284902
H245	H	0.792224	0.594995	0.237229
H246	H	0.792219	0.702380	0.237237
C247	C	0.520196	0.338625	0.480585
H248	H	0.497018	0.363417	0.413264
H249	H	0.560506	0.302725	0.482923
H250	H	0.518268	0.275013	0.544696
C251	C	0.679594	0.610925	-0.124688
H252	H	0.683488	0.568203	-0.160047
H253	H	0.658388	0.595042	-0.073472
H254	H	0.658395	0.702430	-0.180847
C255	C	0.627030	0.249204	0.588057
H256	H	0.638714	0.265368	0.522723
H257	H	0.661097	0.177426	0.654234
H258	H	0.598995	0.229200	0.586958
H259	H	0.447521	0.496992	0.479667
H260	H	0.619925	0.440629	0.429952
C261	C	0.638205	0.332819	-0.015319
H262	H	0.615395	0.346177	-0.075776
H263	H	0.652903	0.385308	-0.045153
H264	H	0.670792	0.243185	0.033519
C265	C	0.440640	0.600952	-0.175946
H266	H	0.423888	0.678079	-0.250639
H267	H	0.440278	0.536855	-0.178511
H268	H	0.417806	0.620832	-0.131027
C269	C	0.638352	0.509222	0.518343
H270	H	0.615626	0.599620	0.488481
H271	H	0.653130	0.458515	0.598751
H272	H	0.670881	0.488082	0.490464
H273	H	0.514127	0.529208	0.320874
H274	H	0.459735	0.586366	0.594140
H275	H	0.459495	0.747405	-0.167125
H276	H	0.457670	0.745769	0.429922
H277	H	0.530078	0.526453	-0.181377
H278	H	0.221896	1.013127	-0.152307
C279	C	0.321729	1.013159	-0.176280
H280	H	0.299235	1.013143	-0.226254
H281	H	0.321641	1.089092	-0.217739
H282	H	0.361622	0.937219	-0.141798
H283	H	-0.012777	1.013097	-0.236238
C284	C	0.917975	0.407309	0.124541
H285	H	0.914096	0.450027	0.159897
H286	H	0.939165	0.315809	0.180683
H287	H	0.939181	0.423190	0.073316
H288	H	-0.247481	1.013080	-0.152326
H289	H	-0.154941	1.013065	0.152226
H290	H	0.809209	0.596993	0.107614
H291	H	0.447523	1.212827	-0.679407
H292	H	0.627996	0.836385	-0.332152
C293	C	0.638546	0.800636	-0.482191
H294	H	0.654954	0.742583	-0.401829
H295	H	0.615590	0.781792	-0.509293
H296	H	0.669930	0.789825	-0.513228
H297	H	0.619928	0.991357	-0.408279
C298	C	0.786715	0.407420	-0.124714
H299	H	0.825224	0.342770	-0.116244
H300	H	0.765517	0.369615	-0.095393
H301	H	0.765508	0.477012	-0.202789
H302	H	0.530339	0.837881	-0.331692
H303	H	0.534401	0.834196	-0.489371
