data_functionalizedCrystal
_audit_creation_method	'MofGen! by Chris Wilmer'
_symmetry_space_group_name_H-M	'P1'
_symmetry_Int_Tables_number	1
_symmetry_cell_setting	triclinic
loop_
_symmetry_equiv_pos_as_xyz
  x,y,z
_cell_length_a	16.959455
_cell_length_b	12.645330
_cell_length_c	16.959447
_cell_angle_alpha	89.977495
_cell_angle_beta	89.982507
_cell_angle_gamma	90.014639
loop_
_atom_site_label
_atom_site_type_symbol
_atom_site_fract_x
_atom_site_fract_y
_atom_site_fract_z
Zn1	Zn	1.208422	-0.422142	-0.446932
Zn2	Zn	1.208342	-0.599423	-0.314763
Zn3	Zn	1.076243	-0.422164	-0.314770
Zn4	Zn	1.076220	-0.599355	-0.446902
O5	O	1.142307	-0.510771	-0.380842
O6	O	1.319022	-0.445678	-0.429410
O7	O	1.190795	-0.575947	-0.204153
O8	O	1.093819	-0.273814	-0.332316
O9	O	1.318964	-0.575925	-0.332306
O10	O	1.190930	-0.273798	-0.429416
O11	O	1.093742	-0.445716	-0.204158
O12	O	0.965629	-0.445650	-0.332287
O13	O	1.093781	-0.575809	-0.557517
O14	O	0.965612	-0.575831	-0.429364
O15	O	1.190909	-0.445612	-0.557539
O16	O	1.190773	-0.747761	-0.332277
O17	O	1.093704	-0.747711	-0.429358
C18	C	0.936940	-0.510736	-0.380824
C19	C	0.849084	-0.510747	-0.380835
C20	C	0.477592	-0.442930	-0.330399
C21	C	0.477624	-0.578699	-0.431329
C22	C	0.560170	-0.578684	-0.431325
C23	C	0.601431	-0.510792	-0.380855
C24	C	0.560146	-0.442915	-0.330391
C25	C	0.601461	-0.646567	-0.481782
C26	C	0.684012	-0.646555	-0.481779
C27	C	0.725274	-0.578657	-0.431313
C28	C	0.683984	-0.510777	-0.380847
C29	C	0.725245	-0.442885	-0.330378
C30	C	0.683957	-0.374999	-0.279916
C31	C	0.601408	-0.375017	-0.279925
C32	C	0.807823	-0.578638	-0.431304
C33	C	0.807799	-0.442870	-0.330370
C34	C	1.142249	-0.786201	-0.380831
C35	C	1.142297	-0.904031	-0.380852
C36	C	1.081482	-1.071607	-0.442115
C37	C	1.081171	-0.949048	-0.441918
C38	C	1.119751	-0.948619	-0.297551
C39	C	1.119379	-1.071217	-0.297922
C40	C	1.226029	-1.071127	-0.402216
C41	C	1.225516	-0.948520	-0.404038
C42	C	1.348475	-0.510807	-0.380860
C43	C	1.436331	-0.510822	-0.380868
C44	C	1.142351	-0.510700	-0.587010
C45	C	1.142370	-0.510670	-0.674867
C46	C	1.142386	-0.234266	-0.380870
C47	C	1.142420	-0.116436	-0.380882
C48	C	1.091810	-0.578445	-0.716131
C49	C	1.192943	-0.442861	-0.716156
C50	C	1.192960	-0.442826	-0.798702
C51	C	1.142399	-0.510601	-0.839966
C52	C	1.091823	-0.578410	-0.798684
C53	C	1.243530	-0.375010	-0.839990
C54	C	1.243547	-0.374972	-0.922541
C55	C	1.192991	-0.442753	-0.963807
C56	C	1.142413	-0.510566	-0.922520
C57	C	1.091853	-0.578340	-0.963784
C58	C	1.041278	-0.646160	-0.922498
C59	C	1.041266	-0.646191	-0.839950
C60	C	1.193002	-0.442721	-1.046355
C61	C	1.091866	-0.578306	-1.046337
C62	C	1.142308	-0.510765	-0.175475
C63	C	1.142442	-0.510496	-0.087619
H64	H	0.841388	-0.387577	-0.289276
H65	H	0.443972	-0.387656	-0.289316
H66	H	1.234103	-0.387677	-0.682554
H67	H	1.284729	-0.319751	-0.956149
H68	H	1.271429	-1.100116	-0.357618
H69	H	0.841436	-0.633914	-0.472387
H70	H	1.058261	-1.099903	-0.279850
H71	H	1.050696	-0.633500	-1.079929
F72	F	0.987466	-0.718282	-0.966424
H73	H	1.000090	-0.701405	-0.806328
F74	F	1.297300	-0.302838	-0.796071
H75	H	1.050635	-0.633665	-0.682512
H76	H	1.161838	-1.100875	-0.250744
F77	F	0.727879	-0.302751	-0.226201
H78	H	1.234173	-0.387496	-1.079966
H79	H	1.095277	-0.918898	-0.503685
H80	H	1.273308	-0.917871	-0.362687
H81	H	0.444024	-0.633980	-0.472414
F82	F	0.557461	-0.302775	-0.226225
F83	F	0.557545	-0.718844	-0.535470
H84	H	1.095458	-1.101024	-0.504085
F85	F	1.000972	-1.112008	-0.423891
F86	F	1.000152	-0.910824	-0.423447
F87	F	1.175924	-0.910510	-0.236286
F88	F	0.727947	-0.718803	-0.535486
H89	H	1.246597	-1.101976	-0.461927
F90	F	1.040695	-0.908607	-0.273500
H91	H	1.242519	-0.919374	-0.465343
