data_functionalizedCrystal
_audit_creation_method	'MofGen! by Chris Wilmer'
_symmetry_space_group_name_H-M	'P1'
_symmetry_Int_Tables_number	1
_symmetry_cell_setting	triclinic
loop_
_symmetry_equiv_pos_as_xyz
  x,y,z
_cell_length_a	18.215407
_cell_length_b	18.215405
_cell_length_c	18.215399
_cell_angle_alpha	90.027541
_cell_angle_beta	89.979405
_cell_angle_gamma	89.977347
loop_
_atom_site_label
_atom_site_type_symbol
_atom_site_fract_x
_atom_site_fract_y
_atom_site_fract_z
Zn1	Zn	-1.125083	-0.292993	0.416133
Zn2	Zn	-0.625083	0.207007	0.916133
Zn3	Zn	-1.124996	-0.416065	0.293068
Zn4	Zn	-0.624996	0.083935	0.793068
Zn5	Zn	-1.002016	-0.293016	0.293079
Zn6	Zn	-0.502016	0.206984	0.793079
Zn7	Zn	-1.001986	-0.416023	0.416091
Zn8	Zn	-0.501986	0.083977	0.916091
O9	O	-1.063520	-0.354524	0.354592
O10	O	-0.563520	0.145476	0.854592
O11	O	-1.228056	-0.309327	0.399821
O12	O	-0.728056	0.190673	0.899821
O13	O	-1.108658	-0.399769	0.190085
O14	O	-0.608658	0.100231	0.690085
O15	O	-1.018389	-0.190029	0.309424
O16	O	-0.518389	0.309971	0.809424
O17	O	-1.227992	-0.399747	0.309405
O18	O	-0.727992	0.100253	0.809405
O19	O	-1.108807	-0.190012	0.399832
O20	O	-0.608807	0.309988	0.899832
O21	O	-1.018305	-0.309366	0.190093
O22	O	-0.518305	0.190634	0.690093
O23	O	-0.899027	-0.309325	0.309384
O24	O	-0.399027	0.190675	0.809384
O25	O	-1.018339	-0.399675	0.519081
O26	O	-0.518339	0.100325	1.019081
O27	O	-0.899006	-0.399697	0.399760
O28	O	-0.399006	0.100303	0.899760
O29	O	-1.108778	-0.309286	0.519112
O30	O	-0.608778	0.190714	1.019112
O31	O	-1.108630	-0.519043	0.309365
O32	O	-0.608630	-0.019043	0.809365
O33	O	-1.018255	-0.519012	0.399749
O34	O	-0.518255	-0.019012	0.899749
C35	C	-0.872314	-0.354510	0.354569
C36	C	-0.372314	0.145490	0.854569
C37	C	-0.790515	-0.354521	0.354576
C38	C	-0.290515	0.145479	0.854576
C39	C	-1.063450	-0.545730	0.354567
C40	C	-0.563450	-0.045730	0.854567
C41	C	-1.063487	-0.627529	0.354581
C42	C	-0.563487	-0.127529	0.854581
C43	C	-0.602329	-0.401650	0.401574
C44	C	-0.102329	0.098350	0.901574
C45	C	-0.525470	-0.401652	0.401582
C46	C	-0.025470	0.098348	0.901582
C47	C	-0.525463	-0.307402	0.307614
C48	C	-0.025463	0.192598	0.807614
C49	C	-0.602321	-0.307397	0.307610
C50	C	-0.102321	0.192603	0.807610
C51	C	-0.640751	-0.354526	0.354589
C52	C	-0.140751	0.145474	0.854589
C53	C	-0.487035	-0.354532	0.354601
C54	C	0.012965	0.145468	0.854601
C55	C	-0.403702	-0.354533	0.354609
C56	C	0.096298	0.145467	0.854609
C57	C	-0.724090	-0.354524	0.354582
C58	C	-0.224090	0.145476	0.854582
C59	C	-0.255473	-0.354537	0.354613
C60	C	0.244527	0.145463	0.854613
C61	C	-0.337272	-0.354536	0.354614
C62	C	0.162728	0.145464	0.854614
C63	C	-1.110589	-0.815653	0.401720
C64	C	-0.610589	-0.315653	0.901720
C65	C	-1.110616	-0.892512	0.401734
C66	C	-0.610616	-0.392512	0.901734
C67	C	-1.016542	-0.892643	0.307511
C68	C	-0.516542	-0.392643	0.807511
C69	C	-1.016512	-0.815786	0.307501
C70	C	-0.516512	-0.315786	0.807501
C71	C	-1.063540	-0.777293	0.354605
C72	C	-0.563540	-0.277293	0.854605
C73	C	-1.063597	-0.931009	0.354628
C74	C	-0.563597	-0.431009	0.854628
C75	C	-1.063625	-1.014343	0.354643
C76	C	-0.563625	-0.514343	0.854643
C77	C	-1.063511	-0.693954	0.354591
C78	C	-0.563511	-0.193954	0.854591
C79	C	-1.063565	-0.354473	0.546545
C80	C	-0.563565	0.145527	1.046545
C81	C	-1.063584	-0.354452	0.628344
C82	C	-0.563584	0.145548	1.128344
C83	C	-1.063611	-0.162571	0.354634
C84	C	-0.563611	0.337429	0.854634
C85	C	-1.063650	-0.080772	0.354652
C86	C	-0.563650	0.419228	0.854652
C87	C	-1.063518	-0.354522	0.163386
C88	C	-0.563518	0.145478	0.663386
C89	C	-1.063641	-0.354336	0.081588
C90	C	-0.563641	0.145664	0.581588
C91	C	-1.110692	-0.307342	0.816556
C92	C	-0.610692	0.192658	1.316556
C93	C	-1.110701	-0.307321	0.893415
C94	C	-0.610701	0.192679	1.393415
C95	C	-1.016528	-0.401448	0.893371
C96	C	-0.516528	0.098552	1.393371
C97	C	-1.016516	-0.401465	0.816514
C98	C	-0.516516	0.098535	1.316514
C99	C	-1.063602	-0.354413	0.778108
C100	C	-0.563602	0.145587	1.278108
C101	C	-1.063623	-0.354375	0.931824
C102	C	-0.563623	0.145625	1.431824
C103	C	-1.063632	-0.354352	1.015158
C104	C	-0.563632	0.145648	1.515158
C105	C	-1.063592	-0.354435	0.694769
C106	C	-0.563592	0.145565	1.194769
H107	H	-0.494190	-0.440025	0.439843
H108	H	0.005810	0.059975	0.939843
O109	O	-0.643773	-0.452469	0.452258
O110	O	-0.143773	0.047531	0.952258
H111	H	-0.678814	-0.419566	0.489750
H112	H	-0.178814	0.080434	0.989750
H113	H	-1.148927	-0.923742	0.440101
H114	H	-0.648927	-0.423742	0.940101
O115	O	-0.483998	-0.256589	0.256941
O116	O	0.016002	0.243411	0.756941
H117	H	-0.498759	-0.198840	0.269659
H118	H	0.001241	0.301160	0.769659
O119	O	-1.161313	-0.774136	0.452520
O120	O	-0.661313	-0.274136	0.952520
H121	H	-1.148660	-0.788856	0.510270
H122	H	-0.648660	-0.288856	1.010270
H123	H	-1.149031	-0.269028	0.785288
H124	H	-0.649031	0.230972	1.285288
H125	H	-1.149046	-0.268990	0.924715
H126	H	-0.649046	0.231010	1.424715
O127	O	-0.965744	-0.452196	0.934793
O128	O	-0.465744	0.047804	1.434793
H129	H	-0.973666	-0.444281	0.994697
H130	H	-0.473666	0.055719	1.494697
H131	H	-0.978164	-0.439795	0.785209
H132	H	-0.478164	0.060205	1.285209
H133	H	-0.978255	-0.923993	0.269160
H134	H	-0.478255	-0.423993	0.769160
H135	H	-0.978195	-0.784550	0.269134
H136	H	-0.478195	-0.284550	0.769134
H137	H	-0.633605	-0.269018	0.269350
H138	H	-0.133605	0.230982	0.769350
