data_functionalizedCrystal
_audit_creation_method	'MofGen! by Chris Wilmer'
_symmetry_space_group_name_H-M	'P1'
_symmetry_Int_Tables_number	1
_symmetry_cell_setting	triclinic
loop_
_symmetry_equiv_pos_as_xyz
  x,y,z
_cell_length_a	17.000371
_cell_length_b	14.519709
_cell_length_c	16.098662
_cell_angle_alpha	93.048458
_cell_angle_beta	93.244023
_cell_angle_gamma	79.639696
loop_
_atom_site_label
_atom_site_type_symbol
_atom_site_fract_x
_atom_site_fract_y
_atom_site_fract_z
O1	O	-1.059332	-0.036633	-0.069259
O2	O	-0.559332	0.463367	0.430741
O3	O	-0.827647	-0.070101	-0.069261
O4	O	-0.327647	0.429899	0.430739
O5	O	-0.949632	0.081382	-0.069253
O6	O	-0.449632	0.581382	0.430747
O7	O	-0.937348	-0.188116	-0.069268
O8	O	-0.437348	0.311884	0.430732
O9	O	-0.943257	0.088197	0.069258
O10	O	-0.443257	0.588197	0.569258
O11	O	-0.821272	-0.063285	0.069250
O12	O	-0.321272	0.436715	0.569250
O13	O	-1.052957	-0.029818	0.069252
O14	O	-0.552957	0.470182	0.569252
Zn15	Zn	-0.936102	-0.045470	0.091242
Zn16	Zn	-0.436102	0.454530	0.591242
Zn17	Zn	-0.944502	-0.054449	-0.091252
Zn18	Zn	-0.444502	0.445551	0.408748
O19	O	-0.930972	-0.181301	0.069243
O20	O	-0.430972	0.318699	0.569243
C21	C	-0.945872	0.119102	0.000003
C22	C	-0.445872	0.619102	0.500003
C23	C	-0.944156	0.221340	0.000003
C24	C	-0.444156	0.721340	0.500003
C25	C	-0.794809	-0.068491	-0.000005
C26	C	-0.294809	0.431509	0.499995
C27	C	-0.706458	-0.073836	-0.000006
C28	C	-0.206458	0.426164	0.499994
C29	C	-1.085796	-0.031428	-0.000006
C30	C	-0.585796	0.468572	0.499994
C31	C	-1.174147	-0.026083	-0.000011
C32	C	-0.674147	0.473917	0.499989
C33	C	-0.674315	0.008422	0.000000
C34	C	-0.174315	0.508422	0.500000
C35	C	-0.591299	0.003393	-0.000006
C36	C	-0.091299	0.503393	0.499994
C37	C	-0.540428	-0.083893	-0.000012
C38	C	-0.040428	0.416107	0.499988
C39	C	-0.572576	-0.166157	-0.000021
C40	C	-0.072576	0.333843	0.499979
C41	C	-0.655590	-0.161128	-0.000021
C42	C	-0.155590	0.338872	0.499979
C43	C	-0.289310	-0.103318	-0.000019
C44	C	0.210690	0.396682	0.499981
C45	C	-0.206290	-0.108341	-0.000017
C46	C	0.293710	0.391659	0.499983
C47	C	-0.225019	0.061210	-0.000003
C48	C	0.274981	0.561210	0.499997
C49	C	-0.308034	0.066232	0.000002
C50	C	0.191966	0.566232	0.500002
C51	C	-0.340175	-0.016032	-0.000011
C52	C	0.159825	0.483968	0.499989
C53	C	-0.455572	-0.089035	-0.000016
C54	C	0.044428	0.410965	0.499984
C55	C	-0.425030	-0.010890	-0.000013
C56	C	0.074970	0.489110	0.499987
C57	C	-0.934733	-0.219020	-0.000014
C58	C	-0.434733	0.280980	0.499986
C59	C	-0.936449	-0.321260	-0.000020
C60	C	-0.436449	0.178740	0.499980
N61	N	-0.930376	-0.039341	0.215790
N62	N	-0.430376	0.460659	0.715790
C63	C	-0.937841	0.595711	-0.000018
C64	C	-0.437841	1.095711	0.499982
C65	C	-0.939595	0.491549	-0.000012
C66	C	-0.439595	0.991549	0.499988
C67	C	-0.940998	0.408529	-0.000007
C68	C	-0.440998	0.908529	0.499993
C69	C	-0.942753	0.304360	-0.000002
C70	C	-0.442753	0.804360	0.499998
N71	N	-0.950235	-0.060571	-0.215799
N72	N	-0.450235	0.439429	0.284201
C73	C	-0.903894	-0.010686	0.740602
C74	C	-0.403894	0.489314	1.240602
C75	C	-0.907895	-0.015010	0.653414
C76	C	-0.407895	0.484990	1.153414
C77	C	-0.958233	-0.069224	0.609827
C78	C	-0.458233	0.430776	1.109827
C79	C	-1.004580	-0.119110	0.653432
C80	C	-0.504580	0.380890	1.153432
C81	C	-1.000583	-0.114781	0.740618
C82	C	-0.500583	0.385219	1.240618
C83	C	-0.972725	-0.084897	0.346581
C84	C	-0.472725	0.415103	0.846581
C85	C	-0.976717	-0.089225	0.259389
C86	C	-0.476717	0.410775	0.759389
C87	C	-0.880033	0.014877	0.259377
C88	C	-0.380033	0.514877	0.759377
C89	C	-0.876036	0.019198	0.346565
C90	C	-0.376036	0.519198	0.846565
C91	C	-0.922386	-0.030684	0.390162
C92	C	-0.422386	0.469316	0.890162
C93	C	-0.962322	-0.073648	0.520707
C94	C	-0.462322	0.426352	1.020707
C95	C	-0.918301	-0.026255	0.479281
C96	C	-0.418301	0.473745	0.979281
H97	H	-0.715729	0.079500	0.000009
H98	H	-0.215729	0.579500	0.500009
C99	C	-0.734815	-0.250330	0.071172
C100	C	-0.234815	0.249670	0.571172
C101	C	-0.690928	-0.251546	-0.000027
C102	C	-0.190928	0.248454	0.499973
H103	H	-0.756634	-0.306150	0.071160
H104	H	-0.256634	0.193850	0.571160
H105	H	-0.700597	-0.246400	0.119466
H106	H	-0.200597	0.253600	0.619466
H107	H	-0.776988	-0.197620	0.071166
H108	H	-0.276988	0.302380	0.571166
H109	H	-0.648751	-0.304253	-0.000019
H110	H	-0.148751	0.195747	0.499981
H111	H	-0.725149	-0.255485	-0.048334
H112	H	-0.225149	0.244515	0.451666
H113	H	-0.414143	-0.160104	-0.000020
H114	H	0.085857	0.339896	0.499980
C115	C	-0.866413	0.147686	0.444590
C116	C	-0.366413	0.647686	0.944590
C117	C	-0.820707	0.078792	0.394481
C118	C	-0.320707	0.578792	0.894481
H119	H	-0.832251	0.184470	0.474175
H120	H	-0.332251	0.684470	0.974175
H121	H	-0.904534	0.186726	0.410561
H122	H	-0.404534	0.686726	0.910561
H123	H	-0.893439	0.118581	0.483026
H124	H	-0.393439	0.618581	0.983026
H125	H	-0.793685	0.107898	0.356040
H126	H	-0.293685	0.607898	0.856040
H127	H	-0.782571	0.039747	0.428513
H128	H	-0.282571	0.539747	0.928513
C129	C	-0.777486	0.007173	0.161343
C130	C	-0.277486	0.507173	0.661343
C131	C	-0.829094	0.069712	0.211452
C132	C	-0.329094	0.569712	0.711452
H133	H	-0.746043	0.041033	0.131754
H134	H	-0.246043	0.541033	0.631754
H135	H	-0.743375	-0.036184	0.195373
H136	H	-0.243375	0.463816	0.695373
H137	H	-0.808045	-0.025730	0.122910
H138	H	-0.308045	0.474270	0.622910
H139	H	-0.798535	0.102611	0.249889
H140	H	-0.298535	0.602611	0.749889
H141	H	-0.863210	0.113087	0.177419
H142	H	-0.363210	0.613087	0.677419
H143	H	-1.045570	-0.163248	0.617936
H144	H	-0.545570	0.336752	1.117936
H145	H	-0.870162	0.025614	0.617920
H146	H	-0.370162	0.525614	1.117920
H147	H	-0.466453	0.060178	-0.000013
H148	H	0.033547	0.560178	0.499987
H149	H	-0.349449	0.137310	0.000011
H150	H	0.150551	0.637310	0.500011
H151	H	-0.164871	-0.179424	-0.000018
H152	H	0.335129	0.320576	0.499982
C153	C	-0.562408	-0.333245	-0.000044
C154	C	-0.062408	0.166755	0.499956
C155	C	-0.516661	-0.262106	-0.000033
C156	C	-0.016661	0.237894	0.499967
H157	H	-0.527888	-0.392481	-0.000055
H158	H	-0.027888	0.107519	0.499945
H159	H	-0.592950	-0.325385	0.048256
H160	H	-0.092950	0.174615	0.548256
H161	H	-0.597402	-0.330124	-0.048349
H162	H	-0.097402	0.169876	0.451651
H163	H	-0.481670	-0.265224	0.048275
H164	H	0.018330	0.234776	0.548275
H165	H	-0.486105	-0.269970	-0.048337
H166	H	0.013895	0.230030	0.451663
H167	H	-0.315469	-0.170304	-0.000035
H168	H	0.184531	0.329696	0.499965
H169	H	-0.877318	0.017889	0.514773
H170	H	-0.377318	0.517889	1.014773
H171	H	-0.862899	0.033456	0.776084
H172	H	-0.362899	0.533456	1.276084
C173	C	-0.618149	0.171491	0.000027
C174	C	-0.118149	0.671491	0.500027
C175	C	-0.555968	0.093815	0.000011
C176	C	-0.055968	0.593815	0.500011
H177	H	-0.596335	0.227314	0.000043
H178	H	-0.096335	0.727314	0.500043
H179	H	-0.652360	0.167556	-0.048272
H180	H	-0.152360	0.667556	0.451728
H181	H	-0.647915	0.172287	0.048332
H182	H	-0.147915	0.672287	0.548332
H183	H	-0.526206	0.093015	-0.048298
H184	H	-0.026206	0.593015	0.451702
H185	H	-0.521743	0.097750	0.048315
H186	H	-0.021743	0.597750	0.548315
C187	C	-0.106082	0.128789	-0.000006
C188	C	0.393918	0.628789	0.499994
C189	C	-0.189688	0.151630	-0.000001
C190	C	0.310312	0.651630	0.499999
H191	H	-0.084273	0.184615	-0.000013
H192	H	0.415727	0.684615	0.499987
H193	H	-0.086411	0.095521	0.048292
H194	H	0.413589	0.595521	0.548292
H195	H	-0.090862	0.090753	-0.048312
H196	H	0.409138	0.590753	0.451688
H197	H	-0.204908	0.189661	0.048308
H198	H	0.295092	0.689661	0.548308
H199	H	-0.209366	0.184914	-0.048304
H200	H	0.290634	0.684914	0.451696
C201	C	-1.071897	-0.191685	0.268153
C202	C	-0.571897	0.308315	0.768153
C203	C	-1.032055	-0.148819	0.211476
C204	C	-0.532055	0.351181	0.711476
H205	H	-1.106060	-0.228470	0.238571
H206	H	-0.606060	0.271530	0.738571
H207	H	-1.033769	-0.230725	0.302177
H208	H	-0.533769	0.269275	0.802177
H209	H	-1.102892	-0.144928	0.302141
H210	H	-0.602892	0.355072	0.802141
H211	H	-1.001055	-0.195576	0.177492
H212	H	-0.501055	0.304424	0.677492
H213	H	-1.070188	-0.109776	0.177438
H214	H	-0.570188	0.390224	0.677438
H215	H	-1.010465	-0.125515	0.382068
H216	H	-0.510465	0.374485	0.882068
C217	C	-1.096546	-0.218121	0.731878
C218	C	-0.596546	0.281879	1.231878
C219	C	-1.051520	-0.169618	0.788545
C220	C	-0.551520	0.330382	1.288545
H221	H	-1.127991	-0.251978	0.761468
H222	H	-0.627991	0.248022	1.261468
H223	H	-1.130656	-0.174754	0.697856
H224	H	-0.630656	0.325246	1.197856
H225	H	-1.061523	-0.260540	0.697888
H226	H	-0.561523	0.239460	1.197888
H227	H	-1.086544	-0.127194	0.822531
H228	H	-0.586544	0.372806	1.322531
H229	H	-1.017407	-0.212990	0.822582
H230	H	-0.517407	0.287010	1.322582
C231	C	-0.971939	-0.202139	0.422686
C232	C	-0.471939	0.297861	0.922686
C233	C	-1.017649	-0.133247	0.472792
C234	C	-0.517649	0.366753	0.972792
H235	H	-1.006097	-0.238934	0.393107
H236	H	-0.506097	0.261066	0.893107
H237	H	-0.944920	-0.173040	0.384251
H238	H	-0.444920	0.326960	0.884251
H239	H	-0.933810	-0.241178	0.456722
H240	H	-0.433810	0.258822	0.956722
H241	H	-1.055775	-0.094204	0.438754
H242	H	-0.555775	0.405796	0.938754
H243	H	-1.044682	-0.162348	0.511231
H244	H	-0.544682	0.337652	1.011231
