data_functionalizedCrystal
_audit_creation_method	'MofGen! by Chris Wilmer'
_symmetry_space_group_name_H-M	'P1'
_symmetry_Int_Tables_number	1
_symmetry_cell_setting	triclinic
loop_
_symmetry_equiv_pos_as_xyz
  x,y,z
_cell_length_a	11.792241
_cell_length_b	14.044220
_cell_length_c	10.868271
_cell_angle_alpha	89.993930
_cell_angle_beta	89.999893
_cell_angle_gamma	88.691147
loop_
_atom_site_label
_atom_site_type_symbol
_atom_site_fract_x
_atom_site_fract_y
_atom_site_fract_z
O1	O	1.519111	0.129987	-0.102206
O2	O	1.190028	0.143383	-0.102234
O3	O	1.349630	-0.001325	-0.102208
O4	O	1.359509	0.274695	-0.102232
O5	O	1.349615	-0.001331	0.102436
O6	O	1.190013	0.143378	0.102410
O7	O	1.519096	0.129981	0.102439
Zn8	Zn	1.354552	0.136679	0.134916
Zn9	Zn	1.354572	0.136686	-0.134712
O10	O	1.359494	0.274689	0.102413
C11	C	1.147650	0.142539	0.000084
C12	C	1.021400	0.140020	0.000074
C13	C	1.345298	-0.036664	0.000114
C14	C	1.332399	-0.141956	0.000115
C15	C	0.790253	0.135389	0.000109
C16	C	0.918880	0.137962	0.000090
C17	C	1.308817	-0.334739	0.000095
C18	C	1.400302	-0.391902	0.000099
C19	C	1.387181	-0.499173	0.000088
C20	C	1.321937	-0.227458	0.000106
C21	C	1.561474	0.130826	0.000118
C22	C	1.687724	0.133344	0.000120
C23	C	1.363826	0.310029	0.000088
C24	C	1.376725	0.415321	0.000079
N25	N	1.354547	0.136673	0.318930
N26	N	1.354585	0.136684	-0.318726
C27	C	1.354566	0.136684	0.569937
C28	C	1.354552	0.136681	0.430259
H29	H	1.488479	-0.360278	0.000024
H30	H	1.220647	-0.366361	0.000084
