data_functionalizedCrystal
_audit_creation_method	'MofGen! by Chris Wilmer'
_symmetry_space_group_name_H-M	'P1'
_symmetry_Int_Tables_number	1
_symmetry_cell_setting	triclinic
loop_
_symmetry_equiv_pos_as_xyz
  x,y,z
_cell_length_a	9.065215
_cell_length_b	14.044190
_cell_length_c	7.540329
_cell_angle_alpha	89.991504
_cell_angle_beta	89.997574
_cell_angle_gamma	89.103237
loop_
_atom_site_label
_atom_site_type_symbol
_atom_site_fract_x
_atom_site_fract_y
_atom_site_fract_z
O1	O	1.975825	0.139128	-0.147485
O2	O	2.309158	0.472461	0.185848
O3	O	2.642491	0.805795	0.519182
O4	O	1.547805	0.150544	-0.147495
O5	O	1.881138	0.483877	0.185838
O6	O	2.214472	0.817211	0.519172
O7	O	1.755385	0.006796	-0.147455
O8	O	2.088718	0.340129	0.185878
O9	O	2.422051	0.673463	0.519211
O10	O	1.768245	0.282876	-0.147525
O11	O	2.101578	0.616209	0.185808
O12	O	2.434911	0.949543	0.519142
O13	O	1.755371	0.006794	0.147510
O14	O	2.088704	0.340127	0.480843
O15	O	2.422038	0.673461	0.814176
O16	O	1.547791	0.150542	0.147470
O17	O	1.881125	0.483875	0.480803
O18	O	2.214458	0.817209	0.814137
O19	O	1.975811	0.139126	0.147480
O20	O	2.309144	0.472459	0.480813
O21	O	2.642478	0.805793	0.814147
Cu22	Cu	1.761800	0.144834	0.174408
Cu23	Cu	2.095133	0.478167	0.507741
Cu24	Cu	2.428467	0.811501	0.841074
Cu25	Cu	1.761816	0.144836	-0.174423
Cu26	Cu	2.095149	0.478169	0.158911
Cu27	Cu	2.428483	0.811503	0.492244
O28	O	1.768231	0.282874	0.147440
O29	O	2.101564	0.616207	0.480774
O30	O	2.434898	0.949541	0.814107
C31	C	1.492690	0.149446	-0.000013
C32	C	1.826023	0.482780	0.333320
C33	C	2.159357	0.816113	0.666653
C34	C	1.328483	0.146168	-0.000016
C35	C	1.661817	0.479501	0.333318
C36	C	1.995150	0.812835	0.666651
C37	C	1.749752	-0.028568	0.000032
C38	C	2.083085	0.304766	0.333366
C39	C	2.416419	0.638099	0.666699
C40	C	1.732971	-0.133938	0.000047
C41	C	2.066304	0.199396	0.333381
C42	C	2.399638	0.532729	0.666714
C43	C	1.821307	-0.383466	-0.000020
C44	C	2.154641	-0.050133	0.333313
C45	C	2.487974	0.283200	0.666647
C46	C	1.702315	-0.326858	-0.000011
C47	C	2.035649	0.006475	0.333323
C48	C	2.368982	0.339809	0.666656
C49	C	1.719376	-0.219507	0.000022
C50	C	2.052710	0.113826	0.333355
C51	C	2.386043	0.447159	0.666688
C52	C	1.804249	-0.490827	-0.000052
C53	C	2.137582	-0.157494	0.333281
C54	C	2.470915	0.175840	0.666614
C55	C	2.030926	0.140224	-0.000006
C56	C	2.364259	0.473557	0.333328
C57	C	2.697593	0.806890	0.666661
C58	C	2.195133	0.143502	-0.000015
C59	C	2.528466	0.476835	0.333318
C60	C	2.861799	0.810169	0.666652
C61	C	1.773864	0.318238	-0.000051
C62	C	2.107197	0.651571	0.333282
C63	C	2.440530	0.984904	0.666615
C64	C	1.790645	0.423608	-0.000078
C65	C	2.123978	0.756941	0.333255
C66	C	2.457312	1.090274	0.666589
N67	N	1.761799	0.144832	0.419756
N68	N	2.095132	0.478165	0.753089
N69	N	2.428466	0.811498	1.086423
N70	N	1.761827	0.144831	-0.419771
N71	N	2.095161	0.478164	-0.086438
N72	N	2.428494	0.811497	0.246895
H73	H	1.587630	-0.359017	-0.000023
H74	H	1.920963	-0.025684	0.333310
H75	H	2.254297	0.307649	0.666643
H76	H	1.935983	-0.351309	0.000001
H77	H	2.269317	-0.017976	0.333334
H78	H	2.602650	0.315358	0.666668
