data_functionalizedCrystal
_audit_creation_method	'MofGen! by Chris Wilmer'
_symmetry_space_group_name_H-M	'P1'
_symmetry_Int_Tables_number	1
_symmetry_cell_setting	triclinic
loop_
_symmetry_equiv_pos_as_xyz
  x,y,z
_cell_length_a	17.077404
_cell_length_b	29.839132
_cell_length_c	17.077396
_cell_angle_alpha	89.965873
_cell_angle_beta	90.018362
_cell_angle_gamma	89.956766
loop_
_atom_site_label
_atom_site_type_symbol
_atom_site_fract_x
_atom_site_fract_y
_atom_site_fract_z
Zn1	Zn	1.199933	0.178878	0.443788
Zn2	Zn	1.199788	0.254008	0.312509
Zn3	Zn	1.068664	0.178890	0.312539
Zn4	Zn	1.068581	0.253979	0.443735
O5	O	1.134242	0.216439	0.378143
O6	O	1.309760	0.188851	0.426383
O7	O	1.182369	0.244062	0.202666
O8	O	1.086173	0.116022	0.329984
O9	O	1.309654	0.244049	0.329933
O10	O	1.182615	0.116012	0.426412
O11	O	1.086033	0.188873	0.202688
O12	O	0.958806	0.188844	0.329932
O13	O	1.086031	0.243999	0.553589
O14	O	0.958745	0.244011	0.426322
O15	O	1.182534	0.188822	0.553628
O16	O	1.182288	0.316872	0.329882
O17	O	1.085891	0.316850	0.426293
C18	C	0.930294	0.216426	0.378125
C19	C	0.843044	0.216431	0.378136
C20	C	0.802110	0.187741	0.428434
C21	C	0.720129	0.187744	0.428438
C22	C	0.679084	0.216440	0.378147
C23	C	0.720025	0.245132	0.327843
C24	C	0.802003	0.245126	0.327836
C25	C	0.549154	0.245142	0.327863
C26	C	0.467170	0.245148	0.327870
C27	C	0.467280	0.187759	0.428464
C28	C	0.549259	0.187754	0.428457
C29	C	0.590193	0.216447	0.378155
C30	C	1.134086	0.333161	0.378096
C31	C	1.134091	0.383096	0.378102
C32	C	1.184471	0.692738	0.327983
C33	C	1.184546	0.880411	0.328000
O34	O	1.227296	0.904675	0.285373
N35	N	1.134324	0.903881	0.378155
C36	C	1.084083	0.880430	0.428313
O37	O	1.041373	0.904699	0.470980
C38	C	1.084012	0.692757	0.428299
C39	C	1.134232	0.669290	0.378135
C40	C	1.234688	0.669270	0.277823
C41	C	1.234665	0.622355	0.277816
C42	C	1.184427	0.598907	0.327969
C43	C	1.134210	0.622375	0.378128
C44	C	1.033776	0.669307	0.478460
C45	C	1.033764	0.622386	0.478454
C46	C	1.083984	0.598919	0.428290
C47	C	1.083949	0.552011	0.428273
N48	N	1.134171	0.528541	0.378118
C49	C	1.184410	0.551989	0.327966
C50	C	1.084122	0.978960	0.428316
C51	C	1.084139	1.025878	0.428319
C52	C	1.184603	1.025856	0.328007
C53	C	1.184582	0.978937	0.328001
C54	C	1.134344	0.955490	0.378161
C55	C	1.184359	0.453463	0.327955
C56	C	1.184330	0.406544	0.327950
C57	C	1.083869	0.406570	0.428265
C58	C	1.083895	0.453485	0.428267
C59	C	1.134146	0.476931	0.378109
O60	O	1.041228	0.527719	0.470885
O61	O	1.227126	0.527712	0.285318
C62	C	1.184493	0.739653	0.327989
C63	C	1.134277	0.763121	0.378149
C64	C	1.084038	0.739673	0.428301
C65	C	1.134293	0.810039	0.378152
C66	C	1.184532	0.833487	0.327999
C67	C	1.234754	0.810017	0.277844
C68	C	1.234732	0.763101	0.277837
C69	C	1.033816	0.763143	0.478456
C70	C	1.033842	0.810058	0.478459
C71	C	1.084080	0.833506	0.428306
C72	C	1.338986	0.216452	0.378161
C73	C	1.426236	0.216458	0.378169
C74	C	1.134289	0.216406	0.582887
C75	C	1.134309	0.216392	0.670137
C76	C	1.134390	1.099260	0.378190
C77	C	1.134377	1.049326	0.378167
C78	C	1.134239	0.216439	0.174195
C79	C	1.134371	0.216327	0.086946
C80	C	1.184560	0.187659	0.711149
C81	C	1.184570	0.187644	0.793129
C82	C	1.134332	0.216364	0.834096
C83	C	1.084075	0.245098	0.793079
C84	C	1.084062	0.245111	0.711100
C85	C	1.084107	0.245071	0.963949
C86	C	1.084120	0.245060	1.045934
C87	C	1.184614	0.187605	1.045978
C88	C	1.184602	0.187617	0.963999
C89	C	1.134346	0.216352	0.922988
H90	H	0.582676	0.164390	0.469414
H91	H	1.043211	0.959873	0.469164
F92	F	0.423489	0.275698	0.274360
F93	F	1.288126	0.597385	0.224433
H94	H	1.043004	0.472594	0.469117
F95	F	1.030406	0.381607	0.481640
H96	H	1.225533	0.164207	1.079374
H97	H	0.686599	0.268494	0.286891
F98	F	0.592718	0.275682	0.274327
H99	H	1.043237	1.044981	0.469160
H100	H	1.275626	0.743997	0.236989
F101	F	0.980343	0.738194	0.531839
F102	F	0.845568	0.275663	0.274302
H103	H	1.043210	0.268445	1.079287
H104	H	1.043135	0.268503	0.677709
H105	H	1.275658	0.829116	0.237006
F106	F	1.030617	0.275653	0.920303
H107	H	0.686804	0.164382	0.469397
H108	H	1.275602	0.688357	0.236983
F109	F	0.980385	0.835029	0.531852
H110	H	1.043167	0.268481	0.826441
H111	H	0.835522	0.164374	0.469390
F112	F	0.423714	0.157221	0.481999
H113	H	1.225476	0.959833	0.287153
F114	F	1.237783	0.381570	0.274556
H115	H	1.225280	0.472547	0.287113
H116	H	1.225514	0.164233	0.930646
F117	F	1.238069	1.050819	0.274629
H118	H	1.225491	0.164248	0.826517
F119	F	0.980331	0.694273	0.531860
F120	F	0.980294	0.597435	0.531845
F121	F	1.238036	0.157092	0.667555
