data_functionalizedCrystal
_audit_creation_method	'MofGen! by Chris Wilmer'
_symmetry_space_group_name_H-M	'P1'
_symmetry_Int_Tables_number	1
_symmetry_cell_setting	triclinic
loop_
_symmetry_equiv_pos_as_xyz
  x,y,z
_cell_length_a	19.121112
_cell_length_b	19.121063
_cell_length_c	18.101389
_cell_angle_alpha	92.419391
_cell_angle_beta	87.543370
_cell_angle_gamma	90.126867
loop_
_atom_site_label
_atom_site_type_symbol
_atom_site_fract_x
_atom_site_fract_y
_atom_site_fract_z
Zn1	Zn	1.059842	-0.324984	-0.480932
Zn2	Zn	1.054750	-0.442202	-0.362126
Zn3	Zn	0.942606	-0.319976	-0.351614
Zn4	Zn	0.937567	-0.437174	-0.480438
O5	O	0.998691	-0.381084	-0.418777
O6	O	1.157271	-0.344733	-0.469778
O7	O	1.039851	-0.425997	-0.257098
O8	O	0.962398	-0.222536	-0.364576
O9	O	1.153530	-0.430853	-0.382493
O10	O	1.048530	-0.226215	-0.459585
O11	O	0.957460	-0.336198	-0.249375
O12	O	0.843833	-0.331322	-0.364096
O13	O	0.953809	-0.422283	-0.584137
O14	O	0.840130	-0.417427	-0.458743
O15	O	1.043644	-0.339857	-0.584500
O16	O	1.034965	-0.539639	-0.382013
O17	O	0.948871	-0.535945	-0.468936
C18	C	0.816544	-0.373286	-0.410226
C19	C	0.738620	-0.369967	-0.406585
C20	C	0.990838	-0.563230	-0.426579
C21	C	0.987542	-0.641156	-0.429944
C22	C	0.297995	-0.348910	-0.383528
C23	C	0.371212	-0.352033	-0.386952
C24	C	0.405907	-0.398498	-0.437868
C25	C	0.367379	-0.441838	-0.485367
C26	C	0.294163	-0.438712	-0.481946
C27	C	0.626877	-0.410181	-0.450663
C28	C	0.700098	-0.413306	-0.454080
C29	C	0.703926	-0.323499	-0.355665
C30	C	0.630708	-0.320379	-0.352245
C31	C	0.592187	-0.363717	-0.399747
C32	C	0.480747	-0.401692	-0.441368
C33	C	0.517349	-0.360519	-0.396250
C34	C	1.030853	-0.679667	-0.386310
C35	C	1.027758	-0.752887	-0.389480
C36	C	0.981348	-0.787594	-0.436280
C37	C	0.938035	-0.749077	-0.479919
C38	C	0.941134	-0.675859	-0.476753
C39	C	0.969749	-1.008570	-0.448105
C40	C	0.966651	-1.081793	-0.451267
C41	C	1.056375	-1.085598	-0.360828
C42	C	1.059468	-1.012378	-0.357663
C43	C	1.016158	-0.973868	-0.401304
C44	C	0.978181	-0.862436	-0.439519
C45	C	1.019328	-0.899028	-0.398069
C46	C	1.181549	-0.388913	-0.427363
C47	C	1.259473	-0.392249	-0.431022
C48	C	0.998732	-0.381068	-0.611941
C49	C	0.998750	-0.381061	-0.694255
C50	C	1.006594	-0.198227	-0.410963
C51	C	1.009962	-0.120304	-0.407632
C52	C	0.998796	-0.380932	-0.993343
C53	C	0.942095	-0.432611	-0.961773
C54	C	0.942232	-0.432868	-0.876172
C55	C	0.998773	-0.380996	-0.844962
C56	C	1.071782	-0.404207	-0.880382
C57	C	1.071464	-0.404549	-0.966028
C58	C	0.983135	-0.305948	-0.957697
C59	C	0.981474	-0.306306	-0.871988
C60	C	0.998764	-0.381031	-0.761103
C61	C	0.998810	-0.380898	-1.077201
C62	C	0.998693	-0.381051	-0.226366
C63	C	0.998819	-0.380866	-0.144049
H64	H	0.269752	-0.311074	-0.342066
H65	H	0.735298	-0.288215	-0.316993
Br66	Br	0.423490	-0.293206	-0.322500
H67	H	0.940392	-0.890702	-0.477623
H68	H	0.395633	-0.479668	-0.526827
H69	H	1.097258	-0.984122	-0.319554
H70	H	0.728344	-0.451144	-0.495545
Br71	Br	0.583628	-0.257314	-0.283146
Br72	Br	0.959080	-0.525390	-0.846937
Br73	Br	0.896219	-0.271725	-0.988240
H74	H	0.905867	-0.644504	-0.512285
Br75	Br	0.851832	-0.408045	-0.835946
Br76	Br	1.094207	-0.496064	-1.004469
H77	H	0.900250	-0.777341	-0.518028
Br78	Br	0.241882	-0.497526	-0.546410
Br79	Br	0.910971	-0.956315	-0.507334
Br80	Br	0.851405	-0.407993	-0.990904
H81	H	1.057118	-0.870767	-0.359967
Br82	Br	0.574607	-0.468999	-0.515128
H83	H	0.928867	-1.110049	-0.489390
H84	H	0.952070	-0.487785	-0.986223
H85	H	1.114973	-0.368712	-0.987109
Br86	Br	1.093835	-0.632572	-0.322785
Br87	Br	1.143862	-0.343672	-0.846988
Br88	Br	1.086544	-0.805150	-0.330264
Br89	Br	1.115153	-1.137865	-0.301607
Br90	Br	1.095031	-0.494782	-0.849755
H91	H	0.927761	-0.288860	-0.848465
H92	H	1.020010	-0.265504	-0.850498
H93	H	0.489098	-0.322684	-0.354798
H94	H	0.509003	-0.439526	-0.482822
Br95	Br	1.052033	-0.241707	-0.991691
