data_functionalizedCrystal
_audit_creation_method	'MofGen! by Chris Wilmer'
_symmetry_space_group_name_H-M	'P1'
_symmetry_Int_Tables_number	1
_symmetry_cell_setting	triclinic
loop_
_symmetry_equiv_pos_as_xyz
  x,y,z
_cell_length_a	8.597213
_cell_length_b	8.634740
_cell_length_c	8.140239
_cell_angle_alpha	89.998579
_cell_angle_beta	82.295622
_cell_angle_gamma	92.879744
loop_
_atom_site_label
_atom_site_type_symbol
_atom_site_fract_x
_atom_site_fract_y
_atom_site_fract_z
O1	O	2.117343	0.230680	-0.436293
O2	O	1.663080	0.248377	-0.371999
O3	O	1.868708	0.014728	-0.401099
O4	O	1.911715	0.464328	-0.407193
O5	O	1.868695	0.014725	-0.127870
O6	O	1.663066	0.248374	-0.098770
O7	O	2.117330	0.230677	-0.163064
Zn8	Zn	1.890196	0.239525	-0.087536
Zn9	Zn	1.890214	0.239529	-0.447527
O10	O	1.911701	0.464325	-0.133964
C11	C	1.604313	0.246475	-0.227069
C12	C	1.429225	0.240793	-0.202288
C13	C	1.858959	-0.042870	-0.263108
C14	C	1.829910	-0.214492	-0.259004
C15	C	2.176096	0.232579	-0.307998
C16	C	2.351184	0.238260	-0.332789
C17	C	1.921450	0.521924	-0.271959
C18	C	1.950499	0.693545	-0.276074
N19	N	1.890195	0.239521	0.158147
N20	N	1.890225	0.239520	-0.693211
H21	H	1.418318	0.240451	-0.463469
H22	H	1.362084	0.238620	-0.071599
H23	H	2.075963	-0.253893	-0.293888
H24	H	1.704438	-0.267060	-0.241256
