data_functionalizedCrystal
_audit_creation_method	'MofGen! by Chris Wilmer'
_symmetry_space_group_name_H-M	'P1'
_symmetry_Int_Tables_number	1
_symmetry_cell_setting	triclinic
loop_
_symmetry_equiv_pos_as_xyz
  x,y,z
_cell_length_a	23.096457
_cell_length_b	14.628931
_cell_length_c	14.628931
_cell_angle_alpha	60.000000
_cell_angle_beta	89.998385
_cell_angle_gamma	59.999721
loop_
_atom_site_label
_atom_site_type_symbol
_atom_site_fract_x
_atom_site_fract_y
_atom_site_fract_z
Zr1	Zr	0.557766	1.000593	-0.119994
O2	O	0.465318	1.191296	-0.265950
O3	O	0.586106	0.809888	-0.075251
O4	O	0.586106	1.000593	-0.265957
O5	O	0.465317	1.000591	0.075187
O6	O	0.681387	1.000596	-0.265962
O7	O	0.465317	1.000591	-0.075244
O8	O	0.681386	0.659459	0.075175
O9	O	0.465318	1.341728	-0.265950
O10	O	0.669299	0.888330	-0.056173
O11	O	0.598193	0.888329	0.056097
O12	O	0.598193	1.112860	-0.168434
O13	O	0.527086	1.112858	-0.056165
Zr14	Zr	0.709727	1.000598	0.119918
Zr15	Zr	0.709727	1.000597	-0.120003
Zr16	Zr	0.557765	1.000594	0.119927
Zr17	Zr	0.557766	1.240514	-0.119995
Zr18	Zr	0.709726	0.760676	0.119918
O19	O	0.681386	1.191302	0.075175
O20	O	0.681387	1.191301	-0.265962
O21	O	0.465317	1.191297	0.075187
O22	O	0.802175	0.809895	0.265874
O23	O	0.802175	0.809894	-0.075263
O24	O	0.586106	0.809889	0.265886
O25	O	0.802175	1.000600	-0.075264
O26	O	0.681386	1.000597	0.265880
O27	O	0.586106	1.000595	0.265886
O28	O	0.802175	1.000600	0.075168
O29	O	0.586107	1.341731	-0.265957
O30	O	0.681386	0.659460	0.265881
O31	O	0.802175	0.659463	0.265874
O32	O	0.802175	0.659463	0.075169
O33	O	0.465317	1.341728	-0.075245
O34	O	0.586106	1.341731	-0.075252
O35	O	0.669299	0.888331	0.168358
O36	O	0.740406	0.888333	0.056089
O37	O	0.669300	1.112862	-0.056173
O38	O	0.598193	1.112860	0.056097
C39	C	0.633746	0.700490	-0.000038
C40	C	0.633746	0.598637	-0.000038
C41	C	0.669020	0.553229	-0.055731
C42	C	0.669020	0.447958	-0.055732
C43	C	0.443666	1.000590	-0.000027
C44	C	0.379154	1.000589	-0.000023
C45	C	0.385965	0.883390	0.058565
C46	C	0.325350	0.883388	0.058570
C47	C	0.257924	1.000592	-0.000036
C48	C	0.251115	1.117805	-0.058627
C49	C	0.311730	1.117804	-0.058621
N50	N	0.135128	1.087832	-0.095413
N51	N	0.077549	1.087826	-0.095417
C52	C	0.075291	1.000603	-0.000055
N53	N	0.132794	0.913368	0.095309
N54	N	0.190380	0.913371	0.095310
C55	C	0.192192	1.000606	-0.000048
C56	C	0.016378	0.883395	0.058544
C57	C	-0.044240	0.883398	0.058552
C58	C	-0.118474	1.117818	-0.058656
C59	C	-0.057856	1.117812	-0.058653
C60	C	0.009568	1.000596	-0.000056
C61	C	0.823826	1.000600	-0.000049
C62	C	0.888338	1.000602	-0.000053
C63	C	0.633746	1.000594	-0.300143
C64	C	0.633747	1.000594	-0.401996
C65	C	0.633746	1.300701	-0.000039
C66	C	0.633747	1.402554	-0.000039
C67	C	0.598473	1.111976	-0.503094
C68	C	0.598472	1.111978	-0.608366
C69	C	0.633746	1.000596	0.300067
C70	C	0.633746	1.000596	0.401920
C71	C	0.823826	0.700495	-0.000049
C72	C	0.888338	0.598644	-0.000052
C73	C	0.633746	0.700491	0.300067
C74	C	0.633745	0.598638	0.401920
C75	C	0.823826	0.700496	0.300056
C76	C	0.888337	0.598645	0.401905
C77	C	0.443666	1.300695	-0.300132
C78	C	0.379155	1.402546	-0.401982
C79	C	0.443666	1.300696	-0.000028
C80	C	0.379155	1.402547	-0.000024
C81	C	0.633747	1.300700	-0.300143
C82	C	0.633747	1.402552	-0.401996
C83	C	0.881516	0.550812	-0.058663
C84	C	0.942125	0.455125	-0.058689
C85	C	1.009556	0.407265	-0.000097
C86	C	1.016376	0.455107	0.058516
C87	C	0.955767	0.550798	0.058535
C88	C	0.955756	0.550816	0.391131
C89	C	1.016377	0.455129	0.486820
C90	C	1.009578	0.407267	0.593282
C91	C	0.942152	0.455106	0.604054
C92	C	0.881533	0.550798	0.508366
C93	C	0.311736	1.450387	-0.391207
C94	C	0.251115	1.546103	-0.486896
C95	C	0.257915	1.593970	-0.593359
C96	C	0.325340	1.546125	-0.604130
C97	C	0.385960	1.450417	-0.508442
C98	C	0.385976	1.450388	0.058577
C99	C	0.325367	1.546102	0.058576
C100	C	0.257936	1.593965	-0.000019
C101	C	0.251116	1.546119	-0.058628
C102	C	0.311725	1.450414	-0.058633
C103	C	0.669019	0.553230	0.503019
C104	C	0.669020	0.447960	0.608290
H105	H	0.603549	0.559576	0.047645
C106	C	-0.036742	0.754463	0.123000
N107	N	-0.031095	0.657347	0.171538
H108	H	0.699216	0.408914	-0.103418
H109	H	0.663947	0.905238	-0.393377
C110	C	0.709820	0.395207	0.725456
N111	N	0.740551	0.355472	0.813710
C112	C	0.460145	1.397763	0.123036
N113	N	0.516007	1.358138	0.171583
C114	C	0.709819	0.605991	0.514669
N115	N	0.740552	0.645726	0.523447
H116	H	0.306161	1.411465	-0.106350
H117	H	-0.063406	1.213247	-0.106370
H118	H	1.058902	0.329346	-0.000120
C119	C	1.090557	0.402437	0.122973
N120	N	1.146431	0.362756	0.171529
C121	C	0.557681	1.240803	-0.514745
N122	N	0.526957	1.337839	-0.523523
H123	H	0.330934	1.585041	0.106306
C124	C	0.304240	1.397759	-0.274108
N125	N	0.298588	1.358134	-0.185911
C126	C	0.807348	0.603447	-0.123131
N127	N	0.751486	0.643093	-0.171699
C128	C	0.674585	0.871762	-0.480918
N129	N	0.705360	0.774724	-0.392664
C130	C	0.934607	0.402507	-0.123159
N131	N	0.928942	0.362874	-0.171714
H132	H	0.826640	0.589728	0.517154
H133	H	1.058944	0.329349	0.671189
H134	H	0.196221	1.585042	-0.478104
H135	H	0.603549	0.441593	0.511280
C136	C	1.090538	0.402512	0.474946
N137	N	1.146395	0.362881	0.465999
H138	H	0.330896	0.787948	0.106281
C139	C	0.592946	0.545876	0.390270
N140	N	0.562216	0.506136	0.381492
C141	C	0.191224	1.699241	-0.698608
N142	N	0.140990	1.778527	-0.777878
C143	C	0.191271	1.699238	0.000003
N144	N	0.141061	1.778526	0.000029
C145	C	0.176945	1.246729	-0.123098
N146	N	0.121079	1.343839	-0.171658
C147	C	0.332807	1.598780	-0.721250
N148	N	0.338429	1.638435	-0.809467
H149	H	0.196206	1.585105	-0.106335
C150	C	0.592946	0.455299	0.064382
N151	N	0.562216	0.495033	0.112905
H152	H	0.699222	0.592280	-0.103407
H153	H	0.306179	1.213244	-0.106328
C154	C	0.460129	0.754449	0.123033
N155	N	0.515991	0.657330	0.171594
H156	H	0.071279	0.787951	0.106281
H157	H	0.440853	1.411465	-0.517228
H158	H	-0.173373	1.213247	-0.106375
H159	H	0.568269	1.207336	-0.695094
H160	H	0.961332	0.589730	0.106269
H161	H	0.961305	0.589771	0.304453
H162	H	0.936627	0.416123	0.690748
