data_functionalizedCrystal
_audit_creation_method	'MofGen! by Chris Wilmer'
_symmetry_space_group_name_H-M	'P1'
_symmetry_Int_Tables_number	1
_symmetry_cell_setting	triclinic
loop_
_symmetry_equiv_pos_as_xyz
  x,y,z
_cell_length_a	11.169417
_cell_length_b	12.759400
_cell_length_c	11.169409
_cell_angle_alpha	89.966891
_cell_angle_beta	89.980176
_cell_angle_gamma	90.015523
loop_
_atom_site_label
_atom_site_type_symbol
_atom_site_fract_x
_atom_site_fract_y
_atom_site_fract_z
Zn1	Zn	1.834926	-0.418157	-0.678536
Zn2	Zn	1.834801	-0.593882	-0.477851
Zn3	Zn	1.634212	-0.418221	-0.477871
Zn4	Zn	1.634205	-0.593797	-0.678495
O5	O	1.734536	-0.506014	-0.578188
O6	O	2.002859	-0.441476	-0.651924
O7	O	1.808143	-0.570643	-0.309903
O8	O	1.660893	-0.271191	-0.504515
O9	O	2.002767	-0.570581	-0.504481
O10	O	1.808357	-0.271144	-0.651943
O11	O	1.660771	-0.441585	-0.309918
O12	O	1.466262	-0.441502	-0.504475
O13	O	1.660880	-0.570435	-0.846451
O14	O	1.466256	-0.570497	-0.651873
O15	O	1.808350	-0.441393	-0.846481
O16	O	1.808135	-0.740892	-0.504441
O17	O	1.660758	-0.740829	-0.651854
C18	C	1.422711	-0.505998	-0.578173
C19	C	1.289311	-0.506017	-0.578195
C20	C	1.734465	-0.778981	-0.578167
C21	C	1.734544	-0.895758	-0.578198
C22	C	1.811295	-0.950506	-0.655029
C23	C	1.811363	-1.060230	-0.655062
C24	C	1.657925	-1.060449	-0.501422
C25	C	1.657852	-0.950727	-0.501396
C26	C	1.854272	-1.210051	-0.796677
C27	C	1.931042	-1.264802	-0.873497
C28	C	2.048117	-1.229092	-0.892015
C29	C	2.088445	-1.138632	-0.833695
C30	C	2.011682	-1.083886	-0.756865
C31	C	1.894591	-1.119595	-0.738370
C32	C	1.614955	-0.800904	-0.359779
C33	C	1.538197	-0.746156	-0.282943
C34	C	1.421120	-0.781864	-0.264413
C35	C	1.380796	-0.872328	-0.322712
C36	C	1.457554	-0.927076	-0.399549
C37	C	1.574630	-0.891360	-0.418080
C38	C	2.047578	-0.506031	-0.578204
C39	C	2.180978	-0.506038	-0.578211
C40	C	1.734628	-0.505897	-0.891231
C41	C	1.734667	-0.505848	-1.024631
C42	C	1.734640	-0.231981	-0.578236
C43	C	1.734684	-0.115204	-0.578256
C44	C	1.734513	-0.506054	-0.266363
C45	C	1.734707	-0.505808	-0.132964
H46	H	1.873741	-0.905753	-0.717568
H47	H	2.183785	-1.109570	-0.848767
C48	C	1.337811	-0.722590	-0.180803
C49	C	1.301841	-0.788805	-0.087475
C50	C	1.225111	-0.734238	-0.010426
H51	H	1.269411	-0.699629	-0.223980
H52	H	1.378575	-0.663623	-0.148648
H53	H	1.261077	-0.847753	-0.119628
H54	H	1.370215	-0.811768	-0.044268
H55	H	1.265874	-0.675271	0.021729
H56	H	1.156718	-0.711280	-0.053614
H57	H	1.200704	-0.779154	0.052911
C58	C	1.727127	-1.248853	-0.776834
C59	C	1.666056	-1.250308	-0.886270
C60	C	1.548933	-1.286067	-0.868038
H61	H	1.687023	-1.203355	-0.722798
H62	H	1.729212	-1.317636	-0.744284
H63	H	1.663965	-1.181536	-0.918804
H64	H	1.706123	-1.295810	-0.940322
H65	H	1.551018	-1.354851	-0.835487
H66	H	1.508841	-1.240566	-0.813999
H67	H	1.507485	-1.287069	-0.942287
C68	C	2.131665	-1.288413	-0.975336
C69	C	2.242840	-1.237794	-0.979050
C70	C	2.319831	-1.292418	-1.055786
H71	H	2.098240	-1.290261	-1.053495
H72	H	2.141918	-1.357958	-0.946694
H73	H	2.232585	-1.168267	-1.007697
H74	H	2.276300	-1.235945	-0.900911
H75	H	2.330084	-1.361964	-1.027144
H76	H	2.286395	-1.294264	-1.133940
H77	H	2.395275	-1.258087	-1.058308
C78	C	2.055672	-0.985784	-0.693486
C79	C	2.154115	-1.010990	-0.621448
C80	C	2.194683	-0.920638	-0.563065
H81	H	1.993317	-0.958211	-0.644994
H82	H	2.078792	-0.934970	-0.751249
H83	H	2.130991	-1.061785	-0.563692
H84	H	2.216493	-1.038549	-0.669911
H85	H	2.217803	-0.869824	-0.620828
H86	H	2.132320	-0.893072	-0.514579
H87	H	2.261487	-0.937726	-0.514189
H88	H	1.898195	-1.338455	-0.920982
H89	H	1.285464	-0.901405	-0.307622
C90	C	1.581739	-0.647894	-0.219564
C91	C	1.489456	-0.607588	-0.148319
C92	C	1.529511	-0.517057	-0.089944
H93	H	1.604712	-0.597021	-0.277296
H94	H	1.648531	-0.664704	-0.170541
H95	H	1.422686	-0.590774	-0.197339
H96	H	1.466473	-0.658433	-0.090567
H97	H	1.596303	-0.533867	-0.040921
H98	H	1.552483	-0.466192	-0.147684
H99	H	1.466908	-0.489703	-0.041590
C100	C	1.574805	-1.120321	-0.418075
C101	C	1.591319	-1.228130	-0.434514
C102	C	1.514783	-1.283314	-0.357739
H103	H	1.494094	-1.102517	-0.435487
H104	H	1.592413	-1.102439	-0.337422
H105	H	1.573702	-1.246005	-0.515149
H106	H	1.672013	-1.245965	-0.417093
H107	H	1.532391	-1.265431	-0.277086
H108	H	1.434077	-1.265501	-0.375158
H109	H	1.525985	-1.356467	-0.368875
C110	C	1.742142	-0.762209	-0.379663
C111	C	1.803246	-0.760820	-0.270245
C112	C	1.920417	-0.725197	-0.288512
H113	H	1.740187	-0.693434	-0.412207
H114	H	1.782139	-0.807777	-0.433724
H115	H	1.763259	-0.715252	-0.216203
H116	H	1.805234	-0.829583	-0.237684
H117	H	1.960414	-0.770766	-0.342572
H118	H	1.918450	-0.656424	-0.321057
H119	H	1.961894	-0.724259	-0.214277
H120	H	1.424712	-1.000736	-0.447019
