data_functionalizedCrystal
_audit_creation_method	'MofGen! by Chris Wilmer'
_symmetry_space_group_name_H-M	'P1'
_symmetry_Int_Tables_number	1
_symmetry_cell_setting	triclinic
loop_
_symmetry_equiv_pos_as_xyz
  x,y,z
_cell_length_a	9.065218
_cell_length_b	14.472310
_cell_length_c	9.065218
_cell_angle_alpha	89.999097
_cell_angle_beta	85.015885
_cell_angle_gamma	90.013153
loop_
_atom_site_label
_atom_site_type_symbol
_atom_site_fract_x
_atom_site_fract_y
_atom_site_fract_z
O1	O	1.960421	0.076839	0.216347
O2	O	1.531136	0.076840	0.234094
O3	O	1.754652	0.076838	0.010578
O4	O	1.736905	0.076842	0.439863
O5	O	1.754593	-0.076844	0.010590
O6	O	1.531078	-0.076842	0.234106
O7	O	1.960363	-0.076843	0.216359
Cu8	Cu	1.745715	-0.090875	0.225234
Cu9	Cu	1.745784	0.090872	0.225219
O10	O	1.736847	-0.076840	0.439875
C11	C	1.476120	-0.000001	0.232394
C12	C	1.312277	-0.000000	0.227294
N13	N	1.745677	-0.218706	0.225243
C14	C	1.745782	-0.592797	0.225213
C15	C	1.625771	-0.553630	0.344400
C16	C	1.626057	-0.446542	0.344844
C17	C	1.745729	-0.407206	0.225228
C18	C	1.900138	-0.446043	0.260913
C19	C	1.899466	-0.553164	0.261762
C20	C	1.712752	-0.553327	0.070002
C21	C	1.709234	-0.446200	0.070987
C22	C	1.745708	-0.302318	0.225234
C23	C	1.745812	-0.697685	0.225211
C24	C	2.015378	0.000000	0.218059
C25	C	2.179221	0.000006	0.223158
C26	C	1.752917	-0.000002	-0.044403
C27	C	1.747817	0.000003	-0.208245
N28	N	1.745833	0.218703	0.225198
C29	C	1.738582	0.000001	0.494855
C30	C	1.743681	0.000003	0.658698
H31	H	1.510695	-0.579417	0.323160
O32	O	1.935510	-0.414086	0.394448
C33	C	2.074465	-0.449640	0.424827
H34	H	2.140165	-0.469604	0.316585
H35	H	2.057688	-0.513234	0.498602
C36	C	2.079471	-0.351085	0.637516
C37	C	2.160170	-0.375597	0.504570
H38	H	2.132337	-0.305415	0.686712
H39	H	1.985852	-0.327134	0.617053
H40	H	2.065496	-0.404087	0.698978
H41	H	2.174128	-0.322599	0.443104
H42	H	2.253795	-0.399538	0.525025
H43	H	1.602489	-0.580395	0.036199
O44	O	1.489296	-0.415055	0.319148
C45	C	1.489474	-0.317632	0.319621
H46	H	1.607479	-0.291415	0.293731
H47	H	1.444248	-0.291557	0.433331
C48	C	1.246422	-0.314052	0.233306
C49	C	1.391356	-0.281851	0.201495
H50	H	1.185893	-0.291979	0.160446
H51	H	1.246299	-0.379687	0.232993
H52	H	1.208754	-0.292320	0.328067
H53	H	1.429028	-0.303593	0.106745
H54	H	1.391483	-0.216218	0.201790
H55	H	1.595638	-0.420818	0.043954
H56	H	1.800246	-0.578655	-0.018717
H57	H	1.646796	-0.580538	0.458886
H58	H	1.928259	-0.578139	0.375020
O59	O	1.651300	-0.416064	0.482307
C60	C	1.538714	-0.448902	0.586243
H61	H	1.486244	-0.513276	0.540580
H62	H	1.450643	-0.393190	0.608154
C63	C	1.670024	-0.394006	0.787943
C64	C	1.605588	-0.473076	0.731864
H65	H	1.711271	-0.408914	0.877772
H66	H	1.745874	-0.371879	0.717920
H67	H	1.596620	-0.347587	0.806190
H68	H	1.678995	-0.519489	0.713601
H69	H	1.529752	-0.495212	0.801888
H70	H	1.991668	-0.579071	0.178485
H71	H	1.991661	-0.420560	0.176498
H72	H	1.790809	-0.419427	-0.022021
