data_functionalizedCrystal
_audit_creation_method	'MofGen! by Chris Wilmer'
_symmetry_space_group_name_H-M	'P1'
_symmetry_Int_Tables_number	1
_symmetry_cell_setting	triclinic
loop_
_symmetry_equiv_pos_as_xyz
  x,y,z
_cell_length_a	12.837943
_cell_length_b	12.837942
_cell_length_c	11.295657
_cell_angle_alpha	94.164587
_cell_angle_beta	85.838772
_cell_angle_gamma	85.171060
loop_
_atom_site_label
_atom_site_type_symbol
_atom_site_fract_x
_atom_site_fract_y
_atom_site_fract_z
O1	O	1.395428	-0.265227	0.099000
O2	O	1.092294	-0.251783	0.099007
O3	O	1.237140	-0.106939	0.098996
O4	O	1.250582	-0.410071	0.099011
O5	O	1.250944	-0.120763	-0.099048
O6	O	1.106098	-0.265607	-0.099038
O7	O	1.409232	-0.279051	-0.099045
Cu8	Cu	1.258926	-0.273591	-0.117124
Cu9	Cu	1.242601	-0.257243	0.117086
O10	O	1.264386	-0.423895	-0.099034
C11	C	1.060127	-0.254154	-0.000014
C12	C	0.943712	-0.240609	-0.000012
C13	C	1.239501	-0.074781	-0.000025
C14	C	1.225956	0.041634	-0.000023
N15	N	1.270415	-0.285090	-0.281855
C16	C	0.718838	-0.403439	-0.000021
C17	C	0.609456	-0.390717	-0.000020
C18	C	0.615563	-0.202446	-0.000016
C19	C	0.724945	-0.215168	-0.000017
C20	C	0.776579	-0.315667	-0.000018
C21	C	0.885963	-0.328387	-0.000011
C22	C	0.892068	-0.140117	-0.000016
C23	C	0.782686	-0.127396	-0.000015
C24	C	1.441399	-0.276680	-0.000021
C25	C	1.557814	-0.290224	-0.000015
C26	C	1.262026	-0.456052	-0.000010
C27	C	1.275570	-0.572467	-0.000004
C28	C	1.388784	0.266509	-0.000002
C29	C	1.376062	0.375892	0.000000
C30	C	1.187792	0.369784	-0.000008
C31	C	1.200513	0.260402	-0.000010
C32	C	1.301013	0.208768	-0.000009
C33	C	1.313734	0.099383	-0.000020
C34	C	1.125464	0.093278	-0.000019
C35	C	1.112742	0.202660	-0.000017
C36	C	1.148295	-0.162895	-0.531200
C37	C	1.157002	-0.171593	-0.655860
C38	C	1.296531	-0.311189	-0.655837
C39	C	1.287824	-0.302491	-0.531177
C40	C	1.213704	-0.228340	-0.468863
C41	C	1.205003	-0.219637	-0.344201
C42	C	1.344526	-0.359238	-0.344180
C43	C	1.353233	-0.367936	-0.468840
N44	N	1.231118	-0.245737	0.281818
H45	H	0.928001	-0.410219	-0.000014
H46	H	1.144653	-0.159259	-0.293467
Br47	Br	1.047734	-0.062239	-0.446625
Br48	Br	0.712603	0.008989	-0.000020
Br49	Br	1.450124	0.029308	-0.000031
H50	H	1.470615	0.224468	-0.000013
Br51	Br	0.970435	-0.020989	0.000013
Br52	Br	1.068223	-0.082775	-0.740458
H53	H	1.356871	-0.371563	-0.706594
Br54	Br	1.453810	-0.468572	-0.553419
Br55	Br	1.495185	0.454254	0.000018
Br56	Br	0.976356	0.272745	-0.000003
Br57	Br	1.051408	0.439879	0.000034
Br58	Br	1.433313	-0.448052	-0.259574
H59	H	0.760879	-0.485269	-0.000020
H60	H	1.053994	0.046252	-0.000034
H61	H	0.562447	-0.462191	-0.000025
H62	H	0.573510	-0.120631	-0.000114
