data_functionalizedCrystal
_audit_creation_method	'MofGen! by Chris Wilmer'
_symmetry_space_group_name_H-M	'P1'
_symmetry_Int_Tables_number	1
_symmetry_cell_setting	triclinic
loop_
_symmetry_equiv_pos_as_xyz
  x,y,z
_cell_length_a	9.065215
_cell_length_b	10.967829
_cell_length_c	10.065875
_cell_angle_alpha	93.078793
_cell_angle_beta	98.877767
_cell_angle_gamma	84.859043
loop_
_atom_site_label
_atom_site_type_symbol
_atom_site_fract_x
_atom_site_fract_y
_atom_site_fract_z
O1	O	1.987814	0.158913	0.150849
O2	O	2.487814	0.658913	0.650849
O3	O	1.559087	0.173383	0.154257
O4	O	2.059087	0.673383	0.654257
O5	O	1.775590	-0.008827	0.111396
O6	O	2.275590	0.491173	0.611396
O7	O	1.771311	0.341123	0.193710
O8	O	2.271311	0.841123	0.693710
O9	O	1.734314	0.026060	-0.107387
O10	O	2.234314	0.526060	0.392613
O11	O	1.517810	0.208269	-0.064525
O12	O	2.017810	0.708269	0.435475
O13	O	1.946538	0.193800	-0.067934
O14	O	2.446538	0.693800	0.432066
Zn15	Zn	1.725621	0.206573	-0.100966
Zn16	Zn	2.225621	0.706573	0.399034
Zn17	Zn	1.780004	0.160609	0.187289
Zn18	Zn	2.280004	0.660609	0.687289
O19	O	1.730034	0.376009	-0.025072
O20	O	2.230034	0.876009	0.474928
C21	C	1.483409	0.189436	0.044540
C22	C	1.983409	0.689436	0.544540
C23	C	1.319406	0.185280	0.043565
C24	C	1.819406	0.685280	0.543565
C25	C	1.751522	-0.036209	-0.008536
C26	C	2.251522	0.463791	0.491464
C27	C	1.741284	-0.169773	-0.039944
C28	C	2.241284	0.330227	0.460056
C29	C	1.758103	-0.247387	0.059390
C30	C	2.258103	0.252613	0.559390
C31	C	1.747522	-0.385433	0.026931
C32	C	2.247522	0.114567	0.526931
C33	C	2.022217	0.177746	0.041786
C34	C	2.522217	0.677746	0.541786
C35	C	2.186221	0.181901	0.042770
C36	C	2.686221	0.681901	0.542770
C37	C	1.754103	0.403391	0.094863
C38	C	2.254103	0.903391	0.594863
C39	C	1.764343	0.536954	0.126279
C40	C	2.264343	1.036954	0.626279
N41	N	1.688516	0.237942	-0.297692
N42	N	2.188516	0.737942	0.202308
C43	C	1.767085	0.171516	-0.381097
C44	C	2.267085	0.671516	0.118903
C45	C	1.738540	0.195667	-0.532583
C46	C	2.238540	0.695667	-0.032583
N47	N	1.817120	0.129231	0.384014
N48	N	2.317120	0.629231	0.884014
H49	H	1.725279	-0.421179	-0.082150
H50	H	2.225279	0.078821	0.417850
O51	O	1.711855	-0.217113	-0.184434
O52	O	2.211855	0.282887	0.315566
H53	H	1.708182	-0.318113	-0.187255
H54	H	2.208182	0.181887	0.312745
O55	O	1.793789	-0.415701	0.270772
O56	O	2.293789	0.084299	0.770772
H57	H	1.702773	-0.439209	0.324604
H58	H	2.202773	0.060791	0.824604
O59	O	1.884175	0.072494	-0.327138
O60	O	2.384175	0.572494	0.172862
H61	H	1.937379	0.027502	-0.411278
H62	H	2.437379	0.527502	0.088722
O63	O	1.621441	0.294697	-0.586524
O64	O	2.121441	0.794697	-0.086524
H65	H	1.617405	0.298134	-0.697039
H66	H	2.117405	0.798134	-0.197039
O67	O	1.787538	-0.200041	0.203877
O68	O	2.287538	0.299959	0.703877
H69	H	1.896447	-0.242812	0.253196
H70	H	2.396447	0.257188	0.753196
H71	H	1.905519	0.054472	-0.575251
H72	H	2.405519	0.554472	-0.075251
H73	H	1.600112	0.312688	-0.338436
H74	H	2.100112	0.812688	0.161564
