data_functionalizedCrystal
_audit_creation_method	'MofGen! by Chris Wilmer'
_symmetry_space_group_name_H-M	'P1'
_symmetry_Int_Tables_number	1
_symmetry_cell_setting	triclinic
loop_
_symmetry_equiv_pos_as_xyz
  x,y,z
_cell_length_a	18.215405
_cell_length_b	12.759401
_cell_length_c	12.759393
_cell_angle_alpha	89.979880
_cell_angle_beta	90.037569
_cell_angle_gamma	89.979145
loop_
_atom_site_label
_atom_site_type_symbol
_atom_site_fract_x
_atom_site_fract_y
_atom_site_fract_z
Zn1	Zn	-0.293020	-1.606181	0.593983
Zn2	Zn	-0.416106	-1.606044	0.418285
Zn3	Zn	-0.293050	-1.430483	0.418317
Zn4	Zn	-0.416041	-1.430440	0.593921
O5	O	-0.354554	-1.518287	0.506127
O6	O	-0.309363	-1.753184	0.570688
O7	O	-0.399822	-1.582716	0.271268
O8	O	-0.190061	-1.453865	0.441659
O9	O	-0.399794	-1.753083	0.441604
O10	O	-0.190040	-1.582949	0.570720
O11	O	-0.309413	-1.453732	0.271292
O12	O	-0.309349	-1.283456	0.441599
O13	O	-0.399682	-1.453792	0.740950
O14	O	-0.399711	-1.283425	0.570615
O15	O	-0.309299	-1.582908	0.740996
O16	O	-0.519082	-1.582675	0.441544
O17	O	-0.519034	-1.453659	0.570583
C18	C	-0.354527	-1.245320	0.506105
C19	C	-0.354533	-1.128543	0.506120
C20	C	-0.307532	-1.073726	0.573437
C21	C	-0.307542	-0.964002	0.573441
C22	C	-0.401559	-0.963921	0.438807
C23	C	-0.401545	-1.073643	0.438799
C24	C	-0.253254	-1.073772	0.651170
C25	C	-0.253264	-0.964048	0.651174
C26	C	-0.545760	-1.518176	0.506076
C27	C	-0.627559	-1.518225	0.506089
C28	C	-0.815754	-1.585561	0.439022
C29	C	-0.892613	-1.585608	0.439048
C30	C	-0.892602	-1.451148	0.573306
C31	C	-0.815745	-1.451107	0.573285
C32	C	-0.777323	-1.518312	0.506137
C33	C	-0.931039	-1.518400	0.506184
C34	C	-1.014372	-1.518450	0.506212
C35	C	-0.693984	-1.518263	0.506110
C36	C	-0.162601	-1.518427	0.506200
C37	C	-0.080802	-1.518487	0.506232
C38	C	-0.354480	-1.518361	0.780160
C39	C	-0.354448	-1.518392	0.896937
C40	C	-0.354573	-0.792320	0.506142
C41	C	-0.354557	-0.909097	0.506132
C42	C	-0.354575	-1.518274	0.233159
C43	C	-0.354399	-1.518447	0.116383
C44	C	-0.307381	-1.585632	0.951824
C45	C	-0.307355	-1.585657	1.061548
C46	C	-0.401468	-1.451199	1.061488
C47	C	-0.401491	-1.451170	0.951766
C48	C	-0.253048	-1.663263	0.951860
C49	C	-0.253021	-1.663288	1.061584
H50	H	-0.199097	-0.930021	0.622181
H51	H	-0.273484	-1.740530	0.917823
H52	H	-0.273732	-1.107833	0.728406
H53	H	-0.198867	-1.634188	1.095639
H54	H	-0.439836	-0.919209	0.383997
H55	H	-0.784452	-1.396345	0.627943
O56	O	-0.273248	-1.771063	1.101035
H57	H	-0.273204	-1.771018	1.188026
H58	H	-0.439814	-1.396413	0.907081
H59	H	-0.923900	-1.640370	0.384397
H60	H	-0.439811	-1.118271	0.383973
H61	H	-0.196234	-1.103554	0.629526
H62	H	-0.268600	-0.934299	0.732506
H63	H	-0.439767	-1.396467	1.106143
O64	O	-0.774309	-1.658054	0.366615
H65	H	-0.813948	-1.704833	0.319960
H66	H	-0.923895	-1.396430	0.627974
H67	H	-0.196054	-1.641509	0.922112
