data_functionalizedCrystal
_audit_creation_method	'MofGen! by Chris Wilmer'
_symmetry_space_group_name_H-M	'P1'
_symmetry_Int_Tables_number	1
_symmetry_cell_setting	triclinic
loop_
_symmetry_equiv_pos_as_xyz
  x,y,z
_cell_length_a	12.759401
_cell_length_b	16.120484
_cell_length_c	12.759401
_cell_angle_alpha	87.116896
_cell_angle_beta	90.002178
_cell_angle_gamma	92.925560
loop_
_atom_site_label
_atom_site_type_symbol
_atom_site_fract_x
_atom_site_fract_y
_atom_site_fract_z
Zn1	Zn	1.584785	-0.332033	0.615157
Zn2	Zn	1.575787	-0.471422	0.448367
Zn3	Zn	1.409138	-0.332025	0.439496
Zn4	Zn	1.400134	-0.471409	0.624007
O5	O	1.492461	-0.401722	0.531757
O6	O	1.730612	-0.350531	0.593040
O7	O	1.553683	-0.452933	0.300169
O8	O	1.439971	-0.215359	0.455381
O9	O	1.724001	-0.452940	0.470500
O10	O	1.569019	-0.215364	0.584438
O11	O	1.431246	-0.350518	0.293652
O12	O	1.260923	-0.350506	0.463963
O13	O	1.424626	-0.452918	0.769854
O14	O	1.254308	-0.452911	0.599523
O15	O	1.560288	-0.350519	0.763352
O16	O	1.544953	-0.588087	0.479082
O17	O	1.415901	-0.588078	0.608125
C18	C	1.219495	-0.401707	0.531741
C19	C	1.102717	-0.401720	0.531761
C20	C	1.478502	-0.618333	0.545549
C21	C	1.472627	-0.711000	0.551485
C22	C	1.044433	-0.455128	0.602241
C23	C	0.934708	-0.455138	0.602253
C24	C	0.941562	-0.348332	0.461296
C25	C	1.051285	-0.348317	0.461289
C26	C	1.040475	-0.516794	0.683619
C27	C	0.930750	-0.516805	0.683631
C28	C	1.461906	-0.880664	0.562344
C29	C	1.523205	-0.921939	0.501187
C30	C	1.517239	-1.016346	0.507229
C31	C	1.467869	-0.786249	0.556303
C32	C	1.766493	-0.401738	0.531772
C33	C	1.883269	-0.401745	0.531779
C34	C	1.492457	-0.401718	0.805790
C35	C	1.492455	-0.401716	0.922566
C36	C	1.506503	-0.184265	0.517933
C37	C	1.512487	-0.091598	0.512042
C38	C	1.563087	-0.348408	0.974045
C39	C	1.563081	-0.348410	1.083769
C40	C	1.421806	-0.455035	1.090527
C41	C	1.421809	-0.455029	0.980804
C42	C	1.644654	-0.286851	0.970144
C43	C	1.644647	-0.286853	1.079868
C44	C	1.492453	-0.401739	1.258790
C45	C	1.492446	-0.401725	1.142013
H46	H	1.098736	-0.304822	0.403904
H47	H	1.364287	-0.498439	1.137957
H48	H	1.580164	-0.886374	0.444290
N49	N	1.386455	-0.927765	0.637702
H50	H	1.392837	-0.989506	0.631383
H51	H	1.312372	-0.912658	0.620328
N52	N	0.887634	-0.486317	0.784147
H53	H	0.808505	-0.487438	0.780484
H54	H	0.915913	-0.427545	0.793845
H55	H	1.619459	-0.225515	1.110004
H56	H	0.896820	-0.581353	0.665816
H57	H	1.627036	-0.222276	0.936270
N58	N	1.081398	-0.494020	0.789995
H59	H	1.058718	-0.436846	0.805841
H60	H	1.160550	-0.494054	0.789960
H61	H	0.899672	-0.304852	0.403921
N62	N	1.080346	-0.597979	0.650003
H63	H	1.018908	-0.637216	0.633767
H64	H	1.123279	-0.623657	0.708470
N65	N	1.345590	-0.512493	0.925276
H66	H	1.300831	-0.546259	0.978821
H67	H	1.385828	-0.551088	0.882186
H68	H	1.720451	-0.309987	0.937584
N69	N	1.750943	-0.309770	1.120788
H70	H	1.798380	-0.320001	1.059907
H71	H	1.742817	-0.361844	1.168100
