data_functionalizedCrystal
_audit_creation_method	'MofGen! by Chris Wilmer'
_symmetry_space_group_name_H-M	'P1'
_symmetry_Int_Tables_number	1
_symmetry_cell_setting	triclinic
loop_
_symmetry_equiv_pos_as_xyz
  x,y,z
_cell_length_a	16.959447
_cell_length_b	16.959455
_cell_length_c	16.959454
_cell_angle_alpha	90.017022
_cell_angle_beta	90.026736
_cell_angle_gamma	90.014322
loop_
_atom_site_label
_atom_site_type_symbol
_atom_site_fract_x
_atom_site_fract_y
_atom_site_fract_z
Zn1	Zn	-0.446928	-1.208384	0.314730
Zn2	Zn	0.053072	-0.708384	0.814730
Zn3	Zn	-0.314758	-1.208306	0.446923
Zn4	Zn	0.185242	-0.708306	0.946923
Zn5	Zn	-0.314766	-1.076212	0.314755
Zn6	Zn	0.185234	-0.576212	0.814755
Zn7	Zn	-0.446897	-1.076177	0.446864
Zn8	Zn	0.053103	-0.576177	0.946864
O9	O	-0.380837	-1.142270	0.380818
O10	O	0.119163	-0.642270	0.880818
O11	O	-0.429406	-1.318984	0.332280
O12	O	0.070594	-0.818984	0.832280
O13	O	-0.204148	-1.190766	0.429426
O14	O	0.295852	-0.690766	0.929426
O15	O	-0.332314	-1.093792	0.204141
O16	O	0.167686	-0.593792	0.704141
O17	O	-0.332301	-1.318927	0.429402
O18	O	0.167699	-0.818927	0.929402
O19	O	-0.429413	-1.190898	0.204123
O20	O	0.070587	-0.690898	0.704123
O21	O	-0.204154	-1.093717	0.332323
O22	O	0.295846	-0.593717	0.832323
O23	O	-0.332283	-0.965597	0.332265
O24	O	0.167717	-0.465597	0.832265
O25	O	-0.557512	-1.093732	0.429301
O26	O	-0.057512	-0.593732	0.929301
O27	O	-0.429359	-0.965571	0.429325
O28	O	0.070641	-0.465571	0.929325
O29	O	-0.557535	-1.190864	0.332223
O30	O	-0.057535	-0.690864	0.832223
O31	O	-0.332270	-1.190732	0.557526
O32	O	0.167730	-0.690732	1.057526
O33	O	-0.429352	-1.093657	0.557482
O34	O	0.070648	-0.593657	1.057482
C35	C	-0.380819	-0.936904	0.380792
C36	C	0.119181	-0.436904	0.880792
C37	C	-0.380830	-0.849047	0.380800
C38	C	0.119170	-0.349047	0.880800
C39	C	-0.380824	-1.142204	0.586184
C40	C	0.119176	-0.642204	1.086184
C41	C	-0.380844	-1.142248	0.674041
C42	C	0.119156	-0.642248	1.174041
C43	C	-0.587006	-1.142303	0.380753
C44	C	-0.087006	-0.642303	0.880753
C45	C	-0.674862	-1.142317	0.380725
C46	C	-0.174862	-0.642317	0.880725
C47	C	-1.046328	-1.091839	0.431185
C48	C	-0.546328	-0.591839	0.931185
C49	C	-1.046348	-1.192983	0.330097
C50	C	-0.546348	-0.692983	0.830097
C51	C	-0.963802	-1.192962	0.330114
C52	C	-0.463802	-0.692962	0.830114
C53	C	-0.922515	-1.142380	0.380668
C54	C	-0.422515	-0.642380	0.880668
C55	C	-0.963775	-1.091818	0.431205
C56	C	-0.463775	-0.591818	0.931205
C57	C	-0.922536	-1.243529	0.279584
C58	C	-0.422536	-0.743529	0.779584
C59	C	-0.839985	-1.243510	0.279599
C60	C	-0.339985	-0.743510	0.779599
C61	C	-0.798697	-1.192923	0.330149
C62	C	-0.298697	-0.692923	0.830149
C63	C	-0.839962	-1.142359	0.380688
C64	C	-0.339962	-0.642359	0.880688
C65	C	-0.798675	-1.091776	0.431242
C66	C	-0.298675	-0.591776	0.931242
C67	C	-0.839938	-1.041207	0.481777
C68	C	-0.339938	-0.541207	0.981777
C69	C	-0.922487	-1.041231	0.481756
C70	C	-0.422487	-0.541231	0.981756
C71	C	-0.716149	-1.192899	0.330171
C72	C	-0.216149	-0.692899	0.830171
C73	C	-0.716122	-1.091755	0.431262
C74	C	-0.216122	-0.591755	0.931262
C75	C	-0.175471	-1.142283	0.380826
C76	C	0.324529	-0.642283	0.880826
C77	C	-0.087615	-1.142422	0.380631
C78	C	0.412385	-0.642422	0.880631
C79	C	-0.380856	-1.348438	0.380845
C80	C	0.119144	-0.848438	0.880845
C81	C	-0.380864	-1.436295	0.380856
C82	C	0.119136	-0.936295	0.880856
C83	C	-0.330395	-0.477560	0.330238
C84	C	0.169605	0.022440	0.830238
C85	C	-0.431324	-0.477582	0.431463
C86	C	0.068676	0.022418	0.931463
C87	C	-0.431320	-0.560128	0.431452
C88	C	0.068680	-0.060128	0.931452
C89	C	-0.380851	-0.601394	0.380834
C90	C	0.119149	-0.101394	0.880834
C91	C	-0.330387	-0.560114	0.330226
C92	C	0.169613	-0.060114	0.830226
C93	C	-0.481777	-0.601414	0.482064
C94	C	0.018223	-0.101414	0.982064
C95	C	-0.481773	-0.683965	0.482055
C96	C	0.018227	-0.183965	0.982055
C97	C	-0.431308	-0.725233	0.431432
C98	C	0.068692	-0.225233	0.931432
C99	C	-0.380843	-0.683948	0.380822
C100	C	0.119157	-0.183948	0.880822
C101	C	-0.330374	-0.725213	0.330204
C102	C	0.169626	-0.225213	0.830204
C103	C	-0.279913	-0.683930	0.279589
C104	C	0.220087	-0.183930	0.779589
C105	C	-0.279922	-0.601381	0.279603
C106	C	0.220078	-0.101381	0.779603
C107	C	-0.431299	-0.807781	0.431418
C108	C	0.068701	-0.307781	0.931418
C109	C	-0.330366	-0.807767	0.330193
C110	C	0.169634	-0.307767	0.830193
C111	C	-0.380868	-1.142358	0.174650
C112	C	0.119132	-0.642358	0.674650
C113	C	-0.380881	-1.142395	0.086793
C114	C	0.119119	-0.642395	0.586793
C115	C	-0.431382	-1.091796	1.045524
C116	C	0.068618	-0.591796	1.545524
C117	C	-0.330373	-1.192963	1.045509
C118	C	0.169627	-0.692963	1.545509
C119	C	-0.330365	-1.192936	0.962963
C120	C	0.169635	-0.692936	1.462963
C121	C	-0.380867	-1.142337	0.921694
C122	C	0.119133	-0.642337	1.421694
C123	C	-0.431375	-1.091765	0.962970
C124	C	0.068625	-0.591765	1.462970
C125	C	-0.279852	-1.243501	0.921680
C126	C	0.220148	-0.743501	1.421680
C127	C	-0.279842	-1.243475	0.839130
C128	C	0.220158	-0.743475	1.339130
C129	C	-0.330348	-1.192879	0.797859
C130	C	0.169652	-0.692879	1.297859
C131	C	-0.380859	-1.142306	0.839140
C132	C	0.119141	-0.642306	1.339140
C133	C	-0.431360	-1.091707	0.797871
C134	C	0.068640	-0.591707	1.297871
C135	C	-0.481876	-1.041137	0.839151
C136	C	0.018124	-0.541137	1.339151
C137	C	-0.481881	-1.041170	0.921699
C138	C	0.018119	-0.541170	1.421699
C139	C	-0.330343	-1.192847	0.715310
C140	C	0.169657	-0.692847	1.215310
C141	C	-0.431353	-1.091676	0.715317
C142	C	0.068647	-0.591676	1.215317
H143	H	-0.806312	-1.000026	0.522942
H144	H	-0.306312	-0.500026	1.022942
H145	H	-0.238838	-0.567761	0.238397
H146	H	0.261162	-0.067761	0.738397
H147	H	-0.522860	-0.567810	0.523280
H148	H	-0.022860	-0.067810	1.023280
H149	H	-0.806396	-1.284686	0.238450
H150	H	-0.306396	-0.784686	0.738450
O151	O	-0.966989	-0.986691	0.536258
O152	O	-0.466989	-0.486691	1.036258
H153	H	-1.031326	-0.995211	0.527755
H154	H	-0.531326	-0.495211	1.027755
O155	O	-0.275879	-1.247399	0.670790
O156	O	0.224121	-0.747399	1.170790
H157	H	-0.284361	-1.238881	0.606455
H158	H	0.215639	-0.738881	1.106455
H159	H	-0.472480	-1.050475	0.681721
H160	H	0.027520	-0.550475	1.181721
O161	O	-0.225479	-0.728439	0.224993
O162	O	0.274521	-0.228439	0.724993
H163	H	-0.233957	-0.792775	0.233491
H164	H	0.266043	-0.292775	0.733491
H165	H	-0.238731	-1.284690	0.955288
H166	H	0.261269	-0.784690	1.455288
O167	O	-0.225371	-1.298023	0.794607
O168	O	0.274629	-0.798023	1.294607
H169	H	-0.190262	-1.333216	0.837173
H170	H	0.309738	-0.833216	1.337173
H171	H	-0.289313	-0.443944	0.289026
H172	H	0.210687	0.056056	0.789026
O173	O	-0.485759	-0.433080	0.486056
O174	O	0.014241	0.066920	0.986056
H175	H	-0.477289	-0.368743	0.477559
H176	H	0.022711	0.131257	0.977559
H177	H	-0.522863	-0.717571	0.523268
H178	H	-0.022863	-0.217571	1.023268
H179	H	-1.079928	-1.050665	0.472327
H180	H	-0.579928	-0.550665	0.972327
H181	H	-0.956158	-1.284715	0.238430
H182	H	-0.456158	-0.784715	0.738430
O183	O	-0.671591	-1.037180	0.485771
O184	O	-0.171591	-0.537180	0.985771
H185	H	-0.714154	-1.002020	0.520901
H186	H	-0.214154	-0.502020	1.020901
H187	H	-0.682556	-1.234074	0.289028
H188	H	-0.182556	-0.734074	0.789028
H189	H	-0.289252	-1.234154	1.079115
H190	H	0.210748	-0.734154	1.579115
O191	O	-1.090872	-1.247517	0.275551
O192	O	-0.590872	-0.747517	0.775551
H193	H	-1.155205	-1.239026	0.284016
H194	H	-0.655205	-0.739026	0.784016
O195	O	-0.485720	-0.852311	0.485999
O196	O	0.014280	-0.352311	0.985999
H197	H	-0.520816	-0.809748	0.521197
H198	H	-0.020816	-0.309748	1.021197
H199	H	-0.522991	-0.999936	0.805540
H200	H	-0.022991	-0.499936	1.305540
H201	H	-0.289273	-0.841360	0.288968
H202	H	0.210727	-0.341360	0.788968
H203	H	-0.523007	-0.999998	0.955317
H204	H	-0.023007	-0.499998	1.455317
H205	H	-0.472513	-1.050626	1.079138
H206	H	0.027487	-0.550626	1.579138
