data_functionalizedCrystal
_audit_creation_method	'MofGen! by Chris Wilmer'
_symmetry_space_group_name_H-M	'P1'
_symmetry_Int_Tables_number	1
_symmetry_cell_setting	triclinic
loop_
_symmetry_equiv_pos_as_xyz
  x,y,z
_cell_length_a	14.044220
_cell_length_b	10.489741
_cell_length_c	13.101039
_cell_angle_alpha	93.396862
_cell_angle_beta	86.340132
_cell_angle_gamma	88.864026
loop_
_atom_site_label
_atom_site_type_symbol
_atom_site_fract_x
_atom_site_fract_y
_atom_site_fract_z
O1	O	1.264971	0.301301	-0.085104
O2	O	0.988928	0.290194	-0.085130
O3	O	1.133230	0.110787	-0.085110
O4	O	1.120668	0.480707	-0.085124
O5	O	1.122877	0.123682	0.085318
O6	O	0.978574	0.303089	0.085298
O7	O	1.254618	0.314196	0.085324
Zn8	Zn	1.114952	0.310690	0.112370
Zn9	Zn	1.128593	0.293700	-0.112176
O10	O	1.110315	0.493603	0.085305
C11	C	0.948404	0.291780	0.000081
C12	C	0.843079	0.277280	0.000071
C13	C	1.127105	0.069607	0.000103
C14	C	1.124266	-0.072311	0.000101
C15	C	0.650236	0.250773	0.000092
C16	C	0.593304	0.353611	0.000093
C17	C	0.486000	0.338862	0.000105
C18	C	0.757551	0.265520	0.000080
C19	C	1.032451	-0.149765	0.000085
C20	C	1.070719	-0.231130	0.084119
C21	C	1.080948	-0.243816	-0.083910
C22	C	1.162568	-0.151801	0.084204
C23	C	1.172789	-0.164485	-0.083900
C24	C	1.211123	-0.245814	0.000155
C25	C	1.295142	0.312609	0.000111
C26	C	1.400466	0.327109	0.000114
C27	C	1.116441	0.534783	0.000089
C28	C	1.119280	0.676700	0.000084
N29	N	1.105649	0.322285	0.265618
N30	N	1.137903	0.282095	-0.265424
C31	C	1.092993	0.338073	0.474659
C32	C	1.150557	0.266311	0.525542
C33	C	1.143515	0.275096	0.641860
C34	C	1.100034	0.329290	0.358331
H35	H	0.625153	0.452730	0.000084
C36	C	1.019279	0.429991	0.533811
C37	C	1.011623	0.437856	0.651807
C38	C	0.937914	0.529777	0.710973
C39	C	0.871861	0.613833	0.652144
C40	C	0.879515	0.605971	0.534141
C41	C	0.953224	0.514049	0.474975
H42	H	1.060521	0.375631	0.695362
H43	H	0.932248	0.535597	0.798327
H44	H	0.817297	0.681879	0.695942
H45	H	0.830617	0.668196	0.490586
H46	H	0.958890	0.508230	0.387622
C47	C	0.607220	0.116874	0.000092
C48	C	0.498344	0.102124	0.000095
C49	C	0.455314	-0.031774	0.000089
C50	C	0.521161	-0.150921	0.000080
C51	C	0.630043	-0.136175	0.000076
C52	C	0.673073	-0.002277	0.000082
H53	H	0.449594	0.190327	0.000102
H54	H	0.374712	-0.042689	0.000091
H55	H	0.489308	-0.250040	0.000075
H56	H	0.678793	-0.224378	0.000069
H57	H	0.753675	0.008638	0.000080
H58	H	1.027554	-0.260706	0.155157
H59	H	0.956955	-0.107764	0.000162
C60	C	1.224287	0.174408	0.466385
C61	C	1.231273	0.165572	0.348385
C62	C	1.305003	0.073678	0.289222
C63	C	1.371747	-0.009380	0.348059
C64	C	1.364764	-0.000547	0.466066
C65	C	1.291034	0.091347	0.525229
H66	H	1.181862	0.227059	0.304824
H67	H	1.310172	0.067140	0.201866
H68	H	1.426326	-0.077406	0.304263
H69	H	1.414174	-0.062035	0.509626
H70	H	1.285865	0.097885	0.612585
C71	C	1.313191	-0.302234	0.000219
C72	C	1.375902	-0.265863	0.089183
C73	C	1.477969	-0.322282	0.089252
C74	C	1.517323	-0.415073	0.000357
C75	C	1.454610	-0.451449	-0.088614
C76	C	1.352544	-0.395029	-0.088683
H77	H	1.346771	-0.197170	0.154995
H78	H	1.524392	-0.295354	0.155115
H79	H	1.592878	-0.456838	0.000408
H80	H	1.483742	-0.520142	-0.154426
H81	H	1.306120	-0.421957	-0.154546
H82	H	1.197063	-0.111651	0.155329
H83	H	1.215921	-0.134879	-0.154942
H84	H	1.046404	-0.284097	-0.154961
