data_functionalizedCrystal
_audit_creation_method	'MofGen! by Chris Wilmer'
_symmetry_space_group_name_H-M	'P1'
_symmetry_Int_Tables_number	1
_symmetry_cell_setting	triclinic
loop_
_symmetry_equiv_pos_as_xyz
  x,y,z
_cell_length_a	23.532407
_cell_length_b	22.010155
_cell_length_c	13.339070
_cell_angle_alpha	90.008079
_cell_angle_beta	80.760980
_cell_angle_gamma	90.005729
loop_
_atom_site_label
_atom_site_type_symbol
_atom_site_fract_x
_atom_site_fract_y
_atom_site_fract_z
O1	O	0.775026	0.050484	-0.122594
O2	O	0.612023	0.050493	-0.140334
O3	O	0.674817	0.050488	0.015611
O4	O	0.712232	0.050489	-0.278540
O5	O	0.674805	-0.050563	0.015588
O6	O	0.612011	-0.050557	-0.140358
O7	O	0.775014	-0.050566	-0.122618
Cu8	Cu	0.693511	-0.059788	-0.131490
Cu9	Cu	0.693526	0.059715	-0.131462
O10	O	0.712220	-0.050561	-0.278563
C11	C	0.590728	-0.000031	-0.139894
C12	C	0.527292	-0.000027	-0.138536
C13	C	0.245345	-0.000044	-0.040649
C14	C	0.304948	-0.000044	-0.041911
O15	O	0.329175	-0.000065	0.035741
N16	N	0.342520	-0.000039	-0.134621
C17	C	0.320485	-0.000041	-0.226075
O18	O	0.357915	-0.000038	-0.305047
C19	C	0.260882	-0.000046	-0.224812
C20	C	0.223313	-0.000044	-0.132096
C21	C	0.207776	-0.000043	0.052059
C22	C	0.148177	-0.000042	0.053320
C23	C	0.126146	-0.000042	-0.038127
C24	C	0.163714	-0.000043	-0.130835
C25	C	0.238848	-0.000052	-0.316265
C26	C	0.179241	-0.000057	-0.314994
C27	C	0.141672	-0.000055	-0.222278
C28	C	0.082083	-0.000042	-0.221021
N29	N	0.044512	-0.000047	-0.128311
C30	C	0.066543	-0.000047	-0.036864
C31	C	0.445654	-0.000033	-0.228719
C32	C	0.505255	-0.000024	-0.229983
C33	C	0.489715	-0.000028	-0.045819
C34	C	0.430112	-0.000032	-0.044557
C35	C	0.408082	-0.000037	-0.136010
C36	C	-0.058620	-0.000044	-0.034222
C37	C	-0.118224	-0.000041	-0.032969
C38	C	-0.102678	-0.000040	-0.217132
C39	C	-0.043079	-0.000040	-0.218386
C40	C	-0.021052	-0.000044	-0.126923
O41	O	0.057815	-0.000023	-0.298632
O42	O	0.029106	-0.000058	0.042096
N43	N	0.693505	-0.143841	-0.131509
C44	C	0.721335	-0.563623	-0.062419
C45	C	0.721336	-0.627230	-0.062412
O46	O	0.744977	-0.660124	-0.003683
N47	N	0.693522	-0.659048	-0.131441
C48	C	0.665699	-0.627255	-0.200474
O49	O	0.642041	-0.660159	-0.259187
C50	C	0.665695	-0.563648	-0.200476
C51	C	0.693516	-0.531834	-0.131449
C52	C	0.749153	-0.531808	0.006603
C53	C	0.749152	-0.468205	0.006594
C54	C	0.721333	-0.436416	-0.062436
C55	C	0.693515	-0.468231	-0.131458
C56	C	0.637869	-0.531856	-0.269504
C57	C	0.637866	-0.468246	-0.269498
C58	C	0.665687	-0.436431	-0.200472
C59	C	0.665695	-0.372839	-0.200496
N60	N	0.693510	-0.341021	-0.131467
C61	C	0.721329	-0.372810	-0.062437
C62	C	0.665710	-0.760833	-0.200465
C63	C	0.665718	-0.824438	-0.200469
C64	C	0.721354	-0.824409	-0.062406
C65	C	0.721350	-0.760803	-0.062407
C66	C	0.693525	-0.729015	-0.131436
C67	C	0.721325	-0.239238	-0.062461
C68	C	0.721324	-0.175630	-0.062478
C69	C	0.665686	-0.175664	-0.200538
C70	C	0.665689	-0.239267	-0.200525
C71	C	0.693510	-0.271053	-0.131478
O72	O	0.642064	-0.339905	-0.259193
O73	O	0.744977	-0.339898	-0.003725
C74	C	0.796309	-0.000041	-0.123058
C75	C	0.859745	-0.000041	-0.124416
C76	C	0.668491	-0.000036	0.053225
C77	C	0.649652	-0.000033	0.165338
N78	N	0.693535	0.143768	-0.131435
C79	C	0.718546	-0.000036	-0.316177
C80	C	0.737385	-0.000035	-0.428290
C81	C	0.796133	-0.000041	0.531603
C82	C	0.813835	-0.000048	0.426268
C83	C	0.772790	-0.000044	0.361030
C84	C	0.714041	-0.000034	0.401138
C85	C	0.696338	-0.000032	0.506483
C86	C	0.672995	-0.000034	0.335911
C87	C	0.614246	-0.000024	0.376018
C88	C	0.596546	-0.000022	0.481353
C89	C	0.637590	-0.000026	0.546591
C90	C	0.690699	-0.000036	0.230565
C91	C	0.590904	-0.000027	0.205446
C92	C	0.573202	-0.000020	0.310780
H93	H	-0.040693	-0.000047	0.040256
H94	H	0.861668	-0.000057	0.393620
H95	H	0.643055	-0.734954	-0.256685
C96	C	0.155213	-0.000090	-0.414182
C97	C	0.094974	-0.000105	-0.393245
C98	C	0.072820	-0.000142	-0.484590
H99	H	0.168114	0.035139	-0.452290
H100	H	0.168139	-0.035343	-0.452236
H101	H	0.082053	0.035145	-0.355207
H102	H	0.082056	-0.035331	-0.355152
H103	H	0.085747	-0.035395	-0.522643
H104	H	0.085726	0.035087	-0.522690
H105	H	0.031947	-0.000157	-0.470396
C106	C	0.840751	0.000048	0.602313
C107	C	0.875179	0.052025	0.584269
C108	C	0.916295	0.052123	0.649381
H109	H	0.821867	0.000080	0.670826
H110	H	0.864182	-0.035175	0.590193
H111	H	0.851751	0.087238	0.596398
H112	H	0.894076	0.052003	0.515769
H113	H	0.939726	0.016900	0.637261
H114	H	0.897406	0.052153	0.717890
H115	H	0.939662	0.087385	0.637141
C116	C	0.791977	-0.000176	0.246658
C117	C	0.770648	-0.052169	0.204954
C118	C	0.788321	-0.052314	0.099595
H119	H	0.777572	0.035023	0.218061
H120	H	0.832843	-0.000216	0.232076
H121	H	0.729790	-0.052123	0.219527
H122	H	0.785050	-0.087376	0.233521
H123	H	0.829187	-0.052354	0.085013
H124	H	0.773915	-0.017113	0.071008
H125	H	0.773856	-0.087593	0.071287
C126	C	0.421851	0.000003	-0.328128
C127	C	0.467516	0.000025	-0.409580
C128	C	0.445615	0.000067	-0.501168
H129	H	0.398932	-0.035226	-0.331628
H130	H	0.398942	0.035256	-0.331512
H131	H	0.490415	-0.035223	-0.406198
H132	H	0.490439	0.035252	-0.406114
H133	H	0.422706	0.035319	-0.504552
H134	H	0.422696	-0.035163	-0.504658
H135	H	0.476595	0.000087	-0.556444
C136	C	0.509392	0.000019	0.354136
C137	C	0.477232	0.000038	0.274468
C138	C	0.418449	0.000083	0.314368
H139	H	0.500328	-0.035207	0.394688
H140	H	0.500395	0.035274	0.394682
H141	H	0.486225	-0.035214	0.233939
H142	H	0.486278	0.035262	0.233909
H143	H	0.409452	0.035338	0.354914
H144	H	0.409391	-0.035144	0.354920
H145	H	0.396621	0.000101	0.260320
H146	H	0.771804	-0.442305	0.062804
C147	C	0.389259	-0.000130	0.056033
C148	C	0.354578	-0.052114	0.062123
C149	C	0.316936	-0.052221	0.154769
H150	H	0.410849	-0.000159	0.110396
H151	H	0.365651	0.035088	0.060375
H152	H	0.378184	-0.087323	0.057790
H153	H	0.332976	-0.052096	0.007781
H154	H	0.293327	-0.017003	0.159111
H155	H	0.338531	-0.052249	0.209125
H156	H	0.293397	-0.087489	0.158909
H157	H	-0.148811	-0.000038	0.042534
C158	C	0.779309	-0.566237	0.081715
C159	C	0.754419	-0.550742	0.180884
C160	C	0.782195	-0.582434	0.250102
H161	H	0.775353	-0.608686	0.071984
H162	H	0.818994	-0.555785	0.071138
H163	H	0.714744	-0.561198	0.191456
H164	H	0.758374	-0.508299	0.190646
H165	H	0.821880	-0.571983	0.239526
H166	H	0.778237	-0.624882	0.240362
H167	H	0.765315	-0.571922	0.317395
H168	H	0.743981	-0.149728	-0.006269
H169	H	0.623180	-0.000018	0.632364
H170	H	0.743979	-0.265111	-0.006235
H171	H	0.557482	-0.000026	0.152329
H172	H	0.744004	-0.734903	-0.006199
H173	H	0.117593	-0.000044	0.128819
H174	H	0.548709	-0.000018	0.514005
H175	H	0.744005	-0.850303	-0.006196
C176	C	0.279533	-0.000090	-0.417034
C177	C	0.247469	-0.000112	-0.496836
C178	C	0.284928	-0.000157	-0.589685
H179	H	0.303126	0.035138	-0.421510
H180	H	0.303095	-0.035344	-0.421417
H181	H	0.223917	0.035138	-0.492455
H182	H	0.223878	-0.035337	-0.492394
H183	H	0.308490	-0.035411	-0.594067
H184	H	0.308519	0.035071	-0.594149
H185	H	0.263178	-0.000178	-0.643841
H186	H	0.507663	-0.000028	0.028642
H187	H	0.535840	-0.000017	-0.305482
C188	C	0.635461	-0.858865	-0.275466
C189	C	0.611088	-0.817404	-0.335900
C190	C	0.583200	-0.849094	-0.404986
H191	H	0.662506	-0.883683	-0.317425
H192	H	0.606020	-0.883664	-0.239371
H193	H	0.640526	-0.792616	-0.371992
H194	H	0.584035	-0.792586	-0.293969
H195	H	0.553759	-0.873892	-0.368891
H196	H	0.610249	-0.873910	-0.446938
H197	H	0.566655	-0.820967	-0.445992
H198	H	0.615214	-0.557751	-0.325710
H199	H	0.615206	-0.442367	-0.325710
C200	C	0.635426	-0.273703	-0.275510
C201	C	0.611052	-0.232246	-0.335948
C202	C	0.583154	-0.263941	-0.405017
H203	H	0.662467	-0.298526	-0.317468
H204	H	0.605985	-0.298496	-0.239401
H205	H	0.640489	-0.207464	-0.372055
H206	H	0.584003	-0.207422	-0.294019
H207	H	0.553714	-0.288733	-0.368908
H208	H	0.610199	-0.288763	-0.446967
H209	H	0.566609	-0.235817	-0.446026
H210	H	0.225707	-0.000045	0.126530
H211	H	-0.012489	-0.000041	-0.293883
H212	H	-0.120627	-0.000037	-0.291586
H213	H	0.643038	-0.149772	-0.256745
H214	H	0.738533	-0.000045	0.197921
