data_functionalizedCrystal
_audit_creation_method	'MofGen! by Chris Wilmer'
_symmetry_space_group_name_H-M	'P1'
_symmetry_Int_Tables_number	1
_symmetry_cell_setting	triclinic
loop_
_symmetry_equiv_pos_as_xyz
  x,y,z
_cell_length_a	10.489746
_cell_length_b	10.489741
_cell_length_c	9.130313
_cell_angle_alpha	89.995761
_cell_angle_beta	89.999406
_cell_angle_gamma	84.540238
loop_
_atom_site_label
_atom_site_type_symbol
_atom_site_fract_x
_atom_site_fract_y
_atom_site_fract_z
O1	O	1.694048	0.179999	-0.121700
O2	O	1.322853	0.196885	-0.121724
O3	O	1.516897	0.002845	-0.121703
O4	O	1.500004	0.374040	-0.121721
O5	O	1.516884	0.002839	0.121896
O6	O	1.322840	0.196879	0.121874
O7	O	1.694035	0.179994	0.121899
Cu8	Cu	1.508436	0.188436	0.144129
Cu9	Cu	1.508452	0.188443	-0.143955
O10	O	1.499991	0.374034	0.121877
C11	C	1.275315	0.195606	0.000072
C12	C	1.133686	0.191786	0.000063
C13	C	0.980828	0.066062	0.000090
C14	C	1.058215	0.128916	0.120189
C15	C	1.058184	0.128951	-0.119980
C16	C	0.958724	0.247898	0.120298
C17	C	0.958687	0.247915	-0.119980
C18	C	1.036025	0.310856	0.000149
C19	C	1.515614	-0.044690	0.000096
C20	C	1.511797	-0.186320	0.000093
C21	C	1.388333	-0.254462	0.000074
C22	C	1.446650	-0.346586	0.120184
C23	C	1.446692	-0.346555	-0.119985
C24	C	1.570165	-0.276578	0.120302
C25	C	1.570190	-0.276538	-0.119975
C26	C	1.628597	-0.368635	0.000165
C27	C	1.741573	0.181273	0.000099
C28	C	1.883202	0.185093	0.000099
C29	C	1.501273	0.421569	0.000076
C30	C	1.505091	0.563198	0.000069
N31	N	1.508434	0.188431	0.346752
N32	N	1.508464	0.188438	-0.346577
C33	C	1.594386	0.102546	0.423413
C34	C	1.594398	0.102546	0.576750
C35	C	1.422503	0.274327	0.576751
C36	C	1.422485	0.274320	0.423417
H37	H	1.060501	0.414436	0.000210
H38	H	0.956107	-0.037439	0.000216
H39	H	1.101686	0.078665	0.221733
H40	H	1.394442	-0.377518	-0.221539
H41	H	1.664369	0.032608	0.360996
C42	C	0.767293	0.311421	0.256355
C43	C	0.900305	0.315660	0.257545
H44	H	0.731231	0.353240	0.341094
H45	H	0.732361	0.353411	0.171190
H46	H	0.748081	0.224732	0.256001
H47	H	0.919517	0.402349	0.257888
H48	H	0.935249	0.273673	0.342733
C49	C	1.764317	-0.067238	0.561337
C50	C	1.688885	0.008144	0.661016
H51	H	1.822655	-0.125514	0.613362
H52	H	1.710802	-0.113646	0.501549
H53	H	1.810669	-0.013672	0.501515
H54	H	1.642526	-0.045421	0.720831
H55	H	1.742408	0.054556	0.720829
C56	C	1.064627	0.122173	-0.382763
C57	C	1.116837	0.061104	-0.257060
H58	H	1.100842	0.080284	-0.467382
H59	H	0.974494	0.118579	-0.383259
H60	H	1.083160	0.209071	-0.382905
H61	H	1.098296	-0.025791	-0.256912
H62	H	1.206991	0.064686	-0.256564
H63	H	1.622354	-0.245748	0.221961
C64	C	1.186953	-0.222547	0.126154
C65	C	1.251303	-0.187424	0.000222
H66	H	1.102363	-0.181152	0.126251
H67	H	1.183584	-0.312709	0.127011
H68	H	1.231263	-0.197578	0.210606
H69	H	1.206997	-0.212401	-0.084231
H70	H	1.254665	-0.097243	-0.000649
C71	C	1.202373	0.347055	0.624002
C72	C	1.328036	0.368734	0.661032
H73	H	1.144055	0.405335	0.676042
H74	H	1.190066	0.359350	0.521724
H75	H	1.187770	0.261779	0.649153
H76	H	1.342642	0.454007	0.635871
H77	H	1.340348	0.356449	0.763333
H78	H	1.394404	-0.377601	0.221723
C79	C	0.929226	0.443173	-0.258316
C80	C	0.899962	0.315692	-0.257063
H81	H	0.892977	0.485003	-0.342960
H82	H	0.895012	0.485581	-0.173069
H83	H	1.019539	0.445386	-0.259793
H84	H	0.809648	0.313479	-0.255575
H85	H	0.934170	0.273273	-0.342332
H86	H	1.730200	-0.418057	0.000239
C87	C	1.575833	-0.269548	-0.382714
C88	C	1.640659	-0.234606	-0.257051
H89	H	1.619328	-0.243650	-0.467345
H90	H	1.573246	-0.359804	-0.384189
H91	H	1.490965	-0.228868	-0.381840
H92	H	1.725524	-0.275294	-0.257919
H93	H	1.643261	-0.144333	-0.255576
H94	H	1.352487	0.344258	0.360995
