data_functionalizedCrystal
_audit_creation_method	'MofGen! by Chris Wilmer'
_symmetry_space_group_name_H-M	'P1'
_symmetry_Int_Tables_number	1
_symmetry_cell_setting	triclinic
loop_
_symmetry_equiv_pos_as_xyz
  x,y,z
_cell_length_a	11.792241
_cell_length_b	11.792241
_cell_length_c	18.366186
_cell_angle_alpha	90.006356
_cell_angle_beta	90.004833
_cell_angle_gamma	84.193416
loop_
_atom_site_label
_atom_site_type_symbol
_atom_site_fract_x
_atom_site_fract_y
_atom_site_fract_z
O1	O	1.506916	0.155569	0.060479
O2	O	1.176575	0.171602	0.060496
O3	O	1.349762	-0.001585	0.060482
O4	O	1.333729	0.328756	0.060493
O5	O	1.349732	-0.001593	-0.060617
O6	O	1.176545	0.171594	-0.060603
O7	O	1.506886	0.155561	-0.060620
Zn8	Zn	1.341711	0.163576	-0.079839
Zn9	Zn	1.341750	0.163587	0.079715
O10	O	1.333699	0.328748	-0.060606
C11	C	1.134269	0.170591	-0.000051
C12	C	1.008255	0.167576	-0.000045
C13	C	1.348740	-0.043880	-0.000067
C14	C	1.345726	-0.169894	-0.000066
C15	C	0.777543	0.162034	-0.000066
C16	C	0.905928	0.165113	-0.000054
C17	C	1.340183	-0.400606	-0.000054
C18	C	1.343262	-0.272221	-0.000061
C19	C	1.549192	0.156572	-0.000071
C20	C	1.675206	0.159587	-0.000073
C21	C	1.334721	0.371043	-0.000055
C22	C	1.337736	0.497057	-0.000051
N23	N	1.341693	0.163567	-0.188730
C24	C	1.418405	0.086918	-0.226837
C25	C	1.418413	0.086913	-0.303064
C26	C	1.341718	0.163577	-0.341183
C27	C	1.264991	0.240232	-0.303067
C28	C	1.264978	0.240227	-0.226840
C29	C	1.327484	0.266856	-0.461939
C30	C	1.327504	0.266862	-0.538164
C31	C	1.341750	0.163591	-0.576290
C32	C	1.356000	0.060310	-0.538182
C33	C	1.355987	0.060305	-0.461956
C34	C	1.341723	0.163590	-0.423837
C35	C	1.418475	0.086930	-0.697052
C36	C	1.418474	0.086924	-0.773281
C37	C	1.265058	0.240252	-0.773282
C38	C	1.265053	0.240249	-0.697054
C39	C	1.341768	0.163589	-0.658944
N40	N	1.341778	0.163587	0.188606
H41	H	1.480883	0.024494	-0.334096
H42	H	1.202508	0.302645	-0.195813
C43	C	1.572788	0.063350	-0.858994
C44	C	1.502800	0.002665	-0.815175
H45	H	1.624842	0.011330	-0.884861
H46	H	1.613893	0.110863	-0.829249
H47	H	1.527090	0.108999	-0.892598
H48	H	1.548498	-0.042978	-0.781567
H49	H	1.461692	-0.044868	-0.844922
H50	H	1.480937	0.024506	-0.666021
C51	C	1.110764	0.263847	-0.859016
C52	C	1.180750	0.324522	-0.815173
H53	H	1.058718	0.315873	-0.884883
H54	H	1.069651	0.216334	-0.829287
H55	H	1.156464	0.218197	-0.892621
H56	H	1.135051	0.370165	-0.781565
H57	H	1.221867	0.372054	-0.844905
C58	C	1.199533	0.436278	-0.326518
C59	C	1.180682	0.324503	-0.344960
H60	H	1.147473	0.488300	-0.352377
H61	H	1.275346	0.449115	-0.339003
H62	H	1.188546	0.447228	-0.275664
H63	H	1.191678	0.313551	-0.395813
H64	H	1.104851	0.311662	-0.332479
C65	C	1.113424	0.391812	-0.704714
C66	C	1.180739	0.324518	-0.655162
H67	H	1.061374	0.443841	-0.678851
H68	H	1.072314	0.344293	-0.734452
H69	H	1.160934	0.432955	-0.734438
H70	H	1.133230	0.283368	-0.625442
H71	H	1.221852	0.372043	-0.625412
C72	C	1.206673	0.439302	-0.561629
C73	C	1.311837	0.380388	-0.580046
H74	H	1.196999	0.509387	-0.587487
H75	H	1.204632	0.454070	-0.510781
H76	H	1.147065	0.394407	-0.574140
H77	H	1.371446	0.425279	-0.567530
H78	H	1.313888	0.365622	-0.630905
H79	H	1.480868	0.024495	-0.195809
C80	C	1.384199	-0.143864	-0.530534
C81	C	1.371683	-0.053218	-0.580079
H82	H	1.393896	-0.213946	-0.556404
H83	H	1.318123	-0.142027	-0.500816
H84	H	1.449079	-0.137103	-0.500790
H85	H	1.306798	-0.059974	-0.609820
H86	H	1.437766	-0.055057	-0.609810
C87	C	1.407479	0.390264	-0.376186
C88	C	1.311828	0.380376	-0.420029
H89	H	1.397808	0.460340	-0.350309
H90	H	1.473542	0.388420	-0.405917
H91	H	1.415943	0.328745	-0.342590
H92	H	1.303368	0.441891	-0.453628
H93	H	1.245746	0.382231	-0.390296
H94	H	1.367587	-0.023790	-0.430931
