data_functionalizedCrystal
_audit_creation_method	'MofGen! by Chris Wilmer'
_symmetry_space_group_name_H-M	'P1'
_symmetry_Int_Tables_number	1
_symmetry_cell_setting	triclinic
loop_
_symmetry_equiv_pos_as_xyz
  x,y,z
_cell_length_a	15.297475
_cell_length_b	21.295417
_cell_length_c	15.298259
_cell_angle_alpha	80.280707
_cell_angle_beta	88.370891
_cell_angle_gamma	80.332118
loop_
_atom_site_label
_atom_site_type_symbol
_atom_site_fract_x
_atom_site_fract_y
_atom_site_fract_z
Zn1	Zn	1.253450	-0.314417	-0.726615
Zn2	Zn	1.586784	0.018916	-0.393282
Zn3	Zn	1.920117	0.352249	-0.059948
Zn4	Zn	1.278670	-0.440441	-0.580094
Zn5	Zn	1.612003	-0.107108	-0.246761
Zn6	Zn	1.945336	0.226225	0.086572
Zn7	Zn	1.132302	-0.320540	-0.554838
Zn8	Zn	1.465636	0.012793	-0.221504
Zn9	Zn	1.798969	0.346127	0.111829
Zn10	Zn	1.106920	-0.404997	-0.701241
Zn11	Zn	1.440253	-0.071663	-0.367908
Zn12	Zn	1.773586	0.261670	-0.034574
O13	O	1.192836	-0.370099	-0.640697
O14	O	1.526169	-0.036766	-0.307364
O15	O	1.859502	0.296568	0.025970
O16	O	1.379375	-0.343406	-0.728368
O17	O	1.712708	-0.010073	-0.395035
O18	O	2.046041	0.323261	-0.061701
O19	O	1.280431	-0.441932	-0.454154
O20	O	1.613764	-0.108599	-0.120821
O21	O	1.947098	0.224734	0.212513
O22	O	1.148441	-0.231641	-0.577674
O23	O	1.481775	0.101693	-0.244340
O24	O	1.815108	0.435026	0.088993
O25	O	1.397903	-0.435995	-0.620720
O26	O	1.731237	-0.102662	-0.287386
O27	O	2.064570	0.230671	0.045947
O28	O	1.237448	-0.227142	-0.703878
O29	O	1.570782	0.106191	-0.370544
O30	O	1.904115	0.439524	-0.037211
O31	O	1.172895	-0.353841	-0.435598
O32	O	1.506229	-0.020508	-0.102265
O33	O	1.839562	0.312826	0.231068
O34	O	1.006356	-0.319472	-0.553069
O35	O	1.339690	0.013861	-0.219736
O36	O	1.673023	0.347195	0.113597
O37	O	1.105180	-0.375585	-0.827196
O38	O	1.438514	-0.042252	-0.493863
O39	O	1.771847	0.291081	-0.160530
O40	O	0.987708	-0.381522	-0.660631
O41	O	1.321041	-0.048189	-0.327298
O42	O	1.654375	0.285145	0.006036
O43	O	1.212836	-0.309037	-0.845839
O44	O	1.546169	0.024297	-0.512506
O45	O	1.879502	0.357630	-0.179172
O46	O	1.255818	-0.523827	-0.596115
O47	O	1.589152	-0.190493	-0.262782
O48	O	1.922485	0.142840	0.070551
O49	O	1.129634	-0.497786	-0.685121
O50	O	1.462968	-0.164452	-0.351788
O51	O	1.796301	0.168881	-0.018455
C52	C	0.965249	-0.347316	-0.601357
C53	C	1.298582	-0.013982	-0.268023
C54	C	1.631915	0.319351	0.065310
C55	C	0.867882	-0.337581	-0.584547
C56	C	1.201216	-0.004248	-0.251214
C57	C	1.534549	0.329086	0.082119
C58	C	0.554744	-0.439678	-0.760837
C59	C	0.888077	-0.106344	-0.427504
C60	C	1.221410	0.226989	-0.094170
C61	C	0.646225	-0.448829	-0.776628
C62	C	0.979558	-0.115496	-0.443294
C63	C	1.312891	0.217838	-0.109961
C64	C	0.701643	-0.421018	-0.728609
C65	C	1.034977	-0.087684	-0.395276
C66	C	1.368310	0.245649	-0.061943
C67	C	0.665573	-0.384054	-0.664797
C68	C	0.998906	-0.050720	-0.331464
C69	C	1.332239	0.282613	0.001870
C70	C	0.574084	-0.374906	-0.649000
C71	C	0.907417	-0.041573	-0.315667
C72	C	1.240750	0.291761	0.017667
C73	C	0.720983	-0.356246	-0.616772
C74	C	1.054317	-0.022912	-0.283439
C75	C	1.387650	0.310421	0.049895
C76	C	0.684913	-0.319282	-0.552960
C77	C	1.018246	0.014051	-0.219626
C78	C	1.351579	0.347385	0.113707
C79	C	0.593432	-0.310135	-0.537166
C80	C	0.926766	0.023198	-0.203833
C81	C	1.260099	0.356531	0.129501
C82	C	0.538014	-0.337947	-0.585184
C83	C	0.871347	-0.004613	-0.251851
C84	C	1.204680	0.328720	0.081482
C85	C	0.812472	-0.365394	-0.632569
C86	C	1.145806	-0.032060	-0.299236
C87	C	1.479139	0.301273	0.034097
C88	C	0.831812	-0.300622	-0.520732
C89	C	1.165146	0.032712	-0.187399
C90	C	1.498479	0.366045	0.145935
C91	C	0.740331	-0.291471	-0.504941
C92	C	1.073665	0.041863	-0.171608
C93	C	1.406998	0.375196	0.161725
C94	C	1.192729	-0.533646	-0.640629
C95	C	1.526062	-0.200313	-0.307295
C96	C	1.859396	0.133021	0.026038
C97	C	1.192759	-0.603616	-0.640643
C98	C	1.526092	-0.270283	-0.307309
C99	C	1.859425	0.063051	0.026024
C100	C	1.258503	-0.650018	-0.594363
C101	C	1.591836	-0.316685	-0.261030
C102	C	1.925169	0.016649	0.072304
C103	C	1.258540	-0.715762	-0.594390
C104	C	1.591873	-0.382429	-0.261057
C105	C	1.925207	-0.049095	0.072277
C106	C	1.192820	-0.735101	-0.640684
C107	C	1.526153	-0.401767	-0.307351
C108	C	1.859487	-0.068434	0.025982
C109	C	1.127070	-0.688689	-0.686974
C110	C	1.460404	-0.355355	-0.353640
C111	C	1.793737	-0.022022	-0.020307
C112	C	1.127040	-0.622946	-0.686953
C113	C	1.460373	-0.289613	-0.353620
C114	C	1.793706	0.043720	-0.020286
N115	N	1.115037	-0.829753	-0.634117
N116	N	1.448370	-0.496420	-0.300783
N117	N	1.781703	-0.163086	0.032550
N118	N	1.115069	-0.892206	-0.634132
N119	N	1.448403	-0.558873	-0.300798
N120	N	1.781736	-0.225540	0.032535
C121	C	1.192909	-0.933178	-0.640751
C122	C	1.526243	-0.599845	-0.307418
C123	C	1.859576	-0.266511	0.025915
N124	N	1.270720	-0.909340	-0.647339
N125	N	1.604054	-0.576006	-0.314005
N126	N	1.937387	-0.242673	0.019328
N127	N	1.270688	-0.846881	-0.647319
N128	N	1.604021	-0.513548	-0.313985
N129	N	1.937354	-0.180214	0.019348
C130	C	1.192846	-0.806386	-0.640712
C131	C	1.526179	-0.473053	-0.307379
C132	C	1.859513	-0.139719	0.025954
C133	C	1.258699	-1.050868	-0.594499
C134	C	1.592033	-0.717535	-0.261166
C135	C	1.925366	-0.384201	0.072168
C136	C	1.258737	-1.116612	-0.594532
C137	C	1.592071	-0.783279	-0.261199
C138	C	1.925404	-0.449946	0.072135
C139	C	1.127260	-1.089538	-0.687110
C140	C	1.460594	-0.756205	-0.353777
C141	C	1.793927	-0.422871	-0.020443
C142	C	1.127229	-1.023795	-0.687083
C143	C	1.460563	-0.690462	-0.353749
C144	C	1.793896	-0.357128	-0.020416
C145	C	1.192948	-1.004465	-0.640772
C146	C	1.526282	-0.671131	-0.307439
C147	C	1.859615	-0.337798	0.025894
C148	C	1.421311	-0.392972	-0.680191
C149	C	1.754644	-0.059638	-0.346858
C150	C	2.087978	0.273695	-0.013525
C151	C	1.518674	-0.402719	-0.697022
C152	C	1.852007	-0.069385	-0.363688
C153	C	2.185340	0.263948	-0.030355
C154	C	1.153363	-0.337674	-0.869193
C155	C	1.486697	-0.004341	-0.535859
C156	C	1.820030	0.328992	-0.202526
C157	C	1.136543	-0.323857	-0.966564
C158	C	1.469876	0.009476	-0.633230
C159	C	1.803209	0.342810	-0.299897
C160	C	1.192963	-0.205913	-0.640789
C161	C	1.526296	0.127420	-0.307456
C162	C	1.859630	0.460754	0.025878
C163	C	1.193017	-0.135947	-0.640828
C164	C	1.526351	0.197387	-0.307495
C165	C	1.859684	0.530720	0.025839
C166	C	1.313084	-0.468372	-1.279674
C167	C	1.646417	-0.135039	-0.946341
C168	C	1.979751	0.198295	-0.613007
C169	C	1.328883	-0.481358	-1.188188
C170	C	1.662217	-0.148024	-0.854855
C171	C	1.995550	0.185309	-0.521522
C172	C	1.280800	-0.441983	-1.132778
C173	C	1.614133	-0.108650	-0.799444
C174	C	1.947467	0.224683	-0.466111
C175	C	1.216914	-0.389622	-1.168862
C176	C	1.550247	-0.056288	-0.835529
C177	C	1.883580	0.277045	-0.502195
C178	C	1.201108	-0.376638	-1.260356
C179	C	1.534441	-0.043304	-0.927023
C180	C	1.867775	0.290029	-0.593689
C181	C	1.168824	-0.350249	-1.113460
C182	C	1.502157	-0.016916	-0.780126
C183	C	1.835491	0.316417	-0.446793
C184	C	1.104938	-0.297887	-1.149544
C185	C	1.438271	0.035446	-0.816210
C186	C	1.771604	0.368779	-0.482877
C187	C	1.089135	-0.284905	-1.241029
C188	C	1.422469	0.048428	-0.907696
C189	C	1.755802	0.381761	-0.574362
C190	C	1.137219	-0.324280	-1.296439
C191	C	1.470552	0.009054	-0.963106
C192	C	1.803886	0.342387	-0.629773
C193	C	1.184630	-0.363233	-1.021966
C194	C	1.517963	-0.029900	-0.688632
C195	C	1.851296	0.303434	-0.355299
C196	C	1.072654	-0.271499	-1.002647
C197	C	1.405987	0.061835	-0.669314
C198	C	1.739320	0.395168	-0.335981
C199	C	1.056854	-0.258513	-1.094133
C200	C	1.390188	0.074820	-0.760800
C201	C	1.723521	0.408153	-0.427467
C202	C	1.232205	-0.402357	-0.413099
C203	C	1.565538	-0.069024	-0.079766
C204	C	1.898871	0.264310	0.253568
C205	C	1.249195	-0.416014	-0.315758
C206	C	1.582528	-0.082681	0.017576
C207	C	1.915862	0.250653	0.350909
H208	H	0.841832	-0.395489	-0.684526
H209	H	1.175165	-0.062156	-0.351193
H210	H	1.508498	0.271177	-0.017860
H211	H	1.236651	-0.405864	-0.992596
H212	H	1.569985	-0.072530	-0.659263
H213	H	1.903318	0.260803	-0.325929
H214	H	1.312214	-1.035129	-0.556793
H215	H	1.645547	-0.701796	-0.223460
H216	H	1.978881	-0.368462	0.109873
Cl217	Cl	0.976542	-0.192690	-1.139507
Cl218	Cl	1.309876	0.140644	-0.806174
Cl219	Cl	1.643209	0.473977	-0.472840
Cl220	Cl	1.373514	-0.517870	-1.349333
Cl221	Cl	1.706848	-0.184536	-1.016000
Cl222	Cl	2.040181	0.148797	-0.682667
Cl223	Cl	0.816649	-0.432520	-0.748464
Cl224	Cl	1.149982	-0.099187	-0.415131
Cl225	Cl	1.483316	0.234146	-0.081798
Cl226	Cl	0.691565	-0.495296	-0.856844
Cl227	Cl	1.024898	-0.161963	-0.523510
Cl228	Cl	1.358231	0.171370	-0.190177
H229	H	1.124361	-0.313708	-1.370936
H230	H	1.457694	0.019625	-1.037603
H231	H	1.791027	0.352958	-0.704269
H232	H	0.876935	-0.277977	-0.481630
H233	H	1.210268	0.055357	-0.148297
H234	H	1.543602	0.388690	0.185037
H235	H	0.509615	-0.462322	-0.799921
H236	H	0.842949	-0.128989	-0.466588
H237	H	1.176282	0.204344	-0.133255
H238	H	1.293667	-0.452560	-1.058286
H239	H	1.627000	-0.119227	-0.724953
H240	H	1.960333	0.214107	-0.391620
H241	H	1.380891	-0.523996	-1.158814
H242	H	1.714224	-0.190663	-0.825481
H243	H	2.047558	0.142671	-0.492147
H244	H	1.073562	-0.704438	-0.724669
H245	H	1.406895	-0.371105	-0.391335
H246	H	1.740228	-0.037772	-0.058002
H247	H	1.312017	-0.634282	-0.556657
H248	H	1.645350	-0.300948	-0.223324
H249	H	1.978683	0.032385	0.110010
H250	H	1.037107	-0.242274	-1.270404
H251	H	1.370440	0.091059	-0.937071
H252	H	1.703774	0.424393	-0.603737
H253	H	1.073753	-1.105283	-0.724808
H254	H	1.407086	-0.771949	-0.391475
H255	H	1.740419	-0.438616	-0.058142
Cl256	Cl	1.044571	-0.965458	-0.745261
Cl257	Cl	1.377905	-0.632124	-0.411928
Cl258	Cl	1.711238	-0.298791	-0.078595
H259	H	0.710949	-0.261374	-0.452985
H260	H	1.044283	0.071959	-0.119651
H261	H	1.377616	0.405292	0.213682
Cl262	Cl	0.423002	-0.326439	-0.565341
Cl263	Cl	0.756336	0.006894	-0.232008
Cl264	Cl	1.089669	0.340227	0.101325
Cl265	Cl	1.012191	-0.222004	-0.932993
Cl266	Cl	1.345524	0.111329	-0.599660
Cl267	Cl	1.678857	0.444663	-0.266326
H268	H	0.564068	-0.280045	-0.485197
H269	H	0.897402	0.053289	-0.151864
H270	H	1.230735	0.386622	0.181470
Cl271	Cl	1.341195	-0.774106	-0.536204
Cl272	Cl	1.674528	-0.440773	-0.202870
Cl273	Cl	2.007861	-0.107439	0.130463
H274	H	1.073502	-0.585163	-0.724640
H275	H	1.406835	-0.251830	-0.391307
H276	H	1.740169	0.081503	-0.057973
Cl277	Cl	1.341400	-1.174949	-0.536354
Cl278	Cl	1.674733	-0.841615	-0.203021
Cl279	Cl	2.008067	-0.508282	0.130313
