data_functionalizedCrystal
_audit_creation_method	'MofGen! by Chris Wilmer'
_symmetry_space_group_name_H-M	'P1'
_symmetry_Int_Tables_number	1
_symmetry_cell_setting	triclinic
loop_
_symmetry_equiv_pos_as_xyz
  x,y,z
_cell_length_a	14.044220
_cell_length_b	14.044220
_cell_length_c	14.185569
_cell_angle_alpha	75.620253
_cell_angle_beta	104.382557
_cell_angle_gamma	93.188878
loop_
_atom_site_label
_atom_site_type_symbol
_atom_site_fract_x
_atom_site_fract_y
_atom_site_fract_z
O1	O	1.257366	0.249958	-0.083318
O2	O	1.757366	0.749958	0.416682
O3	O	0.980688	0.241658	-0.083343
O4	O	1.480688	0.741658	0.416657
O5	O	1.114876	0.107470	-0.083321
O6	O	1.614876	0.607470	0.416679
O7	O	1.123177	0.384146	-0.083340
O8	O	1.623177	0.884146	0.416660
O9	O	1.154517	0.067835	0.083520
O10	O	1.654517	0.567835	0.583520
O11	O	1.020329	0.202023	0.083498
O12	O	1.520329	0.702023	0.583498
O13	O	1.297006	0.210322	0.083523
O14	O	1.797006	0.710322	0.583523
Cu15	Cu	1.162287	0.202554	0.098745
Cu16	Cu	1.662287	0.702554	0.598745
Cu17	Cu	1.115407	0.249427	-0.098564
Cu18	Cu	1.615407	0.749427	0.401436
O19	O	1.162818	0.344511	0.083501
O20	O	1.662818	0.844511	0.583501
C21	C	0.964886	0.218206	0.000074
C22	C	1.464886	0.718206	0.500074
C23	C	0.858741	0.207363	0.000065
C24	C	1.358741	0.707363	0.500065
C25	C	0.664408	0.187532	0.000086
C26	C	1.164408	0.687532	0.500086
C27	C	0.613278	0.264447	0.000085
C28	C	1.113278	0.764447	0.500085
C29	C	0.505145	0.253412	0.000097
C30	C	1.005145	0.753412	0.500097
C31	C	0.772551	0.198565	0.000074
C32	C	1.272551	0.698565	0.500074
C33	C	1.131061	0.052031	0.000100
C34	C	1.631061	0.552031	0.500100
C35	C	1.120216	-0.054112	0.000100
C36	C	1.620216	0.445888	0.500100
C37	C	1.100386	-0.248446	0.000084
C38	C	1.600386	0.251554	0.500084
C39	C	1.177302	-0.299577	0.000088
C40	C	1.677302	0.200423	0.500088
C41	C	1.166268	-0.407711	0.000079
C42	C	1.666268	0.092289	0.500079
C43	C	1.111419	-0.140302	0.000093
C44	C	1.611419	0.359698	0.500093
C45	C	1.312808	0.233776	0.000104
C46	C	1.812808	0.733776	0.500104
C47	C	1.418951	0.244620	0.000106
C48	C	1.918951	0.744620	0.500106
C49	C	1.146633	0.399951	0.000078
C50	C	1.646633	0.899951	0.500078
C51	C	1.157476	0.506095	0.000071
C52	C	1.657476	1.006095	0.500071
N53	N	1.195267	0.169585	0.237521
N54	N	1.695267	0.669585	0.737521
N55	N	1.082435	0.282389	-0.237341
N56	N	1.582435	0.782389	0.262659
C57	C	0.985537	0.379209	0.605136
C58	C	1.485537	0.879209	1.105136
C59	C	1.010526	0.354243	0.710162
C60	C	1.510526	0.854243	1.210162
C61	C	1.129380	0.235469	0.710143
C62	C	1.629380	0.735469	1.210143
C63	C	1.104397	0.260422	0.605115
C64	C	1.604397	0.760422	1.105115
C65	C	1.032476	0.332293	0.552620
C66	C	1.532476	0.832293	1.052620
C67	C	1.151337	0.213507	0.552598
C68	C	1.651337	0.713507	1.052598
C69	C	1.126360	0.238462	0.447580
C70	C	1.626360	0.738462	0.947580
C71	C	1.054444	0.310332	0.395078
C72	C	1.554444	0.810332	0.895078
C73	C	1.007499	0.357248	0.447601
C74	C	1.507499	0.857248	0.947601
C75	C	1.223263	0.141641	0.605095
C76	C	1.723263	0.641641	1.105095
C77	C	1.270202	0.094726	0.552579
C78	C	1.770202	0.594726	1.052579
C79	C	1.245220	0.119675	0.447558
C80	C	1.745220	0.619675	0.947558
C81	C	1.173304	0.191546	0.395056
C82	C	1.673304	0.691546	0.895056
C83	C	1.292165	0.072759	0.395035
C84	C	1.792165	0.572759	0.895035
C85	C	1.267188	0.097714	0.290016
C86	C	1.767188	0.597714	0.790016
C87	C	1.148327	0.216500	0.290037
C88	C	1.648327	0.716500	0.790037
H89	H	0.650715	0.338583	0.000075
H90	H	1.150715	0.838583	0.500075
C91	C	0.906378	0.458229	0.547386
C92	C	1.406378	0.958229	1.047386
N93	N	0.846745	0.517733	0.503888
N94	N	1.346745	1.017733	1.003888
H95	H	1.251421	-0.262123	0.000027
H96	H	1.751421	0.237877	0.500027
H97	H	1.089755	0.275018	0.247294
H98	H	1.589755	0.775018	0.747294
H99	H	1.026257	-0.285881	0.000075
H100	H	1.526257	0.214119	0.500075
C101	C	0.613833	0.087386	0.000091
C102	C	1.113833	0.587386	0.500091
N103	N	0.575727	0.011958	0.000089
N104	N	1.075727	0.511958	0.500089
H105	H	1.034112	0.330653	0.309565
H106	H	1.534112	0.830653	0.809565
C107	C	0.928340	0.436269	0.389851
C108	C	1.428340	0.936269	0.889851
N109	N	0.868708	0.495772	0.346353
N110	N	1.368708	0.995772	0.846353
C111	C	0.958880	0.405857	0.767927
C112	C	1.458880	0.905857	1.267927
N113	N	0.919981	0.444733	0.811434
N114	N	1.419981	0.944733	1.311434
H115	H	1.187941	0.176954	0.752896
H116	H	1.687941	0.676954	1.252896
C117	C	1.250735	0.114191	0.720620
C118	C	1.750735	0.614191	1.220620
N119	N	1.271426	0.093516	0.807633
N120	N	1.771426	0.593516	1.307633
C121	C	1.349311	0.015666	0.610335
C122	C	1.849311	0.515666	1.110335
N123	N	1.408893	-0.043887	0.653836
N124	N	1.908893	0.456113	1.153836
C125	C	1.371280	-0.006293	0.452793
C126	C	1.871280	0.493707	0.952793
N127	N	1.430870	-0.065838	0.496297
N128	N	1.930870	0.434162	0.996297
H129	H	1.305412	0.059511	0.247257
H130	H	1.805412	0.559511	0.747257
