data_functionalizedCrystal
_audit_creation_method	'MofGen! by Chris Wilmer'
_symmetry_space_group_name_H-M	'P1'
_symmetry_Int_Tables_number	1
_symmetry_cell_setting	triclinic
loop_
_symmetry_equiv_pos_as_xyz
  x,y,z
_cell_length_a	10.654550
_cell_length_b	15.944551
_cell_length_c	14.421503
_cell_angle_alpha	90.003340
_cell_angle_beta	89.995536
_cell_angle_gamma	83.991834
loop_
_atom_site_label
_atom_site_type_symbol
_atom_site_fract_x
_atom_site_fract_y
_atom_site_fract_z
O1	O	1.666322	0.117965	-0.077045
O2	O	1.300698	0.129205	-0.077062
O3	O	1.493495	0.001368	-0.077045
O4	O	1.473526	0.245802	-0.077062
O5	O	1.493463	0.001387	0.077179
O6	O	1.300666	0.129224	0.077161
O7	O	1.666290	0.117984	0.077179
Cu8	Cu	1.483476	0.123606	0.091252
Cu9	Cu	1.483513	0.123583	-0.091135
O10	O	1.473494	0.245821	0.077161
C11	C	1.253895	0.128389	0.000048
C12	C	1.114484	0.125920	0.000041
C13	C	1.034024	0.201189	0.000039
C14	C	0.903034	0.198863	0.000055
C15	C	0.932975	0.045995	0.000073
C16	C	1.063963	0.048321	0.000063
C17	C	1.492650	-0.029921	0.000067
C18	C	1.490165	-0.123182	0.000068
C19	C	1.364720	-0.338764	0.000049
C20	C	1.422956	-0.399435	0.076093
C21	C	1.485668	-0.293933	0.000060
C22	C	1.423017	-0.399437	-0.075959
C23	C	1.481317	-0.458871	0.000049
C24	C	1.543938	-0.353376	0.076167
C25	C	1.543981	-0.353372	-0.075953
C26	C	1.602306	-0.414024	0.000110
C27	C	1.488172	-0.198917	0.000068
C28	C	1.478822	-0.553887	0.000049
C29	C	1.713094	0.118800	0.000067
C30	C	1.852505	0.121269	0.000067
C31	C	1.474339	0.277110	0.000047
C32	C	1.476824	0.370371	0.000041
N33	N	1.483458	0.123621	0.219533
N34	N	1.483541	0.123561	-0.219416
C35	C	1.394293	0.182706	0.469179
C36	C	1.507771	0.199670	0.530986
C37	C	1.483489	0.123601	0.408695
C38	C	1.370040	0.106657	0.530982
C39	C	1.483508	0.123584	0.591416
C40	C	1.597023	0.140604	0.469141
C41	C	1.459218	0.047557	0.469131
C42	C	1.572778	0.064489	0.530910
C43	C	1.483476	0.123613	0.303433
C44	C	1.483534	0.123571	0.696675
H45	H	1.264327	-0.306038	0.000120
H46	H	1.318941	0.232730	0.442074
C47	C	1.674802	-0.003042	0.567314
N48	N	1.751650	-0.053900	0.594739
H49	H	1.371858	-0.419818	-0.140253
C50	C	0.814533	0.281665	0.000056
N51	N	0.747874	0.344035	0.000060
H52	H	1.595107	-0.332953	-0.140241
H53	H	1.129477	-0.012976	0.000068
H54	H	1.528317	0.263972	0.558154
H55	H	1.438637	-0.016724	0.441941
H56	H	1.692994	0.155004	0.442090
H57	H	1.595038	-0.333082	0.140527
C58	C	1.240417	0.087301	0.567676
N59	N	1.142781	0.072728	0.595309
H60	H	1.371787	-0.419832	0.140378
H61	H	1.702787	-0.446601	0.000157
H62	H	0.891824	-0.017184	0.000096
C63	C	1.089592	0.286550	0.000026
N64	N	1.131442	0.350846	0.000022
