data_functionalizedCrystal
_audit_creation_method	'MofGen! by Chris Wilmer'
_symmetry_space_group_name_H-M	'P1'
_symmetry_Int_Tables_number	1
_symmetry_cell_setting	triclinic
loop_
_symmetry_equiv_pos_as_xyz
  x,y,z
_cell_length_a	21.295420
_cell_length_b	21.295417
_cell_length_c	21.395356
_cell_angle_alpha	90.027507
_cell_angle_beta	90.016531
_cell_angle_gamma	90.027953
loop_
_atom_site_label
_atom_site_type_symbol
_atom_site_fract_x
_atom_site_fract_y
_atom_site_fract_z
Zn1	Zn	0.962308	-0.250667	0.354256
Zn2	Zn	1.212308	-0.000667	0.604256
Zn3	Zn	1.462308	0.249333	0.854256
Zn4	Zn	1.712308	0.499333	1.104256
Zn5	Zn	0.962227	-0.355932	0.249475
Zn6	Zn	1.212227	-0.105932	0.499475
Zn7	Zn	1.462227	0.144068	0.749475
Zn8	Zn	1.712227	0.394068	0.999475
Zn9	Zn	0.857046	-0.250677	0.249492
Zn10	Zn	1.107046	-0.000677	0.499492
Zn11	Zn	1.357046	0.249323	0.749492
Zn12	Zn	1.607046	0.499323	0.999492
Zn13	Zn	0.857002	-0.355899	0.354215
Zn14	Zn	1.107002	-0.105899	0.604215
Zn15	Zn	1.357002	0.144101	0.854215
Zn16	Zn	1.607002	0.394101	1.104215
O17	O	0.909646	-0.303294	0.301859
O18	O	1.159646	-0.053294	0.551859
O19	O	1.409646	0.196706	0.801859
O20	O	1.659646	0.446706	1.051859
O21	O	1.050387	-0.264640	0.340366
O22	O	1.300387	-0.014640	0.590366
O23	O	1.550387	0.235360	0.840366
O24	O	1.800387	0.485360	1.090366
O25	O	0.948259	-0.341987	0.161799
O26	O	1.198259	-0.091987	0.411799
O27	O	1.448259	0.158013	0.661799
O28	O	1.698259	0.408013	0.911799
O29	O	0.871062	-0.162587	0.263414
O30	O	1.121062	0.087413	0.513414
O31	O	1.371062	0.337413	0.763414
O32	O	1.621062	0.587413	1.013414
O33	O	1.050327	-0.341978	0.263384
O34	O	1.300327	-0.091978	0.513384
O35	O	1.550327	0.158022	0.763384
O36	O	1.800327	0.408022	1.013384
O37	O	0.948397	-0.162579	0.340383
O38	O	1.198397	0.087421	0.590383
O39	O	1.448397	0.337421	0.840383
O40	O	1.698397	0.587421	1.090383
O41	O	0.870983	-0.264657	0.161812
O42	O	1.120983	-0.014657	0.411812
O43	O	1.370983	0.235343	0.661812
O44	O	1.620983	0.485343	0.911812
O45	O	0.768951	-0.264626	0.263374
O46	O	1.018951	-0.014626	0.513374
O47	O	1.268951	0.235374	0.763374
O48	O	1.518951	0.485374	1.013374
O49	O	0.870987	-0.341922	0.441898
O50	O	1.120987	-0.091922	0.691898
O51	O	1.370987	0.158078	0.941898
O52	O	1.620987	0.408078	1.191898
O53	O	0.768919	-0.341932	0.340313
O54	O	1.018919	-0.091932	0.590313
O55	O	1.268919	0.158068	0.840313
O56	O	1.518919	0.408068	1.090313
O57	O	0.948355	-0.264609	0.441928
O58	O	1.198355	-0.014609	0.691928
O59	O	1.448355	0.235391	0.941928
O60	O	1.698355	0.485391	1.191928
O61	O	0.948216	-0.444017	0.263344
O62	O	1.198216	-0.194017	0.513344
O63	O	1.448216	0.055983	0.763344
O64	O	1.698216	0.305983	1.013344
O65	O	0.870908	-0.443993	0.340296
O66	O	1.120908	-0.193993	0.590296
O67	O	1.370908	0.056007	0.840296
O68	O	1.620908	0.306007	1.090296
C69	C	0.746094	-0.303277	0.301841
C70	C	0.996094	-0.053277	0.551841
C71	C	1.246094	0.196723	0.801841
C72	C	1.496094	0.446723	1.051841
C73	C	0.676126	-0.303285	0.301848
C74	C	0.926126	-0.053285	0.551848
C75	C	1.176126	0.196715	0.801848
C76	C	1.426126	0.446715	1.051848
C77	C	0.176668	-0.343621	0.341883
C78	C	0.426668	-0.093621	0.591883
C79	C	0.676668	0.156379	0.841883
C80	C	0.926668	0.406379	1.091883
C81	C	0.242410	-0.343622	0.341876
C82	C	0.492410	-0.093622	0.591876
C83	C	0.742410	0.156378	0.841876
C84	C	0.992410	0.406378	1.091876
C85	C	0.275287	-0.303308	0.301879
C86	C	0.525287	-0.053308	0.551879
C87	C	0.775287	0.196692	0.801879
C88	C	1.025287	0.446692	1.051879
C89	C	0.242415	-0.263003	0.261874
C90	C	0.492415	-0.013003	0.511874
C91	C	0.742415	0.236997	0.761874
C92	C	0.992415	0.486997	1.011874
C93	C	0.176674	-0.263008	0.261877
C94	C	0.426674	-0.013008	0.511877
C95	C	0.676674	0.236992	0.761877
C96	C	0.926674	0.486992	1.011877
N97	N	0.378527	-0.248191	0.297167
N98	N	0.628527	0.001809	0.547167
N99	N	0.878527	0.251809	0.797167
N100	N	1.128527	0.501809	1.047167
N101	N	0.440979	-0.248188	0.297168
N102	N	0.690979	0.001812	0.547168
N103	N	0.940979	0.251812	0.797168
N104	N	1.190979	0.501812	1.047168
C105	C	0.473362	-0.303291	0.301866
C106	C	0.723362	-0.053291	0.551866
C107	C	0.973362	0.196709	0.801866
C108	C	1.223362	0.446709	1.051866
N109	N	0.440933	-0.358398	0.306575
N110	N	0.690933	-0.108398	0.556575
N111	N	0.940933	0.141602	0.806575
N112	N	1.190933	0.391602	1.056575
N113	N	0.378476	-0.358400	0.306578
N114	N	0.628476	-0.108400	0.556578
N115	N	0.878476	0.141600	0.806578
N116	N	1.128476	0.391600	1.056578
C117	C	0.346572	-0.303298	0.301871
C118	C	0.596572	-0.053298	0.551871
C119	C	0.846572	0.196702	0.801871
C120	C	1.096572	0.446702	1.051871
C121	C	0.577511	-0.343597	0.341858
C122	C	0.827511	-0.093597	0.591858
C123	C	1.077511	0.156403	0.841858
C124	C	1.327511	0.406403	1.091858
C125	C	0.643254	-0.343598	0.341847
C126	C	0.893254	-0.093598	0.591847
C127	C	1.143254	0.156402	0.841847
C128	C	1.393254	0.406402	1.091847
C129	C	0.643258	-0.262974	0.261848
C130	C	0.893258	-0.012974	0.511848
C131	C	1.143258	0.237026	0.761848
C132	C	1.393258	0.487026	1.011848
C133	C	0.577516	-0.262978	0.261856
C134	C	0.827516	-0.012978	0.511856
C135	C	1.077516	0.237022	0.761856
C136	C	1.327516	0.487022	1.011856
C137	C	0.544646	-0.303289	0.301864
C138	C	0.794646	-0.053289	0.551864
C139	C	1.044646	0.196711	0.801864
C140	C	1.294646	0.446711	1.051864
C141	C	0.909566	-0.466846	0.301828
C142	C	1.159566	-0.216846	0.551828
C143	C	1.409566	0.033154	0.801828
C144	C	1.659566	0.283154	1.051828
C145	C	0.909589	-0.536814	0.301835
C146	C	1.159589	-0.286814	0.551835
C147	C	1.409589	-0.036814	0.801835
C148	C	1.659589	0.213186	1.051835
C149	C	0.949834	-0.569619	0.341941
C150	C	1.199834	-0.319619	0.591941
C151	C	1.449834	-0.069619	0.841941
C152	C	1.699834	0.180381	1.091941
C153	C	0.949857	-0.635362	0.341957
C154	C	1.199857	-0.385362	0.591957
C155	C	1.449857	-0.135362	0.841957
C156	C	1.699857	0.114638	1.091957
C157	C	0.909640	-0.668296	0.301855
C158	C	1.159640	-0.418296	0.551855
C159	C	1.409640	-0.168296	0.801855
C160	C	1.659640	0.081704	1.051855
C161	C	0.869387	-0.635483	0.261745
C162	C	1.119387	-0.385483	0.511745
C163	C	1.369387	-0.135483	0.761745
C164	C	1.619387	0.114517	1.011745
C165	C	0.869361	-0.569741	0.261735
C166	C	1.119361	-0.319741	0.511735
C167	C	1.369361	-0.069741	0.761735
C168	C	1.619361	0.180259	1.011735
N169	N	0.904888	-0.771555	0.247021
N170	N	1.154888	-0.521555	0.497021
N171	N	1.404888	-0.271555	0.747021
N172	N	1.654888	-0.021555	0.997021
N173	N	0.904916	-0.834006	0.247032
N174	N	1.154916	-0.584006	0.497032
N175	N	1.404916	-0.334006	0.747032
N176	N	1.654916	-0.084006	0.997032
C177	C	0.909714	-0.866371	0.301883
C178	C	1.159714	-0.616371	0.551883
C179	C	1.409714	-0.366371	0.801883
C180	C	1.659714	-0.116371	1.051883
N181	N	0.914494	-0.833925	0.356723
N182	N	1.164494	-0.583925	0.606723
N183	N	1.414494	-0.333925	0.856723
N184	N	1.664494	-0.083925	1.106723
N185	N	0.914469	-0.771467	0.356712
N186	N	1.164469	-0.521467	0.606712
N187	N	1.414469	-0.271467	0.856712
N188	N	1.664469	-0.021467	1.106712
C189	C	0.909663	-0.739582	0.301861
C190	C	1.159663	-0.489582	0.551861
C191	C	1.409663	-0.239582	0.801861
C192	C	1.659663	0.010418	1.051861
C193	C	0.949985	-0.970462	0.342010
C194	C	1.199985	-0.720462	0.592010
C195	C	1.449985	-0.470462	0.842010
C196	C	1.699985	-0.220462	1.092010
C197	C	0.950003	-1.036206	0.342026
C198	C	1.200003	-0.786206	0.592026
C199	C	1.450003	-0.536206	0.842026
C200	C	1.700003	-0.286206	1.092026
C201	C	0.869536	-1.036325	0.261809
C202	C	1.119536	-0.786325	0.511809
C203	C	1.369536	-0.536325	0.761809
C204	C	1.619536	-0.286325	1.011809
C205	C	0.869515	-0.970583	0.261798
C206	C	1.119515	-0.720583	0.511798
C207	C	1.369515	-0.470583	0.761798
C208	C	1.619515	-0.220583	1.011798
C209	C	0.909743	-0.937655	0.301897
C210	C	1.159743	-0.687655	0.551897
C211	C	1.409743	-0.437655	0.801897
C212	C	1.659743	-0.187655	1.051897
C213	C	1.073836	-0.303312	0.301878
C214	C	1.323836	-0.053312	0.551878
C215	C	1.573836	0.196688	0.801878
C216	C	1.823836	0.446688	1.051878
C217	C	1.143804	-0.303319	0.301886
C218	C	1.393804	-0.053319	0.551886
C219	C	1.643804	0.196681	0.801886
C220	C	1.893804	0.446681	1.051886
C221	C	0.909675	-0.303261	0.465283
C222	C	1.159675	-0.053261	0.715283
C223	C	1.409675	0.196739	0.965283
C224	C	1.659675	0.446739	1.215283
C225	C	0.909687	-0.303247	0.534924
C226	C	1.159687	-0.053247	0.784924
C227	C	1.409687	0.196753	1.034924
C228	C	1.659687	0.446753	1.284924
C229	C	0.909744	-0.139104	0.301905
C230	C	1.159744	0.110896	0.551905
C231	C	1.409744	0.360896	0.801905
C232	C	1.659744	0.610896	1.051905
C233	C	0.909785	-0.069136	0.301924
C234	C	1.159785	0.180864	0.551924
C235	C	1.409785	0.430864	0.801924
C236	C	1.659785	0.680864	1.051924
C237	C	0.909653	-0.303282	0.139072
C238	C	1.159653	-0.053282	0.389072
C239	C	1.409653	0.196718	0.639072
C240	C	1.659653	0.446718	0.889072
C241	C	0.909763	-0.303118	0.069431
C242	C	1.159763	-0.053118	0.319431
C243	C	1.409763	0.196882	0.569431
C244	C	1.659763	0.446882	0.819431
C245	C	0.949995	-0.343381	1.036714
C246	C	1.199995	-0.093381	1.286714
C247	C	1.449995	0.156619	1.536714
C248	C	1.699995	0.406619	1.786714
C249	C	0.949984	-0.343401	0.971279
C250	C	1.199984	-0.093401	1.221279
C251	C	1.449984	0.156599	1.471279
C252	C	1.699984	0.406599	1.721279
C253	C	0.909747	-0.303147	0.938562
C254	C	1.159747	-0.053147	1.188562
C255	C	1.409747	0.196853	1.438562
C256	C	1.659747	0.446853	1.688562
C257	C	0.869507	-0.262882	0.971287
C258	C	1.119507	-0.012882	1.221287
C259	C	1.369507	0.237118	1.471287
C260	C	1.619507	0.487118	1.721287
C261	C	0.869515	-0.262868	1.036721
C262	C	1.119515	-0.012868	1.286721
C263	C	1.369515	0.237132	1.536721
C264	C	1.619515	0.487132	1.786721
C265	C	0.904798	-0.246455	0.834909
C266	C	1.154798	0.003545	1.084909
C267	C	1.404798	0.253545	1.334909
C268	C	1.654798	0.503545	1.584909
C269	C	0.904794	-0.246468	0.769476
C270	C	1.154794	0.003532	1.019476
C271	C	1.404794	0.253532	1.269476
C272	C	1.654794	0.503532	1.519476
C273	C	0.909719	-0.303192	0.736742
C274	C	1.159719	-0.053192	0.986742
C275	C	1.409719	0.196808	1.236742
C276	C	1.659719	0.446808	1.486742
C277	C	0.914660	-0.359904	0.769448
C278	C	1.164660	-0.109904	1.019448
C279	C	1.414660	0.140096	1.269448
C280	C	1.664660	0.390096	1.519448
C281	C	0.914668	-0.359889	0.834882
C282	C	1.164668	-0.109889	1.084882
C283	C	1.414668	0.140111	1.334882
C284	C	1.664668	0.390111	1.584882
C285	C	0.909734	-0.303158	0.867610
C286	C	1.159734	-0.053158	1.117610
C287	C	1.409734	0.196842	1.367610
C288	C	1.659734	0.446842	1.617610
C289	C	0.949941	-0.343479	0.633072
C290	C	1.199941	-0.093479	0.883072
C291	C	1.449941	0.156521	1.133072
C292	C	1.699941	0.406521	1.383072
C293	C	0.949925	-0.343500	0.567636
C294	C	1.199925	-0.093500	0.817636
C295	C	1.449925	0.156500	1.067636
C296	C	1.699925	0.406500	1.317636
C297	C	0.869452	-0.262976	0.567645
C298	C	1.119452	-0.012976	0.817645
C299	C	1.369452	0.237024	1.067645
C300	C	1.619452	0.487024	1.317645
C301	C	0.869464	-0.262960	0.633081
C302	C	1.119464	-0.012960	0.883081
C303	C	1.369464	0.237040	1.133081
C304	C	1.619464	0.487040	1.383081
C305	C	0.909712	-0.303211	0.665790
C306	C	1.159712	-0.053211	0.915790
C307	C	1.409712	0.196789	1.165790
C308	C	1.659712	0.446789	1.415790
H309	H	0.550758	-0.230157	0.229288
H310	H	0.800758	0.019843	0.479288
H311	H	1.050758	0.269843	0.729288
H312	H	1.300758	0.519843	0.979288
H313	H	0.982624	-0.662078	0.374624
H314	H	1.232624	-0.412078	0.624624
H315	H	1.482624	-0.162078	0.874624
H316	H	1.732624	0.087922	1.124624
Cl317	Cl	0.818825	-0.676885	0.211335
Cl318	Cl	1.068825	-0.426885	0.461335
Cl319	Cl	1.318825	-0.176885	0.711335
Cl320	Cl	1.568825	0.073115	0.961335
H321	H	0.550747	-0.376421	0.374434
H322	H	0.800747	-0.126421	0.624434
H323	H	1.050747	0.123579	0.874434
H324	H	1.300747	0.373579	1.124434
Cl325	Cl	0.684582	-0.212299	0.211559
Cl326	Cl	0.934582	0.037701	0.461559
Cl327	Cl	1.184582	0.287701	0.711559
Cl328	Cl	1.434582	0.537701	0.961559
H329	H	0.982767	-0.376158	1.063342
H330	H	1.232767	-0.126158	1.313342
H331	H	1.482767	0.123842	1.563342
H332	H	1.732767	0.373842	1.813342
H333	H	0.836753	-0.230080	1.063359
H334	H	1.086753	0.019920	1.313359
H335	H	1.336753	0.269920	1.563359
H336	H	1.586753	0.519920	1.813359
H337	H	0.149909	-0.376448	0.374458
H338	H	0.399909	-0.126448	0.624458
H339	H	0.649909	0.123552	0.874458
H340	H	0.899909	0.373552	1.124458
Cl341	Cl	0.898587	-0.175174	0.728366
Cl342	Cl	1.148587	0.074826	0.978366
Cl343	Cl	1.398587	0.324826	1.228366
Cl344	Cl	1.648587	0.574826	1.478366
H345	H	0.149917	-0.230188	0.229307
H346	H	0.399917	0.019812	0.479307
H347	H	0.649917	0.269812	0.729307
H348	H	0.899917	0.519812	0.979307
Cl349	Cl	0.818875	-0.212350	0.674212
Cl350	Cl	1.068875	0.037650	0.924212
Cl351	Cl	1.318875	0.287650	1.174212
Cl352	Cl	1.568875	0.537650	1.424212
Cl353	Cl	0.818976	-1.077722	0.211396
Cl354	Cl	1.068976	-0.827722	0.461396
Cl355	Cl	1.318976	-0.577722	0.711396
Cl356	Cl	1.568976	-0.327722	0.961396
H357	H	0.269173	-0.376441	0.374448
H358	H	0.519173	-0.126441	0.624448
H359	H	0.769173	0.123559	0.874448
H360	H	1.019173	0.373559	1.124448
H361	H	0.670011	-0.376421	0.374415
H362	H	0.920011	-0.126421	0.624415
H363	H	1.170011	0.123579	0.874415
H364	H	1.420011	0.373579	1.124415
H365	H	0.982589	-0.542812	0.374594
H366	H	1.232589	-0.292812	0.624594
H367	H	1.482589	-0.042812	0.874594
H368	H	1.732589	0.207188	1.124594
H369	H	0.836588	-0.543030	0.229075
H370	H	1.086588	-0.293030	0.479075
H371	H	1.336588	-0.043030	0.729075
H372	H	1.586588	0.206970	0.979075
Cl373	Cl	1.000553	-0.929064	0.392422
Cl374	Cl	1.250553	-0.679064	0.642422
Cl375	Cl	1.500553	-0.429064	0.892422
Cl376	Cl	1.750553	-0.179064	1.142422
Cl377	Cl	0.920854	-0.431218	0.728304
Cl378	Cl	1.170854	-0.181218	0.978304
Cl379	Cl	1.420854	0.068782	1.228304
Cl380	Cl	1.670854	0.318782	1.478304
H381	H	0.836745	-0.230108	0.944645
H382	H	1.086745	0.019892	1.194645
H383	H	1.336745	0.269892	1.444645
H384	H	1.586745	0.519892	1.694645
H385	H	0.836746	-0.943871	0.229137
H386	H	1.086746	-0.693871	0.479137
H387	H	1.336746	-0.443871	0.729137
H388	H	1.586746	-0.193871	0.979137
H389	H	0.982755	-0.376180	0.944636
H390	H	1.232755	-0.126180	1.194636
H391	H	1.482755	0.123820	1.444636
H392	H	1.732755	0.373820	1.694636
Cl393	Cl	0.898921	-0.175112	0.876054
Cl394	Cl	1.148921	0.074888	1.126054
Cl395	Cl	1.398921	0.324888	1.376054
Cl396	Cl	1.648921	0.574888	1.626054
H397	H	0.269187	-0.230181	0.229307
H398	H	0.519187	0.019819	0.479307
H399	H	0.769187	0.269819	0.729307
H400	H	1.019187	0.519819	0.979307
Cl401	Cl	1.000595	-1.077448	0.392458
Cl402	Cl	1.250595	-0.827448	0.642458
Cl403	Cl	1.500595	-0.577448	0.892458
Cl404	Cl	1.750595	-0.327448	1.142458
H405	H	0.918690	-0.406066	0.861509
H406	H	1.168690	-0.156066	1.111509
H407	H	1.418690	0.093934	1.361509
H408	H	1.668690	0.343934	1.611509
Cl409	Cl	1.000536	-0.394080	0.674196
Cl410	Cl	1.250536	-0.144080	0.924196
Cl411	Cl	1.500536	0.105920	1.174196
Cl412	Cl	1.750536	0.355920	1.424196
H413	H	0.982684	-0.376292	0.540999
H414	H	1.232684	-0.126292	0.790999
H415	H	1.482684	0.123708	1.040999
H416	H	1.732684	0.373708	1.290999
H417	H	0.836688	-0.230202	0.541008
H418	H	1.086688	0.019798	0.791008
H419	H	1.336688	0.269798	1.041008
H420	H	1.586688	0.519798	1.291008
