data_functionalizedCrystal
_audit_creation_method	'MofGen! by Chris Wilmer'
_symmetry_space_group_name_H-M	'P1'
_symmetry_Int_Tables_number	1
_symmetry_cell_setting	triclinic
loop_
_symmetry_equiv_pos_as_xyz
  x,y,z
_cell_length_a	17.077404
_cell_length_b	12.594516
_cell_length_c	17.077396
_cell_angle_alpha	89.976020
_cell_angle_beta	89.982756
_cell_angle_gamma	90.016278
loop_
_atom_site_label
_atom_site_type_symbol
_atom_site_fract_x
_atom_site_fract_y
_atom_site_fract_z
Zn1	Zn	1.200074	-0.423727	-0.443872
Zn2	Zn	1.700074	0.076273	0.056128
Zn3	Zn	1.200002	-0.601730	-0.312618
Zn4	Zn	1.700002	-0.101730	0.187382
Zn5	Zn	1.068811	-0.423767	-0.312620
Zn6	Zn	1.568811	0.076233	0.187380
Zn7	Zn	1.068790	-0.601665	-0.443842
Zn8	Zn	1.568790	-0.101665	0.056158
O9	O	1.134420	-0.512722	-0.378238
O10	O	1.634420	-0.012722	0.121762
O11	O	1.309912	-0.447350	-0.426473
O12	O	1.809912	0.052650	0.073527
O13	O	1.182578	-0.578167	-0.202771
O14	O	1.682578	-0.078167	0.297229
O15	O	1.086263	-0.274816	-0.330044
O16	O	1.586263	0.225184	0.169956
O17	O	1.309859	-0.578129	-0.330041
O18	O	1.809859	-0.078129	0.169959
O19	O	1.182701	-0.274786	-0.426474
O20	O	1.682701	0.225214	0.073526
O21	O	1.086193	-0.447418	-0.202773
O22	O	1.586193	0.052582	0.297227
O23	O	0.958962	-0.447355	-0.330015
O24	O	1.458962	0.052645	0.169985
O25	O	1.086226	-0.578016	-0.553693
O26	O	1.586226	-0.078016	-0.053693
O27	O	0.958946	-0.578055	-0.426423
O28	O	1.458946	-0.078055	0.073577
O29	O	1.182680	-0.447287	-0.553715
O30	O	1.682680	0.052713	-0.053715
O31	O	1.182558	-0.750667	-0.330012
O32	O	1.682558	-0.250667	0.169988
O33	O	1.086156	-0.750619	-0.426421
O34	O	1.586156	-0.250619	0.073579
C35	C	0.930472	-0.512703	-0.378216
C36	C	1.430472	-0.012703	0.121784
C37	C	0.843222	-0.512720	-0.378226
C38	C	1.343222	-0.012720	0.121774
C39	C	1.134368	-0.789263	-0.378230
C40	C	1.634368	-0.289263	0.121770
C41	C	1.134418	-0.907569	-0.378253
C42	C	1.634418	-0.407569	0.121747
C43	C	0.802244	-0.580879	-0.428345
C44	C	1.302244	-0.080879	0.071655
C45	C	0.720264	-0.580881	-0.428357
C46	C	1.220264	-0.080881	0.071643
C47	C	0.679262	-0.512729	-0.378246
C48	C	1.179262	-0.012729	0.121754
C49	C	0.720246	-0.444563	-0.328125
C50	C	1.220246	0.055437	0.171875
C51	C	0.802225	-0.444557	-0.328117
C52	C	1.302225	0.055443	0.171883
C53	C	0.549376	-0.444584	-0.328144
C54	C	1.049376	0.055416	0.171856
C55	C	0.467391	-0.444592	-0.328150
C56	C	0.967391	0.055408	0.171850
C57	C	0.467415	-0.580909	-0.428384
C58	C	0.967415	-0.080909	0.071616
C59	C	0.549394	-0.580902	-0.428376
C60	C	1.049394	-0.080902	0.071624
C61	C	0.590371	-0.512737	-0.378253
C62	C	1.090371	-0.012737	0.121747
C63	C	1.081980	-0.976834	-0.430653
C64	C	1.581980	-0.476834	0.069347
C65	C	1.062859	-1.047696	-0.359026
C66	C	1.562859	-0.547696	0.140974
C67	C	1.153611	-1.047506	-0.449893
C68	C	1.653611	-0.547506	0.050107
C69	C	1.115259	-0.976872	-0.306587
C70	C	1.615259	-0.476872	0.193413
C71	C	1.206044	-0.976676	-0.397503
C72	C	1.706044	-0.476676	0.102497
C73	C	1.186950	-1.047506	-0.325826
C74	C	1.686950	-0.547506	0.174174
C75	C	1.339164	-0.512742	-0.378260
C76	C	1.839164	-0.012742	0.121740
C77	C	1.426414	-0.512751	-0.378269
C78	C	1.926414	-0.012751	0.121731
C79	C	1.134459	-0.512640	-0.582982
C80	C	1.634459	-0.012640	-0.082982
C81	C	1.134476	-0.512605	-0.670232
C82	C	1.634476	-0.012605	-0.170232
C83	C	1.134493	-0.235101	-0.378263
C84	C	1.634493	0.264899	0.121737
C85	C	1.134524	-0.116796	-0.378273
C86	C	1.634524	0.383204	0.121727
C87	C	1.084303	-0.444515	-0.711222
C88	C	1.584303	0.055485	-0.211222
C89	C	1.084316	-0.444491	-0.793203
C90	C	1.584316	0.055509	-0.293203
C91	C	1.134506	-0.512552	-0.834192
C92	C	1.634506	-0.012552	-0.334192
C93	C	1.184681	-0.580648	-0.793196
C94	C	1.684681	-0.080648	-0.293196
C95	C	1.184663	-0.580677	-0.711217
C96	C	1.684663	-0.080677	-0.211217
C97	C	1.184715	-0.580582	-0.964066
C98	C	1.684715	-0.080582	-0.464066
C99	C	1.184733	-0.580552	-1.046050
C100	C	1.684733	-0.080552	-0.546050
C101	C	1.084367	-0.444396	-1.046052
C102	C	1.584367	0.055604	-0.546052
C103	C	1.084350	-0.444425	-0.964073
C104	C	1.584350	0.055575	-0.464073
C105	C	1.134526	-0.512520	-0.923083
C106	C	1.634526	-0.012520	-0.423083
C107	C	1.134425	-0.512728	-0.174290
C108	C	1.634425	-0.012728	0.325710
C109	C	1.134561	-0.512463	-0.087041
C110	C	1.634561	-0.012463	0.412959
H111	H	0.835621	-0.636379	-0.469149
H112	H	1.335621	-0.136379	0.030851
C113	C	1.029168	-0.369496	-1.091143
C114	C	1.529168	0.130504	-0.591143
N115	N	0.987595	-0.313082	-1.125109
N116	N	1.487595	0.186918	-0.625109
C117	C	1.029130	-0.369577	-0.838288
C118	C	1.529130	0.130423	-0.338288
N119	N	0.987564	-0.313145	-0.872246
N120	N	1.487564	0.186855	-0.372246
H121	H	0.686903	-0.636384	-0.469169
H122	H	1.186903	-0.136384	0.030831
C123	C	1.239939	-0.655429	-1.091136
C124	C	1.739939	-0.155429	-0.591136
N125	N	1.281520	-0.711830	-1.125095
N126	N	1.781520	-0.211830	-0.625095
H127	H	1.002336	-1.078914	-0.342760
H128	H	1.502336	-0.578914	0.157240
C129	C	1.093288	-0.935133	-0.224728
C130	C	1.593288	-0.435133	0.275272
N131	N	1.076735	-0.903693	-0.163074
N132	N	1.576735	-0.403693	0.336926
C133	C	0.594493	-0.655878	-0.483497
C134	C	1.094493	-0.155878	0.016503
N135	N	0.628462	-0.712350	-0.525016
N136	N	1.128462	-0.212350	-0.025016
C137	C	1.246916	-1.089172	-0.265905
C138	C	1.746916	-0.589172	0.234095
N139	N	1.292079	-1.120559	-0.220770
N140	N	1.792079	-0.620559	0.279230
C141	C	1.239861	-0.655576	-0.666128
C142	C	1.739861	-0.155576	-0.166128
N143	N	1.281437	-0.711992	-0.632168
N144	N	1.781437	-0.211992	-0.132168
C145	C	1.287783	-0.934482	-0.419531
C146	C	1.787783	-0.434482	0.080469
N147	N	1.349347	-0.902694	-0.436133
N148	N	1.849347	-0.402694	0.063867
H149	H	1.225580	-0.636023	-0.930694
H150	H	1.725580	-0.136023	-0.430694
C151	C	1.175484	-1.089421	-0.531730
C152	C	1.675484	-0.589421	-0.031730
N153	N	1.191954	-1.120988	-0.593371
N154	N	1.691954	-0.620988	-0.093371
C155	C	1.029089	-0.369643	-0.666142
C156	C	1.529089	0.130357	-0.166142
N157	N	0.987497	-0.313249	-0.632190
N158	N	1.487497	0.186751	-0.132190
C159	C	0.847300	-0.369579	-0.272980
C160	C	1.347300	0.130421	0.227020
N161	N	0.881250	-0.313102	-0.231450
N162	N	1.381250	0.186898	0.268550
H163	H	1.043484	-0.388999	-0.930702
H164	H	1.543484	0.111001	-0.430702
C165	C	1.021966	-0.934900	-0.490428
C166	C	1.521966	-0.434900	0.009572
N167	N	0.976762	-0.903312	-0.535445
N168	N	1.476762	-0.403312	-0.035445
C169	C	0.422337	-0.655886	-0.483524
C170	C	0.922337	-0.155886	0.016476
N171	N	0.388382	-0.712358	-0.525052
N172	N	0.888382	-0.212358	-0.025052
C173	C	1.239712	-0.655756	-0.838286
C174	C	1.739712	-0.155756	-0.338286
N175	N	1.281101	-0.712413	-0.872247
N176	N	1.781101	-0.212413	-0.372247
C177	C	0.422292	-0.369618	-0.273028
C178	C	0.922292	0.130382	0.226972
N179	N	0.388323	-0.313146	-0.231510
N180	N	0.888323	0.186854	0.268490
C181	C	0.594450	-0.369602	-0.273004
C182	C	1.094450	0.130398	0.226996
N183	N	0.628399	-0.313131	-0.231470
N184	N	1.128399	0.186869	0.268530
H185	H	0.686856	-0.389069	-0.287327
H186	H	1.186856	0.110931	0.212673
