data_functionalizedCrystal
_audit_creation_method	'MofGen! by Chris Wilmer'
_symmetry_space_group_name_H-M	'P1'
_symmetry_Int_Tables_number	1
_symmetry_cell_setting	triclinic
loop_
_symmetry_equiv_pos_as_xyz
  x,y,z
_cell_length_a	16.959455
_cell_length_b	16.959454
_cell_length_c	12.759393
_cell_angle_alpha	89.969286
_cell_angle_beta	89.979060
_cell_angle_gamma	90.019503
loop_
_atom_site_label
_atom_site_type_symbol
_atom_site_fract_x
_atom_site_fract_y
_atom_site_fract_z
Zn1	Zn	1.208432	-0.314647	-0.594056
Zn2	Zn	1.208341	-0.446849	-0.418379
Zn3	Zn	1.076247	-0.314687	-0.418388
Zn4	Zn	1.076226	-0.446786	-0.594013
O5	O	1.142311	-0.380742	-0.506209
O6	O	1.319031	-0.332193	-0.570766
O7	O	1.190788	-0.429360	-0.271359
O8	O	1.093828	-0.204071	-0.441713
O9	O	1.318964	-0.429321	-0.441697
O10	O	1.190945	-0.204041	-0.570775
O11	O	1.093739	-0.332261	-0.271366
O12	O	0.965633	-0.332200	-0.441671
O13	O	1.093793	-0.429215	-0.741040
O14	O	0.965617	-0.429253	-0.570701
O15	O	1.190925	-0.332133	-0.741071
O16	O	1.190768	-0.557451	-0.441655
O17	O	1.093704	-0.557405	-0.570693
C18	C	0.936945	-0.380725	-0.506183
C19	C	0.849088	-0.380737	-0.506197
C20	C	0.807777	-0.431235	-0.438901
C21	C	0.807846	-0.330245	-0.573501
C22	C	0.725300	-0.330251	-0.573514
C23	C	0.683989	-0.380749	-0.506218
C24	C	0.725224	-0.431241	-0.438909
C25	C	0.684059	-0.279754	-0.640814
C26	C	0.601508	-0.279758	-0.640828
C27	C	0.560196	-0.330261	-0.573536
C28	C	0.601435	-0.380755	-0.506226
C29	C	0.560124	-0.431253	-0.438930
C30	C	0.601363	-0.481752	-0.371624
C31	C	0.683911	-0.481743	-0.371617
C32	C	0.477647	-0.330269	-0.573543
C33	C	0.477571	-0.431259	-0.438938
C34	C	1.142245	-0.586108	-0.506191
C35	C	1.142289	-0.673965	-0.506218
C36	C	1.091843	-1.045447	-0.573391
C37	C	1.192999	-1.045434	-0.439133
C38	C	1.192972	-0.962889	-0.439124
C39	C	1.142378	-0.921618	-0.506248
C40	C	1.091812	-0.962893	-0.573382
C41	C	1.243531	-0.921607	-0.371983
C42	C	1.243505	-0.839056	-0.371970
C43	C	1.192915	-0.797784	-0.439101
C44	C	1.142347	-0.839064	-0.506238
C45	C	1.091754	-0.797794	-0.573362
C46	C	1.041190	-0.839072	-0.640506
C47	C	1.041222	-0.921621	-0.640512
C48	C	1.192883	-0.715236	-0.439094
C49	C	1.091723	-0.715240	-0.573352
C50	C	1.348479	-0.380760	-0.506235
C51	C	1.436336	-0.380767	-0.506247
C52	C	1.142367	-0.380662	-0.780242
C53	C	1.142390	-0.380628	-0.897019
C54	C	1.142399	-0.174574	-0.506250
C55	C	1.142437	-0.086717	-0.506267
C56	C	1.192974	-0.330073	-0.951899
C57	C	1.192993	-0.330044	-1.061624
C58	C	1.091842	-0.431133	-1.061577
C59	C	1.091820	-0.431157	-0.951855
C60	C	1.243544	-0.279544	-0.897063
C61	C	1.294132	-0.228985	-0.951944
C62	C	1.294151	-0.228956	-1.061668
C63	C	1.243582	-0.279487	-1.116512
C64	C	1.142302	-0.380764	-0.233241
C65	C	1.142431	-0.380576	-0.116465
H66	H	0.567717	-0.522865	-0.316827
H67	H	1.234186	-1.079042	-0.384477
H68	H	1.284716	-0.955216	-0.317327
Cl69	Cl	1.243596	-0.279438	-1.254452
H70	H	1.335299	-0.187840	-0.907283
H71	H	1.050671	-0.472272	-1.106240
H72	H	0.443941	-0.472385	-0.384141
H73	H	1.284677	-0.805452	-0.317300
H74	H	1.234047	-0.681630	-0.384422
Cl75	Cl	0.859617	-0.494719	-0.354296
Cl76	Cl	0.425808	-0.266784	-0.658141
H77	H	1.243536	-0.279563	-0.807720
H78	H	1.050618	-0.472312	-0.907171
H79	H	0.841486	-0.289128	-0.628286
Cl80	Cl	0.735758	-0.545218	-0.287008
Cl81	Cl	0.735996	-0.216276	-0.725408
Cl82	Cl	0.549673	-0.216279	-0.725445
H83	H	1.050526	-0.681642	-0.628017
H84	H	0.999993	-0.805460	-0.695154
Cl85	Cl	1.357748	-0.165400	-1.130658
Cl86	Cl	0.977661	-0.973518	-0.724910
H87	H	1.050678	-1.079059	-0.628061
