data_functionalizedCrystal
_audit_creation_method	'MofGen! by Chris Wilmer'
_symmetry_space_group_name_H-M	'P1'
_symmetry_Int_Tables_number	1
_symmetry_cell_setting	triclinic
loop_
_symmetry_equiv_pos_as_xyz
  x,y,z
_cell_length_a	15.995350
_cell_length_b	9.730223
_cell_length_c	10.654550
_cell_angle_alpha	90.006075
_cell_angle_beta	83.988653
_cell_angle_gamma	90.000637
loop_
_atom_site_label
_atom_site_type_symbol
_atom_site_fract_x
_atom_site_fract_y
_atom_site_fract_z
O1	O	1.111925	0.114173	0.161876
O2	O	1.611925	0.614173	0.661876
O3	O	0.868266	0.114201	0.181865
O4	O	1.368266	0.614201	0.681865
O5	O	0.995698	0.114178	-0.010942
O6	O	1.495698	0.614178	0.489058
O7	O	0.984493	0.114196	0.354683
O8	O	1.484493	0.614196	0.854683
O9	O	0.995687	-0.114402	-0.010954
O10	O	1.495687	0.385598	0.489046
O11	O	0.868256	-0.114379	0.181853
O12	O	1.368256	0.385621	0.681853
O13	O	1.111915	-0.114407	0.161864
O14	O	1.611915	0.385593	0.661864
Zn15	Zn	0.990084	-0.150685	0.171857
Zn16	Zn	1.490084	0.349315	0.671857
Zn17	Zn	0.990097	0.150479	0.171872
Zn18	Zn	1.490097	0.650479	0.671872
O19	O	0.984483	-0.114384	0.354671
O20	O	1.484483	0.385616	0.854671
C21	C	0.837061	-0.000085	0.181033
C22	C	1.337061	0.499915	0.681033
C23	C	0.744096	-0.000075	0.178555
C24	C	1.244096	0.499925	0.678555
N25	N	0.990081	-0.356221	0.171846
N26	N	1.490081	0.143779	0.671846
C27	C	0.938881	-0.572082	0.095655
C28	C	1.438881	-0.072082	0.595655
C29	C	0.938870	-0.428199	0.095638
C30	C	1.438870	0.071801	0.595638
C31	C	1.041312	-0.428134	0.248067
C32	C	1.541312	0.071866	0.748067
C33	C	1.041327	-0.572014	0.248077
C34	C	1.541327	-0.072014	0.748077
C35	C	0.406297	-0.000104	0.169658
C36	C	0.906297	0.499896	0.669658
C37	C	0.452934	-0.000621	0.032344
C38	C	0.952934	0.499379	0.532344
C39	C	0.549639	-0.000096	0.034822
C40	C	1.049639	0.499904	0.534822
C41	C	0.573883	-0.000090	0.174071
C42	C	1.073883	0.499910	0.674071
C43	C	0.533195	0.130438	0.241806
C44	C	1.033195	0.630438	0.741806
C45	C	0.436540	0.130538	0.238356
C46	C	0.936540	0.630538	0.738356
C47	C	0.436206	-0.129400	0.241180
C48	C	0.936206	0.370600	0.741180
C49	C	0.533151	-0.131116	0.241147
C50	C	1.033151	0.368884	0.741147
C51	C	0.668595	-0.000078	0.176573
C52	C	1.168595	0.499922	0.676573
C53	C	0.311585	-0.000107	0.167161
C54	C	0.811585	0.499893	0.667161
C55	C	1.143119	-0.000118	0.162696
C56	C	1.643119	0.499882	0.662696
C57	C	1.236084	-0.000119	0.165174
C58	C	1.736084	0.499881	0.665174
C59	C	0.994870	-0.000111	-0.057735
C60	C	1.494870	0.499889	0.442265
C61	C	0.992409	-0.000109	-0.197146
C62	C	1.492409	0.499891	0.302854
N63	N	0.990107	0.356015	0.171873
N64	N	1.490107	0.856015	0.671873
C65	C	1.067438	-0.000117	-0.277612
C66	C	1.567438	0.499883	0.222388
C67	C	1.065121	-0.000100	-0.408602
C68	C	1.565121	0.499900	0.091398
C69	C	0.912737	-0.000072	-0.378649
C70	C	1.412737	0.499928	0.121351
C71	C	0.915055	-0.000080	-0.247661
C72	C	1.415055	0.499920	0.252339
C73	C	0.985311	-0.000091	0.401464
C74	C	1.485311	0.499909	0.901464
C75	C	0.987772	-0.000085	0.540875
C76	C	1.487772	0.499915	1.040875
H77	H	0.897174	-0.630676	0.033604
H78	H	1.397174	-0.130676	0.533604
F79	F	0.884345	-0.351681	0.014521
F80	F	1.384345	0.148319	0.514521
H81	H	1.083013	-0.369518	0.310111
H82	H	1.583013	0.130482	0.810111
F83	F	0.553999	-0.141415	0.373878
F84	F	1.053999	0.358585	0.873878
H85	H	1.083046	-0.630559	0.310144
H86	H	1.583046	-0.130559	0.810144
F87	F	0.586390	-0.122395	-0.034771
F88	F	1.086390	0.377605	0.465229
F89	F	1.144978	-0.000106	-0.494235
F90	F	1.644978	0.499894	0.005765
H91	H	0.433027	0.092465	-0.022286
H92	H	0.933027	0.592465	0.477714
H93	H	0.547915	0.135296	0.344109
H94	H	1.047915	0.635296	0.844109
F95	F	0.428298	-0.122973	-0.039404
F96	F	0.928298	0.377027	0.460596
F97	F	0.830416	-0.000041	-0.432421
F98	F	1.330416	0.499959	0.067579
F99	F	0.395461	-0.130550	0.373508
F100	F	0.895461	0.369450	0.873508
F101	F	0.585630	0.122606	-0.034943
F102	F	1.085630	0.622606	0.465057
H103	H	1.130424	-0.000138	-0.236488
H104	H	1.630424	0.499862	0.263512
F105	F	0.412238	0.258066	0.173806
F106	F	0.912238	0.758066	0.673806
H107	H	0.561301	0.227576	0.194770
H108	H	1.061301	0.727576	0.694770
H109	H	0.560176	-0.227680	0.191702
H110	H	1.060176	0.272320	0.691702
H111	H	0.404877	0.136465	0.339170
H112	H	0.904877	0.636465	0.839170
F113	F	0.835194	-0.000061	-0.162017
F114	F	1.335194	0.499939	0.337983
F115	F	0.409022	-0.258720	0.182495
F116	F	0.909022	0.241280	0.682495
