data_functionalizedCrystal
_audit_creation_method	'MofGen! by Chris Wilmer'
_symmetry_space_group_name_H-M	'P1'
_symmetry_Int_Tables_number	1
_symmetry_cell_setting	triclinic
loop_
_symmetry_equiv_pos_as_xyz
  x,y,z
_cell_length_a	11.169417
_cell_length_b	12.759400
_cell_length_c	12.759393
_cell_angle_alpha	89.968436
_cell_angle_beta	89.981972
_cell_angle_gamma	90.015934
loop_
_atom_site_label
_atom_site_type_symbol
_atom_site_fract_x
_atom_site_fract_y
_atom_site_fract_z
Zn1	Zn	1.834908	-0.418169	-0.593968
Zn2	Zn	1.834788	-0.593888	-0.418288
Zn3	Zn	1.634200	-0.418228	-0.418309
Zn4	Zn	1.634187	-0.593811	-0.593931
O5	O	1.734521	-0.506024	-0.506124
O6	O	2.002842	-0.441487	-0.570671
O7	O	1.808134	-0.570643	-0.271270
O8	O	1.660880	-0.271199	-0.441635
O9	O	2.002754	-0.570587	-0.441599
O10	O	1.808340	-0.271156	-0.570691
O11	O	1.660763	-0.441586	-0.271285
O12	O	1.466248	-0.441511	-0.441599
O13	O	1.660858	-0.570455	-0.740957
O14	O	1.466239	-0.570511	-0.570628
O15	O	1.808327	-0.441412	-0.740984
O16	O	1.808122	-0.740899	-0.441564
O17	O	1.660741	-0.740842	-0.570608
C18	C	1.734449	-0.778991	-0.506102
C19	C	1.734529	-0.895768	-0.506128
C20	C	1.422696	-0.506010	-0.506112
C21	C	1.289296	-0.506029	-0.506132
C22	C	1.811355	-0.950625	-0.439009
C23	C	1.811429	-1.060349	-0.439042
C24	C	1.657840	-1.060350	-0.573315
C25	C	1.657773	-0.950628	-0.573287
C26	C	1.900025	-0.950625	-0.361484
C27	C	1.900099	-1.060349	-0.361517
C28	C	2.047563	-0.506039	-0.506137
C29	C	2.180963	-0.506045	-0.506142
C30	C	1.734605	-0.505918	-0.780158
C31	C	1.734640	-0.505873	-0.896934
C32	C	1.734625	-0.231991	-0.506169
C33	C	1.734669	-0.115214	-0.506188
C34	C	1.811438	-0.438674	-0.951812
C35	C	1.811467	-0.438636	-1.061536
C36	C	1.657896	-0.573005	-1.061495
C37	C	1.657863	-0.573037	-0.951773
C38	C	1.900105	-0.361100	-0.951837
C39	C	1.900134	-0.361062	-1.061561
C40	C	1.734506	-0.506054	-0.233157
C41	C	1.734703	-0.505803	-0.116381
H42	H	1.595348	-1.105030	-0.627994
N43	N	1.575029	-0.645498	-0.892563
H44	H	1.519430	-0.602793	-0.847052
H45	H	1.526469	-0.688034	-0.944006
N46	N	2.023247	-0.389932	-1.101028
H47	H	2.083588	-0.337200	-1.074681
H48	H	2.045216	-0.462048	-1.074651
H49	H	1.866754	-0.916678	-0.284158
H50	H	1.875237	-0.279736	-0.922081
N51	N	1.574922	-0.891458	-0.645688
H52	H	1.526307	-0.942863	-0.688232
H53	H	1.519374	-0.846008	-0.602872
N54	N	1.867216	-1.099920	-0.253725
H55	H	1.784862	-1.073646	-0.234292
H56	H	1.867335	-1.179074	-0.253787
N57	N	1.575073	-0.645429	-1.120643
H58	H	1.586739	-0.635207	-1.198479
H59	H	1.593701	-0.720476	-1.101455
N60	N	2.017086	-1.105324	-0.400158
H61	H	2.073557	-1.046353	-0.418811
H62	H	2.053970	-1.149903	-0.343267
H63	H	1.988377	-0.390267	-0.917800
N64	N	2.023098	-0.911051	-0.390433
H65	H	2.083469	-0.937412	-0.337735
H66	H	2.045082	-0.937341	-0.462560
H67	H	1.866875	-0.283753	-1.095609
