data_functionalizedCrystal
_audit_creation_method	'MofGen! by Chris Wilmer'
_symmetry_space_group_name_H-M	'P1'
_symmetry_Int_Tables_number	1
_symmetry_cell_setting	triclinic
loop_
_symmetry_equiv_pos_as_xyz
  x,y,z
_cell_length_a	6.817900
_cell_length_b	19.551823
_cell_length_c	19.551833
_cell_angle_alpha	96.339895
_cell_angle_beta	101.663477
_cell_angle_gamma	101.663376
loop_
_atom_site_label
_atom_site_type_symbol
_atom_site_fract_x
_atom_site_fract_y
_atom_site_fract_z
V1	V	-3.997263	-0.097409	-0.218187
O2	O	-3.994610	0.003927	-0.213698
O3	O	-3.940064	-0.192420	-0.217018
O4	O	-3.940065	-0.096241	-0.313199
O5	O	-3.994609	-0.092918	-0.116851
V6	V	-4.483171	-0.085249	-0.206027
O7	O	-4.253289	-0.124082	-0.244861
O8	O	-4.677342	-0.058575	-0.179354
O9	O	-4.317163	0.009763	-0.207196
O10	O	-4.603221	-0.186584	-0.210517
O11	O	-4.603222	-0.089739	-0.307363
O12	O	-4.317162	-0.086416	-0.111016
C13	C	-3.783209	-0.215571	-0.213660
C14	C	-3.817670	-0.293246	-0.213337
C15	C	-4.015302	-0.333303	-0.216680
C16	C	-4.047686	-0.406288	-0.216384
C17	C	-3.882419	-0.439211	-0.212731
C18	C	-3.684762	-0.399146	-0.209392
C19	C	-3.652387	-0.326163	-0.209695
C20	C	-3.773293	-0.545550	-0.168423
C21	C	-3.805673	-0.618531	-0.168116
C22	C	-3.982268	-0.664314	-0.211800
C23	C	-4.126508	-0.637107	-0.255782
C24	C	-4.094134	-0.564124	-0.256085
C25	C	-3.917504	-0.518348	-0.212403
C26	C	-4.215027	-0.783510	-0.214823
C27	C	-4.247407	-0.856497	-0.214531
C28	C	-3.884473	-0.849352	-0.207532
C29	C	-3.852103	-0.776368	-0.207831
C30	C	-4.017386	-0.743451	-0.211473
C31	C	-3.783210	-0.092885	-0.336346
C32	C	-3.817670	-0.092559	-0.414021
C33	C	-4.015308	-0.095913	-0.454080
C34	C	-4.047687	-0.095607	-0.527063
C35	C	-3.882424	-0.091960	-0.559987
C36	C	-3.684756	-0.088602	-0.519918
C37	C	-3.652379	-0.088901	-0.446935
C38	C	-3.816103	-0.129953	-0.679427
C39	C	-3.848489	-0.129658	-0.752410
C40	C	-3.982277	-0.091034	-0.785091
C41	C	-4.083712	-0.052714	-0.744782
C42	C	-4.051335	-0.053014	-0.671799
C43	C	-3.917511	-0.091635	-0.639125
C44	C	-4.215036	-0.094056	-0.904287
C45	C	-4.247406	-0.093745	-0.977271
C46	C	-3.884473	-0.086747	-0.970126
C47	C	-3.852105	-0.087050	-0.897142
C48	C	-4.017396	-0.090708	-0.864227
C49	C	-4.137360	0.032910	-0.210553
C50	C	-4.082137	0.110585	-0.210880
C51	C	-4.137360	-0.089775	-0.087864
C52	C	-4.082139	-0.090097	-0.010189
H53	H	-4.270119	-0.674394	-0.291450
H54	H	-4.211579	-0.541976	-0.291898
H55	H	-3.550198	-0.085630	-0.546729
H56	H	-3.491449	-0.293549	-0.206974
O57	O	-4.260851	-0.449505	-0.219976
H58	H	-4.366589	-0.444835	-0.269575
O59	O	-4.393287	-0.748001	-0.218767
H60	H	-4.536168	-0.788122	-0.221057
H61	H	-3.765904	-0.160865	-0.785225
H62	H	-4.192659	-0.021265	-0.771389
O63	O	-4.193564	-0.099838	-0.418574
H64	H	-4.336433	-0.102108	-0.458694
O65	O	-3.705905	-0.082934	-1.005462
H66	H	-3.686484	-0.034794	-1.030963
H67	H	-4.208635	-0.098342	-0.559686
O68	O	-4.160693	-0.011676	-0.628318
H69	H	-4.259151	0.015240	-0.663297
H70	H	-4.349625	-0.097031	-0.877486
O71	O	-4.460578	-0.097350	-1.020481
H72	H	-4.570065	-0.099945	-0.985329
O73	O	-3.439208	-0.085284	-0.403717
H74	H	-3.383299	-0.131421	-0.423625
H75	H	-3.688230	-0.640676	-0.132298
O76	O	-3.638928	-0.083433	-0.853934
H77	H	-3.644173	-0.084246	-0.797652
O78	O	-4.193578	-0.297803	-0.220641
H79	H	-4.336456	-0.337926	-0.222931
O80	O	-4.460576	-0.899707	-0.218132
H81	H	-4.570052	-0.864552	-0.220707
H82	H	-3.707136	-0.161401	-0.652824
H83	H	-3.691169	-0.743752	-0.205105
O84	O	-3.706207	-0.884850	-0.203598
H85	H	-3.687356	-0.910305	-0.155420
O86	O	-3.582822	-0.496170	-0.121300
H87	H	-3.487985	-0.527346	-0.090657
H88	H	-3.550203	-0.425956	-0.206420
