data_functionalizedCrystal
_audit_creation_method	'MofGen! by Chris Wilmer'
_symmetry_space_group_name_H-M	'P1'
_symmetry_Int_Tables_number	1
_symmetry_cell_setting	triclinic
loop_
_symmetry_equiv_pos_as_xyz
  x,y,z
_cell_length_a	9.065215
_cell_length_b	17.019294
_cell_length_c	8.140239
_cell_angle_alpha	86.117515
_cell_angle_beta	89.997810
_cell_angle_gamma	84.202625
loop_
_atom_site_label
_atom_site_type_symbol
_atom_site_fract_x
_atom_site_fract_y
_atom_site_fract_z
O1	O	1.957266	0.115651	-0.152952
O2	O	1.527723	0.125141	-0.154302
O3	O	1.754478	0.005649	-0.137386
O4	O	1.730512	0.235143	-0.169868
O5	O	1.754465	0.005648	0.135841
O6	O	1.527711	0.125140	0.118926
O7	O	1.957254	0.115650	0.120275
Zn8	Zn	1.742480	0.120395	0.162981
Zn9	Zn	1.742497	0.120396	-0.197008
O10	O	1.730499	0.235142	0.103360
C11	C	1.472755	0.124229	-0.017560
C12	C	1.308986	0.121504	-0.017177
C13	C	1.753563	-0.023747	0.003384
C14	C	1.750837	-0.111337	0.015771
C15	C	1.749567	-0.152482	-0.127345
C16	C	1.746996	-0.234781	-0.115702
C17	C	1.745706	-0.275935	0.039059
C18	C	1.746972	-0.234784	0.182186
C19	C	1.749532	-0.152486	0.170541
C20	C	1.737966	-0.524423	0.081670
C21	C	1.735410	-0.606727	0.093304
C22	C	1.735431	-0.606718	-0.204585
C23	C	1.738000	-0.524419	-0.216216
C24	C	1.739259	-0.483275	-0.073089
C25	C	1.743083	-0.360058	0.050964
C26	C	1.741871	-0.399152	-0.084996
C27	C	2.012222	0.116562	-0.016470
C28	C	2.175991	0.119288	-0.016864
C29	C	1.731414	0.264538	-0.037414
C30	C	1.734140	0.352128	-0.049812
N31	N	1.742480	0.120393	0.408664
N32	N	1.742509	0.120392	-0.442690
H33	H	1.745968	-0.268278	-0.232243
N34	N	1.739346	-0.480053	0.236034
H35	H	1.647496	-0.488639	0.302370
H36	H	1.830372	-0.500143	0.303848
H37	H	1.742038	-0.393575	0.176971
H38	H	1.745913	-0.268298	0.308195
N39	N	1.734072	-0.651094	-0.358949
H40	H	1.732254	-0.709474	-0.328096
H41	H	1.643112	-0.630965	-0.426837
H42	H	1.750546	-0.118986	0.287081
H43	H	1.739052	-0.490917	-0.342239
N44	N	1.743167	-0.354734	-0.251882
H45	H	1.835608	-0.326307	-0.262562
H46	H	1.741891	-0.393305	-0.340734
N47	N	1.734032	-0.651122	0.260229
H48	H	1.643064	-0.631072	0.322514
H49	H	1.732288	-0.709489	0.245728
N50	N	1.750971	-0.108098	-0.294267
H51	H	1.749773	-0.146654	-0.383162
H52	H	1.660624	-0.068209	-0.306404
