data_functionalizedCrystal
_audit_creation_method	'MofGen! by Chris Wilmer'
_symmetry_space_group_name_H-M	'P1'
_symmetry_Int_Tables_number	1
_symmetry_cell_setting	triclinic
loop_
_symmetry_equiv_pos_as_xyz
  x,y,z
_cell_length_a	23.532407
_cell_length_b	23.532407
_cell_length_c	12.503552
_cell_angle_alpha	93.487041
_cell_angle_beta	93.495659
_cell_angle_gamma	97.151283
loop_
_atom_site_label
_atom_site_type_symbol
_atom_site_fract_x
_atom_site_fract_y
_atom_site_fract_z
O1	O	0.758562	-0.065828	0.089209
O2	O	1.258562	0.434172	0.589209
O3	O	0.592700	-0.075830	0.089244
O4	O	1.092700	0.424170	0.589244
O5	O	0.680631	0.012101	0.089190
O6	O	1.180631	0.512101	0.589190
O7	O	0.670631	-0.153759	0.089263
O8	O	1.170631	0.346241	0.589263
O9	O	0.674011	0.005482	-0.089448
O10	O	1.174011	0.505482	0.410552
O11	O	0.586079	-0.082449	-0.089394
O12	O	1.086079	0.417551	0.410606
O13	O	0.751941	-0.072447	-0.089429
O14	O	1.251941	0.427553	0.410571
Cu15	Cu	0.668406	-0.078052	-0.105723
Cu16	Cu	1.168406	0.421948	0.394277
Cu17	Cu	0.676235	-0.070225	0.105538
Cu18	Cu	1.176235	0.429775	0.605538
O19	O	0.664010	-0.160378	-0.089375
O20	O	1.164010	0.339622	0.410625
C21	C	0.568174	-0.078885	-0.000071
C22	C	1.068174	0.421115	0.499929
C23	C	0.504957	-0.078118	-0.000060
C24	C	1.004957	0.421882	0.499940
C25	C	0.677066	0.030008	-0.000136
C26	C	1.177066	0.530008	0.499864
C27	C	0.676299	0.093224	-0.000156
C28	C	1.176299	0.593224	0.499844
N29	N	0.662903	-0.083557	-0.254312
N30	N	1.162903	0.416443	0.245688
C31	C	0.105853	-0.125353	-0.000087
C32	C	0.605853	0.374647	0.499913
C33	C	0.046453	-0.124642	-0.000094
C34	C	0.546453	0.375358	0.499906
O35	O	0.009707	-0.168428	-0.000114
O36	O	0.509707	0.331572	0.499886
N37	N	0.023826	-0.072366	-0.000116
N38	N	0.523826	0.427634	0.499884
C39	C	0.060602	-0.020799	-0.000141
C40	C	0.560602	0.479201	0.499859
O41	O	0.035902	0.023731	-0.000161
O42	O	0.535902	0.523731	0.499839
C43	C	0.120001	-0.021511	-0.000142
C44	C	0.620001	0.478489	0.499858
C45	C	0.142625	-0.073789	-0.000109
C46	C	0.642625	0.426211	0.499891
C47	C	0.128477	-0.177627	-0.000056
C48	C	0.628477	0.322373	0.499944
C49	C	0.187874	-0.178338	-0.000048
C50	C	0.687874	0.321662	0.499952
C51	C	0.224646	-0.126775	-0.000070
C52	C	0.724646	0.373225	0.499930
C53	C	0.202022	-0.074500	-0.000101
C54	C	0.702022	0.425500	0.499899
C55	C	0.156776	0.030056	-0.000175
C56	C	0.656776	0.530056	0.499825
C57	C	0.216179	0.029339	-0.000176
C58	C	0.716179	0.529339	0.499824
C59	C	0.238803	-0.022940	-0.000144
C60	C	0.738803	0.477060	0.499856
C61	C	0.298190	-0.023648	-0.000114
C62	C	0.798190	0.476352	0.499886
N63	N	0.320817	-0.075923	-0.000092
N64	N	0.820817	0.424077	0.499908
C65	C	0.284045	-0.127487	-0.000070
C66	C	0.784045	0.372513	0.499930
C67	C	-0.064140	-0.019307	-0.000141
C68	C	0.435860	0.480693	0.499859
C69	C	-0.123538	-0.018594	-0.000133
C70	C	0.376462	0.481406	0.499867
C71	C	-0.137684	-0.122438	-0.000088
C72	C	0.362316	0.377562	0.499912
C73	C	-0.078285	-0.123150	-0.000089
C74	C	0.421715	0.376850	0.499911
C75	C	-0.041513	-0.071583	-0.000120
C76	C	0.458487	0.428417	0.499880
C77	C	0.408783	-0.128976	-0.000051
C78	C	0.908783	0.371024	0.499949
C79	C	0.468185	-0.129682	-0.000037
C80	C	0.968185	0.370318	0.499963
C81	C	0.482325	-0.025839	-0.000088
C82	C	0.982325	0.474161	0.499912
C83	C	0.422928	-0.025132	-0.000095
C84	C	0.922928	0.474868	0.499905
C85	C	0.386158	-0.076705	-0.000081
C86	C	0.886158	0.423295	0.499919
O87	O	0.334970	0.020116	-0.000098
O88	O	0.834970	0.520116	0.499902
O89	O	0.308753	-0.172009	-0.000065
O90	O	0.808753	0.327991	0.499935
C91	C	0.776468	-0.069392	-0.000112
C92	C	1.276468	0.430608	0.499888
C93	C	0.839685	-0.070158	-0.000116
C94	C	1.339685	0.429842	0.499884
C95	C	0.621106	0.359394	-0.000095
C96	C	1.121106	0.859394	0.499905
C97	C	0.621817	0.299993	-0.000100
C98	C	1.121817	0.799993	0.499900
O99	O	0.578033	0.263250	-0.000054
O100	O	1.078033	0.763250	0.499946
N101	N	0.674093	0.277366	-0.000121
N102	N	1.174093	0.777366	0.499879
C103	C	0.725661	0.314144	-0.000128
C104	C	1.225661	0.814144	0.499872
O105	O	0.770191	0.289443	-0.000145
O106	O	1.270191	0.789443	0.499855
C107	C	0.724949	0.373543	-0.000115
C108	C	1.224949	0.873543	0.499885
C109	C	0.672670	0.396166	-0.000105
C110	C	1.172670	0.896166	0.499895
C111	C	0.568831	0.382017	-0.000083
C112	C	1.068831	0.882017	0.499917
C113	C	0.568120	0.441414	-0.000081
C114	C	1.068120	0.941414	0.499919
C115	C	0.619684	0.478186	-0.000090
C116	C	1.119684	0.978186	0.499910
C117	C	0.671959	0.455562	-0.000102
C118	C	1.171959	0.955562	0.499898
C119	C	0.776517	0.410319	-0.000114
C120	C	1.276517	0.910319	0.499886
C121	C	0.775801	0.469722	-0.000101
C122	C	1.275801	0.969722	0.499899
C123	C	0.723522	0.492346	-0.000090
C124	C	1.223522	0.992346	0.499910
C125	C	0.722812	0.551731	-0.000109
C126	C	1.222812	1.051731	0.499891
N127	N	0.670536	0.574358	-0.000087
N128	N	1.170536	1.074358	0.499913
C129	C	0.618972	0.537586	-0.000078
C130	C	1.118972	1.037586	0.499922
C131	C	0.727151	0.189400	-0.000151
C132	C	1.227151	0.689400	0.499849
C133	C	0.727863	0.130001	-0.000171
C134	C	1.227863	0.630001	0.499829
C135	C	0.624020	0.115855	-0.000141
C136	C	1.124020	0.615855	0.499859
C137	C	0.623308	0.175255	-0.000129
C138	C	1.123308	0.675255	0.499871
C139	C	0.674876	0.212027	-0.000130
C140	C	1.174876	0.712027	0.499870
C141	C	0.617483	0.662323	-0.000073
C142	C	1.117483	1.162323	0.499927
C143	C	0.616776	0.721725	-0.000075
C144	C	1.116776	1.221725	0.499925
C145	C	0.720620	0.735866	-0.000100
C146	C	1.220620	1.235866	0.499900
C147	C	0.721326	0.676469	-0.000103
C148	C	1.221326	1.176469	0.499897
C149	C	0.669753	0.639698	-0.000087
C150	C	1.169753	1.139698	0.499913
O151	O	0.766573	0.588509	-0.000150
O152	O	1.266573	1.088509	0.499850
O153	O	0.574450	0.562295	-0.000046
O154	O	1.074450	1.062295	0.499954
C155	C	0.667575	0.821715	-0.000063
C156	C	1.167575	1.321715	0.499937
C157	C	0.668340	0.758497	-0.000085
C158	C	1.168340	1.258497	0.499915
C159	C	0.689835	-0.056615	-0.526762
C160	C	1.189835	0.443385	-0.026762
C161	C	0.654813	-0.091655	-0.473416
C162	C	1.154813	0.408345	0.026584
C163	C	0.659316	-0.087148	-0.351495
C164	C	1.159316	0.412852	0.148505
C165	C	0.685333	-0.061121	-0.648694
C166	C	1.185333	0.438879	-0.148694
N167	N	0.681743	-0.064715	0.254127
N168	N	1.181743	0.435285	0.754127
H169	H	0.378850	-0.170971	-0.000042
H170	H	0.878850	0.329029	0.499958
O171	O	0.615060	-0.131470	-0.528326
O172	O	1.115060	0.368530	-0.028326
C173	C	0.619350	-0.127161	-0.639598
C174	C	1.119350	0.372839	-0.139598
H175	H	0.664183	-0.106168	-0.654829
H176	H	1.164183	0.393832	-0.154829
H177	H	0.611243	-0.171883	-0.682413
H178	H	1.111243	0.328117	-0.182413
H179	H	0.586095	-0.099948	-0.671530
H180	H	1.086095	0.400052	-0.171530
O181	O	0.729717	-0.016822	-0.472148
O182	O	1.229717	0.483178	0.027852
C183	C	0.785049	-0.026775	-0.499518
C184	C	1.285049	0.473225	0.000482
H185	H	0.781887	-0.051701	-0.581196
H186	H	1.281887	0.448299	-0.081196
H187	H	0.813186	0.016051	-0.503245
H188	H	1.313186	0.516051	-0.003245
H189	H	0.804815	-0.052723	-0.436248
H190	H	1.304815	0.447277	0.063752
H191	H	0.206288	-0.220908	-0.000021
H192	H	0.706288	0.279092	0.499979
O193	O	0.490096	-0.180499	0.000136
O194	O	0.990096	0.319501	0.500136
C195	C	0.474705	-0.208474	0.092680
C196	C	0.974705	0.291526	0.592680
H197	H	0.434732	-0.192046	0.123511
H198	H	0.934732	0.307954	0.623511
H199	H	0.465426	-0.256719	0.071895
H200	H	0.965426	0.243281	0.571895
H201	H	0.511512	-0.199281	0.157468
H202	H	1.011512	0.300719	0.657468
O203	O	0.092845	-0.227771	0.000016
O204	O	0.592845	0.272229	0.500016
C205	C	0.125563	-0.274055	0.000015
C206	C	0.625563	0.225945	0.500015
H207	H	0.171229	-0.258077	0.033820
H208	H	0.671229	0.241923	0.533820
H209	H	0.105382	-0.308242	0.051903
H210	H	0.605382	0.191758	0.551903
H211	H	0.126533	-0.293274	-0.085678
H212	H	0.626533	0.206726	0.414322
O213	O	0.825853	0.505494	-0.000247
O214	O	1.325853	1.005494	0.499753
C215	C	0.825131	0.536852	-0.092777
C216	C	1.325131	1.036852	0.407223
H217	H	0.778803	0.538473	-0.123614
H218	H	1.278803	1.038473	0.376386
H219	H	0.847380	0.582383	-0.071969
H220	H	1.347380	1.082383	0.428031
H221	H	0.848627	0.515058	-0.157567
H222	H	1.348627	1.015058	0.342433
H223	H	-0.167635	-0.164423	-0.000075
H224	H	0.332365	0.335577	0.499925
O225	O	-0.056407	-0.173985	-0.000113
O226	O	0.443593	0.326015	0.499887
C227	C	-0.101606	-0.219338	-0.000061
C228	C	0.398394	0.280662	0.499939
H229	H	-0.143124	-0.204857	-0.033884
H230	H	0.356876	0.295143	0.466116
H231	H	-0.091317	-0.257780	-0.051908
H232	H	0.408683	0.242220	0.448092
H233	H	-0.106926	-0.232050	0.085649
H234	H	0.393074	0.267950	0.585649
O235	O	0.518759	0.346286	0.000114
O236	O	1.018759	0.846286	0.500114
C237	C	0.519486	0.314901	0.092609
C238	C	1.019486	0.814901	0.592609
H239	H	0.551134	0.339193	0.157276
H240	H	1.051134	0.839193	0.657276
H241	H	0.474722	0.309125	0.123668
H242	H	0.974722	0.809125	0.623668
H243	H	0.533189	0.271008	0.071677
H244	H	1.033189	0.771008	0.571677
O245	O	0.778668	0.108063	-0.000003
O246	O	1.278668	0.608063	0.499997
C247	C	0.813514	0.130312	0.092495
C248	C	1.313514	0.630312	0.592495
H249	H	0.785334	0.144885	0.157169
H250	H	1.285334	0.644885	0.657169
H251	H	0.838689	0.095608	0.123542
H252	H	1.338689	0.595608	0.623542
H253	H	0.844695	0.168434	0.071571
H254	H	1.344695	0.668434	0.571571
O255	O	0.518130	0.024193	-0.000160
O256	O	1.018130	0.524193	0.499840
C257	C	0.575408	0.012349	-0.000125
C258	C	1.075408	0.512349	0.499875
H259	H	0.576183	-0.033625	-0.033914
H260	H	1.076183	0.466375	0.466086
H261	H	0.600585	0.043309	-0.052012
H262	H	1.100585	0.543309	0.447988
H263	H	0.595772	0.017787	0.085575
H264	H	1.095772	0.517787	0.585575
O265	O	-0.145418	0.032238	-0.000199
O266	O	0.354582	0.532238	0.499801
C267	C	-0.100216	0.077593	-0.000186
C268	C	0.399784	0.577593	0.499814
H269	H	-0.061201	0.060607	-0.033994
H270	H	0.438799	0.560607	0.466006
H271	H	-0.114344	0.112193	-0.052067
H272	H	0.385656	0.612193	0.447933
H273	H	-0.088553	0.096656	0.085510
H274	H	0.411447	0.596656	0.585510
O275	O	-0.028359	0.030757	-0.000010
O276	O	0.471641	0.530757	0.499990
C277	C	0.009836	0.036889	0.092524
C278	C	0.509836	0.536889	0.592524
H279	H	0.013740	-0.007154	0.123383
H280	H	0.513740	0.492846	0.623383
H281	H	0.053828	0.057599	0.071712
H282	H	0.553828	0.557599	0.571712
H283	H	-0.007173	0.065179	0.157299
H284	H	0.492827	0.565179	0.657299
H285	H	0.574202	0.740140	-0.000071
H286	H	1.074202	1.240140	0.499929
O287	O	0.134902	0.080888	-0.000263
O288	O	0.634902	0.580888	0.499737
C289	C	0.180106	0.126239	-0.000266
C290	C	0.680106	0.626239	0.499734
H291	H	0.219120	0.109245	-0.034065
H292	H	0.719120	0.609245	0.465935
H293	H	0.165982	0.160834	-0.052162
H294	H	0.665982	0.660834	0.447838
H295	H	0.191770	0.145310	0.085425
H296	H	0.691770	0.645310	0.585425
H297	H	0.404508	0.017438	-0.000106
H298	H	0.904508	0.517438	0.499894
O299	O	0.251961	0.079401	-0.000059
O300	O	0.751961	0.579401	0.499941
C301	C	0.290155	0.085535	0.092476
C302	C	0.790155	0.585535	0.592476
H303	H	0.294055	0.041494	0.123346
H304	H	0.794055	0.541494	0.623346
H305	H	0.334149	0.106241	0.071663
H306	H	0.834149	0.606241	0.571663
H307	H	0.273147	0.113832	0.157245
H308	H	0.773147	0.613832	0.657245
O309	O	0.573897	0.080192	0.000021
O310	O	1.073897	0.580192	0.500021
C311	C	0.545575	0.093805	0.092566
C312	C	1.045575	0.593805	0.592566
H313	H	0.560961	0.140084	0.123408
H314	H	1.060961	0.640084	0.623408
H315	H	0.497280	0.088592	0.071778
H316	H	0.997280	0.588592	0.571778
H317	H	0.555581	0.063748	0.157346
H318	H	1.055581	0.563748	0.657346
O319	O	0.567354	0.626672	0.000081
O320	O	1.067354	1.126672	0.500081
C321	C	0.539029	0.640292	0.092619
C322	C	1.039029	1.140292	0.592619
H323	H	0.554425	0.686568	0.123467
H324	H	1.054425	1.186568	0.623467
H325	H	0.490736	0.635093	0.071817
H326	H	0.990736	1.135093	0.571817
H327	H	0.549020	0.610231	0.157399
H328	H	1.049020	1.110231	0.657399
O329	O	0.517328	0.463364	0.000132
O330	O	1.017328	0.963364	0.500132
C331	C	0.489346	0.447939	0.092647
C332	C	0.989346	0.947939	0.592647
H333	H	0.522324	0.438141	0.157296
H334	H	1.022324	0.938141	0.657296
H335	H	0.466471	0.484932	0.123721
H336	H	0.966471	0.984932	0.623721
H337	H	0.456616	0.408271	0.071736
H338	H	0.956616	0.908271	0.571736
O339	O	0.777205	0.225171	-0.000309
O340	O	1.277205	0.725171	0.499691
C341	C	0.776480	0.256531	-0.092836
C342	C	1.276480	0.756531	0.407164
H343	H	0.730151	0.258155	-0.123665
H344	H	1.230151	0.758155	0.376335
H345	H	0.798732	0.302060	-0.072029
H346	H	1.298732	0.802060	0.427971
H347	H	0.799970	0.234736	-0.157634
H348	H	1.299970	0.734736	0.342366
H349	H	0.819088	0.391911	-0.000122
H350	H	1.319088	0.891911	0.499878
O351	O	0.772129	0.654521	0.000073
O352	O	1.272129	1.154521	0.500073
C353	C	0.806973	0.676772	0.092572
C354	C	1.306973	1.176772	0.592572
H355	H	0.778792	0.691353	0.157237
H356	H	1.278792	1.191353	0.657237
H357	H	0.832141	0.642065	0.123634
H358	H	1.332141	1.142065	0.623634
H359	H	0.838161	0.714887	0.071645
H360	H	1.338161	1.214887	0.571645
O361	O	0.770656	0.771675	-0.000060
O362	O	1.270656	1.271675	0.499940
C363	C	0.758810	0.828950	-0.000077
C364	C	1.258810	1.328950	0.499923
H365	H	0.715342	0.832224	0.033748
H366	H	1.215342	1.332224	0.533748
H367	H	0.793616	0.857961	0.051787
H368	H	1.293616	1.357961	0.551787
H369	H	0.757895	0.842981	-0.085777
H370	H	1.257895	1.342981	0.414223
H371	H	0.580737	0.193670	-0.000125
H372	H	1.080737	0.693670	0.499875
