data_functionalizedCrystal
_audit_creation_method	'MofGen! by Chris Wilmer'
_symmetry_space_group_name_H-M	'P1'
_symmetry_Int_Tables_number	1
_symmetry_cell_setting	triclinic
loop_
_symmetry_equiv_pos_as_xyz
  x,y,z
_cell_length_a	8.597340
_cell_length_b	7.088929
_cell_length_c	8.634740
_cell_angle_alpha	97.190115
_cell_angle_beta	92.880176
_cell_angle_gamma	76.045281
loop_
_atom_site_label
_atom_site_type_symbol
_atom_site_fract_x
_atom_site_fract_y
_atom_site_fract_z
O1	O	2.133928	-0.192544	0.211732
O2	O	1.673116	-0.116631	0.236900
O3	O	1.881709	-0.150997	-0.000131
O4	O	1.925335	-0.158178	0.448763
O5	O	1.909575	-0.473563	-0.031879
O6	O	1.700981	-0.439197	0.205152
O7	O	2.161794	-0.515110	0.179984
Cu8	Cu	1.933932	-0.506606	0.189669
Cu9	Cu	1.900978	-0.125135	0.227215
O10	O	1.953200	-0.480744	0.417015
C11	C	1.627442	-0.268095	0.220092
C12	C	1.449829	-0.238835	0.217290
N13	N	1.957121	-0.774915	0.163260
C14	C	2.207467	-0.363642	0.196793
C15	C	2.385079	-0.392889	0.199596
C16	C	1.885759	-0.310649	-0.073441
C17	C	1.856290	-0.305785	-0.244584
N18	N	1.877799	0.143172	0.253612
C19	C	1.949151	-0.321088	0.490326
C20	C	1.978618	-0.325939	0.661469
H21	H	1.465522	-0.547173	0.186580
C22	C	1.246797	-0.004530	0.366864
C23	C	1.341239	-0.030536	0.234859
H24	H	1.179767	0.124068	0.377714
H25	H	1.182382	-0.097239	0.355376
H26	H	1.314199	-0.022750	0.457032
H27	H	1.273836	-0.012330	0.144689
H28	H	1.405659	0.062201	0.246336
C29	C	1.820111	-0.785346	0.526811
C30	C	1.766810	-0.728333	0.380010
H31	H	1.751594	-0.706000	0.604844
H32	H	1.818527	-0.918564	0.528609
H33	H	1.926356	-0.770107	0.546547
H34	H	1.660568	-0.743586	0.360269
H35	H	1.768378	-0.595083	0.378209
C36	C	2.014814	-0.846396	-0.109944
C37	C	2.068117	-0.903417	0.036854
H38	H	2.083343	-0.925722	-0.187977
H39	H	1.908587	-0.861642	-0.129686
H40	H	2.016391	-0.713156	-0.111731
H41	H	2.066528	-1.036653	0.038645
H42	H	2.174372	-0.888188	0.056601
H43	H	1.729017	-0.284811	-0.295081
C44	C	2.244465	-0.533182	-0.336707
C45	C	2.150450	-0.354238	-0.270371
H46	H	2.350546	-0.550640	-0.294634
H47	H	2.200110	-0.636738	-0.313844
H48	H	2.246517	-0.533507	-0.446635
H49	H	2.148388	-0.353918	-0.160445
H50	H	2.194816	-0.250655	-0.293223
