data_functionalizedCrystal
_audit_creation_method	'MofGen! by Chris Wilmer'
_symmetry_space_group_name_H-M	'P1'
_symmetry_Int_Tables_number	1
_symmetry_cell_setting	triclinic
loop_
_symmetry_equiv_pos_as_xyz
  x,y,z
_cell_length_a	19.121241
_cell_length_b	19.121111
_cell_length_c	18.101389
_cell_angle_alpha	87.582594
_cell_angle_beta	87.539120
_cell_angle_gamma	84.995459
loop_
_atom_site_label
_atom_site_type_symbol
_atom_site_fract_x
_atom_site_fract_y
_atom_site_fract_z
Zn1	Zn	1.063720	0.234381	-0.477201
Zn2	Zn	1.058610	0.352043	-0.358419
Zn3	Zn	0.946057	0.239400	-0.348298
Zn4	Zn	0.940992	0.357021	-0.477143
O5	O	1.002345	0.295711	-0.415265
O6	O	1.161508	0.245805	-0.465705
O7	O	1.043660	0.337118	-0.253443
O8	O	0.965923	0.140268	-0.361186
O9	O	1.157753	0.332251	-0.378436
O10	O	1.052370	0.136581	-0.455891
O11	O	0.960968	0.254360	-0.246007
O12	O	0.846919	0.259187	-0.361129
O13	O	0.957292	0.340735	-0.580783
O14	O	0.843199	0.345602	-0.455791
O15	O	1.047459	0.250633	-0.580826
O16	O	1.038749	0.451169	-0.378379
O17	O	0.952337	0.454827	-0.465605
C18	C	0.819528	0.303480	-0.407356
C19	C	0.741317	0.306820	-0.403990
C20	C	0.706526	0.263454	-0.447921
C21	C	0.633039	0.266589	-0.444752
C22	C	0.594345	0.313095	-0.397657
C23	C	0.629141	0.356464	-0.353721
C24	C	0.702627	0.353324	-0.356886
C25	C	0.372367	0.324819	-0.385819
C26	C	0.298876	0.327956	-0.382659
C27	C	0.302780	0.238080	-0.473690
C28	C	0.376267	0.234948	-0.476854
C29	C	0.411057	0.278314	-0.432916
C30	C	0.519229	0.316303	-0.394418
C31	C	0.486171	0.275102	-0.436150
C32	C	0.994458	0.478529	-0.423101
C33	C	0.991148	0.556736	-0.426481
C34	C	1.034619	0.591549	-0.382695
C35	C	1.031511	0.665033	-0.385878
C36	C	0.984927	0.703702	-0.432843
C37	C	0.941455	0.668885	-0.476634
C38	C	0.944567	0.595402	-0.473454
C39	C	0.973280	0.925669	-0.444718
C40	C	0.970169	0.999157	-0.447893
C41	C	1.060226	0.995300	-0.357138
C42	C	1.063332	0.921816	-0.353959
C43	C	1.019862	0.887005	-0.397752
C44	C	0.981747	0.778815	-0.436097
C45	C	1.023046	0.811893	-0.394502
C46	C	1.185875	0.287913	-0.423206
C47	C	1.264085	0.284590	-0.426589
C48	C	1.002380	0.295679	-0.608427
C49	C	1.002396	0.295666	-0.690741
C50	C	1.010276	1.112180	-0.407425
C51	C	1.013640	1.033970	-0.404107
C52	C	1.002424	0.295610	-0.841449
C53	C	0.945703	0.352289	-0.872775
C54	C	0.945513	0.352106	-0.958377
C55	C	1.002453	0.295556	-0.989830
C56	C	0.985770	0.222201	-0.954699
C57	C	0.985345	0.222564	-0.869051
C58	C	1.076000	0.311620	-0.877051
C59	C	1.075547	0.313241	-0.962754
C60	C	1.002470	0.295521	-1.073689
C61	C	1.002406	0.295640	-0.757590
C62	C	1.002352	0.295691	-0.222854
C63	C	1.002481	0.295500	-0.140537
H64	H	0.517680	0.237235	-0.474492
H65	H	1.072549	0.560068	-0.344448
C66	C	0.749088	0.212295	-0.499726
C67	C	0.798313	0.240698	-0.561305
C68	C	0.840873	0.189535	-0.613109
C69	C	0.834208	0.109969	-0.603334
C70	C	0.784981	0.081561	-0.541752
C71	C	0.742421	0.132724	-0.489948
H72	H	0.803248	0.299602	-0.568544
H73	H	0.877313	0.210565	-0.658696
H74	H	0.865714	0.072095	-0.641682
H75	H	0.780046	0.022657	-0.534514
H76	H	0.705981	0.111694	-0.444362
H77	H	0.604716	0.231277	-0.480527
C78	C	0.418820	0.183788	-0.528665
C79	C	0.408480	0.190078	-0.612658
C80	C	0.451028	0.138919	-0.664475
C81	C	0.503917	0.081471	-0.632299
C82	C	0.514259	0.075178	-0.548302
C83	C	0.471711	0.126337	-0.496485
H84	H	0.369326	0.232607	-0.636480
H85	H	0.443372	0.143577	-0.726656
H86	H	0.535413	0.043600	-0.670658
H87	H	0.553412	0.032649	-0.524479
H88	H	0.479367	0.121679	-0.434304
C89	C	0.925462	0.887387	-0.492891
C90	C	0.845043	0.900967	-0.483763
C91	C	0.797223	0.862684	-0.531941
C92	C	0.829821	0.810821	-0.589247
C93	C	0.910244	0.797239	-0.598378
C94	C	0.958064	0.835522	-0.550200
H95	H	0.820908	0.939361	-0.441339
H96	H	0.737689	0.872739	-0.525182
H97	H	0.794422	0.782482	-0.624912
H98	H	0.934379	0.758845	-0.640802
H99	H	1.017599	0.825468	-0.556959
H100	H	0.730952	0.388638	-0.321113
H101	H	0.955584	0.406968	-0.855082
C102	C	1.097403	0.382455	-0.852024
C103	C	1.105532	0.393962	-0.769249
C104	C	1.126926	0.464800	-0.744222
C105	C	1.140191	0.524130	-0.801969
C106	C	1.132062	0.512624	-0.884749
C107	C	1.110668	0.441786	-0.909777
H108	H	1.095712	0.350041	-0.726497
H109	H	1.132944	0.473316	-0.682942
H110	H	1.156028	0.576568	-0.783442
H111	H	1.141882	0.556545	-0.927502
H112	H	1.104650	0.433270	-0.971057
H113	H	0.891428	0.342065	-0.848346
C114	C	0.476660	0.367463	-0.342620
C115	C	0.427432	0.339055	-0.281047
C116	C	0.384860	0.390214	-0.229249
C117	C	0.391516	0.469782	-0.239023
C118	C	0.440746	0.498195	-0.300599
C119	C	0.483318	0.447035	-0.352397
H120	H	0.422503	0.280150	-0.273809
H121	H	0.348417	0.369181	-0.183667
H122	H	0.360002	0.507653	-0.200679
H123	H	0.445675	0.557099	-0.307837
H124	H	0.519762	0.468069	-0.397980
C125	C	0.871794	0.338062	-0.982110
C126	C	0.812914	0.326975	-0.923137
C127	C	0.739194	0.312921	-0.946868
C128	C	0.724354	0.309954	-1.029573
C129	C	0.783236	0.321041	-1.088551
C130	C	0.856956	0.335096	-1.064819
H131	H	0.823898	0.329171	-0.861909
H132	H	0.695606	0.304713	-0.903208
H133	H	0.669782	0.299550	-1.047140
H134	H	0.772252	0.318845	-1.149778
H135	H	0.900544	0.343303	-1.108479
H136	H	1.101264	0.890332	-0.315716
H137	H	0.931666	0.208653	-0.846030
H138	H	1.066909	0.693374	-0.350223
H139	H	0.903529	0.700375	-0.514877
H140	H	1.025048	0.179049	-0.848155
C141	C	1.108047	1.033594	-0.308974
C142	C	1.104630	1.114421	-0.312469
C143	C	1.152455	1.152714	-0.264306
C144	C	1.203697	1.110179	-0.212647
C145	C	1.207116	1.029347	-0.209150
C146	C	1.159290	0.991054	-0.257314
H147	H	1.066696	1.145913	-0.350712
H148	H	1.149924	1.212552	-0.266895
H149	H	1.239100	1.138526	-0.176993
H150	H	1.245050	0.997855	-0.170907
H151	H	1.161821	0.931216	-0.254725
C152	C	0.264509	0.190373	-0.522010
C153	C	0.212691	0.223090	-0.579235
C154	C	0.174420	0.175378	-0.627554
C155	C	0.187966	0.094949	-0.618649
C156	C	0.239787	0.062227	-0.561422
C157	C	0.278058	0.109940	-0.513102
H158	H	0.202660	0.282633	-0.585829
H159	H	0.136059	0.199601	-0.669917
H160	H	0.159636	0.059629	-0.654417
H161	H	0.249817	0.002685	-0.554827
H162	H	0.316419	0.085717	-0.470739
H163	H	1.088188	0.367212	-0.986063
H164	H	0.267373	0.365830	-0.344307
H165	H	1.025964	0.178938	-0.974923
C166	C	0.586578	0.407621	-0.301915
C167	C	0.537349	0.379216	-0.240342
C168	C	0.494787	0.430376	-0.188537
C169	C	0.501454	0.509943	-0.198306
C170	C	0.550685	0.538353	-0.259883
C171	C	0.593247	0.487192	-0.311687
H172	H	0.532411	0.320312	-0.233108
H173	H	0.458342	0.409345	-0.142955
H174	H	0.469947	0.547815	-0.159958
H175	H	0.555622	0.597256	-0.267117
H176	H	0.629691	0.508223	-0.357270
C177	C	0.896747	0.557104	-0.521616
C178	C	0.816328	0.570677	-0.512483
C179	C	0.768509	0.532380	-0.560648
C180	C	0.801108	0.480509	-0.617946
C181	C	0.881531	0.466933	-0.627081
C182	C	0.929350	0.505231	-0.578916
H183	H	0.792192	0.609077	-0.470066
H184	H	0.708974	0.542430	-0.553886
H185	H	0.765709	0.452159	-0.653601
H186	H	0.905667	0.428533	-0.669499
H187	H	0.988885	0.495181	-0.585679
C188	C	0.914085	0.202973	-0.979571
C189	C	0.854695	0.190458	-0.921615
C190	C	0.783008	0.171234	-0.946485
C191	C	0.770710	0.164526	-1.029313
C192	C	0.830102	0.177041	-1.087275
C193	C	0.901789	0.196264	-1.062404
H194	H	0.863797	0.195424	-0.860296
H195	H	0.739043	0.161970	-0.903578
H196	H	0.717643	0.150295	-1.047724
H197	H	0.821000	0.172075	-1.148593
H198	H	0.945754	0.205529	-1.105312
C199	C	1.074286	0.769358	-0.342842
C200	C	1.045960	0.720194	-0.281179
C201	C	1.097198	0.677651	-0.229516
C202	C	1.176762	0.684274	-0.239516
C203	C	1.205093	0.733441	-0.301181
C204	C	1.153855	0.775983	-0.352844
H205	H	0.987058	0.715289	-0.273775
H206	H	1.076226	0.641254	-0.183867
H207	H	1.214692	0.652781	-0.201272
H208	H	1.263995	0.738345	-0.308586
H209	H	1.174827	0.812380	-0.398493
H210	H	0.932244	1.030640	-0.486151
H211	H	0.943818	0.810308	-0.474334
H212	H	0.955556	0.406592	-0.982294
H213	H	1.118218	0.270297	-0.856838
C214	C	1.135337	0.261202	-0.992003
C215	C	1.118760	0.201468	-1.041203
C216	C	1.178548	0.149422	-1.070451
C217	C	1.254912	0.157109	-1.050498
C218	C	1.271492	0.216845	-1.001295
C219	C	1.211705	0.268891	-0.972048
H220	H	1.062228	0.195776	-1.055976
H221	H	1.166274	0.105201	-1.106874
H222	H	1.299171	0.118581	-1.072148
H223	H	1.328025	0.222537	-0.986522
H224	H	1.223979	0.313112	-0.935624
H225	H	0.400684	0.360131	-0.350042
