data_functionalizedCrystal
_audit_creation_method	'MofGen! by Chris Wilmer'
_symmetry_space_group_name_H-M	'P1'
_symmetry_Int_Tables_number	1
_symmetry_cell_setting	triclinic
loop_
_symmetry_equiv_pos_as_xyz
  x,y,z
_cell_length_a	17.640112
_cell_length_b	15.297510
_cell_length_c	15.296720
_cell_angle_alpha	72.679116
_cell_angle_beta	108.496995
_cell_angle_gamma	71.421390
loop_
_atom_site_label
_atom_site_type_symbol
_atom_site_fract_x
_atom_site_fract_y
_atom_site_fract_z
Zn1	Zn	1.145848	0.141298	-0.270550
Zn2	Zn	1.145745	0.269950	-0.141979
Zn3	Zn	1.031678	0.146303	-0.146881
Zn4	Zn	0.971204	0.345525	-0.346061
O5	O	1.073619	0.225769	-0.226368
O6	O	1.266661	0.124641	-0.219842
O7	O	1.155879	0.224014	-0.005464
O8	O	1.072175	0.008423	-0.133737
O9	O	1.266585	0.219161	-0.125380
O10	O	1.156055	0.004746	-0.224596
O11	O	1.072075	0.133171	-0.009066
O12	O	0.902830	0.206454	-0.206957
O13	O	0.969105	0.347968	-0.473210
O14	O	0.858399	0.352821	-0.353293
O15	O	1.097415	0.197924	-0.417733
O16	O	1.097239	0.417191	-0.198600
O17	O	0.969005	0.472716	-0.348539
C18	C	0.849285	0.288382	-0.288852
C19	C	0.753306	0.315197	-0.315611
C20	C	1.026568	0.480531	-0.281247
C21	C	1.006512	0.589504	-0.304735
C22	C	1.026526	0.280818	-0.482031
C23	C	1.006458	0.304277	-0.590980
C24	C	0.553180	0.022044	-0.023086
C25	C	0.462986	0.047264	-0.048248
C26	C	0.416783	0.199802	-0.200450
C27	C	0.506974	0.174593	-0.175303
C28	C	0.575166	0.085714	-0.086620
C29	C	0.528961	0.238262	-0.238837
C30	C	0.619144	0.213058	-0.213689
C31	C	0.687341	0.124184	-0.125008
C32	C	0.665350	0.060509	-0.061472
C33	C	0.460768	0.327146	-0.327516
C34	C	0.482754	0.390815	-0.391049
C35	C	0.572939	0.365607	-0.365906
C36	C	0.641136	0.276733	-0.277225
C37	C	0.594930	0.429282	-0.429442
C38	C	0.685114	0.404077	-0.404294
C39	C	0.731319	0.251528	-0.252077
C40	C	1.298828	0.162912	-0.163641
C41	C	1.394798	0.136126	-0.136911
C42	C	1.217199	0.780902	-0.058799
C43	C	1.236043	0.678516	-0.036726
C44	C	1.178662	0.656257	-0.103726
C45	C	1.102434	0.736396	-0.192803
C46	C	1.083585	0.838793	-0.214874
C47	C	1.045048	0.714148	-0.259802
C48	C	0.968819	0.794287	-0.348879
C49	C	0.949974	0.896673	-0.370946
C50	C	1.007355	0.918931	-0.303946
C51	C	1.063897	0.611751	-0.237731
C52	C	0.930283	0.669642	-0.393806
C53	C	0.911439	0.772028	-0.415879
C54	C	1.120862	0.970016	-0.171303
C55	C	1.140969	0.861040	-0.147870
C56	C	1.217112	0.057927	-0.782550
C57	C	1.235973	0.035886	-0.680186
C58	C	1.178595	0.102982	-0.657879
C59	C	1.102355	0.192122	-0.737947
C60	C	1.083497	0.214168	-0.840320
C61	C	1.044980	0.259223	-0.715649
C62	C	0.968739	0.348364	-0.795717
C63	C	0.949884	0.370406	-0.898079
C64	C	1.007261	0.303310	-0.920386
C65	C	1.063838	0.237177	-0.613276
C66	C	0.930222	0.393419	-0.671046
C67	C	0.911362	0.415459	-0.773410
C68	C	1.120591	0.170850	0.028330
C69	C	1.140877	0.147069	0.137384
H70	H	0.760773	0.103666	-0.104533
H71	H	1.263906	0.799037	-0.004253
O72	O	0.350575	0.286238	-0.286515
C73	C	0.358566	0.373129	-0.279861
H74	H	0.396866	0.354190	-0.195683
H75	H	0.288778	0.439962	-0.315214
H76	H	0.396516	0.395499	-0.323303
O77	O	1.197088	0.081519	-0.558395
C78	C	1.281479	0.076272	-0.506600
H79	H	1.323421	0.058365	-0.548159
H80	H	1.317635	0.013001	-0.424321
H81	H	1.271624	0.153206	-0.505434
O82	O	1.137979	0.533823	-0.151311
C83	C	1.194350	0.471005	-0.178859
H84	H	1.152995	0.480164	-0.258302
H85	H	1.226558	0.387176	-0.120190
H86	H	1.249081	0.494876	-0.180358
H87	H	1.298106	0.613270	0.035800
H88	H	0.849373	0.837291	-0.488406
H89	H	0.786846	0.179142	-0.179874
H90	H	0.887810	0.442996	-0.963270
O91	O	1.197120	0.556743	-0.082160
C92	C	1.276693	0.490784	0.010839
H93	H	1.318814	0.532717	0.025870
H94	H	1.316604	0.419477	0.005127
H95	H	1.259007	0.466821	0.076720
H96	H	0.445092	-0.004596	0.003490
O97	O	0.837346	0.502152	-0.851100
C98	C	0.842774	0.589232	-0.841895
H99	H	0.889277	0.566001	-0.758763
H100	H	0.772979	0.649838	-0.865222
H101	H	0.870453	0.622272	-0.894255
O102	O	1.137815	0.150482	-0.535549
C103	C	1.132400	0.063414	-0.544801
H104	H	1.059152	0.083777	-0.591084
H105	H	1.161193	-0.001610	-0.464980
H106	H	1.172476	0.037667	-0.585817
H107	H	1.298049	-0.036690	-0.615002
O108	O	0.874651	0.647977	-0.458960
C109	C	0.923018	0.588589	-0.495830
H110	H	0.984223	0.601716	-0.489643
H111	H	0.878061	0.612395	-0.579698
H112	H	0.945881	0.503636	-0.447966
O113	O	0.416586	0.477096	-0.477297
C114	C	0.424559	0.470667	-0.564285
H115	H	0.496610	0.415132	-0.539997
H116	H	0.406503	0.550068	-0.622528
H117	H	0.377013	0.441603	-0.600672
H118	H	0.887896	0.961922	-0.443470
H119	H	0.883502	0.448055	-0.652886
H120	H	1.263825	0.003311	-0.800724
O121	O	0.731570	-0.025742	0.024783
C122	C	0.723576	-0.019355	0.111776
H123	H	0.685256	0.064802	0.093067
H124	H	0.793365	-0.054859	0.178552
H125	H	0.685646	-0.062842	0.134055
O126	O	0.528796	0.515674	-0.515602
C127	C	0.567541	0.566449	-0.566306
H128	H	0.638599	0.543179	-0.508950
H129	H	0.525324	0.653224	-0.600553
H130	H	0.570030	0.544004	-0.630414
O131	O	0.989211	1.018347	-0.325344
C132	C	1.061010	1.034802	-0.334926
H133	H	1.124696	0.958267	-0.291644
H134	H	1.071930	1.089489	-0.301206
H135	H	1.044463	1.069954	-0.419673
O136	O	0.988914	0.324899	-1.019862
C137	C	0.987448	0.420036	-1.068122
H138	H	0.973126	0.467937	-1.025407
H139	H	0.932669	0.463078	-1.151208
H140	H	1.055362	0.406027	-1.066776
H141	H	0.703014	0.455922	-0.456030
O142	O	0.619318	-0.064306	0.063127
C143	C	0.580578	-0.115118	0.113802
H144	H	0.509515	-0.057748	0.090683
H145	H	0.622791	-0.149590	0.200552
H146	H	0.578102	-0.179105	0.091149
O147	O	0.373173	0.351503	-0.352005
C148	C	0.355706	0.271444	-0.365489
H149	H	0.407267	0.225657	-0.385075
H150	H	0.285419	0.305528	-0.430832
H151	H	0.360306	0.218410	-0.291464
