data_functionalizedCrystal
_audit_creation_method	'MofGen! by Chris Wilmer'
_symmetry_space_group_name_H-M	'P1'
_symmetry_Int_Tables_number	1
_symmetry_cell_setting	triclinic
loop_
_symmetry_equiv_pos_as_xyz
  x,y,z
_cell_length_a	13.897447
_cell_length_b	10.686220
_cell_length_c	10.686551
_cell_angle_alpha	90.308082
_cell_angle_beta	94.405975
_cell_angle_gamma	85.598804
loop_
_atom_site_label
_atom_site_type_symbol
_atom_site_fract_x
_atom_site_fract_y
_atom_site_fract_z
Zn1	Zn	-0.235165	-1.972263	0.562384
Zn2	Zn	0.264835	-1.472263	1.062384
Zn3	Zn	-0.409754	-1.956015	0.352625
Zn4	Zn	0.090246	-1.456015	0.852625
Zn5	Zn	-0.259840	-1.746379	0.368702
Zn6	Zn	0.240160	-1.246379	0.868702
Zn7	Zn	-0.407799	-1.762446	0.578402
Zn8	Zn	0.092201	-1.262446	1.078402
O9	O	-0.328140	-1.859276	0.465528
O10	O	0.171860	-1.359276	0.965528
O11	O	-0.248816	-2.145651	0.521128
O12	O	0.251184	-1.645651	1.021128
O13	O	-0.401012	-1.914683	0.179212
O14	O	0.098988	-1.414683	0.679212
O15	O	-0.121579	-1.776418	0.394419
O16	O	0.378421	-1.276418	0.894419
O17	O	-0.377086	-2.133714	0.367018
O18	O	0.122914	-1.633714	0.867018
O19	O	-0.103451	-1.942375	0.536717
O20	O	0.396549	-1.442375	1.036717
O21	O	-0.290871	-1.760664	0.191024
O22	O	0.209129	-1.260664	0.691024
O23	O	-0.288976	-1.572967	0.409951
O24	O	0.211024	-1.072967	0.909951
O25	O	-0.373754	-1.803802	0.751823
O26	O	0.126246	-1.303802	1.251823
O27	O	-0.397681	-1.584772	0.564017
O28	O	0.102319	-1.084772	1.064017
O29	O	-0.246920	-1.957954	0.740055
O30	O	0.253080	-1.457954	1.240055
O31	O	-0.544482	-1.930262	0.382550
O32	O	-0.044482	-1.430262	0.882550
O33	O	-0.543046	-1.788048	0.548428
O34	O	-0.043046	-1.288048	1.048428
C35	C	-0.578761	-1.859171	0.465507
C36	C	-0.078761	-1.359171	0.965507
C37	C	-0.685969	-1.859245	0.465531
C38	C	-0.185969	-1.359245	0.965531
C39	C	-0.345794	-1.533353	0.490467
C40	C	0.154206	-1.033353	0.990467
C41	C	-0.353369	-1.393924	0.501166
C42	C	0.146631	-0.893924	1.001166
C43	C	-0.307367	-1.884483	0.792729
C44	C	0.192633	-1.384483	1.292729
C45	C	-0.298515	-1.895224	0.932162
C46	C	0.201485	-1.395224	1.432162
C47	C	-0.773034	-1.859308	0.465555
C48	C	-0.273034	-1.359308	0.965555
C49	C	-0.882260	-1.859398	0.465581
C50	C	-0.382260	-1.359398	0.965581
C51	C	-0.076536	-1.859417	0.465574
C52	C	0.423464	-1.359417	0.965574
C53	C	0.030683	-1.859477	0.465594
C54	C	0.530683	-1.359477	0.965594
C55	C	-0.310416	-2.186471	0.440493
C56	C	0.189584	-1.686471	0.940493
C57	C	-0.302864	-2.325902	0.429824
C58	C	0.197136	-1.825902	0.929824
C59	C	-0.348758	-1.834239	0.139595
C60	C	0.151242	-1.334239	0.639595
C61	C	-0.357325	-1.823740	0.000144
C62	C	0.142675	-1.323740	0.500144
H63	H	-0.253831	-1.374333	0.360559
H64	H	0.246169	-0.874333	0.860559
H65	H	-0.414450	-1.754326	0.951676
H66	H	0.085550	-1.254326	1.451676
C67	C	-0.414517	-1.198446	0.587536
C68	C	0.085483	-0.698446	1.087536
C69	C	-0.419570	-1.328549	0.594678
C70	C	0.080430	-0.828549	1.094678
H71	H	-0.455382	-1.158089	0.645271
H72	H	0.044618	-0.658089	1.145271
H73	H	-0.435041	-1.170527	0.504853
H74	H	0.064959	-0.670527	1.004853
H75	H	-0.349700	-1.178488	0.607661
H76	H	0.150300	-0.678488	1.107661
H77	H	-0.484387	-1.348508	0.574544
H78	H	0.015613	-0.848508	1.074544
H79	H	-0.399051	-1.356478	0.677379
H80	H	0.100949	-0.856478	1.177379
C81	C	-0.227248	-1.981801	1.127686
C82	C	0.272752	-1.481801	1.627686
C83	C	-0.221390	-1.988941	0.997589
C84	C	0.278610	-1.488941	1.497589
H85	H	-0.179629	-2.039650	1.168076
H86	H	0.320371	-1.539650	1.668076
H87	H	-0.289713	-2.001764	1.147676
H88	H	0.210287	-1.501764	1.647676
H89	H	-0.216356	-1.899148	1.155539
H90	H	0.283644	-1.399148	1.655539
H91	H	-0.232288	-2.071591	0.969735
H92	H	0.267712	-1.571591	1.469735
H93	H	-0.158910	-1.968986	0.977590
H94	H	0.341090	-1.468986	1.477590
