data_functionalizedCrystal
_audit_creation_method	'MofGen! by Chris Wilmer'
_symmetry_space_group_name_H-M	'P1'
_symmetry_Int_Tables_number	1
_symmetry_cell_setting	triclinic
loop_
_symmetry_equiv_pos_as_xyz
  x,y,z
_cell_length_a	12.811434
_cell_length_b	12.837943
_cell_length_c	14.184680
_cell_angle_alpha	104.575860
_cell_angle_beta	97.988751
_cell_angle_gamma	90.587059
loop_
_atom_site_label
_atom_site_type_symbol
_atom_site_fract_x
_atom_site_fract_y
_atom_site_fract_z
O1	O	-1.395417	0.151930	0.043551
O2	O	-0.895417	0.651930	0.543551
O3	O	-1.098317	0.159525	0.016516
O4	O	-0.598317	0.659525	0.516516
O5	O	-1.240279	0.004627	0.029433
O6	O	-0.740279	0.504627	0.529433
O7	O	-1.253455	0.306828	0.030634
O8	O	-0.753455	0.806828	0.530634
O9	O	-1.198285	0.050390	0.192472
O10	O	-0.698285	0.550390	0.692472
O11	O	-1.056323	0.205288	0.179554
O12	O	-0.556323	0.705288	0.679554
O13	O	-1.353423	0.197693	0.206590
O14	O	-0.853423	0.697693	0.706590
Cu15	Cu	-1.201039	0.205669	0.207959
Cu16	Cu	-0.701039	0.705669	0.707959
Cu17	Cu	-1.250701	0.151549	0.015147
Cu18	Cu	-0.750701	0.651549	0.515147
O19	O	-1.211461	0.352591	0.193672
O20	O	-0.711461	0.852591	0.693672
C21	C	-1.039028	0.180577	0.094550
C22	C	-0.539028	0.680577	0.594550
C23	C	-0.924930	0.175112	0.084167
C24	C	-0.424930	0.675112	0.584167
C25	C	-0.786999	0.142467	-0.019328
C26	C	-0.286999	0.642467	0.480672
C27	C	-0.894206	0.147599	-0.009581
C28	C	-0.394206	0.647599	0.490419
C29	C	-0.848437	0.197492	0.168174
C30	C	-0.348437	0.697492	0.668174
C31	C	-0.741229	0.192360	0.158427
C32	C	-0.241229	0.692360	0.658427
C33	C	-0.710515	0.164848	0.064673
C34	C	-0.210515	0.664848	0.564673
C35	C	-0.603305	0.159724	0.054926
C36	C	-0.103305	0.659724	0.554926
C37	C	-0.557538	0.209610	0.232680
C38	C	-0.057538	0.709610	0.732680
C39	C	-0.664745	0.214742	0.242427
C40	C	-0.164745	0.714742	0.742427
N41	N	-1.166116	0.243734	0.343573
N42	N	-0.666116	0.743734	0.843573
C43	C	-1.214832	-0.011246	0.110545
C44	C	-0.714832	0.488754	0.610545
C45	C	-1.201559	-0.126723	0.109330
C46	C	-0.701559	0.373277	0.609330
C47	C	-0.412712	0.176641	0.128554
C48	C	0.087288	0.676641	0.628554
C49	C	-0.526812	0.182104	0.138933
C50	C	-0.026812	0.682104	0.638933
C51	C	-1.236909	0.368464	0.112558
C52	C	-0.736909	0.868464	0.612558
C53	C	-1.250183	0.483939	0.113767
C54	C	-0.750183	0.983939	0.613767
C55	C	-1.090599	0.720109	0.099226
C56	C	-0.590599	1.220109	0.599226
C57	C	-1.103067	0.828608	0.100361
C58	C	-0.603067	1.328608	0.600361
C59	C	-1.287589	0.809437	0.117163
C60	C	-0.787589	1.309437	0.617163
C61	C	-1.275121	0.700938	0.116028
C62	C	-0.775121	1.200938	0.616028
C63	C	-1.176622	0.656278	0.107061
C64	C	-0.676622	1.156278	0.607061
C65	C	-1.164153	0.547779	0.105934
C66	C	-0.664153	1.047779	0.605934
C67	C	-1.348676	0.528608	0.122729
C68	C	-0.848676	1.028608	0.622729
C69	C	-1.361144	0.637107	0.123863
C70	C	-0.861144	1.137107	0.623863
N71	N	-1.285631	0.113476	-0.120467
N72	N	-0.785631	0.613476	0.379533
C73	C	-1.063620	0.355505	0.491814
C74	C	-0.563620	0.855505	0.991814
C75	C	-1.090041	0.326690	0.389181
C76	C	-0.590041	0.826690	0.889181
C77	C	-1.215804	0.189564	0.400589
C78	C	-0.715804	0.689564	0.900589
C79	C	-1.189397	0.218371	0.503225
C80	C	-0.689397	0.718371	1.003225
C81	C	-1.113303	0.301341	0.548830
C82	C	-0.613303	0.801341	1.048830
C83	C	-1.239081	0.164207	0.560241
C84	C	-0.739081	0.664207	1.060241
C85	C	-1.212672	0.193008	0.662868
C86	C	-0.712672	0.693008	1.162868
C87	C	-1.136579	0.275973	0.708480
C88	C	-0.636579	0.775973	1.208480
C89	C	-1.086894	0.330142	0.651457
C90	C	-0.586894	0.830142	1.151457
C91	C	-1.315169	0.081232	0.514634
C92	C	-0.815169	0.581232	1.014634
C93	C	-1.364853	0.027068	0.571649
C94	C	-0.864853	0.527068	1.071649
C95	C	-1.338450	0.055874	0.674279
C96	C	-0.838450	0.555874	1.174279
C97	C	-1.262357	0.138839	0.719891
C98	C	-0.762357	0.638839	1.219891
C99	C	-1.388134	0.001705	0.731302
C100	C	-0.888134	0.501705	1.231302
C101	C	-1.361725	0.030506	0.833929
C102	C	-0.861725	0.530506	1.333929
C103	C	-1.235947	0.167640	0.822518
C104	C	-0.735947	0.667640	1.322518
H105	H	-0.873465	0.219879	0.244504
H106	H	-0.373465	0.719879	0.744504
H107	H	-0.689769	0.237137	0.318759
H108	H	-0.189769	0.737137	0.818759
H109	H	-1.033018	0.880576	0.093980
H110	H	-0.533018	1.380576	0.593980
H111	H	-1.367766	0.845836	0.124525
H112	H	-0.867766	1.345836	0.624525
F113	F	-1.108468	0.306621	0.817706
F114	F	-0.608468	0.806621	1.317706
H115	H	-1.441338	0.673486	0.131168
H116	H	-0.941338	1.173486	0.631168
H117	H	-0.956478	0.129373	-0.077983
H118	H	-0.456478	0.629373	0.422017
F119	F	-0.476129	0.233438	0.322085
F120	F	0.023871	0.733438	0.822085
F121	F	-0.985768	0.672580	0.089697
F122	F	-0.485768	1.172580	0.589697
F123	F	-1.440233	0.460667	0.131070
F124	F	-0.940233	0.960667	0.631070
F125	F	-1.154969	0.255958	0.871057
F126	F	-0.654969	0.755958	1.371057
H127	H	-1.024939	0.397713	0.688590
H128	H	-0.524939	0.897713	1.188590
H129	H	-1.001664	0.423075	0.528947
H130	H	-0.501664	0.923075	1.028947
H131	H	-1.049574	0.370804	0.342763
H132	H	-0.549574	0.870804	0.842763
H133	H	-1.277758	0.122006	0.363445
H134	H	-0.777758	0.622006	0.863445
H135	H	-1.402182	-0.013601	0.880352
H136	H	-0.902182	0.486399	1.380352
H137	H	-1.450083	-0.065858	0.694157
H138	H	-0.950083	0.434142	1.194157
H139	H	-1.336665	0.057782	0.431067
H140	H	-0.836665	0.557782	0.931067
F141	F	-1.059323	0.500251	0.096395
F142	F	-0.559323	1.000251	0.596395
F143	F	-1.445833	-0.061236	0.523105
F144	F	-0.945833	0.438764	1.023105
H145	H	-0.578300	0.137327	-0.021413
H146	H	-0.078300	0.637327	0.478587
H147	H	-0.761991	0.120077	-0.095666
H148	H	-0.261991	0.620077	0.404334
