data_functionalizedCrystal
_audit_creation_method	'MofGen! by Chris Wilmer'
_symmetry_space_group_name_H-M	'P1'
_symmetry_Int_Tables_number	1
_symmetry_cell_setting	triclinic
loop_
_symmetry_equiv_pos_as_xyz
  x,y,z
_cell_length_a	14.853569
_cell_length_b	14.853567
_cell_length_c	9.730223
_cell_angle_alpha	89.999618
_cell_angle_beta	89.998218
_cell_angle_gamma	83.635248
loop_
_atom_site_label
_atom_site_type_symbol
_atom_site_fract_x
_atom_site_fract_y
_atom_site_fract_z
O1	O	1.196363	0.117710	-0.114215
O2	O	1.696363	0.617710	0.385785
O3	O	0.933904	0.131730	-0.114230
O4	O	1.433904	0.631730	0.385770
O5	O	1.072144	-0.006510	-0.114226
O6	O	1.572144	0.493490	0.385774
O7	O	1.058123	0.255950	-0.114219
O8	O	1.558123	0.755950	0.385781
O9	O	1.072134	-0.006513	0.114354
O10	O	1.572134	0.493487	0.614354
O11	O	0.933894	0.131727	0.114350
O12	O	1.433894	0.631727	0.614350
O13	O	1.196353	0.117707	0.114365
O14	O	1.696353	0.617707	0.614365
Zn15	Zn	1.065122	0.124717	0.150649
Zn16	Zn	1.565122	0.624717	0.650649
Zn17	Zn	1.065135	0.124721	-0.150515
Zn18	Zn	1.565135	0.624721	0.349485
O19	O	1.058112	0.255947	0.114361
O20	O	1.558112	0.755947	0.614361
C21	C	0.900310	0.131093	0.000058
C22	C	1.400310	0.631093	0.500058
C23	C	0.800226	0.129189	0.000051
C24	C	1.300226	0.629189	0.500051
C25	C	0.763850	0.046178	0.000044
C26	C	1.263850	0.546178	0.500044
C27	C	0.742560	0.210410	0.000064
C28	C	1.242560	0.710410	0.500064
C29	C	0.648526	0.208624	0.000066
C30	C	1.148526	0.708624	0.500066
C31	C	0.612150	0.125613	0.000058
C32	C	1.112150	0.625613	0.500058
C33	C	0.669807	0.044389	0.000050
C34	C	1.169807	0.544389	0.500050
C35	C	0.590862	0.289847	0.000088
C36	C	1.090862	0.789847	0.500088
C37	C	0.496821	0.288064	0.000091
C38	C	0.996821	0.788064	0.500091
C39	C	0.460443	0.205052	0.000074
C40	C	0.960443	0.705052	0.500074
C41	C	0.518107	0.123824	0.000064
C42	C	1.018107	0.623824	0.500064
C43	C	0.481730	0.040813	0.000057
C44	C	0.981730	0.540813	0.500057
C45	C	0.539393	-0.040415	0.000037
C46	C	1.039393	0.459585	0.500037
C47	C	0.633429	-0.038623	0.000033
C48	C	1.133429	0.461377	0.500033
C49	C	0.366407	0.203259	0.000079
C50	C	0.866407	0.703259	0.500079
C51	C	0.387688	0.039024	0.000063
C52	C	0.887688	0.539024	0.500063
C53	C	1.071504	-0.040100	0.000060
C54	C	1.571504	0.459900	0.500060
C55	C	1.069600	-0.140183	0.000047
C56	C	1.569600	0.359817	0.500047
C57	C	0.979434	-0.552718	0.000068
C58	C	1.479434	-0.052718	0.500068
C59	C	1.143667	-0.573998	0.000078
C60	C	1.643667	-0.073998	0.500078
C61	C	1.145457	-0.479964	0.000070
C62	C	1.645457	0.020036	0.500070
C63	C	1.064234	-0.422303	0.000063
C64	C	1.564234	0.077697	0.500063
C65	C	0.981222	-0.458675	0.000065
C66	C	1.481222	0.041325	0.500065
C67	C	1.228468	-0.443585	0.000082
C68	C	1.728468	0.056415	0.500082
C69	C	1.230262	-0.349545	0.000076
C70	C	1.730262	0.150455	0.500076
C71	C	1.149038	-0.291882	0.000060
C72	C	1.649038	0.208118	0.500060
C73	C	1.066022	-0.328260	0.000059
C74	C	1.566022	0.171740	0.500059
C75	C	0.984800	-0.270599	0.000053
C76	C	1.484800	0.229401	0.500053
C77	C	0.901783	-0.306974	0.000043
C78	C	1.401783	0.193026	0.500043
C79	C	0.899998	-0.401012	0.000048
C80	C	1.399998	0.098988	0.500048
C81	C	1.150822	-0.197845	0.000054
C82	C	1.650822	0.302155	0.500054
C83	C	0.986587	-0.176556	0.000049
C84	C	1.486587	0.323444	0.500049
C85	C	1.229947	0.118344	0.000074
C86	C	1.729947	0.618344	0.500074
C87	C	1.330030	0.120249	0.000071
C88	C	1.830030	0.620249	0.500071
C89	C	1.058753	0.289537	0.000072
C90	C	1.558753	0.789537	0.500072
C91	C	1.060657	0.389621	0.000075
C92	C	1.560657	0.889621	0.500075
N93	N	1.065119	0.124713	0.356186
N94	N	1.565119	0.624713	0.856186
C95	C	1.126352	0.063527	0.428113
C96	C	1.626352	0.563527	0.928113
C97	C	1.126360	0.063528	0.571996
C98	C	1.626360	0.563528	1.071996
C99	C	1.003899	0.185909	0.572011
C100	C	1.503899	0.685909	1.072011
C101	C	1.003888	0.185904	0.428131
C102	C	1.503888	0.685904	0.928131
N103	N	1.065139	0.124720	0.643949
N104	N	1.565139	0.624720	1.143949
H105	H	0.810802	-0.019956	0.000022
H106	H	1.310802	0.480044	0.500022
Br107	Br	0.920773	0.268941	0.330503
Br108	Br	1.420773	0.768941	0.830503
Br109	Br	0.711688	-0.148851	0.000019
Br110	Br	1.211688	0.351149	0.500019
H111	H	1.176221	0.013703	0.630556
H112	H	1.676221	0.513703	1.130556
H113	H	0.620487	0.357430	0.000103
H114	H	1.120487	0.857430	0.500103
H115	H	0.772184	0.277994	0.000080
H116	H	1.272184	0.777994	0.500080
Br117	Br	1.263478	-0.148480	0.000100
Br118	Br	1.763478	0.351520	0.500100
Br119	Br	0.338328	-0.073640	0.000036
Br120	Br	0.838328	0.426360	0.500036
H121	H	0.449880	0.354205	0.000106
H122	H	0.949880	0.854205	0.500106
Br123	Br	0.791556	-0.228709	0.000051
Br124	Br	1.291556	0.271291	0.500051
H125	H	0.319463	0.269395	0.000107
H126	H	0.819463	0.769395	0.500107
H127	H	0.832410	-0.430638	0.000041
H128	H	1.332410	0.069362	0.500041
H129	H	0.920445	-0.129613	0.000037
H130	H	1.420445	0.370387	0.500037
H131	H	0.509763	-0.108003	0.000022
H132	H	1.009763	0.391997	0.500022
Br133	Br	0.866774	-0.602081	0.000035
Br134	Br	1.366774	-0.102081	0.500035
H135	H	1.209794	-0.620951	0.000094
H136	H	1.709794	-0.120951	0.500094
Br137	Br	1.338692	-0.521841	0.000129
Br138	Br	1.838692	-0.021841	0.500129
H139	H	1.176209	0.013701	0.369539
H140	H	1.676209	0.513701	0.869539
H141	H	1.297859	-0.319937	0.000082
H142	H	1.797859	0.180063	0.500082
H143	H	0.954047	0.235730	0.630603
H144	H	1.454047	0.735730	1.130603
