data_functionalizedCrystal
_audit_creation_method	'MofGen! by Chris Wilmer'
_symmetry_space_group_name_H-M	'P1'
_symmetry_Int_Tables_number	1
_symmetry_cell_setting	triclinic
loop_
_symmetry_equiv_pos_as_xyz
  x,y,z
_cell_length_a	19.188929
_cell_length_b	19.188925
_cell_length_c	9.798715
_cell_angle_alpha	90.004381
_cell_angle_beta	89.975087
_cell_angle_gamma	96.856335
loop_
_atom_site_label
_atom_site_type_symbol
_atom_site_fract_x
_atom_site_fract_y
_atom_site_fract_z
O1	O	-0.087148	0.926146	0.113585
O2	O	0.246185	1.259480	0.446919
O3	O	0.579519	1.592813	0.780252
O4	O	-0.098886	0.722834	0.113590
O5	O	0.234447	1.056168	0.446924
O6	O	0.567781	1.389501	0.780257
O7	O	0.008639	0.830358	0.113503
O8	O	0.341972	1.163691	0.446837
O9	O	0.675305	1.497024	0.780170
O10	O	-0.194673	0.818623	0.113672
O11	O	0.138661	1.151957	0.447006
O12	O	0.471994	1.485290	0.780339
O13	O	0.008639	0.830350	-0.113479
O14	O	0.341972	1.163683	0.219854
O15	O	0.675306	1.497017	0.553188
O16	O	-0.098886	0.722827	-0.113392
O17	O	0.234447	1.056160	0.219941
O18	O	0.567781	1.389494	0.553275
O19	O	-0.087148	0.926139	-0.113397
O20	O	0.246186	1.259472	0.219936
O21	O	0.579519	1.592806	0.553270
Zn22	Zn	-0.093017	0.824482	-0.149433
Zn23	Zn	0.240317	1.157815	0.183901
Zn24	Zn	0.573650	1.491148	0.517234
Zn25	Zn	-0.093017	0.824492	0.149626
Zn26	Zn	0.240316	1.157825	0.482959
Zn27	Zn	0.573650	1.491158	0.816293
O28	O	-0.194673	0.818616	-0.113310
O29	O	0.138661	1.151949	0.220023
O30	O	0.471994	1.485282	0.553357
C31	C	-0.098507	0.696820	0.000098
C32	C	0.234827	1.030153	0.333432
C33	C	0.568160	1.363486	0.666765
C34	C	-0.097367	0.619315	0.000096
C35	C	0.235966	0.952648	0.333429
C36	C	0.569299	1.285982	0.666763
C37	C	-0.152831	0.057545	0.000145
C38	C	0.180502	0.390878	0.333479
C39	C	0.513835	0.724211	0.666812
C40	C	-0.153908	0.130368	0.000154
C41	C	0.179425	0.463701	0.333487
C42	C	0.512759	0.797035	0.666820
C43	C	-0.090816	0.175302	0.000099
C44	C	0.242518	0.508636	0.333432
C45	C	0.575851	0.841969	0.666765
C46	C	-0.026642	0.147408	0.000070
C47	C	0.306691	0.480742	0.333404
C48	C	0.640024	0.814075	0.666737
C49	C	-0.025568	0.074586	0.000076
C50	C	0.307766	0.407920	0.333409
C51	C	0.641099	0.741253	0.666743
N52	N	-0.045139	0.295977	-0.077206
N53	N	0.288194	0.629310	0.256128
N54	N	0.621527	0.962644	0.589461
N55	N	-0.046165	0.365154	-0.077214
N56	N	0.287169	0.698488	0.256120
N57	N	0.620502	1.031821	0.589453
C58	C	-0.094050	0.394712	0.000085
C59	C	0.239284	0.728045	0.333419
C60	C	0.572617	1.061378	0.666752
N61	N	-0.140882	0.352477	0.077375
N62	N	0.192452	0.685810	0.410709
N63	N	0.525785	1.019143	0.744042
N64	N	-0.139858	0.283293	0.077377
N65	N	0.193475	0.616626	0.410711
N66	N	0.526808	0.949959	0.744044
C67	C	-0.091974	0.254267	0.000094
C68	C	0.241359	0.587600	0.333427
C69	C	0.574693	0.920933	0.666760
C70	C	-0.159386	0.501561	0.000132
C71	C	0.173947	0.834894	0.333465
C72	C	0.507280	1.168227	0.666799
C73	C	-0.160460	0.574385	0.000149
C74	C	0.172873	0.907719	0.333482
C75	C	0.506206	1.241052	0.666815
C76	C	-0.033193	0.591425	0.000052
C77	C	0.300141	0.924758	0.333385
C78	C	0.633474	1.258091	0.666718
C79	C	-0.032121	0.518601	0.000049
C80	C	0.301213	0.851934	0.333382
C81	C	0.634546	1.185268	0.666716
C82	C	-0.095220	0.473673	0.000082
C83	C	0.238114	0.807006	0.333416
C84	C	0.571447	1.140340	0.666749
C85	C	-0.220684	0.819000	0.000203
C86	C	0.112650	1.152333	0.333536
C87	C	0.445983	1.485666	0.666870
C88	C	-0.298188	0.820140	0.000268
C89	C	0.035145	1.153474	0.333601
C90	C	0.368478	1.486807	0.666935
C91	C	-0.343113	0.757049	0.000242
C92	C	-0.009780	1.090383	0.333575
C93	C	0.323553	1.423716	0.666909
C94	C	-0.415937	0.758121	0.000211
C95	C	-0.082604	1.091454	0.333544
C96	C	0.250730	1.424788	0.666878
C97	C	-0.443833	0.822287	0.000179
C98	C	-0.110499	1.155620	0.333512
C99	C	0.222834	1.488954	0.666845
C100	C	-0.398897	0.885386	0.000212
C101	C	-0.065564	1.218720	0.333546
C102	C	0.267769	1.552053	0.666879
C103	C	-0.326075	0.884313	0.000257
C104	C	0.007258	1.217646	0.333590
C105	C	0.340591	1.550980	0.666924
N106	N	-0.551800	0.871332	-0.077156
N107	N	-0.218467	1.204665	0.256178
N108	N	0.114867	1.537998	0.589511
N109	N	-0.620978	0.872347	-0.077201
N110	N	-0.287645	1.205680	0.256133
N111	N	0.045688	1.539014	0.589466
C112	C	-0.663241	0.825525	0.000047
C113	C	-0.329908	1.158859	0.333381
C114	C	0.003426	1.492192	0.666714
N115	N	-0.633713	0.777639	0.077326
N116	N	-0.300380	1.110972	0.410659
N117	N	0.032954	1.444306	0.743992
N118	N	-0.564528	0.776622	0.077365
N119	N	-0.231195	1.109955	0.410698
N120	N	0.102138	1.443288	0.744031
C121	C	-0.522795	0.823458	0.000131
C122	C	-0.189462	1.156792	0.333465
C123	C	0.143872	1.490125	0.666798
C124	C	-0.787131	0.763592	-0.000010
C125	C	-0.453797	1.096925	0.333323
C126	C	-0.120464	1.430259	0.666657
C127	C	-0.859955	0.764666	-0.000032
C128	C	-0.526622	1.098000	0.333301
C129	C	-0.193289	1.431333	0.666634
C130	C	-0.842914	0.891934	-0.000045
C131	C	-0.509581	1.225267	0.333289
C132	C	-0.176247	1.558600	0.666622
C133	C	-0.770091	0.890857	-0.000009
C134	C	-0.436758	1.224191	0.333325
C135	C	-0.103424	1.557524	0.666658
C136	C	-0.742204	0.826685	0.000002
C137	C	-0.408871	1.160018	0.333336
C138	C	-0.075537	1.493351	0.666669
C139	C	0.034650	0.829974	-0.000007
C140	C	0.367983	1.163307	0.333327
C141	C	0.701317	1.496640	0.666660
C142	C	0.112154	0.828833	-0.000062
C143	C	0.445488	1.162166	0.333271
C144	C	0.778821	1.495500	0.666604
C145	C	-0.087527	0.952154	0.000098
C146	C	0.245806	1.285487	0.333431
C147	C	0.579139	1.618820	0.666765
C148	C	-0.088666	1.029658	0.000109
C149	C	0.244667	1.362992	0.333443
C150	C	0.578000	1.696325	0.666776
N151	N	-0.093016	0.824480	-0.353532
N152	N	0.240317	1.157813	-0.020199
N153	N	0.573651	1.491147	0.313134
C154	C	-0.052998	0.784243	-0.421376
C155	C	0.280335	1.117577	-0.088042
C156	C	0.613668	1.450910	0.245291
C157	C	-0.052996	0.784253	-0.578539
C158	C	0.280337	1.117586	-0.245205
C159	C	0.613671	1.450920	0.088128
N160	N	-0.093012	0.824499	0.353726
N161	N	0.240321	1.157832	0.687059
N162	N	0.573654	1.491165	1.020392
H163	H	0.024728	0.183999	0.000030
H164	H	0.358061	0.517332	0.333363
H165	H	0.691394	0.850665	0.666696
Br166	Br	-0.305270	0.669958	0.000268
Br167	Br	0.028064	1.003292	0.333601
Br168	Br	0.361397	1.336625	0.666935
H169	H	-0.212713	0.597088	0.000189
H170	H	0.120620	0.930421	0.333522
H171	H	0.453954	1.263755	0.666856
Br172	Br	0.054965	0.480752	0.000011
Br173	Br	0.388299	0.814085	0.333345
Br174	Br	0.721632	1.147419	0.666678
Br175	Br	-0.238465	-0.003426	0.000206
Br176	Br	0.094868	0.329908	0.333540
Br177	Br	0.428202	0.663241	0.666873
Br178	Br	-0.150115	0.881926	-0.549050
Br179	Br	0.183219	1.215260	-0.215717
Br180	Br	0.516552	1.548593	0.117617
H181	H	-0.206160	0.153078	0.000170
H182	H	0.127173	0.486411	0.333503
H183	H	0.460506	0.819744	0.666837
H184	H	0.026685	0.051883	0.000047
H185	H	0.360018	0.385216	0.333380
H186	H	0.693351	0.718549	0.666714
Br187	Br	-0.920928	0.679035	-0.000044
Br188	Br	-0.587595	1.012368	0.333289
Br189	Br	-0.254262	1.345701	0.666622
Br190	Br	-0.880764	0.979018	-0.000068
Br191	Br	-0.547430	1.312352	0.333265
Br192	Br	-0.214097	1.645685	0.666599
H193	H	0.018178	0.628010	0.000018
H194	H	0.351511	0.961343	0.333351
H195	H	0.684845	1.294676	0.666684
Br196	Br	0.004117	0.726840	-0.675772
Br197	Br	0.337451	1.060173	-0.342438
Br198	Br	0.670784	1.393507	-0.009105
Br199	Br	-0.476919	0.672491	0.000173
Br200	Br	-0.143586	1.005825	0.333506
Br201	Br	0.189748	1.339158	0.666840
H202	H	-0.210765	0.464978	0.000162
H203	H	0.122568	0.798312	0.333495
H204	H	0.455902	1.131645	0.666828
H205	H	-0.733512	0.942233	0.000004
H206	H	-0.400178	1.275567	0.333337
H207	H	-0.066845	1.608900	0.666670
Br208	Br	-0.749279	0.676503	0.000009
Br209	Br	-0.415946	1.009836	0.333342
Br210	Br	-0.082613	1.343170	0.666675
Br211	Br	-0.436753	0.972470	0.000184
Br212	Br	-0.103420	1.305803	0.333517
Br213	Br	0.229914	1.639137	0.666850
H214	H	-0.127279	0.858932	-0.411801
H215	H	0.206055	1.192265	-0.078468
H216	H	0.539388	1.525598	0.254865
Br217	Br	0.004099	0.726806	-0.324272
Br218	Br	0.337432	1.060139	0.009062
Br219	Br	0.670766	1.393472	0.342395
H220	H	-0.289496	0.935691	0.000279
H221	H	0.043837	1.269024	0.333613
H222	H	0.377170	1.602358	0.666946
