data_functionalizedCrystal
_audit_creation_method	'MofGen! by Chris Wilmer'
_symmetry_space_group_name_H-M	'P1'
_symmetry_Int_Tables_number	1
_symmetry_cell_setting	triclinic
loop_
_symmetry_equiv_pos_as_xyz
  x,y,z
_cell_length_a	10.654549
_cell_length_b	10.654551
_cell_length_c	15.186229
_cell_angle_alpha	89.998019
_cell_angle_beta	89.997658
_cell_angle_gamma	84.485103
loop_
_atom_site_label
_atom_site_type_symbol
_atom_site_fract_x
_atom_site_fract_y
_atom_site_fract_z
O1	O	1.667840	0.176395	-0.073205
O2	O	1.302362	0.193202	-0.073210
O3	O	1.493503	0.002059	-0.073205
O4	O	1.476699	0.367537	-0.073210
O5	O	1.493490	0.002056	0.073252
O6	O	1.302349	0.193199	0.073247
O7	O	1.667827	0.176392	0.073253
Zn8	Zn	1.485086	0.184795	0.096503
Zn9	Zn	1.485103	0.184799	-0.096461
O10	O	1.476686	0.367535	0.073248
C11	C	1.255557	0.191966	0.000017
C12	C	1.116114	0.188275	0.000015
C13	C	0.905600	0.297338	0.000017
C14	C	1.036621	0.300816	0.000012
C15	C	1.064581	0.072247	0.000014
C16	C	0.933563	0.068770	0.000013
C17	C	1.198883	0.442866	-0.051301
C18	C	1.250412	0.558891	-0.051288
C19	C	1.195542	0.658663	0.000031
C20	C	1.089145	0.642415	0.051358
C21	C	1.037624	0.526388	0.051353
C22	C	1.092491	0.426621	0.000013
C23	C	0.771297	-0.073272	0.051334
C24	C	0.719773	-0.189300	0.051335
C25	C	0.774642	-0.289083	0.000022
C26	C	0.881044	-0.272847	-0.051292
C27	C	0.932568	-0.156819	-0.051293
C28	C	0.877690	-0.057036	0.000019
C29	C	1.492263	-0.044740	0.000022
C30	C	1.488570	-0.184183	0.000018
C31	C	1.486844	-0.249686	-0.079817
C32	C	1.483364	-0.380706	-0.079818
C33	C	1.483342	-0.380711	0.079858
C34	C	1.486813	-0.249692	0.079858
C35	C	1.405181	-0.550776	-0.175735
C36	C	1.403477	-0.616286	-0.255574
C37	C	1.478076	-0.582744	-0.326059
C38	C	1.554410	-0.483699	-0.316709
C39	C	1.556126	-0.418197	-0.236869
C40	C	1.481497	-0.451734	-0.166387
C41	C	1.565006	-0.079621	0.175769
C42	C	1.566731	-0.014118	0.255610
C43	C	1.492139	-0.047658	0.326103
C44	C	1.415824	-0.146710	0.316762
C45	C	1.414099	-0.212212	0.236921
C46	C	1.488689	-0.178663	0.166427
C47	C	1.714632	0.177628	0.000023
C48	C	1.854075	0.181319	0.000019
C49	C	1.477927	0.414334	0.000019
C50	C	1.481619	0.553777	0.000017
N51	N	1.485084	0.184792	0.228196
N52	N	1.485115	0.184792	-0.228153
C53	C	1.569750	0.100183	0.453921
C54	C	1.569754	0.100180	0.546110
C55	C	1.400440	0.269405	0.546115
C56	C	1.400431	0.269401	0.453927
C57	C	1.485093	0.184791	0.407832
C58	C	1.485106	0.184793	0.592210
C59	C	1.485110	0.184790	0.692166
C60	C	1.485088	0.184792	0.307870
H61	H	1.044486	0.723659	0.093153
C62	C	1.715743	0.110365	0.187151
C63	C	1.650635	0.094749	0.265886
H64	H	1.767538	0.177575	0.193497
H65	H	1.766852	0.034804	0.173693
H66	H	1.656990	0.129326	0.140869
H67	H	1.709389	0.075778	0.312167
H68	H	1.599523	0.170326	0.279355
C69	C	1.183672	0.341131	0.574522
C70	C	1.307387	0.362405	0.596789
H71	H	1.126227	0.398543	0.605811
H72	H	1.171555	0.353245	0.513030
H73	H	1.169327	0.257179	0.589639
H74	H	1.321735	0.446355	0.581667
H75	H	1.319509	0.350302	0.658295
H76	H	1.351951	-0.292863	0.229318
H77	H	1.331486	0.338300	0.416399
C78	C	1.357148	0.779391	-0.055841
C79	C	1.252178	0.786201	0.000043
H80	H	1.392108	0.858129	-0.055840
H81	H	1.418540	0.715298	-0.035671
H82	H	1.331977	0.760148	-0.113916
H83	H	1.277351	0.805435	0.058120
H84	H	1.190773	0.850314	-0.020123
H85	H	1.476686	-0.636091	-0.391066
H86	H	0.840884	0.388983	0.000022
H87	H	1.129316	-0.019386	0.000012
C88	C	1.254418	-0.740740	-0.187133
C89	C	1.319562	-0.725144	-0.265856
H90	H	1.202614	-0.807942	-0.193487
H91	H	1.313140	-0.759695	-0.140842
H92	H	1.203304	-0.665162	-0.173691
H93	H	1.370684	-0.800720	-0.279295
H94	H	1.260833	-0.706196	-0.312161
H95	H	1.337041	0.572112	-0.093084
H96	H	1.344418	-0.578085	-0.118349
C97	C	1.478036	-0.581561	0.150758
C98	C	1.481434	-0.452726	0.167615
H99	H	1.476872	-0.626016	0.204938
H100	H	1.404364	-0.594090	0.117964
H101	H	1.550583	-0.611953	0.117951
H102	H	1.408883	-0.422331	0.200417
H103	H	1.555114	-0.440188	0.200423
H104	H	1.638686	0.031287	0.416393
C105	C	1.020271	-0.041739	-0.168507
C106	C	1.049523	-0.138959	-0.107702
H107	H	1.092477	-0.030709	-0.203325
H108	H	0.953557	-0.062853	-0.205495
H109	H	0.994961	0.034284	-0.137934
H110	H	1.074824	-0.214984	-0.138275
H111	H	1.116259	-0.117851	-0.070709
C112	C	0.873663	-0.487790	-0.096873
C113	C	0.941360	-0.382525	-0.107705
H114	H	0.910896	-0.555500	-0.131703
H115	H	0.875371	-0.512062	-0.036670
H116	H	0.788812	-0.467200	-0.114916
H117	H	1.026210	-0.403112	-0.089656
H118	H	0.939666	-0.358250	-0.167921
H119	H	0.951005	0.513156	0.093148
C120	C	1.351444	-0.105168	0.466295
C121	C	1.333821	-0.183582	0.394246
H122	H	1.300815	-0.127928	0.514130
H123	H	1.437654	-0.114453	0.483229
H124	H	1.327793	-0.019942	0.450390
H125	H	1.357481	-0.268808	0.410149
H126	H	1.247593	-0.174309	0.377310
H127	H	0.732681	-0.383559	0.000030
C128	C	1.737123	-0.067077	0.536840
C129	C	1.662818	0.007181	0.596771
H130	H	1.794582	-0.124488	0.568117
H131	H	1.684454	-0.112739	0.500890
H132	H	1.782742	-0.014362	0.500877
H133	H	1.617192	-0.045534	0.632729
H134	H	1.715494	0.052846	0.632735
H135	H	0.633151	-0.202523	0.093138
H136	H	1.625738	-0.052292	0.118367
C137	C	1.380136	-0.196182	-0.215910
C138	C	1.488751	-0.177683	-0.167579
H139	H	1.381307	-0.151729	-0.270091
H140	H	1.377834	-0.283580	-0.227324
H141	H	1.307607	-0.165761	-0.183096
H142	H	1.561281	-0.208113	-0.200391
H143	H	1.491065	-0.090267	-0.156168
C144	C	1.766274	-0.354683	-0.240180
C145	C	1.640020	-0.309331	-0.226584
H146	H	1.818061	-0.287465	-0.233838
H147	H	1.790462	-0.418429	-0.198114
H148	H	1.775923	-0.388892	-0.297819
H149	H	1.630369	-0.275130	-0.168943
H150	H	1.615824	-0.245563	-0.268652
C151	C	1.618792	-0.525242	-0.466244
C152	C	1.636421	-0.446837	-0.394190
H153	H	1.669416	-0.502474	-0.514079
H154	H	1.642434	-0.610460	-0.450347
H155	H	1.532571	-0.515946	-0.483178
H156	H	1.722641	-0.456140	-0.377251
H157	H	1.612787	-0.361598	-0.410088
H158	H	1.243560	0.361636	-0.093101
H159	H	0.726611	0.007975	0.093121
H160	H	1.493560	0.005678	0.391116
