data_functionalizedCrystal
_audit_creation_method	'MofGen! by Chris Wilmer'
_symmetry_space_group_name_H-M	'P1'
_symmetry_Int_Tables_number	1
_symmetry_cell_setting	triclinic
loop_
_symmetry_equiv_pos_as_xyz
  x,y,z
_cell_length_a	16.959455
_cell_length_b	14.908579
_cell_length_c	14.908308
_cell_angle_alpha	96.363296
_cell_angle_beta	93.277816
_cell_angle_gamma	93.320690
loop_
_atom_site_label
_atom_site_type_symbol
_atom_site_fract_x
_atom_site_fract_y
_atom_site_fract_z
Zn1	Zn	-1.161740	0.389910	0.532600
Zn2	Zn	-1.161647	0.532555	0.389977
Zn3	Zn	-1.037655	0.381208	0.381256
Zn4	Zn	-1.021435	0.541224	0.541284
O5	O	-1.095619	0.461224	0.461279
O6	O	-1.272337	0.408846	0.513696
O7	O	-1.151948	0.505209	0.262159
O8	O	-1.060942	0.255698	0.394048
O9	O	-1.272269	0.513647	0.408911
O10	O	-1.152107	0.262091	0.505239
O11	O	-1.060852	0.394015	0.255752
O12	O	-0.924894	0.402421	0.402469
O13	O	-1.033298	0.528421	0.666793
O14	O	-0.912977	0.519984	0.520041
O15	O	-1.136379	0.417251	0.660413
O16	O	-1.136221	0.660370	0.417332
O17	O	-1.033207	0.666739	0.528497
C18	C	-0.890256	0.461200	0.461251
C19	C	-0.802398	0.461212	0.461262
C20	C	-0.761095	0.515690	0.406618
C21	C	-0.761146	0.406741	0.515913
C22	C	-0.678599	0.406748	0.515922
C23	C	-0.637297	0.461225	0.461278
C24	C	-0.678541	0.515696	0.406624
C25	C	-0.637350	0.352271	0.570568
C26	C	-0.554798	0.352274	0.570579
C27	C	-0.513494	0.406757	0.515939
C28	C	-0.554743	0.461231	0.461283
C29	C	-0.513440	0.515708	0.406639
C30	C	-0.554687	0.570187	0.351988
C31	C	-0.637237	0.570178	0.351983
C32	C	-0.430945	0.406766	0.515943
C33	C	-0.430886	0.515714	0.406645
C34	C	-1.082964	0.696398	0.474823
C35	C	-1.077621	0.797009	0.480648
C36	C	-0.301785	0.461245	0.461302
C37	C	-0.389642	0.461243	0.461299
C38	C	-1.174947	0.979378	0.375930
C39	C	-1.169930	1.073910	0.381400
C40	C	-1.062573	1.080607	0.497061
C41	C	-1.067590	0.986075	0.491591
C42	C	-1.123779	0.935464	0.431023
C43	C	-1.128792	0.840930	0.425549
C44	C	-1.021439	0.847628	0.541214
C45	C	-1.016421	0.942160	0.546684
C46	C	-1.083039	0.474774	0.697363
C47	C	-1.077679	0.480548	0.797968
C48	C	-1.108338	1.225134	0.447714
C49	C	-1.113743	1.124528	0.441962
C50	C	-1.108199	0.447662	0.226110
C51	C	-1.113726	0.441633	0.125491
C52	C	-1.174943	0.375615	0.980372
C53	C	-1.169909	0.381038	1.074899
C54	C	-1.062573	0.496809	1.081550
C55	C	-1.067607	0.491387	0.987023
C56	C	-1.123795	0.430789	0.936437
C57	C	-1.128832	0.425372	0.841909
C58	C	-1.021493	0.541139	0.848562
C59	C	-1.016459	0.546561	0.943089
H60	H	-0.794682	0.560048	0.362125
C61	C	-0.668653	0.201610	0.606077
C62	C	-0.682745	0.292395	0.630636
H63	H	-0.696684	0.164647	0.643163
H64	H	-0.613593	0.193820	0.613901
H65	H	-0.686139	0.184792	0.544515
H66	H	-0.665254	0.309215	0.692196
H67	H	-0.737817	0.300189	0.622820
H68	H	-1.220693	0.938169	0.326606
C69	C	-0.886754	0.821160	0.583466
C70	C	-0.965188	0.799352	0.601773
H71	H	-0.852028	0.791350	0.620845
H72	H	-0.875732	0.884696	0.595400
H73	H	-0.879309	0.802210	0.521740
H74	H	-0.972634	0.818308	0.663499
H75	H	-0.976214	0.735802	0.589846
H76	H	-1.211598	1.109662	0.336539
H77	H	-1.174584	0.376032	0.800723
C78	C	-0.628893	0.677883	0.243956
C79	C	-0.682576	0.630058	0.291914
H80	H	-0.656887	0.714853	0.206877
H81	H	-0.600656	0.636417	0.207122
H82	H	-0.592737	0.714826	0.285348
H83	H	-0.718728	0.593109	0.250522
H84	H	-0.710826	0.671529	0.328750
H85	H	-1.016832	1.121831	0.546379
H86	H	-0.970677	0.983381	0.596000
C87	C	-0.887711	0.358359	0.564427
C88	C	-0.806544	0.346862	0.575975
H89	H	-0.915737	0.321394	0.601515
H90	H	-0.905179	0.341527	0.502871
H91	H	-0.897263	0.419952	0.581080
H92	H	-0.796991	0.285269	0.559316
H93	H	-0.789070	0.363688	0.637545
C94	C	-1.280539	0.261729	0.983287
C95	C	-1.236704	0.309011	0.924761
H96	H	-1.318664	0.220607	0.948954
H97	H	-1.306684	0.303284	1.022426
H98	H	-1.245995	0.229218	1.018163
H99	H	-1.271246	0.341528	0.889890
H100	H	-1.210557	0.267450	0.885607
C101	C	-0.523601	0.317220	0.721394
C102	C	-0.509462	0.292402	0.630658
H103	H	-0.495607	0.280262	0.758485
H104	H	-0.578670	0.309414	0.729199
H105	H	-0.506102	0.378815	0.738036
H106	H	-0.526967	0.230808	0.614014
H107	H	-0.454382	0.300200	0.622849
H108	H	-1.211557	0.336107	1.110666
C109	C	-1.007184	0.556495	1.229410
C110	C	-1.000804	0.563399	1.137164
H111	H	-0.969049	0.597606	1.263742
H112	H	-0.998076	0.496566	1.241382
H113	H	-1.058752	0.570646	1.245668
H114	H	-0.949237	0.549242	1.120905
H115	H	-1.009906	0.623342	1.125187
C116	C	-0.968155	0.701499	0.981008
C117	C	-0.954701	0.613170	0.998697
H118	H	-0.930025	0.742621	1.015334
H119	H	-1.019719	0.715627	0.997273
H120	H	-0.963833	0.706156	0.918421
H121	H	-0.959029	0.608511	1.061283
H122	H	-0.903124	0.599037	0.982438
C123	C	-0.399737	0.371702	0.666749
C124	C	-0.385602	0.346893	0.576011
H125	H	-0.371740	0.334741	0.703834
H126	H	-0.454805	0.363893	0.674558
H127	H	-0.382239	0.433297	0.683396
H128	H	-0.403106	0.285300	0.559362
H129	H	-0.330523	0.354694	0.568197
C130	C	-0.981547	0.584238	0.706615
C131	C	-0.965265	0.601790	0.800267
H132	H	-0.946833	0.621680	0.676801
H133	H	-1.034761	0.596601	0.691899
H134	H	-0.974076	0.522531	0.687628
H135	H	-0.972741	0.663496	0.819254
H136	H	-0.912038	0.589434	0.814990
C137	C	-1.184151	0.693045	0.365801
C138	C	-1.190552	0.785294	0.358974
H139	H	-1.222278	0.658701	0.324696
H140	H	-1.193256	0.681014	0.425724
H141	H	-1.132578	0.676855	0.351598
H142	H	-1.242123	0.801485	0.373185
H143	H	-1.181453	0.797330	0.299038
H144	H	-0.521048	0.614539	0.307492
C145	C	-0.439128	0.623408	0.298609
C146	C	-0.385489	0.575597	0.346575
H147	H	-0.411101	0.660372	0.261521
H148	H	-0.467363	0.660347	0.339988
H149	H	-0.475289	0.581926	0.261774
H150	H	-0.349331	0.617080	0.383415
H151	H	-0.357241	0.538656	0.305191
