data_functionalizedCrystal
_audit_creation_method	'MofGen! by Chris Wilmer'
_symmetry_space_group_name_H-M	'P1'
_symmetry_Int_Tables_number	1
_symmetry_cell_setting	triclinic
loop_
_symmetry_equiv_pos_as_xyz
  x,y,z
_cell_length_a	10.685980
_cell_length_b	10.685194
_cell_length_c	19.805407
_cell_angle_alpha	94.381918
_cell_angle_beta	94.383820
_cell_angle_gamma	98.380820
loop_
_atom_site_label
_atom_site_type_symbol
_atom_site_fract_x
_atom_site_fract_y
_atom_site_fract_z
Zn1	Zn	1.901743	-0.356919	0.446334
Zn2	Zn	1.885426	-0.569149	0.323751
Zn3	Zn	1.689525	-0.373158	0.323755
Zn4	Zn	1.673222	-0.585391	0.427495
O5	O	1.787479	-0.471154	0.380334
O6	O	2.077201	-0.371478	0.437956
O7	O	1.859434	-0.543150	0.229035
O8	O	1.731327	-0.193365	0.347902
O9	O	2.065213	-0.527403	0.347895
O10	O	1.887243	-0.181434	0.437960
O11	O	1.715506	-0.399156	0.229038
O12	O	1.509740	-0.414905	0.329634
O13	O	1.703542	-0.555085	0.524711
O14	O	1.497763	-0.570831	0.405851
O15	O	1.871435	-0.387227	0.538552
O16	O	1.843626	-0.748943	0.329627
O17	O	1.687720	-0.760876	0.405847
C18	C	1.457696	-0.496394	0.365699
C19	C	1.316611	-0.507222	0.359453
C20	C	1.762168	-0.800967	0.365708
C21	C	1.751456	-0.942053	0.359479
C22	C	2.118550	-0.445817	0.395026
C23	C	2.259633	-0.435020	0.401287
C24	C	1.787490	-0.471156	0.556877
C25	C	1.787495	-0.471157	0.632109
C26	C	1.812924	-0.140051	0.395033
C27	C	1.823767	0.001045	0.401297
C28	C	1.874906	-0.383766	0.674661
C29	C	1.874895	-0.383763	0.745349
C30	C	1.787479	-0.471158	0.773484
C31	C	1.700059	-0.558552	0.730927
C32	C	1.700064	-0.558548	0.660240
C33	C	1.700032	-0.558569	1.015999
C34	C	1.700036	-0.558569	1.086691
C35	C	1.874863	-0.383784	1.101107
C36	C	1.874869	-0.383780	1.030420
C37	C	1.787445	-0.471170	0.987870
C38	C	1.787456	-0.471170	0.911222
C39	C	1.787473	-0.471164	0.850131
C40	C	1.787454	-0.471179	1.204476
C41	C	1.787442	-0.471171	1.129244
H42	H	1.257451	-0.577325	0.318853
H43	H	1.893873	-0.939737	0.441868
H44	H	1.681335	-1.001280	0.318911
C45	C	1.971024	-0.287642	1.147915
C46	C	2.066442	-0.335023	1.198497
C47	C	2.162602	-0.238887	1.245302
C48	C	2.163344	-0.095369	1.241526
C49	C	2.067922	-0.047981	1.190942
C50	C	1.971762	-0.144117	1.144136
H51	H	2.065896	-0.441270	1.201294
H52	H	2.233239	-0.273968	1.282748
H53	H	2.234527	-0.024203	1.276174
H54	H	2.068468	0.058266	1.188145
H55	H	1.901125	-0.109036	1.106691
C56	C	1.603917	-0.654690	0.613433
C57	C	1.651266	-0.750140	0.562857
C58	C	1.555114	-0.846285	0.516052
C59	C	1.411613	-0.846979	0.519823
C60	C	1.364257	-0.751525	0.570402
C61	C	1.460409	-0.655381	0.617207
H62	H	1.757501	-0.749629	0.560063
H63	H	1.590171	-0.916946	0.478610
H64	H	1.340435	-0.918151	0.485175
H65	H	1.258022	-0.752036	0.573196
H66	H	1.425352	-0.584720	0.654649
C67	C	1.603831	-0.654681	0.969213
C68	C	1.508389	-0.607264	0.918659
C69	C	1.412161	-0.703372	0.871876
C70	C	1.411375	-0.846897	0.875646
C71	C	1.506821	-0.894321	0.926202
C72	C	1.603048	-0.798213	0.972985
H73	H	1.508968	-0.501012	0.915866
H74	H	1.341507	-0.668265	0.834451
H75	H	1.340142	-0.918042	0.841015
H76	H	1.506242	-1.000573	0.928995
H77	H	1.673703	-0.833320	1.010410
C78	C	1.971068	-0.287630	0.643716
C79	C	2.066504	-0.335003	0.597107
C80	C	2.162666	-0.238860	0.566164
C81	C	2.163394	-0.095344	0.581831
C82	C	2.067955	-0.047964	0.628442
C83	C	1.971792	-0.144107	0.659385
H84	H	2.065968	-0.441248	0.585507
H85	H	2.233316	-0.273935	0.531659
H86	H	2.234579	-0.024173	0.558926
H87	H	2.068490	0.058282	0.640042
H88	H	1.901142	-0.109032	0.693890
H89	H	1.946077	-0.312604	0.779992
H90	H	1.628845	-0.629738	1.109596
C91	C	1.971028	-0.287644	0.999472
C92	C	2.067176	-0.191509	1.046278
C93	C	2.163333	-0.095367	1.015331
C94	C	2.163342	-0.095362	0.937578
C95	C	2.067190	-0.191501	0.890768
C96	C	1.971033	-0.287642	0.921715
H97	H	2.067173	-0.191509	1.103839
H98	H	2.234511	-0.024199	1.049983
H99	H	2.234523	-0.024192	0.914669
H100	H	2.067193	-0.191500	0.833207
H101	H	1.899855	-0.358811	0.887062
H102	H	1.318787	-0.364913	0.441881
H103	H	1.628878	-0.629706	0.753841
