data_functionalizedCrystal
_audit_creation_method	'MofGen! by Chris Wilmer'
_symmetry_space_group_name_H-M	'P1'
_symmetry_Int_Tables_number	1
_symmetry_cell_setting	triclinic
loop_
_symmetry_equiv_pos_as_xyz
  x,y,z
_cell_length_a	15.625950
_cell_length_b	10.489741
_cell_length_c	14.185292
_cell_angle_alpha	103.292479
_cell_angle_beta	59.450166
_cell_angle_gamma	84.384422
loop_
_atom_site_label
_atom_site_type_symbol
_atom_site_fract_x
_atom_site_fract_y
_atom_site_fract_z
O1	O	1.290933	0.032973	-0.386031
O2	O	1.003196	0.089018	-0.281393
O3	O	1.153613	-0.125495	-0.336100
O4	O	1.140515	0.247487	-0.331324
O5	O	1.198063	-0.188867	-0.519108
O6	O	1.047645	0.025646	-0.464401
O7	O	1.335382	-0.030399	-0.569040
Cu8	Cu	1.195572	-0.008163	-0.533431
Cu9	Cu	1.143006	0.066782	-0.317002
O10	O	1.184965	0.184115	-0.514333
C11	C	0.988576	0.061070	-0.359498
C12	C	0.878790	0.072191	-0.319573
C13	C	0.638740	-0.063837	-0.686921
C14	C	0.535565	-0.053344	-0.649354
C15	C	0.487159	0.015737	-0.449864
C16	C	0.590331	0.005256	-0.487414
C17	C	0.666115	-0.034533	-0.605944
C18	C	0.617706	0.034560	-0.406437
C19	C	0.720870	0.024073	-0.443985
C20	C	0.796660	-0.015718	-0.562510
C21	C	0.769279	-0.045020	-0.643492
C22	C	0.541922	0.074339	-0.287908
C23	C	0.569297	0.103643	-0.206931
C24	C	0.672462	0.093165	-0.244478
C25	C	0.748251	0.053374	-0.363003
C26	C	0.699842	0.122467	-0.163496
C27	C	0.803007	0.111980	-0.201044
C28	C	0.851415	0.042887	-0.400550
C29	C	1.174849	-0.204578	-0.427243
C30	C	1.171889	-0.345804	-0.426165
C31	C	1.076182	-0.400919	-0.391353
C32	C	1.143308	-0.530439	-0.498027
C33	C	1.099507	-0.467937	-0.317603
C34	C	1.239073	-0.473490	-0.532928
C35	C	1.195239	-0.410948	-0.352418
C36	C	1.262440	-0.540458	-0.459140
C37	C	1.350002	-0.002449	-0.490932
C38	C	1.459786	-0.013568	-0.530850
C39	C	1.163729	0.263198	-0.423187
C40	C	1.166686	0.404427	-0.424257
N41	N	1.232552	-0.060877	-0.685658
C42	C	1.341163	-0.215667	-0.882685
C43	C	1.313154	-0.175759	-0.767472
C44	C	1.179923	0.014138	-0.719032
C45	C	1.207917	-0.025759	-0.834242
C46	C	1.288538	-0.140662	-0.916061
C47	C	1.155293	0.049247	-0.867617
C48	C	1.183288	0.009357	-0.982818
C49	C	1.263908	-0.105539	-1.064644
C50	C	1.316534	-0.180552	-1.031262
C51	C	1.074676	0.164154	-0.785798
C52	C	1.022052	0.239160	-0.819173
C53	C	1.050043	0.199265	-0.934375
C54	C	1.130663	0.084369	-1.016201
C55	C	0.997417	0.274278	-0.967757
C56	C	1.025413	0.234388	-1.082959
C57	C	1.158658	0.044479	-1.131402
N58	N	1.106034	0.119485	-0.164778
H59	H	0.825294	0.135849	-0.135103
H60	H	0.931781	0.367840	-0.901128
H61	H	1.341211	-0.600616	-0.487831
F62	F	1.022339	-0.466706	-0.198642
F63	F	0.969405	0.314222	-1.118479
F64	F	0.932075	0.000554	-0.526704
H65	H	1.217170	-0.358992	-0.290843
H66	H	0.880662	-0.024258	-0.593079
H67	H	0.830986	-0.077401	-0.740010
H68	H	0.507581	0.136034	-0.110424
F69	F	0.406499	0.058047	-0.323721
H70	H	1.382177	-0.274125	-1.097882
H71	H	0.700447	-0.096217	-0.783439
H72	H	0.513281	-0.077179	-0.715304
F73	F	1.369176	-0.255601	-0.731964
F74	F	0.432128	0.085467	-0.247950
H75	H	0.638127	0.154850	-0.066989
F76	F	0.936253	0.361448	-0.732088
H77	H	0.997516	-0.340592	-0.362828
H78	H	1.224301	-0.049094	-1.198022
F79	F	1.114599	-0.598300	-0.578491
H80	H	1.286704	-0.138012	-1.158449
F81	F	1.316205	-0.474958	-0.651982
H82	H	1.406806	-0.309241	-0.949305
F83	F	1.094125	0.136426	-0.631947
F84	F	1.044889	0.206608	-0.663192
