data_functionalizedCrystal
_audit_creation_method	'MofGen! by Chris Wilmer'
_symmetry_space_group_name_H-M	'P1'
_symmetry_Int_Tables_number	1
_symmetry_cell_setting	triclinic
loop_
_symmetry_equiv_pos_as_xyz
  x,y,z
_cell_length_a	19.902436
_cell_length_b	14.446369
_cell_length_c	14.446369
_cell_angle_alpha	119.997683
_cell_angle_beta	89.996642
_cell_angle_gamma	59.998044
loop_
_atom_site_label
_atom_site_type_symbol
_atom_site_fract_x
_atom_site_fract_y
_atom_site_fract_z
Zr1	Zr	0.647329	1.013124	0.121444
O2	O	0.540040	1.206244	0.269263
O3	O	0.680218	0.820004	0.076124
O4	O	0.680221	1.013102	0.269238
O5	O	0.540034	1.013162	-0.076176
O6	O	0.790800	1.013085	0.269226
O7	O	0.540036	1.013146	0.076148
O8	O	0.790794	0.667667	-0.076220
O9	O	0.540041	1.358580	0.269270
O10	O	0.776769	0.899423	0.056793
O11	O	0.694244	0.899449	-0.056876
O12	O	0.694248	1.126797	0.170491
O13	O	0.611723	1.126823	0.056822
Zr14	Zr	0.823686	1.013121	-0.121516
Zr15	Zr	0.823689	1.013095	0.121425
Zr16	Zr	0.647326	1.013150	-0.121496
Zr17	Zr	0.647330	1.256082	0.121455
Zr18	Zr	0.823684	0.770163	-0.121527
O19	O	0.790797	1.206241	-0.076196
O20	O	0.790801	1.206204	0.269235
O21	O	0.540035	1.206281	-0.076167
O22	O	0.930975	0.820000	-0.269334
O23	O	0.930979	0.819963	0.076096
O24	O	0.680213	0.820041	-0.269306
O25	O	0.930981	1.013082	0.076105
O26	O	0.790793	1.013142	-0.269310
O27	O	0.680215	1.013160	-0.269297
O28	O	0.930979	1.013099	-0.076220
O29	O	0.680224	1.358557	0.269254
O30	O	0.790791	0.667687	-0.269325
O31	O	0.930974	0.667665	-0.269341
O32	O	0.930977	0.667644	-0.076236
O33	O	0.540038	1.358601	0.076164
O34	O	0.680221	1.358578	0.076149
O35	O	0.776766	0.899447	-0.170563
O36	O	0.859291	0.899422	-0.056894
O37	O	0.776771	1.126796	0.056804
O38	O	0.694245	1.126822	-0.056865
C39	C	0.735505	0.709219	-0.000050
C40	C	0.735505	0.606077	-0.000054
C41	C	0.683705	0.459083	-0.072074
C42	C	0.683424	0.566703	-0.071783
C43	C	0.697538	0.655066	0.123481
C44	C	0.697149	0.547833	0.123108
C45	C	0.825307	0.372610	-0.050508
C46	C	0.825175	0.478761	-0.053029
C47	C	0.514907	1.013158	-0.000011
C48	C	0.440038	1.013170	-0.000003
C49	C	0.168036	1.013106	-0.000047
C50	C	0.144471	1.156538	0.071333
C51	C	0.222308	1.156628	0.071729
C52	C	0.302979	1.013139	-0.000025
C53	C	0.300568	0.941898	0.052266
C54	C	0.222340	0.942815	0.052794
C55	C	0.223325	0.939888	-0.123749
C56	C	0.300246	0.942584	-0.123559
C57	C	0.379246	1.013150	-0.000013
C58	C	0.091771	1.013091	-0.000054
C59	C	0.956107	1.013086	-0.000060
C60	C	1.030977	1.013074	-0.000069
C61	C	0.735511	1.013090	0.303846
C62	C	0.735512	1.013079	0.406980
C63	C	0.735509	1.317026	-0.000022
C64	C	0.735510	1.420168	-0.000017
C65	C	0.787568	0.869657	0.374549
C66	C	0.787852	0.869598	0.481800
C67	C	0.773211	1.084729	0.589765
C68	C	0.773599	1.083783	0.481978
C69	C	0.645741	1.085908	0.482951
C70	C	0.645882	1.083237	0.588936
C71	C	0.735509	1.013138	0.696074
C72	C	0.735523	1.013097	0.592914
C73	C	0.956105	0.709183	-0.000074
C74	C	1.030974	0.606029	-0.000088
C75	C	0.735502	0.709252	-0.303931
C76	C	0.735500	0.606121	-0.407071
C77	C	0.956102	0.709216	-0.303956
C78	C	1.030969	0.606073	-0.407104
C79	C	0.514913	1.317029	0.303884
C80	C	0.440045	1.420172	0.407032
C81	C	0.514909	1.317061	0.000003
C82	C	0.440040	1.420216	0.000016
C83	C	0.735513	1.316993	0.303860
C84	C	0.735515	1.420124	0.406999
C85	C	1.023058	0.557587	0.059260
C86	C	1.093398	0.460676	0.059271
C87	C	1.171655	0.412202	-0.000074
C88	C	1.179570	0.460654	-0.059424
C89	C	1.109230	0.557569	-0.059427
C90	C	1.109213	0.557622	-0.396209
C91	C	1.179565	0.460722	-0.493118
C92	C	1.171673	0.412267	-0.600920
C93	C	1.093422	0.460727	-0.611813
C94	C	1.023070	0.557632	-0.514905
C95	C	0.361802	1.468634	0.396137
C96	C	0.291449	1.565565	0.493046
C97	C	0.299342	1.614025	0.600849
C98	C	0.377593	1.565558	0.611741
C99	C	0.447944	1.468636	0.514834
C100	C	0.447957	1.468667	-0.059322
C101	C	0.377616	1.565605	-0.059305
C102	C	0.299360	1.614083	0.000043
C103	C	0.291445	1.565627	0.059388
C104	C	0.361785	1.468697	0.059377
C105	C	0.683199	0.459819	-0.482052
C106	C	0.683421	0.566734	-0.374721
C107	C	0.825168	0.479257	-0.481638
C108	C	0.824885	0.371888	-0.588499
C109	C	0.698868	0.546881	-0.590063
C110	C	0.697050	0.655345	-0.481389
H111	H	0.853539	0.439165	-0.144038
H112	H	1.243275	0.421275	-0.484229
H113	H	0.617859	0.494853	-0.037362
H114	H	0.709038	0.370221	-0.163267
F115	F	0.247623	0.805270	-0.010755
F116	F	0.386057	1.617154	-0.122475
H117	H	0.357380	0.836395	0.002777
H118	H	0.762445	0.813055	0.320453
F119	F	1.117668	0.609108	-0.122604
F120	F	0.208152	1.617231	0.122543
H121	H	0.302120	0.991361	0.142427
F122	F	0.878599	0.332724	-0.691215
H123	H	0.606778	1.191561	0.510372
H124	H	0.355328	1.429251	0.107694
F125	F	0.879879	0.506846	0.008433
F126	F	0.743289	0.519090	0.197082
F127	F	0.939778	0.609163	0.122431
H128	H	0.384009	1.605027	0.699526
H129	H	1.087008	0.421261	-0.699599
F130	F	0.224505	1.717243	0.000042
H131	H	0.187013	0.985793	-0.167430
F132	F	0.866755	0.250119	-0.167602
H133	H	0.630990	0.745846	-0.429959
F134	F	0.610780	0.601033	0.175936
H135	H	0.731189	0.687468	-0.506913
H136	H	0.511671	1.429204	-0.107658
H137	H	0.617392	0.656089	-0.320443
H138	H	1.228923	0.333286	-0.000063
H139	H	0.617000	0.497068	-0.479708
F140	F	1.117631	0.609180	-0.281486
F141	F	1.246555	0.309129	-0.704050
H142	H	0.733458	0.683839	0.179491
H143	H	1.243295	0.421172	-0.107740
F144	F	0.596848	0.682791	-0.026020
F145	F	0.939800	0.609181	-0.526518
F146	F	0.299769	1.010461	-0.174629
F147	F	0.353384	1.417075	0.281414
F148	F	0.174572	1.008978	0.171774
F149	F	0.208176	1.617125	0.481430
H150	H	0.708376	0.370148	-0.481023
F151	F	0.224460	1.717178	0.703978
H152	H	0.511651	1.429179	0.523718
F153	F	0.716639	0.517756	-0.304421
F154	F	0.863220	0.253259	-0.588151
F155	F	0.878322	0.508325	-0.517236
H156	H	0.854705	0.440689	-0.430037
H157	H	0.864087	0.346623	0.001725
H158	H	0.633836	0.586464	-0.594170
H159	H	1.086938	0.421239	0.107600
H160	H	0.708891	0.529999	-0.162750
F161	F	0.220776	1.229682	0.025886
F162	F	0.611994	0.775726	0.176676
F163	F	0.093274	1.230138	0.025727
H164	H	0.736786	0.522092	-0.668281
H165	H	0.104560	1.212550	0.162033
F166	F	0.375337	0.805740	-0.198919
F167	F	0.249370	0.801778	-0.193588
F168	F	0.754841	0.796171	0.479526
F169	F	0.873610	0.796804	0.302867
F170	F	0.874413	0.796478	0.478798
F171	F	0.219987	1.230126	0.190999
H172	H	0.738111	1.189029	0.508615
F173	F	0.726017	1.222659	0.692052
F174	F	0.859932	1.018012	0.416370
H175	H	0.614226	1.039686	0.432785
F176	F	0.858720	1.020482	0.592765
H177	H	0.617725	1.030999	0.588283
H178	H	0.603860	1.187904	0.668064
