data_functionalizedCrystal
_audit_creation_method	'MofGen! by Chris Wilmer'
_symmetry_space_group_name_H-M	'P1'
_symmetry_Int_Tables_number	1
_symmetry_cell_setting	triclinic
loop_
_symmetry_equiv_pos_as_xyz
  x,y,z
_cell_length_a	14.908571
_cell_length_b	19.121063
_cell_length_c	14.908694
_cell_angle_alpha	95.839462
_cell_angle_beta	83.592472
_cell_angle_gamma	89.303906
loop_
_atom_site_label
_atom_site_type_symbol
_atom_site_fract_x
_atom_site_fract_y
_atom_site_fract_z
Zn1	Zn	1.394122	-0.369756	-0.610618
Zn2	Zn	1.379559	-0.480018	-0.464952
Zn3	Zn	1.234771	-0.355390	-0.449811
Zn4	Zn	1.236993	-0.479963	-0.607548
O5	O	1.311361	-0.421282	-0.533232
O6	O	1.518543	-0.390417	-0.598917
O7	O	1.353327	-0.457496	-0.335968
O8	O	1.261073	-0.259017	-0.466091
O9	O	1.507844	-0.471426	-0.491897
O10	O	1.378148	-0.269571	-0.584235
O11	O	1.246952	-0.365933	-0.324844
O12	O	1.108712	-0.365880	-0.463113
O13	O	1.264862	-0.471333	-0.734930
O14	O	1.110345	-0.457403	-0.579002
O15	O	1.380303	-0.390364	-0.737186
O16	O	1.355483	-0.578289	-0.488919
O17	O	1.250741	-0.578249	-0.593683
C18	C	1.076767	-0.410078	-0.519082
C19	C	0.976407	-0.405303	-0.513051
C20	C	1.301798	-0.603754	-0.542632
C21	C	1.297791	-0.681822	-0.546689
C22	C	0.789552	-0.491764	-0.622243
C23	C	0.695255	-0.487280	-0.616580
C24	C	0.693513	-0.391847	-0.496065
C25	C	0.787811	-0.396331	-0.501729
C26	C	0.835827	-0.446292	-0.564819
C27	C	0.930125	-0.450779	-0.570478
C28	C	0.928383	-0.355343	-0.449968
C29	C	0.834085	-0.350859	-0.444304
C30	C	1.350490	-0.718500	-0.494101
C31	C	1.346727	-0.791854	-0.497922
C32	C	1.290260	-0.828527	-0.554327
C33	C	1.237560	-0.791844	-0.606921
C34	C	1.241328	-0.718492	-0.603105
C35	C	1.276157	-1.050002	-0.568582
C36	C	1.272391	-1.123359	-0.572393
C37	C	1.381560	-1.123364	-0.463394
C38	C	1.385319	-1.050011	-0.459578
C39	C	1.332622	-1.013334	-0.512176
C40	C	1.286411	-0.903506	-0.558232
C41	C	1.336477	-0.938357	-0.508275
C42	C	1.546872	-0.432530	-0.547438
C43	C	1.647232	-0.437323	-0.553492
C44	C	1.324455	-0.432445	-0.769902
C45	C	1.330035	-0.437202	-0.870756
C46	C	1.320987	-0.238099	-0.523817
C47	C	1.325089	-0.160037	-0.519804
C48	C	1.229730	-0.350798	-1.048689
C49	C	1.234970	-0.355265	-1.143451
C50	C	1.345749	-0.450607	-1.155042
C51	C	1.340509	-0.446140	-1.060281
C52	C	1.282499	-0.396233	-1.007107
C53	C	1.277264	-0.391762	-0.912344
C54	C	1.388038	-0.487107	-0.923937
C55	C	1.393278	-0.491575	-1.018699
C56	C	1.298373	-0.410114	-0.297484
C57	C	1.292978	-0.405167	-0.196630
H58	H	0.969218	-0.491461	-0.621848
H59	H	0.657582	-0.524307	-0.663343
H60	H	1.396467	-0.688645	-0.448165
H61	H	1.198416	-0.688629	-0.645929
H62	H	0.966069	-0.318318	-0.403207
Br63	Br	1.471996	-0.559306	-1.090870
H64	H	1.182504	-0.310155	-1.005395
H65	H	0.654403	-0.351166	-0.444706
H66	H	0.794978	-0.310180	-0.392940
Br67	Br	1.418256	-0.841630	-0.426554
H68	H	1.431299	-1.020153	-0.413648
Br69	Br	0.854720	-0.559575	-0.707851
Br70	Br	1.453078	-1.173143	-0.392020
H71	H	1.192000	-0.318267	-1.177303
Br72	Br	1.195736	-1.173129	-0.648932
Br73	Br	1.209780	-0.953283	-0.634782
Br74	Br	1.160933	-0.841615	-0.683481
Br75	Br	1.198542	-0.324030	-0.840181
H76	H	1.233247	-1.020146	-0.611408
Br77	Br	1.459661	-0.548770	-0.867501
Br78	Br	1.424453	-0.518344	-1.227220
H79	H	1.382456	-0.908496	-0.462354
