data_functionalizedCrystal
_audit_creation_method	'MofGen! by Chris Wilmer'
_symmetry_space_group_name_H-M	'P1'
_symmetry_Int_Tables_number	1
_symmetry_cell_setting	triclinic
loop_
_symmetry_equiv_pos_as_xyz
  x,y,z
_cell_length_a	19.121241
_cell_length_b	19.121111
_cell_length_c	19.120904
_cell_angle_alpha	85.256407
_cell_angle_beta	89.875472
_cell_angle_gamma	84.995459
loop_
_atom_site_label
_atom_site_type_symbol
_atom_site_fract_x
_atom_site_fract_y
_atom_site_fract_z
Zn1	Zn	1.043551	0.254511	-0.452560
Zn2	Zn	1.543551	0.754511	0.047440
Zn3	Zn	1.043461	0.367162	-0.339911
Zn4	Zn	1.543461	0.867162	0.160089
Zn5	Zn	0.931336	0.254093	-0.330312
Zn6	Zn	1.431336	0.754093	0.169688
Zn7	Zn	0.920826	0.377148	-0.452504
Zn8	Zn	1.420826	0.877148	0.047496
O9	O	0.984793	0.313228	-0.393822
O10	O	1.484793	0.813228	0.106178
O11	O	1.141824	0.265450	-0.441657
O12	O	1.641824	0.765450	0.058343
O13	O	1.032948	0.347809	-0.240356
O14	O	1.532948	0.847809	0.259644
O15	O	0.950657	0.155504	-0.342535
O16	O	1.450657	0.655504	0.157465
O17	O	1.141758	0.348214	-0.358894
O18	O	1.641758	0.848214	0.141106
O19	O	1.033101	0.155812	-0.432350
O20	O	1.533101	0.655812	0.067650
O21	O	0.950570	0.264737	-0.233304
O22	O	1.450570	0.764737	0.266696
O23	O	0.831656	0.274420	-0.342481
O24	O	1.331656	0.774420	0.157519
O25	O	0.932744	0.365235	-0.550793
O26	O	1.432744	0.865235	-0.050793
O27	O	0.823934	0.364829	-0.432255
O28	O	1.323934	0.864829	0.067745
O29	O	1.022910	0.275134	-0.550834
O30	O	1.522910	0.775134	-0.050834
O31	O	1.022757	0.467131	-0.358840
O32	O	1.522757	0.967131	0.141160
O33	O	0.932657	0.474467	-0.441562
O34	O	1.432657	0.974467	0.058438
C35	C	0.802311	0.320663	-0.386321
C36	C	1.302311	0.820663	0.113679
C37	C	0.724242	0.323862	-0.383129
C38	C	1.224242	0.823862	0.116871
C39	C	0.687594	0.282348	-0.424792
C40	C	1.187594	0.782348	0.075208
C41	C	0.614241	0.285350	-0.421787
C42	C	1.114241	0.785350	0.078213
C43	C	0.577537	0.329869	-0.377123
C44	C	1.077537	0.829869	0.122877
C45	C	0.614190	0.371385	-0.335456
C46	C	1.114190	0.871385	0.164544
C47	C	0.687542	0.368379	-0.338458
C48	C	1.187542	0.868379	0.161542
C49	C	0.356060	0.341094	-0.365896
C50	C	0.856060	0.841094	0.134104
C51	C	0.282703	0.344098	-0.362899
C52	C	0.782703	0.844098	0.137101
C53	C	0.282759	0.258062	-0.449230
C54	C	0.782759	0.758062	0.050770
C55	C	0.356112	0.255063	-0.452230
C56	C	0.856112	0.755063	0.047770
C57	C	0.392759	0.296576	-0.410561
C58	C	0.892759	0.796576	0.089439
C59	C	0.502558	0.332940	-0.374052
C60	C	1.002558	0.832940	0.125948
C61	C	0.467737	0.293501	-0.413629
C62	C	0.967737	0.793501	0.086371
C63	C	0.976575	0.496376	-0.401253
C64	C	1.476575	0.996376	0.098747
C65	C	0.973123	0.574726	-0.404458
C66	C	1.473123	1.074726	0.095542
C67	C	1.018444	0.607692	-0.362934
C68	C	1.518444	1.107692	0.137066
C69	C	1.015201	0.681310	-0.365953
C70	C	1.515201	1.181310	0.134047
C71	C	0.966633	0.721961	-0.410493
C72	C	1.466633	1.221961	0.089507
C73	C	0.921310	0.688990	-0.452022
C74	C	1.421310	1.188990	0.047978
C75	C	0.924557	0.615373	-0.449006
C76	C	1.424557	1.115373	0.050994
C77	C	0.954484	0.944429	-0.421754
C78	C	1.454484	1.444429	0.078246
C79	C	0.951239	1.018051	-0.424765
C80	C	1.451239	1.518051	0.075235
C81	C	1.045132	1.010365	-0.338696
C82	C	1.545132	1.510365	0.161304
C83	C	1.048371	0.936747	-0.335682
C84	C	1.548371	1.436747	0.164318
C85	C	1.003051	0.903783	-0.377213
C86	C	1.503051	1.403783	0.122787
C87	C	0.963315	0.797211	-0.413578
C88	C	1.463315	1.297211	0.086422
C89	C	1.006372	0.828534	-0.374131
C90	C	1.506372	1.328534	0.125869
C91	C	1.167988	0.305765	-0.401352
C92	C	1.667988	0.805765	0.098648
C93	C	1.246055	0.302584	-0.404561
C94	C	1.746055	0.802584	0.095439
C95	C	0.976665	0.321345	-0.577010
C96	C	1.476665	0.821345	-0.077010
C97	C	0.973201	0.324803	-0.655073
C98	C	1.473201	0.824803	-0.155073
C99	C	0.993055	1.129366	-0.386386
C100	C	1.493055	1.629366	0.113614
C101	C	0.996560	1.051017	-0.383240
C102	C	1.496560	1.551017	0.116760
C103	C	1.018516	0.279520	-0.691770
C104	C	1.518516	0.779520	-0.191770
C105	C	1.015252	0.282767	-0.765119
C106	C	1.515252	0.782767	-0.265119
C107	C	0.966678	0.331302	-0.801770
C108	C	1.466678	0.831302	-0.301770
C109	C	0.921358	0.376588	-0.765068
C110	C	1.421358	0.876588	-0.265068
C111	C	0.924618	0.373336	-0.691720
C112	C	1.424618	0.873336	-0.191720
C113	C	0.954482	0.343463	-1.023231
C114	C	1.454482	0.843463	-0.523231
C115	C	0.951227	0.346712	-1.096584
C116	C	1.451227	0.846712	-0.596584
C117	C	1.045121	0.252890	-1.096630
C118	C	1.545121	0.752890	-0.596630
C119	C	1.048379	0.249646	-1.023281
C120	C	1.548379	0.749646	-0.523281
C121	C	1.003058	0.294929	-0.986585
C122	C	1.503058	0.794929	-0.486585
C123	C	0.963343	0.334624	-0.876744
C124	C	1.463343	0.834624	-0.376744
C125	C	1.006390	0.291603	-0.911612
C126	C	1.506390	0.791603	-0.411612
C127	C	0.992933	0.305091	-0.211346
C128	C	1.492933	0.805091	0.288654
C129	C	0.996542	0.301428	-0.133280
C130	C	1.496542	0.801428	0.366720
H131	H	0.252820	0.380354	-0.326528
H132	H	0.752820	0.880354	0.173472
H133	H	1.045936	0.252083	-0.881767
H134	H	1.545936	0.752083	-0.381767
O135	O	1.064135	0.233929	-0.804698
O136	O	1.564135	0.733929	-0.304698
H137	H	1.032832	0.200818	-0.835363
H138	H	1.532832	0.700818	-0.335363
H139	H	0.881805	0.416104	-0.794914
H140	H	1.381805	0.916104	-0.294914
O141	O	0.727182	0.234326	-0.472961
O142	O	1.227182	0.734326	0.027039
H143	H	0.689373	0.205957	-0.501419
H144	H	1.189373	0.705957	-0.001419
O145	O	0.395703	0.207047	-0.500403
O146	O	0.895703	0.707047	-0.000403
H147	H	0.432121	0.168382	-0.468936
H148	H	0.932121	0.668382	0.031064
O149	O	0.243234	0.213286	-0.494167
O150	O	0.743234	0.713286	0.005833
H151	H	0.260325	0.156838	-0.480543
H152	H	0.760325	0.656838	0.019457
H153	H	1.082030	1.037213	-0.304885
H154	H	1.582030	1.537213	0.195115
H155	H	0.923796	0.374145	-0.906593
H156	H	1.423796	0.874145	-0.406593
H157	H	0.385889	0.374897	-0.331967
H158	H	0.885889	0.874897	0.168033
O159	O	0.898822	0.399056	-1.136112
O160	O	1.398822	0.899056	-0.636112
H161	H	0.904174	0.393710	-1.193280
H162	H	1.404174	0.893710	-0.693280
H163	H	0.584300	0.407630	-0.299086
H164	H	1.084300	0.907630	0.200914
O165	O	0.574711	0.240575	-0.466721
O166	O	1.074711	0.740575	0.033279
H167	H	0.612557	0.209119	-0.498288
H168	H	1.112557	0.709119	0.001712
H169	H	1.082018	0.216022	-1.126515
H170	H	1.582018	0.716022	-0.626515
O171	O	0.898857	1.061901	-0.472812
O172	O	1.398857	1.561901	0.027188
H173	H	0.867893	1.026611	-0.501191
H174	H	1.367893	1.526611	-0.001191
O175	O	1.100769	0.197295	-0.983752
O176	O	1.600769	0.697295	-0.483752
H177	H	1.136570	0.225913	-0.953089
H178	H	1.636570	0.725913	-0.453089
O179	O	1.064080	0.716864	-0.321158
O180	O	1.564080	1.216864	0.178842
H181	H	1.096924	0.750291	-0.355458
H182	H	1.596924	1.250291	0.144542
H183	H	0.917581	0.917595	-0.455569
H184	H	1.417581	1.417595	0.044431
H185	H	0.917588	0.380346	-0.993363
H186	H	1.417588	0.880346	-0.493363
H187	H	0.887712	0.410205	-0.661842
H188	H	1.387712	0.910205	-0.161842
O189	O	1.058756	0.784690	-0.326096
O190	O	1.558756	1.284690	0.173904
H191	H	1.089732	0.819977	-0.297727
H192	H	1.589732	1.319977	0.202273
O193	O	0.868918	0.732837	-0.500053
O194	O	1.368918	1.232837	-0.000053
H195	H	0.897255	0.766647	-0.538470
H196	H	1.397255	1.266647	-0.038470
O197	O	0.727076	0.413154	-0.293524
O198	O	1.227076	0.913154	0.206476
H199	H	0.689231	0.444621	-0.261966
H200	H	1.189231	0.944621	0.238034
H201	H	0.497625	0.257250	-0.449991
H202	H	0.997625	0.757250	0.050009
O203	O	0.462967	0.380956	-0.325879
O204	O	0.962967	0.880956	0.174121
H205	H	0.474038	0.436254	-0.340653
H206	H	0.974038	0.936254	0.159347
O207	O	1.070832	0.563847	-0.314897
O208	O	1.570832	1.063847	0.185103
H209	H	1.101806	0.599142	-0.286536
H210	H	1.601806	1.099142	0.213464
H211	H	1.087920	0.903650	-0.299414
H212	H	1.587920	1.403650	0.200586
O213	O	0.875667	0.579812	-0.493784
O214	O	1.375667	1.079812	0.006216
H215	H	0.841342	0.620445	-0.525255
H216	H	1.341342	1.120445	-0.025255
O217	O	0.910921	0.841062	-0.461601
O218	O	1.410921	1.341062	0.038399
H219	H	0.939259	0.874871	-0.500019
H220	H	1.439259	1.374871	-0.000019
O221	O	1.070907	0.227171	-0.652240
O222	O	1.570907	0.727171	-0.152240
H223	H	1.101864	0.196224	-0.690083
H224	H	1.601864	0.696224	-0.190083
