data_functionalizedCrystal
_audit_creation_method	'MofGen! by Chris Wilmer'
_symmetry_space_group_name_H-M	'P1'
_symmetry_Int_Tables_number	1
_symmetry_cell_setting	triclinic
loop_
_symmetry_equiv_pos_as_xyz
  x,y,z
_cell_length_a	14.446369
_cell_length_b	19.902436
_cell_length_c	14.446369
_cell_angle_alpha	60.005374
_cell_angle_beta	89.999769
_cell_angle_gamma	59.995173
loop_
_atom_site_label
_atom_site_type_symbol
_atom_site_fract_x
_atom_site_fract_y
_atom_site_fract_z
Zr1	Zr	0.891633	0.735504	-0.121494
O2	O	0.743812	0.875674	-0.269284
O3	O	0.936961	0.595327	-0.076192
O4	O	0.936943	0.735499	-0.269298
O5	O	0.743830	0.735508	0.076151
O6	O	1.089273	0.735504	-0.269305
O7	O	0.743830	0.735502	-0.076178
O8	O	1.089305	0.484761	0.076126
O9	O	0.743798	0.986250	-0.269280
O10	O	1.069959	0.652990	-0.056873
O11	O	0.956277	0.652991	0.056814
O12	O	0.956256	0.818026	-0.170543
O13	O	0.842573	0.818027	-0.056856
Zr14	Zr	1.134581	0.735520	0.121441
Zr15	Zr	1.134582	0.735511	-0.121506
Zr16	Zr	0.891633	0.735514	0.121453
Zr17	Zr	0.891610	0.911860	-0.121489
Zr18	Zr	1.134605	0.559164	0.121435
O19	O	1.089254	0.875697	0.076138
O20	O	1.089254	0.875683	-0.269301
O21	O	0.743812	0.875688	0.076155
O22	O	1.282402	0.595350	0.269230
O23	O	1.282403	0.595337	-0.076209
O24	O	0.936960	0.595341	0.269247
O25	O	1.282384	0.735517	-0.076204
O26	O	1.089272	0.735525	0.269244
O27	O	0.936942	0.735521	0.269252
O28	O	1.282384	0.735523	0.076124
O29	O	0.936910	0.986255	-0.269290
O30	O	1.089305	0.484769	0.269236
O31	O	1.282417	0.484774	0.269227
O32	O	1.282417	0.484767	0.076117
O33	O	0.743798	0.986258	-0.076170
O34	O	0.936909	0.986263	-0.076180
O35	O	1.069959	0.652999	0.170490
O36	O	1.183641	0.652997	0.056803
O37	O	1.069938	0.818033	-0.056868
O38	O	0.956255	0.818035	0.056819
C39	C	1.013136	0.514917	-0.000034
C40	C	1.013146	0.440049	-0.000036
C41	C	0.709215	0.735504	-0.000012
C42	C	0.606077	0.735501	-0.000007
C43	C	0.638511	0.631402	0.071687
C44	C	0.531256	0.631365	0.071351
C45	C	0.423279	0.787519	-0.123598
C46	C	0.531069	0.786826	-0.123182
C47	C	0.530110	0.788361	0.050847
C48	C	0.424122	0.786427	0.053319
C49	C	1.013095	0.168038	-0.000023
C50	C	1.084465	0.196776	-0.072082
C51	C	1.084863	0.274390	-0.071773
C52	C	1.013120	0.302986	-0.000030
C53	C	1.065426	0.210911	0.123490
C54	C	1.065952	0.132968	0.123099
C55	C	0.889387	0.259966	-0.050490
C56	C	0.889579	0.338704	-0.052993
C57	C	1.013134	0.379251	-0.000028
C58	C	1.013085	0.091769	-0.000018
C59	C	1.316999	0.735521	-0.000042
C60	C	1.420137	0.735523	-0.000047
C61	C	1.013108	0.735500	-0.303916
C62	C	1.013108	0.735496	-0.407053
C63	C	1.013078	0.956107	-0.000020
C64	C	1.013068	1.030975	-0.000018
C65	C	1.085178	0.631419	-0.482043
C66	C	1.084866	0.631348	-0.374714
C67	C	0.889577	0.787195	-0.481606
C68	C	0.889972	0.786534	-0.588465
C69	C	1.063571	0.788682	-0.590047
C70	C	1.066071	0.786721	-0.481375
C71	C	1.013107	0.735524	0.303863
C72	C	1.013107	0.735528	0.407000
C73	C	1.317028	0.514926	-0.000049
C74	C	1.420176	0.440061	-0.000056
C75	C	1.013136	0.514929	0.303856
C76	C	1.013145	0.440065	0.406991
C77	C	1.317028	0.514938	0.303841
C78	C	1.420175	0.440077	0.406971
C79	C	0.709187	0.956087	-0.303894
C80	C	0.606039	1.030948	-0.407024
C81	C	0.709186	0.956099	-0.000005
C82	C	0.606038	1.030964	0.000002
C83	C	1.013079	0.956095	-0.303909
C84	C	1.013069	1.030959	-0.407044
C85	C	1.409275	0.404899	-0.059407
C86	C	1.506184	0.334565	-0.059437
C87	C	1.613993	0.299389	-0.000108
C88	C	1.624893	0.334557	0.059245
C89	C	1.527984	0.404895	0.059267
C90	C	1.072491	0.404913	0.514772
C91	C	1.072496	0.334580	0.611687
C92	C	1.013161	0.299397	0.600819
C93	C	0.953808	0.334556	0.493027
C94	C	0.953797	0.404893	0.396114
C95	C	1.527966	0.404921	0.396058
C96	C	1.624894	0.334590	0.492950
C97	C	1.614028	0.299413	0.600754
C98	C	1.506226	0.334576	0.611664
C99	C	1.409301	0.404910	0.514773
C100	C	0.498248	1.066112	-0.396112
C101	C	0.401321	1.136464	-0.493004
C102	C	0.412186	1.171645	-0.600808
C103	C	0.519988	1.136478	-0.611718
C104	C	0.616913	1.066132	-0.514827
C105	C	0.616940	1.066133	0.059343
C106	C	0.520031	1.136486	0.059346
C107	C	0.412221	1.171664	0.000014
C108	C	0.401322	1.136493	-0.059334
C109	C	0.498230	1.066145	-0.059343
C110	C	1.072415	1.066120	-0.396140
C111	C	1.072428	1.136453	-0.493037
C112	C	1.013088	1.171629	-0.600837
C113	C	0.953740	1.136461	-0.611739
C114	C	0.953734	1.066124	-0.514843
H115	H	0.533003	0.590589	0.162318
H116	H	0.528821	1.165131	-0.699503
H117	H	0.704715	1.037496	0.107666
Cl118	Cl	0.989039	0.235841	0.209986
H119	H	0.905402	1.037504	-0.523738
Cl120	Cl	1.204639	0.167698	0.186311
H121	H	1.120831	0.305961	0.699447
Cl122	Cl	0.722041	0.567960	0.212519
H123	H	1.692960	0.242143	0.679640
Cl124	Cl	0.425281	0.727817	0.193905
Cl125	Cl	0.484505	1.021935	-0.133943
H126	H	0.333322	1.228946	0.000031
H127	H	0.905499	0.305900	0.484195
H128	H	0.849571	0.749790	-0.588194
Cl129	Cl	1.273797	0.449092	0.528512
Cl130	Cl	0.533759	1.180683	0.133967
H131	H	0.905475	0.433505	0.308357
H132	H	0.313530	1.165146	-0.107641
Cl133	Cl	1.541709	0.449083	0.133897
H134	H	0.905426	1.165112	-0.699523
H135	H	0.333254	1.228925	-0.679693
Cl136	Cl	1.030698	0.374519	-0.212204
H137	H	0.489380	1.037472	-0.308341
Cl138	Cl	1.147026	1.021913	-0.260631
Cl139	Cl	0.821933	0.304308	-0.188801
Cl140	Cl	1.760402	0.290396	0.479208
H141	H	0.850504	0.404383	-0.143994
H142	H	0.704679	1.037501	-0.523725
Cl143	Cl	1.760434	0.290322	0.133830
Cl144	Cl	0.302450	0.905776	-0.209712
H145	H	0.420977	0.751844	-0.164576
Cl146	Cl	1.147095	0.449126	0.528464
H147	H	0.693342	0.590953	0.036722
Cl148	Cl	0.534806	0.568662	0.016871
Cl149	Cl	0.607569	0.736551	0.189247
Cl150	Cl	0.800565	0.374706	0.019621
Cl151	Cl	1.147035	1.180655	-0.479305
Cl152	Cl	1.013188	0.210971	0.722666
H153	H	0.581260	0.750302	-0.163861
H154	H	1.013101	1.228902	-0.679727
H155	H	1.049867	0.590518	-0.320928
Cl156	Cl	1.030580	0.238503	-0.212878
Cl157	Cl	1.225985	0.568325	-0.478442
H158	H	1.157084	0.749018	-0.429963
H159	H	1.536834	0.433552	0.308288
Cl160	Cl	0.489948	0.904762	-0.210187
Cl161	Cl	1.492456	0.290364	-0.134052
Cl162	Cl	0.301944	0.903722	-0.018877
H163	H	0.835961	0.241973	0.001745
Cl164	Cl	1.225309	0.568712	-0.290917
Cl165	Cl	1.492586	0.290342	0.747198
H166	H	0.502685	0.865047	-0.001121
H167	H	1.017327	0.111226	0.179705
H168	H	1.175178	0.131698	-0.037384
H169	H	1.176118	0.247198	-0.036769
H170	H	0.313554	1.165086	-0.484098
H171	H	1.692893	0.242115	-0.000134
H172	H	1.156984	0.067095	0.163501
H173	H	1.050497	0.590759	-0.481009
H174	H	1.321499	0.433539	-0.107734
Cl175	Cl	0.802559	0.904461	-0.709780
H176	H	0.833547	0.863771	-0.508831
H177	H	0.848890	0.751283	-0.430002
H178	H	1.153162	0.755368	-0.594168
H179	H	1.019034	0.862701	-0.506886
H180	H	1.011308	0.865385	-0.668240
