data_functionalizedCrystal
_audit_creation_method	'MofGen! by Chris Wilmer'
_symmetry_space_group_name_H-M	'P1'
_symmetry_Int_Tables_number	1
_symmetry_cell_setting	triclinic
loop_
_symmetry_equiv_pos_as_xyz
  x,y,z
_cell_length_a	19.805407
_cell_length_b	16.120484
_cell_length_c	19.805398
_cell_angle_alpha	87.130307
_cell_angle_beta	90.013121
_cell_angle_gamma	92.925608
loop_
_atom_site_label
_atom_site_type_symbol
_atom_site_fract_x
_atom_site_fract_y
_atom_site_fract_z
Zn1	Zn	1.021031	-0.331919	0.396377
Zn2	Zn	1.271031	-0.081919	0.646377
Zn3	Zn	1.521031	0.168081	0.896377
Zn4	Zn	1.771031	0.418081	1.146377
Zn5	Zn	1.015220	-0.471340	0.288925
Zn6	Zn	1.265220	-0.221340	0.538925
Zn7	Zn	1.515220	0.028660	0.788925
Zn8	Zn	1.765220	0.278660	1.038925
Zn9	Zn	0.907857	-0.331944	0.283202
Zn10	Zn	1.157857	-0.081944	0.533202
Zn11	Zn	1.407857	0.168056	0.783202
Zn12	Zn	1.657857	0.418056	1.033202
Zn13	Zn	0.902073	-0.471293	0.402070
Zn14	Zn	1.152073	-0.221293	0.652070
Zn15	Zn	1.402073	0.028707	0.902070
Zn16	Zn	1.652073	0.278707	1.152070
O17	O	0.961545	-0.401624	0.342643
O18	O	1.211545	-0.151624	0.592643
O19	O	1.461545	0.098376	0.842643
O20	O	1.711545	0.348376	1.092643
O21	O	1.114976	-0.350422	0.382135
O22	O	1.364976	-0.100422	0.632135
O23	O	1.614976	0.149578	0.882135
O24	O	1.864976	0.399578	1.132135
O25	O	1.000967	-0.452879	0.193451
O26	O	1.250967	-0.202879	0.443451
O27	O	1.500967	0.047121	0.693451
O28	O	1.750967	0.297121	0.943451
O29	O	0.927723	-0.215275	0.293438
O30	O	1.177723	0.034725	0.543438
O31	O	1.427723	0.284725	0.793438
O32	O	1.677723	0.534725	1.043438
O33	O	1.110707	-0.452854	0.303191
O34	O	1.360707	-0.202854	0.553191
O35	O	1.610707	0.047146	0.803191
O36	O	1.860707	0.297146	1.053191
O37	O	1.010871	-0.215256	0.376586
O38	O	1.260871	0.034744	0.626586
O39	O	1.510871	0.284744	0.876586
O40	O	1.760871	0.534744	1.126586
O41	O	0.922088	-0.350466	0.189246
O42	O	1.172088	-0.100466	0.439246
O43	O	1.422088	0.149534	0.689246
O44	O	1.672088	0.399534	0.939246
O45	O	0.812374	-0.350420	0.298958
O46	O	1.062374	-0.100420	0.548958
O47	O	1.312374	0.149580	0.798958
O48	O	1.562374	0.399580	1.048958
O49	O	0.917864	-0.452774	0.496030
O50	O	1.167864	-0.202774	0.746030
O51	O	1.417864	0.047226	0.996030
O52	O	1.667864	0.297226	1.246030
O53	O	0.808124	-0.452799	0.386289
O54	O	1.058124	-0.202799	0.636289
O55	O	1.308124	0.047201	0.886289
O56	O	1.558124	0.297201	1.136289
O57	O	1.005262	-0.350377	0.491847
O58	O	1.255262	-0.100377	0.741847
O59	O	1.505262	0.149623	0.991847
O60	O	1.755262	0.399623	1.241847
O61	O	0.995358	-0.587999	0.308711
O62	O	1.245358	-0.337999	0.558711
O63	O	1.495358	-0.087999	0.808711
O64	O	1.745358	0.162001	1.058711
O65	O	0.912229	-0.587965	0.391838
O66	O	1.162229	-0.337965	0.641838
O67	O	1.412229	-0.087965	0.891838
O68	O	1.662229	0.162035	1.141838
C69	C	0.785690	-0.401608	0.342621
C70	C	1.035690	-0.151608	0.592621
C71	C	1.285690	0.098392	0.842621
C72	C	1.535690	0.348392	1.092621
C73	C	0.710457	-0.401621	0.342628
C74	C	0.960457	-0.151621	0.592628
C75	C	1.210457	0.098379	0.842628
C76	C	1.460457	0.348379	1.092628
C77	C	0.672915	-0.455010	0.388035
C78	C	0.922915	-0.205010	0.638035
C79	C	1.172915	0.044990	0.888035
C80	C	1.422915	0.294990	1.138035
C81	C	0.602226	-0.455011	0.388044
C82	C	0.852226	-0.205011	0.638044
C83	C	1.102226	0.044989	0.888044
C84	C	1.352226	0.294989	1.138044
C85	C	0.569081	-0.401628	0.342644
C86	C	0.819081	-0.151628	0.592644
C87	C	1.069081	0.098372	0.842644
C88	C	1.319081	0.348372	1.092644
C89	C	0.606629	-0.348233	0.297235
C90	C	0.856629	-0.098233	0.547235
C91	C	1.106629	0.151767	0.797235
C92	C	1.356629	0.401767	1.047235
C93	C	0.677317	-0.348228	0.297229
C94	C	0.927317	-0.098228	0.547229
C95	C	1.177317	0.151772	0.797229
C96	C	1.427317	0.401772	1.047229
C97	C	0.321555	-0.348251	0.297258
C98	C	0.571555	-0.098251	0.547258
C99	C	0.821555	0.151749	0.797258
C100	C	1.071555	0.401749	1.047258
C101	C	0.250863	-0.348262	0.297266
C102	C	0.500863	-0.098262	0.547266
C103	C	0.750863	0.151738	0.797266
C104	C	1.000863	0.401738	1.047266
C105	C	0.246465	-0.455035	0.388073
C106	C	0.496465	-0.205035	0.638073
C107	C	0.746465	0.044965	0.888073
C108	C	0.996465	0.294965	1.138073
C109	C	0.317152	-0.455030	0.388068
C110	C	0.567152	-0.205030	0.638068
C111	C	0.817152	0.044970	0.888068
C112	C	1.067152	0.294970	1.138068
C113	C	0.354694	-0.401632	0.342661
C114	C	0.604694	-0.151632	0.592661
C115	C	0.854694	0.098368	0.842661
C116	C	1.104694	0.348368	1.092661
C117	C	0.431342	-0.401630	0.342652
C118	C	0.681342	-0.151630	0.592652
C119	C	0.931342	0.098370	0.842652
C120	C	1.181342	0.348370	1.092652
C121	C	0.492434	-0.401633	0.342649
C122	C	0.742434	-0.151633	0.592649
C123	C	0.992434	0.098367	0.842649
C124	C	1.242434	0.348367	1.092649
C125	C	0.952554	-0.618232	0.351529
C126	C	1.202554	-0.368232	0.601529
C127	C	1.452554	-0.118232	0.851529
C128	C	1.702554	0.131768	1.101529
C129	C	0.948769	-0.710898	0.355352
C130	C	1.198769	-0.460898	0.605352
C131	C	1.448769	-0.210898	0.855352
C132	C	1.698769	0.039102	1.105352
C133	C	0.941863	-0.880560	0.362347
C134	C	1.191863	-0.630560	0.612347
C135	C	1.441863	-0.380560	0.862347
C136	C	1.691863	-0.130560	1.112347
C137	C	0.981349	-0.921847	0.322951
C138	C	1.231349	-0.671847	0.572951
C139	C	1.481349	-0.421847	0.822951
C140	C	1.731349	-0.171847	1.072951
C141	C	0.977506	-1.016253	0.326843
C142	C	1.227506	-0.766253	0.576843
C143	C	1.477506	-0.516253	0.826843
C144	C	1.727506	-0.266253	1.076843
C145	C	0.945704	-0.786146	0.358456
C146	C	1.195704	-0.536146	0.608456
C147	C	1.445704	-0.286146	0.858456
C148	C	1.695704	-0.036146	1.108456
C149	C	1.138087	-0.401640	0.342666
C150	C	1.388087	-0.151640	0.592666
C151	C	1.638087	0.098360	0.842666
C152	C	1.888087	0.348360	1.092666
C153	C	1.213319	-0.401648	0.342676
C154	C	1.463319	-0.151648	0.592676
C155	C	1.713319	0.098352	0.842676
C156	C	1.963319	0.348352	1.092676
C157	C	0.961566	-0.401567	0.519184
C158	C	1.211566	-0.151567	0.769184
C159	C	1.461566	0.098433	1.019184
C160	C	1.711566	0.348433	1.269184
C161	C	0.961574	-0.401543	0.594415
C162	C	1.211574	-0.151543	0.844415
C163	C	1.461574	0.098457	1.094415
C164	C	1.711574	0.348457	1.344415
C165	C	0.970590	-0.184170	0.333739
C166	C	1.220590	0.065830	0.583739
C167	C	1.470590	0.315830	0.833739
C168	C	1.720590	0.565830	1.083739
C169	C	0.974445	-0.091503	0.329944
C170	C	1.224445	0.158497	0.579944
C171	C	1.474445	0.408497	0.829944
C172	C	1.724445	0.658497	1.079944
C173	C	0.961566	-0.401620	0.166787
C174	C	1.211566	-0.151620	0.416787
C175	C	1.461566	0.098380	0.666787
C176	C	1.711566	0.348380	0.916787
C177	C	0.961698	-0.401409	0.091547
C178	C	1.211698	-0.151409	0.341547
C179	C	1.461698	0.098591	0.591547
C180	C	1.711698	0.348591	0.841547
C181	C	1.002759	-0.454737	1.058388
C182	C	1.252759	-0.204737	1.308388
C183	C	1.502759	0.045263	1.558388
C184	C	1.752759	0.295263	1.808388
C185	C	1.002739	-0.454760	0.987700
C186	C	1.252739	-0.204760	1.237700
C187	C	1.502739	0.045240	1.487700
C188	C	1.752739	0.295240	1.737700
C189	C	0.961662	-0.401449	0.950173
C190	C	1.211662	-0.151449	1.200173
C191	C	1.461662	0.098551	1.450173
C192	C	1.711662	0.348551	1.700173
C193	C	0.920597	-0.348119	0.983337
C194	C	1.170597	-0.098119	1.233337
C195	C	1.420597	0.151881	1.483337
C196	C	1.670597	0.401881	1.733337
C197	C	0.920614	-0.348101	1.054024
C198	C	1.170614	-0.098101	1.304024
C199	C	1.420614	0.151899	1.554024
C200	C	1.670614	0.401899	1.804024
C201	C	0.920529	-0.348190	0.698267
C202	C	1.170529	-0.098190	0.948267
C203	C	1.420529	0.151810	1.198267
C204	C	1.670529	0.401810	1.448267
C205	C	0.920517	-0.348210	0.627576
C206	C	1.170517	-0.098210	0.877576
C207	C	1.420517	0.151790	1.127576
C208	C	1.670517	0.401790	1.377576
C209	C	1.002654	-0.454849	0.631943
C210	C	1.252654	-0.204849	0.881943
C211	C	1.502654	0.045151	1.131943
C212	C	1.752654	0.295151	1.381943
C213	C	1.002671	-0.454831	0.702630
C214	C	1.252671	-0.204831	0.952630
C215	C	1.502671	0.045169	1.202630
C216	C	1.752671	0.295169	1.452630
C217	C	0.961604	-0.401504	0.735788
C218	C	1.211604	-0.151504	0.985788
C219	C	1.461604	0.098496	1.235788
C220	C	1.711604	0.348496	1.485788
C221	C	0.961624	-0.401481	0.812435
C222	C	1.211624	-0.151481	1.062435
C223	C	1.461624	0.098519	1.312435
C224	C	1.711624	0.348519	1.562435
C225	C	0.961645	-0.401467	0.873527
C226	C	1.211645	-0.151467	1.123527
C227	C	1.461645	0.098533	1.373527
C228	C	1.711645	0.348533	1.623527
H229	H	0.223879	-0.304786	0.260295
H230	H	0.473879	-0.054786	0.510295
H231	H	0.723879	0.195214	0.760295
H232	H	0.973879	0.445214	1.010295
Cl233	Cl	0.868869	-0.281187	0.739944
Cl234	Cl	1.118869	-0.031187	0.989944
Cl235	Cl	1.368869	0.218813	1.239944
Cl236	Cl	1.618869	0.468813	1.489944
H237	H	0.352113	-0.304778	0.260280
H238	H	0.602113	-0.054778	0.510280
H239	H	0.852113	0.195222	0.760280
H240	H	1.102113	0.445222	1.010280
Cl241	Cl	1.054313	-0.521852	0.749803
Cl242	Cl	1.304313	-0.271852	0.999803
Cl243	Cl	1.554313	-0.021852	1.249803
Cl244	Cl	1.804313	0.228148	1.499803
H245	H	1.018039	-0.886293	0.286299
H246	H	1.268039	-0.636293	0.536299
H247	H	1.518039	-0.386293	0.786299
H248	H	1.768039	-0.136293	1.036299
H249	H	0.905174	-0.916112	0.398995
H250	H	1.155174	-0.666112	0.648995
H251	H	1.405174	-0.416112	0.898995
H252	H	1.655174	-0.166112	1.148995
H253	H	1.036212	-0.498145	1.088937
H254	H	1.286212	-0.248145	1.338937
H255	H	1.536212	0.001855	1.588937
H256	H	1.786212	0.251855	1.838937
H257	H	1.036166	-0.498195	0.960705
H258	H	1.286166	-0.248195	1.210705
H259	H	1.536166	0.001805	1.460705
H260	H	1.786166	0.251805	1.710705
Cl261	Cl	0.564962	-0.281116	0.240163
Cl262	Cl	0.814962	-0.031116	0.490163
Cl263	Cl	1.064962	0.218884	0.740163
Cl264	Cl	1.314962	0.468884	0.990163
Cl265	Cl	1.054281	-0.521893	0.590254
Cl266	Cl	1.304281	-0.271893	0.840254
Cl267	Cl	1.554281	-0.021893	1.090254
Cl268	Cl	1.804281	0.228107	1.340254
H269	H	0.571662	-0.498487	0.425019
H270	H	0.821662	-0.248487	0.675019
H271	H	1.071662	0.001513	0.925019
H272	H	1.321662	0.251513	1.175019
Cl273	Cl	0.868997	-0.281052	1.095710
Cl274	Cl	1.118997	-0.031052	1.345710
Cl275	Cl	1.368997	0.218948	1.595710
Cl276	Cl	1.618997	0.468948	1.845710
Cl277	Cl	0.868967	-0.281088	0.936160
Cl278	Cl	1.118967	-0.031088	1.186160
Cl279	Cl	1.368967	0.218912	1.436160
Cl280	Cl	1.618967	0.468912	1.686160
Cl281	Cl	0.714575	-0.522129	0.445111
Cl282	Cl	0.964575	-0.272129	0.695111
Cl283	Cl	1.214575	-0.022129	0.945111
Cl284	Cl	1.464575	0.227871	1.195111
H285	H	0.887065	-0.304796	0.597023
H286	H	1.137065	-0.054796	0.847023
H287	H	1.387065	0.195204	1.097023
H288	H	1.637065	0.445204	1.347023
H289	H	0.344135	-0.498503	0.425036
H290	H	0.594135	-0.248503	0.675036
H291	H	0.844135	0.001497	0.925036
H292	H	1.094135	0.251497	1.175036
Cl293	Cl	0.724514	-0.281105	0.240145
Cl294	Cl	0.974514	-0.031105	0.490145
Cl295	Cl	1.224514	0.218895	0.740145
Cl296	Cl	1.474514	0.468895	0.990145
Cl297	Cl	0.199265	-0.522164	0.445157
Cl298	Cl	0.449265	-0.272164	0.695157
Cl299	Cl	0.699265	-0.022164	0.945157
Cl300	Cl	0.949265	0.227836	1.195157
