data_functionalizedCrystal
_audit_creation_method	'MofGen! by Chris Wilmer'
_symmetry_space_group_name_H-M	'P1'
_symmetry_Int_Tables_number	1
_symmetry_cell_setting	triclinic
loop_
_symmetry_equiv_pos_as_xyz
  x,y,z
_cell_length_a	14.519709
_cell_length_b	14.519709
_cell_length_c	14.048226
_cell_angle_alpha	89.992623
_cell_angle_beta	89.999158
_cell_angle_gamma	83.680145
loop_
_atom_site_label
_atom_site_type_symbol
_atom_site_fract_x
_atom_site_fract_y
_atom_site_fract_z
O1	O	1.223870	0.120893	-0.079039
O2	O	1.723870	0.620893	0.420961
O3	O	0.955393	0.135130	-0.079068
O4	O	1.455393	0.635130	0.420932
O5	O	1.096750	-0.006227	-0.079044
O6	O	1.596750	0.493773	0.420956
O7	O	1.082513	0.262250	-0.079063
O8	O	1.582513	0.762250	0.420937
O9	O	1.096733	-0.006235	0.079277
O10	O	1.596733	0.493765	0.579277
O11	O	0.955376	0.135121	0.079253
O12	O	1.455376	0.635121	0.579253
O13	O	1.223853	0.120885	0.079283
O14	O	1.723853	0.620885	0.579283
Zn15	Zn	1.089612	0.128002	0.104405
Zn16	Zn	1.589612	0.628002	0.604405
Zn17	Zn	1.089634	0.128013	-0.104190
Zn18	Zn	1.589634	0.628013	0.395810
O19	O	1.082496	0.262242	0.079259
O20	O	1.582496	0.762242	0.579259
C21	C	0.921025	0.134462	0.000089
C22	C	1.421025	0.634462	0.500089
C23	C	0.818643	0.132474	0.000078
C24	C	1.318643	0.632474	0.500078
C25	C	0.443748	0.125154	0.000122
C26	C	0.943748	0.625154	0.500122
C27	C	0.548056	0.127187	0.000109
C28	C	1.048056	0.627187	0.500109
C29	C	0.631192	0.128814	0.000099
C30	C	1.131192	0.628814	0.500099
C31	C	0.735507	0.130847	0.000088
C32	C	1.235507	0.630847	0.500088
C33	C	1.096078	-0.040591	0.000117
C34	C	1.596078	0.459409	0.500117
C35	C	1.094090	-0.142972	0.000117
C36	C	1.594090	0.357028	0.500117
C37	C	1.086770	-0.517868	0.000091
C38	C	1.586770	-0.017868	0.500091
C39	C	1.088803	-0.413560	0.000099
C40	C	1.588803	0.086440	0.500099
C41	C	1.090430	-0.330423	0.000105
C42	C	1.590430	0.169577	0.500105
C43	C	1.092463	-0.226109	0.000111
C44	C	1.592463	0.273891	0.500111
C45	C	1.258221	0.121553	0.000124
C46	C	1.758221	0.621553	0.500124
C47	C	1.360602	0.123541	0.000128
C48	C	1.860602	0.623541	0.500128
C49	C	1.083168	0.296605	0.000096
C50	C	1.583168	0.796605	0.500096
C51	C	1.085156	0.398987	0.000089
C52	C	1.585156	0.898987	0.500089
N53	N	1.089603	0.127994	0.246766
N54	N	1.589603	0.627994	0.746766
N55	N	1.089650	0.128014	-0.246551
N56	N	1.589650	0.628014	0.253449
C57	C	1.152216	0.065427	0.296594
C58	C	1.652216	0.565427	0.796594
C59	C	1.152222	0.065426	0.396252
C60	C	1.652222	0.565426	0.896252
C61	C	1.089619	0.127998	0.446079
C62	C	1.589619	0.627998	0.946079
C63	C	1.027000	0.190568	0.396243
C64	C	1.527000	0.690568	0.896243
C65	C	1.026990	0.190563	0.296588
C66	C	1.526990	0.690563	0.796588
C67	C	1.027027	0.190574	0.603958
C68	C	1.527027	0.690574	1.103958
C69	C	1.027038	0.190580	0.703620
C70	C	1.527038	0.690580	1.203620
C71	C	1.152258	0.065438	0.703622
C72	C	1.652258	0.565438	1.203622
C73	C	1.152248	0.065433	0.603966
C74	C	1.652248	0.565433	1.103966
C75	C	1.089630	0.128004	0.554137
C76	C	1.589630	0.628004	1.054137
H77	H	1.203198	0.014478	0.256031
H78	H	1.703198	0.514478	0.756031
H79	H	0.976033	0.241524	0.563390
H80	H	1.476033	0.741524	1.063390
H81	H	1.203205	0.014479	0.436822
H82	H	1.703205	0.514479	0.936822
O83	O	1.213212	0.004747	0.751980
O84	O	1.713212	0.504747	1.251980
C85	C	1.373481	-0.048952	0.782423
C86	C	1.873481	0.451048	1.282423
C87	C	1.304552	0.019836	0.727609
C88	C	1.804552	0.519836	1.227609
H89	H	1.447345	-0.036790	0.762724
H90	H	1.947345	0.463210	1.262724
H91	H	1.362813	-0.038204	0.862219
H92	H	1.862813	0.461796	1.362219
H93	H	1.361306	-0.122841	0.762856
H94	H	1.861306	0.377159	1.262856
H95	H	1.316686	0.093752	0.747096
H96	H	1.816686	0.593752	1.247096
H97	H	1.315237	0.009006	0.647826
H98	H	1.815237	0.509006	1.147826
H99	H	0.976059	0.241532	0.744185
H100	H	1.476059	0.741532	1.244185
O101	O	1.212837	0.004427	0.555567
O102	O	1.712837	0.504427	1.055567
C103	C	1.231901	-0.121832	0.443466
C104	C	1.731901	0.378168	0.943466
C105	C	1.163249	-0.052656	0.498128
C106	C	1.663249	0.447344	0.998128
H107	H	1.191836	-0.168015	0.397028
H108	H	1.691836	0.331985	0.897028
H109	H	1.278168	-0.082243	0.396621
H110	H	1.778168	0.417757	0.896621
H111	H	1.276533	-0.166496	0.496341
H112	H	1.776533	0.333504	0.996341
H113	H	1.118556	-0.007974	0.445322
H114	H	1.618556	0.492026	0.945322
H115	H	1.117046	-0.092302	0.544987
H116	H	1.617046	0.407698	1.044987
H117	H	0.976023	0.241512	0.436818
H118	H	1.476023	0.741512	0.936818
H119	H	0.976004	0.241510	0.256018
H120	H	1.476004	0.741510	0.756018
