data_functionalizedCrystal
_audit_creation_method	'MofGen! by Chris Wilmer'
_symmetry_space_group_name_H-M	'P1'
_symmetry_Int_Tables_number	1
_symmetry_cell_setting	triclinic
loop_
_symmetry_equiv_pos_as_xyz
  x,y,z
_cell_length_a	14.853558
_cell_length_b	13.339070
_cell_length_c	12.377034
_cell_angle_alpha	75.605339
_cell_angle_beta	78.696009
_cell_angle_gamma	80.369786
loop_
_atom_site_label
_atom_site_type_symbol
_atom_site_fract_x
_atom_site_fract_y
_atom_site_fract_z
O1	O	1.216813	-0.151434	0.093980
O2	O	0.958274	-0.167183	0.093985
O3	O	1.057872	-0.012004	0.093980
O4	O	1.117215	-0.306613	0.093986
O5	O	1.082758	0.026722	-0.094017
O6	O	0.983160	-0.128457	-0.094012
O7	O	1.241699	-0.112708	-0.094017
Zn8	Zn	1.116381	-0.114434	-0.123863
Zn9	Zn	1.083592	-0.165457	0.123831
O10	O	1.142101	-0.267887	-0.094011
C11	C	0.936951	-0.147109	-0.000013
C12	C	0.836335	-0.144976	-0.000011
C13	C	0.775500	-0.165086	0.102471
C14	C	0.802627	-0.122853	-0.102491
C15	C	0.708093	-0.120843	-0.102493
C16	C	0.647258	-0.140953	-0.000011
C17	C	0.680956	-0.163073	0.102472
C18	C	0.674386	-0.098713	-0.204974
C19	C	0.579847	-0.096700	-0.204980
C20	C	0.519010	-0.116818	-0.102498
C21	C	0.552714	-0.138940	-0.000010
C22	C	0.491879	-0.159050	0.102471
C23	C	0.525582	-0.181180	0.204960
C24	C	0.620120	-0.183190	0.204955
C25	C	0.424472	-0.114807	-0.102492
C26	C	0.397335	-0.157037	0.102473
C27	C	1.060291	0.045062	-0.000017
C28	C	1.030410	0.157403	-0.000012
C29	C	1.263022	-0.132783	-0.000016
C30	C	1.363637	-0.134917	-0.000011
C31	C	1.139682	-0.324953	-0.000012
C32	C	1.169562	-0.437296	-0.000010
N33	N	1.138765	-0.079611	-0.292908
C34	C	1.262743	0.521880	-0.000017
C35	C	1.290821	0.416331	-0.000028
C36	C	1.225720	0.351594	-0.000023
C37	C	1.132537	0.392416	-0.000009
C38	C	1.104457	0.497977	-0.000006
C39	C	1.067435	0.327691	-0.000013
C40	C	0.974252	0.368513	0.000002
C41	C	0.946177	0.474064	0.000005
C42	C	1.011277	0.538801	0.000000
C43	C	1.095515	0.222130	-0.000015
C44	C	0.937229	0.198227	-0.000005
C45	C	0.909151	0.303776	0.000006
C46	C	1.190719	0.001273	-0.352060
C47	C	1.206377	0.025676	-0.470391
C48	C	1.170087	-0.030809	-0.529580
C49	C	1.118138	-0.111700	-0.470427
C50	C	1.102472	-0.136100	-0.352085
C51	C	1.081841	-0.168183	-0.529605
C52	C	1.029891	-0.249074	-0.470452
C53	C	1.014229	-0.273470	-0.352121
C54	C	1.050518	-0.216984	-0.292932
C55	C	1.097506	-0.143783	-0.647946
C56	C	1.009259	-0.281156	-0.647971
C57	C	0.993602	-0.305559	-0.529641
N58	N	1.061214	-0.200272	0.292876
H59	H	0.723923	-0.082331	-0.288409
C60	C	1.334341	0.593089	-0.000026
H61	H	1.304270	0.661798	-0.000017
H62	H	1.380137	0.594209	-0.065586
H63	H	1.362782	0.567199	0.065539
C64	C	0.542825	-0.072723	-0.317707
H65	H	0.477822	-0.074508	-0.303032
H66	H	0.571865	-0.123502	-0.359563
H67	H	0.555947	-0.005456	-0.360063
C68	C	0.387394	-0.090449	-0.215211
H69	H	0.322376	-0.092121	-0.200535
H70	H	0.416330	-0.141054	-0.257342
H71	H	0.400588	-0.023125	-0.257295
H72	H	1.171385	0.188904	-0.000028
H73	H	0.988419	0.624748	0.000014
C74	C	0.843680	0.518968	0.000012
H75	H	0.808927	0.465297	0.000024
H76	H	0.838112	0.573156	-0.065545
H77	H	0.820762	0.546139	0.065581
H78	H	1.248587	0.265652	-0.000033
C79	C	1.393311	0.371430	-0.000032
H80	H	1.428060	0.425097	-0.000021
H81	H	1.416235	0.344255	-0.065590
H82	H	1.398872	0.317243	0.065536
C83	C	0.806655	0.348684	0.000021
H84	H	0.771899	0.295016	0.000033
H85	H	0.801084	0.402875	-0.065532
H86	H	0.783742	0.375851	0.065593
H87	H	0.951303	-0.371422	-0.481464
C88	C	0.458658	-0.203300	0.317683
H89	H	0.397530	-0.198934	0.302997
H90	H	0.460705	-0.153347	0.359801
H91	H	0.476443	-0.271282	0.359783
H92	H	0.884220	0.145519	-0.000007
C93	C	1.230628	0.063403	-0.286958
H94	H	1.263808	0.115076	-0.339131
H95	H	1.271164	0.017407	-0.240797
H96	H	1.181525	0.096079	-0.240793
H97	H	1.139803	-0.077921	-0.696098
C98	C	1.187319	-0.003975	-0.659740
H99	H	1.223463	0.052283	-0.686493
H100	H	1.129755	0.015507	-0.686516
H101	H	1.219394	-0.063165	-0.686515
C102	C	1.263526	0.114639	-0.535451
H103	H	1.282904	0.144777	-0.483255
H104	H	1.226661	0.166351	-0.581608
H105	H	1.316290	0.087664	-0.581616
C106	C	1.033291	-0.243821	-0.162768
H107	H	1.062342	-0.198591	-0.135994
H108	H	1.058263	-0.314044	-0.136007
H109	H	0.968631	-0.235360	-0.135997
H110	H	0.852163	-0.106472	-0.185927
C111	C	0.969342	-0.343297	-0.713066
H112	H	0.986120	-0.317188	-0.792014
H113	H	0.903830	-0.336183	-0.693675
H114	H	0.993468	-0.414856	-0.693686
C115	C	0.957094	-0.362452	-0.287050
H116	H	0.952960	-0.368891	-0.208098
H117	H	0.986357	-0.426005	-0.306463
H118	H	0.896709	-0.347346	-0.306435
C119	C	0.330420	-0.179161	0.215202
H120	H	0.269289	-0.174799	0.200528
H121	H	0.332470	-0.129207	0.257317
H122	H	0.348212	-0.247142	0.257298
H123	H	0.802946	-0.183107	0.185914
C124	C	0.657194	-0.207514	0.317678
H125	H	0.722208	-0.205818	0.302997
H126	H	0.644004	-0.274825	0.359793
H127	H	0.628251	-0.156883	0.359780
