data_functionalizedCrystal
_audit_creation_method	'MofGen! by Chris Wilmer'
_symmetry_space_group_name_H-M	'P1'
_symmetry_Int_Tables_number	1
_symmetry_cell_setting	triclinic
loop_
_symmetry_equiv_pos_as_xyz
  x,y,z
_cell_length_a	21.606444
_cell_length_b	21.606444
_cell_length_c	21.606444
_cell_angle_alpha	120.001519
_cell_angle_beta	90.000272
_cell_angle_gamma	60.011302
loop_
_atom_site_label
_atom_site_type_symbol
_atom_site_fract_x
_atom_site_fract_y
_atom_site_fract_z
Zr1	Zr	0.596401	0.677346	0.081158
O2	O	0.497609	0.806447	0.179975
O3	O	0.626664	0.548246	0.050873
O4	O	0.626697	0.677348	0.179984
O5	O	0.497575	0.677343	-0.050989
O6	O	0.728549	0.677348	0.179982
O7	O	0.497576	0.677345	0.050864
O8	O	0.728491	0.446408	-0.050974
O9	O	0.497634	0.908282	0.179967
O10	O	0.715609	0.601346	0.037946
O11	O	0.639597	0.601344	-0.038064
O12	O	0.639636	0.753345	0.113947
O13	O	0.563624	0.753343	0.037936
Zr14	Zr	0.758842	0.677342	-0.081288
Zr15	Zr	0.758843	0.677346	0.081156
Zr16	Zr	0.596400	0.677342	-0.081286
Zr17	Zr	0.596441	0.839761	0.081145
Zr18	Zr	0.758802	0.514926	-0.081275
O19	O	0.728579	0.806441	-0.051003
O20	O	0.728581	0.806447	0.179972
O21	O	0.497607	0.806441	-0.050999
O22	O	0.857634	0.548240	-0.180105
O23	O	0.857636	0.548246	0.050869
O24	O	0.626663	0.548241	-0.180102
O25	O	0.857668	0.677345	0.050859
O26	O	0.728546	0.677339	-0.180114
O27	O	0.626694	0.677339	-0.180112
O28	O	0.857667	0.677342	-0.050994
O29	O	0.626754	0.908282	0.179965
O30	O	0.728490	0.446405	-0.180095
O31	O	0.857609	0.446405	-0.180097
O32	O	0.857610	0.446408	-0.050976
O33	O	0.497633	0.908279	0.050846
O34	O	0.626753	0.908279	0.050844
O35	O	0.715608	0.601342	-0.114077
O36	O	0.791619	0.601344	-0.038067
O37	O	0.715646	0.753343	0.037934
O38	O	0.639634	0.753341	-0.038077
C39	C	0.677572	0.474187	-0.000049
C40	C	0.677555	0.405237	-0.000043
C41	C	0.474431	0.677344	-0.000062
C42	C	0.405470	0.677344	-0.000061
C43	C	0.733776	-0.074232	-0.056195
C44	C	0.733760	-0.009424	-0.056187
C45	C	0.677652	0.079066	-0.000074
C46	C	0.621562	0.102749	0.056039
C47	C	0.621582	0.037942	0.056034
C48	C	0.621481	0.364112	0.056062
C49	C	0.621464	0.428920	0.056062
C50	C	0.733658	0.316746	-0.056159
C51	C	0.733678	0.251938	-0.056164
C52	C	0.677591	0.275626	-0.000049
C53	C	0.677610	0.205354	-0.000057
C54	C	0.677629	0.149339	-0.000068
C55	C	0.373072	0.677348	0.056053
C56	C	0.308278	0.677344	0.056050
C57	C	0.275881	0.677342	-0.000064
C58	C	0.308284	0.677335	-0.056183
C59	C	0.373080	0.677333	-0.056183
C60	C	0.046971	0.677341	-0.056186
C61	C	-0.017831	0.677346	-0.056181
C62	C	-0.017831	0.677352	0.056047
C63	C	0.046965	0.677350	0.056047
C64	C	0.079365	0.677339	-0.000074
C65	C	0.149623	0.677342	-0.000071
C66	C	0.205621	0.677345	-0.000064
C67	C	0.880812	0.677344	-0.000068
C68	C	0.949773	0.677344	-0.000069
C69	C	0.677623	0.677349	0.203128
C70	C	0.677624	0.677351	0.272089
C71	C	0.677671	0.880501	-0.000082
C72	C	0.677688	0.949451	-0.000087
C73	C	0.733735	0.677352	0.304487
C74	C	0.733737	0.677346	0.369280
C75	C	0.677625	0.677345	0.401677
C76	C	0.621511	0.677340	0.369274
C77	C	0.621512	0.677340	0.304479
C78	C	0.621505	0.677340	0.630584
C79	C	0.621506	0.677342	0.695385
C80	C	0.733729	0.677346	0.695385
C81	C	0.733731	0.677345	0.630590
C82	C	0.677620	0.677337	0.598190
C83	C	0.677618	0.677342	0.527933
C84	C	0.677622	0.677346	0.471936
C85	C	0.677620	0.677339	0.796742
C86	C	0.677621	0.677338	0.727781
C87	C	0.880762	0.474186	-0.000052
C88	C	0.949706	0.405237	-0.000047
C89	C	0.677570	0.474182	-0.203241
C90	C	0.677553	0.405230	-0.272198
C91	C	0.880761	0.474181	-0.203245
C92	C	0.949704	0.405230	-0.272202
C93	C	0.474483	0.880506	0.203114
C94	C	0.405539	0.949458	0.272072
C95	C	0.474481	0.880501	-0.000078
C96	C	0.405537	0.949451	-0.000083
C97	C	0.677673	0.880506	0.203111
C98	C	0.677690	0.949457	0.272067
C99	C	0.942406	0.372858	0.039640
C100	C	1.007180	0.308082	0.039659
C101	C	1.079253	0.275680	-0.000013
C102	C	1.086552	0.308065	-0.039702
C103	C	1.021778	0.372845	-0.039716
C104	C	0.717221	0.372849	-0.344265
C105	C	0.717202	0.308071	-0.409063
C106	C	0.677518	0.275671	-0.401792
C107	C	0.637845	0.308059	-0.329717
C108	C	0.637860	0.372840	-0.264921
C109	C	1.021765	0.372851	-0.264908
C110	C	1.086551	0.308073	-0.329695
C111	C	1.079274	0.275670	-0.401774
C112	C	1.007206	0.308056	-0.409066
C113	C	0.942422	0.372838	-0.344281
C114	C	0.333478	0.981845	0.264778
C115	C	0.268692	1.046643	0.329564
C116	C	0.275969	1.079049	0.401644
C117	C	0.348037	1.046659	0.408936
C118	C	0.412821	0.981866	0.344150
C119	C	0.412837	0.981836	-0.039763
C120	C	0.348063	1.046631	-0.039765
C121	C	0.275990	1.079034	-0.000090
C122	C	0.268691	1.046646	0.039595
C123	C	0.333465	0.981857	0.039601
C124	C	0.717382	0.981837	0.264772
C125	C	0.717413	1.046615	0.329557
C126	C	0.677748	1.079018	0.401638
C127	C	0.638055	1.046632	0.408932
C128	C	0.638029	0.981850	0.344147
H129	H	0.779462	-0.146283	-0.101891
O130	O	1.149109	0.205807	0.000007
H131	H	1.183329	0.230671	0.024841
O132	O	0.595195	0.407642	-0.187190
H133	H	0.567649	0.374176	-0.193028
O134	O	0.864699	0.407741	-0.352151
H135	H	0.870531	0.374312	-0.413158
O136	O	1.164289	0.273108	-0.082498
H137	H	1.208097	0.222615	-0.075823
H138	H	0.575808	0.383410	0.101753
H139	H	0.575822	0.677337	0.278101
O140	O	0.273326	0.677360	0.116578
H141	H	0.306733	0.677376	0.155605
O142	O	0.794253	0.677348	0.730333
H143	H	0.791497	0.736682	0.747569
H144	H	0.223211	1.131807	0.454390
O145	O	0.206139	1.148904	-0.000119
H146	H	0.171932	1.207953	0.058954
O147	O	0.560987	0.677343	0.404220
H148	H	0.504430	0.736668	0.421439
O149	O	0.760007	0.273142	-0.486791
H150	H	0.719962	0.285587	-0.518217
O151	O	0.595290	1.081555	0.486672
H152	H	0.534312	1.111069	0.493276
O153	O	0.560948	0.524367	0.116596
H154	H	0.528577	0.556567	0.089622
O155	O	0.677523	0.205785	-0.471687
H156	H	0.652713	0.230647	-0.505908
O157	O	0.794259	0.677347	0.404220
H158	H	0.784840	0.677335	0.454713
O159	O	-0.052775	0.677356	0.116577
H160	H	-0.069997	0.736691	0.173143
O161	O	0.081905	0.677336	-0.116713
H162	H	0.132411	0.677324	-0.107296
H163	H	0.749734	1.072977	0.323604
O164	O	0.794251	-0.034965	-0.116705
H165	H	0.833263	-0.107385	-0.155730
H166	H	0.327539	0.955464	0.206093
O167	O	0.677768	1.148901	0.471511
H168	H	0.712026	1.165976	0.454321
H169	H	1.027733	0.399199	-0.072038
H170	H	-0.044208	0.677343	-0.101878
H171	H	0.883727	0.399239	0.071955
H172	H	0.353953	1.073052	0.467631
H173	H	0.471517	0.955458	-0.072076
O174	O	0.490545	0.946924	0.352021
H175	H	0.484712	0.980340	0.413028
H176	H	0.354020	1.072990	-0.072084
H177	H	0.327510	0.955491	0.071911
O178	O	0.999301	0.273152	0.082460
H179	H	0.938301	0.306558	0.110029
O180	O	0.760177	0.946893	0.187036
H181	H	0.720128	0.959332	0.155611
H182	H	0.575816	0.677335	0.604211
O183	O	0.760022	0.407792	-0.352117
H184	H	0.787592	0.374391	-0.413121
H185	H	0.073339	0.677356	0.101743
H186	H	0.210001	1.073039	0.071897
H187	H	0.210018	1.073004	0.323612
O188	O	0.595206	0.946939	0.352019
H189	H	0.567624	0.980366	0.413027
H190	H	0.779420	0.677351	0.604216
O191	O	0.561043	0.198191	0.116564
H192	H	0.570446	0.239278	0.107138
H193	H	1.027704	0.399223	-0.206223
O194	O	0.794204	0.156496	-0.116680
H195	H	0.791446	0.142022	-0.173257
O196	O	0.794169	0.291191	-0.116675
H197	H	0.784740	0.351119	-0.107241
H198	H	0.399444	0.677355	0.101750
O199	O	0.595069	0.273086	-0.321878
H200	H	0.601743	0.222585	-0.379047
O201	O	0.408026	0.677324	-0.116710
H202	H	0.458531	0.677312	-0.107289
O203	O	0.561086	0.063480	0.116547
H204	H	0.522062	0.135900	0.155563
H205	H	1.145226	0.281711	-0.323744
O206	O	0.560973	0.677361	0.730342
H207	H	0.521954	0.677355	0.696928
H208	H	0.281905	0.677328	-0.101876
H209	H	0.779425	0.677359	0.278116
O210	O	1.149152	0.205789	-0.471649
H211	H	1.200480	0.188714	-0.454460
O212	O	0.999362	0.273093	-0.486811
H213	H	1.056521	0.222598	-0.530628
