data_functionalizedCrystal
_audit_creation_method	'MofGen! by Chris Wilmer'
_symmetry_space_group_name_H-M	'P1'
_symmetry_Int_Tables_number	1
_symmetry_cell_setting	triclinic
loop_
_symmetry_equiv_pos_as_xyz
  x,y,z
_cell_length_a	15.625110
_cell_length_b	15.538191
_cell_length_c	17.766277
_cell_angle_alpha	89.995273
_cell_angle_beta	108.074221
_cell_angle_gamma	66.740235
loop_
_atom_site_label
_atom_site_type_symbol
_atom_site_fract_x
_atom_site_fract_y
_atom_site_fract_z
O1	O	1.155950	0.122945	0.252981
O2	O	0.888691	0.137587	0.180021
O3	O	1.074345	-0.006795	0.230700
O4	O	0.970296	0.267327	0.202302
O5	O	1.074323	-0.006802	0.355882
O6	O	0.888669	0.137580	0.305203
O7	O	1.155928	0.122937	0.378164
Cu8	Cu	1.022296	0.130258	0.353114
Cu9	Cu	1.022322	0.130267	0.205071
O10	O	0.970274	0.267320	0.327485
C11	C	0.855310	0.136920	0.233502
C12	C	0.755884	0.134931	0.206358
C13	C	1.085220	-0.041880	0.296260
C14	C	1.117646	-0.146411	0.305105
C15	C	0.615756	0.132132	0.099868
C16	C	0.709183	0.134001	0.125382
C17	C	0.709166	0.133997	0.261853
C18	C	0.615735	0.132133	0.236350
C19	C	0.569038	0.131199	0.155357
C20	C	0.569017	0.131200	0.291839
C21	C	0.475597	0.129331	0.266338
C22	C	0.428895	0.128395	0.185349
C23	C	0.475618	0.129331	0.129857
C24	C	0.615719	0.132127	0.372832
C25	C	0.569001	0.131194	0.428321
C26	C	0.475576	0.129332	0.402820
C27	C	0.428874	0.128396	0.321831
C28	C	0.428852	0.128396	0.458313
C29	C	0.335432	0.126527	0.432812
C30	C	0.335453	0.126527	0.296331
C31	C	0.795499	-0.434625	0.217176
C32	C	0.825991	-0.532851	0.225502
C33	C	0.997503	-0.555068	0.272324
C34	C	0.967025	-0.456843	0.263998
C35	C	0.866021	-0.396628	0.236425
C36	C	1.037548	-0.418846	0.283247
C37	C	1.007072	-0.320628	0.274926
C38	C	0.906073	-0.260408	0.247356
C39	C	0.835546	-0.298411	0.228104
C40	C	1.138550	-0.479061	0.310826
C41	C	1.209073	-0.441064	0.330074
C42	C	1.178598	-0.342845	0.321748
C43	C	1.077599	-0.282625	0.294178
C44	C	1.249125	-0.304842	0.341000
C45	C	1.218649	-0.206625	0.332679
C46	C	1.047123	-0.184408	0.285857
C47	C	1.189308	0.123605	0.324681
C48	C	1.288735	0.125594	0.351819
C49	C	0.959399	0.302405	0.261922
C50	C	0.926973	0.406935	0.253073
N51	N	1.022285	0.130251	0.457241
N52	N	1.022343	0.130266	0.100946
C53	C	1.104502	0.066350	0.519071
C54	C	1.104509	0.066346	0.597875
C55	C	1.022302	0.130259	0.614846
C56	C	0.940071	0.194165	0.553003
C57	C	0.940063	0.194161	0.474200
C58	C	0.982434	0.215998	0.728802
C59	C	0.982448	0.216003	0.807605
C60	C	1.022322	0.130270	0.857898
C61	C	1.062202	0.044528	0.829384
C62	C	1.062194	0.044524	0.750581
C63	C	1.022301	0.130270	0.700291
C64	C	1.104551	0.066359	1.005177
C65	C	1.104552	0.066354	1.083981
C66	C	0.940116	0.194180	1.039108
C67	C	0.940114	0.194178	0.960305
C68	C	1.022336	0.130268	0.943346
H69	H	0.297425	0.125778	0.230377
H70	H	1.171502	0.014313	1.134326
N71	N	0.851443	0.263110	1.057398
H72	H	0.863921	0.253415	1.116702
H73	H	0.839984	0.329930	1.040492
N74	N	0.939428	0.308477	0.674566
H75	H	0.992314	0.314162	0.656297
H76	H	0.882971	0.310374	0.626514
N77	N	1.171418	-0.584996	0.319800
H78	H	1.212445	-0.613016	0.284595
H79	H	1.212375	-0.612936	0.377421
N80	N	0.285042	0.125516	0.492660
H81	H	0.329097	0.125734	0.547915
H82	H	0.220206	0.183401	0.478163
H83	H	0.753299	-0.249381	0.205645
N84	N	0.938183	-0.119455	0.256138
H85	H	0.929583	-0.051471	0.253797
H86	H	0.906046	-0.131755	0.200962
N87	N	1.318008	-0.506011	0.359820
H88	H	1.326615	-0.573998	0.362174
H89	H	1.350141	-0.493697	0.322182
H90	H	0.691787	0.133649	0.393592
N91	N	0.328137	0.126371	0.157844
H92	H	0.279234	0.184244	0.171285
H93	H	0.305736	0.125886	0.098122
N94	N	0.939432	0.308476	0.838356
H95	H	0.914155	0.362786	0.794536
H96	H	0.883036	0.310326	0.855665
N97	N	0.686559	-0.369669	0.187424
H98	H	0.646502	-0.408641	0.176487
H99	H	0.670167	-0.328433	0.229357
N100	N	0.851433	0.263106	0.893617
H101	H	0.839936	0.329957	0.904185
H102	H	0.863955	0.253327	0.841149
N103	N	0.759572	0.135013	0.065529
H104	H	0.824724	0.077464	0.080273
H105	H	0.715739	0.134172	0.010377
H106	H	0.873136	0.246202	0.566824
H107	H	0.466891	0.129147	0.524258
N108	N	1.106437	-0.620015	0.302070
H109	H	1.115045	-0.688002	0.304424
H110	H	1.138570	-0.607701	0.264432
N111	N	1.358060	-0.369791	0.370753
H112	H	1.366664	-0.437777	0.373109
H113	H	1.390200	-0.357484	0.333119
H114	H	0.768555	-0.563783	0.209836
H115	H	0.873111	0.246198	0.423854
H116	H	1.276076	-0.175688	0.348354
H117	H	1.171450	0.014309	0.505266
H118	H	0.747201	0.134753	0.327798
H119	H	1.171462	0.014308	0.648226
N120	N	1.105201	-0.047945	0.719823
H121	H	1.130465	-0.102260	0.763636
H122	H	1.052265	-0.053547	0.672691
N123	N	1.105218	-0.047950	0.883617
H124	H	1.099170	-0.034942	0.937864
H125	H	1.067966	-0.087262	0.859684
H126	H	0.437589	0.128582	0.063903
H127	H	1.171500	0.014317	0.991369
H128	H	0.881261	-0.180434	0.240585
N129	N	0.565372	0.131142	0.012509
H130	H	0.609139	0.132023	-0.018778
H131	H	0.553003	0.072043	0.006158
H132	H	0.607036	0.131950	0.494266
