data_functionalizedCrystal
_audit_creation_method	'MofGen! by Chris Wilmer'
_symmetry_space_group_name_H-M	'P1'
_symmetry_Int_Tables_number	1
_symmetry_cell_setting	triclinic
loop_
_symmetry_equiv_pos_as_xyz
  x,y,z
_cell_length_a	29.839134
_cell_length_b	29.839131
_cell_length_c	29.839125
_cell_angle_alpha	90.011606
_cell_angle_beta	90.025965
_cell_angle_gamma	90.034165
loop_
_atom_site_label
_atom_site_type_symbol
_atom_site_fract_x
_atom_site_fract_y
_atom_site_fract_z
Zn1	Zn	0.686727	-0.179030	0.254153
Zn2	Zn	1.020060	0.154303	0.587486
Zn3	Zn	1.353394	0.487636	0.920820
Zn4	Zn	0.686657	-0.254134	0.179023
Zn5	Zn	1.019990	0.079199	0.512356
Zn6	Zn	1.353324	0.412532	0.845690
Zn7	Zn	0.611608	-0.179010	0.179019
Zn8	Zn	0.944941	0.154324	0.512353
Zn9	Zn	1.278274	0.487657	0.845686
Zn10	Zn	0.611557	-0.254124	0.254108
Zn11	Zn	0.944891	0.079209	0.587442
Zn12	Zn	1.278224	0.412542	0.920775
O13	O	0.649137	-0.216575	0.216576
O14	O	0.982471	0.116759	0.549909
O15	O	1.315804	0.450092	0.883243
O16	O	0.749585	-0.189006	0.244207
O17	O	1.082918	0.144328	0.577540
O18	O	1.416251	0.477661	0.910874
O19	O	0.676693	-0.244164	0.116155
O20	O	1.010026	0.089169	0.449489
O21	O	1.343360	0.422502	0.782822
O22	O	0.621623	-0.116145	0.189003
O23	O	0.954956	0.217188	0.522337
O24	O	1.288289	0.550521	0.855670
O25	O	0.749533	-0.244184	0.189009
O26	O	1.082867	0.089149	0.522343
O27	O	1.416200	0.422482	0.855676
O28	O	0.676812	-0.116160	0.244204
O29	O	1.010146	0.217173	0.577537
O30	O	1.343479	0.550506	0.910870
O31	O	0.621555	-0.188971	0.116153
O32	O	0.954888	0.144363	0.449486
O33	O	1.288221	0.477696	0.782819
O34	O	0.548734	-0.188961	0.188960
O35	O	0.882067	0.144372	0.522293
O36	O	1.215400	0.477706	0.855627
O37	O	0.621537	-0.244168	0.316981
O38	O	0.954870	0.089166	0.650315
O39	O	1.288204	0.422499	0.983648
O40	O	0.548697	-0.244148	0.244127
O41	O	0.882030	0.089186	0.577461
O42	O	1.215364	0.422519	0.910794
O43	O	0.676764	-0.188996	0.317014
O44	O	1.010097	0.144337	0.650348
O45	O	1.343431	0.477670	0.983681
O46	O	0.676645	-0.317000	0.188966
O47	O	1.009978	0.016333	0.522299
O48	O	1.343311	0.349667	0.855633
O49	O	0.621469	-0.316993	0.244131
O50	O	0.954803	0.016340	0.577464
O51	O	1.288136	0.349674	0.910797
C52	C	0.532415	-0.216551	0.216539
C53	C	0.865748	0.116782	0.549872
C54	C	1.199081	0.450115	0.883205
C55	C	0.482480	-0.216552	0.216534
C56	C	0.815814	0.116781	0.549867
C57	C	1.149147	0.450115	0.883200
C58	C	0.125900	-0.187797	0.187909
C59	C	0.459233	0.145537	0.521242
C60	C	0.792566	0.478870	0.854576
C61	C	0.313573	-0.187784	0.187882
C62	C	0.646906	0.145549	0.521215
C63	C	0.980239	0.478883	0.854548
O64	O	0.337843	-0.163297	0.163502
O65	O	0.671176	0.170037	0.496835
O66	O	1.004510	0.503370	0.830169
N67	N	0.337035	-0.216559	0.216556
N68	N	0.670368	0.116774	0.549889
N69	N	1.003702	0.450107	0.883223
C70	C	0.313576	-0.245338	0.245242
C71	C	0.646910	0.087995	0.578575
C72	C	0.980243	0.421329	0.911908
O73	O	0.337839	-0.269810	0.269634
O74	O	0.671172	0.063523	0.602967
O75	O	1.004505	0.396857	0.936300
C76	C	0.125904	-0.245348	0.245271
C77	C	0.459237	0.087985	0.578604
C78	C	0.792571	0.421318	0.911937
C79	C	0.102444	-0.216574	0.216591
C80	C	0.435777	0.116759	0.549925
C81	C	0.769111	0.450093	0.883258
C82	C	0.102440	-0.159024	0.159232
C83	C	0.435773	0.174309	0.492565
C84	C	0.769106	0.507642	0.825899
C85	C	0.055524	-0.159030	0.159237
C86	C	0.388858	0.174304	0.492571
C87	C	0.722191	0.507637	0.825904
C88	C	0.032069	-0.187807	0.187920
C89	C	0.365402	0.145526	0.521253
C90	C	0.698735	0.478860	0.854586
C91	C	0.055529	-0.216579	0.216597
C92	C	0.388862	0.116754	0.549930
C93	C	0.722195	0.450087	0.883263
C94	C	0.102446	-0.274124	0.273958
C95	C	0.435779	0.059209	0.607291
C96	C	0.769113	0.392542	0.940625
C97	C	0.055525	-0.274123	0.273964
C98	C	0.388858	0.059210	0.607297
C99	C	0.722192	0.392543	0.940630
C100	C	0.032065	-0.245349	0.245284
C101	C	0.365398	0.087984	0.578617
C102	C	0.698732	0.421317	0.911951
C103	C	-0.014842	-0.245362	0.245284
C104	C	0.318491	0.087972	0.578618
C105	C	0.651824	0.421305	0.911951
N106	N	-0.038305	-0.216586	0.216610
N107	N	0.295029	0.116747	0.549943
N108	N	0.628362	0.450080	0.883276
C109	C	-0.014849	-0.187809	0.187927
C110	C	0.318484	0.145524	0.521261
C111	C	0.651818	0.478858	0.854594
C112	C	0.412107	-0.245331	0.245224
C113	C	0.745440	0.088002	0.578557
C114	C	1.078773	0.421335	0.911890
C115	C	0.459025	-0.245330	0.245216
C116	C	0.792358	0.088004	0.578549
C117	C	1.125691	0.421337	0.911882
C118	C	0.459018	-0.187775	0.187856
C119	C	0.792351	0.145559	0.521190
C120	C	1.125685	0.478892	0.854523
C121	C	0.412099	-0.187779	0.187862
C122	C	0.745433	0.145554	0.521196
C123	C	1.078766	0.478888	0.854529
C124	C	0.388645	-0.216556	0.216549
C125	C	0.721978	0.116777	0.549882
C126	C	1.055311	0.450111	0.883216
C127	C	-0.113375	-0.187822	0.187941
C128	C	0.219958	0.145511	0.521274
C129	C	0.553292	0.478844	0.854607
C130	C	-0.160294	-0.187831	0.187947
C131	C	0.173039	0.145502	0.521281
C132	C	0.506372	0.478835	0.854614
C133	C	-0.160284	-0.245384	0.245308
C134	C	0.173050	0.087949	0.578641
C135	C	0.506383	0.421282	0.911975
C136	C	-0.113368	-0.245377	0.245300
C137	C	0.219965	0.087956	0.578633
C138	C	0.553298	0.421290	0.911967
C139	C	-0.089915	-0.216592	0.216615
C140	C	0.243418	0.116741	0.549948
C141	C	0.576752	0.450074	0.883281
O142	O	-0.039141	-0.269832	0.269654
O143	O	0.294192	0.063501	0.602988
O144	O	0.627525	0.396834	0.936321
O145	O	-0.039120	-0.163334	0.163546
O146	O	0.294214	0.170000	0.496879
O147	O	0.627547	0.503333	0.830213
C148	C	0.172815	-0.187791	0.187904
C149	C	0.506149	0.145542	0.521237
C150	C	0.839482	0.478875	0.854570
C151	C	0.196275	-0.216564	0.216580
C152	C	0.529608	0.116770	0.549914
C153	C	0.862942	0.450103	0.883247
C154	C	0.172820	-0.245341	0.245263
C155	C	0.506153	0.087992	0.578596
C156	C	0.839486	0.421326	0.911929
C157	C	0.243193	-0.216562	0.216573
C158	C	0.576526	0.116772	0.549906
C159	C	0.909860	0.450105	0.883239
C160	C	0.266648	-0.187784	0.187890
C161	C	0.599982	0.145549	0.521224
C162	C	0.933315	0.478882	0.854557
C163	C	0.243186	-0.159009	0.159216
C164	C	0.576520	0.174324	0.492549
C165	C	0.909853	0.507658	0.825883
C166	C	0.196271	-0.159014	0.159221
C167	C	0.529604	0.174319	0.492555
C168	C	0.862937	0.507653	0.825888
C169	C	0.196282	-0.274117	0.273937
C170	C	0.529615	0.059217	0.607270
C171	C	0.862948	0.392550	0.940604
C172	C	0.243197	-0.274109	0.273929
C173	C	0.576531	0.059224	0.607262
C174	C	0.909864	0.392557	0.940596
C175	C	0.266653	-0.245332	0.245247
C176	C	0.599986	0.088001	0.578580
C177	C	0.933320	0.421335	0.911913
C178	C	0.649056	-0.333297	0.216554
C179	C	0.982389	0.000036	0.549887
C180	C	1.315723	0.333369	0.883220
C181	C	0.649062	-0.383232	0.216559
C182	C	0.982396	-0.049898	0.549892
C183	C	1.315729	0.283435	0.883226
C184	C	0.677919	-0.692866	0.187894
C185	C	1.011253	-0.359533	0.521227
C186	C	1.344586	-0.026200	0.854560
C187	C	0.677975	-0.880539	0.187911
C188	C	1.011308	-0.547206	0.521244
C189	C	1.344641	-0.213873	0.854578
O190	O	0.702445	-0.904797	0.163521
O191	O	1.035779	-0.571463	0.496855
O192	O	1.369112	-0.238130	0.830188
N193	N	0.649230	-0.904017	0.216610
N194	N	0.982564	-0.570683	0.549943
N195	N	1.315897	-0.237350	0.883276
C196	C	0.620472	-0.880573	0.245308
C197	C	0.953806	-0.547240	0.578642
C198	C	1.287139	-0.213906	0.911975
O199	O	0.596028	-0.904848	0.269722
O200	O	0.929361	-0.571515	0.603056
O201	O	1.262695	-0.238182	0.936389
C202	C	0.620419	-0.692901	0.245293
C203	C	0.953753	-0.359568	0.578626
C204	C	1.287086	-0.026234	0.911960
C205	C	0.649162	-0.669426	0.216589
C206	C	0.982496	-0.336093	0.549922
C207	C	1.315829	-0.002759	0.883256
C208	C	0.706660	-0.669391	0.159192
C209	C	1.039993	-0.336058	0.492526
C210	C	1.373327	-0.002724	0.825859
C211	C	0.706644	-0.622476	0.159187
C212	C	1.039978	-0.289142	0.492520
C213	C	1.373311	0.044191	0.825853
C214	C	0.677887	-0.599035	0.187882
C215	C	1.011221	-0.265702	0.521215
C216	C	1.344554	0.067631	0.854549
C217	C	0.649146	-0.622510	0.216583
C218	C	0.982480	-0.289177	0.549917
C219	C	1.315813	0.044156	0.883250
C220	C	0.591664	-0.669458	0.273993
C221	C	0.924997	-0.336125	0.607327
C222	C	1.258331	-0.002791	0.940660
C223	C	0.591654	-0.622537	0.273988
C224	C	0.924987	-0.289204	0.607321
C225	C	1.258321	0.044130	0.940654
C226	C	0.620397	-0.599062	0.245284
C227	C	0.953730	-0.265729	0.578617
C228	C	1.287064	0.067605	0.911951
C229	C	0.620374	-0.552155	0.245273
C230	C	0.953707	-0.218821	0.578606
C231	C	1.287040	0.114512	0.911939
N232	N	0.649118	-0.528677	0.216574
N233	N	0.982451	-0.195344	0.549907
N234	N	1.315785	0.137990	0.883241
C235	C	0.677875	-0.552117	0.187879
C236	C	1.011208	-0.218784	0.521212
C237	C	1.344542	0.114549	0.854545
C238	C	0.620501	-0.979104	0.245314
C239	C	0.953835	-0.645770	0.578647
C240	C	1.287168	-0.312437	0.911981
C241	C	0.620514	-1.026022	0.245317
C242	C	0.953847	-0.692688	0.578651
C243	C	1.287181	-0.359355	0.911984
C244	C	0.678017	-1.025984	0.187920
C245	C	1.011350	-0.692651	0.521254
C246	C	1.344684	-0.359318	0.854587
C247	C	0.678002	-0.979066	0.187915
C248	C	1.011335	-0.645732	0.521248
C249	C	1.344669	-0.312399	0.854582
C250	C	0.649246	-0.955626	0.216615
C251	C	0.982579	-0.622293	0.549948
C252	C	1.315912	-0.288960	0.883282
C253	C	0.677839	-0.453592	0.187868
C254	C	1.011172	-0.120258	0.521202
C255	C	1.344506	0.213075	0.854535
C256	C	0.677819	-0.406672	0.187864
C257	C	1.011153	-0.073339	0.521197
C258	C	1.344486	0.259995	0.854530
C259	C	0.620318	-0.406713	0.245262
C260	C	0.953651	-0.073380	0.578595
C261	C	1.286985	0.259953	0.911929
C262	C	0.620336	-0.453629	0.245265
C263	C	0.953669	-0.120295	0.578599
C264	C	1.287003	0.213038	0.911932
C265	C	0.649100	-0.477067	0.216567
C266	C	0.982433	-0.143733	0.549900
C267	C	1.315767	0.189600	0.883233
O268	O	0.595919	-0.527868	0.269653
O269	O	0.929253	-0.194535	0.602987
O270	O	1.262586	0.138798	0.936320
O271	O	0.702322	-0.527834	0.163475
O272	O	1.035656	-0.194501	0.496809
O273	O	1.368989	0.138833	0.830142
C274	C	0.677935	-0.739782	0.187899
C275	C	1.011268	-0.406448	0.521233
C276	C	1.344602	-0.073115	0.854566
C277	C	0.649194	-0.763257	0.216601
C278	C	0.982527	-0.429923	0.549934
C279	C	1.315861	-0.096590	0.883267
C280	C	0.620437	-0.739816	0.245296
C281	C	0.953771	-0.406483	0.578629
C282	C	1.287104	-0.073150	0.911963
C283	C	0.649207	-0.810175	0.216604
C284	C	0.982540	-0.476841	0.549937
C285	C	1.315873	-0.143508	0.883271
C286	C	0.677963	-0.833615	0.187909
C287	C	1.011297	-0.500282	0.521242
C288	C	1.344630	-0.166948	0.854575
C289	C	0.706708	-0.810137	0.159210
C290	C	1.040041	-0.476804	0.492543
C291	C	1.373374	-0.143471	0.825876
C292	C	0.706692	-0.763222	0.159204
C293	C	1.040025	-0.429889	0.492537
C294	C	1.373359	-0.096555	0.825871
C295	C	0.591693	-0.763294	0.273995
C296	C	0.925026	-0.429961	0.607328
C297	C	1.258360	-0.096627	0.940661
C298	C	0.591711	-0.810209	0.273998
C299	C	0.925044	-0.476876	0.607331
C300	C	1.258377	-0.143543	0.940665
C301	C	0.620468	-0.833650	0.245302
C302	C	0.953801	-0.500316	0.578636
C303	C	1.287134	-0.166983	0.911969
C304	C	0.766316	-0.216598	0.216613
C305	C	1.099649	0.116735	0.549947
C306	C	1.432982	0.450068	0.883280
C307	C	0.816250	-0.216609	0.216629
C308	C	1.149583	0.116725	0.549963
C309	C	1.482917	0.450058	0.883296
C310	C	0.649153	-0.216583	0.333754
C311	C	0.982486	0.116750	0.667088
C312	C	1.315819	0.450084	1.000421
C313	C	0.649159	-0.216587	0.383689
C314	C	0.982493	0.116747	0.717022
C315	C	1.315826	0.450080	1.050355
C316	C	0.649231	-0.099396	0.216608
C317	C	0.982564	0.233937	0.549941
C318	C	1.315898	0.567270	0.883275
C319	C	0.649271	-0.049462	0.216622
C320	C	0.982604	0.283871	0.549955
C321	C	1.315937	0.617205	0.883289
C322	C	0.649148	-0.216534	0.099853
C323	C	0.982481	0.116799	0.433187
C324	C	1.315814	0.450133	0.766520
C325	C	0.649228	-0.216404	0.049919
C326	C	0.982561	0.116930	0.383253
C327	C	1.315895	0.450263	0.716586
C328	C	0.620434	-0.245211	0.740259
C329	C	0.953767	0.088122	1.073592
C330	C	1.287101	0.421455	1.406926
C331	C	0.620418	-0.245263	0.552586
C332	C	0.953751	0.088070	0.885919
C333	C	1.287085	0.421403	1.219252
O334	O	0.595950	-0.269686	0.528307
O335	O	0.929284	0.063648	0.861640
O336	O	1.262617	0.396981	1.194973
N337	N	0.649169	-0.216545	0.529134
N338	N	0.982503	0.116788	0.862467
N339	N	1.315836	0.450122	1.195801
C340	C	0.677925	-0.187810	0.552603
C341	C	1.011258	0.145523	0.885937
C342	C	1.344591	0.478857	1.219270
O343	O	0.702376	-0.163381	0.528350
O344	O	1.035709	0.169952	0.861683
O345	O	1.369043	0.503285	1.195016
C346	C	0.677938	-0.187756	0.740275
C347	C	1.011272	0.145577	1.073609
C348	C	1.344605	0.478910	1.406942
C349	C	0.649188	-0.216479	0.763725
C350	C	0.982521	0.116854	1.097058
C351	C	1.315855	0.450187	1.430392
C352	C	0.591686	-0.273932	0.763708
C353	C	0.925019	0.059401	1.097042
C354	C	1.258352	0.392735	1.430375
C355	C	0.591692	-0.273920	0.810624
C356	C	0.925025	0.059413	1.143957
C357	C	1.258359	0.392746	1.477291
C358	C	0.620446	-0.245188	0.834090
C359	C	0.953779	0.088145	1.167423
C360	C	1.287113	0.421478	1.500757
C361	C	0.649194	-0.216468	0.810640
C362	C	0.982528	0.116865	1.143974
C363	C	1.315861	0.450199	1.477307
C364	C	0.706691	-0.159019	0.763744
C365	C	1.040025	0.174314	1.097077
C366	C	1.373358	0.507647	1.430411
C367	C	0.706691	-0.159008	0.810665
C368	C	1.040025	0.174326	1.143998
C369	C	1.373358	0.507659	1.477332
C370	C	0.677941	-0.187731	0.834114
C371	C	1.011274	0.145603	1.167448
C372	C	1.344608	0.478936	1.500781
C373	C	0.677954	-0.187724	0.881022
C374	C	1.011288	0.145609	1.214355
C375	C	1.344621	0.478942	1.547689
N376	N	0.649203	-0.216443	0.904474
N377	N	0.982536	0.116891	1.237807
N378	N	1.315870	0.450224	1.571140
C379	C	0.620449	-0.245175	0.881008
C380	C	0.953782	0.088159	1.214341
C381	C	1.287115	0.421492	1.547674
C382	C	0.677916	-0.187841	0.454073
C383	C	1.011250	0.145492	0.787406
C384	C	1.344583	0.478826	1.120739
C385	C	0.677914	-0.187855	0.407155
C386	C	1.011247	0.145479	0.740488
C387	C	1.344580	0.478812	1.073821
C388	C	0.620406	-0.245307	0.407141
C389	C	0.953739	0.088026	0.740474
C390	C	1.287073	0.421359	1.073807
C391	C	0.620411	-0.245296	0.454059
C392	C	0.953745	0.088038	0.787393
C393	C	1.287078	0.421371	1.120726
C394	C	0.649165	-0.216559	0.477524
C395	C	0.982498	0.116774	0.810858
C396	C	1.315831	0.450108	1.144191
C397	C	0.620464	-0.245148	0.979534
C398	C	0.953797	0.088185	1.312867
C399	C	1.287131	0.421518	1.646200
C400	C	0.620474	-0.245136	1.026453
C401	C	0.953807	0.088198	1.359787
C402	C	1.287141	0.421531	1.693120
C403	C	0.677980	-0.187682	1.026463
C404	C	1.011313	0.145652	1.359797
C405	C	1.344646	0.478985	1.693130
C406	C	0.677972	-0.187696	0.979548
C407	C	1.011305	0.145638	1.312881
C408	C	1.344638	0.478971	1.646214
C409	C	0.649210	-0.216431	0.956084
C410	C	0.982543	0.116903	1.289417
C411	C	1.315877	0.450236	1.622751
O412	O	0.702406	-0.163311	0.905330
O413	O	1.035739	0.170022	1.238663
O414	O	1.369072	0.503355	1.571997
O415	O	0.595994	-0.269592	0.905269
O416	O	0.929328	0.063741	1.238603
O417	O	1.262661	0.397074	1.571936
C418	C	0.620428	-0.245223	0.693343
C419	C	0.953761	0.088110	1.026677
C420	C	1.287095	0.421444	1.360010
C421	C	0.649176	-0.216502	0.669894
C422	C	0.982509	0.116831	1.003227
C423	C	1.315843	0.450164	1.336561
C424	C	0.677930	-0.187771	0.693360
C425	C	1.011264	0.145563	1.026693
C426	C	1.344597	0.478896	1.360027
C427	C	0.649173	-0.216516	0.622976
C428	C	0.982507	0.116817	0.956309
C429	C	1.315840	0.450150	1.289643
C430	C	0.620419	-0.245248	0.599510
C431	C	0.953752	0.088085	0.932843
C432	C	1.287086	0.421418	1.266177
C433	C	0.591668	-0.273966	0.622962
C434	C	0.925001	0.059367	0.956295
C435	C	1.258334	0.392700	1.289629
C436	C	0.591674	-0.273955	0.669878
C437	C	0.925007	0.059378	1.003211
C438	C	1.258340	0.392712	1.336544
C439	C	0.706682	-0.159052	0.669908
C440	C	1.040015	0.174281	1.003241
C441	C	1.373348	0.507614	1.336575
C442	C	0.706674	-0.159067	0.622993
C443	C	1.040007	0.174267	0.956326
C444	C	1.373340	0.507600	1.289659
C445	C	0.677919	-0.187799	0.599527
C446	C	1.011253	0.145535	0.932860
C447	C	1.344586	0.478868	1.266193
H448	H	0.262292	-0.135579	0.135860
H449	H	0.595625	0.197755	0.469194
H450	H	0.928959	0.531088	0.802527
H451	H	0.568256	-0.688564	0.297365
H452	H	0.901589	-0.355230	0.630698
H453	H	1.234923	-0.021897	0.964032
H454	H	0.730050	-0.603365	0.135815
H455	H	1.063384	-0.270032	0.469148
H456	H	1.396717	0.063302	0.802481
C457	C	0.738317	-0.127445	0.695714
C458	C	1.071651	0.205888	1.029048
C459	C	1.404984	0.539222	1.362381
N460	N	0.762149	-0.103638	0.715149
N461	N	1.095483	0.229695	1.048483
N462	N	1.428816	0.563028	1.381816
H463	H	0.730103	-0.135630	0.744659
H464	H	1.063436	0.197703	1.077993
H465	H	1.396770	0.531037	1.411326
H466	H	0.393001	-0.164347	0.164510
H467	H	0.726335	0.168986	0.497844
H468	H	1.059668	0.502320	0.831177
C469	C	0.738325	-0.127395	0.836474
C470	C	1.071658	0.205938	1.169807
C471	C	1.404991	0.539271	1.503140
N472	N	0.762152	-0.103587	0.855912
N473	N	1.095486	0.229747	1.189245
N474	N	1.428819	0.563080	1.522579
C475	C	0.709601	-0.156102	0.953753
C476	C	1.042935	0.177231	1.287086
C477	C	1.376268	0.510564	1.620419
N478	N	0.733423	-0.132303	0.934327
N479	N	1.066756	0.201031	1.267660
N480	N	1.400089	0.534364	1.600994
C481	C	0.709552	-0.156229	0.479878
C482	C	1.042886	0.177104	0.813212
C483	C	1.376219	0.510438	1.146545
N484	N	0.733383	-0.132420	0.499313
N485	N	1.066716	0.200913	0.832647
N486	N	1.400050	0.534246	1.165980
C487	C	-0.087583	-0.156160	0.156383
C488	C	0.245750	0.177173	0.489716
C489	C	0.579084	0.510507	0.823050
N490	N	-0.068157	-0.132315	0.132611
N491	N	0.265176	0.201019	0.465944
N492	N	0.598510	0.534352	0.799278
C493	C	0.560037	-0.305570	0.597140
C494	C	0.893370	0.027763	0.930474
C495	C	1.226703	0.361096	1.263807
N496	N	0.536211	-0.329371	0.577689
N497	N	0.869545	0.003962	0.911023
N498	N	1.202878	0.337296	1.244356
C499	C	0.709622	-0.953248	0.156340
C500	C	1.042956	-0.619914	0.489674
C501	C	1.376289	-0.286581	0.823007
N502	N	0.733441	-0.933804	0.132557
N503	N	1.066774	-0.600470	0.465891
N504	N	1.400108	-0.267137	0.799224
C505	C	0.128234	-0.127366	0.127675
C506	C	0.461567	0.205968	0.461008
C507	C	0.794900	0.539301	0.794341
N508	N	0.147658	-0.103521	0.103901
N509	N	0.480992	0.229812	0.437234
N510	N	0.814325	0.563145	0.770568
H511	H	0.597040	-0.268543	0.960435
H512	H	0.930373	0.064790	1.293768
H513	H	1.263706	0.398123	1.627102
C514	C	0.560088	-0.836027	0.305576
C515	C	0.893422	-0.502693	0.638909
C516	C	1.226755	-0.169360	0.972243
N517	N	0.536274	-0.855471	0.329363
N518	N	0.869607	-0.522137	0.662696
N519	N	1.202940	-0.188804	0.996030
H520	H	-0.094266	-0.268811	0.268650
H521	H	0.239067	0.064523	0.601983
H522	H	0.572400	0.397856	0.935317
C523	C	0.560059	-0.305513	0.836412
C524	C	0.893392	0.027820	1.169746
C525	C	1.226725	0.361154	1.503079
N526	N	0.536229	-0.329308	0.855833
N527	N	0.869562	0.004025	1.189166
N528	N	1.202896	0.337358	1.522500
H529	H	0.701432	-1.045078	0.164556
H530	H	1.034765	-0.711744	0.497889
H531	H	1.368099	-0.378411	0.831222
C532	C	0.128241	-0.305778	0.305509
C533	C	0.461575	0.027555	0.638842
C534	C	0.794908	0.360888	0.972176
N535	N	0.147670	-0.329622	0.329275
N536	N	0.481003	0.003712	0.662609
N537	N	0.814336	0.337045	0.995942
H538	H	0.596933	-0.472743	0.268640
H539	H	0.930266	-0.139410	0.601973
H540	H	1.263599	0.193924	0.935306
H541	H	0.730090	-0.135677	0.603904
H542	H	1.063423	0.197656	0.937237
H543	H	1.396756	0.530989	1.270571
H544	H	-0.179390	-0.268816	0.268659
H545	H	0.153944	0.064518	0.601992
H546	H	0.487277	0.397851	0.935326
C547	C	0.268998	-0.305767	0.305480
C548	C	0.602331	0.027567	0.638813
C549	C	0.935664	0.360900	0.972147
N550	N	0.288429	-0.329608	0.329246
N551	N	0.621763	0.003726	0.662580
N552	N	0.955096	0.337059	0.995913
H553	H	0.177174	-0.135583	0.135868
H554	H	0.510507	0.197751	0.469201
H555	H	0.843841	0.531084	0.802534
C556	C	0.738295	-0.695168	0.127620
C557	C	1.071629	-0.361835	0.460953
C558	C	1.404962	-0.028501	0.794286
N559	N	0.762122	-0.714580	0.103834
N560	N	1.095455	-0.381247	0.437168
N561	N	1.428789	-0.047914	0.770501
H562	H	0.568262	-0.297344	0.688966
H563	H	0.901596	0.035989	1.022299
H564	H	1.234929	0.369323	1.355633
C565	C	0.709544	-0.156260	0.381366
C566	C	1.042877	0.177073	0.714699
C567	C	1.376210	0.510407	1.048032
N568	N	0.733366	-0.132459	0.361943
N569	N	1.066700	0.200874	0.695276
N570	N	1.400033	0.534208	1.028609
C571	C	0.029725	-0.127369	0.127694
C572	C	0.363058	0.205964	0.461027
C573	C	0.696391	0.539298	0.794360
N574	N	0.010295	-0.103518	0.103936
N575	N	0.343629	0.229815	0.437269
N576	N	0.676962	0.563149	0.770603
H577	H	0.568268	-0.297329	0.744607
H578	H	0.901601	0.036005	1.077941
H579	H	1.234935	0.369338	1.411274
C580	C	0.484828	-0.156117	0.156308
C581	C	0.818161	0.177217	0.489642
C582	C	1.151494	0.510550	0.822975
N583	N	0.504270	-0.132270	0.132550
N584	N	0.837603	0.201063	0.465884
N585	N	1.170937	0.534396	0.799217
H586	H	0.597000	-0.268684	0.473149
H587	H	0.930333	0.064649	0.806482
H588	H	1.263667	0.397983	1.139815
H589	H	0.730097	-0.744112	0.135831
H590	H	1.063431	-0.410779	0.469164
H591	H	1.396764	-0.077445	0.802497
H592	H	0.177189	-0.297551	0.297295
H593	H	0.510522	0.035783	0.630628
H594	H	0.843856	0.369116	0.963961
C595	C	0.588689	-0.380920	0.276827
C596	C	0.922022	-0.047587	0.610161
C597	C	1.255355	0.285747	0.943494
N598	N	0.564868	-0.361491	0.300605
N599	N	0.898202	-0.028158	0.633939
N600	N	1.231535	0.305176	0.967272
H601	H	0.701225	-0.387560	0.164488
H602	H	1.034559	-0.054227	0.497821
H603	H	1.367892	0.279107	0.831155
H604	H	0.701392	-0.164290	1.045578
H605	H	1.034725	0.169043	1.378911
H606	H	1.368059	0.502377	1.712244
H607	H	0.596994	-0.268703	0.388027
H608	H	0.930327	0.064631	0.721360
H609	H	1.263660	0.397964	1.054693
C610	C	0.738340	-0.835931	0.127644
C611	C	1.071673	-0.502598	0.460977
C612	C	1.405007	-0.169264	0.794311
N613	N	0.762165	-0.855361	0.103872
N614	N	1.095499	-0.522027	0.437205
N615	N	1.428832	-0.188694	0.770539
H616	H	0.597104	-1.045131	0.268687
H617	H	0.930438	-0.711798	0.602020
H618	H	1.263771	-0.378464	0.935353
C619	C	-0.186098	-0.156174	0.156398
C620	C	0.147236	0.177160	0.489732
C621	C	0.480569	0.510493	0.823065
N622	N	-0.205531	-0.132329	0.132638
N623	N	0.127803	0.201005	0.465971
N624	N	0.461136	0.534338	0.799305
C625	C	0.588877	-0.953326	0.276900
C626	C	0.922210	-0.619993	0.610234
C627	C	1.255544	-0.286659	0.943567
N628	N	0.565061	-0.933913	0.300695
N629	N	0.898394	-0.600579	0.634028
N630	N	1.231727	-0.267246	0.967362
C631	C	0.560019	-0.596757	0.305561
C632	C	0.893352	-0.263423	0.638895
C633	C	1.226686	0.069910	0.972228
N634	N	0.536191	-0.577340	0.329341
N635	N	0.869524	-0.244006	0.662675
N636	N	1.202858	0.089327	0.996008
C637	C	0.484825	-0.276988	0.276761
C638	C	0.818159	0.056345	0.610094
C639	C	1.151492	0.389679	0.943427
N640	N	0.504257	-0.300833	0.300523
N641	N	0.837590	0.032501	0.633857
N642	N	1.170923	0.365834	0.967190
C643	C	0.560068	-0.737516	0.305576
C644	C	0.893402	-0.404183	0.638909
C645	C	1.226735	-0.070849	0.972243
N646	N	0.536250	-0.718102	0.329368
N647	N	0.869583	-0.384769	0.662701
N648	N	1.202916	-0.051435	0.996035
H649	H	0.393014	-0.268767	0.268585
H650	H	0.726348	0.064567	0.601918
H651	H	1.059681	0.397900	0.935251
C652	C	0.029728	-0.305783	0.305521
C653	C	0.363061	0.027550	0.638854
C654	C	0.696394	0.360884	0.972187
N655	N	0.010298	-0.329630	0.329288
N656	N	0.343631	0.003703	0.662621
N657	N	0.676965	0.337036	0.995954
H658	H	0.597062	-0.268527	1.045544
H659	H	0.930395	0.064806	1.378877
H660	H	1.263728	0.398139	1.712210
H661	H	0.701263	-0.472669	0.164500
H662	H	1.034596	-0.139336	0.497834
H663	H	1.367929	0.193997	0.831167
