data_functionalizedCrystal
_audit_creation_method	'MofGen! by Chris Wilmer'
_symmetry_space_group_name_H-M	'P1'
_symmetry_Int_Tables_number	1
_symmetry_cell_setting	triclinic
loop_
_symmetry_equiv_pos_as_xyz
  x,y,z
_cell_length_a	19.288867
_cell_length_b	19.288859
_cell_length_c	18.366186
_cell_angle_alpha	89.994011
_cell_angle_beta	89.992441
_cell_angle_gamma	83.135397
loop_
_atom_site_label
_atom_site_type_symbol
_atom_site_fract_x
_atom_site_fract_y
_atom_site_fract_z
O1	O	0.921350	0.086656	-0.060524
O2	O	1.421350	0.586656	0.439476
O3	O	0.719089	0.098343	-0.060531
O4	O	1.219089	0.598343	0.439469
O5	O	0.826066	-0.008631	-0.060523
O6	O	1.326066	0.491369	0.439477
O7	O	0.814373	0.193630	-0.060532
O8	O	1.314373	0.693630	0.439468
O9	O	0.826048	-0.008637	0.060577
O10	O	1.326048	0.491363	0.560577
O11	O	0.719071	0.098338	0.060569
O12	O	1.219071	0.598338	0.560569
O13	O	0.921332	0.086650	0.060576
O14	O	1.421332	0.586650	0.560576
Zn15	Zn	0.820199	0.092493	0.079799
Zn16	Zn	1.320199	0.592493	0.579799
Zn17	Zn	0.820222	0.092500	-0.079754
Zn18	Zn	1.320222	0.592500	0.420246
O19	O	0.814355	0.193625	0.060568
O20	O	1.314355	0.693625	0.560568
C21	C	0.693204	0.097964	0.000018
C22	C	1.193204	0.597964	0.500018
C23	C	0.616100	0.096834	0.000015
C24	C	1.116100	0.596834	0.500015
C25	C	0.060545	0.088701	-0.065987
C26	C	0.560545	0.588701	0.434013
C27	C	0.132992	0.089758	-0.065990
C28	C	0.632992	0.589758	0.434010
C29	C	0.169211	0.090287	0.000021
C30	C	0.669211	0.590287	0.500021
C31	C	0.132979	0.089741	0.066040
C32	C	0.632979	0.589741	0.566040
C33	C	0.060534	0.088677	0.066041
C34	C	0.560534	0.588677	0.566041
C35	C	0.278530	0.132653	0.050593
C36	C	0.778530	0.632653	0.550593
C37	C	0.350973	0.133721	0.050589
C38	C	0.850973	0.633721	0.550589
C39	C	0.392657	0.093566	0.000021
C40	C	0.892657	0.593566	0.500021
C41	C	0.361887	0.052352	-0.050555
C42	C	0.861887	0.552352	0.449445
C43	C	0.289442	0.051288	-0.050554
C44	C	0.789442	0.551288	0.449446
C45	C	0.247766	0.091441	0.000028
C46	C	0.747766	0.591441	0.500028
C47	C	0.507437	0.095254	-0.065996
C48	C	1.007437	0.595254	0.434004
C49	C	0.579886	0.096307	-0.065996
C50	C	1.079886	0.596307	0.434004
C51	C	0.579870	0.096296	0.066035
C52	C	1.079870	0.596296	0.566035
C53	C	0.507423	0.095237	0.066034
C54	C	1.007423	0.595237	0.566034
C55	C	0.471210	0.094719	0.000016
C56	C	0.971210	0.594719	0.500016
C57	C	0.825682	-0.034511	0.000026
C58	C	1.325682	0.465489	0.500026
C59	C	0.824554	-0.111614	0.000025
C60	C	1.324554	0.388386	0.500025
C61	C	0.947217	0.087029	0.000025
C62	C	1.447217	0.587029	0.500025
C63	C	1.024321	0.088159	0.000023
C64	C	1.524321	0.588159	0.500023
C65	C	0.879698	-0.675655	0.000008
C66	C	1.379698	-0.175655	0.500008
C67	C	0.880763	-0.603208	0.000014
C68	C	1.380763	-0.103208	0.500014
C69	C	0.817994	-0.558502	0.000012
C70	C	1.317994	-0.058502	0.500012
C71	C	0.754154	-0.586247	0.000022
C72	C	1.254154	-0.086247	0.500022
C73	C	0.753091	-0.658693	0.000022
C74	C	1.253091	-0.158693	0.500022
C75	C	0.771187	-0.437227	-0.042415
C76	C	1.271187	0.062773	0.457585
C77	C	0.772253	-0.364783	-0.042420
C78	C	1.272253	0.135217	0.457580
C79	C	0.821271	-0.335056	0.000013
C80	C	1.321271	0.164944	0.500013
C81	C	0.869235	-0.377783	0.042442
C82	C	1.369235	0.122217	0.542442
C83	C	0.868171	-0.450228	0.042442
C84	C	1.368171	0.049772	0.542442
C85	C	0.819140	-0.479946	0.000012
C86	C	1.319140	0.020054	0.500012
C87	C	0.886261	-0.228764	0.000015
C88	C	1.386261	0.271236	0.500015
C89	C	0.887324	-0.156316	0.000026
C90	C	1.387324	0.343684	0.500026
C91	C	0.760714	-0.139356	0.000026
C92	C	1.260714	0.360644	0.500026
C93	C	0.759653	-0.211803	0.000023
C94	C	1.259653	0.288197	0.500023
C95	C	0.822429	-0.256503	0.000014
C96	C	1.322429	0.243497	0.500014
C97	C	0.814739	0.219504	0.000017
C98	C	1.314739	0.719504	0.500017
C99	C	0.815867	0.296608	0.000013
C100	C	1.315867	0.796608	0.500013
N101	N	0.820187	0.092488	0.188690
N102	N	1.320187	0.592488	0.688690
N103	N	0.820239	0.092500	-0.188646
N104	N	1.320239	0.592500	0.311354
C105	C	0.867572	0.045143	0.226794
C106	C	1.367572	0.545143	0.726794
C107	C	0.867577	0.045140	0.303022
C108	C	1.367577	0.545140	0.803022
C109	C	0.820203	0.092494	0.341143
C110	C	1.320203	0.592494	0.841143
C111	C	0.772809	0.139842	0.303030
C112	C	1.272809	0.639842	0.803030
C113	C	0.772801	0.139839	0.226804
C114	C	1.272801	0.639839	0.726804
C115	C	0.810903	0.155782	0.461900
C116	C	1.310903	0.655782	0.961900
C117	C	0.810916	0.155785	0.538125
C118	C	1.310916	0.655785	1.038125
C119	C	0.820222	0.092502	0.576251
C120	C	1.320222	0.592502	1.076251
C121	C	0.829531	0.029213	0.538142
C122	C	1.329531	0.529213	1.038142
C123	C	0.829524	0.029210	0.461915
C124	C	1.329524	0.529210	0.961915
C125	C	0.820205	0.092502	0.423798
C126	C	1.320205	0.592502	0.923798
C127	C	0.867615	0.045150	0.697010
C128	C	1.367615	0.545150	1.197010
C129	C	0.867614	0.045146	0.773239
C130	C	1.367614	0.545146	1.273239
C131	C	0.772850	0.139855	0.773245
C132	C	1.272850	0.639855	1.273245
C133	C	0.772847	0.139853	0.697017
C134	C	1.272847	0.639853	1.197017
C135	C	0.820233	0.092501	0.658904
C136	C	1.320233	0.592501	1.158904
H137	H	0.477929	0.094798	0.119786
H138	H	0.977929	0.594798	0.619786
H139	H	0.803312	0.207318	0.430865
H140	H	1.303312	0.707318	0.930865
H141	H	0.939305	-0.133734	0.000026
H142	H	1.439305	0.366266	0.500026
N143	N	0.916000	-0.003229	0.812175
N144	N	1.416000	0.496771	1.312175
N145	N	0.915987	-0.003234	0.880233
N146	N	1.415987	0.496766	1.380233
H147	H	0.950154	-0.037406	0.907734
H148	H	1.450154	0.462594	1.407734
H149	H	0.244597	0.165348	0.091779
H150	H	0.744597	0.665348	0.591779
H151	H	0.264392	0.017728	-0.091734
H152	H	0.764392	0.517728	0.408266
H153	H	0.031065	0.088276	-0.119744
H154	H	0.531065	0.588276	0.380256
H155	H	0.376018	0.167297	0.091756
H156	H	0.876018	0.667297	0.591756
N157	N	0.694450	-0.240141	0.000004
N158	N	1.194450	0.259859	0.500004
N159	N	0.679741	-0.278668	-0.051046
N160	N	1.179741	0.221332	0.448954
H161	H	0.633688	-0.298682	-0.051059
H162	H	1.133688	0.201318	0.448941
N163	N	0.724426	0.188223	0.341965
N164	N	1.224426	0.688223	0.841965
N165	N	0.725169	0.252423	0.333440
N166	N	1.225169	0.752423	0.833440
H167	H	0.690996	0.286592	0.360937
H168	H	1.190996	0.786592	0.860937
H169	H	0.395824	0.019656	-0.091734
H170	H	0.895824	0.519656	0.408266
H171	H	0.733202	-0.330000	-0.076972
H172	H	1.233202	0.170000	0.423028
N173	N	0.724446	0.188216	0.812174
N174	N	1.224446	0.688216	1.312174
N175	N	0.681406	0.166285	0.854718
N176	N	1.181406	0.666285	1.354718
H177	H	0.647217	0.200440	0.882214
H178	H	1.147217	0.700440	1.382214
N179	N	0.724390	0.188207	0.187889
N180	N	1.224390	0.688207	0.687889
N181	N	0.682090	0.230480	0.221930
N182	N	1.182090	0.730480	0.721930
H183	H	0.647898	0.264641	0.194445
H184	H	1.147898	0.764641	0.694445
H185	H	0.731262	-0.461422	-0.076963
H186	H	1.231262	0.038578	0.423037
H187	H	0.930815	-0.712045	0.000005
H188	H	1.430815	-0.212045	0.500005
H189	H	0.906164	0.006584	0.334052
H190	H	1.406164	0.506584	0.834052
H191	H	0.162473	0.090170	0.119787
H192	H	0.662473	0.590170	0.619787
N193	N	0.724440	0.188220	0.658102
N194	N	1.224440	0.688220	1.158102
N195	N	0.682141	0.230495	0.692144
N196	N	1.182141	0.730495	1.192144
H197	H	0.647949	0.264656	0.664661
H198	H	1.147949	0.764656	1.164661
H199	H	0.477951	0.094830	-0.119752
H200	H	0.977951	0.594830	0.380248
H201	H	0.803340	0.207319	0.569148
H202	H	1.303340	0.707319	1.069148
H203	H	0.031040	0.088238	0.119796
H204	H	0.531040	0.588238	0.619796
H205	H	0.932743	-0.580619	0.000010
H206	H	1.432743	-0.080619	0.500010
H207	H	0.703047	-0.549843	0.000022
H208	H	1.203047	-0.049843	0.500022
N209	N	0.916027	-0.003209	0.187910
N210	N	1.416027	0.496791	0.687910
N211	N	0.915350	-0.067417	0.196441
N212	N	1.415350	0.432583	0.696441
H213	H	0.949592	-0.101557	0.168992
H214	H	1.449592	0.398443	0.668992
H215	H	0.837102	-0.022322	0.430890
H216	H	1.337102	0.477678	0.930890
N217	N	0.917144	-0.493881	0.085788
N218	N	1.417144	0.006119	0.585788
N219	N	0.916181	-0.558562	0.085784
N220	N	1.416181	-0.058562	0.585784
H221	H	0.950766	-0.589393	0.116401
H222	H	1.450766	-0.089393	0.616401
H223	H	0.909146	-0.353581	0.077000
H224	H	1.409146	0.146419	0.577000
H225	H	0.162491	0.090203	-0.119745
H226	H	0.662491	0.590203	0.380255
H227	H	0.906197	0.006591	0.665977
H228	H	1.406197	0.506591	1.165977
N229	N	0.950388	-0.274418	0.000010
N230	N	1.450388	0.225582	0.500010
N231	N	1.007378	-0.249640	0.000013
N232	N	1.507378	0.250360	0.500013
H233	H	1.052669	-0.281881	0.000009
H234	H	1.552669	0.218119	0.500009
H235	H	0.701111	-0.681275	0.000029
H236	H	1.201111	-0.181275	0.500029
N237	N	0.696602	-0.093689	0.000032
N238	N	1.196602	0.406311	0.500032
N239	N	0.697558	-0.029007	0.000035
N240	N	1.197558	0.470993	0.500035
H241	H	0.652278	0.003250	0.000042
H242	H	1.152278	0.503250	0.500042
N243	N	0.839018	-0.035433	0.577080
N244	N	1.339018	0.464567	1.077080
N245	N	0.792663	-0.050903	0.619618
N246	N	1.292663	0.449097	1.119618
H247	H	0.799360	-0.096558	0.647120
H248	H	1.299360	0.403442	1.147120
N249	N	0.616881	0.096852	-0.133434
N250	N	1.116881	0.596852	0.366566
N251	N	0.584537	0.096387	-0.192369
N252	N	1.084537	0.596387	0.307631
H253	H	0.610665	0.096771	-0.239999
H254	H	1.110665	0.596771	0.260001
H255	H	0.609359	0.096725	0.119783
H256	H	1.109359	0.596725	0.619783
