data_functionalizedCrystal
_audit_creation_method	'MofGen! by Chris Wilmer'
_symmetry_space_group_name_H-M	'P1'
_symmetry_Int_Tables_number	1
_symmetry_cell_setting	triclinic
loop_
_symmetry_equiv_pos_as_xyz
  x,y,z
_cell_length_a	13.033808
_cell_length_b	12.759400
_cell_length_c	13.032268
_cell_angle_alpha	97.151488
_cell_angle_beta	103.297372
_cell_angle_gamma	97.207368
loop_
_atom_site_label
_atom_site_type_symbol
_atom_site_fract_x
_atom_site_fract_y
_atom_site_fract_z
Zn1	Zn	1.547453	-0.270746	-0.394612
Zn2	Zn	2.047453	0.229254	0.105388
Zn3	Zn	1.569917	-0.420912	-0.217031
Zn4	Zn	2.069917	0.079088	0.282969
Zn5	Zn	1.392406	-0.270821	-0.239552
Zn6	Zn	1.892406	0.229179	0.260448
Zn7	Zn	1.369840	-0.471965	-0.417095
Zn8	Zn	1.869840	0.028035	0.082905
O9	O	1.469904	-0.358611	-0.317072
O10	O	1.969904	0.141389	0.182928
O11	O	1.699053	-0.269269	-0.352221
O12	O	2.199053	0.230731	0.147779
O13	O	1.565215	-0.379668	-0.071397
O14	O	2.065215	0.120332	0.428603
O15	O	1.413016	-0.123786	-0.260136
O16	O	1.913016	0.376214	0.239864
O17	O	1.715557	-0.379595	-0.221753
O18	O	2.215557	0.120405	0.278247
O19	O	1.526928	-0.123732	-0.374059
O20	O	2.026928	0.376268	0.125941
O21	O	1.434799	-0.269396	-0.087943
O22	O	1.934799	0.230604	0.412057
O23	O	1.240792	-0.318900	-0.281938
O24	O	1.740792	0.181100	0.218062
O25	O	1.374555	-0.466607	-0.562734
O26	O	1.874555	0.033393	-0.062734
O27	O	1.224213	-0.466680	-0.412378
O28	O	1.724213	0.033320	0.087622
O29	O	1.505046	-0.318773	-0.546216
O30	O	2.005046	0.181227	-0.046216
O31	O	1.543333	-0.574709	-0.243554
O32	O	2.043333	-0.074709	0.256446
O33	O	1.396337	-0.612217	-0.390541
O34	O	1.896337	-0.112217	0.109459
C35	C	1.193967	-0.398339	-0.352042
C36	C	1.693967	0.101661	0.147958
C37	C	1.075916	-0.415363	-0.367027
C38	C	1.575916	0.084637	0.132973
C39	C	0.909437	-0.367342	-0.324759
C40	C	1.409437	0.132658	0.175241
C41	C	1.031449	-0.349746	-0.309267
C42	C	1.531449	0.150254	0.190733
C43	C	1.469850	-0.631584	-0.317063
C44	C	1.969850	-0.131584	0.182937
C45	C	1.469920	-0.748354	-0.317082
C46	C	1.969920	-0.248354	0.182918
C47	C	1.529193	-0.803121	-0.376461
C48	C	2.029193	-0.303121	0.123539
C49	C	1.529239	-0.912841	-0.376481
C50	C	2.029239	-0.412841	0.123519
C51	C	1.410738	-0.913018	-0.257733
C52	C	1.910738	-0.413018	0.242267
C53	C	1.410686	-0.803301	-0.257720
C54	C	1.910686	-0.303301	0.242280
C55	C	1.588427	-0.748174	-0.435823
C56	C	2.088427	-0.248174	0.064177
C57	C	1.647705	-0.802940	-0.495206
C58	C	2.147705	-0.302940	0.004794
C59	C	1.647751	-0.912661	-0.495226
C60	C	2.147751	-0.412661	0.004774
C61	C	1.588519	-0.967615	-0.435862
C62	C	2.088519	-0.467615	0.064138
C63	C	1.746918	-0.318729	-0.281967
C64	C	2.246918	0.181271	0.218033
C65	C	1.864965	-0.301734	-0.267007
C66	C	2.364965	0.198266	0.232993
C67	C	1.434777	-0.398377	-0.594088
C68	C	1.934777	0.101623	-0.094088
C69	C	1.419809	-0.415322	-0.712136
C70	C	1.919809	0.084678	-0.212136
C71	C	1.469984	-0.084571	-0.317102
C72	C	1.969984	0.415429	0.182898
C73	C	1.470018	0.032208	-0.317114
C74	C	1.970018	0.532208	0.182886
C75	C	1.477700	-0.349732	-0.756592
C76	C	1.977700	0.150268	-0.256592
C77	C	1.462230	-0.367244	-0.878601
C78	C	1.962230	0.132756	-0.378601
C79	C	1.504955	-0.318916	-0.041127
C80	C	2.004955	0.181084	0.458873
C81	C	1.520129	-0.301644	0.076947
C82	C	2.020129	0.198356	0.576947
H83	H	1.083701	-0.280549	-0.248346
H84	H	1.583701	0.219451	0.251654
Br85	Br	1.728071	-0.728368	-0.575784
Br86	Br	2.228071	-0.228368	-0.075784
H87	H	1.581143	-0.232515	-0.870793
H88	H	2.081143	0.267485	-0.370793
Br89	Br	1.360516	-0.482450	-0.965700
Br90	Br	1.860516	0.017550	-0.465700
H91	H	1.023666	-0.484566	-0.427943
H92	H	1.523666	0.015434	0.072057
H93	H	0.857182	-0.436541	-0.385668
H94	H	1.357182	0.063459	0.114332
H95	H	1.358786	-0.484436	-0.764402
H96	H	1.858786	0.015564	-0.264402
Br97	Br	0.952051	-0.186406	-0.165468
Br98	Br	1.452051	0.313594	0.334532
H99	H	1.588398	-0.658833	-0.435811
H100	H	2.088398	-0.158833	0.064189
Br101	Br	1.588782	-1.116472	-0.435692
Br102	Br	2.088782	-0.616472	0.064308
Br103	Br	1.728182	-0.986990	-0.575832
Br104	Br	2.228182	-0.486990	-0.075832
Br105	Br	1.330244	-0.728967	-0.177131
Br106	Br	1.830244	-0.228967	0.322869
H107	H	1.362514	-0.957770	-0.209401
H108	H	1.862514	-0.457770	0.290599
Br109	Br	1.579368	-0.234496	-0.669494
Br110	Br	2.079368	0.265504	-0.169494
