data_functionalizedCrystal
_audit_creation_method	'MofGen! by Chris Wilmer'
_symmetry_space_group_name_H-M	'P1'
_symmetry_Int_Tables_number	1
_symmetry_cell_setting	triclinic
loop_
_symmetry_equiv_pos_as_xyz
  x,y,z
_cell_length_a	14.971507
_cell_length_b	14.971486
_cell_length_c	14.048226
_cell_angle_alpha	89.999080
_cell_angle_beta	90.007568
_cell_angle_gamma	96.381605
loop_
_atom_site_label
_atom_site_type_symbol
_atom_site_fract_x
_atom_site_fract_y
_atom_site_fract_z
O1	O	-1.186935	0.116654	-0.079173
O2	O	-0.926538	0.130593	-0.079168
O3	O	-1.063716	-0.006576	-0.079178
O4	O	-1.049757	0.253823	-0.079164
O5	O	-1.063699	-0.006584	0.079143
O6	O	-0.926521	0.130585	0.079153
O7	O	-1.186919	0.116645	0.079148
Zn8	Zn	-1.056718	0.123614	0.104288
Zn9	Zn	-1.056739	0.123624	-0.104308
O10	O	-1.049741	0.253815	0.079158
C11	C	-0.893205	0.129962	-0.000007
C12	C	-0.793909	0.128084	-0.000006
C13	C	-1.063084	-0.039905	-0.000021
C14	C	-1.061213	-0.139202	-0.000032
N15	N	-1.056709	0.123606	0.246648
C16	C	-0.355627	0.201501	-0.000005
C17	C	-0.448927	0.203259	-0.000011
C18	C	-0.506147	0.122666	-0.000012
C19	C	-0.470062	0.040311	-0.000017
C20	C	-0.376764	0.038554	-0.000018
C21	C	-0.664525	0.043978	-0.000012
C22	C	-0.757830	0.045735	-0.000008
C23	C	-0.736688	0.208683	-0.000004
C24	C	-0.643390	0.206926	-0.000005
C25	C	-0.607312	0.124570	-0.000009
C26	C	-0.220252	0.117276	-0.000011
C27	C	-0.319548	0.119152	-0.000008
C28	C	-1.050373	0.287143	-0.000001
C29	C	-1.052244	0.386441	0.000004
C30	C	-0.971656	0.443660	0.000005
C31	C	-0.973419	0.536960	-0.000008
C32	C	-1.055771	0.573038	-0.000015
C33	C	-1.136366	0.515811	-0.000018
C34	C	-1.134602	0.422514	-0.000012
C35	C	-1.140037	0.710274	-0.000029
C36	C	-1.141801	0.803578	-0.000033
C37	C	-0.978854	0.824720	-0.000025
C38	C	-0.977090	0.731422	-0.000019
C39	C	-1.057685	0.674202	-0.000020
N40	N	-1.056755	0.123625	-0.246668
C41	C	-1.117471	0.062893	0.296462
C42	C	-1.117477	0.062892	0.396120
C43	C	-1.056725	0.123610	0.445962
C44	C	-0.995957	0.184326	0.396141
C45	C	-0.995947	0.184322	0.296485
C46	C	-0.995983	0.184333	0.603855
C47	C	-0.995993	0.184339	0.703518
C48	C	-1.117512	0.062903	0.703490
C49	C	-1.117503	0.062899	0.603834
C50	C	-1.056735	0.123616	0.554020
H51	H	-0.309044	0.267129	0.000003
N52	N	-1.179552	0.000858	0.754383
N53	N	-1.179533	0.000846	0.843360
H54	H	-1.223337	-0.042980	0.879308
N55	N	-0.627686	-0.040153	-0.000022
N56	N	-0.678782	-0.112105	-0.000020
H57	H	-0.652765	-0.171522	-0.000023
H58	H	-1.166976	0.013462	0.563253
H59	H	-0.766067	0.275740	-0.000000
N60	N	-0.891098	0.595405	-0.000018
N61	N	-0.836351	0.592057	-0.066748
H62	H	-0.778207	0.633334	-0.066757
H63	H	-0.946487	0.233761	0.436728
H64	H	-0.913230	0.871314	-0.000020
N65	N	-1.179517	0.000868	0.447028
N66	N	-1.235059	0.029317	0.502653
H67	H	-1.278863	-0.014498	0.538617
H68	H	-0.904595	0.414293	0.000021
N69	N	-0.892963	0.694582	-0.000002
N70	N	-0.821011	0.745678	-0.000001
H71	H	-0.761594	0.719660	0.000009
H72	H	-0.946496	0.233773	0.563300
H73	H	-1.208860	0.832950	-0.000040
H74	H	-0.946522	0.233781	0.744094
H75	H	-0.946468	0.233760	0.255928
H76	H	-0.596803	0.272551	0.000002
N77	N	-0.485765	0.287384	-0.000019
N78	N	-0.434667	0.359335	-0.000018
H79	H	-0.460682	0.418753	-0.000027
H80	H	-0.804417	-0.019890	-0.000017
H81	H	-1.205666	0.663687	-0.000038
N82	N	-0.528523	-0.042003	-0.000008
N83	N	-0.582932	-0.059197	0.066732
H84	H	-0.624221	-0.117333	0.066742
H85	H	-0.347391	-0.028503	-0.000022
H86	H	-1.203419	0.545194	-0.000022
H87	H	-1.200225	0.375926	-0.000017
H88	H	-1.166946	0.013453	0.255887
