data_functionalizedCrystal
_audit_creation_method	'MofGen! by Chris Wilmer'
_symmetry_space_group_name_H-M	'P1'
_symmetry_Int_Tables_number	1
_symmetry_cell_setting	triclinic
loop_
_symmetry_equiv_pos_as_xyz
  x,y,z
_cell_length_a	19.188930
_cell_length_b	10.489716
_cell_length_c	17.666332
_cell_angle_alpha	90.008963
_cell_angle_beta	90.011603
_cell_angle_gamma	83.836959
loop_
_atom_site_label
_atom_site_type_symbol
_atom_site_fract_x
_atom_site_fract_y
_atom_site_fract_z
O1	O	0.098422	1.691880	0.062952
O2	O	0.107686	1.320473	0.062956
O3	O	0.001470	1.516894	0.062939
O4	O	0.204638	1.495458	0.062969
O5	O	0.001464	1.516860	-0.062958
O6	O	0.107680	1.320439	-0.062941
O7	O	0.098416	1.691845	-0.062945
Cu8	Cu	0.103048	1.506139	-0.074438
Cu9	Cu	0.103055	1.506180	0.074449
O10	O	0.204633	1.495424	-0.062928
C11	C	0.106987	1.272939	0.000007
C12	C	0.104905	1.131355	0.000008
C13	C	0.170040	1.032224	0.000020
C14	C	0.135618	0.955631	-0.062063
C15	C	0.135608	0.955672	0.062062
C16	C	0.070510	1.056626	-0.062125
C17	C	0.070510	1.056672	0.062055
C18	C	0.036041	0.980129	-0.000042
C19	C	-0.024549	1.516183	-0.000012
C20	C	-0.102067	1.514099	-0.000018
C21	C	-0.146225	1.629353	-0.000023
C22	C	-0.219061	1.627395	-0.000011
C23	C	-0.247738	1.510177	-0.000009
C24	C	-0.203571	1.394908	-0.000000
C25	C	-0.130735	1.396869	-0.000005
N26	N	-0.356341	1.420566	-0.042853
N27	N	-0.425531	1.418712	-0.042851
C28	C	-0.467186	1.504262	0.000006
N29	N	-0.437036	1.591757	0.042851
N30	N	-0.367839	1.593616	0.042845
C31	C	-0.326714	1.508038	-0.000004
C32	C	-0.590321	1.617401	0.000016
C33	C	-0.663159	1.615438	0.000033
C34	C	-0.647667	1.382948	0.000036
C35	C	-0.574831	1.384914	0.000026
C36	C	-0.546163	1.502144	0.000013
C37	C	0.230651	1.496135	0.000024
C38	C	0.308170	1.498219	0.000036
C39	C	0.099115	1.739379	0.000005
C40	C	0.101198	1.880964	0.000009
N41	N	0.103042	1.506120	-0.179158
C42	C	0.056033	1.593123	-0.218775
C43	C	0.056030	1.593131	-0.298023
C44	C	0.103048	1.506147	-0.337650
C45	C	0.150061	1.419127	-0.298023
C46	C	0.150058	1.419113	-0.218777
N47	N	0.164745	1.489566	-0.462060
N48	N	0.164745	1.489587	-0.537340
C49	C	0.103058	1.506180	-0.576414
N50	N	0.041368	1.522778	-0.537364
N51	N	0.041368	1.522764	-0.462076
C52	C	0.103056	1.506151	-0.423579
C53	C	0.056041	1.593197	-0.701961
C54	C	0.056037	1.593195	-0.781210
C55	C	0.150074	1.419198	-0.781209
C56	C	0.150072	1.419193	-0.701961
C57	C	0.103056	1.506199	-0.662342
N58	N	0.103054	1.506209	0.179168
H59	H	0.043027	1.100543	-0.114662
F60	F	0.005994	1.685737	-0.340193
F61	F	-0.038067	0.949844	-0.000100
H62	H	0.163112	0.911520	-0.114539
F63	F	0.200109	1.326615	-0.823379
H64	H	0.043037	1.100797	0.114534
F65	F	-0.115718	1.754120	-0.000021
F66	F	0.171567	0.898051	0.130655
H67	H	0.188339	1.348263	-0.186520
F68	F	0.244093	1.062825	-0.000046
H69	H	0.188342	1.348301	-0.330292
H70	H	-0.255021	1.721252	-0.000012
F71	F	-0.527833	1.262244	0.000028
H72	H	-0.566979	1.712856	0.000008
H73	H	-0.699112	1.709296	0.000033
F74	F	-0.234091	1.270157	0.000007
F75	F	-0.083738	1.274195	0.000001
H76	H	0.188354	1.348352	-0.669703
H77	H	0.017756	1.664039	-0.669701
F78	F	-0.678181	1.258195	0.000041
H79	H	0.017749	1.663966	-0.186519
F80	F	0.005997	1.685793	-0.823375
