data_functionalizedCrystal
_audit_creation_method	'MofGen! by Chris Wilmer'
_symmetry_space_group_name_H-M	'P1'
_symmetry_Int_Tables_number	1
_symmetry_cell_setting	triclinic
loop_
_symmetry_equiv_pos_as_xyz
  x,y,z
_cell_length_a	14.853566
_cell_length_b	27.732064
_cell_length_c	13.330367
_cell_angle_alpha	89.999430
_cell_angle_beta	89.995295
_cell_angle_gamma	83.141919
loop_
_atom_site_label
_atom_site_type_symbol
_atom_site_fract_x
_atom_site_fract_y
_atom_site_fract_z
O1	O	1.195350	0.063103	-0.083348
O2	O	0.932769	0.070621	-0.083363
O3	O	1.072207	-0.003496	-0.083359
O4	O	1.055912	0.137220	-0.083352
O5	O	1.072187	-0.003498	0.083488
O6	O	0.932749	0.070620	0.083484
O7	O	1.195330	0.063102	0.083499
Cu8	Cu	1.064038	0.066860	0.098726
Cu9	Cu	1.064061	0.066862	-0.098590
O10	O	1.055892	0.137219	0.083495
C11	C	0.899176	0.070280	0.000058
C12	C	0.799108	0.069259	0.000052
C13	C	0.376004	0.064944	-0.090879
C14	C	0.376004	0.064943	0.091024
C15	C	0.470022	0.065901	0.091021
C16	C	0.517036	0.066381	0.000067
C17	C	0.470031	0.065904	-0.090885
C18	C	0.517033	0.066383	0.181971
C19	C	0.611057	0.067342	0.181971
C20	C	0.658073	0.067820	0.091016
C21	C	0.611063	0.067341	0.000061
C22	C	0.658077	0.067822	-0.090894
C23	C	0.611069	0.067340	-0.181850
C24	C	0.517047	0.066381	-0.181841
C25	C	0.752095	0.068779	0.091006
C26	C	0.752104	0.068782	-0.090900
C27	C	1.071852	-0.021505	0.000061
C28	C	1.070816	-0.075164	0.000052
C29	C	0.981356	-0.452655	0.000043
C30	C	0.985172	-0.250977	0.000042
O31	O	0.915754	-0.220049	-0.000002
N32	N	1.067856	-0.231463	0.000047
C33	C	1.149592	-0.262372	0.000045
O34	O	1.220008	-0.241147	0.000039
C35	C	1.145775	-0.464049	0.000039
C36	C	1.063086	-0.483560	0.000044
C37	C	0.898673	-0.472167	0.000047
C38	C	0.897720	-0.522583	0.000053
C39	C	0.979450	-0.553488	0.000054
C40	C	1.062132	-0.533977	0.000050
C41	C	1.227510	-0.494957	0.000030
C42	C	1.226548	-0.545379	0.000026
C43	C	1.143859	-0.564890	0.000031
C44	C	1.142909	-0.615299	0.000057
N45	N	1.060225	-0.634812	0.000052
C46	C	0.978495	-0.603907	0.000051
C47	C	1.151591	-0.156488	0.000050
C48	C	1.152545	-0.106069	0.000053
C49	C	0.988125	-0.094678	0.000048
C50	C	0.987171	-0.145098	0.000052
C51	C	1.068906	-0.176002	0.000045
C52	C	0.976500	-0.709786	0.000064
C53	C	0.975554	-0.760208	0.000074
C54	C	1.139974	-0.771595	0.000074
C55	C	1.140920	-0.721178	0.000069
C56	C	1.059176	-0.690274	0.000061
O57	O	1.212290	-0.646255	0.000090
O58	O	0.908090	-0.625142	0.000035
C59	C	0.982309	-0.402239	0.000037
C60	C	1.064992	-0.382727	0.000033
C61	C	1.146722	-0.413632	0.000034
C62	C	1.065947	-0.332308	0.000036
C63	C	0.984217	-0.301403	0.000035
C64	C	0.901533	-0.320917	0.000030
C65	C	0.900580	-0.371334	0.000036
C66	C	1.229406	-0.394118	0.000039
C67	C	1.230352	-0.343701	0.000034
C68	C	1.148623	-0.312796	0.000033
C69	C	1.228923	0.063443	0.000076
C70	C	1.328990	0.064463	0.000075
C71	C	1.056246	0.155228	0.000072
C72	C	1.057283	0.208887	0.000075
N73	N	1.064027	0.066859	0.237508
N74	N	1.064079	0.066860	-0.237372
C75	C	1.002316	0.099669	0.710129
C76	C	1.125831	0.034052	0.710100
C77	C	1.125821	0.034051	0.605082
C78	C	1.064058	0.066859	0.552582
C79	C	1.002305	0.099669	0.605100
C80	C	1.187579	0.001245	0.552556
C81	C	1.187572	0.001243	0.447531
C82	C	1.125804	0.034049	0.395029
C83	C	1.064048	0.066860	0.447554
C84	C	1.002285	0.099668	0.395054
C85	C	0.940524	0.132477	0.447577
C86	C	0.940537	0.132475	0.552599
C87	C	1.125790	0.034050	0.290007
C88	C	1.002275	0.099669	0.290026
H89	H	0.790363	0.069176	0.165061
H90	H	0.478765	0.065988	-0.255892
Br91	Br	1.340337	-0.436054	0.000042
Br92	Br	1.209658	-0.010467	0.781346
Br93	Br	1.271406	-0.043275	0.623801
H94	H	0.649359	0.067735	-0.255905
Br95	Br	0.312217	0.064273	-0.214314
Br96	Br	0.787739	-0.430232	0.000041
H97	H	0.337719	0.064555	0.165075
Br98	Br	0.856727	0.176999	0.623881
H99	H	0.790376	0.069172	-0.164967
H100	H	0.478747	0.065995	0.256021
H101	H	0.952028	0.126380	0.752895
Br102	Br	0.674846	0.067996	0.305409
H103	H	0.833245	-0.387214	0.000041
Br104	Br	0.918442	0.144193	0.218784
H105	H	1.237859	-0.025472	0.404773
H106	H	1.176079	0.007340	0.247248
Br107	Br	0.856714	0.177006	0.376316
H108	H	1.294845	-0.479081	0.000025
Br109	Br	0.865560	-0.667853	0.000053
H110	H	1.297693	-0.327821	0.000038
H111	H	0.919838	-0.160980	0.000061
Br112	Br	0.863325	-0.786683	0.000086
Br113	Br	1.264771	-0.079597	0.000065
Br114	Br	0.785493	-0.549054	0.000050
H115	H	0.921577	-0.069506	0.000052
Br116	Br	1.337482	-0.587319	0.000010
Br117	Br	1.253142	-0.694698	0.000104
Br118	Br	1.262529	-0.198424	0.000046
H119	H	1.206516	-0.796767	0.000080
H120	H	0.834986	-0.295745	0.000035
