data_functionalizedCrystal
_audit_creation_method	'MofGen! by Chris Wilmer'
_symmetry_space_group_name_H-M	'P1'
_symmetry_Int_Tables_number	1
_symmetry_cell_setting	triclinic
loop_
_symmetry_equiv_pos_as_xyz
  x,y,z
_cell_length_a	16.109301
_cell_length_b	10.654541
_cell_length_c	14.586319
_cell_angle_alpha	89.996435
_cell_angle_beta	89.998857
_cell_angle_gamma	83.972756
loop_
_atom_site_label
_atom_site_type_symbol
_atom_site_fract_x
_atom_site_fract_y
_atom_site_fract_z
O1	O	1.104089	0.161421	-0.076190
O2	O	0.862147	0.181509	-0.076202
O3	O	0.988682	-0.011350	-0.076190
O4	O	0.977554	0.354280	-0.076202
O5	O	0.988673	-0.011353	0.076291
O6	O	0.862138	0.181506	0.076278
O7	O	1.104081	0.161418	0.076291
Cu8	Cu	0.983108	0.171462	0.090208
Cu9	Cu	0.983119	0.171465	-0.090119
O10	O	0.977546	0.354277	0.076279
C11	C	0.831163	0.180694	0.000036
C12	C	0.738853	0.178254	0.000032
C13	C	0.430487	0.284717	0.000044
C14	C	0.517221	0.287021	0.000039
C15	C	0.535735	0.058200	0.000034
C16	C	0.449003	0.055898	0.000033
C17	C	0.396381	0.169160	0.000043
C18	C	0.569847	0.173767	0.000038
C19	C	0.663888	0.176264	0.000033
C20	C	0.302334	0.166663	0.000047
C21	C	0.987861	-0.058139	0.000050
C22	C	0.985418	-0.197549	0.000048
C23	C	1.136725	-0.227572	0.000068
C24	C	1.211227	-0.308077	0.000079
C25	C	1.208926	-0.439064	0.000076
C26	C	1.132115	-0.489547	0.000059
C27	C	1.057613	-0.409042	0.000047
C28	C	1.059922	-0.278054	0.000053
C29	C	0.906308	-0.379019	0.000021
C30	C	0.908606	-0.248032	0.000031
C31	C	0.829496	-0.429503	0.000004
C32	C	0.754992	-0.348997	-0.000001
C33	C	0.757296	-0.218003	0.000003
C34	C	0.834104	-0.167527	0.000019
C35	C	1.135065	0.162233	0.000050
C36	C	1.227375	0.164673	0.000049
C37	C	0.978367	0.401065	0.000037
C38	C	0.980810	0.540476	0.000033
N39	N	0.983107	0.171458	0.217039
N40	N	0.983127	0.171458	-0.216950
C41	C	1.039156	0.086089	0.452051
C42	C	1.039158	0.086086	0.548032
C43	C	0.927072	0.256832	0.548031
C44	C	0.927066	0.256828	0.452052
C45	C	0.983113	0.171458	0.404064
C46	C	0.983121	0.171459	0.596025
C47	C	0.983123	0.171456	0.700092
C48	C	0.983110	0.171459	0.299990
H49	H	0.387644	0.376943	0.000052
H50	H	0.544986	0.381119	0.000039
C51	C	0.865424	0.350744	0.399258
H52	H	0.873444	0.338506	0.335224
H53	H	0.874938	0.434562	0.414980
H54	H	0.809856	0.337081	0.414990
H55	H	0.578590	-0.034013	0.000028
H56	H	1.269592	-0.504612	0.000079
H57	H	0.421234	-0.038208	0.000028
C58	C	0.836638	-0.023446	0.000023
H59	H	0.781268	0.017273	0.000019
H60	H	0.865111	0.000645	-0.053143
H61	H	0.865089	0.000634	0.053211
H62	H	1.138606	-0.120918	0.000083
C63	C	1.129585	-0.633629	0.000049
H64	H	1.184956	-0.674344	0.000060
H65	H	1.101128	-0.657709	-0.053129
H66	H	1.101119	-0.657725	0.053225
C67	C	1.100796	-0.007824	0.399268
H68	H	1.134168	-0.058675	0.441597
H69	H	1.135663	0.037358	0.361818
H70	H	1.070580	-0.060118	0.361836
C71	C	1.295713	-0.252543	0.000102
H72	H	1.286417	-0.163003	0.000111
H73	H	1.326431	-0.280171	-0.053065
H74	H	1.326408	-0.280185	0.053289
H75	H	1.084792	0.016570	0.587101
C76	C	0.865434	0.350742	0.600820
H77	H	0.873469	0.338528	0.664855
H78	H	0.809868	0.337085	0.585100
H79	H	0.874952	0.434562	0.585080
H80	H	0.692459	-0.390113	-0.000021
C81	C	0.826964	-0.573584	0.000003
H82	H	0.882335	-0.614302	0.000022
H83	H	0.798511	-0.597673	-0.053174
H84	H	0.798494	-0.597669	0.053179
H85	H	0.696627	-0.152462	-0.000011
