data_functionalizedCrystal
_audit_creation_method	'MofGen! by Chris Wilmer'
_symmetry_space_group_name_H-M	'P1'
_symmetry_Int_Tables_number	1
_symmetry_cell_setting	triclinic
loop_
_symmetry_equiv_pos_as_xyz
  x,y,z
_cell_length_a	18.878441
_cell_length_b	14.395555
_cell_length_c	18.878441
_cell_angle_alpha	59.998248
_cell_angle_beta	90.000248
_cell_angle_gamma	60.002389
loop_
_atom_site_label
_atom_site_type_symbol
_atom_site_fract_x
_atom_site_fract_y
_atom_site_fract_z
Zr1	Zr	0.682399	1.016828	-0.092994
O2	O	0.569296	1.210624	-0.206100
O3	O	0.717069	0.823032	-0.058320
O4	O	0.717067	1.016835	-0.206103
O5	O	0.569302	1.016816	0.058255
O6	O	0.833635	1.016841	-0.206107
O7	O	0.569298	1.016821	-0.058317
O8	O	0.833637	0.670163	0.058250
O9	O	0.569300	1.363493	-0.206102
O10	O	0.818851	0.902747	-0.043536
O11	O	0.731862	0.902739	0.043463
O12	O	0.731860	1.130917	-0.130532
O13	O	0.644870	1.130909	-0.043533
Zr14	Zr	0.868319	1.016828	0.092918
Zr15	Zr	0.868312	1.016837	-0.093001
Zr16	Zr	0.682407	1.016819	0.092925
Zr17	Zr	0.682405	1.260637	-0.092997
Zr18	Zr	0.868313	0.773019	0.092921
O19	O	0.833650	1.210624	0.058244
O20	O	0.833640	1.210636	-0.206109
O21	O	0.569306	1.210612	0.058253
O22	O	0.981422	0.823032	0.206024
O23	O	0.981412	0.823045	-0.058329
O24	O	0.717079	0.823020	0.206033
O25	O	0.981416	1.016841	-0.058331
O26	O	0.833651	1.016821	0.206027
O27	O	0.717083	1.016816	0.206031
O28	O	0.981421	1.016835	0.058241
O29	O	0.717075	1.363500	-0.206107
O30	O	0.833643	0.670156	0.206031
O31	O	0.981418	0.670163	0.206026
O32	O	0.981413	0.670170	0.058245
O33	O	0.569306	1.363487	-0.058321
O34	O	0.717081	1.363493	-0.058326
O35	O	0.818858	0.902739	0.130456
O36	O	0.905848	0.902747	0.043457
O37	O	0.818857	1.130917	-0.043539
O38	O	0.731867	1.130909	0.043460
C39	C	0.542811	1.016817	-0.000030
C40	C	0.463887	1.016814	-0.000027
C41	C	0.775352	0.711860	-0.000034
C42	C	0.775350	0.608357	-0.000033
C43	C	0.472214	0.897713	0.045380
C44	C	0.398053	0.897717	0.045381
C45	C	0.315565	1.016824	-0.000032
C46	C	0.307240	1.135934	-0.045441
C47	C	0.381400	1.135928	-0.045436
C48	C	0.152670	1.135937	-0.045450
C49	C	0.078504	1.135944	-0.045456
C50	C	0.169323	0.897726	0.045367
C51	C	0.243483	0.897721	0.045372
C52	C	0.235152	1.016831	-0.000039
C53	C	0.727922	0.547760	0.047405
C54	C	0.693543	0.562018	-0.034398
C55	C	0.809708	0.409702	0.081745
C56	C	0.740923	0.624042	-0.081885
C57	C	0.857133	0.471662	0.034318
C58	C	0.822775	0.485967	-0.047535
C59	C	1.007907	1.016839	-0.000046
C60	C	1.086832	1.016843	-0.000049
C61	C	0.775350	1.016839	-0.232594
C62	C	0.775347	1.016843	-0.311521
C63	C	0.775366	1.321796	-0.000041
C64	C	0.775369	1.425300	-0.000043
C65	C	0.729939	1.135944	-0.394013
C66	C	0.729947	1.135939	-0.468170
C67	C	0.775360	1.016833	-0.459835
C68	C	0.820774	0.897723	-0.377335
C69	C	0.820770	0.897728	-0.303179
C70	C	0.820777	0.897719	-0.531902
C71	C	0.820780	0.897713	-0.606063
C72	C	0.729954	1.135930	-0.696894
C73	C	0.729950	1.135936	-0.622738
C74	C	0.775363	1.016825	-0.540243
C75	C	0.775368	1.016817	0.232518
C76	C	0.775371	1.016814	0.311446
C77	C	1.007900	0.711871	-0.000042
C78	C	1.086822	0.608371	-0.000044
C79	C	0.775361	0.711849	0.232522
C80	C	0.775362	0.608342	0.311450
C81	C	1.007909	0.711860	0.232514
C82	C	1.086834	0.608357	0.311440
C83	C	0.542809	1.321796	-0.232590
C84	C	0.463884	1.425300	-0.311516
C85	C	0.542818	1.321785	-0.000034
C86	C	0.463896	1.425285	-0.000032
C87	C	0.775357	1.321807	-0.232598
C88	C	0.775357	1.425314	-0.311526
C89	C	1.078474	0.559767	-0.045462
C90	C	1.152622	0.462531	-0.045481
C91	C	1.235119	0.413895	-0.000076
C92	C	1.243466	0.462509	0.045344
C93	C	1.169318	0.559750	0.045357
C94	C	0.820773	0.559734	0.393933
C95	C	0.820771	0.462492	0.468102
C96	C	0.775361	0.413853	0.459786
C97	C	0.729944	0.462470	0.377294
C98	C	0.729942	0.559717	0.303127
C99	C	1.169314	0.559755	0.303091
C100	C	1.243480	0.462516	0.377244
C101	C	1.235164	0.413874	0.459743
C102	C	1.152675	0.462486	0.468090
C103	C	1.078511	0.559729	0.393939
C104	C	0.381404	1.473914	-0.303167
C105	C	0.307239	1.571183	-0.377320
C106	C	0.315555	1.619830	-0.459819
C107	C	0.398043	1.571212	-0.468166
C108	C	0.472207	1.473951	-0.394014
C109	C	0.472245	1.473900	0.045378
C110	C	0.398096	1.571162	0.045377
C111	C	0.315599	1.619801	-0.000031
C112	C	0.307253	1.571183	-0.045447
C113	C	0.381400	1.473929	-0.045450
C114	C	0.820775	1.473923	-0.303182
C115	C	0.820792	1.571166	-0.377337
C116	C	0.775384	1.619805	-0.459835
C117	C	0.729964	1.571187	-0.468177
C118	C	0.729953	1.473939	-0.394023
H119	H	0.539375	0.800722	0.082365
Br120	Br	0.882410	0.736075	-0.366021
Br121	Br	0.882412	0.736085	-0.191223
H122	H	1.310639	0.422946	0.370432
H123	H	1.145917	0.422867	0.535271
H124	H	0.692973	1.232923	-0.535336
Br125	Br	0.214978	1.751791	-0.000018
H126	H	0.775399	1.698991	-0.520209
Br127	Br	0.882433	1.637131	-0.365995
H128	H	0.692965	0.599281	0.235969
Br129	Br	0.409360	0.736073	0.107022
H130	H	0.857758	0.422919	0.535263
Br131	Br	0.775372	0.281873	0.560452
H132	H	0.310646	0.800733	0.082343
H133	H	0.692994	1.610805	-0.535357
H134	H	0.692964	1.434373	-0.400829
H135	H	0.011341	1.232931	-0.082436
Br136	Br	0.972375	0.409719	0.082789
Br137	Br	1.180624	0.625754	0.191137
Br138	Br	0.180631	0.736076	0.106989
H139	H	0.240080	1.610751	-0.370507
Br140	Br	0.141363	1.297589	-0.107075
Br141	Br	0.370094	1.407911	-0.191213
Br142	Br	0.195292	1.297581	-0.107065
Br143	Br	0.882407	1.407934	-0.191230
H144	H	0.255158	1.699025	-0.520191
H145	H	0.404909	1.610731	0.082363
Br146	Br	0.692373	0.776653	-0.197218
H147	H	1.310644	0.422896	0.082311
Br148	Br	0.370097	1.297571	-0.107057
Br149	Br	0.668320	0.396445	0.366023
Br150	Br	0.370054	1.407957	-0.107080
H151	H	0.240074	1.610800	-0.082417
Br152	Br	0.584141	1.407980	-0.405360
H153	H	0.692973	1.232914	-0.764066
H154	H	0.857752	0.599325	0.400721
H155	H	0.404804	1.610833	-0.535346
H156	H	0.687759	0.574982	0.087463
Br157	Br	0.578279	0.623994	-0.082841
H158	H	0.862882	0.459028	-0.087712
Br159	Br	0.858127	0.257011	0.197020
Br160	Br	0.584195	1.407915	0.107007
H161	H	1.295560	0.334692	0.520115
H162	H	0.692953	1.232934	-0.400810
H163	H	1.011355	0.599289	0.400748
Br164	Br	0.882415	0.736066	-0.594750
Br165	Br	0.668292	1.297582	-0.634051
Br166	Br	0.882428	0.736067	-0.419944
H167	H	1.011308	0.599365	-0.082447
H168	H	1.295488	0.334715	-0.000093
Br169	Br	1.141274	0.396573	-0.107124
H170	H	1.176128	0.599311	0.082347
