data_functionalizedCrystal
_audit_creation_method	'MofGen! by Chris Wilmer'
_symmetry_space_group_name_H-M	'P1'
_symmetry_Int_Tables_number	1
_symmetry_cell_setting	triclinic
loop_
_symmetry_equiv_pos_as_xyz
  x,y,z
_cell_length_a	17.699097
_cell_length_b	26.210047
_cell_length_c	17.699083
_cell_angle_alpha	89.996398
_cell_angle_beta	83.285722
_cell_angle_gamma	90.012614
loop_
_atom_site_label
_atom_site_type_symbol
_atom_site_fract_x
_atom_site_fract_y
_atom_site_fract_z
O1	O	1.004076	0.042472	0.095748
O2	O	0.783699	0.042464	0.108190
O3	O	0.900113	0.042464	-0.008220
O4	O	0.887661	0.042473	0.212158
O5	O	0.900091	-0.042394	-0.008202
O6	O	0.783676	-0.042394	0.108208
O7	O	1.004053	-0.042386	0.095766
Cu8	Cu	0.893863	-0.050138	0.101989
Cu9	Cu	0.893889	0.050217	0.101967
O10	O	0.887639	-0.042385	0.212176
C11	C	0.755491	0.000034	0.107752
C12	C	0.671473	0.000031	0.106409
C13	C	0.155767	0.046307	0.098170
C14	C	0.234711	0.046305	0.099426
C15	C	0.274165	0.000047	0.100065
C16	C	0.234671	-0.046212	0.099441
C17	C	0.155729	-0.046209	0.098179
C18	C	0.553036	-0.046225	0.104528
C19	C	0.631983	-0.046225	0.105792
C20	C	0.632017	0.046289	0.105775
C21	C	0.553075	0.046292	0.104513
C22	C	0.513589	0.000033	0.103885
C23	C	0.427989	0.000036	0.102521
C24	C	0.359763	0.000043	0.101434
N25	N	0.893849	-0.120722	0.102004
C26	C	0.945432	-0.473236	0.050433
C27	C	0.945449	-0.686895	0.050422
O28	O	0.989278	-0.714517	0.006578
N29	N	0.893893	-0.713616	0.101951
C30	C	0.842326	-0.686919	0.153482
O31	O	0.798470	-0.714550	0.197305
C32	C	0.842307	-0.473261	0.153489
C33	C	0.893871	-0.446543	0.101962
C34	C	0.996992	-0.446518	-0.001090
C35	C	0.996990	-0.393106	-0.001084
C36	C	0.945429	-0.366413	0.050445
C37	C	0.893869	-0.393132	0.101968
C38	C	0.790737	-0.446566	0.205016
C39	C	0.790735	-0.393148	0.205012
C40	C	0.842299	-0.366430	0.153485
C41	C	0.842306	-0.313027	0.153503
N42	N	0.893861	-0.286306	0.101974
C43	C	0.945423	-0.312999	0.050445
C44	C	0.842341	-0.799092	0.153476
C45	C	0.842347	-0.852507	0.153476
C46	C	0.945469	-0.852478	0.050415
C47	C	0.945466	-0.799063	0.050419
C48	C	0.893897	-0.772371	0.101948
C49	C	0.945415	-0.200831	0.050462
C50	C	0.945411	-0.147415	0.050474
C51	C	0.842287	-0.147448	0.153533
C52	C	0.842293	-0.200859	0.153523
C53	C	0.893861	-0.227550	0.101981
O54	O	0.798494	-0.285372	0.197318
O55	O	0.989261	-0.285359	0.006618
C56	C	0.945434	-0.526647	0.050427
C57	C	0.893875	-0.553366	0.101950
C58	C	0.842313	-0.526673	0.153479
C59	C	0.893880	-0.606780	0.101950
C60	C	0.945442	-0.633473	0.050420
C61	C	0.996998	-0.606752	-0.001108
C62	C	0.996996	-0.553340	-0.001102
C63	C	0.790758	-0.553394	0.205008
C64	C	0.790764	-0.606806	0.204998
C65	C	0.842326	-0.633499	0.153469
C66	C	1.032261	0.000046	0.096205
C67	C	1.116279	0.000052	0.097547
C68	C	0.899656	0.000035	-0.036408
C69	C	0.898317	0.000035	-0.120426
N70	N	0.893908	0.120800	0.101947
C71	C	0.966650	0.000036	-0.169044
C72	C	0.965388	0.000041	-0.247987
C73	C	0.895792	0.000040	-0.278311
C74	C	0.827454	0.000040	-0.229687
C75	C	0.828717	0.000039	-0.150745
C76	C	0.822359	0.000044	-0.548050
C77	C	0.821101	0.000043	-0.626998
C78	C	0.959030	0.000046	-0.645292
C79	C	0.960293	0.000045	-0.566350
C80	C	0.891955	0.000047	-0.517733
C81	C	0.893325	0.000043	-0.432134
C82	C	0.894422	0.000040	-0.363909
C83	C	0.888096	0.000045	0.240364
C84	C	0.889435	0.000048	0.324382
H85	H	0.520955	0.083960	0.103997
H86	H	0.800346	-0.777363	0.195439
C87	C	0.785546	-0.230251	0.210172
H88	H	0.754827	-0.206701	0.240850
H89	H	0.812674	-0.251102	0.241657
H90	H	0.754103	-0.251074	0.182940
H91	H	0.123649	0.083976	0.097655
H92	H	1.038984	-0.628494	-0.043063
C93	C	0.278145	0.097185	0.100115
H94	H	0.243340	0.124735	0.099564
H95	H	0.314793	0.099109	0.056488
H96	H	0.303087	0.099106	0.144731
H97	H	0.664177	0.083954	0.106284
C98	C	0.785635	-0.881894	0.210160
H99	H	0.793021	-0.917529	0.202789
H100	H	0.735141	-0.873147	0.202001
H101	H	0.793764	-0.873138	0.260666
C102	C	0.675385	-0.097110	0.106490
H103	H	0.728054	-0.090484	0.107340
H104	H	0.668297	-0.116116	0.062166
H105	H	0.656587	-0.116116	0.150409
C106	C	1.036848	0.000048	-0.532998
H107	H	1.077365	0.000055	-0.573260
H108	H	1.040202	-0.029543	-0.502578
H109	H	1.040211	0.029645	-0.502588
C110	C	1.040552	0.000048	-0.301467
H111	H	1.029835	0.000057	-0.352825
H112	H	1.069093	-0.029542	-0.292292
H113	H	1.069098	0.029646	-0.292284
H114	H	0.987454	-0.874221	0.008459
C115	C	0.509609	-0.097107	0.103847
H116	H	0.544414	-0.124656	0.104418
H117	H	0.484665	-0.099035	0.059237
H118	H	0.472961	-0.099027	0.147480
C119	C	0.744542	0.000049	-0.660353
H120	H	0.704023	0.000056	-0.620093
H121	H	0.741169	-0.029542	-0.690766
H122	H	0.741201	0.029645	-0.690772
C123	C	0.278068	-0.097095	0.100146
H124	H	0.330738	-0.090473	0.100995
H125	H	0.270977	-0.116104	0.055825
H126	H	0.259267	-0.116097	0.144068
C127	C	1.034201	0.000051	-0.698773
H128	H	1.023485	0.000058	-0.750131
H129	H	1.062738	-0.029540	-0.689593
H130	H	1.062751	0.029648	-0.689593
C131	C	0.785568	-0.118079	0.210205
H132	H	0.792950	-0.082441	0.202817
H133	H	0.793680	-0.126830	0.260713
H134	H	0.735074	-0.126840	0.202032
H135	H	0.987454	-0.777312	0.008462
C136	C	0.112292	-0.097090	0.097498
H137	H	0.147093	-0.124640	0.098067
H138	H	0.087348	-0.099013	0.052888
H139	H	0.075644	-0.099009	0.141131
C140	C	1.053712	-0.523957	-0.057788
H141	H	1.084411	-0.547511	-0.088477
H142	H	1.085168	-0.503115	-0.030605
H143	H	1.026542	-0.503125	-0.089267
C144	C	1.002130	-0.118027	-0.006211
H145	H	1.032832	-0.141578	-0.036904
H146	H	1.033585	-0.097187	0.020976
H147	H	0.974960	-0.097194	-0.037686
C148	C	1.002141	-0.230183	-0.006230
H149	H	1.032848	-0.206614	-0.036906
H150	H	0.974985	-0.251023	-0.037711
H151	H	1.033600	-0.251015	0.020961
H152	H	0.748748	-0.468312	0.246973
H153	H	0.770787	0.000042	-0.254383
H154	H	0.748776	-0.628556	0.246964
C155	C	1.053702	-0.363722	-0.057773
H156	H	1.084401	-0.387276	-0.088464
H157	H	1.085160	-0.342879	-0.030594
H158	H	1.026529	-0.342892	-0.089251
C159	C	0.734011	-0.363790	0.261698
H160	H	0.703310	-0.387356	0.292386
H161	H	0.702557	-0.342954	0.234514
H162	H	0.761179	-0.342953	0.293180
H163	H	1.038979	-0.468246	-0.043055
H164	H	0.748769	-0.531665	0.246968
C165	C	1.043207	0.000038	-0.135694
H166	H	1.083722	0.000044	-0.175958
H167	H	1.046561	-0.029554	-0.105276
H168	H	1.046574	0.029633	-0.105284
C169	C	0.747190	0.000037	-0.494582
H170	H	0.705563	0.000030	-0.523951
H171	H	0.744816	0.029628	-0.463407
H172	H	0.744811	-0.029560	-0.463407
H173	H	0.773073	0.000037	-0.111161
