data_functionalizedCrystal
_audit_creation_method	'MofGen! by Chris Wilmer'
_symmetry_space_group_name_H-M	'P1'
_symmetry_Int_Tables_number	1
_symmetry_cell_setting	triclinic
loop_
_symmetry_equiv_pos_as_xyz
  x,y,z
_cell_length_a	14.628931
_cell_length_b	14.560438
_cell_length_c	14.560438
_cell_angle_alpha	90.001043
_cell_angle_beta	60.000583
_cell_angle_gamma	60.000688
loop_
_atom_site_label
_atom_site_type_symbol
_atom_site_fract_x
_atom_site_fract_y
_atom_site_fract_z
Zr1	Zr	1.000593	0.884752	-0.120533
O2	O	1.191296	0.738104	-0.267179
O3	O	0.809888	0.929708	-0.075578
O4	O	1.000593	0.929705	-0.267180
O5	O	1.000591	0.738109	0.075563
O6	O	1.000596	1.080843	-0.267181
O7	O	1.000591	0.738107	-0.075577
O8	O	0.659459	1.080848	0.075561
O9	O	1.341727	0.738104	-0.267179
O10	O	0.888330	1.061674	-0.056406
O11	O	0.888329	0.948883	0.056388
O12	O	1.112859	0.948879	-0.169199
O13	O	1.112858	0.836088	-0.056405
Zr14	Zr	1.000598	1.125804	0.120515
Zr15	Zr	1.000597	1.125800	-0.120535
Zr16	Zr	1.000594	0.884756	0.120517
Zr17	Zr	1.240514	0.884753	-0.120533
Zr18	Zr	0.760676	1.125804	0.120515
O19	O	1.191302	1.080849	0.075560
O20	O	1.191301	1.080843	-0.267182
O21	O	1.191297	0.738109	0.075562
O22	O	0.809895	1.272452	0.267161
O23	O	0.809894	1.272447	-0.075580
O24	O	0.809889	0.929713	0.267164
O25	O	1.000600	1.272447	-0.075580
O26	O	1.000597	1.080851	0.267163
O27	O	1.000595	0.929713	0.267164
O28	O	1.000600	1.272450	0.075559
O29	O	1.341731	0.929705	-0.267181
O30	O	0.659460	1.080851	0.267163
O31	O	0.659463	1.272452	0.267162
O32	O	0.659463	1.272449	0.075559
O33	O	1.341728	0.738107	-0.075577
O34	O	1.341731	0.929708	-0.075578
O35	O	0.888331	1.061677	0.169181
O36	O	0.888333	1.174468	0.056387
O37	O	1.112862	1.061674	-0.056406
O38	O	1.112860	0.948883	0.056388
C39	C	0.700490	1.005278	-0.000008
C40	C	0.598637	1.005278	-0.000008
C41	C	1.000590	0.703764	-0.000007
C42	C	1.000589	0.601433	-0.000006
C43	C	1.000594	1.005274	-0.301525
C44	C	1.000594	1.005272	-0.403857
C45	C	0.553229	1.061230	-0.055962
C46	C	0.447958	1.061231	-0.055963
C47	C	1.300701	1.005279	-0.000009
C48	C	1.402554	1.005279	-0.000009
C49	C	0.883389	0.612232	0.058867
C50	C	0.883395	0.516077	0.058867
C51	C	1.117811	0.398327	-0.058886
C52	C	1.117803	0.494481	-0.058880
C53	C	1.000600	1.306793	-0.000011
C54	C	1.000602	1.409124	-0.000012
C55	C	1.000595	0.922016	-0.548095
C56	C	1.000589	0.922011	-0.451940
C57	C	1.000591	1.088549	-0.451927
C58	C	1.000588	1.088557	-0.548076
C59	C	1.000596	1.005283	0.301508
C60	C	1.000597	1.005284	0.403839
C61	C	0.700495	1.306792	-0.000011
C62	C	0.598644	1.409123	-0.000011
C63	C	0.700491	1.005282	0.301508
C64	C	0.598638	1.005284	0.403840
C65	C	0.700496	1.306797	0.301506
C66	C	0.598645	1.409129	0.403837
C67	C	1.300694	0.703760	-0.301524
C68	C	1.402545	0.601427	-0.403855
C69	C	1.300696	0.703764	-0.000007
C70	C	1.402547	0.601433	-0.000006
C71	C	1.300700	1.005274	-0.301526
C72	C	1.402552	1.005273	-0.403858
C73	C	0.550790	1.398324	-0.058886
C74	C	0.455098	1.494479	-0.058890
C75	C	0.455118	1.612229	0.058863
C76	C	0.550815	1.516075	0.058860
C77	C	0.550787	1.064161	0.510793
C78	C	0.455095	1.064150	0.606940
C79	C	0.455110	0.946382	0.489170
C80	C	0.550807	0.946388	0.393024
C81	C	0.550794	1.516081	0.393038
C82	C	0.455103	1.612230	0.489193
C83	C	0.455118	1.494461	0.606943
C84	C	0.550815	1.398315	0.510789
H85	H	0.592280	1.109137	-0.103861
F86	F	0.404204	1.482963	0.720773
H87	H	0.589779	1.311224	0.519590
F88	F	0.396927	1.123839	-0.118586
H89	H	0.416162	1.699319	0.106796
H90	H	0.441603	0.957368	0.047892
F91	F	1.242552	0.284497	-0.121542
F92	F	1.000600	0.833392	-0.599265
H93	H	0.559576	0.957379	0.047897
H94	H	0.787945	0.699313	0.106818
H95	H	0.589742	1.311243	-0.106834
F96	F	0.758655	0.527578	0.121533
H97	H	0.416142	1.485676	-0.106833
F98	F	1.000584	0.833388	-0.400787
F99	F	1.242550	0.482984	-0.121538
F100	F	0.404182	1.726056	0.477692
H101	H	0.589781	1.524877	0.106803
H102	H	1.000587	1.156346	-0.412768
F103	F	0.601702	1.527595	0.279214
H104	H	0.589733	1.112114	0.519605
F105	F	1.000582	1.177191	-0.599231
H106	H	0.416140	1.112092	0.694023
F107	F	0.404193	0.883707	0.477671
H108	H	0.589771	0.898437	0.305933
