data_functionalizedCrystal
_audit_creation_method	'MofGen! by Chris Wilmer'
_symmetry_space_group_name_H-M	'P1'
_symmetry_Int_Tables_number	1
_symmetry_cell_setting	triclinic
loop_
_symmetry_equiv_pos_as_xyz
  x,y,z
_cell_length_a	6.817900
_cell_length_b	19.551823
_cell_length_c	11.168152
_cell_angle_alpha	94.549172
_cell_angle_beta	108.508980
_cell_angle_gamma	101.663376
loop_
_atom_site_label
_atom_site_type_symbol
_atom_site_fract_x
_atom_site_fract_y
_atom_site_fract_z
V1	V	-4.075384	-0.096685	-0.394290
O2	O	-4.071124	0.004635	-0.386177
O3	O	-4.017767	-0.191701	-0.392177
O4	O	-4.052205	-0.095203	-0.565987
O5	O	-4.036447	-0.092530	-0.211164
V6	V	-4.556939	-0.084566	-0.372315
O7	O	-4.340961	-0.123271	-0.442492
O8	O	-4.741559	-0.057980	-0.324113
O9	O	-4.391349	0.010449	-0.374428
O10	O	-4.678596	-0.185886	-0.380429
O11	O	-4.713273	-0.088721	-0.555441
O12	O	-4.356911	-0.086048	-0.200619
C13	C	-3.859709	-0.214863	-0.386108
C14	C	-3.894055	-0.292539	-0.385525
C15	C	-3.903638	-0.091770	-0.607817
C16	C	-3.965909	-0.091187	-0.748184
C17	C	-4.092884	-0.332585	-0.391566
C18	C	-4.125162	-0.405571	-0.391032
C19	C	-3.958587	-0.438506	-0.384430
C20	C	-3.759734	-0.398452	-0.378396
C21	C	-3.727468	-0.325468	-0.378944
C22	C	-3.833597	-0.544992	-0.304361
C23	C	-3.865866	-0.617974	-0.303805
C24	C	-4.058102	-0.663612	-0.382747
C25	C	-4.218091	-0.636259	-0.462229
C26	C	-4.185825	-0.563276	-0.462776
C27	C	-3.993555	-0.517644	-0.383837
C28	C	-4.291944	-0.782798	-0.388210
C29	C	-4.324219	-0.855786	-0.387684
C30	C	-3.958779	-0.848664	-0.375035
C31	C	-3.926516	-0.775679	-0.375575
C32	C	-4.093104	-0.742750	-0.382157
C33	C	-3.820015	-0.087612	-0.804633
C34	C	-3.884372	-0.087009	-0.949710
C35	C	-4.212748	0.033608	-0.380494
C36	C	-4.157642	0.111284	-0.381085
C37	C	-4.168819	-0.089484	-0.158781
C38	C	-4.085787	-0.090063	-0.018413
H39	H	-4.228540	-0.305780	-0.396934
H40	H	-4.138462	-0.093804	-0.807261
C41	C	-4.254405	-0.094198	-0.952811
N42	N	-4.381404	-0.097312	-0.903391
C43	C	-4.343894	-0.449629	-0.397666
N44	N	-4.508641	-0.482811	-0.402659
H45	H	-4.374472	-0.673428	-0.526685
C46	C	-4.475193	-0.746574	-0.395454
N47	N	-4.613217	-0.719292	-0.400909
C48	C	-4.361791	-0.533191	-0.550225
N49	N	-4.494324	-0.510533	-0.616100
C50	C	-3.775544	-0.884889	-0.367778
N51	N	-3.637529	-0.912177	-0.362315
C52	C	-3.689909	-0.648052	-0.216335
N53	N	-3.557382	-0.670704	-0.150437
H54	H	-3.759570	-0.083944	-0.998277
H55	H	-3.764606	-0.743072	-0.370648
C56	C	-3.622117	-0.494795	-0.217509
N57	N	-3.462836	-0.456988	-0.152094
H58	H	-4.486137	-0.888392	-0.392611
H59	H	-3.624111	-0.425272	-0.373025
H60	H	-3.565556	-0.292863	-0.374026
C61	C	-3.586903	-0.084083	-0.724831
N62	N	-3.411318	-0.081425	-0.664725
