data_functionalizedCrystal
_audit_creation_method	'MofGen! by Chris Wilmer'
_symmetry_space_group_name_H-M	'P1'
_symmetry_Int_Tables_number	1
_symmetry_cell_setting	triclinic
loop_
_symmetry_equiv_pos_as_xyz
  x,y,z
_cell_length_a	18.215407
_cell_length_b	18.215405
_cell_length_c	12.759393
_cell_angle_alpha	90.035859
_cell_angle_beta	90.019945
_cell_angle_gamma	90.022329
loop_
_atom_site_label
_atom_site_type_symbol
_atom_site_fract_x
_atom_site_fract_y
_atom_site_fract_z
Zn1	Zn	1.125091	-0.293004	0.593962
Zn2	Zn	1.124993	-0.416086	0.418264
Zn3	Zn	1.002018	-0.293033	0.418299
Zn4	Zn	1.001989	-0.416027	0.593902
O5	O	1.063523	-0.354537	0.506107
O6	O	1.228062	-0.309343	0.570665
O7	O	1.108652	-0.399800	0.271247
O8	O	1.018396	-0.190044	0.441640
O9	O	1.227991	-0.399771	0.441581
O10	O	1.108817	-0.190023	0.570699
O11	O	1.018302	-0.309393	0.271273
O12	O	0.899030	-0.309336	0.441583
O13	O	1.018347	-0.399671	0.740931
O14	O	0.899009	-0.399699	0.570598
O15	O	1.108790	-0.309286	0.740975
O16	O	1.108624	-0.519063	0.441523
O17	O	1.018253	-0.519019	0.570564
C18	C	0.872316	-0.354515	0.506088
C19	C	0.790518	-0.354523	0.506105
C20	C	0.602360	-0.307534	0.573426
C21	C	0.525501	-0.307540	0.573429
C22	C	0.525438	-0.401562	0.438806
C23	C	0.602295	-0.401551	0.438798
C24	C	0.640754	-0.354538	0.506114
C25	C	0.487038	-0.354555	0.506125
C26	C	0.403704	-0.354562	0.506129
C27	C	0.724093	-0.354530	0.506109
C28	C	1.063445	-0.545744	0.506056
C29	C	1.063479	-0.627543	0.506070
C30	C	1.110646	-0.815735	0.439002
C31	C	1.110679	-0.892593	0.439027
C32	C	1.016494	-0.892588	0.573287
C33	C	1.016465	-0.815731	0.573266
C34	C	1.063540	-0.777306	0.506117
C35	C	1.063602	-0.931022	0.506164
C36	C	1.063637	-1.014356	0.506192
C37	C	1.063506	-0.693967	0.506091
C38	C	1.255476	-0.354561	0.506126
C39	C	1.337274	-0.354571	0.506134
C40	C	1.063576	-0.354469	0.780140
C41	C	1.063599	-0.354440	0.896917
C42	C	1.063621	-0.162584	0.506180
C43	C	1.063663	-0.080786	0.506212
C44	C	1.063512	-0.354553	0.233139
C45	C	1.063632	-0.354374	0.116363
C46	C	1.110664	-0.401460	1.061501
C47	C	1.110646	-0.401495	0.951777
C48	C	1.016562	-0.307352	0.951787
C49	C	1.016577	-0.307322	1.061509
H50	H	0.633556	-0.439829	0.383979
C51	C	0.965562	-0.256290	0.892038
C52	C	0.975630	-0.266378	0.784205
C53	C	0.928669	-0.219343	0.729136
H54	H	0.916081	-0.267001	0.909877
H55	H	0.976369	-0.206825	0.909981
H56	H	0.964817	-0.315832	0.766270
H57	H	1.025100	-0.255662	0.766336
H58	H	0.939477	-0.169877	0.747078
H59	H	0.879191	-0.230058	0.746982
H60	H	0.935498	-0.226176	0.655965
C61	C	0.965473	-0.934271	0.646357
C62	C	0.981462	-0.915520	0.750325
C63	C	0.934481	-0.953910	0.817665
H64	H	0.916001	-0.921753	0.631053
H65	H	0.972242	-0.985555	0.636826
H66	H	0.974687	-0.864248	0.759851
H67	H	1.030925	-0.928040	0.765662
H68	H	0.941250	-1.005194	0.808134
H69	H	0.885012	-0.941389	0.802351
H70	H	0.945328	-0.941198	0.888215
H71	H	0.978274	-0.268978	1.106179
H72	H	0.494244	-0.269263	0.628240
H73	H	1.148978	-0.439774	1.106160
C74	C	0.483640	-0.452699	0.365907
C75	C	0.439539	-0.499935	0.425284
C76	C	0.401034	-0.547061	0.358167
H77	H	0.453590	-0.424601	0.320184
H78	H	0.517492	-0.480735	0.325833
H79	H	0.405691	-0.471902	0.465340
H80	H	0.469571	-0.528049	0.471004
H81	H	0.434886	-0.575097	0.318094
H82	H	0.370988	-0.518957	0.312448
H83	H	0.371112	-0.579121	0.398445
H84	H	1.148944	-0.439836	0.907113
H85	H	1.148978	-0.784451	0.384326
C86	C	0.643983	-0.256409	0.646544
C87	C	0.593905	-0.215232	0.705474
C88	C	0.632219	-0.168120	0.772832
H89	H	0.673974	-0.284511	0.692341
H90	H	0.673947	-0.224267	0.606457
H91	H	0.563954	-0.247370	0.745558
H92	H	0.563913	-0.187115	0.659705
H93	H	0.662182	-0.135978	0.732745
H94	H	0.662208	-0.196228	0.818622
H95	H	0.598247	-0.140171	0.812816
H96	H	1.149038	-0.923878	0.384376
H97	H	0.978106	-0.784440	0.627925
