data_functionalizedCrystal
_audit_creation_method	'MofGen! by Chris Wilmer'
_symmetry_space_group_name_H-M	'P1'
_symmetry_Int_Tables_number	1
_symmetry_cell_setting	triclinic
loop_
_symmetry_equiv_pos_as_xyz
  x,y,z
_cell_length_a	17.699083
_cell_length_b	18.366186
_cell_length_c	19.288865
_cell_angle_alpha	90.012794
_cell_angle_beta	96.790535
_cell_angle_gamma	90.001636
loop_
_atom_site_label
_atom_site_type_symbol
_atom_site_fract_x
_atom_site_fract_y
_atom_site_fract_z
O1	O	-1.003946	0.060546	0.087837
O2	O	-0.783552	0.060551	0.099265
O3	O	-0.900117	0.060534	-0.007572
O4	O	-0.887381	0.060563	0.194674
O5	O	-0.900120	-0.060566	-0.007582
O6	O	-0.783555	-0.060548	0.099255
O7	O	-1.003949	-0.060554	0.087827
Zn8	Zn	-0.893752	-0.079778	0.093539
Zn9	Zn	-0.893749	0.079775	0.093553
O10	O	-0.887384	-0.060536	0.194664
C11	C	-0.755357	0.000002	0.098851
C12	C	-0.671340	0.000003	0.097623
N13	N	-0.893747	0.188667	0.093557
C14	C	-0.899709	-0.000018	-0.033454
C15	C	-0.898479	-0.000024	-0.110559
C16	C	-0.631875	-0.066009	0.097038
C17	C	-0.552935	-0.066010	0.095873
C18	C	-0.513460	0.000002	0.095297
C19	C	-0.552930	0.066020	0.095880
C20	C	-0.631870	0.066020	0.097040
C21	C	-0.234575	0.066021	0.091200
C22	C	-0.155629	0.066016	0.090042
C23	C	-0.155639	-0.066008	0.090033
C24	C	-0.234579	-0.066008	0.091193
C25	C	-0.274043	0.000009	0.091772
C26	C	-0.359640	0.000009	0.093034
C27	C	-0.427864	0.000003	0.094040
C28	C	-0.032145	-0.000002	0.088237
C29	C	-0.116163	0.000003	0.089452
N30	N	-0.893760	-0.188669	0.093529
C31	C	-0.945454	0.226759	0.046342
C32	C	-0.945460	0.302987	0.046340
C33	C	-0.893747	0.341119	0.093547
C34	C	-0.842036	0.303017	0.140772
C35	C	-0.842036	0.226791	0.140776
C36	C	-0.824785	0.461889	0.102611
C37	C	-0.824785	0.538114	0.102601
C38	C	-0.893747	0.576227	0.093537
C39	C	-0.962714	0.538106	0.084467
C40	C	-0.962714	0.461879	0.084472
C41	C	-0.893742	0.423774	0.093548
C42	C	-0.945466	0.696975	0.046318
C43	C	-0.945473	0.773204	0.046321
C44	C	-0.842043	0.773232	0.140749
C45	C	-0.842041	0.697005	0.140749
C46	C	-0.893752	0.658880	0.093529
C47	C	-0.966874	-0.000030	-0.155174
C48	C	-0.965718	-0.000018	-0.227623
C49	C	-0.896163	-0.000016	-0.255452
C50	C	-0.827759	-0.000007	-0.210827
C51	C	-0.828917	-0.000011	-0.138380
C52	C	-0.841486	-0.042433	-0.363808
C53	C	-0.840331	-0.042433	-0.436254
C54	C	-0.892590	0.000000	-0.478902
C55	C	-0.946016	0.042425	-0.449097
C56	C	-0.947174	0.042421	-0.376651
C57	C	-0.894900	-0.000011	-0.334008
C58	C	-0.959737	0.000009	-0.602075
C59	C	-0.958578	0.000025	-0.674525
C60	C	-0.820616	0.000029	-0.657727
C61	C	-0.821777	0.000020	-0.585280
C62	C	-0.891339	0.000007	-0.557458
C63	C	-0.887792	0.000017	0.220546
C64	C	-0.889022	0.000028	0.297651
H65	H	-0.520808	-0.119763	0.095386
H66	H	-1.014276	0.000025	-0.710851
O67	O	-1.037105	0.579199	0.074696
H68	H	-1.025522	0.638608	0.076226
H69	H	-0.990674	0.076966	-0.352387
O70	O	-0.786258	0.344151	0.191680
H71	H	-0.795601	0.329550	0.245849
H72	H	-0.123498	-0.119762	0.089559
O73	O	-0.277146	-0.137211	0.091823
H74	H	-0.320029	-0.140381	0.045033
O75	O	-1.001243	0.814291	-0.004612
H76	H	-1.037868	0.849023	0.024646
O77	O	-0.786279	0.185698	0.191716
H78	H	-0.750323	0.225016	0.224548
O79	O	-0.786274	0.655904	0.191670
H80	H	-0.817954	0.621192	0.225452
O81	O	-1.041898	-0.000024	-0.125165
H82	H	-1.089264	-0.000015	-0.168365
H83	H	-0.771127	-0.000003	-0.233491
O84	O	-0.113050	0.137217	0.089397
H85	H	-0.153756	0.183124	0.089981
O86	O	-0.755145	-0.000018	-0.090252
H87	H	-0.706582	-0.000020	-0.121771
H88	H	-0.520784	0.119768	0.095406
O89	O	-0.674450	-0.137208	0.097668
H90	H	-0.633743	-0.183110	0.097062
H91	H	-0.766082	0.000020	-0.548952
H92	H	-0.664002	0.119773	0.097517
O93	O	-0.750404	0.579230	0.112385
H94	H	-0.702451	0.539923	0.118704
O95	O	-0.277129	0.137224	0.091831
H96	H	-0.338654	0.126140	0.092726
H97	H	-1.021416	-0.000019	-0.263956
O98	O	-1.001246	0.655846	-0.004598
H99	H	-1.037213	0.695144	-0.037423
H100	H	-0.799939	0.804279	0.179189
O101	O	-1.037092	0.420759	0.074706
H102	H	-1.085050	0.460061	0.068408
H103	H	-0.988570	0.076979	-0.483821
O104	O	-1.001241	0.185638	-0.004570
H105	H	-1.037205	0.224938	-0.037395
H106	H	-0.763983	0.000034	-0.680385
H107	H	-0.987568	0.334008	0.007891
H108	H	-0.768624	0.430864	0.109996
H109	H	-1.016378	0.000001	-0.579422
O110	O	-0.782713	-0.088190	-0.468400
H111	H	-0.746559	-0.117687	-0.426574
O112	O	-0.785121	-0.088207	-0.317810
H113	H	-0.747787	-0.117716	-0.350705
