data_functionalizedCrystal
_audit_creation_method	'MofGen! by Chris Wilmer'
_symmetry_space_group_name_H-M	'P1'
_symmetry_Int_Tables_number	1
_symmetry_cell_setting	triclinic
loop_
_symmetry_equiv_pos_as_xyz
  x,y,z
_cell_length_a	10.540535
_cell_length_b	27.731996
_cell_length_c	9.016244
_cell_angle_alpha	89.991780
_cell_angle_beta	89.995024
_cell_angle_gamma	83.572515
loop_
_atom_site_label
_atom_site_type_symbol
_atom_site_fract_x
_atom_site_fract_y
_atom_site_fract_z
O1	O	1.682906	0.068103	-0.123281
O2	O	1.313210	0.074523	-0.123304
O3	O	1.509574	0.000987	-0.123260
O4	O	1.486541	0.141639	-0.123325
O5	O	1.509546	0.000989	0.123421
O6	O	1.313181	0.074525	0.123377
O7	O	1.682877	0.068105	0.123400
Cu8	Cu	1.498027	0.071315	0.145912
Cu9	Cu	1.498060	0.071313	-0.145816
O10	O	1.486513	0.141641	0.123356
C11	C	1.265914	0.074043	0.000034
C12	C	1.125029	0.072604	0.000027
C13	C	1.090716	0.018913	0.000058
C14	C	0.944182	0.017399	0.000633
C15	C	0.914600	0.097113	0.140626
C16	C	1.061315	0.098256	0.140729
C17	C	1.061197	0.099035	-0.139804
C18	C	0.914960	0.096552	-0.141636
C19	C	1.509087	-0.017023	0.000086
C20	C	1.507662	-0.070688	0.000101
C21	C	1.498711	-0.403461	-0.134438
C22	C	1.493299	-0.605154	-0.134464
O23	O	1.492558	-0.631230	-0.248823
N24	N	1.492611	-0.630374	0.000000
C25	C	1.493268	-0.605168	0.134481
O26	O	1.492546	-0.631247	0.248850
C27	C	1.498671	-0.403476	0.134505
C28	C	1.499372	-0.378259	0.000032
C29	C	1.499410	-0.378244	-0.268900
C30	C	1.500770	-0.327824	-0.268892
C31	C	1.501430	-0.302622	-0.134422
C32	C	1.500731	-0.327839	0.000040
C33	C	1.499319	-0.378271	0.268984
C34	C	1.500666	-0.327844	0.268979
C35	C	1.501367	-0.302627	0.134506
C36	C	1.502752	-0.252217	0.134518
N37	N	1.503440	-0.226997	0.000054
C38	C	1.502779	-0.252199	-0.134416
C39	C	1.490434	-0.711059	0.134458
C40	C	1.489086	-0.761482	0.134452
C41	C	1.489114	-0.761464	-0.134493
C42	C	1.490472	-0.711041	-0.134486
C43	C	1.491122	-0.685839	-0.000006
C44	C	1.505636	-0.146314	-0.134389
C45	C	1.507001	-0.095890	-0.134369
C46	C	1.506966	-0.095912	0.134575
C47	C	1.505607	-0.146332	0.134556
C48	C	1.504938	-0.171532	0.000062
O49	O	1.503479	-0.226109	0.248817
O50	O	1.503473	-0.226110	-0.248769
C51	C	1.497351	-0.453881	-0.134446
C52	C	1.496652	-0.479098	0.000016
C53	C	1.497313	-0.453896	0.134486
C54	C	1.495303	-0.529521	0.000011
C55	C	1.494643	-0.554724	-0.134460
C56	C	1.495330	-0.529503	-0.268924
C57	C	1.496690	-0.479083	-0.268916
C58	C	1.496625	-0.479117	0.268951
C59	C	1.495266	-0.529536	0.268932
C60	C	1.494606	-0.554739	0.134462
C61	C	1.730173	0.068585	0.000058
C62	C	1.871058	0.070024	0.000056
C63	C	1.487000	0.159650	0.000007
C64	C	1.488425	0.213316	-0.000018
N65	N	1.498012	0.071316	0.351098
N66	N	1.498085	0.071308	-0.351003
C67	C	1.392659	0.110521	0.586107
C68	C	1.392882	0.110668	0.414216
C69	C	1.630232	0.082788	0.413439
C70	C	1.629654	0.083066	0.585383
C71	C	1.472470	0.020510	0.585664
C72	C	1.469410	0.020839	0.413709
H73	H	0.915786	-0.003787	-0.100112
H74	H	1.653520	0.119430	0.370345
F75	F	1.414073	0.159932	0.360406
H76	H	1.497260	-0.458556	-0.378418
H77	H	0.887236	0.076838	-0.245632
F78	F	1.264360	0.101670	0.359124
F79	F	1.494634	-0.556335	-0.412037
F80	F	1.494529	-0.556369	0.412067
F81	F	1.263739	0.101632	0.640179
F82	F	1.089163	0.149700	0.148541
H83	H	1.102278	0.079962	0.246228
H84	H	1.133602	-0.001705	-0.100733
H85	H	0.865541	0.135860	0.145439
F86	F	1.413610	0.159504	0.642517
F87	F	0.875264	0.072823	0.277915
H88	H	1.104404	0.082281	-0.246389
H89	H	0.864226	0.134959	-0.150580
H90	H	1.135052	-0.001358	0.100734
H91	H	1.081647	0.138538	-0.141182
F92	F	1.507750	-0.069055	-0.277500
F93	F	1.497318	-0.452301	0.412081
H94	H	1.498867	-0.398758	-0.378408
H95	H	1.372153	0.012144	0.372966
H96	H	1.491040	-0.690512	-0.243986
H97	H	1.501335	-0.307297	-0.378394
F98	F	1.659358	0.131507	0.637767
H99	H	1.501177	-0.307327	0.378491
F100	F	1.735114	0.047148	0.639762
F101	F	1.735160	0.046476	0.360004
F102	F	1.488408	-0.788295	-0.277607
H103	H	1.378212	0.009591	0.629111
H104	H	1.541280	-0.009743	0.370751
F105	F	0.908178	-0.010147	0.133160
F106	F	1.504923	-0.173126	-0.277533
H107	H	1.488535	-0.782011	0.243954
H108	H	1.490970	-0.690545	0.243974
H109	H	1.498750	-0.398794	0.378487
F110	F	1.504885	-0.173172	0.277676
F111	F	1.507671	-0.069081	0.277681
H112	H	1.549363	-0.008676	0.626333
