data_functionalizedCrystal
_audit_creation_method	'MofGen! by Chris Wilmer'
_symmetry_space_group_name_H-M	'P1'
_symmetry_Int_Tables_number	1
_symmetry_cell_setting	triclinic
loop_
_symmetry_equiv_pos_as_xyz
  x,y,z
_cell_length_a	17.077403
_cell_length_b	18.215407
_cell_length_c	17.077396
_cell_angle_alpha	90.017722
_cell_angle_beta	90.017592
_cell_angle_gamma	89.995225
loop_
_atom_site_label
_atom_site_type_symbol
_atom_site_fract_x
_atom_site_fract_y
_atom_site_fract_z
Zn1	Zn	-0.312623	1.125195	0.443865
Zn2	Zn	0.187377	1.625195	0.943865
Zn3	Zn	-0.443898	1.125155	0.312624
Zn4	Zn	0.056102	1.625155	0.812624
Zn5	Zn	-0.312637	1.002128	0.312617
Zn6	Zn	0.187363	1.502128	0.812617
Zn7	Zn	-0.443838	1.002145	0.443851
Zn8	Zn	0.056162	1.502145	0.943851
O9	O	-0.378249	1.063656	0.378239
O10	O	0.121751	1.563656	0.878239
O11	O	-0.330056	1.228174	0.426464
O12	O	0.169944	1.728174	0.926464
O13	O	-0.426517	1.108812	0.202776
O14	O	0.073483	1.608812	0.702776
O15	O	-0.202789	1.018462	0.330030
O16	O	0.297211	1.518462	0.830030
O17	O	-0.426503	1.228145	0.330042
O18	O	0.073497	1.728145	0.830042
O19	O	-0.202778	1.108879	0.426457
O20	O	0.297222	1.608879	0.926457
O21	O	-0.330080	1.018424	0.202771
O22	O	0.169920	1.518424	0.702771
O23	O	-0.330023	0.899146	0.330017
O24	O	0.169977	1.399146	0.830017
O25	O	-0.426401	1.018492	0.553700
O26	O	0.073599	1.518492	1.053700
O27	O	-0.426415	0.899159	0.426434
O28	O	0.073585	1.399159	0.926434
O29	O	-0.329998	1.108896	0.553710
O30	O	0.170002	1.608896	1.053710
O31	O	-0.553737	1.108829	0.330029
O32	O	-0.053737	1.608829	0.830029
O33	O	-0.553693	1.018454	0.426441
O34	O	-0.053693	1.518454	0.926441
C35	C	-0.378215	0.872450	0.378224
C36	C	0.121785	1.372450	0.878224
C37	C	-0.378219	0.790651	0.378236
C38	C	0.121781	1.290651	0.878236
C39	C	-0.328126	0.525603	0.428526
C40	C	0.171874	1.025603	0.928526
C41	C	-0.328113	0.602461	0.428524
C42	C	0.171887	1.102461	0.928524
C43	C	-0.428398	0.602450	0.327969
C44	C	0.071602	1.102450	0.827969
C45	C	-0.428414	0.525593	0.327976
C46	C	0.071586	1.025593	0.827976
C47	C	-0.378273	0.487171	0.378254
C48	C	0.121727	0.987171	0.878254
C49	C	-0.378245	0.640887	0.378244
C50	C	0.121755	1.140887	0.878244
C51	C	-0.378231	0.724221	0.378241
C52	C	0.121769	1.224221	0.878241
C53	C	-0.378288	0.403832	0.378258
C54	C	0.121712	0.903832	0.878258
C55	C	-0.582197	1.063659	0.378251
C56	C	-0.082197	1.563659	0.878251
C57	C	-0.669447	1.063727	0.378283
C58	C	-0.169447	1.563727	0.878283
C59	C	-0.173505	1.063673	0.378244
C60	C	0.326495	1.563673	0.878244
C61	C	-0.086255	1.063680	0.378246
C62	C	0.413745	1.563680	0.878246
C63	C	-0.045269	1.016611	0.328045
C64	C	0.454731	1.516611	0.828045
C65	C	0.036711	1.016617	0.328054
C66	C	0.536711	1.516617	0.828054
C67	C	0.077704	1.063696	0.378263
C68	C	0.577704	1.563696	0.878263
C69	C	0.036713	1.110767	0.428470
C70	C	0.536713	1.610767	0.928470
C71	C	-0.045266	1.110757	0.428464
C72	C	0.454734	1.610757	0.928464
C73	C	0.207583	1.110785	0.428479
C74	C	0.707583	1.610785	0.928479
C75	C	0.289567	1.110796	0.428485
C76	C	0.789567	1.610796	0.928485
C77	C	0.289560	1.016645	0.328070
C78	C	0.789560	1.516645	0.828070
C79	C	0.207581	1.016635	0.328063
C80	C	0.707581	1.516635	0.828063
C81	C	0.166595	1.063708	0.378270
C82	C	0.666595	1.563708	0.878270
C83	C	-0.378191	1.063700	0.582984
C84	C	0.121809	1.563700	1.082984
C85	C	-0.378167	1.063719	0.670233
C86	C	0.121833	1.563719	1.170233
C87	C	-0.378284	1.255609	0.378255
C88	C	0.121716	1.755609	0.878255
C89	C	-0.378299	1.337408	0.378262
C90	C	0.121701	1.837408	0.878262
C91	C	-0.378250	1.063654	0.174291
C92	C	0.121750	1.563654	0.674291
C93	C	-0.378054	1.063777	0.087042
C94	C	0.121946	1.563777	0.587042
C95	C	-0.327965	1.110794	0.711230
C96	C	0.172035	1.610794	1.211230
C97	C	-0.327939	1.110803	0.793210
C98	C	0.172061	1.610803	1.293210
C99	C	-0.378119	1.063740	0.834193
C100	C	0.121881	1.563740	1.334193
C101	C	-0.428322	1.016660	0.793191
C102	C	0.071678	1.516660	1.293191
C103	C	-0.428344	1.016648	0.711212
C104	C	0.071656	1.516648	1.211212
C105	C	-0.428275	1.016690	0.964061
C106	C	0.071725	1.516690	1.464061
C107	C	-0.428255	1.016702	1.046045
C108	C	0.071745	1.516702	1.546045
C109	C	-0.327870	1.110845	1.046060
C110	C	0.172130	1.610845	1.546060
C111	C	-0.327892	1.110833	0.964081
C112	C	0.172108	1.610833	1.464081
C113	C	-0.378097	1.063753	0.923084
C114	C	0.121903	1.563753	1.423084
H115	H	-0.469254	0.494301	0.287038
H116	H	0.030746	0.994301	0.787038
Br117	Br	-0.100895	0.952721	0.259895
Br118	Br	0.399105	1.452721	0.759895
H119	H	-0.287279	0.633749	0.469462
H120	H	0.212721	1.133749	0.969462
H121	H	-0.469219	0.633743	0.287034
H122	H	0.030781	1.133743	0.787034
H123	H	0.070082	0.978289	0.287177
H124	H	0.570082	1.478289	0.787177
H125	H	0.174207	0.978304	0.287175
H126	H	0.674207	1.478304	0.787175
H127	H	-0.287298	0.494322	0.469465
H128	H	0.212702	0.994322	0.969465
H129	H	0.322936	0.978318	0.287190
H130	H	0.822936	1.478318	0.787190
Br131	Br	0.345201	1.174691	0.496623
Br132	Br	0.845201	1.674691	0.996623
Br133	Br	0.151959	1.174670	0.496617
Br134	Br	0.651959	1.674670	0.996617
H135	H	0.070094	1.149097	0.469355
H136	H	0.570094	1.649097	0.969355
H137	H	-0.287036	1.149160	0.930715
H138	H	0.212964	1.649160	1.430715
Br139	Br	-0.259738	1.174742	1.101696
Br140	Br	0.240262	1.674742	1.601696
Br141	Br	-0.496349	0.952823	1.101665
Br142	Br	0.003651	1.452823	1.601665
H143	H	-0.078636	1.149080	0.469349
H144	H	0.421364	1.649080	0.969349
H145	H	-0.287105	1.149121	0.677868
H146	H	0.212895	1.649121	1.177868
Br147	Br	-0.496420	0.952783	0.848809
Br148	Br	0.003580	1.452783	1.348809
Br149	Br	-0.496408	0.952793	0.908423
Br150	Br	0.003592	1.452793	1.408423
Br151	Br	-0.496472	0.952753	0.655572
Br152	Br	0.003528	1.452753	1.155572
Br153	Br	-0.259842	1.174728	0.848846
Br154	Br	0.240158	1.674728	1.348846
