data_functionalizedCrystal
_audit_creation_method	'MofGen! by Chris Wilmer'
_symmetry_space_group_name_H-M	'P1'
_symmetry_Int_Tables_number	1
_symmetry_cell_setting	triclinic
loop_
_symmetry_equiv_pos_as_xyz
  x,y,z
_cell_length_a	10.654550
_cell_length_b	14.044220
_cell_length_c	9.730223
_cell_angle_alpha	89.994583
_cell_angle_beta	89.999957
_cell_angle_gamma	88.836904
loop_
_atom_site_label
_atom_site_type_symbol
_atom_site_fract_x
_atom_site_fract_y
_atom_site_fract_z
O1	O	1.681228	0.133232	-0.114191
O2	O	2.181228	0.633232	0.385809
O3	O	1.317025	0.145925	-0.114216
O4	O	1.817025	0.645925	0.385784
O5	O	1.493659	0.001558	-0.114190
O6	O	1.993659	0.501558	0.385810
O7	O	1.504593	0.277599	-0.114217
O8	O	2.004593	0.777599	0.385783
O9	O	1.493647	0.001554	0.114390
O10	O	1.993647	0.501554	0.614390
O11	O	1.317012	0.145921	0.114364
O12	O	1.817012	0.645921	0.614364
O13	O	1.681215	0.133228	0.114389
O14	O	2.181215	0.633228	0.614389
Zn15	Zn	1.499111	0.139574	0.150668
Zn16	Zn	1.999111	0.639574	0.650668
Zn17	Zn	1.499128	0.139579	-0.150496
Zn18	Zn	1.999128	0.639579	0.349504
O19	O	1.504580	0.277595	0.114363
O20	O	2.004580	0.777595	0.614363
C21	C	1.270127	0.144991	0.000070
C22	C	1.770127	0.644991	0.500070
C23	C	1.130403	0.142202	0.000061
C24	C	1.630403	0.642202	0.500061
C25	C	1.059459	0.227204	0.000057
C26	C	1.559459	0.727204	0.500057
C27	C	0.928175	0.224578	0.000081
C28	C	1.428175	0.724578	0.500081
C29	C	0.938790	0.051942	0.000108
C30	C	1.438790	0.551942	0.500108
C31	C	1.070072	0.054569	0.000094
C32	C	1.570072	0.554569	0.500094
C33	C	1.488867	-0.033790	0.000100
C34	C	1.988867	0.466210	0.500100
C35	C	1.474592	-0.139110	0.000101
C36	C	1.974592	0.360890	0.500101
C37	C	1.448493	-0.331943	0.000079
C38	C	1.948493	0.168057	0.500079
C39	C	1.549741	-0.388910	0.000082
C40	C	2.049741	0.111090	0.500082
C41	C	1.535219	-0.496209	0.000070
C42	C	2.035219	0.003791	0.500070
C43	C	1.463013	-0.224634	0.000091
C44	C	1.963013	0.275366	0.500091
C45	C	1.728113	0.134162	0.000099
C46	C	2.228113	0.634162	0.500099
C47	C	1.867836	0.136950	0.000100
C48	C	2.367836	0.636950	0.500100
C49	C	1.509372	0.312943	0.000070
C50	C	2.009372	0.812943	0.500070
C51	C	1.523648	0.418262	0.000060
C52	C	2.023648	0.918262	0.500060
N53	N	1.499109	0.139570	0.356205
N54	N	1.999109	0.639570	0.856205
N55	N	1.499140	0.139576	-0.356032
N56	N	1.999140	0.639576	0.143968
C57	C	1.577355	0.075671	0.428142
C58	C	2.077355	0.575671	0.928142
C59	C	1.577367	0.075671	0.572025
C60	C	2.077367	0.575671	1.072025
C61	C	1.420885	0.203477	0.572021
C62	C	1.920885	0.703477	1.072021
C63	C	1.420867	0.203471	0.428140
C64	C	1.920867	0.703471	0.928140
H65	H	1.108577	0.298560	0.000041
H66	H	1.608577	0.798560	0.500041
C67	C	1.663404	0.005374	0.349017
C68	C	2.163404	0.505374	0.849017
H69	H	1.709997	-0.032688	0.412473
H70	H	2.209997	0.467312	0.912473
H71	H	1.719534	0.039858	0.292871
H72	H	2.219534	0.539858	0.792871
H73	H	1.613758	-0.034436	0.292910
H74	H	2.113758	0.465564	0.792910
H75	H	1.647328	-0.357098	-0.000004
H76	H	2.147328	0.142902	0.499996
C77	C	1.316670	-0.374913	0.000081
C78	C	1.816670	0.125087	0.500081
H79	H	1.324082	-0.442439	0.000089
H80	H	1.824082	0.057561	0.500089
H81	H	1.272295	-0.354407	-0.079624
H82	H	1.772295	0.145593	0.420376
H83	H	1.272313	-0.354420	0.079808
H84	H	1.772313	0.145580	0.579808
C85	C	0.850142	0.318079	0.000067
C86	C	1.350142	0.818079	0.500067
H87	H	0.904879	0.370643	0.000035
H88	H	1.404879	0.870643	0.500035
H89	H	0.798715	0.320650	0.079782
H90	H	1.298715	0.820650	0.579782
H91	H	0.798702	0.320638	-0.079649
H92	H	1.298702	0.820638	0.420351
H93	H	1.641080	0.023638	0.630593
H94	H	2.141080	0.523638	1.130593
H95	H	0.889652	-0.019406	0.000143
H96	H	1.389652	0.480594	0.500143
H97	H	1.127837	-0.014653	0.000101
H98	H	1.627837	0.485347	0.500101
H99	H	1.357184	0.255506	0.630605
H100	H	1.857184	0.755506	1.130605
H101	H	1.357144	0.255506	0.369565
H102	H	1.857144	0.755506	0.869565
