data_functionalizedCrystal
_audit_creation_method	'MofGen! by Chris Wilmer'
_symmetry_space_group_name_H-M	'P1'
_symmetry_Int_Tables_number	1
_symmetry_cell_setting	triclinic
loop_
_symmetry_equiv_pos_as_xyz
  x,y,z
_cell_length_a	19.805407
_cell_length_b	13.897448
_cell_length_c	19.805399
_cell_angle_alpha	89.974981
_cell_angle_beta	89.975799
_cell_angle_gamma	90.016939
loop_
_atom_site_label
_atom_site_type_symbol
_atom_site_fract_x
_atom_site_fract_y
_atom_site_fract_z
Zn1	Zn	1.034777	-0.384057	-0.382815
Zn2	Zn	1.034709	-0.545363	-0.269632
Zn3	Zn	0.921591	-0.384081	-0.269631
Zn4	Zn	0.921572	-0.545309	-0.382770
O5	O	0.978162	-0.464702	-0.326212
O6	O	1.129484	-0.405466	-0.367821
O7	O	1.019683	-0.524001	-0.174915
O8	O	0.936642	-0.249096	-0.284663
O9	O	1.129434	-0.523977	-0.284666
O10	O	1.019799	-0.249078	-0.367820
O11	O	0.936576	-0.405508	-0.174914
O12	O	0.826872	-0.405456	-0.284619
O13	O	0.936609	-0.523886	-0.477492
O14	O	0.826858	-0.523910	-0.367742
O15	O	1.019780	-0.405414	-0.477526
O16	O	1.019664	-0.680337	-0.284622
O17	O	0.936543	-0.680298	-0.367743
C18	C	0.802306	-0.464681	-0.326176
C19	C	0.727074	-0.464695	-0.326176
C20	C	0.265294	-0.526497	-0.369469
C21	C	0.335982	-0.526495	-0.369455
C22	C	0.371313	-0.464726	-0.326238
C23	C	0.335951	-0.402960	-0.283028
C24	C	0.265264	-0.402967	-0.283040
C25	C	0.621024	-0.402931	-0.282981
C26	C	0.691716	-0.402926	-0.282974
C27	C	0.691742	-0.526459	-0.369396
C28	C	0.621055	-0.526466	-0.369407
C29	C	0.585700	-0.464705	-0.326195
C30	C	0.509051	-0.464708	-0.326210
C31	C	0.447960	-0.464716	-0.326226
C32	C	0.978113	-0.715317	-0.326192
C33	C	0.978154	-0.822531	-0.326207
C34	C	0.978225	-1.018826	-0.326249
C35	C	0.978183	-0.909593	-0.326228
C36	C	1.154705	-0.464725	-0.326249
C37	C	1.229937	-0.464734	-0.326264
C38	C	0.978200	-0.464642	-0.502755
C39	C	0.978216	-0.464616	-0.577987
C40	C	0.978230	-0.213109	-0.326246
C41	C	0.978259	-0.105895	-0.326261
C42	C	1.021524	-0.402924	-0.613349
C43	C	1.021531	-0.402896	-0.684038
C44	C	0.978233	-0.464565	-0.719362
C45	C	0.934920	-0.526259	-0.683995
C46	C	0.934910	-0.526282	-0.613308
C47	C	0.934959	-0.526169	-0.969068
C48	C	0.934973	-0.526144	-1.039760
C49	C	1.021579	-0.402784	-1.039799
C50	C	1.021570	-0.402807	-0.969111
C51	C	0.978255	-0.464496	-0.933750
C52	C	0.978247	-0.464525	-0.857101
C53	C	0.978244	-0.464543	-0.796010
C54	C	0.978163	-0.464693	-0.150356
C55	C	0.978278	-0.464447	-0.075124
H56	H	0.236477	-0.352671	-0.247860
H57	H	0.899664	-0.576468	-0.712762
H58	H	1.056846	-0.352550	-1.068598
H59	H	0.899712	-0.576364	-1.068520
H60	H	0.899699	-0.576415	-0.940285
N61	N	0.890663	-0.589298	-0.577194
N62	N	0.852005	-0.644353	-0.608739
H63	H	0.820751	-0.688857	-0.583235
N64	N	0.584969	-0.589582	-0.413540
N65	N	0.545506	-0.651008	-0.389650
H66	H	0.520021	-0.695590	-0.420817
N67	N	0.229218	-0.589594	-0.413624
N68	N	0.260798	-0.644735	-0.452196
H69	H	0.235322	-0.689301	-0.483382
H70	H	0.592246	-0.352645	-0.247792
H71	H	0.364723	-0.352670	-0.247838
N72	N	0.727796	-0.339816	-0.238825
N73	N	0.696222	-0.284676	-0.200248
H74	H	0.721703	-0.240104	-0.169070
N75	N	0.372087	-0.589594	-0.413590
N76	N	0.340534	-0.644737	-0.452175
H77	H	0.366033	-0.689305	-0.483348
H78	H	1.056785	-0.352709	-0.584593
N79	N	0.727869	-0.589558	-0.413523
N80	N	0.767287	-0.650979	-0.389627
H81	H	0.792802	-0.695540	-0.420791
N82	N	1.065774	-0.339874	-0.720149
N83	N	1.104433	-0.284823	-0.688602
H84	H	1.135682	-0.240310	-0.714105
N85	N	1.065807	-0.339814	-0.933040
N86	N	1.104472	-0.284735	-0.964622
H87	H	1.135715	-0.240243	-0.939148
