data_functionalizedCrystal
_audit_creation_method	'MofGen! by Chris Wilmer'
_symmetry_space_group_name_H-M	'P1'
_symmetry_Int_Tables_number	1
_symmetry_cell_setting	triclinic
loop_
_symmetry_equiv_pos_as_xyz
  x,y,z
_cell_length_a	14.908742
_cell_length_b	18.101395
_cell_length_c	14.908308
_cell_angle_alpha	93.266316
_cell_angle_beta	96.760659
_cell_angle_gamma	86.737639
loop_
_atom_site_label
_atom_site_type_symbol
_atom_site_fract_x
_atom_site_fract_y
_atom_site_fract_z
Zn1	Zn	1.354140	-0.379376	-0.431778
Zn2	Zn	1.854140	0.120624	0.068222
Zn3	Zn	1.362750	-0.496467	-0.280425
Zn4	Zn	1.862750	0.003533	0.219575
Zn5	Zn	1.211517	-0.365899	-0.289185
Zn6	Zn	1.711517	0.134101	0.210815
Zn7	Zn	1.202723	-0.496425	-0.440488
Zn8	Zn	1.702723	0.003575	0.059512
O9	O	1.282783	-0.434542	-0.360469
O10	O	1.782783	0.065458	0.139531
O11	O	1.481942	-0.400567	-0.404389
O12	O	1.981942	0.099433	0.095611
O13	O	1.349973	-0.473524	-0.154924
O14	O	1.849973	0.026476	0.345076
O15	O	1.230514	-0.264059	-0.308120
O16	O	1.730514	0.235941	0.191880
O17	O	1.488268	-0.486592	-0.293191
O18	O	1.988268	0.013408	0.206809
O19	O	1.335298	-0.273960	-0.412883
O20	O	1.835298	0.226040	0.087117
O21	O	1.238863	-0.377596	-0.161360
O22	O	1.738863	0.122404	0.338640
O23	O	1.083691	-0.377556	-0.316567
O24	O	1.583691	0.122444	0.183433
O25	O	1.215524	-0.486521	-0.565996
O26	O	1.715524	0.013479	-0.065996
O27	O	1.077229	-0.473453	-0.427729
O28	O	1.577229	0.026547	0.072271
O29	O	1.326770	-0.400526	-0.559596
O30	O	1.826770	0.099474	-0.059596
O31	O	1.341445	-0.600090	-0.301637
O32	O	1.841445	-0.100090	0.198363
O33	O	1.223874	-0.600059	-0.419235
O34	O	1.723874	-0.100059	0.080765
C35	C	1.047619	-0.424038	-0.374044
C36	C	1.547619	0.075962	0.125956
C37	C	0.947013	-0.419563	-0.379873
C38	C	1.447013	0.080437	0.120127
C39	C	0.801912	-0.368555	-0.446067
C40	C	1.301912	0.131445	0.053933
C41	C	0.896439	-0.372753	-0.440595
C42	C	1.396439	0.127247	0.059405
C43	C	0.903053	-0.462180	-0.324622
C44	C	1.403053	0.037820	0.175378
C45	C	0.808525	-0.457981	-0.330094
C46	C	1.308525	0.042019	0.169906
C47	C	0.757958	-0.411166	-0.390818
C48	C	1.257958	0.088834	0.109182
C49	C	0.663429	-0.406965	-0.396285
C50	C	1.163429	0.093035	0.103715
C51	C	0.670044	-0.496395	-0.280317
C52	C	1.170044	0.003605	0.219683
C53	C	0.764572	-0.500593	-0.274845
C54	C	1.264572	-0.000593	0.225155
C55	C	1.282663	-0.626946	-0.360449
C56	C	1.782663	-0.126946	0.139551
C57	C	1.282693	-0.709262	-0.360466
C58	C	1.782693	-0.209262	0.139534
C59	C	1.282889	-1.008364	-0.360504
C60	C	1.782889	-0.508364	0.139496
C61	C	1.209068	-0.977065	-0.434657
C62	C	1.709068	-0.477065	0.065343
C63	C	1.208749	-0.891423	-0.434457
C64	C	1.708749	-0.391423	0.065543
C65	C	1.282792	-0.859976	-0.360486
C66	C	1.782792	-0.359976	0.139514
C67	C	1.262474	-0.885720	-0.266584
C68	C	1.762474	-0.385720	0.233416
C69	C	1.262000	-0.971364	-0.267030
C70	C	1.762000	-0.471364	0.232970
C71	C	1.377228	-0.982069	-0.379403
C72	C	1.877228	-0.482069	0.120597
C73	C	1.376544	-0.896486	-0.381528
C74	C	1.876544	-0.396486	0.118472
C75	C	1.282738	-0.776114	-0.360470
C76	C	1.782738	-0.276114	0.139530
C77	C	1.282940	-1.092226	-0.360513
C78	C	1.782940	-0.592226	0.139487
C79	C	1.518865	-0.445087	-0.346841
C80	C	2.018865	0.054913	0.153159
C81	C	1.619469	-0.449581	-0.341034
C82	C	2.119469	0.050419	0.158966
C83	C	1.269206	-0.445022	-0.596556
C84	C	1.769206	0.054978	-0.096556
C85	C	1.263420	-0.449488	-0.697162
C86	C	1.763420	0.050512	-0.197162
C87	C	1.282926	-0.241389	-0.360507
C88	C	1.782926	0.258611	0.139493
C89	C	1.282987	-0.159078	-0.360523
C90	C	1.782987	0.340922	0.139477
C91	C	1.368385	-0.368317	-0.879550
C92	C	1.868385	0.131683	-0.379550
C93	C	1.362952	-0.372511	-0.974078
C94	C	1.862952	0.127489	-0.474078
C95	C	1.247116	-0.462066	-0.980750
C96	C	1.747116	0.037934	-0.480750
C97	C	1.252549	-0.457872	-0.886221
C98	C	1.752549	0.042128	-0.386221
C99	C	1.313187	-0.410997	-0.835625
C100	C	1.813187	0.089003	-0.335625
C101	C	1.318624	-0.406807	-0.741094
C102	C	1.818624	0.093193	-0.241094
C103	C	1.202784	-0.496358	-0.747767
C104	C	1.702784	0.003642	-0.247767
C105	C	1.197351	-0.500552	-0.842296
C106	C	1.697351	-0.000552	-0.342296
C107	C	1.296359	-0.424051	-0.125297
C108	C	1.796359	0.075949	0.374703
C109	C	1.302320	-0.419384	-0.024681
C110	C	1.802320	0.080616	0.475319
H111	H	0.634247	-0.531094	-0.235331
H112	H	1.134247	-0.031094	0.264669
H113	H	1.197747	-0.500229	-1.021961
H114	H	1.697747	-0.000229	-0.521961
Cl115	Cl	1.157431	-0.846490	-0.240234
Cl116	Cl	1.657431	-0.346490	0.259766
H117	H	1.220822	-0.874235	-0.504257
H118	H	1.720822	-0.374235	-0.004257
H119	H	0.760740	-0.330429	-0.495502
H120	H	1.260740	0.169571	0.004498
H121	H	0.932223	-0.338054	-0.485585
H122	H	1.432223	0.161946	0.014415
H123	H	1.434012	-0.875402	-0.331014
H124	H	1.934012	-0.375402	0.168986
H125	H	1.396825	-1.007717	-0.446418
H126	H	1.896825	-0.507717	0.053582
Cl127	Cl	1.432346	-0.318852	-1.029296
Cl128	Cl	1.932346	0.181148	-0.529296
H129	H	1.147980	-0.538715	-0.883504
H130	H	1.647980	-0.038715	-0.383504
Cl131	Cl	0.966638	-0.521035	-0.248299
Cl132	Cl	1.466638	-0.021035	0.251701
Cl133	Cl	1.133398	-0.550024	-0.692541
Cl134	Cl	1.633398	-0.050024	-0.192541
H135	H	0.622259	-0.368842	-0.445726
H136	H	1.122259	0.131158	0.054274
H137	H	0.805756	-0.538710	-0.225408
H138	H	1.305756	-0.038710	0.274592
H139	H	1.139450	-0.994793	-0.422754
H140	H	1.639450	-0.494793	0.077246
Cl141	Cl	1.227433	-1.014781	-0.542796
Cl142	Cl	1.727433	-0.514781	-0.042796
Cl143	Cl	1.100615	-0.853884	-0.415807
Cl144	Cl	1.600615	-0.353884	0.084193
Cl145	Cl	1.400358	-0.871224	-0.488181
Cl146	Cl	1.900358	-0.371224	0.011819
Cl147	Cl	1.155783	-0.996067	-0.241321
Cl148	Cl	1.655783	-0.496067	0.258679
Cl149	Cl	1.341862	-1.002980	-0.179273
Cl150	Cl	1.841862	-0.502980	0.320727
Cl151	Cl	1.462042	-1.013411	-0.295929
Cl152	Cl	1.962042	-0.513411	0.204071
Cl153	Cl	1.343248	-0.853965	-0.179326
Cl154	Cl	1.843248	-0.353965	0.320674
Cl155	Cl	1.444622	-0.309398	-0.815939
Cl156	Cl	1.944622	0.190602	-0.315939
Cl157	Cl	1.394855	-0.347881	-0.677488
Cl158	Cl	1.894855	0.152119	-0.177488
