data_functionalizedCrystal
_audit_creation_method	'MofGen! by Chris Wilmer'
_symmetry_space_group_name_H-M	'P1'
_symmetry_Int_Tables_number	1
_symmetry_cell_setting	triclinic
loop_
_symmetry_equiv_pos_as_xyz
  x,y,z
_cell_length_a	10.654550
_cell_length_b	10.489716
_cell_length_c	9.730223
_cell_angle_alpha	90.002678
_cell_angle_beta	89.996251
_cell_angle_gamma	84.507019
loop_
_atom_site_label
_atom_site_type_symbol
_atom_site_fract_x
_atom_site_fract_y
_atom_site_fract_z
O1	O	1.667902	0.179158	-0.114390
O2	O	1.302430	0.196228	-0.114366
O3	O	1.493499	0.002089	-0.114383
O4	O	1.476834	0.373297	-0.114372
O5	O	1.493496	0.002094	0.114197
O6	O	1.302428	0.196233	0.114214
O7	O	1.667900	0.179163	0.114190
Zn8	Zn	1.485164	0.187699	0.150494
Zn9	Zn	1.485167	0.187692	-0.150670
O10	O	1.476832	0.373302	0.114208
C11	C	1.255631	0.194977	-0.000073
C12	C	1.116186	0.191227	-0.000065
C13	C	1.492245	-0.045440	-0.000097
C14	C	1.488499	-0.187069	-0.000110
C15	C	1.036744	0.305533	-0.000082
C16	C	0.905722	0.302002	-0.000106
C17	C	0.933597	0.069849	-0.000102
C18	C	1.064616	0.073382	-0.000068
C19	C	1.088314	0.423378	-0.000079
C20	C	1.008871	0.537694	-0.000097
C21	C	0.877848	0.534163	-0.000121
C22	C	0.826270	0.416316	-0.000126
C23	C	1.605668	-0.284800	-0.000105
C24	C	1.543755	-0.362133	-0.112799
C25	C	1.543725	-0.362092	0.112563
C26	C	1.426635	-0.262537	-0.112897
C27	C	1.426623	-0.262491	0.112566
C28	C	1.364623	-0.339775	-0.000156
C29	C	1.714700	0.180414	-0.000105
C30	C	1.854144	0.184164	-0.000123
C31	C	1.478085	0.420831	-0.000081
C32	C	1.481831	0.562460	-0.000078
N33	N	1.485171	0.187702	0.356030
N34	N	1.485169	0.187679	-0.356206
C35	C	1.569798	0.101767	0.427949
C36	C	1.569795	0.101752	0.571832
C37	C	1.400533	0.273618	0.571865
C38	C	1.400532	0.273626	0.427985
C39	C	1.654437	0.015843	0.355994
C40	C	1.739072	-0.070098	0.427913
C41	C	1.739069	-0.070113	0.571796
C42	C	1.654431	0.015812	0.643760
H43	H	1.050875	0.633640	-0.000081
H44	H	1.807973	-0.140098	0.630351
H45	H	0.891590	-0.026096	-0.000129
H46	H	1.194997	0.426267	-0.000066
O47	O	0.792157	0.657449	-0.000133
H48	H	0.850034	0.739982	-0.000134
H49	H	1.262629	-0.364156	-0.000210
O50	O	1.309275	0.366305	0.649491
H51	H	1.326172	0.465895	0.621872
H52	H	1.129301	-0.019696	-0.000058
O53	O	1.609266	-0.419812	-0.239001
H54	H	1.709240	-0.398238	-0.238776
O55	O	0.684952	0.412500	-0.000150
H56	H	0.638372	0.511783	-0.000164
H57	H	1.654427	0.015784	0.760920
H58	H	1.654450	0.015851	0.238838
H59	H	1.331619	0.343601	0.369428
O60	O	1.740657	-0.252146	-0.000261
H61	H	1.789015	-0.292229	-0.093965
O62	O	1.361167	-0.205167	-0.239255
H63	H	1.364545	-0.099742	-0.238304
H64	H	1.807975	-0.140063	0.369312
H65	H	1.377203	-0.218947	0.207853
O66	O	1.609255	-0.419691	0.238778
H67	H	1.709218	-0.398082	0.238523
