data_functionalizedCrystal
_audit_creation_method	'MofGen! by Chris Wilmer'
_symmetry_space_group_name_H-M	'P1'
_symmetry_Int_Tables_number	1
_symmetry_cell_setting	triclinic
loop_
_symmetry_equiv_pos_as_xyz
  x,y,z
_cell_length_a	11.892283
_cell_length_b	12.811438
_cell_length_c	12.811415
_cell_angle_alpha	83.527069
_cell_angle_beta	80.670937
_cell_angle_gamma	88.493477
loop_
_atom_site_label
_atom_site_type_symbol
_atom_site_fract_x
_atom_site_fract_y
_atom_site_fract_z
O1	O	-0.251310	1.375433	0.159226
O2	O	-0.221571	1.072029	0.172486
O3	O	-0.221564	1.232474	0.012041
O4	O	-0.251317	1.214988	0.319672
O5	O	-0.033561	1.245824	-0.001315
O6	O	-0.033567	1.085378	0.159130
O7	O	-0.063307	1.388782	0.145870
Zn8	Zn	-0.018587	1.239200	0.150380
Zn9	Zn	-0.266290	1.221612	0.167977
O10	O	-0.063313	1.228337	0.306316
C11	C	-0.123472	1.039887	0.164656
C12	C	-0.111264	0.924225	0.161209
C13	C	-0.123466	1.238578	-0.034036
C14	C	-0.111260	1.236866	-0.151433
N15	N	0.150463	1.251211	0.138369
N16	N	-0.435340	1.209609	0.179978
C17	C	0.327963	1.334901	0.054746
C18	C	0.209626	1.326482	0.063149
C19	C	0.209644	1.184357	0.205193
C20	C	0.327982	1.192776	0.196790
C21	C	0.387137	1.268049	0.121563
C22	C	0.505478	1.276463	0.113155
C23	C	0.505493	1.134344	0.255203
C24	C	0.387156	1.125925	0.263606
C25	C	0.008418	0.768482	0.149071
C26	C	-0.003048	0.877157	0.152310
C27	C	-0.208021	0.862611	0.166872
C28	C	-0.196555	0.753936	0.163633
C29	C	-0.088332	0.706876	0.154731
C30	C	-0.076866	0.598200	0.151485
C31	C	-0.281839	0.583655	0.166054
C32	C	-0.293305	0.692330	0.169293
C33	C	-0.161408	1.420924	0.153701
C34	C	-0.173624	1.536586	0.157148
C35	C	-0.293306	1.219075	-0.357459
C36	C	-0.281842	1.217465	-0.467763
C37	C	-0.076869	1.232031	-0.482346
C38	C	-0.088333	1.233640	-0.372042
C39	C	-0.196555	1.227163	-0.309602
C40	C	-0.208018	1.228780	-0.199297
C41	C	-0.003046	1.243338	-0.213881
C42	C	0.008418	1.241729	-0.324185
C43	C	-0.161414	1.222233	0.352393
C44	C	-0.173628	1.223945	0.469790
H45	H	0.553642	1.337751	0.051899
H46	H	-0.381417	0.730661	0.176546
H47	H	-0.296138	1.223509	-0.148461
H48	H	0.161463	1.123078	0.266448
H49	H	-0.296132	0.900945	0.174130
H50	H	0.096529	1.246998	-0.375037
N51	N	0.388381	1.411779	-0.022110
N52	N	0.335534	1.471455	-0.081771
H53	H	0.378202	1.525751	-0.136054
H54	H	-0.381425	1.213810	-0.306621
H55	H	0.338978	1.064641	0.324857
H56	H	0.161449	1.380920	0.008742
N57	N	0.033683	0.550142	0.142406
N58	N	0.094396	0.557332	0.212266
H59	H	0.172476	0.523395	0.205858
N60	N	0.118965	0.720420	0.139982
N61	N	0.179693	0.727607	0.209832
H62	H	0.257771	0.693666	0.203413
H63	H	0.075736	1.249928	-0.174905
N64	N	0.565919	1.066054	0.323480
N65	N	0.513082	0.998858	0.390642
H66	H	0.555757	0.950628	0.438861
H67	H	-0.360627	1.210875	-0.506723
N68	N	0.095789	0.940069	0.146543
N69	N	0.192404	0.898031	0.138605
H70	H	0.262213	0.942462	0.134537
H71	H	-0.360620	0.533483	0.170667
H72	H	0.011240	1.237295	-0.533202
