data_functionalizedCrystal
_audit_creation_method	'MofGen! by Chris Wilmer'
_symmetry_space_group_name_H-M	'P1'
_symmetry_Int_Tables_number	1
_symmetry_cell_setting	triclinic
loop_
_symmetry_equiv_pos_as_xyz
  x,y,z
_cell_length_a	31.640172
_cell_length_b	31.640172
_cell_length_c	14.809384
_cell_angle_alpha	112.581574
_cell_angle_beta	90.008913
_cell_angle_gamma	59.990533
loop_
_atom_site_label
_atom_site_type_symbol
_atom_site_fract_x
_atom_site_fract_y
_atom_site_fract_z
Zr1	Zr	0.412736	0.451471	0.108176
O2	O	0.352008	0.526131	0.239519
O3	O	0.431354	0.367436	0.067892
O4	O	0.440190	0.437938	0.239509
O5	O	0.336200	0.469574	-0.067448
O6	O	0.509748	0.437927	0.239524
O7	O	0.343172	0.455629	0.067903
O8	O	0.493942	0.311812	-0.067467
O9	O	0.352006	0.595689	0.239542
O10	O	0.491203	0.405465	0.050748
O11	O	0.434090	0.415880	-0.050274
O12	O	0.444493	0.498887	0.151782
O13	O	0.387380	0.509301	0.050760
Zr14	Zr	0.512554	0.473694	-0.107669
Zr15	Zr	0.523673	0.451454	0.108200
Zr16	Zr	0.401617	0.473711	-0.107692
Zr17	Zr	0.412733	0.562408	0.108213
Zr18	Zr	0.512557	0.362757	-0.107706
O19	O	0.493936	0.557729	-0.067385
O20	O	0.509746	0.526107	0.239553
O21	O	0.336198	0.557753	-0.067419
O22	O	0.573282	0.399034	-0.239011
O23	O	0.589092	0.367411	0.067926
O24	O	0.415544	0.399058	-0.239045
O25	O	0.589090	0.455591	0.067956
O26	O	0.485100	0.487227	-0.239001
O27	O	0.415542	0.487238	-0.239016
O28	O	0.582118	0.469536	-0.067395
O29	O	0.440186	0.595675	0.239561
O30	O	0.485104	0.329490	-0.239054
O31	O	0.573284	0.329476	-0.239035
O32	O	0.582122	0.311798	-0.067448
O33	O	0.343168	0.613367	0.067955
O34	O	0.431348	0.613353	0.067974
O35	O	0.480797	0.426278	-0.151274
O36	O	0.537910	0.415864	-0.050252
O37	O	0.491200	0.509285	0.050782
O38	O	0.434087	0.519700	-0.050240
C39	C	0.323880	0.462604	0.000224
C40	C	0.276784	0.462611	0.000214
C41	C	0.462648	0.323818	0.000208
C42	C	0.462650	0.276722	0.000192
C43	C	-0.063329	0.470254	-0.074330
C44	C	0.113652	0.470273	-0.074345
O45	O	0.133276	0.476787	-0.137785
N46	N	0.139627	0.462593	0.000221
C47	C	0.121356	0.454905	0.074792
O48	O	0.147513	0.448367	0.138209
C49	C	-0.055622	0.454882	0.074803
C50	C	-0.081598	0.462568	0.000238
C51	C	-0.089304	0.477939	-0.148889
C52	C	-0.133548	0.477937	-0.148882
C53	C	-0.151817	0.470251	-0.074314
C54	C	-0.125842	0.462566	0.000245
C55	C	-0.073891	0.447190	0.149369
C56	C	-0.118138	0.447184	0.149364
C57	C	-0.144113	0.454869	0.074799
C58	C	-0.188355	0.454878	0.074821
N59	N	-0.214330	0.462558	0.000255
C60	C	-0.196061	0.470244	-0.074313
C61	C	0.214271	0.454918	0.074783
C62	C	0.258515	0.454925	0.074781
C63	C	0.250808	0.470292	-0.074358
C64	C	0.206562	0.470289	-0.074351
C65	C	0.188296	0.462598	0.000217
C66	C	-0.288976	0.470240	-0.074290
C67	C	-0.333225	0.470240	-0.074273
C68	C	-0.325513	0.454870	0.074862
C69	C	-0.281270	0.454873	0.074849
C70	C	-0.263002	0.462557	0.000264
O71	O	-0.208005	0.448361	0.138221
O72	O	-0.222219	0.476769	-0.137733
C73	C	-0.019085	0.470256	-0.074338
C74	C	0.006890	0.462572	0.000222
C75	C	-0.011379	0.454885	0.074789
C76	C	0.051134	0.462578	0.000221
C77	C	0.069403	0.470265	-0.074347
C78	C	0.043428	0.477945	-0.148913
C79	C	-0.000816	0.477943	-0.148905
C80	C	0.014596	0.447206	0.149356
C81	C	0.058839	0.447209	0.149342
C82	C	0.077108	0.454895	0.074775
C83	C	0.428167	0.015362	0.074843
C84	C	0.428164	-0.161622	0.074870
O85	O	0.398854	-0.158447	0.138317
N86	N	0.462644	-0.214396	0.000299
C87	C	0.497129	-0.222925	-0.074280
O88	O	0.526459	-0.271874	-0.137701
C89	C	0.497133	-0.045942	-0.074303
C90	C	0.462648	0.006833	0.000267
C91	C	0.393685	0.068135	0.149407
C92	C	0.393684	0.112378	0.149396
C93	C	0.428165	0.103849	0.074821
C94	C	0.462647	0.051077	0.000256
C95	C	0.531620	-0.054471	-0.148877
C96	C	0.531619	-0.010220	-0.148875
C97	C	0.497134	0.042555	-0.074305
C98	C	0.497128	0.086791	-0.074330
N99	N	0.462648	0.139566	0.000241
C100	C	0.428167	0.148095	0.074816
C101	C	0.497123	-0.315841	-0.074264
C102	C	0.497122	-0.360087	-0.074260
C103	C	0.428158	-0.298781	0.074892
C104	C	0.428157	-0.254534	0.074883
C105	C	0.462644	-0.263066	0.000307
C106	C	0.428167	0.241007	0.074787
C107	C	0.428168	0.285251	0.074767
C108	C	0.497134	0.223941	-0.074381
C109	C	0.497131	0.179701	-0.074365
C110	C	0.462646	0.188237	0.000228
O111	O	0.526426	0.083657	-0.137737
O112	O	0.398848	0.197047	0.138240
C113	C	0.428168	-0.028881	0.074853
C114	C	0.462650	-0.081653	0.000289
C115	C	0.497131	-0.090182	-0.074287
C116	C	0.462648	-0.125899	0.000293
C117	C	0.428167	-0.117370	0.074869
C118	C	0.393687	-0.064595	0.149440
C119	C	0.393686	-0.020352	0.149429
C120	C	0.531611	-0.142957	-0.148858
C121	C	0.531608	-0.187198	-0.148841
C122	C	0.497127	-0.178669	-0.074266
C123	C	0.601410	0.462561	0.000284
C124	C	0.648506	0.462554	0.000294
C125	C	0.476553	0.434764	0.270273
C126	C	0.481274	0.425322	0.361915
C127	C	0.462642	0.601347	0.000300
C128	C	0.462640	0.648442	0.000316
C129	C	0.460207	0.467457	0.452892
C130	C	0.465085	0.457700	0.547609
C131	C	0.448736	0.490400	0.730234
C132	C	0.444015	0.499840	0.638590
C133	C	0.601414	0.323796	0.000238
C134	C	0.648511	0.276694	0.000232
C135	C	0.448740	0.351636	-0.269811
C136	C	0.444021	0.313982	-0.361469
C137	C	0.587505	0.351615	-0.269781
C138	C	0.629882	0.313954	-0.361429
C139	C	0.337785	0.573550	0.270289
C140	C	0.295408	0.611211	0.361937
C141	C	0.323876	0.601368	0.000270
C142	C	0.276779	0.648471	0.000276
C143	C	0.476550	0.573528	0.270319
C144	C	0.481269	0.611183	0.361977
C145	C	0.646247	0.249145	0.052959
C146	C	0.690497	0.204891	0.052974
C147	C	0.737008	0.188184	0.000255
C148	C	0.739270	0.215738	-0.052473
C149	C	0.695022	0.259993	-0.052482
C150	C	0.466185	0.301728	-0.457242
C151	C	0.461748	0.266355	-0.543373
C152	C	0.435150	0.243234	-0.533728
C153	C	0.412983	0.255491	-0.437944
C154	C	0.417417	0.290867	-0.351816
C155	C	0.679599	0.290831	-0.351735
C156	C	0.719421	0.255450	-0.437840
C157	C	0.709524	0.243188	-0.533637
C158	C	0.659802	0.266315	-0.543329
C159	C	0.619981	0.301699	-0.457225
C160	C	0.245691	0.634339	0.352243
C161	C	0.205869	0.669734	0.438347
C162	C	0.215766	0.681998	0.534145
C163	C	0.265488	0.658869	0.543836
C164	C	0.305309	0.623477	0.457733
C165	C	0.279043	0.676024	-0.052442
C166	C	0.234795	0.720287	-0.052433
C167	C	0.188284	0.736995	0.000288
C168	C	0.186021	0.709440	0.053013
C169	C	0.230269	0.665180	0.053009
C170	C	0.507871	0.634293	0.352300
C171	C	0.512315	0.669668	0.438413
C172	C	0.490154	0.681935	0.534204
C173	C	0.463551	0.658820	0.543879
C174	C	0.459111	0.623442	0.457766
H175	H	-0.274108	0.476497	-0.135025
H176	H	0.183336	0.710817	0.604247
O177	O	0.650280	0.254322	-0.636464
C178	C	0.696093	0.218141	-0.710371
H179	H	0.727147	0.195339	-0.676791
H180	H	0.692198	0.187743	-0.776786
H181	H	0.705978	0.242082	-0.737300
H182	H	0.479802	0.256380	-0.621355
O183	O	0.236158	0.622357	0.259117
C184	C	0.281961	0.586171	0.185183
H185	H	0.313021	0.563351	0.218734
H186	H	0.278048	0.555790	0.118770
H187	H	0.291851	0.610111	0.158261
O188	O	0.529437	0.622283	0.259202
C189	C	0.564748	0.565730	0.206239
H190	H	0.555048	0.543579	0.239108
H191	H	0.563763	0.551338	0.123364
H192	H	0.603984	0.556541	0.213415
H193	H	0.696871	0.282419	-0.095425
H194	H	0.431544	0.214430	-0.603867
O195	O	-0.026053	0.485329	-0.221365
C196	C	-0.028695	0.439449	-0.275961
H197	H	-0.024258	0.417330	-0.227927
H198	H	-0.066648	0.453120	-0.296256
H199	H	0.002685	0.410799	-0.347845
H200	H	0.487843	0.320551	-0.465115
O201	O	0.433227	0.601065	0.467354
C202	C	0.414632	0.619473	0.570369
H203	H	0.411643	0.659590	0.616287
H204	H	0.375883	0.625880	0.582384
H205	H	0.441331	0.587834	0.595736
H206	H	0.608380	0.262745	0.095901
O207	O	-0.256086	0.447380	0.147331
C208	C	-0.281710	0.440612	0.213165
H209	H	-0.305913	0.425931	0.172994
H210	H	-0.253245	0.409262	0.237220
H211	H	-0.306691	0.481167	0.282514
O212	O	0.157551	0.692172	0.429048
C213	C	0.132734	0.676553	0.475674
H214	H	0.152646	0.665009	0.534375
H215	H	0.092115	0.711925	0.513890
H216	H	0.133374	0.640097	0.416463
H217	H	0.525208	-0.322797	-0.134996
H218	H	0.493773	0.710742	0.604314
O219	O	0.140881	0.725613	0.104302
C220	C	0.148362	0.691796	0.150812
H221	H	0.188383	0.672480	0.161281
H222	H	0.120559	0.717109	0.227397
H223	H	0.142194	0.658456	0.101370
H224	H	0.688645	0.182462	0.095912
O225	O	0.442034	0.670818	0.637008
C226	C	0.451670	0.706991	0.710927
H227	H	0.459926	0.729786	0.677354
H228	H	0.417375	0.737394	0.777333
H229	H	0.485498	0.683043	0.737866
H230	H	-0.354374	0.476500	-0.134994
H231	H	0.759905	0.236622	-0.429930
H232	H	0.773034	0.152147	0.000269
H233	H	0.777146	0.202128	-0.095395
O234	O	0.360211	-0.056264	0.222000
C235	C	0.367559	-0.031983	0.317480
H236	H	0.386795	-0.010277	0.313008
H237	H	0.329642	-0.001284	0.374429
H238	H	0.392182	-0.064754	0.342210
H239	H	0.400082	-0.291843	0.135615
O240	O	0.237087	0.746971	-0.103749
C241	C	0.287629	0.722732	-0.150270
H242	H	0.310681	0.678954	-0.160708
H243	H	0.289855	0.722990	-0.226870
H244	H	0.303219	0.746653	-0.100852
H245	H	0.579499	0.320521	-0.465132
H246	H	0.525198	-0.403054	-0.134991
H247	H	-0.154694	0.484193	-0.209601
O248	O	0.538151	0.692095	0.428822
C249	C	0.556760	0.673675	0.325808
H250	H	0.533135	0.660177	0.279897
H251	H	0.554678	0.708106	0.313809
H252	H	0.597512	0.637848	0.300417
H253	H	0.365605	0.075088	0.210141
H254	H	0.391327	0.236661	-0.430106
H255	H	0.399370	0.300838	-0.273836
O256	O	0.275010	0.670820	0.636972
C257	C	0.229197	0.707025	0.710879
H258	H	0.198143	0.703219	0.677291
H259	H	0.233092	0.696596	0.777282
H260	H	0.219311	0.750535	0.737827
H261	H	0.687667	0.300808	-0.273740
O262	O	0.748268	0.208784	-0.617169
C263	C	0.794271	0.191017	-0.588058
H264	H	0.788197	0.195029	-0.508573
H265	H	0.822725	0.146602	-0.642456
H266	H	0.809088	0.217052	-0.589606
O267	O	0.530604	0.128466	-0.146936
C268	C	0.523244	0.125786	-0.242406
H269	H	0.503995	0.168346	-0.237914
H270	H	0.561158	0.098098	-0.299364
H271	H	0.498629	0.108746	-0.267138
H272	H	0.559690	-0.230168	-0.209574
H273	H	0.365607	0.155346	0.210127
H274	H	0.559702	-0.097436	-0.209600
H275	H	0.438562	0.510753	0.460658
H276	H	0.228419	0.642748	0.095936
O277	O	0.353627	0.600922	0.467018
C278	C	0.378445	0.543719	0.420387
H279	H	0.358530	0.530992	0.361693
H280	H	0.419063	0.524726	0.382161
H281	H	0.377813	0.529184	0.479596
O282	O	-0.071644	0.485440	-0.221376
C283	C	-0.104059	0.492205	-0.287188
H284	H	-0.142935	0.506879	-0.246997
H285	H	-0.106969	0.523559	-0.311247
H286	H	-0.088485	0.451650	-0.356538
H287	H	0.486736	0.414400	0.539837
O288	O	0.324226	0.659719	-0.103786
C289	C	0.347641	0.605331	-0.177795
H290	H	0.317920	0.595242	-0.197410
H291	H	0.368483	0.599863	-0.248204
H292	H	0.375452	0.576910	-0.147617
H293	H	0.185415	0.476547	-0.135069
H294	H	-0.340396	0.448614	0.135576
O295	O	0.145349	0.779984	0.000141
C296	C	0.157328	0.800723	-0.057680
H297	H	0.195305	0.767646	-0.113430
H298	H	0.127166	0.814343	-0.100615
H299	H	0.159200	0.836952	-0.005755
H300	H	0.279657	0.448675	0.135508
O301	O	0.268574	0.477822	-0.146667
C302	C	0.270754	0.524625	-0.101027
H303	H	0.272993	0.533407	-0.019573
H304	H	0.305453	0.517455	-0.143850
H305	H	0.235580	0.560856	-0.102750
H306	H	-0.052747	0.440931	0.210086
O307	O	0.196615	0.447374	0.147204
C308	C	0.232941	0.396364	0.142443
H309	H	0.271693	0.383106	0.104519
H310	H	0.232772	0.399759	0.221931
H311	H	0.223731	0.364981	0.097033
O312	O	-0.135823	0.439728	0.221901
C313	C	-0.103398	0.432932	0.287689
H314	H	-0.081459	0.452125	0.284142
H315	H	-0.126472	0.453526	0.367936
H316	H	-0.076043	0.387650	0.264190
H317	H	0.058308	0.484206	-0.209626
O318	O	0.084099	0.439644	0.221700
C319	C	0.098784	0.388641	0.216955
H320	H	0.100560	0.360759	0.138297
H321	H	0.137406	0.369598	0.233954
H322	H	0.070261	0.394323	0.274776
O323	O	0.394649	0.336480	0.147310
C324	C	0.364210	0.334516	0.213119
H325	H	0.384675	0.292103	0.209574
H326	H	0.355971	0.365844	0.293360
H327	H	0.327369	0.344013	0.189639
O328	O	0.394638	0.249251	0.147104
C329	C	0.364240	0.230668	0.101456
H330	H	0.384745	0.199134	0.020018
H331	H	0.355994	0.211385	0.144305
H332	H	0.327400	0.266459	0.103133
H333	H	-0.000274	0.440945	0.210076
H334	H	0.559703	-0.017173	-0.209604
O335	O	0.394642	-0.203309	0.147423
C336	C	0.364200	-0.205275	0.213223
H337	H	0.384665	-0.247690	0.209670
H338	H	0.355962	-0.173951	0.293468
H339	H	0.327360	-0.195775	0.189742
H340	H	0.525206	0.217006	-0.135100
O341	O	0.360258	0.030926	0.221900
C342	C	0.386520	0.053188	0.276484
H343	H	0.425899	0.031491	0.228436
H344	H	0.365551	0.098437	0.296792
H345	H	0.389344	0.047638	0.348360
H346	H	0.502923	0.382026	0.354149
H347	H	0.559691	-0.149910	-0.209586
H348	H	0.422367	0.543139	0.646364
