data_functionalizedCrystal
_audit_creation_method	'MofGen! by Chris Wilmer'
_symmetry_space_group_name_H-M	'P1'
_symmetry_Int_Tables_number	1
_symmetry_cell_setting	triclinic
loop_
_symmetry_equiv_pos_as_xyz
  x,y,z
_cell_length_a	21.395362
_cell_length_b	12.759399
_cell_length_c	21.395355
_cell_angle_alpha	90.013791
_cell_angle_beta	90.043940
_cell_angle_gamma	90.032096
loop_
_atom_site_label
_atom_site_type_symbol
_atom_site_fract_x
_atom_site_fract_y
_atom_site_fract_z
Zn1	Zn	0.957923	-0.417943	0.354606
Zn2	Zn	0.957852	-0.593607	0.249837
Zn3	Zn	0.853137	-0.417992	0.249807
Zn4	Zn	0.853133	-0.593629	0.354542
O5	O	0.905511	-0.505793	0.302198
O6	O	1.045591	-0.441215	0.340748
O7	O	0.943933	-0.570323	0.162155
O8	O	0.867069	-0.270964	0.263724
O9	O	1.045539	-0.570275	0.263775
O10	O	0.944054	-0.270928	0.340719
O11	O	0.867000	-0.441299	0.162134
O12	O	0.765459	-0.441320	0.263661
O13	O	0.867062	-0.570312	0.442229
O14	O	0.765456	-0.570360	0.340609
O15	O	0.944050	-0.441236	0.442276
O16	O	0.943929	-0.740631	0.263712
O17	O	0.866993	-0.740647	0.340638
C18	C	0.742724	-0.505848	0.302126
C19	C	0.673082	-0.505897	0.302109
C20	C	0.640384	-0.573177	0.342116
C21	C	0.574948	-0.573152	0.342144
C22	C	0.542214	-0.505857	0.302154
C23	C	0.574920	-0.438564	0.262144
C24	C	0.640354	-0.438584	0.262122
C25	C	0.438488	-0.497393	0.245748
C26	C	0.373055	-0.497380	0.245770
C27	C	0.340393	-0.505788	0.302223
C28	C	0.373173	-0.514231	0.358657
C29	C	0.438607	-0.514251	0.358635
C30	C	0.471262	-0.505827	0.302174
C31	C	0.236742	-0.573044	0.342264
C32	C	0.171306	-0.573011	0.342293
C33	C	0.171279	-0.438428	0.262287
C34	C	0.236714	-0.438456	0.262264
C35	C	0.269442	-0.505769	0.302251
C36	C	0.905470	-0.778760	0.302185
C37	C	0.905509	-0.895537	0.302201
C38	C	0.865480	-0.950510	0.262092
C39	C	0.865524	-1.060234	0.262108
C40	C	0.945628	-1.060001	0.342347
C41	C	0.945587	-0.950279	0.342328
C42	C	0.843230	-1.210296	0.188214
C43	C	0.803192	-1.265274	0.148111
C44	C	0.742047	-1.229794	0.138408
C45	C	0.720929	-1.139339	0.168819
C46	C	0.760964	-1.084367	0.208927
C47	C	0.822117	-1.119845	0.218617
C48	C	0.967875	-0.800215	0.416222
C49	C	1.007907	-0.745242	0.456334
C50	C	1.069053	-0.780719	0.466042
C51	C	1.090169	-0.871178	0.435643
C52	C	1.050136	-0.926152	0.395531
C53	C	0.988991	-0.890667	0.385822
C54	C	1.068935	-0.505738	0.302272
C55	C	1.138576	-0.505714	0.302303
C56	C	0.905563	-0.505771	0.465622
C57	C	0.905585	-0.505762	0.535263
C58	C	0.905570	-0.231759	0.302225
C59	C	0.905595	-0.114983	0.302236
C60	C	0.905495	-0.505738	0.139411
C61	C	0.905595	-0.505451	0.069770
C62	C	0.945671	-0.438550	0.568002
C63	C	0.945671	-0.438504	0.633437
C64	C	0.905590	-0.505691	0.666131
C65	C	0.865496	-0.572908	0.633385
C66	C	0.865494	-0.572944	0.567951
C67	C	0.900629	-0.600292	0.769800
C68	C	0.900635	-0.600258	0.835233
C69	C	0.905594	-0.505580	0.867952
C70	C	0.910559	-0.410932	0.835230
C71	C	0.910557	-0.410968	0.769796
C72	C	0.905588	-0.505659	0.737084
C73	C	0.945681	-0.438312	0.971643
C74	C	0.945676	-0.438265	1.037080
C75	C	0.865505	-0.572678	1.037027
C76	C	0.865507	-0.572716	0.971591
C77	C	0.905599	-0.505534	0.938904
H78	H	0.144684	-0.627797	0.374875
O79	O	0.822273	-0.645146	1.072279
H80	H	0.829010	-0.633834	1.123280
O81	O	0.895272	-0.702414	0.734511
H82	H	0.891827	-0.768219	0.768255
O83	O	0.473710	-0.488327	0.184853
H84	H	0.503550	-0.417160	0.185904
H85	H	0.548320	-0.627939	0.374725
H86	H	0.978257	-1.104586	0.375018
O87	O	0.822275	-0.645206	0.936266
H88	H	0.790411	-0.598188	0.906436
H89	H	0.548264	-0.383770	0.229585
O90	O	0.738194	-0.986804	0.241719
H91	H	0.741146	-0.998287	0.293059
H92	H	0.832861	-0.627608	0.660009
H93	H	0.666977	-0.383793	0.229543
O94	O	0.988907	-0.366083	0.532747
H95	H	1.020775	-0.413114	0.502965
H96	H	0.832847	-0.905942	0.229417
H97	H	0.820392	-1.338923	0.123351
O98	O	0.988920	-0.365852	0.936385
H99	H	0.982192	-0.377181	0.885384
O100	O	0.473959	-0.523338	0.419501
H101	H	0.503736	-0.594519	0.418430
O102	O	0.135975	-0.365850	0.219155
H103	H	0.148577	-0.283422	0.229983
O104	O	0.271988	-0.365917	0.219097
H105	H	0.238235	-0.319129	0.191286
O106	O	0.337957	-0.523292	0.419554
H107	H	0.286949	-0.521845	0.410093
O108	O	0.337701	-0.488269	0.184906
H109	H	0.371404	-0.482402	0.145648
H110	H	0.832848	-0.627675	0.541295
H111	H	0.918090	-0.771304	0.408306
O112	O	0.654977	-1.101069	0.158356
H113	H	0.630688	-1.154484	0.125353
H114	H	0.978312	-0.383766	0.660098
H115	H	0.263391	-0.627849	0.374827
O116	O	0.698862	-1.289077	0.095148
H117	H	0.723820	-1.357928	0.075629
H118	H	0.893021	-1.239185	0.196103
H119	H	1.067333	-0.999812	0.370782
O120	O	1.156121	-0.909452	0.446106
H121	H	1.180413	-0.856022	0.479100
O122	O	1.112231	-0.721426	0.509308
H123	H	1.153865	-0.694570	0.482846
O124	O	0.985137	-0.647672	0.489124
H125	H	0.935895	-0.632224	0.475628
O126	O	0.915908	-0.308895	0.734501
H127	H	0.919355	-0.243048	0.768240
H128	H	0.914598	-0.333836	0.861869
H129	H	0.978318	-0.383527	1.063735
O130	O	0.895274	-0.702338	0.870519
H131	H	0.935093	-0.753932	0.857987
H132	H	0.667027	-0.627988	0.374678
