data_functionalizedCrystal
_audit_creation_method	'MofGen! by Chris Wilmer'
_symmetry_space_group_name_H-M	'P1'
_symmetry_Int_Tables_number	1
_symmetry_cell_setting	triclinic
loop_
_symmetry_equiv_pos_as_xyz
  x,y,z
_cell_length_a	8.597213
_cell_length_b	8.597304
_cell_length_c	7.681481
_cell_angle_alpha	76.508647
_cell_angle_beta	88.167023
_cell_angle_gamma	84.294033
loop_
_atom_site_label
_atom_site_type_symbol
_atom_site_fract_x
_atom_site_fract_y
_atom_site_fract_z
O1	O	2.036318	0.284126	-0.498452
O2	O	1.586295	0.295448	-0.431901
O3	O	1.823615	0.058131	-0.431896
O4	O	1.798999	0.521443	-0.498458
O5	O	1.852825	0.028853	-0.139027
O6	O	1.615505	0.266170	-0.139032
O7	O	2.065528	0.254848	-0.205584
Zn8	Zn	1.845155	0.255860	-0.125809
Zn9	Zn	1.806669	0.294435	-0.511676
O10	O	1.828209	0.492165	-0.205589
C11	C	1.543313	0.277962	-0.276298
C12	C	1.371722	0.269461	-0.248978
C13	C	1.837204	-0.015925	-0.276296
C14	C	1.834158	-0.192970	-0.248982
C15	C	2.108510	0.272334	-0.361190
C16	C	2.280100	0.280837	-0.388522
C17	C	1.814620	0.566221	-0.361193
C18	C	1.817664	0.743268	-0.388517
N19	N	1.871431	0.229533	0.137534
N20	N	1.780405	0.320750	-0.775018
H21	H	1.332931	0.297092	-0.528887
O22	O	1.982213	0.118254	0.227127
C23	C	1.952401	-0.035835	0.210149
H24	H	1.879551	-0.024173	0.085542
H25	H	1.885662	-0.097739	0.333403
C26	C	2.197875	-0.150610	0.346474
C27	C	2.108410	-0.136286	0.193421
H28	H	2.294107	-0.212577	0.336164
H29	H	2.217958	-0.046799	0.357919
H30	H	2.142242	-0.202192	0.449170
H31	H	2.164035	-0.084688	0.090731
H32	H	2.088340	-0.240091	0.181958
H33	H	1.845933	-0.273835	-0.108602
H34	H	1.805867	-0.175875	-0.528885
O35	O	1.308911	0.249860	-0.081394
C36	C	1.375375	0.104655	0.027708
H37	H	1.493812	0.069168	-0.030100
H38	H	1.294700	0.006161	0.032626
C39	C	1.251500	0.170614	0.289331
C40	C	1.396973	0.127035	0.218338
H41	H	1.264817	0.184414	0.406923
H42	H	1.206717	0.268439	0.215827
H43	H	1.184286	0.088528	0.293413
H44	H	1.464177	0.209128	0.214235
H45	H	1.441768	0.029223	0.291846
O46	O	1.669736	0.431914	0.135014
C47	C	1.742091	0.543355	0.000506
H48	H	1.860254	0.486272	-0.036221
H49	H	1.759772	0.654434	0.051913
C50	C	1.492494	0.662254	-0.121145
C51	C	1.637618	0.592140	-0.166264
H52	H	1.428049	0.692355	-0.224014
H53	H	1.443745	0.587179	-0.030521
H54	H	1.507249	0.754812	-0.078303
H55	H	1.622863	0.499574	-0.209083
H56	H	1.686362	0.667201	-0.256899
