data_functionalizedCrystal
_audit_creation_method	'MofGen! by Chris Wilmer'
_symmetry_space_group_name_H-M	'P1'
_symmetry_Int_Tables_number	1
_symmetry_cell_setting	triclinic
loop_
_symmetry_equiv_pos_as_xyz
  x,y,z
_cell_length_a	8.559649
_cell_length_b	15.995350
_cell_length_c	7.681481
_cell_angle_alpha	84.260013
_cell_angle_beta	94.913240
_cell_angle_gamma	76.635520
loop_
_atom_site_label
_atom_site_type_symbol
_atom_site_fract_x
_atom_site_fract_y
_atom_site_fract_z
O1	O	2.105023	-0.019508	-0.146402
O2	O	1.639818	0.023734	-0.146408
O3	O	1.885137	-0.120592	-0.146403
O4	O	1.859704	0.124818	-0.146407
O5	O	1.915332	-0.138392	0.146455
O6	O	1.670013	0.005934	0.146450
O7	O	2.135218	-0.037308	0.146457
Zn8	Zn	1.907409	-0.018513	0.192951
Zn9	Zn	1.867627	0.004939	-0.192902
O10	O	1.889898	0.107018	0.146452
C11	C	1.595386	0.018111	0.000020
C12	C	1.418005	0.027866	0.000017
C13	C	1.899183	-0.160619	0.000023
C14	C	1.896030	-0.253366	0.000013
C15	C	1.884710	-0.590386	0.000019
C16	C	1.709930	-0.531678	-0.000641
C17	C	1.713151	-0.435230	0.000019
C18	C	1.890325	-0.423187	0.000015
C19	C	1.993741	-0.479970	0.167249
C20	C	1.989366	-0.576332	0.167389
C21	C	1.958639	-0.556680	-0.165646
C22	C	1.958369	-0.459598	-0.167856
C23	C	1.893508	-0.328694	0.000018
C24	C	1.881533	-0.684880	0.000027
C25	C	2.179650	-0.031685	0.000025
C26	C	2.357029	-0.041439	0.000016
C27	C	1.875853	0.147046	0.000022
C28	C	1.879005	0.239793	0.000020
N29	N	1.934572	-0.034520	0.456286
N30	N	1.840477	0.020939	-0.456237
H31	H	1.334498	0.094668	0.000007
C32	C	1.710704	0.097410	0.442185
C33	C	1.531255	0.106100	0.466927
C34	C	1.401480	0.182573	0.365337
C35	C	1.451153	0.250357	0.239003
C36	C	1.630610	0.241670	0.214255
C37	C	1.760386	0.165196	0.315846
H38	H	1.494476	0.055920	0.560452
H39	H	1.268633	0.189004	0.383658
H40	H	1.355086	0.306967	0.163800
H41	H	1.667389	0.291849	0.120731
H42	H	1.893232	0.158766	0.297525
H43	H	1.946720	-0.455304	0.291703
H44	H	2.030642	-0.091125	0.531494
H45	H	1.627735	-0.538430	-0.120568
C46	C	1.469818	-0.131682	0.000020
C47	C	1.605342	-0.168467	0.152098
C48	C	1.718142	-0.258711	0.152102
C49	C	1.695418	-0.312171	0.000029
C50	C	1.559888	-0.275387	-0.152060
C51	C	1.447087	-0.185142	-0.152064
H52	H	1.622169	-0.128892	0.264682
H53	H	1.818471	-0.285941	0.264689
H54	H	1.778920	-0.378976	0.000033
H55	H	1.543060	-0.314962	-0.264643
H56	H	1.346759	-0.157913	-0.264651
H57	H	1.633053	-0.395166	-0.119861
H58	H	1.657339	-0.410279	0.120102
C59	C	1.632612	-0.561892	0.160466
C60	C	1.727461	-0.639573	0.292438
C61	C	1.650147	-0.669791	0.453545
C62	C	1.477984	-0.622328	0.482682
C63	C	1.383126	-0.544643	0.350706
C64	C	1.460439	-0.514425	0.189599
H65	H	1.854915	-0.674712	0.270873
H66	H	1.720369	-0.727299	0.551242
H67	H	1.420752	-0.644697	0.601943
H68	H	1.255671	-0.509504	0.372271
H69	H	1.390218	-0.456917	0.091902
C70	C	1.856149	-0.407093	-0.335002
C71	C	1.711565	-0.331508	-0.319214
C72	C	1.609344	-0.278997	-0.486357
C73	C	1.651707	-0.302071	-0.669288
C74	C	1.796299	-0.377660	-0.685083
C75	C	1.898520	-0.430171	-0.517940
H76	H	1.680199	-0.314424	-0.183791
H77	H	1.502307	-0.223041	-0.474663
H78	H	1.576037	-0.263199	-0.793017
H79	H	1.827665	-0.394744	-0.820506
H80	H	2.005556	-0.486127	-0.529634
C81	C	2.132501	-0.610677	-0.167187
C82	C	2.261892	-0.613647	-0.013001
C83	C	2.435751	-0.667645	-0.014526
C84	C	2.480218	-0.718675	-0.170237
C85	C	2.350824	-0.715707	-0.324434
C86	C	2.176965	-0.661709	-0.322909
H87	H	2.228978	-0.575870	0.102276
H88	H	2.531537	-0.669841	0.099622
H89	H	2.608919	-0.758647	-0.171365
H90	H	2.383739	-0.753484	-0.439711
H91	H	2.081180	-0.659512	-0.437057
H92	H	1.939418	-0.598191	0.292403
H93	H	2.118419	-0.617289	0.174974
H94	H	2.086530	-0.451930	-0.177957
H95	H	2.124547	-0.474592	0.173465
H96	H	1.888448	-0.565843	-0.292399
