data_functionalizedCrystal
_audit_creation_method	'MofGen! by Chris Wilmer'
_symmetry_space_group_name_H-M	'P1'
_symmetry_Int_Tables_number	1
_symmetry_cell_setting	triclinic
loop_
_symmetry_equiv_pos_as_xyz
  x,y,z
_cell_length_a	23.532407
_cell_length_b	11.026660
_cell_length_c	10.065875
_cell_angle_alpha	100.732748
_cell_angle_beta	81.313937
_cell_angle_gamma	95.716756
loop_
_atom_site_label
_atom_site_type_symbol
_atom_site_fract_x
_atom_site_fract_y
_atom_site_fract_z
O1	O	0.777219	0.129240	-0.113312
O2	O	0.613597	0.150522	-0.113351
O3	O	0.681848	-0.036608	-0.113334
O4	O	0.708968	0.316370	-0.113330
O5	O	0.668848	-0.000782	0.113652
O6	O	0.600597	0.186347	0.113634
O7	O	0.764219	0.165065	0.113673
Zn8	Zn	0.680344	0.181395	0.149692
Zn9	Zn	0.697472	0.134193	-0.149371
O10	O	0.695968	0.352195	0.113656
C11	C	0.585824	0.167892	0.000137
C12	C	0.522436	0.166260	0.000121
C13	C	0.133901	0.266788	0.000184
C14	C	0.074341	0.265275	0.000193
O15	O	0.047394	0.358465	0.000243
N16	N	0.040015	0.154024	0.000189
C17	C	0.065250	0.044281	0.000191
O18	O	0.030584	-0.050485	0.000190
C19	C	0.124809	0.045797	0.000193
C20	C	0.159133	0.157053	0.000182
C21	C	0.168225	0.378035	0.000175
C22	C	0.227781	0.379547	0.000165
C23	C	0.253013	0.269812	0.000163
C24	C	0.218689	0.158565	0.000171
C25	C	0.150043	-0.063943	0.000204
C26	C	0.209605	-0.062418	0.000207
C27	C	0.243930	0.048838	0.000196
C28	C	0.303477	0.050341	0.000158
N29	N	0.337804	0.161592	0.000162
C30	C	0.312572	0.271327	0.000164
C31	C	-0.059826	0.041107	0.000190
C32	C	-0.119383	0.039589	0.000179
C33	C	-0.110288	0.260584	0.000183
C34	C	-0.050729	0.262099	0.000185
C35	C	-0.025499	0.152358	0.000194
C36	C	0.437643	0.274494	0.000140
C37	C	0.497204	0.275995	0.000123
C38	C	0.488104	0.055002	0.000127
C39	C	0.428548	0.053499	0.000136
C40	C	0.403320	0.163255	0.000147
O41	O	0.330464	-0.042799	0.000113
O42	O	0.347244	0.366081	0.000183
C43	C	0.670345	-0.063846	0.000155
C44	C	0.655430	-0.198381	0.000144
C45	C	0.681203	-0.411730	0.000155
C46	C	0.696619	-0.272683	0.000155
C47	C	0.791992	0.147695	0.000182
C48	C	0.855380	0.149326	0.000189
C49	C	0.707471	0.379433	0.000164
C50	C	0.722386	0.513967	0.000166
N51	N	0.668658	0.213608	0.353795
N52	N	0.709161	0.101970	-0.353473
C53	C	0.693402	0.145393	0.421580
C54	C	0.684414	0.170195	0.578745
H55	H	0.417109	0.363869	0.000153
H56	H	0.736998	0.025198	0.588213
Br57	Br	0.638007	0.298137	0.675930
Br58	Br	0.577635	-0.263906	0.000120
Br59	Br	0.774416	-0.207158	0.000155
Br60	Br	0.622253	0.341545	0.450985
Br61	Br	0.381963	-0.097491	0.000154
Br62	Br	0.800179	-0.420503	0.000166
H63	H	0.525149	0.366596	0.000114
Br64	Br	0.603412	-0.477267	0.000114
Br65	Br	0.739626	0.017144	0.324391
Br66	Br	0.522359	-0.093917	0.000127
H67	H	0.147688	0.467401	0.000182
Br68	Br	-0.004152	0.413094	0.000171
Br69	Br	0.274355	0.530546	0.000157
H70	H	-0.147324	-0.051010	0.000166
Br71	Br	-0.025591	-0.107844	0.000191
Br72	Br	-0.144543	0.409512	0.000189
H73	H	0.230144	-0.151785	0.000215
Br74	Br	0.103476	-0.214948	0.000188
