data_functionalizedCrystal
_audit_creation_method	'MofGen! by Chris Wilmer'
_symmetry_space_group_name_H-M	'P1'
_symmetry_Int_Tables_number	1
_symmetry_cell_setting	triclinic
loop_
_symmetry_equiv_pos_as_xyz
  x,y,z
_cell_length_a	18.215407
_cell_length_b	12.827892
_cell_length_c	18.215399
_cell_angle_alpha	89.973753
_cell_angle_beta	89.983176
_cell_angle_gamma	90.015840
loop_
_atom_site_label
_atom_site_type_symbol
_atom_site_fract_x
_atom_site_fract_y
_atom_site_fract_z
Zn1	Zn	1.125099	-0.416006	-0.416137
Zn2	Zn	1.458432	-0.082673	-0.082804
Zn3	Zn	1.791765	0.250660	0.250530
Zn4	Zn	1.125034	-0.590773	-0.293079
Zn5	Zn	1.458367	-0.257440	0.040254
Zn6	Zn	1.791701	0.075894	0.373587
Zn7	Zn	1.002038	-0.416048	-0.293084
Zn8	Zn	1.335371	-0.082715	0.040249
Zn9	Zn	1.668704	0.250619	0.373582
Zn10	Zn	1.002017	-0.590707	-0.416104
Zn11	Zn	1.335351	-0.257374	-0.082771
Zn12	Zn	1.668684	0.075959	0.250562
O13	O	1.063547	-0.503384	-0.354601
O14	O	1.396880	-0.170050	-0.021268
O15	O	1.730214	0.163283	0.312065
O16	O	1.228074	-0.439200	-0.399825
O17	O	1.561408	-0.105866	-0.066491
O18	O	1.894741	0.227467	0.266842
O19	O	1.108700	-0.567640	-0.190096
O20	O	1.442033	-0.234307	0.143238
O21	O	1.775366	0.099027	0.476571
O22	O	1.018398	-0.269806	-0.309423
O23	O	1.351731	0.063527	0.023910
O24	O	1.685064	0.396860	0.357244
O25	O	1.228027	-0.567600	-0.309415
O26	O	1.561360	-0.234267	0.023918
O27	O	1.894693	0.099067	0.357252
O28	O	1.108810	-0.269776	-0.399829
O29	O	1.442143	0.063557	-0.066496
O30	O	1.775477	0.396891	0.266837
O31	O	1.018335	-0.439270	-0.190099
O32	O	1.351668	-0.105937	0.143234
O33	O	1.685001	0.227396	0.476567
O34	O	0.899051	-0.439207	-0.309392
O35	O	1.232384	-0.105874	0.023942
O36	O	1.565717	0.227460	0.357275
O37	O	1.018363	-0.567488	-0.519093
O38	O	1.351696	-0.234155	-0.185760
O39	O	1.685030	0.099178	0.147574
O40	O	0.899036	-0.567528	-0.399774
O41	O	1.232369	-0.234195	-0.066441
O42	O	1.565703	0.099138	0.266893
O43	O	1.108790	-0.439136	-0.519117
O44	O	1.442124	-0.105803	-0.185784
O45	O	1.775457	0.227531	0.147550
O46	O	1.108680	-0.737000	-0.309383
O47	O	1.442013	-0.403667	0.023950
O48	O	1.775347	-0.070334	0.357283
O49	O	1.018300	-0.736952	-0.399769
O50	O	1.351634	-0.403619	-0.066436
O51	O	1.684967	-0.070286	0.266897
C52	C	0.872341	-0.503366	-0.354580
C53	C	1.205674	-0.170033	-0.021247
C54	C	1.539007	0.163301	0.312087
C55	C	0.790542	-0.503383	-0.354589
C56	C	1.123875	-0.170050	-0.021255
C57	C	1.457208	0.163283	0.312078
C58	C	0.602359	-0.570305	-0.401592
C59	C	0.935693	-0.236972	-0.068258
C60	C	1.269026	0.096361	0.265075
C61	C	0.525501	-0.570309	-0.401601
C62	C	0.858834	-0.236975	-0.068267
C63	C	1.192167	0.096358	0.265066
C64	C	0.525486	-0.436481	-0.307627
C65	C	0.858820	-0.103148	0.025706
C66	C	1.192153	0.230186	0.359040
C67	C	0.602344	-0.436473	-0.307622
C68	C	0.935677	-0.103140	0.025711
C69	C	1.269010	0.230194	0.359045
C70	C	0.640778	-0.503391	-0.354603
C71	C	0.974112	-0.170058	-0.021270
C72	C	1.307445	0.163275	0.312063
C73	C	0.487062	-0.503402	-0.354617
C74	C	0.820396	-0.170069	-0.021284
C75	C	1.153729	0.163264	0.312049
C76	C	0.403729	-0.503405	-0.354627
C77	C	0.737062	-0.170072	-0.021294
C78	C	1.070395	0.163261	0.312040
C79	C	0.724117	-0.503387	-0.354595
C80	C	1.057451	-0.170054	-0.021262
C81	C	1.390784	0.163279	0.312072
C82	C	1.063501	-0.774894	-0.354588
C83	C	1.396834	-0.441560	-0.021255
C84	C	1.730168	-0.108227	0.312078
C85	C	1.063549	-0.891047	-0.354607
C86	C	1.396882	-0.557713	-0.021274
C87	C	1.730215	-0.224380	0.312059
C88	C	1.108324	-0.942821	-0.309931
C89	C	1.441658	-0.609487	0.023402
C90	C	1.774991	-0.276154	0.356735
C91	C	1.108375	-1.062871	-0.309950
C92	C	1.441708	-0.729538	0.023383
C93	C	1.775041	-0.396204	0.356717
C94	C	1.255500	-0.503402	-0.354623
C95	C	1.588833	-0.170069	-0.021290
C96	C	1.922166	0.163264	0.312044
C97	C	1.337299	-0.503410	-0.354632
C98	C	1.670632	-0.170077	-0.021299
C99	C	2.003965	0.163256	0.312035
C100	C	1.063582	-0.503300	-0.546554
C101	C	1.396915	-0.169967	-0.213221
C102	C	1.730248	0.163366	0.120112
C103	C	1.063596	-0.503265	-0.628353
C104	C	1.396930	-0.169931	-0.295020
C105	C	1.730263	0.163402	0.038313
C106	C	1.063613	-0.230814	-0.354630
C107	C	1.396947	0.102520	-0.021297
C108	C	1.730280	0.435853	0.312036
C109	C	1.063641	-0.114660	-0.354643
C110	C	1.396975	0.218673	-0.021309
C111	C	1.730308	0.552006	0.312024
C112	C	1.016583	-0.436377	-0.816550
C113	C	1.349917	-0.103044	-0.483217
C114	C	1.683250	0.230289	-0.149883
C115	C	1.016596	-0.436356	-0.893409
C116	C	1.349929	-0.103023	-0.560075
C117	C	1.683263	0.230310	-0.226742
C118	C	1.110698	-0.570027	-0.893394
C119	C	1.444031	-0.236694	-0.560061
C120	C	1.777364	0.096639	-0.226728
C121	C	1.110681	-0.570053	-0.816537
C122	C	1.444014	-0.236719	-0.483204
C123	C	1.777347	0.096614	-0.149870
C124	C	1.063625	-0.503222	-0.778117
C125	C	1.396958	-0.169889	-0.444783
C126	C	1.730291	0.163445	-0.111450
C127	C	1.063654	-0.503175	-0.931833
C128	C	1.396988	-0.169842	-0.598500
C129	C	1.730321	0.163491	-0.265166
C130	C	1.063669	-0.503153	-1.015167
C131	C	1.397002	-0.169820	-0.681833
C132	C	1.730335	0.163514	-0.348500
C133	C	1.063609	-0.503245	-0.694778
C134	C	1.396942	-0.169912	-0.361444
C135	C	1.730276	0.163421	-0.028111
C136	C	1.063555	-0.503391	-0.163395
C137	C	1.396888	-0.170058	0.169938
C138	C	1.730221	0.163275	0.503272
C139	C	1.063682	-0.503133	-0.081597
C140	C	1.397016	-0.169799	0.251737
C141	C	1.730349	0.163534	0.585070
H142	H	0.494184	-0.382000	-0.269375
H143	H	0.827517	-0.048667	0.063958
H144	H	1.160850	0.284667	0.397291
C145	C	1.162446	-0.643572	-0.774258
C146	C	1.495779	-0.310238	-0.440925
C147	C	1.829113	0.023095	-0.107591
N148	N	1.201438	-0.698938	-0.742413
N149	N	1.534771	-0.365605	-0.409080
N150	N	1.868104	-0.032272	-0.075747
H151	H	0.633650	-0.624792	-0.439849
H152	H	0.966984	-0.291459	-0.106515
H153	H	1.300317	0.041875	0.226818
C154	C	0.483243	-0.643929	-0.453285
C155	C	0.816577	-0.310596	-0.119952
C156	C	1.149910	0.022737	0.213382
N157	N	0.451416	-0.699387	-0.492214
N158	N	0.784749	-0.366053	-0.158880
N159	N	1.118082	-0.032720	0.174453
H160	H	1.149010	-0.624438	-0.924685
H161	H	1.482343	-0.291104	-0.591352
H162	H	1.815676	0.042229	-0.258019
C163	C	0.644607	-0.362859	-0.255928
C164	C	0.977940	-0.029526	0.077405
C165	C	1.311274	0.303808	0.410738
N166	N	0.676440	-0.307413	-0.216995
N167	N	1.009773	0.025920	0.116338
N168	N	1.343107	0.359253	0.449671
H169	H	1.146707	-1.107395	-0.271699
H170	H	1.480040	-0.774062	0.061634
H171	H	1.813373	-0.440729	0.394968
C172	C	1.160063	-0.882639	-0.258237
C173	C	1.493397	-0.549306	0.075096
C174	C	1.826730	-0.215972	0.408429
N175	N	1.199033	-0.837312	-0.219299
N176	N	1.532367	-0.503978	0.114034
N177	N	1.865700	-0.170645	0.447368
C178	C	1.011850	-1.054520	-0.406320
C179	C	1.345183	-0.721187	-0.072986
C180	C	1.678516	-0.387853	0.260347
N181	N	0.972841	-1.009214	-0.445244
N182	N	1.306174	-0.675881	-0.111910
N183	N	1.639508	-0.342548	0.221423
H184	H	0.978267	-0.381960	-0.785270
H185	H	1.311600	-0.048626	-0.451937
H186	H	1.644934	0.284707	-0.118604
H187	H	1.025255	-0.935598	-0.392873
H188	H	1.358588	-0.602265	-0.059540
H189	H	1.691921	-0.268931	0.273794
C190	C	0.964851	-0.362816	-0.935682
C191	C	1.298184	-0.029483	-0.602348
C192	C	1.631518	0.303851	-0.269015
N193	N	0.925875	-0.307421	-0.967521
N194	N	1.259209	0.025913	-0.634188
N195	N	1.592542	0.359246	-0.300855
