data_functionalizedCrystal
_audit_creation_method	'MofGen! by Chris Wilmer'
_symmetry_space_group_name_H-M	'P1'
_symmetry_Int_Tables_number	1
_symmetry_cell_setting	triclinic
loop_
_symmetry_equiv_pos_as_xyz
  x,y,z
_cell_length_a	12.837943
_cell_length_b	14.472311
_cell_length_c	12.837938
_cell_angle_alpha	89.993527
_cell_angle_beta	85.171210
_cell_angle_gamma	90.002445
loop_
_atom_site_label
_atom_site_type_symbol
_atom_site_fract_x
_atom_site_fract_y
_atom_site_fract_z
O1	O	1.402334	0.076813	-0.272148
O2	O	1.099201	0.076819	-0.258705
O3	O	1.244046	0.076816	-0.113859
O4	O	1.257489	0.076815	-0.416993
O5	O	1.244033	-0.076866	-0.113838
O6	O	1.099188	-0.076863	-0.258683
O7	O	1.402321	-0.076869	-0.272127
Cu8	Cu	1.250753	-0.090899	-0.265403
Cu9	Cu	1.250769	0.090848	-0.265428
O10	O	1.257476	-0.076867	-0.416972
C11	C	1.060125	-0.000022	-0.254153
C12	C	0.943710	-0.000019	-0.240608
N13	N	1.250750	-0.218730	-0.265385
C14	C	0.718836	-0.000033	-0.403437
C15	C	0.609453	-0.000031	-0.390716
C16	C	0.615561	-0.000021	-0.202445
C17	C	0.724943	-0.000022	-0.215166
C18	C	0.776577	-0.000027	-0.315666
C19	C	0.885961	-0.000022	-0.328386
C20	C	0.892067	-0.000018	-0.140116
C21	C	0.782685	-0.000016	-0.127395
C22	C	1.250769	-0.592821	-0.265421
C23	C	1.328580	-0.553628	-0.188232
C24	C	1.328324	-0.446540	-0.187894
C25	C	1.250761	-0.407230	-0.265403
C26	C	1.139186	-0.446118	-0.230759
C27	C	1.139637	-0.553240	-0.230203
C28	C	1.283573	-0.553327	-0.377409
C29	C	1.285980	-0.446198	-0.376919
C30	C	1.250749	-0.302342	-0.265395
C31	C	1.250773	-0.697709	-0.265426
C32	C	1.441397	-0.000027	-0.276679
C33	C	1.557812	-0.000024	-0.290223
C34	C	1.239499	-0.000023	-0.074780
C35	C	1.225954	-0.000016	0.041635
N36	N	1.250780	0.218679	-0.265438
C37	C	1.388784	0.000009	0.266510
C38	C	1.376063	0.000016	0.375892
C39	C	1.187792	0.000009	0.369785
C40	C	1.200513	0.000003	0.260402
C41	C	1.301013	0.000002	0.208769
C42	C	1.313733	-0.000011	0.099384
C43	C	1.125462	-0.000011	0.093279
C44	C	1.112741	-0.000005	0.202661
C45	C	1.262024	-0.000016	0.543948
C46	C	1.275570	0.000014	0.427534
H47	H	0.760876	-0.000035	-0.485268
O48	O	1.437727	-0.411708	-0.217315
H49	H	1.464911	-0.437141	-0.296537
H50	H	1.395564	-0.000016	0.057346
H51	H	0.573502	-0.000093	-0.120623
O52	O	0.726994	-0.000012	-0.019002
H53	H	0.641232	-0.000008	-0.024899
O54	O	1.102569	-0.410604	-0.123277
H55	H	1.029261	-0.370634	-0.127522
O56	O	1.497172	0.000009	0.210807
H57	H	1.556070	0.000020	0.269336
H58	H	1.447537	0.000025	0.422901
O59	O	1.208593	-0.586911	-0.453676
H60	H	1.128371	-0.563080	-0.427871
O61	O	1.004354	-0.000011	0.258364
H62	H	0.961654	0.062625	0.235902
H63	H	1.363777	-0.580338	-0.408036
O64	O	1.394770	-0.412530	-0.411427
H65	H	1.423645	-0.368221	-0.349424
H66	H	1.233807	-0.419438	-0.437884
O67	O	1.079402	0.000004	0.425482
H68	H	1.085308	0.000003	0.511243
O69	O	1.030780	-0.000023	0.031008
H70	H	1.032061	0.062612	-0.018984
O71	O	0.941653	-0.000041	-0.436779
H72	H	0.919192	0.062587	-0.479500
O73	O	0.547169	-0.000039	-0.485381
H74	H	0.566694	0.062599	-0.532972
O75	O	0.954342	-0.000017	-0.045437
H76	H	1.039078	-0.000024	-0.071163
H77	H	1.112374	-0.578234	-0.148201
O78	O	1.438318	-0.587736	-0.217393
H79	H	1.438577	-0.632994	-0.287209
O80	O	1.299674	-0.589289	-0.079076
H81	H	1.219027	-0.566909	-0.052787
O82	O	1.299072	-0.412591	-0.078110
H83	H	1.220086	-0.438568	-0.050888
O84	O	1.059885	-0.587609	-0.301069
H85	H	0.981259	-0.561812	-0.272299
O86	O	1.060034	-0.412403	-0.302642
H87	H	1.099473	-0.367458	-0.363965
