data_functionalizedCrystal
_audit_creation_method	'MofGen! by Chris Wilmer'
_symmetry_space_group_name_H-M	'P1'
_symmetry_Int_Tables_number	1
_symmetry_cell_setting	triclinic
loop_
_symmetry_equiv_pos_as_xyz
  x,y,z
_cell_length_a	14.908558
_cell_length_b	14.908178
_cell_length_c	14.908308
_cell_angle_alpha	90.221621
_cell_angle_beta	89.824401
_cell_angle_gamma	89.819838
loop_
_atom_site_label
_atom_site_type_symbol
_atom_site_fract_x
_atom_site_fract_y
_atom_site_fract_z
Zn1	Zn	1.319972	-0.467750	0.559094
Zn2	Zn	1.819972	0.032250	1.059094
Zn3	Zn	1.320876	-0.609515	0.400104
Zn4	Zn	1.820876	-0.109515	0.900104
Zn5	Zn	1.179219	-0.450532	0.401141
Zn6	Zn	1.679219	0.049468	0.901141
Zn7	Zn	1.161961	-0.608447	0.541822
Zn8	Zn	1.661961	-0.108447	1.041822
O9	O	1.245507	-0.534061	0.475540
O10	O	1.745507	-0.034061	0.975540
O11	O	1.445503	-0.494207	0.544798
O12	O	1.945503	0.005793	1.044798
O13	O	1.309686	-0.581666	0.274828
O14	O	1.809686	-0.081666	0.774828
O15	O	1.204734	-0.327399	0.429757
O16	O	1.704734	0.172601	0.929757
O17	O	1.446168	-0.598361	0.427989
O18	O	1.946168	-0.098361	0.927989
O19	O	1.308144	-0.340049	0.545804
O20	O	1.808144	0.159951	1.045804
O21	O	1.205611	-0.464863	0.275591
O22	O	1.705611	0.035137	0.775591
O23	O	1.051518	-0.463828	0.413009
O24	O	1.551518	0.036172	0.913009
O25	O	1.175321	-0.596542	0.669526
O26	O	1.675321	-0.096542	1.169526
O27	O	1.038839	-0.579847	0.516366
O28	O	1.538839	-0.079847	1.016366
O29	O	1.291410	-0.493172	0.682216
O30	O	1.791410	0.006828	1.182216
O31	O	1.292952	-0.734790	0.411240
O32	O	1.792952	-0.234790	0.911240
O33	O	1.176198	-0.734006	0.515360
O34	O	1.676198	-0.234006	1.015360
C35	C	1.012660	-0.519854	0.462926
C36	C	1.512660	-0.019854	0.962926
C37	C	0.913045	-0.513799	0.457550
C38	C	1.413045	-0.013799	0.957550
C39	C	0.779215	-0.444781	0.396258
C40	C	1.279215	0.055219	0.896258
C41	C	0.872813	-0.450466	0.401307
C42	C	1.372813	0.049534	0.901307
C43	C	0.859671	-0.571451	0.508750
C44	C	1.359671	-0.071451	1.008750
C45	C	0.766073	-0.565766	0.503702
C46	C	1.266073	-0.065766	1.003702
C47	C	0.725849	-0.502430	0.447453
C48	C	1.225849	-0.002430	0.947453
C49	C	0.632249	-0.496750	0.442401
C50	C	1.132249	0.003250	0.942401
C51	C	0.619109	-0.617731	0.549848
C52	C	1.119109	-0.117731	1.049848
C53	C	0.712707	-0.623415	0.554897
C54	C	1.212707	-0.123415	1.054897
C55	C	1.232823	-0.766920	0.461334
C56	C	1.732823	-0.266920	0.961334
C57	C	1.227478	-0.866544	0.455291
C58	C	1.727478	-0.366544	0.955291
C59	C	1.325019	-1.066772	0.564894
C60	C	1.825019	-0.566772	1.064894
C61	C	1.319999	-1.160379	0.559219
C62	C	1.819999	-0.660379	1.059219
C63	C	1.212413	-1.147365	0.438272
C64	C	1.712413	-0.647365	0.938272
C65	C	1.217433	-1.053759	0.443947
C66	C	1.717433	-0.553759	0.943947
C67	C	1.273739	-1.013466	0.507259
C68	C	1.773739	-0.513466	1.007259
C69	C	1.278763	-0.919858	0.512929
C70	C	1.778763	-0.419858	1.012929
C71	C	1.171173	-0.906846	0.391986
C72	C	1.671173	-0.406846	0.891986
C73	C	1.166153	-1.000452	0.386312
C74	C	1.666153	-0.500452	0.886312
C75	C	1.479263	-0.548324	0.488204
C76	C	1.979263	-0.048324	0.988204
C77	C	1.578876	-0.554402	0.493601
C78	C	2.078876	-0.054402	0.993601
C79	C	1.231340	-0.546659	0.709299
C80	C	1.731340	-0.046659	1.209299
C81	C	1.225302	-0.552027	0.808913
C82	C	1.725302	-0.052027	1.308913
C83	C	1.258263	-0.300296	0.489823
C84	C	1.758263	0.199704	0.989823
C85	C	1.263699	-0.200679	0.495909
C86	C	1.763699	0.299321	0.995909
C87	C	1.259674	-0.521451	0.242698
C88	C	1.759674	-0.021451	0.742698
C89	C	1.265899	-0.515840	0.143109
C90	C	1.765899	-0.015840	0.643109
C91	C	1.334840	-0.454455	1.009315
C92	C	1.834840	0.045545	1.509315
C93	C	1.329171	-0.459496	1.102911
C94	C	1.829171	0.040504	1.602911
C95	C	1.208290	-0.567145	1.089704
C96	C	1.708290	-0.067145	1.589704
C97	C	1.213960	-0.562104	0.996108
C98	C	1.713960	-0.062104	1.496108
C99	C	1.277238	-0.505758	0.955916
C100	C	1.777238	-0.005758	1.455916
C101	C	1.282911	-0.500722	0.862318
C102	C	1.782911	-0.000722	1.362318
C103	C	1.162027	-0.608366	0.849113
C104	C	1.662027	-0.108366	1.349113
C105	C	1.156357	-0.613407	0.942709
C106	C	1.656357	-0.113407	1.442709
H107	H	0.599500	-0.445178	0.396601
H108	H	1.099500	0.054822	0.896601
H109	H	1.370872	-1.033966	0.616439
H110	H	1.870872	-0.533966	1.116439
H111	H	0.746464	-0.393212	0.350457
H112	H	1.246464	0.106788	0.850457
F113	F	0.562305	-0.679084	0.604342
F114	F	1.062305	-0.179084	1.104342
F115	F	1.350259	-0.440757	0.819545
F116	F	1.850259	0.059243	1.319545
F117	F	1.140945	-0.627101	1.132494
F118	F	1.640945	-0.127101	1.632494
H119	H	1.376075	-0.417717	1.146385
H120	H	1.876075	0.082283	1.646385
H121	H	1.386368	-0.408580	0.976591
H122	H	1.886368	0.091420	1.476591
H123	H	0.892439	-0.623011	0.554550
H124	H	1.392439	-0.123011	1.054550
H125	H	1.166568	-1.180188	0.386730
H126	H	1.666568	-0.680188	0.886730
H127	H	0.745471	-0.674979	0.600695
H128	H	1.245471	-0.174979	1.100695
F129	F	1.089014	-0.673370	0.985494
F130	F	1.589014	-0.173370	1.485494
F131	F	1.338691	-0.876976	0.580308
F132	F	1.838691	-0.376976	1.080308
F133	F	1.374576	-1.217109	0.620564
F134	F	1.874576	-0.717109	1.120564
H135	H	1.120309	-1.033272	0.334767
H136	H	1.620309	-0.533272	0.834767
H137	H	1.115125	-0.650143	0.805625
H138	H	1.615125	-0.150143	1.305625
H139	H	0.916261	-0.403519	0.359622
H140	H	1.416261	0.096481	0.859622
F141	F	1.116600	-0.850106	0.330638
F142	F	1.616600	-0.350106	0.830638
