data_functionalizedCrystal
_audit_creation_method	'MofGen! by Chris Wilmer'
_symmetry_space_group_name_H-M	'P1'
_symmetry_Int_Tables_number	1
_symmetry_cell_setting	triclinic
loop_
_symmetry_equiv_pos_as_xyz
  x,y,z
_cell_length_a	17.637015
_cell_length_b	17.639874
_cell_length_c	12.759393
_cell_angle_alpha	78.826287
_cell_angle_beta	78.748450
_cell_angle_gamma	65.665973
loop_
_atom_site_label
_atom_site_type_symbol
_atom_site_fract_x
_atom_site_fract_y
_atom_site_fract_z
Zn1	Zn	-0.073180	-1.193548	-0.254198
Zn2	Zn	-0.211089	-1.165575	-0.048914
Zn3	Zn	-0.101116	-1.055724	-0.107984
Zn4	Zn	-0.238903	-1.027847	-0.254009
O5	O	-0.156072	-1.110674	-0.166276
O6	O	-0.068143	-1.305156	-0.202325
O7	O	-0.196552	-1.150963	0.090274
O8	O	0.017970	-1.097380	-0.152179
O9	O	-0.169464	-1.284605	-0.051504
O10	O	0.038494	-1.198638	-0.259602
O11	O	-0.115755	-1.070256	0.046876
O12	O	-0.142725	-0.936707	-0.151996
O13	O	-0.216868	-1.049868	-0.401058
O14	O	-0.243956	-0.916226	-0.259280
O15	O	-0.095113	-1.171607	-0.401197
O16	O	-0.330158	-1.123932	-0.051321
O17	O	-0.350593	-1.022744	-0.202003
C18	C	-0.199390	-0.896565	-0.212028
C19	C	-0.217942	-0.804965	-0.231621
C20	C	-0.015071	-0.556981	-0.017396
C21	C	-0.032519	-0.470905	-0.035818
C22	C	-0.138077	-0.449603	-0.147270
C23	C	-0.120634	-0.535680	-0.128862
C24	C	-0.059131	-0.589362	-0.063923
C25	C	-0.164694	-0.568061	-0.175389
C26	C	-0.147256	-0.654129	-0.156978
C27	C	-0.085757	-0.707816	-0.092040
C28	C	-0.041692	-0.675431	-0.045512
C29	C	-0.226202	-0.514376	-0.240322
C30	C	-0.270262	-0.546757	-0.286849
C31	C	-0.252819	-0.632828	-0.268444
C32	C	-0.191321	-0.686515	-0.203505
C33	C	-0.296884	-0.665214	-0.314971
C34	C	-0.279445	-0.751282	-0.296560
C35	C	-0.173882	-0.772583	-0.185094
C36	C	-0.370288	-1.067300	-0.120250
C37	C	-0.461915	-1.048820	-0.100578
C38	C	-0.601805	-0.970089	-0.016848
C39	C	-0.515707	-0.987459	-0.035340
C40	C	-0.494207	-1.092839	-0.147348
C41	C	-0.580305	-1.075480	-0.128862
C42	C	-0.634098	-1.014103	-0.063612
C43	C	-0.612597	-1.119495	-0.175626
C44	C	-0.698689	-1.102134	-0.157146
C45	C	-0.752487	-1.040758	-0.091902
C46	C	-0.720189	-0.996742	-0.045132
C47	C	-0.558804	-1.180867	-0.240881
C48	C	-0.591096	-1.224881	-0.287645
C49	C	-0.677188	-1.207525	-0.269159
C50	C	-0.730987	-1.146150	-0.203915
C51	C	-0.709486	-1.251541	-0.315928
C52	C	-0.795578	-1.234180	-0.297448
C53	C	-0.817078	-1.128789	-0.185435
C54	C	0.058985	-1.154239	-0.212501
C55	C	0.150629	-1.172804	-0.232199
C56	C	-0.155977	-1.110748	-0.440315
C57	C	-0.155936	-1.110780	-0.557094
C58	C	-0.112574	-0.325620	-0.120338
C59	C	-0.094012	-0.417223	-0.100740
C60	C	-0.113852	-1.068776	-0.634551
C61	C	-0.113823	-1.068801	-0.744277
C62	C	-0.197963	-1.152838	-0.699077
C63	C	-0.197997	-1.152809	-0.589354
C64	C	-0.156097	-1.110659	0.106694
C65	C	-0.155873	-1.110834	0.223457
H66	H	0.008402	-0.719145	0.007349
F67	F	-0.467224	-1.199114	-0.260887
F68	F	-0.108417	-0.829723	-0.115986
H69	H	-0.079604	-1.034553	-0.608290
H70	H	-0.232207	-1.187058	-0.725356
F71	F	0.050394	-0.614120	0.051711
H72	H	-0.822589	-1.026619	-0.076865
F73	F	-0.069041	-1.024084	-0.826709
F74	F	-0.874332	-1.063473	-0.115975
F75	F	-0.777443	-0.931427	0.024328
H76	H	-0.320340	-0.503037	-0.339718
H77	H	-0.232270	-1.187014	-0.526283
F78	F	-0.067201	-0.799419	-0.072438
F79	F	-0.203540	-0.392461	-0.216368
H80	H	-0.645607	-0.920114	0.036291
H81	H	0.003370	-0.444547	0.002066
F82	F	-0.481342	-0.940611	0.014444
H83	H	-0.240398	-0.444294	-0.255310
H84	H	-0.547289	-1.274853	-0.340775
F85	F	-0.362351	-0.608068	-0.384062
H86	H	-0.450399	-1.142810	-0.200478
F87	F	-0.326341	-0.785746	-0.346077
H88	H	-0.665678	-1.301508	-0.369063
H89	H	-0.821872	-1.270012	-0.335542
