data_functionalizedCrystal
_audit_creation_method	'MofGen! by Chris Wilmer'
_symmetry_space_group_name_H-M	'P1'
_symmetry_Int_Tables_number	1
_symmetry_cell_setting	triclinic
loop_
_symmetry_equiv_pos_as_xyz
  x,y,z
_cell_length_a	19.805407
_cell_length_b	19.805405
_cell_length_c	17.077396
_cell_angle_alpha	89.968350
_cell_angle_beta	89.979457
_cell_angle_gamma	90.026410
loop_
_atom_site_label
_atom_site_type_symbol
_atom_site_fract_x
_atom_site_fract_y
_atom_site_fract_z
Zn1	Zn	1.034742	-0.269463	-0.443847
Zn2	Zn	1.368075	0.063870	-0.110514
Zn3	Zn	1.701409	0.397203	0.222819
Zn4	Zn	1.034655	-0.382656	-0.312574
Zn5	Zn	1.367988	-0.049323	0.020759
Zn6	Zn	1.701322	0.284010	0.354093
Zn7	Zn	0.921555	-0.269486	-0.312593
Zn8	Zn	1.254888	0.063847	0.020741
Zn9	Zn	1.588222	0.397180	0.354074
Zn10	Zn	0.921520	-0.382616	-0.443795
Zn11	Zn	1.254854	-0.049282	-0.110462
Zn12	Zn	1.588187	0.284051	0.222871
O13	O	0.978118	-0.326055	-0.378202
O14	O	1.311451	0.007278	-0.044869
O15	O	1.644785	0.340611	0.288464
O16	O	1.129447	-0.284486	-0.426447
O17	O	1.462780	0.048848	-0.093114
O18	O	1.796114	0.382181	0.240219
O19	O	1.019630	-0.367671	-0.202729
O20	O	1.352963	-0.034337	0.130604
O21	O	1.686297	0.298996	0.463937
O22	O	0.936620	-0.174767	-0.330034
O23	O	1.269954	0.158567	0.003300
O24	O	1.603287	0.491900	0.336633
O25	O	1.129383	-0.367648	-0.330002
O26	O	1.462717	-0.034315	0.003332
O27	O	1.796050	0.299019	0.336665
O28	O	1.019779	-0.174750	-0.426466
O29	O	1.353112	0.158584	-0.093132
O30	O	1.686445	0.491917	0.240201
O31	O	0.936536	-0.284525	-0.202743
O32	O	1.269869	0.048808	0.130590
O33	O	1.603203	0.382141	0.463923
O34	O	0.826834	-0.284486	-0.329983
O35	O	1.160167	0.048847	0.003350
O36	O	1.493500	0.382181	0.336684
O37	O	0.936561	-0.367579	-0.553649
O38	O	1.269895	-0.034246	-0.220316
O39	O	1.603228	0.299088	0.113018
O40	O	0.826808	-0.367602	-0.426377
O41	O	1.160142	-0.034268	-0.093044
O42	O	1.493475	0.299065	0.240290
O43	O	1.019745	-0.284446	-0.553687
O44	O	1.353078	0.048887	-0.220354
O45	O	1.686412	0.382220	0.112979
O46	O	1.019597	-0.477367	-0.329951
O47	O	1.352930	-0.144034	0.003382
O48	O	1.686263	0.189299	0.336716
O49	O	0.936477	-0.477338	-0.426359
O50	O	1.269810	-0.144004	-0.093025
O51	O	1.603144	0.189329	0.240308
C52	C	0.802262	-0.326042	-0.378177
C53	C	1.135595	0.007291	-0.044844
C54	C	1.468929	0.340624	0.288490
C55	C	0.727030	-0.326053	-0.378185
C56	C	1.060363	0.007280	-0.044851
C57	C	1.393697	0.340614	0.288482
C58	C	0.691690	-0.369397	-0.428296
C59	C	1.025024	-0.036063	-0.094962
C60	C	1.358357	0.297270	0.238371
C61	C	0.621002	-0.369398	-0.428307
C62	C	0.954335	-0.036064	-0.094973
C63	C	1.287669	0.297269	0.238360
C64	C	0.585655	-0.326058	-0.378202
C65	C	0.918988	0.007275	-0.044869
C66	C	1.252321	0.340608	0.288464
C67	C	0.620999	-0.282710	-0.328089
C68	C	0.954332	0.050623	0.005244
C69	C	1.287666	0.383956	0.338578
C70	C	0.691686	-0.282706	-0.328083
C71	C	1.025020	0.050627	0.005251
C72	C	1.358353	0.383960	0.338584
C73	C	0.335926	-0.282725	-0.328115
C74	C	0.669259	0.050608	0.005218
C75	C	1.002593	0.383941	0.338552
C76	C	0.265234	-0.282734	-0.328124
C77	C	0.598567	0.050599	0.005210
C78	C	0.931900	0.383933	0.338543
C79	C	0.265242	-0.369417	-0.428339
C80	C	0.598575	-0.036083	-0.095006
C81	C	0.931908	0.297250	0.238327
C82	C	0.335929	-0.369413	-0.428333
C83	C	0.669262	-0.036079	-0.094999
C84	C	1.002595	0.297254	0.238334
C85	C	0.371267	-0.326062	-0.378223
C86	C	0.704600	0.007271	-0.044889
C87	C	1.037934	0.340604	0.288444
C88	C	0.447916	-0.326061	-0.378212
C89	C	0.781249	0.007273	-0.044879
C90	C	1.114582	0.340606	0.288454
C91	C	0.509007	-0.326063	-0.378208
C92	C	0.842341	0.007270	-0.044875
C93	C	1.175674	0.340604	0.288459
C94	C	0.978042	-0.501911	-0.378164
C95	C	1.311375	-0.168578	-0.044831
C96	C	1.644709	0.164755	0.288502
C97	C	0.978071	-0.577143	-0.378174
C98	C	1.311405	-0.243810	-0.044841
C99	C	1.644738	0.089523	0.288492
C100	C	1.021394	-0.612481	-0.328027
C101	C	1.354727	-0.279147	0.005306
C102	C	1.688060	0.054186	0.338639
C103	C	1.021422	-0.683169	-0.328045
C104	C	1.354756	-0.349836	0.005289
C105	C	1.688089	-0.016502	0.338622
C106	C	0.978125	-0.718519	-0.378206
C107	C	1.311458	-0.385186	-0.044872
C108	C	1.644792	-0.051852	0.288461
C109	C	0.934801	-0.683177	-0.428358
C110	C	1.268134	-0.349843	-0.095025
C111	C	1.601467	-0.016510	0.238309
C112	C	0.934776	-0.612490	-0.428344
C113	C	1.268109	-0.279156	-0.095011
C114	C	1.601442	0.054177	0.238323
C115	C	0.934900	-0.968250	-0.428416
C116	C	1.268234	-0.634917	-0.095083
C117	C	1.601567	-0.301583	0.238250
C118	C	0.934927	-1.038942	-0.428425
C119	C	1.268260	-0.705609	-0.095091
C120	C	1.601594	-0.372275	0.238242
C121	C	1.021547	-1.038929	-0.328117
C122	C	1.354880	-0.705596	0.005216
C123	C	1.688214	-0.372263	0.338550
C124	C	1.021522	-0.968242	-0.328103
C125	C	1.354856	-0.634909	0.005230
C126	C	1.688189	-0.301576	0.338564
C127	C	0.978201	-0.932906	-0.378258
C128	C	1.311534	-0.599573	-0.044925
C129	C	1.644867	-0.266240	0.288409
C130	C	0.978171	-0.856258	-0.378240
C131	C	1.311504	-0.522925	-0.044906
C132	C	1.644838	-0.189591	0.288427
C133	C	0.978151	-0.795166	-0.378221
C134	C	1.311484	-0.461833	-0.044887
C135	C	1.644817	-0.128499	0.288446
C136	C	1.154661	-0.326069	-0.378228
C137	C	1.487994	0.007264	-0.044895
C138	C	1.821327	0.340598	0.288438
C139	C	1.229893	-0.326075	-0.378239
C140	C	1.563226	0.007259	-0.044906
C141	C	1.896559	0.340592	0.288427
C142	C	0.978159	-0.326005	-0.582947
C143	C	1.311492	0.007328	-0.249613
C144	C	1.644826	0.340661	0.083720
C145	C	0.978177	-0.325984	-0.670197
C146	C	1.311510	0.007349	-0.336863
C147	C	1.644843	0.340682	-0.003530
C148	C	0.978213	-0.149513	-0.378258
C149	C	1.311546	0.183821	-0.044924
C150	C	1.644880	0.517154	0.288409
C151	C	0.978253	-0.074281	-0.378281
C152	C	1.311587	0.259053	-0.044948
C153	C	1.644920	0.592386	0.288385
C154	C	1.021492	-0.282694	-0.711208
C155	C	1.354825	0.050640	-0.377875
C156	C	1.688158	0.383973	-0.044541
C157	C	1.021500	-0.282671	-0.793188
C158	C	1.354833	0.050662	-0.459855
C159	C	1.688167	0.383996	-0.126522
C160	C	0.978196	-0.325943	-0.834156
C161	C	1.311529	0.007390	-0.500823
C162	C	1.644862	0.340724	-0.167489
C163	C	0.934876	-0.369236	-0.793139
C164	C	1.268209	-0.035902	-0.459806
C165	C	1.601542	0.297431	-0.126472
C166	C	0.934865	-0.369254	-0.711160
C167	C	1.268198	-0.035921	-0.377827
C168	C	1.601531	0.297412	-0.044493
C169	C	0.934903	-0.369195	-0.964009
C170	C	1.268236	-0.035862	-0.630676
C171	C	1.601570	0.297472	-0.297342
C172	C	0.934915	-0.369178	-1.045994
C173	C	1.268248	-0.035844	-0.712660
C174	C	1.601581	0.297489	-0.379327
C175	C	1.021538	-0.282612	-1.046038
C176	C	1.354872	0.050722	-0.712704
C177	C	1.688205	0.384055	-0.379371
C178	C	1.021527	-0.282630	-0.964059
C179	C	1.354861	0.050703	-0.630725
C180	C	1.688194	0.384036	-0.297392
C181	C	0.978208	-0.325924	-0.923047
C182	C	1.311541	0.007409	-0.589714
C183	C	1.644875	0.340743	-0.256380
C184	C	0.978116	-0.326056	-0.174254
C185	C	1.311450	0.007277	0.159079
C186	C	1.644783	0.340610	0.492412
C187	C	0.978230	-0.325887	-0.087005
C188	C	1.311563	0.007447	0.246328
C189	C	1.644897	0.340780	0.579662
H190	H	0.364705	-0.404706	-0.469130
H191	H	0.698038	-0.071373	-0.135797
H192	H	1.031372	0.261960	0.197536
O193	O	0.729800	-0.235958	-0.274026
O194	O	1.063133	0.097375	0.059307
O195	O	1.396466	0.430708	0.392640
H196	H	0.762027	-0.201553	-0.309228
H197	H	1.095360	0.131781	0.024105
H198	H	1.428693	0.465114	0.357438
O199	O	1.068096	-0.574354	-0.273928
O200	O	1.401430	-0.241020	0.059405
O201	O	1.734763	0.092313	0.392738
H202	H	1.098231	-0.610805	-0.239068
H203	H	1.431565	-0.277471	0.094265
H204	H	1.764898	0.055862	0.427599
O205	O	1.068144	-0.721285	-0.273954
O206	O	1.401478	-0.387952	0.059380
O207	O	1.734811	-0.054619	0.392713
H208	H	1.098240	-0.684829	-0.239063
H209	H	1.431573	-0.351496	0.094270
H210	H	1.764907	-0.018162	0.427603
O211	O	0.888050	-0.574371	-0.482431
O212	O	1.221383	-0.241037	-0.149097
O213	O	1.554717	0.092296	0.184236
H214	H	0.853625	-0.542210	-0.447253
H215	H	1.186959	-0.208877	-0.113919
H216	H	1.520292	0.124457	0.219414
H217	H	0.720465	-0.404691	-0.469094
H218	H	1.053799	-0.071357	-0.135761
H219	H	1.387132	0.261976	0.197573
O220	O	1.068256	-0.235912	-1.090272
O221	O	1.401590	0.097421	-0.756938
O222	O	1.734923	0.430754	-0.423605
H223	H	1.121370	-0.247536	-1.074555
H224	H	1.454703	0.085797	-0.741221
H225	H	1.788037	0.419131	-0.407888
H226	H	0.236460	-0.404712	-0.469144
H227	H	0.569794	-0.071379	-0.135811
H228	H	0.903127	0.261954	0.197523
H229	H	1.056757	-0.247458	-0.677858
H230	H	1.390091	0.085875	-0.344525
H231	H	1.723424	0.419208	-0.011191
O232	O	0.582956	-0.416210	-0.482349
O233	O	0.916289	-0.082877	-0.149015
O234	O	1.249622	0.250456	0.184318
H235	H	0.550769	-0.386035	-0.522417
H236	H	0.884103	-0.052701	-0.189084
H237	H	1.217436	0.280632	0.144249
O238	O	0.582874	-0.235964	-0.274050
O239	O	0.916207	0.097370	0.059283
O240	O	1.249541	0.430703	0.392616
H241	H	0.619326	-0.205818	-0.239210
H242	H	0.952659	0.127515	0.094124
H243	H	1.285992	0.460848	0.427457
H244	H	1.056773	-0.247421	-0.826576
H245	H	1.390107	0.085912	-0.493243
H246	H	1.723440	0.419246	-0.159910
O247	O	0.888225	-1.077066	-0.482535
O248	O	1.221558	-0.743733	-0.149202
O249	O	1.554892	-0.410400	0.184132
H250	H	0.853811	-1.109313	-0.447369
H251	H	1.187144	-0.775980	-0.114036
H252	H	1.520478	-0.442646	0.219298
O253	O	0.227104	-0.235982	-0.274087
O254	O	0.560438	0.097352	0.059246
O255	O	0.893771	0.430685	0.392579
H256	H	0.263552	-0.205831	-0.239248
H257	H	0.596886	0.127503	0.094086
H258	H	0.930219	0.460836	0.427419
H259	H	0.364690	-0.247432	-0.287306
H260	H	0.698023	0.085901	0.046027
H261	H	1.031357	0.419235	0.379360
H262	H	1.056777	-0.939463	-0.287255
H263	H	1.390110	-0.606129	0.046079
H264	H	1.723443	-0.272796	0.379412
H265	H	1.056824	-1.067708	-0.287281
H266	H	1.390158	-0.734375	0.046052
H267	H	1.723491	-0.401042	0.379385
H268	H	0.899625	-0.939485	-0.469253
H269	H	1.232959	-0.606152	-0.135919
H270	H	1.566292	-0.272818	0.197414
O271	O	1.068235	-0.235963	-0.919867
O272	O	1.401569	0.097370	-0.586533
O273	O	1.734902	0.430703	-0.253200
H274	H	1.098357	-0.205852	-0.962155
H275	H	1.431690	0.127482	-0.628822
H276	H	1.765023	0.460815	-0.295489
O277	O	0.888091	-0.721299	-0.482454
O278	O	1.221424	-0.387966	-0.149120
O279	O	1.554758	-0.054632	0.184213
H280	H	0.895378	-0.776389	-0.474031
H281	H	1.228711	-0.443056	-0.140697
H282	H	1.562044	-0.109723	0.192636
H283	H	0.899651	-0.404412	-1.079347
H284	H	1.232984	-0.071079	-0.746014
H285	H	1.566318	0.262255	-0.412681
O286	O	0.888177	-0.415885	-0.919770
O287	O	1.221510	-0.082551	-0.586437
O288	O	1.554843	0.250782	-0.253104
H289	H	0.858069	-0.445975	-0.962029
H290	H	1.191403	-0.112642	-0.628695
H291	H	1.524736	0.220692	-0.295362
H292	H	0.899614	-0.404466	-0.826501
H293	H	1.232947	-0.071133	-0.493168
H294	H	1.566281	0.262200	-0.159835
H295	H	0.899586	-0.404499	-0.677770
H296	H	1.232919	-0.071166	-0.344436
H297	H	1.566253	0.262167	-0.011103
