data_functionalizedCrystal
_audit_creation_method	'MofGen! by Chris Wilmer'
_symmetry_space_group_name_H-M	'P1'
_symmetry_Int_Tables_number	1
_symmetry_cell_setting	triclinic
loop_
_symmetry_equiv_pos_as_xyz
  x,y,z
_cell_length_a	6.817900
_cell_length_b	19.551136
_cell_length_c	9.514088
_cell_angle_alpha	92.292231
_cell_angle_beta	118.843545
_cell_angle_gamma	101.650842
loop_
_atom_site_label
_atom_site_type_symbol
_atom_site_fract_x
_atom_site_fract_y
_atom_site_fract_z
V1	V	-4.208640	-0.097917	-0.501544
O2	O	-4.201672	0.003431	-0.491183
O3	O	-4.150275	-0.192928	-0.498897
O4	O	-4.243503	-0.096970	-0.719928
O5	O	-4.107799	-0.093191	-0.268622
V6	V	-4.682770	-0.085729	-0.473590
O7	O	-4.490502	-0.124654	-0.562864
O8	O	-4.851104	-0.058992	-0.412269
O9	O	-4.517928	0.009281	-0.476237
O10	O	-4.807135	-0.187077	-0.483951
O11	O	-4.901008	-0.090455	-0.706512
O12	O	-4.424700	-0.086676	-0.255206
C13	C	-3.990158	-0.216072	-0.491186
C14	C	-4.024280	-0.293747	-0.490478
C15	C	-3.944977	-0.319873	-0.342965
C16	C	-3.977091	-0.392855	-0.342250
C17	C	-4.088471	-0.439710	-0.489053
C18	C	-4.167794	-0.413577	-0.636586
C19	C	-4.135698	-0.340596	-0.637298
C20	C	-4.093566	-0.560984	-0.595498
C21	C	-4.125644	-0.633963	-0.594779
C22	C	-4.187477	-0.664808	-0.486864
C23	C	-4.217183	-0.622663	-0.379639
C24	C	-4.185088	-0.549682	-0.380351
C25	C	-4.123285	-0.518847	-0.488298
C26	C	-4.142992	-0.770069	-0.338566
C27	C	-4.175123	-0.843054	-0.337857
C28	C	-4.365807	-0.863774	-0.632196
C29	C	-4.333695	-0.790791	-0.632902
C30	C	-4.222276	-0.743942	-0.486081
C31	C	-4.109077	-0.093668	-0.773131
C32	C	-4.218800	-0.093522	-0.951666
C33	C	-4.341385	0.032422	-0.483943
C34	C	-4.286505	0.110097	-0.484662
C35	C	-4.222464	-0.089981	-0.201994
C36	C	-4.091980	-0.090123	-0.023457
H37	H	-4.398258	-0.769520	-0.753022
H38	H	-3.854268	-0.281733	-0.223413
H39	H	-4.200286	-0.319327	-0.757424
H40	H	-3.912507	-0.414131	-0.222124
H41	H	-4.209283	-0.515371	-0.293047
H42	H	-4.267510	-0.647774	-0.291753
C43	C	-4.020463	-0.718531	-0.177072
C44	C	-3.933263	-0.747273	-0.014805
C45	C	-3.810737	-0.695737	0.146689
C46	C	-3.775410	-0.615460	0.145915
C47	C	-3.862612	-0.586714	-0.016359
C48	C	-3.985138	-0.638250	-0.177853
H49	H	-3.959412	-0.806702	-0.014226
H50	H	-3.746184	-0.717017	0.266814
H51	H	-3.684709	-0.577310	0.265462
H52	H	-3.836463	-0.527284	-0.016938
H53	H	-4.049690	-0.616970	-0.297978
H54	H	-4.110554	-0.864323	-0.217730
H55	H	-3.899468	-0.087330	-0.948339
H56	H	-4.456496	-0.901922	-0.751727
C57	C	-4.025545	-0.527056	-0.714210
C58	C	-3.797633	-0.469493	-0.648295
C59	C	-3.729619	-0.435565	-0.767003
C60	C	-3.889516	-0.459198	-0.951627
C61	C	-4.117443	-0.516763	-1.017551
C62	C	-4.185457	-0.550692	-0.898843
H63	H	-3.679254	-0.451996	-0.511617
H64	H	-3.560891	-0.392951	-0.718200
H65	H	-3.839168	-0.434082	-1.039501
H66	H	-4.235822	-0.534261	-1.154229
H67	H	-4.354184	-0.593305	-0.947646
H68	H	-4.101446	-0.668272	-0.682084
H69	H	-4.258484	-0.451730	-0.756114
H70	H	-4.411331	-0.096323	-1.026797
