data_functionalizedCrystal
_audit_creation_method	'MofGen! by Chris Wilmer'
_symmetry_space_group_name_H-M	'P1'
_symmetry_Int_Tables_number	1
_symmetry_cell_setting	triclinic
loop_
_symmetry_equiv_pos_as_xyz
  x,y,z
_cell_length_a	23.532407
_cell_length_b	14.971500
_cell_length_c	22.610064
_cell_angle_alpha	89.991753
_cell_angle_beta	89.997161
_cell_angle_gamma	96.765752
loop_
_atom_site_label
_atom_site_type_symbol
_atom_site_fract_x
_atom_site_fract_y
_atom_site_fract_z
O1	O	-0.755732	0.108566	0.049106
O2	O	-0.589936	0.124276	0.049122
O3	O	-0.677274	-0.013825	0.049116
O4	O	-0.668395	0.246667	0.049112
O5	O	-0.677258	-0.013805	-0.049253
O6	O	-0.589921	0.124296	-0.049247
O7	O	-0.755716	0.108586	-0.049264
Zn8	Zn	-0.672816	0.116444	-0.064873
Zn9	Zn	-0.672837	0.116418	0.064732
O10	O	-0.668379	0.246687	-0.049257
C11	C	-0.568711	0.123886	-0.000060
C12	C	-0.505489	0.122683	-0.000054
C13	C	-0.676868	-0.047136	-0.000067
C14	C	-0.675673	-0.146419	-0.000061
C15	C	-0.776942	0.108976	-0.000080
C16	C	-0.840164	0.110179	-0.000083
C17	C	-0.106706	0.196864	-0.000081
C18	C	-0.047301	0.195747	-0.000085
O19	O	-0.010853	0.264514	-0.000108
N20	N	-0.024320	0.113646	-0.000083
C21	C	-0.060748	0.032657	-0.000083
O22	O	-0.035747	-0.037279	-0.000082
C23	C	-0.120152	0.033775	-0.000084
C24	C	-0.143129	0.115882	-0.000080
C25	C	-0.129683	0.278964	-0.000078
C26	C	-0.189084	0.280081	-0.000074
C27	C	-0.225508	0.199098	-0.000072
C28	C	-0.202530	0.116998	-0.000075
C29	C	-0.156579	-0.047213	-0.000088
C30	C	-0.215987	-0.046088	-0.000089
C31	C	-0.238963	0.036019	-0.000085
C32	C	-0.298355	0.037133	-0.000069
N33	N	-0.321335	0.119234	-0.000071
C34	C	-0.284911	0.200217	-0.000073
C35	C	0.064004	0.030314	-0.000083
C36	C	0.123407	0.029195	-0.000078
C37	C	0.136851	0.192286	-0.000081
C38	C	0.077447	0.193404	-0.000082
C39	C	0.041024	0.112416	-0.000085
C40	C	-0.409658	0.202556	-0.000062
C41	C	-0.469065	0.203666	-0.000055
C42	C	-0.482504	0.040576	-0.000055
C43	C	-0.423102	0.039466	-0.000059
C44	C	-0.386680	0.120463	-0.000065
O45	O	-0.334837	-0.031598	-0.000049
O46	O	-0.309921	0.270141	-0.000081
C47	C	-0.668785	0.279997	-0.000073
C48	C	-0.669980	0.379281	-0.000075
N49	N	-0.672807	0.116462	-0.153326
C50	C	-0.675120	0.806924	0.053559
C51	C	-0.673997	0.713637	0.053557
C52	C	-0.673431	0.667007	-0.000066
C53	C	-0.673982	0.713670	-0.053690
C54	C	-0.675101	0.806957	-0.053688
C55	C	-0.671651	0.519231	-0.053692
C56	C	-0.670533	0.425938	-0.053695
C57	C	-0.670546	0.425911	0.053552
C58	C	-0.671666	0.519197	0.053555
C59	C	-0.672218	0.565854	-0.000070
C60	C	-0.711511	0.055276	-0.561970
C61	C	-0.711514	0.055269	-0.623890
O62	O	-0.744398	0.003260	-0.655911
N63	N	-0.672836	0.116399	-0.654863
C64	C	-0.634149	0.177533	-0.623913
O65	O	-0.601250	0.229528	-0.655944
C66	C	-0.634144	0.177535	-0.561994
C67	C	-0.672828	0.116407	-0.531024
C68	C	-0.750192	-0.005848	-0.531000
C69	C	-0.750190	-0.005840	-0.469085
C70	C	-0.711507	0.055291	-0.438139
C71	C	-0.672826	0.116415	-0.469109
C72	C	-0.595454	0.238664	-0.531045
C73	C	-0.595452	0.238660	-0.469122
C74	C	-0.634136	0.177532	-0.438152
C75	C	-0.634140	0.177554	-0.376247
N76	N	-0.672818	0.116424	-0.345274
C77	C	-0.711502	0.055293	-0.376220
C78	C	-0.634162	0.177524	-0.753947
C79	C	-0.634169	0.177528	-0.815864
C80	C	-0.711534	0.055262	-0.815837
C81	C	-0.711529	0.055264	-0.753918
C82	C	-0.672840	0.116395	-0.722974
C83	C	-0.711494	0.055314	-0.246193
C84	C	-0.711490	0.055330	-0.184272
C85	C	-0.634123	0.177592	-0.184304
C86	C	-0.634129	0.177580	-0.246220
C87	C	-0.672817	0.116434	-0.277163
O88	O	-0.601271	0.229534	-0.344187
O89	O	-0.744390	0.003299	-0.344182
N90	N	-0.672851	0.116393	0.153185
H91	H	-0.487769	0.270530	-0.000052
H92	H	-0.742993	0.005553	-0.159058
H93	H	-0.672131	0.557160	0.097220
H94	H	-0.100032	0.344914	-0.000082
H95	H	-0.673549	0.675652	0.097220
H96	H	-0.670067	0.387975	-0.097360
H97	H	-0.602634	0.227365	-0.271436
H98	H	-0.602629	0.227367	-0.159099
H99	H	-0.670096	0.387919	0.097216
H100	H	-0.742996	0.005523	-0.271379
H101	H	-0.672088	0.557219	-0.097359
H102	H	-0.602675	0.227313	-0.841076
H103	H	-0.673518	0.675697	-0.097351
H104	H	-0.781689	-0.055618	-0.443873
H105	H	0.142109	-0.037664	-0.000072
H106	H	-0.380010	0.268512	-0.000069
H107	H	0.058744	0.260262	-0.000082
H108	H	-0.675544	0.844945	-0.097351
H109	H	-0.602658	0.227312	-0.728754
H110	H	-0.781693	-0.055633	-0.556191
H111	H	-0.563944	0.288439	-0.443930
H112	H	-0.743029	0.005488	-0.728706
H113	H	0.166518	0.258226	-0.000085
H114	H	-0.675584	0.844883	0.097225
H115	H	-0.743032	0.005484	-0.841044
H116	H	-0.563953	0.288439	-0.556252
H117	H	0.034351	-0.035640	-0.000080
H118	H	-0.207786	0.346941	-0.000070
H119	H	-0.137882	-0.114073	-0.000092
H120	H	-0.404394	-0.027392	-0.000054
H121	H	-0.245640	-0.112040	-0.000092
H122	H	-0.512170	-0.025358	-0.000052
