data_functionalizedCrystal
_audit_creation_method	'MofGen! by Chris Wilmer'
_symmetry_space_group_name_H-M	'P1'
_symmetry_Int_Tables_number	1
_symmetry_cell_setting	triclinic
loop_
_symmetry_equiv_pos_as_xyz
  x,y,z
_cell_length_a	14.519709
_cell_length_b	17.038272
_cell_length_c	13.596369
_cell_angle_alpha	89.993837
_cell_angle_beta	90.000291
_cell_angle_gamma	87.395851
loop_
_atom_site_label
_atom_site_type_symbol
_atom_site_fract_x
_atom_site_fract_y
_atom_site_fract_z
O1	O	1.231711	0.102502	-0.081664
O2	O	0.964158	0.114573	-0.081694
O3	O	1.096344	-0.005280	-0.081671
O4	O	1.099525	0.222356	-0.081686
O5	O	1.096330	-0.005286	0.081912
O6	O	0.964143	0.114567	0.081889
O7	O	1.231696	0.102496	0.081919
Zn8	Zn	1.097918	0.108530	0.107877
Zn9	Zn	1.097937	0.108539	-0.107651
O10	O	1.099510	0.222349	0.081897
C11	C	0.929748	0.114008	0.000094
C12	C	0.827237	0.112322	0.000083
C13	C	0.451867	0.106116	0.000128
C14	C	0.556307	0.107839	0.000115
C15	C	0.639549	0.109219	0.000104
C16	C	0.743995	0.110942	0.000093
C17	C	1.093444	-0.034416	0.000120
C18	C	1.084814	-0.121223	0.000119
C19	C	1.164047	-0.171209	0.000129
C20	C	1.155933	-0.252773	0.000118
C21	C	1.068585	-0.284349	0.000105
C22	C	0.989347	-0.234357	0.000092
C23	C	0.997462	-0.152795	0.000096
C24	C	1.039916	-0.530153	0.000089
C25	C	1.031807	-0.611722	0.000088
C26	C	1.198394	-0.630132	0.000112
C27	C	1.206502	-0.548568	0.000122
C28	C	1.127263	-0.498583	0.000104
C29	C	1.060289	-0.367720	0.000098
C30	C	1.135560	-0.415213	0.000104
C31	C	1.266107	0.103062	0.000129
C32	C	1.368617	0.104748	0.000134
C33	C	1.102410	0.251486	0.000103
C34	C	1.111040	0.338292	0.000098
N35	N	1.097911	0.108524	0.254968
N36	N	1.097950	0.108539	-0.254743
C37	C	1.097936	0.108540	0.656259
C38	C	1.097926	0.108538	0.544608
C39	C	1.097924	0.108533	0.455617
C40	C	1.097913	0.108530	0.343959
H41	H	1.220453	-0.293468	0.000129
C42	C	0.952757	-0.475180	0.000086
H43	H	0.899576	-0.505670	0.000091
H44	H	0.952456	-0.442972	-0.056956
H45	H	0.952458	-0.442989	0.057141
H46	H	1.262906	-0.670838	0.000125
C47	C	1.260130	-0.136482	0.000143
H48	H	1.306155	-0.177937	0.000138
H49	H	1.266756	-0.105053	0.057189
H50	H	1.266763	-0.105043	-0.056908
C51	C	1.302584	-0.513839	0.000123
H52	H	1.348612	-0.555292	0.000117
H53	H	1.309211	-0.482408	0.057167
H54	H	1.309211	-0.482402	-0.056930
C55	C	1.231639	-0.380485	0.000120
H56	H	1.277670	-0.421934	0.000122
H57	H	1.238253	-0.349054	0.057166
H58	H	1.238272	-0.349047	-0.056931
C59	C	0.910306	-0.097810	0.000087
H60	H	0.857122	-0.128296	0.000087
H61	H	0.910016	-0.065605	-0.056957
H62	H	0.910003	-0.065616	0.057140
C63	C	0.935723	-0.646458	0.000074
H64	H	0.942242	-0.702192	0.000087
H65	H	0.902832	-0.629309	-0.056976
H66	H	0.902824	-0.629312	0.057121
C67	C	0.893266	-0.269089	0.000081
H68	H	0.899779	-0.324823	0.000091
H69	H	0.860375	-0.251935	-0.056967
H70	H	0.860372	-0.251942	0.057130
H71	H	0.989170	-0.393438	0.000089
