data_functionalizedCrystal
_audit_creation_method	'MofGen! by Chris Wilmer'
_symmetry_space_group_name_H-M	'P1'
_symmetry_Int_Tables_number	1
_symmetry_cell_setting	triclinic
loop_
_symmetry_equiv_pos_as_xyz
  x,y,z
_cell_length_a	21.295419
_cell_length_b	21.295417
_cell_length_c	21.295412
_cell_angle_alpha	89.968813
_cell_angle_beta	89.983579
_cell_angle_gamma	90.045308
loop_
_atom_site_label
_atom_site_type_symbol
_atom_site_fract_x
_atom_site_fract_y
_atom_site_fract_z
Zn1	Zn	0.962305	-0.250373	-0.355911
Zn2	Zn	1.462305	0.249627	0.144089
Zn3	Zn	0.962222	-0.355642	-0.250637
Zn4	Zn	1.462222	0.144358	0.249363
Zn5	Zn	0.857043	-0.250418	-0.250656
Zn6	Zn	1.357043	0.249582	0.249344
Zn7	Zn	0.856998	-0.355636	-0.355868
Zn8	Zn	1.356998	0.144364	0.144132
O9	O	0.909642	-0.303017	-0.303268
O10	O	1.409642	0.196983	0.196732
O11	O	1.050384	-0.264321	-0.341956
O12	O	1.550384	0.235679	0.158044
O13	O	0.948255	-0.341706	-0.162550
O14	O	1.448255	0.158294	0.337450
O15	O	0.871060	-0.162323	-0.264645
O16	O	1.371060	0.337677	0.235355
O17	O	1.050323	-0.341662	-0.264611
O18	O	1.550323	0.158338	0.235389
O19	O	0.948396	-0.162290	-0.341975
O20	O	1.448396	0.337710	0.158025
O21	O	0.870980	-0.264398	-0.162564
O22	O	1.370980	0.235602	0.337436
O23	O	0.768948	-0.264392	-0.264603
O24	O	1.268948	0.235608	0.235397
O25	O	0.870983	-0.341650	-0.443963
O26	O	1.370983	0.158350	0.056037
O27	O	0.768914	-0.341694	-0.341902
O28	O	1.268914	0.158306	0.158098
O29	O	0.948351	-0.264315	-0.443995
O30	O	1.448351	0.235685	0.056005
O31	O	0.948211	-0.443731	-0.264570
O32	O	1.448211	0.056269	0.235430
O33	O	0.870902	-0.443726	-0.341883
O34	O	1.370902	0.056274	0.158117
C35	C	0.746091	-0.303048	-0.303250
C36	C	1.246091	0.196952	0.196750
C37	C	0.676122	-0.303076	-0.303258
C38	C	1.176122	0.196924	0.196742
C39	C	0.643310	-0.262870	-0.343593
C40	C	1.143310	0.237130	0.156407
C41	C	0.577567	-0.262853	-0.343596
C42	C	1.077567	0.237147	0.156404
C43	C	0.544640	-0.303053	-0.303269
C44	C	1.044640	0.196947	0.196731
C45	C	0.577460	-0.343261	-0.262926
C46	C	1.077460	0.156739	0.237074
C47	C	0.643202	-0.343273	-0.262920
C48	C	1.143202	0.156727	0.237080
N49	N	0.441365	-0.358131	-0.298349
N50	N	0.941365	0.141869	0.201651
N51	N	0.378914	-0.358119	-0.298359
N52	N	0.878914	0.141881	0.201641
C53	C	0.346565	-0.303020	-0.303283
C54	C	0.846565	0.196980	0.196717
N55	N	0.379027	-0.247934	-0.308210
N56	N	0.879027	0.252066	0.191790
N57	N	0.441485	-0.247947	-0.308205
N58	N	0.941485	0.252053	0.191795
C59	C	0.473355	-0.303045	-0.303271
C60	C	0.973355	0.196955	0.196729
C61	C	0.242467	-0.262793	-0.343624
C62	C	0.742467	0.237207	0.156376
C63	C	0.176723	-0.262775	-0.343622
C64	C	0.676723	0.237225	0.156378
C65	C	0.176618	-0.343189	-0.262955
C66	C	0.676618	0.156811	0.237045
C67	C	0.242360	-0.343202	-0.262953
C68	C	0.742360	0.156798	0.237047
C69	C	0.275281	-0.303004	-0.303291
C70	C	0.775281	0.196996	0.196709
C71	C	0.909560	-0.466569	-0.303233
C72	C	1.409560	0.033431	0.196767
C73	C	0.909582	-0.536537	-0.303239
C74	C	1.409582	-0.036537	0.196761
C75	C	0.949872	-0.569385	-0.263024
C76	C	1.449872	-0.069385	0.236976
C77	C	0.949902	-0.635128	-0.263038
C78	C	1.449902	-0.135128	0.236962
C79	C	0.909630	-0.668020	-0.303261
C80	C	1.409630	-0.168020	0.196739
C81	C	0.869337	-0.635163	-0.343485
C82	C	1.369337	-0.135163	0.156515
C83	C	0.869313	-0.569422	-0.343474
C84	C	1.369313	-0.069422	0.156526
N85	N	0.854562	-0.771300	-0.308054
N86	N	1.354562	-0.271300	0.191946
N87	N	0.854586	-0.833751	-0.308061
N88	N	1.354586	-0.333751	0.191939
C89	C	0.909700	-0.866094	-0.303297
C90	C	1.409700	-0.366094	0.196703
N91	N	0.964790	-0.833627	-0.298514
N92	N	1.464790	-0.333627	0.201486
N93	N	0.964765	-0.771170	-0.298504
N94	N	1.464765	-0.271170	0.201496
C95	C	0.909651	-0.739305	-0.303278
C96	C	1.409651	-0.239305	0.196722
C97	C	0.950026	-0.970228	-0.263095
C98	C	1.450026	-0.470228	0.236905
C99	C	0.950056	-1.035972	-0.263113
C100	C	1.450056	-0.535972	0.236887
C101	C	0.869486	-1.036006	-0.343557
C102	C	1.369486	-0.536006	0.156443
C103	C	0.869461	-0.970263	-0.343541
C104	C	1.369461	-0.470263	0.156459
C105	C	0.909730	-0.937378	-0.303307
C106	C	1.409730	-0.437378	0.196693
C107	C	1.073832	-0.302987	-0.303286
C108	C	1.573832	0.197013	0.196714
C109	C	1.143801	-0.302975	-0.303294
C110	C	1.643801	0.197025	0.196706
C111	C	0.909671	-0.302977	-0.467458
C112	C	1.409671	0.197023	0.032542
C113	C	0.909684	-0.302959	-0.537426
C114	C	1.409684	0.197041	-0.037426
C115	C	0.909742	-0.138827	-0.303317
C116	C	1.409742	0.361173	0.196683
C117	C	0.909785	-0.068859	-0.303338
C118	C	1.409785	0.431141	0.196662
C119	C	0.950029	-0.262591	-1.036902
C120	C	1.450029	0.237409	-0.536902
C121	C	0.950024	-0.262606	-0.971160
C122	C	1.450024	0.237394	-0.471160
C123	C	0.909738	-0.302876	-0.938266
C124	C	1.409738	0.197124	-0.438266
C125	C	0.869465	-0.343146	-0.971121
C126	C	1.369465	0.156854	-0.471121
C127	C	0.869476	-0.343134	-1.036862
C128	C	1.369476	0.156866	-0.536862
N129	N	0.854617	-0.307734	-0.835037
N130	N	1.354617	0.192266	-0.335037
N131	N	0.854609	-0.307742	-0.772586
N132	N	1.354609	0.192258	-0.272586
C133	C	0.909705	-0.302916	-0.740191
C134	C	1.409705	0.197084	-0.240191
N135	N	0.964811	-0.298069	-0.772607
N136	N	1.464811	0.201931	-0.272607
N137	N	0.964819	-0.298058	-0.835065
N138	N	1.464819	0.201942	-0.335065
C139	C	0.909723	-0.302894	-0.866981
C140	C	1.409723	0.197106	-0.366981
C141	C	0.949973	-0.262668	-0.636059
C142	C	1.449973	0.237332	-0.136059
C143	C	0.949969	-0.262688	-0.570315
C144	C	1.449969	0.237312	-0.070315
C145	C	0.869405	-0.343224	-0.570278
C146	C	1.369405	0.156776	-0.070278
C147	C	0.869414	-0.343208	-0.636020
C148	C	1.369414	0.156792	-0.136020
C149	C	0.909697	-0.302927	-0.668907
C150	C	1.409697	0.197073	-0.168907
C151	C	0.909649	-0.303012	-0.139716
C152	C	1.409649	0.196988	0.360284
C153	C	0.909759	-0.302852	-0.069749
C154	C	1.409759	0.197148	0.430251
H155	H	0.150009	-0.230031	-0.376467
H156	H	0.650009	0.269969	0.123533
C157	C	0.825495	-0.533868	-0.387161
C158	C	1.325495	-0.033868	0.112839
C159	C	0.790223	-0.576740	-0.422383
C160	C	1.290223	-0.076740	0.077617
C161	C	0.749845	-0.544009	-0.462627
C162	C	1.249845	-0.044009	0.037373
H163	H	0.849479	-0.508170	-0.414660
H164	H	1.349479	-0.008170	0.085340
H165	H	0.798039	-0.508286	-0.363064
H166	H	1.298039	-0.008286	0.136936
H167	H	0.817676	-0.602310	-0.446478
H168	H	1.317676	-0.102310	0.053522
H169	H	0.766227	-0.602439	-0.394900
H170	H	1.266227	-0.102439	0.105100
H171	H	0.722388	-0.518428	-0.438530
H172	H	1.222388	-0.018428	0.061470
H173	H	0.773833	-0.518313	-0.490122
H174	H	1.273833	-0.018313	0.009878
H175	H	0.725904	-0.573093	-0.486526
H176	H	1.225904	-0.073093	0.013474
C177	C	0.825562	-0.386910	-0.534652
C178	C	1.325562	0.113090	-0.034652
C179	C	0.763290	-0.373223	-0.550652
C180	C	1.263290	0.126777	-0.050652
C181	C	0.722886	-0.413462	-0.517849
C182	C	1.222886	0.086538	-0.017849
H183	H	0.831238	-0.381192	-0.490785
H184	H	1.331238	0.118808	0.009215
H185	H	0.834714	-0.429212	-0.545426
H186	H	1.334714	0.070788	-0.045426
H187	H	0.754142	-0.330932	-0.539874
H188	H	1.254142	0.169068	-0.039874
H189	H	0.757594	-0.378946	-0.594513
H190	H	1.257594	0.121054	-0.094513
H191	H	0.732038	-0.455764	-0.528622
H192	H	1.232038	0.044236	-0.028622
H193	H	0.728568	-0.407740	-0.473983
H194	H	1.228568	0.092260	0.026017
H195	H	0.680631	-0.404185	-0.528704
H196	H	1.180631	0.095815	-0.028704
H197	H	0.982767	-0.229904	-0.543573
H198	H	1.482767	0.270096	-0.043573
H199	H	0.982817	-0.943452	-0.230335
H200	H	1.482817	-0.443452	0.269665
C201	C	0.993527	-0.533569	-0.219369
C202	C	1.493527	-0.033569	0.280631
C203	C	0.984874	-0.468964	-0.227954
C204	C	1.484874	0.031036	0.272046
C205	C	1.025072	-0.435949	-0.187746
C206	C	1.525072	0.064051	0.312254
H207	H	1.035846	-0.544213	-0.228581
H208	H	1.535846	-0.044213	0.271419
H209	H	0.984336	-0.544348	-0.177054
H210	H	1.484336	-0.044348	0.322946
H211	H	0.994069	-0.458190	-0.270260
H212	H	1.494069	0.041810	0.229740
H213	H	0.942563	-0.458301	-0.218738
H214	H	1.442563	0.041699	0.281262
H215	H	1.015881	-0.446728	-0.145431
H216	H	1.515881	0.053272	0.354569
H217	H	1.067388	-0.446598	-0.196961
H218	H	1.567388	0.053402	0.303039
H219	H	1.019202	-0.392111	-0.193561
H220	H	1.519202	0.107889	0.306439
H221	H	0.149809	-0.375921	-0.230120
H222	H	0.649809	0.124079	0.269880
H223	H	0.836619	-0.375991	-0.662764
H224	H	1.336619	0.124009	-0.162764
H225	H	0.982869	-1.062716	-0.230366
H226	H	1.482869	-0.562716	0.269634
C227	C	0.541600	-0.386885	-0.219212
C228	C	1.041600	0.113115	0.280788
C229	C	0.477003	-0.378284	-0.227863
C230	C	0.977003	0.121716	0.272137
C231	C	0.443950	-0.418464	-0.187607
C232	C	0.943950	0.081536	0.312393
H233	H	0.552290	-0.377659	-0.176907
H234	H	1.052290	0.122341	0.323093
H235	H	0.552302	-0.429208	-0.228351
H236	H	1.052302	0.070792	0.271649
H237	H	0.466305	-0.335971	-0.218719
H238	H	0.966305	0.164029	0.281281
H239	H	0.466295	-0.387515	-0.270160
H240	H	0.966295	0.112485	0.229840
H241	H	0.454653	-0.460787	-0.196747
H242	H	0.954653	0.039213	0.303253
H243	H	0.454645	-0.409235	-0.145305
H244	H	0.954645	0.090765	0.354695
H245	H	0.400118	-0.412638	-0.193475
H246	H	0.900118	0.087362	0.306525
C247	C	0.679083	-0.219328	-0.387461
C248	C	1.179083	0.280672	0.112539
C249	C	0.716795	-0.255028	-0.427751
C250	C	1.216795	0.244972	0.072249
C251	C	0.749751	-0.214937	-0.468175
C252	C	1.249751	0.285063	0.031825
H253	H	0.704796	-0.191858	-0.363504
H254	H	1.204796	0.308142	0.136496
H255	H	0.650139	-0.195391	-0.411520
H256	H	1.150139	0.304609	0.088480
H257	H	0.745735	-0.278953	-0.403695
H258	H	1.245735	0.221047	0.096305
H259	H	0.691097	-0.282495	-0.451721
H260	H	1.191097	0.217505	0.048279
H261	H	0.720808	-0.191001	-0.492233
H262	H	1.220808	0.308999	0.007767
H263	H	0.775461	-0.187470	-0.444213
H264	H	1.275461	0.312530	0.055787
H265	H	0.775338	-0.239154	-0.495520
H266	H	1.275338	0.260846	0.004480
H267	H	0.669917	-0.376014	-0.230073
H268	H	1.169917	0.123986	0.269927
H269	H	0.269076	-0.375944	-0.230110
H270	H	0.769076	0.124056	0.269890
H271	H	0.836698	-1.062786	-0.376310
H272	H	1.336698	-0.562786	0.123690
H273	H	0.982774	-0.229869	-0.662837
H274	H	1.482774	0.270131	-0.162837
H275	H	0.550846	-0.230110	-0.376441
H276	H	1.050846	0.269890	0.123559
C277	C	0.825640	-0.934709	-0.387222
C278	C	1.325640	-0.434709	0.112778
C279	C	0.790365	-0.977582	-0.422440
C280	C	1.290365	-0.477582	0.077560
C281	C	0.749984	-0.944853	-0.462682
C282	C	1.249984	-0.444853	0.037318
H283	H	0.849621	-0.909012	-0.414724
H284	H	1.349621	-0.409012	0.085276
H285	H	0.798185	-0.909127	-0.363124
H286	H	1.298185	-0.409127	0.136876
H287	H	0.817816	-1.003153	-0.446537
H288	H	1.317816	-0.503153	0.053463
H289	H	0.766371	-1.003280	-0.394955
H290	H	1.266371	-0.503280	0.105045
H291	H	0.722529	-0.919271	-0.438584
H292	H	1.222529	-0.419271	0.061416
H293	H	0.773970	-0.919157	-0.490180
H294	H	1.273970	-0.419157	0.009820
H295	H	0.726041	-0.973937	-0.486578
H296	H	1.226041	-0.473937	0.013422
C297	C	0.278101	-0.219081	-0.387438
C298	C	0.778101	0.280919	0.112562
C299	C	0.235291	-0.183851	-0.422750
C300	C	0.735291	0.316149	0.077250
C301	C	0.268092	-0.143573	-0.463113
C302	C	0.768092	0.356427	0.036887
H303	H	0.303733	-0.243135	-0.414876
H304	H	0.803733	0.256865	0.085124
H305	H	0.303755	-0.191594	-0.363423
H306	H	0.803755	0.308406	0.136577
H307	H	0.209648	-0.211335	-0.446763
H308	H	0.709648	0.288665	0.053237
H309	H	0.209658	-0.159785	-0.395329
H310	H	0.709658	0.340215	0.104671
H311	H	0.293745	-0.116085	-0.439098
H312	H	0.793745	0.383915	0.060902
H313	H	0.293722	-0.167631	-0.490547
H314	H	0.793722	0.332369	0.009453
H315	H	0.239050	-0.119660	-0.487073
H316	H	0.739050	0.380340	0.012927
H317	H	0.836548	-0.661948	-0.376236
H318	H	1.336548	-0.161948	0.123764
C319	C	0.993668	-0.670689	-0.219301
C320	C	1.493668	-0.170689	0.280699
C321	C	1.028918	-0.627818	-0.184053
C322	C	1.528918	-0.127818	0.315947
C323	C	1.069235	-0.660551	-0.143750
C324	C	1.569235	-0.160551	0.356250
H325	H	1.021147	-0.696290	-0.243336
H326	H	1.521147	-0.196290	0.256664
H327	H	0.969622	-0.696366	-0.191825
H328	H	1.469622	-0.196366	0.308175
H329	H	1.052962	-0.602152	-0.211526
H330	H	1.552962	-0.102152	0.288474
H331	H	1.001456	-0.602215	-0.160004
H332	H	1.501456	-0.102215	0.339996
H333	H	1.045189	-0.686229	-0.116274
H334	H	1.545189	-0.186229	0.383726
H335	H	1.096709	-0.686152	-0.167791
H336	H	1.596709	-0.186152	0.332209
H337	H	1.093152	-0.631469	-0.119825
H338	H	1.593152	-0.131469	0.380175
H339	H	0.982834	-0.229793	-1.063674
H340	H	1.482834	0.270207	-0.563674
C341	C	0.993769	-0.218819	-0.935601
C342	C	1.493769	0.281181	-0.435601
C343	C	1.029038	-0.183530	-0.978473
C344	C	1.529038	0.316470	-0.478473
C345	C	1.069335	-0.143181	-0.945742
C346	C	1.569335	0.356819	-0.445742
H347	H	1.021236	-0.242823	-0.909945
H348	H	1.521236	0.257177	-0.409945
H349	H	0.969708	-0.191371	-0.909978
H350	H	1.469708	0.308629	-0.409978
H351	H	1.053098	-0.210975	-1.004085
H352	H	1.553098	0.289025	-0.504085
H353	H	1.001588	-0.159513	-1.004130
H354	H	1.501588	0.340487	-0.504130
H355	H	1.045273	-0.115733	-0.920118
H356	H	1.545273	0.384267	-0.420118
H357	H	1.096798	-0.167190	-0.920087
H358	H	1.596798	0.332810	-0.420087
H359	H	1.093266	-0.119228	-0.974825
H360	H	1.593266	0.380772	-0.474825
C361	C	0.825748	-0.386798	-0.935298
C362	C	1.325748	0.113202	-0.435298
C363	C	0.834345	-0.378179	-0.870693
C364	C	1.334345	0.121821	-0.370693
C365	C	0.794079	-0.418379	-0.837674
C366	C	1.294079	0.081621	-0.337674
H367	H	0.834899	-0.429116	-0.945980
H368	H	1.334899	0.070884	-0.445980
H369	H	0.783446	-0.377588	-0.946035
H370	H	1.283446	0.122412	-0.446035
H371	H	0.876637	-0.387394	-0.859960
H372	H	1.376637	0.112606	-0.359960
H373	H	0.825189	-0.335870	-0.859992
H374	H	1.325189	0.164130	-0.359992
H375	H	0.751777	-0.409168	-0.848411
H376	H	1.251777	0.090832	-0.348411
H377	H	0.803233	-0.460694	-0.848362
H378	H	1.303233	0.039306	-0.348362
H379	H	0.799902	-0.412532	-0.793837
H380	H	1.299902	0.087468	-0.293837
C381	C	0.825679	-0.386869	-1.072415
C382	C	1.325679	0.113131	-0.572415
C383	C	0.790386	-0.422132	-1.029541
C384	C	1.290386	0.077868	-0.529541
C385	C	0.750027	-0.462421	-1.062270
C386	C	1.250027	0.037579	-0.562270
H387	H	0.849677	-0.414341	-1.098058
H388	H	1.349677	0.085659	-0.598058
H389	H	0.798234	-0.362803	-1.098049
H390	H	1.298234	0.137197	-0.598049
H391	H	0.817827	-0.446197	-1.003917
H392	H	1.317827	0.053803	-0.503917
H393	H	0.766376	-0.394677	-1.003896
H394	H	1.266376	0.105323	-0.503896
H395	H	0.722582	-0.438354	-1.087905
H396	H	1.222582	0.061646	-0.587905
H397	H	0.774030	-0.489888	-1.087912
H398	H	1.274030	0.010112	-0.587912
H399	H	0.726072	-0.486348	-1.033185
H400	H	1.226072	0.013652	-0.533185
