data_functionalizedCrystal
_audit_creation_method	'MofGen! by Chris Wilmer'
_symmetry_space_group_name_H-M	'P1'
_symmetry_Int_Tables_number	1
_symmetry_cell_setting	triclinic
loop_
_symmetry_equiv_pos_as_xyz
  x,y,z
_cell_length_a	29.839134
_cell_length_b	15.297327
_cell_length_c	15.296720
_cell_angle_alpha	72.680778
_cell_angle_beta	99.652568
_cell_angle_gamma	80.296475
loop_
_atom_site_label
_atom_site_type_symbol
_atom_site_fract_x
_atom_site_fract_y
_atom_site_fract_z
Zn1	Zn	0.596149	0.461371	-0.590063
Zn2	Zn	1.096149	0.961371	-0.090063
Zn3	Zn	0.596098	0.589993	-0.461457
Zn4	Zn	1.096098	1.089993	0.038543
Zn5	Zn	0.536751	0.434485	-0.434558
Zn6	Zn	1.036751	0.934485	0.065442
Zn7	Zn	0.505292	0.616813	-0.616866
Zn8	Zn	1.005292	1.116813	-0.116866
O9	O	0.558573	0.525666	-0.525736
O10	O	1.058573	1.025666	-0.025736
O11	O	0.659004	0.478461	-0.573043
O12	O	1.159004	0.978461	-0.073043
O13	O	0.601370	0.546888	-0.327770
O14	O	1.101370	1.046888	0.172230
O15	O	0.557817	0.307918	-0.432711
O16	O	1.057817	0.807918	0.067289
O17	O	0.658966	0.572959	-0.478557
O18	O	1.158966	1.072959	0.021443
O19	O	0.601457	0.327671	-0.546960
O20	O	1.101457	0.827671	-0.046960
O21	O	0.557768	0.432637	-0.308007
O22	O	1.057768	0.932637	0.191993
O23	O	0.469717	0.458643	-0.458701
O24	O	0.969717	0.958643	0.041299
O25	O	0.504200	0.618670	-0.743430
O26	O	1.004200	1.118670	-0.243430
O27	O	0.446604	0.592599	-0.592643
O28	O	0.946604	1.092599	-0.092643
O29	O	0.570953	0.504468	-0.723737
O30	O	1.070953	1.004468	-0.223737
O31	O	0.570866	0.723684	-0.504547
O32	O	1.070866	1.223684	-0.004547
O33	O	0.504151	0.743389	-0.618726
O34	O	1.004151	1.243389	-0.118726
C35	C	0.534099	0.767282	-0.567484
C36	C	1.034099	1.267282	-0.067484
C37	C	0.523667	0.870652	-0.585376
C38	C	1.023667	1.370652	-0.085376
C39	C	0.441861	0.525615	-0.525662
C40	C	0.941861	1.025615	-0.025662
C41	C	0.391927	0.525619	-0.525656
C42	C	0.891927	1.025619	-0.025656
C43	C	0.534073	0.567560	-0.768265
C44	C	1.034073	1.067560	-0.268265
C45	C	0.523633	0.585412	-0.871617
C46	C	1.023633	1.085412	-0.371617
C47	C	0.070246	0.595492	-0.595422
C48	C	0.570246	1.095492	-0.095422
C49	C	-0.117434	0.595525	-0.595468
C50	C	0.382566	1.095525	-0.095468
O51	O	-0.151926	0.654883	-0.654737
O52	O	0.348074	1.154883	-0.154737
N53	N	-0.128880	0.525712	-0.525812
N54	N	0.371120	1.025712	-0.025812
C55	C	-0.093402	0.455882	-0.456143
C56	C	0.406598	0.955882	0.043857
O57	O	-0.107443	0.396496	-0.396904
O58	O	0.392557	0.896496	0.103096
C59	C	0.094277	0.455845	-0.456102
C60	C	0.594277	0.955845	0.043898
C61	C	0.105719	0.525669	-0.525757
C62	C	0.605719	1.025669	-0.025757
C63	C	0.081689	0.665309	-0.665071
C64	C	0.581689	1.165309	-0.165071
C65	C	0.128606	0.665303	-0.665056
C66	C	0.628606	1.165303	-0.165056
C67	C	0.164080	0.595480	-0.595391
C68	C	0.664080	1.095480	-0.095391
C69	C	0.152637	0.525663	-0.525742
C70	C	0.652637	1.025663	-0.025742
C71	C	0.129754	0.386012	-0.386438
C72	C	0.629754	0.886012	0.113562
C73	C	0.176676	0.386008	-0.386436
C74	C	0.676676	0.886008	0.113564
C75	C	0.188118	0.455831	-0.456090
C76	C	0.688118	0.955831	0.043910
C77	C	0.235028	0.455833	-0.456062
C78	C	0.735028	0.955833	0.043938
N79	N	0.246474	0.525647	-0.525718
N80	N	0.746474	1.025647	-0.025718
C81	C	0.211000	0.595470	-0.595382
C82	C	0.711000	1.095470	-0.095382
C83	C	-0.191937	0.455907	-0.456169
C84	C	0.308063	0.955907	0.043831
C85	C	-0.238856	0.455917	-0.456178
C86	C	0.261144	0.955917	0.043822
C87	C	-0.262886	0.595559	-0.595503
C88	C	0.237114	1.095559	-0.095503
C89	C	-0.215965	0.595553	-0.595490
C90	C	0.284035	1.095553	-0.095490
C91	C	-0.180491	0.525720	-0.525825
C92	C	0.319509	1.025720	-0.025825
C93	C	0.309530	0.595452	-0.595345
C94	C	0.809530	1.095452	-0.095345
C95	C	0.356453	0.595442	-0.595321
C96	C	0.856453	1.095442	-0.095321
C97	C	0.380478	0.455797	-0.455999
C98	C	0.880478	0.955797	0.044001
C99	C	0.333560	0.455809	-0.456019
C100	C	0.833560	0.955809	0.043981
C101	C	0.298086	0.525641	-0.525700
C102	C	0.798086	1.025641	-0.025700
O103	O	0.269543	0.396501	-0.396829
O104	O	0.769543	0.896501	0.103171
O105	O	0.225051	0.654834	-0.654625
O106	O	0.725051	1.154834	-0.154625
C107	C	0.023328	0.595498	-0.595437
C108	C	0.523328	1.095498	-0.095437
C109	C	0.011885	0.525681	-0.525787
C110	C	0.511885	1.025681	-0.025787
C111	C	0.047359	0.455858	-0.456122
C112	C	0.547359	0.955858	0.043878
C113	C	-0.035035	0.525691	-0.525796
C114	C	0.464965	1.025691	-0.025796
C115	C	-0.070509	0.595514	-0.595461
C116	C	0.429491	1.095514	-0.095461
C117	C	-0.059063	0.665327	-0.665117
C118	C	0.440937	1.165327	-0.165117
C119	C	-0.012146	0.665321	-0.665102
C120	C	0.487854	1.165321	-0.165102
C121	C	0.035913	0.386044	-0.386467
C122	C	0.535913	0.886044	0.113533
C123	C	-0.011005	0.386057	-0.386487
C124	C	0.488995	0.886057	0.113513
C125	C	-0.046479	0.455880	-0.456152
C126	C	0.453521	0.955880	0.043848
C127	C	0.675740	0.525718	-0.525811
C128	C	1.175740	1.025718	-0.025811
C129	C	0.725670	0.525740	-0.525843
C130	C	1.225670	1.025740	-0.025843
C131	C	0.583152	0.283109	-0.483845
C132	C	1.083152	0.783109	0.016155
C133	C	0.593626	0.179746	-0.465994
C134	C	1.093626	0.679746	0.034006
C135	C	0.633284	1.120902	-0.398182
C136	C	1.133284	1.620902	0.101818
C137	C	0.643086	1.023779	-0.381368
C138	C	1.143086	1.523779	0.118632
C139	C	0.613232	0.985493	-0.432368
C140	C	1.113232	1.485493	0.067632
C141	C	0.573575	1.044338	-0.500186
C142	C	1.073575	1.544338	-0.000186
C143	C	0.563771	1.141469	-0.516997
C144	C	1.063771	1.641469	-0.016997
C145	C	0.543718	1.006060	-0.551183
C146	C	1.043718	1.506060	-0.051183
C147	C	0.504061	1.064905	-0.619001
C148	C	1.004061	1.564905	-0.119001
C149	C	0.494259	1.162026	-0.635809
C150	C	0.994259	1.662026	-0.135809
C151	C	0.524112	1.200313	-0.584809
C152	C	1.024112	1.700313	-0.084809
C153	C	0.553523	0.908929	-0.534372
C154	C	1.053523	1.408929	-0.034372
C155	C	0.484009	0.929497	-0.653187
C156	C	0.984009	1.429497	-0.153187
C157	C	0.474207	1.026619	-0.670002
C158	C	0.974207	1.526619	-0.170002
C159	C	0.633224	0.397907	-1.121938
C160	C	1.133224	0.897907	-0.621938
C161	C	0.643036	0.381135	-1.024834
C162	C	1.143036	0.881135	-0.524834
C163	C	0.613186	0.432202	-0.986525
C164	C	1.113186	0.932202	-0.486525
C165	C	0.573523	0.500045	-1.045329
C166	C	1.073523	1.000045	-0.545329
C167	C	0.563712	0.516824	-1.142443
C168	C	1.063712	1.016824	-0.642443
C169	C	0.543674	0.551120	-1.007030
C170	C	1.043674	1.051120	-0.507030
C171	C	0.504010	0.618963	-1.065834
C172	C	1.004010	1.118963	-0.565834
C173	C	0.494201	0.635738	-1.162939
C174	C	0.994201	1.135738	-0.662939
C175	C	0.524051	0.584670	-1.201248
C176	C	1.024051	1.084670	-0.701248
C177	C	0.553484	0.534341	-0.909916
C178	C	1.053484	1.034341	-0.409916
C179	C	0.483972	0.653258	-0.930422
C180	C	0.983972	1.153258	-0.430422
C181	C	0.474160	0.670030	-1.027525
C182	C	0.974160	1.170030	-0.527525
C183	C	0.583010	0.483868	-0.284139
C184	C	1.083010	0.983868	0.215861
C185	C	0.593563	0.465753	-0.180743
C186	C	1.093563	0.965753	0.319257
H187	H	0.280652	0.652314	-0.652087
H188	H	0.780652	1.152314	-0.152087
O189	O	0.451482	1.225495	-0.708944
O190	O	0.951482	1.725495	-0.208944
H191	H	0.462325	1.277884	-0.763942
H192	H	0.962325	1.777884	-0.263942
H193	H	-0.248167	0.399067	-0.399450
H194	H	0.251833	0.899067	0.100550
H195	H	0.585779	0.479102	-0.862047
H196	H	1.085779	0.979102	-0.362047
H197	H	0.621215	0.906411	-0.418673
H198	H	1.121215	1.406411	0.081327
H199	H	0.137917	0.722159	-0.721778
H200	H	0.637917	1.222159	-0.221778
O201	O	0.685813	0.307965	-0.961417
O202	O	1.185813	0.807965	-0.461417
H203	H	0.687623	0.304885	-0.887457
H204	H	1.187623	0.804885	-0.387457
H205	H	0.621177	0.418543	-0.907458
H206	H	1.121177	0.918543	-0.407458
O207	O	0.431429	1.090086	-0.743132
O208	O	0.931429	1.590086	-0.243132
H209	H	0.429627	1.164052	-0.746242
H210	H	0.929627	1.664052	-0.246242
O211	O	0.665408	0.342808	-1.163249
O212	O	1.165408	0.842808	-0.663249
H213	H	0.651917	0.365862	-1.240651
H214	H	1.151917	0.865862	-0.740651
O215	O	0.418746	0.380495	-0.380863
O216	O	0.918746	0.880495	0.119137
H217	H	0.402910	0.331946	-0.332421
H218	H	0.902910	0.831946	0.167579
O219	O	0.685859	0.960322	-0.308229
O220	O	1.185859	1.460322	0.191771
H221	H	0.675014	0.907947	-0.253221
H222	H	1.175014	1.407947	0.246779
O223	O	0.431381	0.743199	-1.090956
O224	O	0.931381	1.243199	-0.590956
H225	H	0.433566	0.812972	-1.084929
H226	H	0.933566	1.312972	-0.584929
H227	H	0.516064	0.598323	-1.280317
H228	H	1.016064	1.098323	-0.780317
H229	H	0.461907	0.690988	-1.210816
H230	H	0.961907	1.190988	-0.710816
H231	H	0.585812	0.861026	-0.479154
H232	H	1.085812	1.361026	0.020846
O233	O	0.451770	0.708341	-0.889117
O234	O	0.951770	1.208341	-0.389117
H235	H	0.465252	0.685269	-0.811711
H236	H	0.965252	1.185269	-0.311711
H237	H	-0.087955	0.722182	-0.721838
H238	H	0.412045	1.222182	-0.221838
H239	H	-0.206653	0.652408	-0.652210
H240	H	0.293347	1.152408	-0.152210
H241	H	0.365765	0.652304	-0.652044
H242	H	0.865765	1.152304	-0.152044
O243	O	0.043430	0.740713	-0.740126
O244	O	0.543430	1.240713	-0.240126
H245	H	0.059279	0.789286	-0.788513
H246	H	0.559279	1.289286	-0.288513
O247	O	-0.153677	0.380602	-0.381007
O248	O	0.346323	0.880602	0.118993
H249	H	-0.169524	0.332076	-0.332569
H250	H	0.330476	0.832076	0.167431
H251	H	0.657585	1.152083	-0.356659
H252	H	1.157585	1.652083	0.143341
O253	O	0.513535	1.305069	-0.602939
O254	O	1.013535	1.805069	-0.102939
H255	H	0.540956	1.321800	-0.556077
H256	H	1.040956	1.821800	-0.056077
H257	H	0.120447	0.329156	-0.329716
H258	H	0.620447	0.829156	0.170284
O259	O	-0.301130	0.670914	-0.670654
O260	O	0.198870	1.170914	-0.170654
H261	H	-0.323087	0.637600	-0.710894
H262	H	0.176913	1.137600	-0.210894
O263	O	0.214938	0.310697	-0.311286
O264	O	0.714938	0.810697	0.188714
H265	H	0.199095	0.262159	-0.262852
H266	H	0.699095	0.762159	0.237148
H267	H	0.324243	0.398955	-0.399299
H268	H	0.824243	0.898955	0.100701
H269	H	-0.020315	0.329198	-0.329758
H270	H	0.479685	0.829198	0.170242
O271	O	0.451802	0.888224	-0.708204
O272	O	0.951802	1.388224	-0.208204
H273	H	0.471575	0.852113	-0.747901
H274	H	0.971575	1.352113	-0.247901
O275	O	0.000194	0.740622	-0.740237
O276	O	0.500194	1.240622	-0.240237
H277	H	-0.032361	0.789163	-0.788681
H278	H	0.467639	1.289163	-0.288681
H279	H	0.064793	0.329185	-0.329736
H280	H	0.564793	0.829185	0.170264
