data_functionalizedCrystal
_audit_creation_method	'MofGen! by Chris Wilmer'
_symmetry_space_group_name_H-M	'P1'
_symmetry_Int_Tables_number	1
_symmetry_cell_setting	triclinic
loop_
_symmetry_equiv_pos_as_xyz
  x,y,z
_cell_length_a	10.685980
_cell_length_b	13.032721
_cell_length_c	10.685986
_cell_angle_alpha	92.237678
_cell_angle_beta	90.307287
_cell_angle_gamma	102.072709
loop_
_atom_site_label
_atom_site_type_symbol
_atom_site_fract_x
_atom_site_fract_y
_atom_site_fract_z
Zn1	Zn	1.823609	-0.243613	-0.890814
Zn2	Zn	2.323609	0.256387	-0.390814
Zn3	Zn	1.808775	-0.430997	-0.707394
Zn4	Zn	2.308775	0.069003	-0.207394
Zn5	Zn	1.625492	-0.270359	-0.668718
Zn6	Zn	2.125492	0.229641	-0.168718
Zn7	Zn	1.582706	-0.432937	-0.901282
Zn8	Zn	2.082706	0.067063	-0.401282
O9	O	1.710146	-0.344477	-0.792052
O10	O	2.210146	0.155523	-0.292052
O11	O	1.999165	-0.256464	-0.878289
O12	O	2.499165	0.243536	-0.378289
O13	O	1.796160	-0.420069	-0.528173
O14	O	2.296160	0.079931	-0.028173
O15	O	1.675888	-0.120351	-0.677613
O16	O	2.175888	0.379649	-0.177613
O17	O	1.988266	-0.394134	-0.743530
O18	O	2.488266	0.105866	-0.243530
O19	O	1.821444	-0.100701	-0.840787
O20	O	2.321444	0.399299	-0.340787
O21	O	1.661503	-0.302049	-0.499758
O22	O	2.161503	0.197951	0.000242
O23	O	1.442293	-0.303931	-0.687763
O24	O	1.942293	0.196069	-0.187763
O25	O	1.602964	-0.397442	-1.073984
O26	O	2.102964	0.102558	-0.573984
O27	O	1.410858	-0.423376	-0.858627
O28	O	1.910858	0.076624	-0.358627
O29	O	1.779955	-0.258346	-1.066294
O30	O	2.279955	0.241654	-0.566294
O31	O	1.754671	-0.577714	-0.753680
O32	O	2.254671	-0.077714	-0.253680
O33	O	1.588579	-0.579140	-0.896129
O34	O	2.088579	-0.079140	-0.396129
C35	C	1.380545	-0.366767	-0.770135
C36	C	1.880545	0.133233	-0.270135
C37	C	1.239535	-0.376327	-0.760791
C38	C	1.739535	0.123673	-0.260791
C39	C	1.665405	-0.616398	-0.830266
C40	C	2.165405	-0.116398	-0.330266
C41	C	1.646379	-0.732717	-0.846664
C42	C	2.146379	-0.232717	-0.346664
C43	C	1.720139	-0.783828	-0.783555
C44	C	2.220139	-0.283828	-0.283555
C45	C	1.700476	-0.904050	-0.800501
C46	C	2.200476	-0.404050	-0.300501
C47	C	2.041033	-0.322099	-0.814056
C48	C	2.541033	0.177901	-0.314056
C49	C	2.182037	-0.312564	-0.823433
C50	C	2.682037	0.187436	-0.323433
C51	C	1.688342	-0.325127	-1.116541
C52	C	2.188342	0.174873	-0.616541
C53	C	1.679050	-0.316882	-1.254819
C54	C	2.179050	0.183118	-0.754819
C55	C	1.755093	-0.071489	-0.753718
C56	C	2.255093	0.428511	-0.253718
C57	C	1.774247	0.044842	-0.737383
C58	C	2.274247	0.544842	-0.237383
C59	C	1.731950	-0.363670	-0.468820
C60	C	2.231950	0.136330	0.031180
C61	C	1.741536	-0.371604	-0.330518
C62	C	2.241536	0.128396	0.169482
H63	H	1.180878	-0.438235	-0.700004
H64	H	1.680878	0.061765	-0.200004
H65	H	1.622769	-0.949291	-0.867086
H66	H	2.122769	-0.449291	-0.367086
H67	H	1.851964	-0.909916	-0.670807
H68	H	2.351964	-0.409916	-0.170807
H69	H	1.568677	-0.777963	-0.913245
H70	H	2.068677	-0.277963	-0.413245
O71	O	1.812751	-0.729704	-0.704137
O72	O	2.312751	-0.229704	-0.204137
C73	C	1.916876	-0.560522	-0.614935
C74	C	2.416876	-0.060522	-0.114935
C75	C	1.811925	-0.621686	-0.704895
C76	C	2.311925	-0.121686	-0.204895
H77	H	1.916261	-0.473176	-0.615537
H78	H	2.416261	0.026824	-0.115537
H79	H	1.897949	-0.589405	-0.516094
H80	H	2.397949	-0.089405	-0.016094
H81	H	2.014187	-0.573707	-0.646646
H82	H	2.514187	-0.073707	-0.146646
H83	H	1.714571	-0.608529	-0.673299
H84	H	2.214571	-0.108529	-0.173299
H85	H	1.830964	-0.592792	-0.803717
H86	H	2.330964	-0.092792	-0.303717
H87	H	1.240689	-0.250654	-0.884207
H88	H	1.740689	0.249346	-0.384207
H89	H	1.802150	-0.424757	-1.289534
H90	H	2.302150	0.075243	-0.789534
O91	O	1.606753	-0.253555	-1.303904
O92	O	2.106753	0.246445	-0.803904
C93	C	1.531361	-0.187252	-1.491109
C94	C	2.031361	0.312748	-0.991109
C95	C	1.613263	-0.259025	-1.435678
C96	C	2.113263	0.240975	-0.935678
H97	H	1.536618	-0.191633	-1.597654
H98	H	2.036618	0.308367	-1.097654
H99	H	1.427701	-0.214053	-1.461499
H100	H	1.927701	0.285947	-0.961499
H101	H	1.569207	-0.102868	-1.455192
H102	H	2.069207	0.397132	-0.955192
H103	H	1.575529	-0.343428	-1.471567
H104	H	2.075529	0.156572	-0.971567
H105	H	1.716911	-0.232135	-1.465280
H106	H	2.216911	0.267865	-0.965280
