data_functionalizedCrystal
_audit_creation_method	'MofGen! by Chris Wilmer'
_symmetry_space_group_name_H-M	'P1'
_symmetry_Int_Tables_number	1
_symmetry_cell_setting	triclinic
loop_
_symmetry_equiv_pos_as_xyz
  x,y,z
_cell_length_a	10.489741
_cell_length_b	16.109301
_cell_length_c	14.586319
_cell_angle_alpha	89.998857
_cell_angle_beta	90.000242
_cell_angle_gamma	95.999621
loop_
_atom_site_label
_atom_site_type_symbol
_atom_site_fract_x
_atom_site_fract_y
_atom_site_fract_z
O1	O	-0.163948	1.104141	-0.076183
O2	O	-0.184351	0.862205	-0.076195
O3	O	0.011528	0.988678	-0.076191
O4	O	-0.359827	0.977668	-0.076187
O5	O	0.011531	0.988669	0.076290
O6	O	-0.184348	0.862196	0.076286
O7	O	-0.163946	1.104132	0.076298
Cu8	Cu	-0.174147	0.983163	0.090215
Cu9	Cu	-0.174150	0.983174	-0.090111
O10	O	-0.359825	0.977659	0.076294
C11	C	-0.183523	0.831221	0.000044
C12	C	-0.181045	0.738910	0.000039
C13	C	-0.289176	0.430578	0.000056
C14	C	-0.291516	0.517313	0.000051
C15	C	-0.059112	0.535754	0.000036
C16	C	-0.056773	0.449021	0.000035
C17	C	-0.171809	0.396435	0.000050
C18	C	-0.176488	0.569903	0.000046
C19	C	-0.179024	0.663944	0.000040
C20	C	-0.169273	0.302387	0.000054
C21	C	-0.407346	0.978495	0.000054
C22	C	-0.548939	0.980983	0.000056
C23	C	-0.615912	1.061454	0.000053
C24	C	-0.708583	1.023436	0.075231
C25	C	-0.708564	1.023426	-0.075103
C26	C	-0.639745	0.942932	0.075296
C27	C	-0.639716	0.942933	-0.075105
C28	C	-0.732361	0.904856	0.000091
C29	C	0.059049	0.987842	0.000047
C30	C	0.200642	0.985354	0.000040
C31	C	-0.164773	1.135117	0.000057
C32	C	-0.167251	1.227427	0.000056
N33	N	-0.174143	0.983162	0.217047
N34	N	-0.174143	0.983182	-0.216943
C35	C	-0.087437	1.039183	0.452055
C36	C	-0.087434	1.039186	0.548036
C37	C	-0.260853	0.927155	0.548042
C38	C	-0.260849	0.927149	0.452062
C39	C	-0.174143	0.983168	0.404071
C40	C	-0.174144	0.983176	0.596032
C41	C	-0.174141	0.983178	0.700099
C42	C	-0.174143	0.983165	0.299998
H43	H	0.034546	0.578579	0.000027
H44	H	0.038807	0.421221	0.000027
O45	O	-0.345036	0.872826	0.594804
C46	C	-0.326431	0.884829	0.689808
H47	H	-0.278786	0.950641	0.702912
H48	H	-0.423024	0.876161	0.726282
H49	H	-0.262441	0.837391	0.717054
O50	O	-0.603428	0.902259	0.151112
C51	C	-0.542672	0.832084	0.124280
H52	H	-0.503555	0.841860	0.051728
H53	H	-0.460439	0.823568	0.173334
H54	H	-0.614891	0.774081	0.126079
O55	O	-0.555688	1.140427	0.000021
C56	C	-0.592254	1.183150	-0.078506
H57	H	-0.688492	1.152682	-0.104442
H58	H	-0.601129	1.251126	-0.060304
H59	H	-0.516711	1.180190	-0.134269
O60	O	-0.405415	0.550617	0.000009
C61	C	-0.382820	0.638446	0.000020
H62	H	-0.283274	0.658215	-0.028846
H63	H	-0.457918	0.665515	-0.044256
H64	H	-0.388997	0.662629	0.073170
O65	O	-0.792424	0.825842	0.000295
C66	C	-0.757318	0.783729	0.079652
H67	H	-0.724028	0.831259	0.134807
H68	H	-0.843423	0.741340	0.105888
H69	H	-0.676117	0.744535	0.062432
H70	H	-0.016834	1.084796	0.412983
H71	H	-0.382845	0.387765	0.000068
O72	O	-0.744913	1.064182	0.150990
C73	C	-0.685014	1.146716	0.150741
H74	H	-0.657296	1.165850	0.077582
H75	H	-0.754009	1.190501	0.179138
H76	H	-0.595304	1.150537	0.195303
O77	O	-0.345205	0.872702	0.405587
C78	C	-0.421721	0.823250	0.468524
H79	H	-0.423187	0.857346	0.536939
H80	H	-0.523575	0.811173	0.440786
H81	H	-0.380278	0.761245	0.478739
H82	H	-0.609169	0.908916	-0.138670
H83	H	-0.016829	1.084797	0.587102
O84	O	-0.744978	1.064182	-0.150833
C85	C	-0.806827	1.133855	-0.123842
H86	H	-0.775229	1.153379	-0.051529
H87	H	-0.780201	1.187749	-0.173211
H88	H	-0.915063	1.116779	-0.124961
