data_functionalizedCrystal
_audit_creation_method	'MofGen! by Chris Wilmer'
_symmetry_space_group_name_H-M	'P1'
_symmetry_Int_Tables_number	1
_symmetry_cell_setting	triclinic
loop_
_symmetry_equiv_pos_as_xyz
  x,y,z
_cell_length_a	15.297979
_cell_length_b	15.299383
_cell_length_c	15.298259
_cell_angle_alpha	88.410590
_cell_angle_beta	91.586881
_cell_angle_gamma	88.353499
loop_
_atom_site_label
_atom_site_type_symbol
_atom_site_fract_x
_atom_site_fract_y
_atom_site_fract_z
Zn1	Zn	1.255661	0.015629	-0.730532
Zn2	Zn	1.303427	0.178014	-0.616092
Zn3	Zn	1.141163	0.063555	-0.568138
Zn4	Zn	1.132809	0.186213	-0.738744
O5	O	1.208265	0.110853	-0.663376
O6	O	1.381319	0.013681	-0.731984
O7	O	1.305388	0.179456	-0.490438
O8	O	1.139857	-0.062094	-0.566174
O9	O	1.416412	0.132985	-0.647905
O10	O	1.223979	-0.097305	-0.685485
O11	O	1.186174	0.095364	-0.455206
O12	O	1.020733	0.103314	-0.574137
O13	O	1.125620	0.146959	-0.856947
O14	O	1.014596	0.193431	-0.699480
O15	O	1.215879	0.021632	-0.850914
O16	O	1.297288	0.298393	-0.655867
O17	O	1.171936	0.304417	-0.745979
C18	C	0.986726	0.154464	-0.632496
C19	C	0.891949	0.173138	-0.619310
C20	C	1.238908	0.332329	-0.707040
C21	C	1.252090	0.427058	-0.725759
C22	C	0.865698	0.243952	-0.569236
C23	C	0.776650	0.261499	-0.556851
C24	C	0.713845	0.208230	-0.594534
C25	C	0.740096	0.137411	-0.644604
C26	C	0.829152	0.119866	-0.656996
C27	C	0.677299	0.084143	-0.682294
C28	C	0.703549	0.013324	-0.732364
C29	C	0.792597	-0.004218	-0.744753
C30	C	0.855403	0.049052	-0.707070
C31	C	0.588242	0.101688	-0.669903
C32	C	0.551696	-0.022398	-0.757663
C33	C	0.640744	-0.039945	-0.770047
C34	C	1.114298	0.767687	-0.529955
C35	C	1.101909	0.678685	-0.512369
C36	C	1.139453	0.615774	-0.565715
C37	C	1.189389	0.641873	-0.636650
C38	C	1.201774	0.730885	-0.654241
C39	C	1.226929	0.578972	-0.690001
C40	C	1.276865	0.605071	-0.760936
C41	C	1.289248	0.694074	-0.778524
C42	C	1.251704	0.756985	-0.725178
C43	C	1.214544	0.489961	-0.672409
C44	C	1.302020	0.453159	-0.796696
C45	C	1.314409	0.542161	-0.814281
C46	C	1.430670	0.067072	-0.694377
C47	C	1.525445	0.048416	-0.707588
C48	C	1.164489	0.079864	-0.885727
C49	C	1.145835	0.066659	-0.980479
C50	C	1.177473	0.888513	-0.619564
C51	C	1.164228	0.793787	-0.600892
C52	C	1.341529	0.204572	-1.320939
C53	C	1.359053	0.216986	-1.231914
C54	C	1.305750	0.179405	-1.169051
C55	C	1.234920	0.129409	-1.195221
C56	C	1.217391	0.117000	-1.284254
C57	C	1.181612	0.091833	-1.132367
C58	C	1.110782	0.041836	-1.158537
C59	C	1.093257	0.029429	-1.247562
C60	C	1.146559	0.067010	-1.310425
C61	C	1.199141	0.104242	-1.043334
C62	C	1.075003	0.016669	-1.006650
C63	C	1.057480	0.004256	-1.095674
C64	C	1.251911	0.141650	-0.441885
C65	C	1.270698	0.154583	-0.347109
H66	H	0.566878	0.159351	-0.629136
H67	H	1.355067	0.563424	-0.872038
F68	F	1.018262	-0.023319	-0.939751
F69	F	0.950180	0.030383	-0.720253
H70	H	1.061251	0.657437	-0.454616
H71	H	0.755284	0.319161	-0.516084
H72	H	0.641339	0.222521	-0.584447
F73	F	1.434432	0.270192	-1.204069
F74	F	1.074334	0.834644	-0.473199
H75	H	0.916840	0.287320	-0.538564
H76	H	1.132298	0.056903	-1.382917
F77	F	1.017849	-0.023748	-1.275412
F78	F	0.982099	-0.048952	-1.123537
H79	H	0.813966	-0.061877	-0.785533
F80	F	0.668693	-0.115313	-0.823336
F81	F	1.324404	0.192615	-1.074304
H82	H	1.261792	0.829459	-0.739490
H83	H	1.384916	0.235173	-1.372128
H84	H	1.329905	0.715321	-0.836287
F85	F	1.125984	0.521065	-0.547199
F86	F	1.341978	0.386208	-0.853475
H87	H	0.500559	-0.065774	-0.788349
H88	H	1.173886	0.468719	-0.614654
F89	F	1.274521	0.157449	-1.015492
