data_functionalizedCrystal
_audit_creation_method	'MofGen! by Chris Wilmer'
_symmetry_space_group_name_H-M	'P1'
_symmetry_Int_Tables_number	1
_symmetry_cell_setting	triclinic
loop_
_symmetry_equiv_pos_as_xyz
  x,y,z
_cell_length_a	10.654549
_cell_length_b	17.019294
_cell_length_c	9.730217
_cell_angle_alpha	86.117784
_cell_angle_beta	89.997559
_cell_angle_gamma	83.939241
loop_
_atom_site_label
_atom_site_type_symbol
_atom_site_fract_x
_atom_site_fract_y
_atom_site_fract_z
O1	O	1.666098	0.110811	-0.127435
O2	O	2.166098	0.610811	0.372565
O3	O	1.300454	0.121363	-0.128679
O4	O	1.800454	0.621363	0.371321
O5	O	1.493477	0.001311	-0.114467
O6	O	1.993477	0.501311	0.385533
O7	O	1.473075	0.230864	-0.141647
O8	O	1.973075	0.730864	0.358353
O9	O	1.493471	0.001310	0.114113
O10	O	1.993471	0.501310	0.614113
O11	O	1.300448	0.121362	0.099901
O12	O	1.800448	0.621362	0.599901
O13	O	1.666092	0.110810	0.101145
O14	O	2.166092	0.610810	0.601145
Zn15	Zn	1.483269	0.116086	0.136815
Zn16	Zn	1.983269	0.616086	0.636815
Zn17	Zn	1.483277	0.116088	-0.164349
Zn18	Zn	1.983277	0.616088	0.335651
O19	O	1.473069	0.230863	0.086933
O20	O	1.973069	0.730863	0.586933
C21	C	1.253666	0.120587	-0.014297
C22	C	1.753666	0.620587	0.485703
C23	C	1.114259	0.118267	-0.014020
C24	C	1.614259	0.618267	0.485980
C25	C	0.822094	0.257466	-0.030541
C26	C	1.322094	0.757466	0.469459
C27	C	0.872490	0.330336	-0.039163
C28	C	1.372490	0.830336	0.460837
C29	C	1.003474	0.332519	-0.039404
C30	C	1.503474	0.832519	0.460596
C31	C	1.084066	0.261824	-0.031025
C32	C	1.584066	0.761824	0.468975
C33	C	1.033671	0.188954	-0.022402
C34	C	1.533671	0.688954	0.477598
C35	C	0.902682	0.186779	-0.022159
C36	C	1.402682	0.686779	0.477841
C37	C	1.063863	0.045397	-0.005398
C38	C	1.563863	0.545397	0.494602
C39	C	0.932880	0.043212	-0.005147
C40	C	1.432880	0.543212	0.494853
C41	C	1.144456	-0.025298	0.002981
C42	C	1.644456	0.474702	0.502981
C43	C	1.094061	-0.098170	0.011613
C44	C	1.594061	0.401830	0.511613
C45	C	0.963068	-0.100350	0.011855
C46	C	1.463068	0.399650	0.511855
C47	C	0.882484	-0.029658	0.003475
C48	C	1.382484	0.470342	0.503475
C49	C	1.492700	-0.028083	0.003300
C50	C	1.992700	0.471917	0.503300
C51	C	1.490380	-0.115666	0.013662
C52	C	1.990380	0.384334	0.513662
C53	C	1.489296	-0.156808	-0.106069
C54	C	1.989296	0.343192	0.393931
C55	C	1.487108	-0.239101	-0.096329
C56	C	1.987108	0.260899	0.403671
C57	C	1.486013	-0.280251	0.033143
C58	C	1.986013	0.219749	0.533143
C59	C	1.487093	-0.239104	0.152882
C60	C	1.987093	0.260896	0.652882
C61	C	1.489272	-0.156812	0.143141
C62	C	1.989272	0.343188	0.643141
C63	C	1.479425	-0.528720	0.068789
C64	C	1.979425	-0.028720	0.568789
C65	C	1.477250	-0.611018	0.078522
C66	C	1.977250	-0.111018	0.578522
C67	C	1.477262	-0.611010	-0.170690
C68	C	1.977262	-0.111010	0.329310
C69	C	1.479449	-0.528717	-0.180420
C70	C	1.979449	-0.028717	0.319580
C71	C	1.480523	-0.487576	-0.060681
C72	C	1.980523	0.012424	0.439319
C73	C	1.483780	-0.364368	0.043102
C74	C	1.983780	0.135632	0.543102
C75	C	1.482746	-0.403459	-0.070641
C76	C	1.982746	0.096541	0.429359
C77	C	1.712880	0.111587	-0.013241
C78	C	2.212880	0.611587	0.486759
C79	C	1.852287	0.113907	-0.013526
C80	C	2.352287	0.613907	0.486474
C81	C	1.473846	0.260257	-0.030838
C82	C	1.973846	0.760257	0.469162
C83	C	1.476166	0.347840	-0.041208
C84	C	1.976166	0.847840	0.458792
N85	N	1.483273	0.116085	0.342352
N86	N	1.983273	0.616085	0.842352
N87	N	1.483283	0.116083	-0.369885
N88	N	1.983283	0.616083	0.130115
C89	C	1.654264	0.009809	0.354923
C90	C	2.154264	0.509809	0.854923
C91	C	1.739767	-0.043326	0.433149
C92	C	2.239767	0.456674	0.933149
C93	C	1.739780	-0.043327	0.577028
C94	C	2.239780	0.456673	1.077028
C95	C	1.654277	0.009813	0.642686
C96	C	2.154277	0.509813	1.142686
C97	C	1.568774	0.062948	0.564460
C98	C	2.068774	0.562948	1.064460
C99	C	1.568773	0.062944	0.420578
C100	C	2.068773	0.562944	0.920578
C101	C	1.397779	0.169218	0.551889
C102	C	1.897779	0.669218	1.051889
C103	C	1.397770	0.169224	0.408009
C104	C	1.897770	0.669224	0.908009
C105	C	1.312277	0.222357	0.617546
C106	C	1.812277	0.722357	1.117546
C107	C	1.226777	0.275498	0.539320
C108	C	1.726777	0.775498	1.039320
C109	C	1.226769	0.275496	0.395432
C110	C	1.726769	0.775496	0.895432
C111	C	1.312267	0.222359	0.329783
C112	C	1.812267	0.722359	0.829783
H113	H	0.775828	-0.031426	0.003683
H114	H	1.275828	0.468574	0.503683
H115	H	1.490195	-0.123310	-0.211498
H116	H	1.990195	0.376690	0.288502
H117	H	1.483629	-0.369950	-0.176057
H118	H	1.983629	0.130050	0.323943
H119	H	0.922046	-0.159690	0.018869
H120	H	1.422046	0.340310	0.518869
H121	H	1.159689	-0.155724	0.018425
H122	H	1.659689	0.344276	0.518425
H123	H	1.312272	0.222356	0.212629
H124	H	1.812272	0.722356	0.712629
H125	H	1.480343	-0.495217	-0.285850
H126	H	1.980343	0.004783	0.214150
H127	H	1.476386	-0.644515	-0.268175
H128	H	1.976386	-0.144515	0.231825
H129	H	1.157137	0.318763	0.331748
H130	H	1.657137	0.818763	0.831748
H131	H	1.654272	0.009811	0.237769
H132	H	2.154272	0.509811	0.737769
H133	H	1.482893	-0.397883	0.148519
H134	H	1.982893	0.102117	0.648519
H135	H	1.476352	-0.644520	0.183959
H136	H	1.976352	-0.144520	0.683959
H137	H	1.809381	-0.086593	0.379678
H138	H	2.309381	0.413407	0.879678
H139	H	1.809400	-0.086597	0.640721
H140	H	2.309400	0.413403	1.140721
H141	H	0.715439	0.255696	-0.030322
H142	H	1.215439	0.755696	0.469678
H143	H	0.806857	0.387894	-0.045990
H144	H	1.306857	0.887894	0.454010
H145	H	1.486231	-0.272595	-0.193826
H146	H	1.986231	0.227405	0.306174
H147	H	1.480324	-0.495235	0.166290
H148	H	1.980324	0.004765	0.666290
H149	H	1.490137	-0.123314	0.240638
H150	H	1.990137	0.376686	0.740638
H151	H	1.486194	-0.272615	0.258301
H152	H	1.986194	0.227385	0.758301
H153	H	1.044504	0.391856	-0.046423
H154	H	1.544504	0.891856	0.453577
H155	H	1.654283	0.009802	0.759841
H156	H	2.154283	0.509802	1.259841
H157	H	1.312285	0.222351	0.734702
H158	H	1.812285	0.722351	1.234702
H159	H	1.157161	0.318756	0.592788
H160	H	1.657161	0.818756	1.092788
H161	H	1.251109	-0.023516	0.002778
H162	H	1.751109	0.476484	0.502778
H163	H	1.190719	0.263608	-0.031238
H164	H	1.690719	0.763608	0.468762
