data_functionalizedCrystal
_audit_creation_method	'MofGen! by Chris Wilmer'
_symmetry_space_group_name_H-M	'P1'
_symmetry_Int_Tables_number	1
_symmetry_cell_setting	triclinic
loop_
_symmetry_equiv_pos_as_xyz
  x,y,z
_cell_length_a	13.339070
_cell_length_b	22.010155
_cell_length_c	13.262508
_cell_angle_alpha	74.077398
_cell_angle_beta	99.430496
_cell_angle_gamma	90.011146
loop_
_atom_site_label
_atom_site_type_symbol
_atom_site_fract_x
_atom_site_fract_y
_atom_site_fract_z
O1	O	1.344486	-0.036518	0.526831
O2	O	1.049671	-0.025094	0.457680
O3	O	1.204502	-0.005916	0.341622
O4	O	1.189656	-0.055696	0.642888
O5	O	1.204474	-0.106969	0.341638
O6	O	1.049643	-0.126147	0.457695
O7	O	1.344458	-0.137571	0.526847
Cu8	Cu	1.197048	-0.141086	0.492273
Cu9	Cu	1.197081	-0.021579	0.492254
O10	O	1.189627	-0.156749	0.642904
C11	C	1.011919	-0.073690	0.446006
C12	C	0.899472	-0.067938	0.411188
N13	N	1.197032	-0.225141	0.492287
C14	C	0.535808	-0.112662	0.681917
C15	C	0.641457	-0.118066	0.714634
C16	C	0.705966	-0.105535	0.638775
C17	C	0.664815	-0.087598	0.530194
C18	C	0.559156	-0.082189	0.497474
C19	C	0.729314	-0.075062	0.454332
C20	C	0.688163	-0.057125	0.345751
C21	C	0.582514	-0.051718	0.313037
C22	C	0.518005	-0.064249	0.388895
C23	C	0.834973	-0.080470	0.487052
C24	C	0.858321	-0.049997	0.302609
C25	C	0.752672	-0.044594	0.269893
C26	C	1.265644	-0.636425	0.440875
C27	C	1.265649	-0.700031	0.440869
O28	O	1.323945	-0.725700	0.397158
N29	N	1.197081	-0.740339	0.492232
C30	C	1.128496	-0.717035	0.543594
O31	O	1.070173	-0.757161	0.587281
C32	C	1.128487	-0.653429	0.543593
C33	C	1.197067	-0.613126	0.492236
C34	C	1.334218	-0.596122	0.389521
C35	C	1.334214	-0.532520	0.389529
C36	C	1.265637	-0.509221	0.440890
C37	C	1.197064	-0.549524	0.492244
C38	C	1.059899	-0.630125	0.594949
C39	C	1.059895	-0.566514	0.594942
C40	C	1.128475	-0.526210	0.543586
C41	C	1.128483	-0.462623	0.543613
N42	N	1.197051	-0.422315	0.492250
C43	C	1.265628	-0.445614	0.440889
C44	C	1.128518	-0.850613	0.543591
C45	C	1.128531	-0.914219	0.543600
C46	C	1.265683	-0.897211	0.440872
C47	C	1.265675	-0.833604	0.440871
C48	C	1.197087	-0.810305	0.492229
C49	C	1.265616	-0.312046	0.440910
C50	C	1.265609	-0.248440	0.440926
C51	C	1.128454	-0.265454	0.543648
C52	C	1.128464	-0.329055	0.543637
C53	C	1.197049	-0.352349	0.492260
O54	O	1.070213	-0.436909	0.587298
O55	O	1.323933	-0.405480	0.397198
C56	C	1.382210	-0.088973	0.538520
C57	C	1.494657	-0.094722	0.573338
C58	C	1.203658	-0.049940	0.302283
C59	C	1.201174	-0.030563	0.185040
N60	N	1.197105	0.062477	0.492233
C61	C	1.194104	-0.196285	-0.145431
C62	C	1.196430	-0.214491	-0.035276
C63	C	1.197616	-0.168511	0.019809
C64	C	1.196476	-0.104321	-0.035273
C65	C	1.194141	-0.086113	-0.145440
C66	C	1.197654	-0.058339	0.019799
C67	C	1.196513	0.005851	-0.035282
C68	C	1.194179	0.024056	-0.145439
C69	C	1.192993	-0.021925	-0.200523
C70	C	1.199988	-0.076547	0.129966
C71	C	1.200025	0.033626	0.129957
C72	C	1.197699	0.051831	0.019802
C73	C	1.190471	-0.112724	0.682243
C74	C	1.192956	-0.132097	0.799487
H75	H	0.868467	-0.095077	0.575459
H76	H	0.791989	-0.109934	0.665420
H77	H	0.674954	-0.132665	0.803040
H78	H	0.483276	-0.122858	0.743669
C79	C	1.196460	0.122436	-0.040788
H80	H	1.197514	0.147216	0.007790
H81	H	1.136565	0.133355	-0.092949
H82	H	1.254560	0.130297	-0.074570
H83	H	0.431976	-0.059851	0.362262
C84	C	1.053018	-0.239814	0.600132
H85	H	1.062834	-0.196159	0.592764
H86	H	1.064290	-0.262357	0.673480
H87	H	0.985377	-0.245097	0.568973
H88	H	1.193241	0.076323	-0.190284
H89	H	1.200908	-0.128810	0.174802
C90	C	1.409673	-0.488196	0.333066
H91	H	1.399871	-0.446978	0.340434
H92	H	1.398412	-0.486491	0.259718
H93	H	1.477305	-0.503776	0.364240
H94	H	1.199509	-0.183338	0.109502
H95	H	0.549013	-0.037106	0.224623
C96	C	1.409665	-0.621742	0.333026
H97	H	1.450502	-0.588622	0.302453
H98	H	1.373072	-0.637573	0.278642
H99	H	1.451992	-0.654828	0.383143
C100	C	0.707399	-0.024858	0.150460
H101	H	0.635238	-0.023428	0.141844
H102	H	0.729496	-0.054721	0.117931
H103	H	0.729521	0.015761	0.117927
C104	C	0.929270	-0.036213	0.219159
H105	H	0.998087	-0.042010	0.254196
H106	H	0.916768	0.006173	0.175899
H107	H	0.916740	-0.064311	0.175914
H108	H	1.197370	-0.266755	0.009566
C109	C	1.192800	-0.246855	-0.206023
H110	H	1.191252	-0.226817	-0.279518
H111	H	1.134183	-0.270957	-0.197147
H112	H	1.252177	-0.273988	-0.178794
C113	C	1.190396	-0.001896	-0.321700
H114	H	1.189877	0.042918	-0.346620
H115	H	1.130862	-0.016610	-0.355775
H116	H	1.248855	-0.019632	-0.337464
C117	C	0.984468	-0.674447	0.651454
H118	H	0.943627	-0.651451	0.682031
H119	H	1.021082	-0.708243	0.705836
H120	H	0.942143	-0.690984	0.601348
C121	C	0.984452	-0.540890	0.651444
H122	H	0.943620	-0.574007	0.682033
H123	H	0.942134	-0.507798	0.601342
H124	H	1.021068	-0.525067	0.705834
H125	H	1.321459	-0.215626	0.399106
C126	C	1.201339	0.084207	0.190539
H127	H	1.202905	0.064170	0.264037
H128	H	1.141972	0.111344	0.163313
H129	H	1.259966	0.108304	0.181661
H130	H	1.321463	-0.331004	0.399073
H131	H	1.321521	-0.916191	0.399049
C132	C	1.341104	-0.789274	0.384369
H133	H	1.381939	-0.812265	0.353778
H134	H	1.383418	-0.772734	0.434469
H135	H	1.304482	-0.755480	0.329980
C136	C	1.053081	-0.824993	0.600106
H137	H	1.012257	-0.858114	0.630701
H138	H	1.010755	-0.791903	0.550009
H139	H	1.089698	-0.809168	0.654493
C140	C	1.053105	-0.958551	0.600102
H141	H	1.062926	-0.999772	0.592755
H142	H	0.985464	-0.942986	0.568966
H143	H	1.064402	-0.960250	0.673454
H144	H	1.072630	-0.361873	0.585470
