data_functionalizedCrystal
_audit_creation_method	'MofGen! by Chris Wilmer'
_symmetry_space_group_name_H-M	'P1'
_symmetry_Int_Tables_number	1
_symmetry_cell_setting	triclinic
loop_
_symmetry_equiv_pos_as_xyz
  x,y,z
_cell_length_a	16.974829
_cell_length_b	16.974813
_cell_length_c	16.053802
_cell_angle_alpha	88.912550
_cell_angle_beta	83.771117
_cell_angle_gamma	83.162295
loop_
_atom_site_label
_atom_site_type_symbol
_atom_site_fract_x
_atom_site_fract_y
_atom_site_fract_z
O1	O	1.056112	0.093746	-0.147118
O2	O	0.825186	0.107280	-0.132432
O3	O	0.946713	-0.014245	-0.132427
O4	O	0.934584	0.215271	-0.147123
O5	O	0.940024	-0.007583	0.006433
O6	O	0.818496	0.113942	0.006429
O7	O	1.049423	0.100407	-0.008258
Zn8	Zn	0.932898	0.108232	0.021133
Zn9	Zn	0.941711	0.099455	-0.161822
O10	O	0.927895	0.221932	-0.008262
C11	C	0.792286	0.110219	-0.060978
C12	C	0.704221	0.109042	-0.054949
C13	C	0.942783	-0.040275	-0.060974
C14	C	0.941029	-0.127761	-0.054947
C15	C	0.208113	0.102830	-0.012888
C16	C	0.290860	0.103936	-0.018554
C17	C	0.335880	0.100852	-0.097082
C18	C	0.298149	0.096669	-0.169947
C19	C	0.215403	0.095569	-0.164280
C20	C	0.583744	0.103759	-0.122148
C21	C	0.666496	0.104857	-0.127809
C22	C	0.659200	0.112125	0.023584
C23	C	0.576454	0.111020	0.029245
C24	C	0.538729	0.106841	-0.043621
N25	N	0.420461	0.101980	-0.102876
N26	N	0.454150	0.105719	-0.037827
C27	C	0.943853	-0.172489	-0.127808
C28	C	0.942199	-0.254690	-0.122142
C29	C	0.937727	-0.292163	-0.043614
C30	C	0.934900	-0.247429	0.029252
C31	C	0.936548	-0.165228	0.023585
C32	C	0.932402	-0.537617	-0.018550
C33	C	0.930756	-0.619824	-0.012889
C34	C	0.938053	-0.627080	-0.164283
C35	C	0.939706	-0.544878	-0.169943
C36	C	0.936875	-0.500150	-0.097077
N37	N	0.936039	-0.376187	-0.037821
N38	N	0.938557	-0.416127	-0.102871
C39	C	1.082323	0.097468	-0.079713
C40	C	1.170388	0.098645	-0.085748
C41	C	0.931825	0.247962	-0.079717
C42	C	0.933580	0.335448	-0.085750
N43	N	0.926888	0.114222	0.145994
N44	N	0.947726	0.093459	-0.286684
C45	C	0.978618	0.062531	0.189687
C46	C	0.974421	0.066728	0.277094
C47	C	0.918499	0.122621	0.320805
C48	C	0.866765	0.174314	0.277106
C49	C	0.870958	0.170112	0.189701
C50	C	0.900184	0.140951	0.582213
C51	C	0.895997	0.145150	0.669623
C52	C	1.003653	0.037563	0.669605
C53	C	1.007844	0.033370	0.582199
C54	C	0.956107	0.085060	0.538508
N55	N	0.914211	0.126914	0.410148
N56	N	0.960392	0.080763	0.449166
H57	H	0.171462	0.105345	0.051058
H58	H	1.016543	0.024637	0.312669
H59	H	0.689924	0.115529	0.082907
C60	C	0.542261	0.099137	-0.202296
H61	H	0.580928	0.097444	-0.249872
H62	H	0.504183	0.144508	-0.205955
H63	H	0.516087	0.052590	-0.200512
H64	H	0.334811	0.094163	-0.233886
H65	H	0.858059	0.183041	0.546646
C66	C	0.805253	0.235795	0.325185
H67	H	0.810170	0.230901	0.383498
H68	H	0.752981	0.226746	0.315020
H69	H	0.814673	0.287677	0.306705
C70	C	0.941156	-0.676280	-0.244428
H71	H	0.939527	-0.730601	-0.229810
H72	H	0.989139	-0.670507	-0.279165
H73	H	0.896699	-0.658088	-0.273750
H74	H	0.703149	0.102352	-0.191759
H75	H	0.927110	-0.650331	0.051061
C76	C	0.945309	-0.303892	-0.202287
H77	H	0.943678	-0.358213	-0.187667
H78	H	0.993296	-0.298121	-0.237017
H79	H	0.900857	-0.285701	-0.231616
H80	H	0.828833	0.212203	0.154127
H81	H	1.045775	-0.004521	0.705187
C82	C	0.929288	-0.488424	0.061598
H83	H	0.930898	-0.434099	0.046983
H84	H	0.973733	-0.506608	0.090930
H85	H	0.881295	-0.494202	0.096324
C86	C	0.332352	0.108551	0.061591
H87	H	0.293690	0.110225	0.109170
H88	H	0.358527	0.155094	0.059814
H89	H	0.370432	0.063175	0.065242
C90	C	0.948774	-0.131272	-0.214187
H91	H	0.949359	-0.075911	-0.207130
H92	H	0.903787	-0.140027	-0.241660
H93	H	0.996226	-0.152445	-0.247060
C94	C	0.944615	-0.503662	-0.256323
H95	H	0.946052	-0.542073	-0.298906
H96	H	0.991624	-0.477950	-0.264387
H97	H	0.899184	-0.465540	-0.258971
H98	H	1.053380	-0.012142	0.546611
H99	H	0.539805	0.113514	0.093191
C100	C	0.834438	0.206593	0.717710
H101	H	0.804208	0.236760	0.679174
H102	H	0.861365	0.240953	0.747675
H103	H	0.799743	0.179952	0.755941
C104	C	0.929984	-0.288647	0.115630
H105	H	0.929416	-0.344011	0.108571
H106	H	0.882540	-0.267479	0.148509
H107	H	0.974980	-0.279890	0.143096
H108	H	0.184689	0.092164	-0.223611
C109	C	0.933444	-0.116028	0.103732
H110	H	0.930552	-0.150118	0.151312
H111	H	0.887718	-0.077603	0.107370
H112	H	0.980158	-0.090019	0.101966
H113	H	1.024158	0.017021	0.154103
