data_functionalizedCrystal
_audit_creation_method	'MofGen! by Chris Wilmer'
_symmetry_space_group_name_H-M	'P1'
_symmetry_Int_Tables_number	1
_symmetry_cell_setting	triclinic
loop_
_symmetry_equiv_pos_as_xyz
  x,y,z
_cell_length_a	22.010155
_cell_length_b	15.995350
_cell_length_c	15.995350
_cell_angle_alpha	83.492375
_cell_angle_beta	90.006484
_cell_angle_gamma	89.995184
loop_
_atom_site_label
_atom_site_type_symbol
_atom_site_fract_x
_atom_site_fract_y
_atom_site_fract_z
O1	O	0.050471	-1.110992	-0.107915
O2	O	0.550471	-0.610992	0.392085
O3	O	0.050483	-0.867216	-0.121242
O4	O	0.550483	-0.367216	0.378758
O5	O	0.050476	-0.995768	0.007309
O6	O	0.550476	-0.495768	0.507309
O7	O	0.050478	-0.982440	-0.236466
O8	O	0.550478	-0.482440	0.263534
O9	O	-0.050575	-0.995744	0.007290
O10	O	0.449425	-0.495744	0.507290
O11	O	-0.050568	-0.867193	-0.121262
O12	O	0.449432	-0.367193	0.378738
O13	O	-0.050580	-1.110968	-0.107934
O14	O	0.449420	-0.610968	0.392066
Cu15	Cu	-0.059800	-0.989079	-0.114600
Cu16	Cu	0.440200	-0.489079	0.385400
Cu17	Cu	0.059703	-0.989106	-0.114577
Cu18	Cu	0.559703	-0.489106	0.385423
O19	O	-0.050573	-0.982417	-0.236486
O20	O	0.449427	-0.482417	0.263514
C21	C	-0.000041	-0.836010	-0.120701
C22	C	0.499959	-0.336010	0.379299
C23	C	-0.000036	-0.743060	-0.119049
C24	C	0.499964	-0.243060	0.380951
C25	C	-0.000048	-0.995205	0.038494
C26	C	0.499952	-0.495205	0.538494
C27	C	-0.000045	-0.993553	0.131444
C28	C	0.499955	-0.493553	0.631444
N29	N	-0.143853	-0.989065	-0.114615
N30	N	0.356147	-0.489065	0.385385
C31	C	-0.563635	-1.046032	-0.057663
C32	C	-0.063635	-0.546032	0.442337
C33	C	-0.627243	-1.046036	-0.057657
C34	C	-0.127243	-0.546036	0.442343
O35	O	-0.660137	-1.094438	-0.009244
O36	O	-0.160137	-0.594438	0.490756
N37	N	-0.659060	-0.989106	-0.114559
N38	N	-0.159060	-0.489106	0.385441
C39	C	-0.627266	-0.932162	-0.171466
C40	C	-0.127266	-0.432162	0.328534
O41	O	-0.660170	-0.883738	-0.219865
O42	O	-0.160170	-0.383738	0.280135
C43	C	-0.563660	-0.932155	-0.171467
C44	C	-0.063660	-0.432155	0.328533
C45	C	-0.531846	-0.989095	-0.114566
C46	C	-0.031846	-0.489095	0.385434
C47	C	-0.531822	-1.102966	-0.000766
C48	C	-0.031822	-0.602966	0.499234
C49	C	-0.468218	-1.102963	-0.000773
C50	C	0.031782	-0.602963	0.499227
C51	C	-0.436429	-1.046026	-0.057677
C52	C	0.063571	-0.546026	0.442323
C53	C	-0.468243	-0.989092	-0.114573
C54	C	0.031757	-0.489092	0.385427
C55	C	-0.531867	-0.875208	-0.228369
C56	C	-0.031867	-0.375208	0.271631
C57	C	-0.468256	-0.875205	-0.228364
C58	C	0.031744	-0.375205	0.271636
C59	C	-0.436442	-0.932145	-0.171464
C60	C	0.063558	-0.432145	0.328536
C61	C	-0.372850	-0.932151	-0.171484
C62	C	0.127150	-0.432151	0.328516
N63	N	-0.341033	-0.989081	-0.114581
N64	N	0.158967	-0.489081	0.385419
C65	C	-0.372822	-1.046019	-0.057678
C66	C	0.127178	-0.546019	0.442322
C67	C	-0.760844	-0.932181	-0.171458
C68	C	-0.260844	-0.432181	0.328542
C69	C	-0.824449	-0.932191	-0.171462
C70	C	-0.324449	-0.432191	0.328538
C71	C	-0.824422	-1.046064	-0.057652
C72	C	-0.324422	-0.546064	0.442348
C73	C	-0.760815	-1.046057	-0.057653
C74	C	-0.260815	-0.546057	0.442347
C75	C	-0.729027	-0.989111	-0.114556
C76	C	-0.229027	-0.489111	0.385444
C77	C	-0.239251	-1.046009	-0.057697
C78	C	0.260749	-0.546009	0.442303
C79	C	-0.175642	-1.046003	-0.057712
C80	C	0.324358	-0.546003	0.442288
C81	C	-0.175675	-0.932127	-0.171519
C82	C	0.324325	-0.432127	0.328481
C83	C	-0.239279	-0.932136	-0.171508
C84	C	0.260721	-0.432136	0.328492
C85	C	-0.271065	-0.989079	-0.114590
C86	C	0.228935	-0.489079	0.385410
O87	O	-0.339916	-0.883772	-0.219870
O88	O	0.160084	-0.383772	0.280130
O89	O	-0.339911	-1.094427	-0.009279
O90	O	0.160089	-0.594427	0.490721
N91	N	0.143756	-0.989126	-0.114555
N92	N	0.643756	-0.489126	0.385445
C93	C	-0.000055	-1.142175	-0.108476
C94	C	0.499945	-0.642175	0.391524
C95	C	-0.000056	-1.235125	-0.110127
C96	C	0.499944	-0.735125	0.389873
C97	C	-0.000049	-0.405312	-0.113117
C98	C	0.499951	0.094688	0.386883
C99	C	-0.000275	-0.452746	-0.021565
C100	C	0.499725	0.047254	0.478435
C101	C	-0.000043	-0.549436	-0.023217
C102	C	0.499957	-0.049436	0.476783
C103	C	-0.000043	-0.572873	-0.116060
C104	C	0.499957	-0.072873	0.383940
C105	C	0.057660	-0.531799	-0.161205
C106	C	0.557660	-0.031799	0.338795
C107	C	0.057704	-0.435163	-0.158905
C108	C	0.557704	0.064837	0.341095
C109	C	-0.057209	-0.434798	-0.160819
C110	C	0.442791	0.065202	0.339181
C111	C	-0.057968	-0.531743	-0.160797
C112	C	0.442032	-0.031743	0.339203
C113	C	-0.000037	-0.667570	-0.117727
C114	C	0.499963	-0.167570	0.382273
C115	C	-0.000050	-0.310614	-0.111452
C116	C	0.499950	0.189386	0.388548
C117	C	-0.000047	-0.982980	-0.267671
C118	C	0.499953	-0.482980	0.232329
C119	C	-0.000047	-0.984631	-0.360621
C120	C	0.499953	-0.484631	0.139379
C121	C	-0.000046	-0.987621	0.469192
C122	C	0.499954	-0.487621	0.969192
C123	C	0.000185	-0.896069	0.421758
C124	C	0.500185	-0.396069	0.921758
C125	C	-0.000043	-0.897721	0.325068
C126	C	0.499957	-0.397721	0.825068
C127	C	-0.000045	-0.990564	0.301631
C128	C	0.499955	-0.490564	0.801631
C129	C	-0.057751	-1.035707	0.342698
C130	C	0.442249	-0.535707	0.842698
C131	C	-0.057799	-1.033407	0.439334
C132	C	0.442201	-0.533407	0.939334
C133	C	0.057114	-1.035325	0.439714
C134	C	0.557114	-0.535325	0.939714
C135	C	0.057876	-1.035303	0.342768
C136	C	0.557876	-0.535303	0.842768
C137	C	-0.000047	-0.992231	0.206934
C138	C	0.499953	-0.492231	0.706934
C139	C	-0.000049	-0.985956	0.563890
C140	C	0.499951	-0.485956	1.063890
H141	H	-0.149741	-1.092373	-0.011376
H142	H	0.350259	-0.592373	0.488624
H143	H	-0.100947	-0.414252	-0.130897
H144	H	0.399053	0.085748	0.369103
Br145	Br	-0.282379	-1.123290	0.019549
Br146	Br	0.217621	-0.623290	0.519549
H147	H	0.059805	-0.545924	-0.229414
H148	H	0.559805	-0.045924	0.270586
Br149	Br	-0.425049	-1.180237	0.076456
Br150	Br	0.074951	-0.680237	0.576456
H151	H	-0.734916	-1.092422	-0.011319
H152	H	-0.234916	-0.592422	0.488681
Br153	Br	-0.574953	-1.180248	0.076472
Br154	Br	-0.074953	-0.680248	0.576472
Br155	Br	-0.061334	-1.149394	0.319159
Br156	Br	0.438666	-0.649394	0.819159
H157	H	0.100603	-0.560183	-0.129833
H158	H	0.600603	-0.060183	0.370167
Br159	Br	-0.063778	-0.557343	-0.273647
Br160	Br	0.436222	-0.057343	0.226353
H161	H	-0.149783	-0.885772	-0.217851
H162	H	0.350217	-0.385772	0.282149
Br163	Br	0.069160	-0.835089	0.452653
Br164	Br	0.569160	-0.335089	0.952653
Br165	Br	-0.867578	-1.123337	0.019575
Br166	Br	-0.367578	-0.623337	0.519575
H167	H	-0.850348	-0.885834	-0.217804
H168	H	-0.350348	-0.385834	0.282196
Br169	Br	-0.425119	-0.797913	-0.305592
Br170	Br	0.074881	-0.297913	0.194408
Br171	Br	-0.282453	-0.854869	-0.248743
Br172	Br	0.217547	-0.354869	0.251257
H173	H	-0.100656	-0.559050	-0.127841
H174	H	0.399344	-0.059050	0.372159
Br175	Br	-0.717708	-0.854895	-0.248697
Br176	Br	-0.217708	-0.354895	0.251303
Br177	Br	-0.129325	-0.983419	0.295384
Br178	Br	0.370675	-0.483419	0.795384
H179	H	-0.057600	-0.403036	-0.228319
H180	H	0.442400	0.096964	0.271681
H181	H	-0.041407	-0.577856	0.012270
H182	H	0.458593	-0.077856	0.512270
Br183	Br	-0.069099	-0.838140	0.278603
Br184	Br	0.430901	-0.338140	0.778603
H185	H	0.041323	-0.862235	0.296653
H186	H	0.541323	-0.362235	0.796653
Br187	Br	-0.129691	-0.978505	0.469828
Br188	Br	0.370309	-0.478505	0.969828
H189	H	-0.040963	-0.859630	0.441344
H190	H	0.459037	-0.359630	0.941344
H191	H	-0.060419	-1.100623	0.471581
H192	H	0.439581	-0.600623	0.971581
Br193	Br	-0.069247	-0.421856	0.039419
Br194	Br	0.430753	0.078144	0.539419
Br195	Br	0.130013	-0.985444	0.473949
Br196	Br	0.630013	-0.485444	0.973949
Br197	Br	0.129041	-0.980754	0.296827
Br198	Br	0.629041	-0.480754	0.796827
Br199	Br	0.068309	-0.420100	0.039171
Br200	Br	0.568309	0.079900	0.539171
Br201	Br	0.063687	-1.148150	0.317160
Br202	Br	0.563687	-0.648150	0.817160
Br203	Br	0.057759	-1.147830	0.492649
Br204	Br	0.557759	-0.647830	0.992649
H205	H	0.041392	-0.577304	0.012526
H206	H	0.541392	-0.077304	0.512526
Br207	Br	-0.575030	-0.797929	-0.305594
Br208	Br	-0.075030	-0.297929	0.194406
H209	H	0.060323	-0.402915	-0.226121
H210	H	0.560323	0.097085	0.273879
Br211	Br	0.129597	-0.404659	-0.104007
Br212	Br	0.629597	0.095341	0.395993
