data_functionalizedCrystal
_audit_creation_method	'MofGen! by Chris Wilmer'
_symmetry_space_group_name_H-M	'P1'
_symmetry_Int_Tables_number	1
_symmetry_cell_setting	triclinic
loop_
_symmetry_equiv_pos_as_xyz
  x,y,z
_cell_length_a	12.759401
_cell_length_b	8.497374
_cell_length_c	12.759393
_cell_angle_alpha	90.022737
_cell_angle_beta	89.977503
_cell_angle_gamma	90.003766
loop_
_atom_site_label
_atom_site_type_symbol
_atom_site_fract_x
_atom_site_fract_y
_atom_site_fract_z
Zn1	Zn	-1.606407	-0.627945	0.594121
Zn2	Zn	-1.606357	-0.891794	0.418464
Zn3	Zn	-1.430706	-0.628026	0.418451
Zn4	Zn	-1.430757	-0.891681	0.594097
O5	O	-1.518557	-0.759861	0.506283
O6	O	-1.753422	-0.662959	0.570835
O7	O	-1.583015	-0.856886	0.271442
O8	O	-1.454013	-0.407253	0.441758
O9	O	-1.753385	-0.856808	0.441781
O10	O	-1.583100	-0.407193	0.570822
O11	O	-1.453964	-0.663096	0.271432
O12	O	-1.283692	-0.662986	0.441735
O13	O	-1.454099	-0.856614	0.741121
O14	O	-1.283729	-0.856693	0.570781
O15	O	-1.583149	-0.662849	0.741138
O16	O	-1.583064	-1.112541	0.441758
O17	O	-1.454051	-1.112458	0.570795
C18	C	-1.245589	-0.759837	0.506255
C19	C	-1.128813	-0.759865	0.506268
C20	C	-1.073998	-0.860880	0.573355
C21	C	-0.964274	-0.860884	0.573373
C22	C	-0.964189	-0.658853	0.439207
C23	C	-1.073911	-0.658842	0.439195
C24	C	-0.814391	-0.917488	0.697234
C25	C	-0.759572	-1.018528	0.764312
C26	C	-0.795204	-1.172486	0.780275
C27	C	-0.885653	-1.225435	0.729144
C28	C	-0.940466	-1.124404	0.662059
C29	C	-0.904836	-0.970424	0.646116
C30	C	-1.223797	-0.602254	0.315332
C31	C	-1.278612	-0.501230	0.248241
C32	C	-1.242981	-0.347269	0.232267
C33	C	-1.152529	-0.294325	0.283379
C34	C	-1.097714	-0.395350	0.350471
C35	C	-1.133352	-0.549309	0.366446
C36	C	-0.792590	-0.759882	0.506305
C37	C	-0.909367	-0.759879	0.506297
C38	C	-1.518548	-0.348381	0.506288
C39	C	-1.518548	-0.169737	0.506291
C40	C	-1.518635	-0.759710	0.780317
C41	C	-1.518669	-0.759645	0.897093
C42	C	-1.518539	-0.759898	0.233316
C43	C	-1.518709	-0.759519	0.116540
C44	C	-1.585870	-0.658736	0.951966
C45	C	-1.585888	-0.658668	1.061690
C46	C	-1.451500	-0.860433	1.061659
C47	C	-1.451478	-0.860492	0.951937
C48	C	-1.623458	-0.472539	1.211653
C49	C	-1.690676	-0.371643	1.266529
C50	C	-1.793183	-0.347454	1.230938
C51	C	-1.828494	-0.424183	1.140473
C52	C	-1.761282	-0.525091	1.085602
C53	C	-1.658760	-0.549250	1.121191
C54	C	-1.413919	-1.046622	0.801973
C55	C	-1.346711	-1.147539	0.747100
C56	C	-1.244202	-1.171745	0.782689
C57	C	-1.208895	-1.095043	0.873158
C58	C	-1.276103	-0.994126	0.928030
C59	C	-1.378611	-0.969918	0.892434
H60	H	-1.252822	-0.727618	0.328342
Br61	Br	-0.636826	-0.946670	0.833704
Br62	Br	-1.642757	-0.267518	1.389301
H63	H	-1.790033	-0.587569	1.011950
Br64	Br	-1.148504	-0.997977	0.664383
Br65	Br	-0.933994	-1.434403	0.750793
Br66	Br	-1.394634	-1.251659	0.624329
H67	H	-0.919475	-0.576607	0.384598
H68	H	-1.247347	-0.931672	1.001696
Br69	Br	-1.484328	-0.505334	1.259949
Br70	Br	-1.967627	-0.391378	1.092188
H71	H	-0.750563	-1.254753	0.834893
Br72	Br	-1.401357	-0.573094	0.178853
H73	H	-0.785377	-0.792118	0.684254
H74	H	-1.014108	-1.167514	0.620429
H75	H	-1.123506	-0.168968	0.270357
Br76	Br	-1.677055	-0.521871	0.877538
Br77	Br	-0.974948	-0.323504	0.419831
H78	H	-1.847912	-0.265301	1.275626
H79	H	-1.287617	-0.265021	0.177626
H80	H	-1.396799	-0.942542	1.106326
H81	H	-1.125425	-1.114757	0.902138
Br82	Br	-1.553029	-1.013718	0.753640
H83	H	-1.189486	-1.253934	0.738006
