data_functionalizedCrystal
_audit_creation_method	'MofGen! by Chris Wilmer'
_symmetry_space_group_name_H-M	'P1'
_symmetry_Int_Tables_number	1
_symmetry_cell_setting	triclinic
loop_
_symmetry_equiv_pos_as_xyz
  x,y,z
_cell_length_a	14.519709
_cell_length_b	14.421503
_cell_length_c	14.519709
_cell_angle_alpha	89.999403
_cell_angle_beta	83.680145
_cell_angle_gamma	89.987312
loop_
_atom_site_label
_atom_site_type_symbol
_atom_site_fract_x
_atom_site_fract_y
_atom_site_fract_z
O1	O	1.223853	0.076993	0.120884
O2	O	0.955376	0.077022	0.135121
O3	O	1.096733	0.076998	-0.006236
O4	O	1.082496	0.077016	0.262241
O5	O	1.096750	-0.077225	-0.006227
O6	O	0.955393	-0.077202	0.135130
O7	O	1.223870	-0.077230	0.120894
Cu8	Cu	1.089633	-0.091298	0.128013
Cu9	Cu	1.089613	0.091089	0.128002
O10	O	1.082513	-0.077207	0.262250
C11	C	0.921025	-0.000087	0.134462
C12	C	0.818643	-0.000076	0.132474
C13	C	0.443748	-0.000119	0.125154
C14	C	0.548056	-0.000106	0.127187
C15	C	0.631192	-0.000096	0.128814
C16	C	0.735507	-0.000086	0.130847
N17	N	1.089654	-0.219579	0.128020
C18	C	1.155032	-0.469219	0.062642
C19	C	1.071670	-0.531008	0.044594
C20	C	1.089634	-0.408741	0.128009
C21	C	1.172975	-0.531045	0.146003
C22	C	1.089621	-0.591462	0.127996
C23	C	1.006230	-0.469169	0.109919
C24	C	1.107590	-0.469201	0.211364
C25	C	1.024168	-0.530962	0.193352
C26	C	1.089642	-0.303480	0.128014
C27	C	1.089603	-0.696721	0.127991
C28	C	1.258221	-0.000120	0.121553
C29	C	1.360602	-0.000125	0.123541
C30	C	1.096078	-0.000114	-0.040591
C31	C	1.094090	-0.000114	-0.142972
N32	N	1.089599	0.219370	0.127987
C33	C	1.086770	-0.000089	-0.517868
C34	C	1.088803	-0.000096	-0.413560
C35	C	1.090430	-0.000102	-0.330423
C36	C	1.092463	-0.000108	-0.226109
C37	C	1.083168	-0.000093	0.296606
C38	C	1.085156	-0.000087	0.398987
H39	H	1.210278	-0.442108	0.007333
H40	H	1.056470	-0.558158	-0.025903
H41	H	1.122816	-0.442031	0.281840
Br42	Br	1.290453	-0.576355	0.171377
H43	H	0.935727	-0.442104	0.094614
Br44	Br	0.931886	-0.575866	0.285486
