data_functionalizedCrystal
_audit_creation_method	'MofGen! by Chris Wilmer'
_symmetry_space_group_name_H-M	'P1'
_symmetry_Int_Tables_number	1
_symmetry_cell_setting	triclinic
loop_
_symmetry_equiv_pos_as_xyz
  x,y,z
_cell_length_a	16.109302
_cell_length_b	14.586319
_cell_length_c	16.109304
_cell_angle_alpha	89.997551
_cell_angle_beta	96.537798
_cell_angle_gamma	90.002485
loop_
_atom_site_label
_atom_site_type_symbol
_atom_site_fract_x
_atom_site_fract_y
_atom_site_fract_z
O1	O	1.103128	0.076274	-0.106872
O2	O	0.861066	0.076266	-0.120171
O3	O	0.988745	0.076273	0.007510
O4	O	0.975448	0.076268	-0.234552
O5	O	0.988744	-0.076208	0.007518
O6	O	0.861065	-0.076215	-0.120163
O7	O	1.103127	-0.076207	-0.106864
Cu8	Cu	0.982096	-0.090133	-0.113513
Cu9	Cu	0.982097	0.090193	-0.113522
O10	O	0.975447	-0.076213	-0.234544
C11	C	0.830090	0.000025	-0.119628
C12	C	0.737795	0.000022	-0.118012
C13	C	0.525454	-0.083086	-0.114273
C14	C	0.438734	-0.083083	-0.112746
C15	C	0.438745	0.083160	-0.112759
C16	C	0.525464	0.083156	-0.114280
C17	C	0.568816	0.000030	-0.115041
C18	C	0.395377	0.000038	-0.111994
C19	C	0.301351	0.000042	-0.110338
C20	C	0.662848	0.000026	-0.116695
N21	N	0.982101	-0.216965	-0.113505
C22	C	0.988206	0.000035	0.038488
C23	C	0.986590	0.000042	0.130784
C24	C	1.134102	0.000037	-0.107407
C25	C	1.226397	0.000046	-0.109022
N26	N	0.982098	0.217025	-0.113523
C27	C	1.038744	0.452034	-0.057095
C28	C	1.038746	0.548015	-0.057093
C29	C	0.925453	0.548019	-0.169938
C30	C	0.925455	0.452039	-0.169944
C31	C	0.982099	0.404049	-0.113518
C32	C	0.982100	0.596010	-0.113510
C33	C	0.982102	0.700077	-0.113509
C34	C	0.982098	0.299976	-0.113520
C35	C	0.982857	0.083159	0.343117
C36	C	0.981330	0.083159	0.429837
C37	C	0.981333	-0.083084	0.429842
C38	C	0.982854	-0.083083	0.343123
C39	C	0.983619	0.000041	0.299763
C40	C	0.980573	0.000040	0.473202
C41	C	0.978918	0.000040	0.567228
C42	C	0.985273	0.000041	0.205731
C43	C	0.975987	0.000030	0.734477
C44	C	0.977603	0.000039	0.642182
H45	H	0.560771	0.150843	-0.114903
H46	H	0.983478	0.150844	0.307815
H47	H	1.084868	0.412963	-0.011151
H48	H	0.980712	-0.150761	0.465157
H49	H	0.879333	0.587102	-0.215878
H50	H	0.879328	0.412968	-0.215893
H51	H	0.403432	-0.150764	-0.112121
H52	H	0.980708	0.150842	0.465131
H53	H	1.084872	0.587082	-0.011151
H54	H	0.560748	-0.150772	-0.114893
H55	H	0.983470	-0.150772	0.307823
H56	H	0.403438	0.150838	-0.112140
