data_functionalizedCrystal
_audit_creation_method	'MofGen! by Chris Wilmer'
_symmetry_space_group_name_H-M	'P1'
_symmetry_Int_Tables_number	1
_symmetry_cell_setting	triclinic
loop_
_symmetry_equiv_pos_as_xyz
  x,y,z
_cell_length_a	21.295417
_cell_length_b	21.295418
_cell_length_c	21.295411
_cell_angle_alpha	89.952143
_cell_angle_beta	90.020597
_cell_angle_gamma	89.952090
loop_
_atom_site_label
_atom_site_type_symbol
_atom_site_fract_x
_atom_site_fract_y
_atom_site_fract_z
Zn1	Zn	-0.250375	-0.962359	0.356307
Zn2	Zn	0.249625	-0.462359	0.856307
Zn3	Zn	-0.355627	-0.962263	0.251035
Zn4	Zn	0.144373	-0.462263	0.751035
Zn5	Zn	-0.250409	-0.857083	0.251010
Zn6	Zn	0.249591	-0.357083	0.751010
Zn7	Zn	-0.355644	-0.857053	0.356224
Zn8	Zn	0.144356	-0.357053	0.856224
O9	O	-0.303014	-0.909690	0.303644
O10	O	0.196986	-0.409690	0.803644
O11	O	-0.264316	-1.050436	0.342388
O12	O	0.235684	-0.550436	0.842388
O13	O	-0.341677	-0.948283	0.162942
O14	O	0.158323	-0.448283	0.662942
O15	O	-0.162315	-0.871100	0.265002
O16	O	0.337685	-0.371100	0.765002
O17	O	-0.341644	-1.050365	0.265045
O18	O	0.158356	-0.550365	0.765045
O19	O	-0.162290	-0.948447	0.342364
O20	O	0.337710	-0.448447	0.842364
O21	O	-0.264373	-0.871007	0.162924
O22	O	0.235627	-0.371007	0.662924
O23	O	-0.264390	-0.768989	0.264921
O24	O	0.235610	-0.268989	0.764921
O25	O	-0.341672	-0.871051	0.444324
O26	O	0.158328	-0.371051	0.944324
O27	O	-0.341705	-0.768968	0.342221
O28	O	0.158295	-0.268968	0.842221
O29	O	-0.264332	-0.948418	0.444386
O30	O	0.235668	-0.448418	0.944386
O31	O	-0.443718	-0.948255	0.264964
O32	O	0.056282	-0.448255	0.764964
O33	O	-0.443731	-0.870957	0.342245
O34	O	0.056269	-0.370957	0.842245
C35	C	-0.303054	-0.746138	0.303560
C36	C	0.196946	-0.246138	0.803560
C37	C	-0.303086	-0.676170	0.303538
C38	C	0.196914	-0.176170	0.803538
C39	C	-0.343399	-0.643309	0.343726
C40	C	0.156601	-0.143309	0.843726
C41	C	-0.343386	-0.577566	0.343750
C42	C	0.156614	-0.077566	0.843750
C43	C	-0.303067	-0.544687	0.303574
C44	C	0.196933	-0.044687	0.803574
C45	C	-0.262746	-0.577557	0.263384
C46	C	0.237254	-0.077557	0.763384
C47	C	-0.262756	-0.643298	0.263366
C48	C	0.237244	-0.143298	0.763366
N49	N	-0.298144	-0.441411	0.248509
N50	N	0.201856	0.058589	0.748509
N51	N	-0.298139	-0.378960	0.248528
N52	N	0.201861	0.121040	0.748528
C53	C	-0.303035	-0.346613	0.303627
C54	C	0.196965	0.153387	0.803627
N55	N	-0.307949	-0.379076	0.358707
N56	N	0.192051	0.120924	0.858707
N57	N	-0.307958	-0.441533	0.358688
N58	N	0.192042	0.058467	0.858688
C59	C	-0.303052	-0.473402	0.303590
C60	C	0.196948	0.026598	0.803590
C61	C	-0.343336	-0.242466	0.343843
C62	C	0.156664	0.257534	0.843843
C63	C	-0.343319	-0.176722	0.343868
C64	C	0.156681	0.323278	0.843868
C65	C	-0.262683	-0.176714	0.263497
C66	C	0.237317	0.323286	0.763497
C67	C	-0.262696	-0.242456	0.263478
C68	C	0.237304	0.257544	0.763478
C69	C	-0.303027	-0.275328	0.303650
C70	C	0.196973	0.224672	0.803650
C71	C	-0.466565	-0.909609	0.303612
C72	C	0.033435	-0.409609	0.803612
C73	C	-0.536533	-0.909633	0.303619
C74	C	-0.036533	-0.409633	0.803619
C75	C	-0.569330	-0.949884	0.343930
C76	C	-0.069330	-0.449884	0.843930
C77	C	-0.635072	-0.949906	0.343946
C78	C	-0.135072	-0.449906	0.843946
C79	C	-0.668016	-0.909684	0.303639
C80	C	-0.168016	-0.409684	0.803639
C81	C	-0.635211	-0.869425	0.263325
C82	C	-0.135211	-0.369425	0.763325
C83	C	-0.569470	-0.869399	0.263315
C84	C	-0.069470	-0.369399	0.763315
N85	N	-0.771270	-0.904924	0.248546
N86	N	-0.271270	-0.404924	0.748546
N87	N	-0.833721	-0.904952	0.248557
N88	N	-0.333721	-0.404952	0.748557
C89	C	-0.866090	-0.909757	0.303668
C90	C	-0.366090	-0.409757	0.803668
N91	N	-0.833649	-0.914546	0.358767
N92	N	-0.333649	-0.414546	0.858767
N93	N	-0.771192	-0.914521	0.358755
N94	N	-0.271192	-0.414521	0.858755
C95	C	-0.739301	-0.909707	0.303646
C96	C	-0.239301	-0.409707	0.803646
C97	C	-0.970173	-0.950035	0.343999
C98	C	-0.470173	-0.450035	0.843999
C99	C	-1.035916	-0.950053	0.344016
C100	C	-0.535916	-0.450053	0.844016
C101	C	-1.036054	-0.869574	0.263389
C102	C	-0.536054	-0.369574	0.763389
C103	C	-0.970312	-0.869553	0.263378
C104	C	-0.470312	-0.369553	0.763378
C105	C	-0.937375	-0.909787	0.303682
C106	C	-0.437375	-0.409787	0.803682
C107	C	-0.138823	-0.909787	0.303690
C108	C	0.361177	-0.409787	0.803690
C109	C	-0.068855	-0.909829	0.303709
C110	C	0.431145	-0.409829	0.803709
C111	C	-0.303000	-0.909742	0.467834
C112	C	0.197000	-0.409742	0.967834
C113	C	-0.302995	-0.909764	0.537802
C114	C	0.197005	-0.409764	1.037802
C115	C	-0.302984	-0.073880	0.303711
C116	C	0.197016	0.426120	0.803711
C117	C	-0.302999	-0.143848	0.303693
C118	C	0.197001	0.356152	0.803693
C119	C	-0.302981	-0.909674	0.140092
C120	C	0.197019	-0.409674	0.640092
C121	C	-0.302810	-0.909774	0.070125
C122	C	0.197190	-0.409774	0.570125
C123	C	-0.262722	-0.950048	0.570702
C124	C	0.237278	-0.450048	1.070702
C125	C	-0.262694	-0.950047	0.636445
C126	C	0.237306	-0.450047	1.136445
C127	C	-0.302951	-0.909769	0.669285
C128	C	0.197049	-0.409769	1.169285
C129	C	-0.343227	-0.869478	0.636377
C130	C	0.156773	-0.369478	1.136377
C131	C	-0.343249	-0.869475	0.570636
C132	C	0.156751	-0.369475	1.070636
N133	N	-0.358021	-0.904913	0.772499
N134	N	0.141979	-0.404913	1.272499
N135	N	-0.357998	-0.904919	0.834951
N136	N	0.142002	-0.404919	1.334951
C137	C	-0.302887	-0.909773	0.867360
C138	C	0.197113	-0.409773	1.367360
N139	N	-0.247799	-0.914633	0.834958
N140	N	0.252201	-0.414633	1.334958
N141	N	-0.247822	-0.914630	0.772501
N142	N	0.252178	-0.414630	1.272501
C143	C	-0.302932	-0.909767	0.740570
C144	C	0.197068	-0.409767	1.240570
C145	C	-0.262581	-0.950058	0.971545
C146	C	0.237419	-0.450058	1.471545
C147	C	-0.262553	-0.950053	1.037289
C148	C	0.237447	-0.450053	1.537289
C149	C	-0.343092	-0.869487	1.037220
C150	C	0.156908	-0.369487	1.537220
C151	C	-0.343114	-0.869488	0.971478
C152	C	0.156886	-0.369488	1.471478
C153	C	-0.302860	-0.909778	0.938644
C154	C	0.197140	-0.409778	1.438644
H155	H	-0.229851	-0.149945	0.230788
H156	H	0.270149	0.350055	0.730788
N157	N	-0.221450	-0.991194	0.938001
N158	N	0.278550	-0.491194	1.438001
N159	N	-0.181357	-0.969065	0.901299
N160	N	0.318643	-0.469065	1.401299
H161	H	-0.152307	-0.998117	0.877609
H162	H	0.347693	-0.498117	1.377609
H163	H	-0.376213	-0.550805	0.376478
H164	H	0.123787	-0.050805	0.876478
N165	N	-0.384382	-0.828325	0.537017
N166	N	0.115618	-0.328325	1.037017
N167	N	-0.362253	-0.788227	0.500299
N168	N	0.137747	-0.288227	1.000299
H169	H	-0.391303	-0.759164	0.476554
H170	H	0.108697	-0.259164	0.976554
H171	H	-0.229926	-0.670053	0.230640
H172	H	0.270074	-0.170053	0.730640
N173	N	-0.668592	-0.991019	0.385122
N174	N	-0.168592	-0.491019	0.885122
N175	N	-0.705286	-0.968870	0.425210
N176	N	-0.205286	-0.468870	0.925210
H177	H	-0.728959	-0.997905	0.454291
H178	H	-0.228959	-0.497905	0.954291
N179	N	-0.221571	-0.543975	0.222336
N180	N	0.278429	-0.043975	0.722336
N181	N	-0.225662	-0.551250	0.164240
N182	N	0.274338	-0.051250	0.664240
H183	H	-0.196579	-0.527533	0.135250
H184	H	0.303421	-0.027533	0.635250
N185	N	-0.936529	-0.991111	0.385189
N186	N	-0.436529	-0.491111	0.885189
N187	N	-0.899857	-0.968920	0.425268
N188	N	-0.399857	-0.468920	0.925268
H189	H	-0.876099	-0.997928	0.454363
H190	H	-0.376099	-0.497928	0.954363
N191	N	-0.535956	-0.828288	0.222138
N192	N	-0.035956	-0.328288	0.722138
N193	N	-0.477259	-0.828272	0.222135
N194	N	0.022741	-0.328272	0.722135
H195	H	-0.453588	-0.799236	0.193054
H196	H	0.046412	-0.299236	0.693054
N197	N	-0.384514	-0.276058	0.384885
N198	N	0.115486	0.223942	0.884885
N199	N	-0.384517	-0.334755	0.384864
N200	N	0.115483	0.165245	0.884864
H201	H	-0.413598	-0.358480	0.413851
H202	H	0.086402	0.141520	0.913851
H203	H	-0.376145	-0.149968	0.376598
H204	H	0.123855	0.350032	0.876598
H205	H	-0.229754	-0.982856	1.064075
H206	H	0.270246	-0.482856	1.564075
N207	N	-0.384249	-0.828334	0.937869
N208	N	0.115751	-0.328334	1.437869
N209	N	-0.380082	-0.770251	0.945167
N210	N	0.119918	-0.270251	1.445167
H211	H	-0.409134	-0.741181	0.921431
H212	H	0.090866	-0.241181	1.421431
N213	N	-0.221515	-0.276018	0.222420
N214	N	0.278485	0.223982	0.722420
N215	N	-0.185516	-0.246657	0.186553
N216	N	0.314484	0.253343	0.686553
H217	H	-0.156428	-0.270359	0.157556
H218	H	0.343572	0.229641	0.657556
N219	N	-0.535697	-0.990984	0.385103
N220	N	-0.035697	-0.490984	0.885103
N221	N	-0.564993	-1.026920	0.421093
N222	N	-0.064993	-0.526920	0.921093
H223	H	-0.541239	-1.055947	0.450173
H224	H	-0.041239	-0.555947	0.950173
N225	N	-0.668845	-0.828335	0.222145
N226	N	-0.168845	-0.328335	0.722145
N227	N	-0.661571	-0.770243	0.226235
N228	N	-0.161571	-0.270243	0.726235
H229	H	-0.685322	-0.741221	0.197149
H230	H	-0.185322	-0.241221	0.697149
H231	H	-1.062618	-0.982830	0.376845
H232	H	-0.562618	-0.482830	0.876845
H233	H	-0.943607	-0.836780	0.230551
H234	H	-0.443607	-0.336780	0.730551
N235	N	-0.384597	-0.676875	0.384765
N236	N	0.115403	-0.176875	0.884765
N237	N	-0.420588	-0.647522	0.420645
N238	N	0.079412	-0.147522	0.920645
H239	H	-0.449684	-0.671229	0.449630
H240	H	0.050316	-0.171229	0.949630
N241	N	-0.221602	-0.991206	0.537174
N242	N	0.278398	-0.491206	1.037174
N243	N	-0.185646	-1.027172	0.566562
N244	N	0.314354	-0.527172	1.066562
H245	H	-0.156605	-1.056241	0.542883
H246	H	0.343395	-0.556241	1.042883
H247	H	-1.062876	-0.836821	0.230575
H248	H	-0.562876	-0.336821	0.730575
H249	H	-0.229896	-0.982849	0.663237
H250	H	0.270104	-0.482849	1.163237
N251	N	-0.384204	-0.828341	1.070767
N252	N	0.115796	-0.328341	1.570767
N253	N	-0.384177	-0.828344	1.129464
N254	N	0.115823	-0.328344	1.629464
H255	H	-0.413211	-0.799282	1.153160
H256	H	0.086789	-0.299282	1.653160
N257	N	-0.384341	-0.828334	0.669929
N258	N	0.115659	-0.328334	1.169929
N259	N	-0.384317	-0.828342	0.728626
N260	N	0.115683	-0.328342	1.228626
H261	H	-0.413352	-0.799281	0.752323
H262	H	0.086648	-0.299281	1.252323
