data_functionalizedCrystal
_audit_creation_method	'MofGen! by Chris Wilmer'
_symmetry_space_group_name_H-M	'P1'
_symmetry_Int_Tables_number	1
_symmetry_cell_setting	triclinic
loop_
_symmetry_equiv_pos_as_xyz
  x,y,z
_cell_length_a	16.109302
_cell_length_b	16.109301
_cell_length_c	15.186229
_cell_angle_alpha	89.994833
_cell_angle_beta	89.994701
_cell_angle_gamma	83.461631
loop_
_atom_site_label
_atom_site_type_symbol
_atom_site_fract_x
_atom_site_fract_y
_atom_site_fract_z
O1	O	1.103130	0.106869	-0.073271
O2	O	0.861068	0.120168	-0.073264
O3	O	0.988749	-0.007513	-0.073259
O4	O	0.975450	0.234549	-0.073276
O5	O	0.988740	-0.007514	0.073198
O6	O	0.861060	0.120166	0.073193
O7	O	1.103122	0.106867	0.073186
Zn8	Zn	0.982089	0.113516	0.096443
Zn9	Zn	0.982101	0.113519	-0.096521
O10	O	0.975441	0.234547	0.073181
C11	C	0.830089	0.119628	-0.000035
C12	C	0.737794	0.118013	-0.000032
C13	C	0.525448	0.114276	0.079793
C14	C	0.438728	0.112750	0.079790
C15	C	0.438748	0.112756	-0.079885
C16	C	0.525467	0.114277	-0.079881
C17	C	0.568815	0.115041	-0.000039
C18	C	0.395375	0.111994	-0.000046
C19	C	0.301350	0.110338	-0.000050
C20	C	0.662847	0.116695	-0.000035
C21	C	0.988206	-0.038488	-0.000030
C22	C	0.986591	-0.130784	-0.000028
C23	C	1.058599	-0.353056	-0.000044
C24	C	1.057074	-0.439776	-0.000052
C25	C	0.905586	-0.419902	-0.000044
C26	C	0.907111	-0.333184	-0.000043
C27	C	0.983620	-0.299763	-0.000039
C28	C	0.980571	-0.473202	-0.000047
C29	C	0.978918	-0.567228	-0.000055
C30	C	0.985273	-0.205731	-0.000033
C31	C	1.134101	0.107407	-0.000045
C32	C	1.226396	0.109022	-0.000054
C33	C	0.975984	0.265523	-0.000050
C34	C	0.977599	0.357819	-0.000057
N35	N	0.982088	0.113514	0.228136
N36	N	0.982109	0.113514	-0.228214
C37	C	1.038644	0.056996	0.453861
C38	C	1.038647	0.056994	0.546051
C39	C	0.925547	0.170035	0.546055
C40	C	0.925541	0.170032	0.453867
C41	C	0.982094	0.113514	0.407772
C42	C	0.982103	0.113514	0.592150
C43	C	0.982105	0.113513	0.692106
C44	C	0.982091	0.113514	0.307810
H45	H	0.403444	0.112134	-0.144890
Cl46	Cl	0.384214	0.111790	0.180157
H47	H	0.843295	-0.447124	-0.000046
Cl48	Cl	1.109739	-0.014061	0.603988
H49	H	0.560777	0.114897	-0.144895
Cl50	Cl	0.812843	-0.266182	-0.000044
H51	H	0.560739	0.114899	0.144806
H52	H	1.084692	0.010975	0.416333
H53	H	1.120897	-0.325848	-0.000043
H54	H	1.118130	-0.483165	-0.000058
H55	H	0.879503	0.216052	0.583594
Cl56	Cl	0.854440	0.241084	0.395921
