data_functionalizedCrystal
_audit_creation_method	'MofGen! by Chris Wilmer'
_symmetry_space_group_name_H-M	'P1'
_symmetry_Int_Tables_number	1
_symmetry_cell_setting	triclinic
loop_
_symmetry_equiv_pos_as_xyz
  x,y,z
_cell_length_a	8.497374
_cell_length_b	10.686203
_cell_length_c	10.685661
_cell_angle_alpha	99.053948
_cell_angle_beta	94.365569
_cell_angle_gamma	85.629853
loop_
_atom_site_label
_atom_site_type_symbol
_atom_site_fract_x
_atom_site_fract_y
_atom_site_fract_z
Zn1	Zn	1.018713	0.654515	1.979237
Zn2	Zn	0.736175	0.866712	1.995479
Zn3	Zn	0.736199	0.638201	1.767030
Zn4	Zn	0.981162	0.850407	1.783252
O5	O	0.868062	0.752459	1.881249
O6	O	0.996939	0.696315	2.159019
O7	O	0.515417	0.836396	1.965183
O8	O	0.789400	0.462751	1.781594
O9	O	0.789360	0.852215	2.170952
O10	O	0.996962	0.474737	1.937502
O11	O	0.515435	0.668510	1.797342
O12	O	0.752988	0.652699	1.591555
O13	O	1.206905	0.824425	1.809241
O14	O	0.932962	0.808606	1.603473
O15	O	1.234493	0.680504	1.953231
O16	O	0.752948	1.042164	1.980912
O17	O	0.932939	1.030184	1.824990
C18	C	0.838904	0.727114	1.551457
C19	C	0.826464	0.716302	1.410372
C20	C	0.838904	1.082230	1.906508
C21	C	0.826492	1.223316	1.917430
C22	C	1.279542	0.752460	1.881240
C23	C	1.458185	0.752474	1.881244
C24	C	0.897336	0.777904	2.212330
C25	C	0.909810	0.788747	2.353417
C26	C	0.897388	1.421402	1.855914
C27	C	0.909925	1.280322	1.845086
H28	H	0.990694	0.859033	1.412588
F29	F	1.015706	1.203037	1.753209
F30	F	0.720754	0.624410	1.333027
F31	F	0.720689	1.300606	2.009300
