data_functionalizedCrystal
_audit_creation_method	'MofGen! by Chris Wilmer'
_symmetry_space_group_name_H-M	'P1'
_symmetry_Int_Tables_number	1
_symmetry_cell_setting	triclinic
loop_
_symmetry_equiv_pos_as_xyz
  x,y,z
_cell_length_a	10.654554
_cell_length_b	14.044190
_cell_length_c	9.130313
_cell_angle_alpha	89.993628
_cell_angle_beta	89.999615
_cell_angle_gamma	88.839261
loop_
_atom_site_label
_atom_site_type_symbol
_atom_site_fract_x
_atom_site_fract_y
_atom_site_fract_z
O1	O	1.681225	0.133248	-0.121823
O2	O	1.317023	0.145937	-0.121827
O3	O	1.493653	0.001572	-0.121796
O4	O	1.504595	0.277613	-0.121854
O5	O	1.493651	0.001576	0.121803
O6	O	1.317021	0.145941	0.121772
O7	O	1.681223	0.133252	0.121776
Cu8	Cu	1.499122	0.139597	0.144017
Cu9	Cu	1.499124	0.139592	-0.144067
O10	O	1.504593	0.277617	0.121745
C11	C	1.270130	0.145006	-0.000027
C12	C	1.130407	0.142216	-0.000027
C13	C	0.928180	0.224598	-0.000048
C14	C	1.059465	0.227220	-0.000048
C15	C	1.070058	0.054584	-0.000020
C16	C	0.938775	0.051963	-0.000030
C17	C	0.922065	0.324268	-0.000058
C18	C	1.053350	0.326890	-0.000058
C19	C	1.488865	-0.033772	0.000008
C20	C	1.474586	-0.139092	0.000020
C21	C	1.549751	-0.388884	-0.000036
C22	C	1.448501	-0.331922	-0.000027
C23	C	1.463018	-0.224622	-0.000001
C24	C	1.535236	-0.496194	-0.000063
C25	C	1.728116	0.134183	-0.000027
C26	C	1.867839	0.136973	-0.000036
C27	C	1.509382	0.312961	-0.000062
C28	C	1.523661	0.418281	-0.000084
N29	N	1.499130	0.139599	0.346639
N30	N	1.499126	0.139582	-0.346690
C31	C	1.577365	0.075696	0.423305
C32	C	1.577361	0.075685	0.576642
C33	C	1.420881	0.203488	0.576634
C34	C	1.420880	0.203494	0.423300
C35	C	1.667712	0.001913	0.423310
C36	C	1.667707	0.001902	0.576647
H37	H	1.086628	0.365857	0.101892
C38	C	1.800281	0.023863	0.632882
H39	H	1.800273	0.023846	0.736935
H40	H	1.824271	0.084618	0.598211
H41	H	1.858083	-0.023342	0.598210
C42	C	1.334814	0.273781	0.338972
H43	H	1.288223	0.311837	0.406593
H44	H	1.278683	0.239288	0.279158
H45	H	1.384445	0.313598	0.279156
C46	C	1.334823	0.273772	0.660965
H47	H	1.346031	0.264620	0.763266
H48	H	1.249795	0.262883	0.635835
H49	H	1.355569	0.337182	0.635833
H50	H	1.638940	-0.070997	0.381705
H51	H	0.889651	-0.019390	-0.000040
H52	H	1.761218	0.025017	0.375747
C53	C	1.148090	-0.038918	-0.000002
H54	H	1.234920	-0.024809	0.000010
H55	H	1.128754	-0.074816	-0.084942
H56	H	1.128748	-0.074810	0.084965
C57	C	0.870765	0.374962	-0.137812
H58	H	0.938757	0.397584	-0.194465
H59	H	0.818002	0.427112	-0.109558
H60	H	0.823904	0.331439	-0.194423
H61	H	1.647329	-0.357068	-0.000020
H62	H	1.092175	0.358630	-0.105246
H63	H	0.879441	0.354383	0.105113
C64	C	1.316671	-0.374898	-0.000030
H65	H	1.324078	-0.442425	-0.000032
H66	H	1.272298	-0.354385	-0.084968
H67	H	1.272315	-0.354412	0.084939
C68	C	1.617154	-0.091177	0.640910
H69	H	1.594649	-0.132622	0.563423
H70	H	1.545415	-0.077248	0.699476
H71	H	1.680230	-0.121094	0.699464
