data_functionalizedCrystal
_audit_creation_method	'MofGen! by Chris Wilmer'
_symmetry_space_group_name_H-M	'P1'
_symmetry_Int_Tables_number	1
_symmetry_cell_setting	triclinic
loop_
_symmetry_equiv_pos_as_xyz
  x,y,z
_cell_length_a	14.519709
_cell_length_b	18.366186
_cell_length_c	19.288874
_cell_angle_alpha	90.005656
_cell_angle_beta	83.410185
_cell_angle_gamma	90.003469
loop_
_atom_site_label
_atom_site_type_symbol
_atom_site_fract_x
_atom_site_fract_y
_atom_site_fract_z
O1	O	1.223300	0.060456	0.091049
O2	O	0.954756	0.060478	0.101772
O3	O	1.096783	0.060461	-0.004692
O4	O	1.081273	0.060473	0.197512
O5	O	1.096758	-0.060639	-0.004695
O6	O	0.954731	-0.060621	0.101769
O7	O	1.223276	-0.060644	0.091046
Zn8	Zn	1.089000	-0.079860	0.096407
Zn9	Zn	1.089032	0.079694	0.096411
O10	O	1.081249	-0.060626	0.197509
C11	C	0.920387	-0.000069	0.101270
C12	C	0.818015	-0.000060	0.099773
C13	C	0.443154	-0.000094	0.094260
C14	C	0.547452	-0.000084	0.095791
C15	C	0.630581	-0.000076	0.097016
C16	C	0.734886	-0.000068	0.098548
N17	N	1.088984	-0.188751	0.096404
C18	C	1.144734	-0.226847	0.138628
C19	C	1.144749	-0.303075	0.138626
C20	C	1.088997	-0.341203	0.096408
C21	C	1.033244	-0.303098	0.054175
C22	C	1.033238	-0.226871	0.054173
C23	C	1.005866	-0.461978	0.094352
C24	C	1.005871	-0.538203	0.094359
C25	C	1.089018	-0.576311	0.096410
C26	C	1.172162	-0.538185	0.098469
C27	C	1.172155	-0.461959	0.098467
C28	C	1.088998	-0.423858	0.096405
C29	C	1.144789	-0.697062	0.138635
C30	C	1.144806	-0.773292	0.138628
C31	C	1.033292	-0.773313	0.054181
C32	C	1.033284	-0.697085	0.054184
C33	C	1.089031	-0.658964	0.096415
C34	C	1.257645	-0.000095	0.091548
C35	C	1.360016	-0.000099	0.093045
C36	C	1.096270	-0.000089	-0.030571
C37	C	1.094768	-0.000089	-0.107680
N38	N	1.089055	0.188585	0.096409
C39	C	1.083966	-0.066081	-0.663290
C40	C	1.085367	-0.066085	-0.590837
C41	C	1.086086	-0.000075	-0.554601
C42	C	1.085379	0.065945	-0.590822
C43	C	1.083968	0.065947	-0.663273
C44	C	1.142345	0.050492	-0.445066
C45	C	1.143762	0.050487	-0.372618
C46	C	1.090434	-0.000079	-0.331140
C47	C	1.035701	-0.050652	-0.362120
C48	C	1.034290	-0.050649	-0.434571
C49	C	1.087616	-0.000070	-0.476041
C50	C	1.092654	-0.066098	-0.216365
C51	C	1.094051	-0.066100	-0.143910
C52	C	1.094071	0.065932	-0.143898
C53	C	1.092666	0.065931	-0.216351
C54	C	1.091962	-0.000086	-0.252580
C55	C	1.081761	-0.000075	0.223389
C56	C	1.083264	-0.000071	0.300498
H57	H	1.190131	-0.195814	0.173013
Cl58	Cl	1.083088	0.148939	-0.708800
H59	H	1.094646	0.119679	-0.114395
Cl60	Cl	1.214840	-0.350978	0.191712
H61	H	1.085961	0.119691	-0.561315
H62	H	1.085922	-0.119841	-0.561345
Cl63	Cl	1.214902	-0.821185	0.191712
H64	H	1.092101	0.119685	-0.245836
Cl65	Cl	1.276674	-0.414031	0.101054
H66	H	1.083391	-0.119838	-0.692783
H67	H	1.239868	-0.569211	0.100143
Cl68	Cl	1.212572	0.114060	-0.333678
H69	H	1.190182	-0.666023	0.173021
Cl70	Cl	1.209374	0.114079	-0.497201
Cl71	Cl	0.968660	-0.114228	-0.309985
Cl72	Cl	0.963214	-0.821239	0.001098
Cl73	Cl	0.963176	-0.649190	0.001113
Cl74	Cl	1.091764	-0.149090	-0.261913
H75	H	0.987838	-0.195854	0.019788
Cl76	Cl	0.901348	-0.586125	0.091778
H77	H	0.938152	-0.430956	0.092686
Cl78	Cl	1.094916	-0.149093	-0.098383
Cl79	Cl	0.963159	-0.351030	0.001099
Cl80	Cl	0.965480	-0.114219	-0.473515
