data_functionalizedCrystal
_audit_creation_method	'MofGen! by Chris Wilmer'
_symmetry_space_group_name_H-M	'P1'
_symmetry_Int_Tables_number	1
_symmetry_cell_setting	triclinic
loop_
_symmetry_equiv_pos_as_xyz
  x,y,z
_cell_length_a	12.759401
_cell_length_b	29.839131
_cell_length_c	12.759393
_cell_angle_alpha	90.044428
_cell_angle_beta	90.019480
_cell_angle_gamma	90.034343
loop_
_atom_site_label
_atom_site_type_symbol
_atom_site_fract_x
_atom_site_fract_y
_atom_site_fract_z
Zn1	Zn	1.606103	-0.178842	0.593913
Zn2	Zn	2.106103	0.321158	1.093913
Zn3	Zn	1.605935	-0.253979	0.418190
Zn4	Zn	2.105935	0.246021	0.918190
Zn5	Zn	1.430406	-0.178863	0.418248
Zn6	Zn	1.930406	0.321137	0.918248
Zn7	Zn	1.430331	-0.253945	0.593828
Zn8	Zn	1.930331	0.246055	1.093828
O9	O	1.518194	-0.216407	0.506045
O10	O	2.018194	0.283593	1.006045
O11	O	1.753102	-0.188815	0.570614
O12	O	2.253102	0.311185	1.070614
O13	O	1.582612	-0.244038	0.271176
O14	O	2.082612	0.255962	0.771176
O15	O	1.453814	-0.115993	0.441611
O16	O	1.953814	0.384007	0.941611
O17	O	1.752979	-0.244018	0.441511
O18	O	2.252979	0.255982	0.941511
O19	O	1.582898	-0.115978	0.570670
O20	O	2.082898	0.384022	1.070670
O21	O	1.453651	-0.188851	0.271219
O22	O	1.953651	0.311149	0.771219
O23	O	1.283375	-0.188817	0.441528
O24	O	1.783375	0.311183	0.941528
O25	O	1.453687	-0.243959	0.740860
O26	O	1.953687	0.256041	1.240860
O27	O	1.283320	-0.243979	0.570526
O28	O	1.783320	0.256021	1.070526
O29	O	1.582826	-0.188782	0.740922
O30	O	2.082826	0.311218	1.240922
O31	O	1.582539	-0.316842	0.441428
O32	O	2.082539	0.183158	0.941428
O33	O	1.453524	-0.316817	0.570469
O34	O	1.953524	0.183183	1.070469
C35	C	1.245227	-0.216397	0.506025
C36	C	1.745227	0.283603	1.006025
C37	C	1.128450	-0.216403	0.506041
C38	C	1.628450	0.283597	1.006041
C39	C	1.518034	-0.333130	0.505956
C40	C	2.018034	0.166870	1.005956
C41	C	1.518061	-0.383065	0.505953
C42	C	2.018061	0.116935	1.005953
C43	C	1.073586	-0.187643	0.438996
C44	C	1.573586	0.312357	0.938996
C45	C	0.963862	-0.187653	0.439009
C46	C	1.463862	0.312347	0.939009
C47	C	0.963876	-0.245187	0.573122
C48	C	1.463876	0.254813	1.073122
C49	C	1.073598	-0.245178	0.573103
C50	C	1.573598	0.254822	1.073103
C51	C	1.073577	-0.154425	0.361570
C52	C	1.573577	0.345575	0.861570
C53	C	0.963853	-0.154435	0.361583
C54	C	1.463853	0.345565	0.861583
C55	C	1.585393	-0.692665	0.573342
C56	C	2.085393	-0.192665	1.073342
C57	C	1.585507	-0.880338	0.573405
C58	C	2.085507	-0.380338	1.073405
O59	O	1.642599	-0.904566	0.630635
O60	O	2.142599	-0.404566	1.130635
N61	N	1.518372	-0.903850	0.506161
N62	N	2.018372	-0.403850	1.006161
C63	C	1.451199	-0.880440	0.438902
C64	C	1.951199	-0.380440	0.938902
O65	O	1.394092	-0.904744	0.381716
O66	O	1.894092	-0.404744	0.881716
C67	C	1.451081	-0.692768	0.438845
C68	C	1.951081	-0.192768	0.938845
C69	C	1.518228	-0.669259	0.506085
C70	C	2.018228	-0.169259	1.006085
C71	C	1.652534	-0.669156	0.640578
C72	C	2.152534	-0.169156	1.140578
C73	C	1.652509	-0.622241	0.640557
C74	C	2.152509	-0.122241	1.140557
C75	C	1.585343	-0.598834	0.573301
C76	C	2.085343	-0.098834	1.073301
C77	C	1.518202	-0.622343	0.506065
C78	C	2.018202	-0.122343	1.006065
C79	C	1.383903	-0.669359	0.371591
C80	C	1.883903	-0.169359	0.871591
C81	C	1.383877	-0.622438	0.371585
C82	C	1.883877	-0.122438	0.871585
C83	C	1.451024	-0.598929	0.438826
C84	C	1.951024	-0.098929	0.938826
C85	C	1.451011	-0.552021	0.438788
C86	C	1.951011	-0.052021	0.938788
N87	N	1.518147	-0.528510	0.506032
N88	N	2.018147	-0.028510	1.006032
C89	C	1.585312	-0.551916	0.573288
C90	C	2.085312	-0.051916	1.073288
C91	C	1.451268	-0.978970	0.438935
C92	C	1.951268	-0.478970	0.938935
C93	C	1.451298	-1.025888	0.438948
C94	C	1.951298	-0.525888	0.938948
C95	C	1.585606	-1.025783	0.573452
C96	C	2.085606	-0.525783	1.073452
C97	C	1.585579	-0.978865	0.573434
C98	C	2.085579	-0.478865	1.073434
C99	C	1.518403	-0.955459	0.506179
C100	C	2.018403	-0.455459	1.006179
C101	C	1.585255	-0.453390	0.573239
C102	C	2.085255	0.046610	1.073239
C103	C	1.585227	-0.406471	0.573210
C104	C	2.085227	0.093529	1.073210
C105	C	1.450917	-0.406580	0.438709
C106	C	1.950917	0.093420	0.938709
C107	C	1.450948	-0.453495	0.438734
C108	C	1.950948	0.046505	0.938734
C109	C	1.518121	-0.476900	0.506008
C110	C	2.018121	0.023100	1.006008
O111	O	1.393942	-0.527764	0.381596
O112	O	1.893942	-0.027764	0.881596
O113	O	1.642395	-0.527604	0.630482
O114	O	2.142395	-0.027604	1.130482
C115	C	1.585419	-0.739580	0.573362
C116	C	2.085419	-0.239580	1.073362
C117	C	1.518278	-0.763090	0.506126
C118	C	2.018278	-0.263090	1.006126
C119	C	1.451112	-0.739683	0.438870
C120	C	1.951112	-0.239683	0.938870
C121	C	1.518309	-0.810007	0.506139
C122	C	2.018309	-0.310007	1.006139
C123	C	1.585474	-0.833414	0.573395
C124	C	2.085474	-0.333414	1.073395
C125	C	1.652610	-0.809902	0.640639
C126	C	2.152610	-0.309902	1.140639
C127	C	1.652584	-0.762987	0.640619
C128	C	2.152584	-0.262987	1.140619
C129	C	1.383977	-0.763195	0.371626
C130	C	1.883977	-0.263195	0.871626
C131	C	1.384008	-0.810110	0.371651
C132	C	1.884008	-0.310110	0.871651
C133	C	1.451174	-0.833516	0.438908
C134	C	1.951174	-0.333516	0.938908
C135	C	1.792227	-0.216418	0.506065
C136	C	2.292227	0.283582	1.006065
C137	C	1.909004	-0.216423	0.506074
C138	C	2.409004	0.283577	1.006074
C139	C	1.518267	-0.216364	0.780078
C140	C	2.018267	0.283636	1.280078
C141	C	1.518298	-0.216346	0.896855
C142	C	2.018298	0.283654	1.396855
C143	C	1.518383	-0.099229	0.506156
C144	C	2.018383	0.400771	1.006156
C145	C	1.518464	-0.049295	0.506204
C146	C	2.018464	0.450705	1.006204
C147	C	1.518182	-0.216418	0.233077
C148	C	2.018182	0.283582	0.733077
C149	C	1.518355	-0.216310	0.116301
C150	C	2.018355	0.283690	0.616301
C151	C	1.585451	-0.245071	0.951692
C152	C	2.085451	0.254929	1.451692
C153	C	1.585482	-0.245052	1.061416
C154	C	2.085482	0.254948	1.561416
C155	C	1.451199	-0.187581	1.061456
C156	C	1.951199	0.312419	1.561456
C157	C	1.451173	-0.187599	0.951734
C158	C	1.951173	0.312401	1.451734
C159	C	1.662975	-0.278253	0.951669
C160	C	2.162975	0.221747	1.451669
C161	C	1.663007	-0.278234	1.061394
C162	C	2.163007	0.221766	1.561394
H163	H	1.118264	-0.268602	0.627687
H164	H	1.618264	0.231398	1.127687
F165	F	1.724096	-0.834821	0.712215
F166	F	2.224096	-0.334821	1.212215
H167	H	1.396280	-0.472638	0.383973
H168	H	1.896280	0.027362	0.883973
H169	H	1.707183	-0.603102	0.695313
H170	H	2.207183	-0.103102	1.195313
F171	F	1.764089	-0.261957	1.105904
F172	F	2.264089	0.238043	1.605904
H173	H	0.919202	-0.268614	0.627721
H174	H	1.419202	0.231386	1.127721
H175	H	1.329331	-0.829247	0.316886
H176	H	1.829331	-0.329247	0.816886
H177	H	1.641160	-0.313023	1.091138
H178	H	2.141160	0.186977	1.591138
H179	H	1.107656	-0.121386	0.390866
H180	H	1.607656	0.378614	0.890866
F181	F	1.112435	-0.166545	0.255152
F182	F	1.612435	0.333455	0.755152
F183	F	0.919300	-0.170672	0.260480
F184	F	1.419300	0.329328	0.760480
F185	F	1.724024	-0.694060	0.712172
F186	F	2.224024	-0.194060	1.212172
H187	H	1.396632	-1.045025	0.384182
H188	H	1.896632	-0.545025	0.884182
F189	F	0.924982	-0.108975	0.390285
F190	F	1.424982	0.391025	0.890285
H191	H	1.329281	-0.744141	0.316859
H192	H	1.829281	-0.244141	0.816859
H193	H	1.639910	-0.387331	0.627965
H194	H	2.139910	0.112669	1.127965
F195	F	1.656749	-0.478292	0.644838
F196	F	2.156749	0.021708	1.144838
H197	H	1.640255	-0.959726	0.628187
H198	H	2.140255	-0.459726	1.128187
H199	H	1.640296	-1.044849	0.628214
H200	H	2.140296	-0.544849	1.128214
H201	H	1.396563	-0.959917	0.384165
H202	H	1.896563	-0.459917	0.884165
H203	H	1.329225	-0.688492	0.316836
H204	H	1.829225	-0.188492	0.816836
H205	H	1.633776	-0.311310	0.917602
H206	H	2.133776	0.188690	1.417602
H207	H	1.329171	-0.603383	0.316819
H208	H	1.829171	-0.103383	0.816819
F209	F	1.379439	-0.381661	0.367133
F210	F	1.879439	0.118339	0.867133
H211	H	1.707261	-0.743849	0.695372
H212	H	2.207261	-0.243849	1.195372
F213	F	1.379765	-0.156988	1.119872
F214	F	1.879765	0.343012	1.619872
F215	F	1.379713	-0.157020	0.893376
F216	F	1.879713	0.342980	1.393376
H217	H	1.744354	-0.268944	0.921911
H218	H	2.244354	0.231056	1.421911
