data_functionalizedCrystal
_audit_creation_method	'MofGen! by Chris Wilmer'
_symmetry_space_group_name_H-M	'P1'
_symmetry_Int_Tables_number	1
_symmetry_cell_setting	triclinic
loop_
_symmetry_equiv_pos_as_xyz
  x,y,z
_cell_length_a	10.654554
_cell_length_b	10.967829
_cell_length_c	9.483334
_cell_angle_alpha	111.344693
_cell_angle_beta	99.370493
_cell_angle_gamma	95.398482
loop_
_atom_site_label
_atom_site_type_symbol
_atom_site_fract_x
_atom_site_fract_y
_atom_site_fract_z
O1	O	-1.640232	0.202856	0.171790
O2	O	-1.274057	0.220236	0.176127
O3	O	-1.473181	0.022377	0.126565
O4	O	-1.441109	0.400714	0.221352
O5	O	-1.513600	-0.017975	-0.125319
O6	O	-1.314476	0.179884	-0.075756
O7	O	-1.680652	0.162504	-0.080093
Cu8	Cu	-1.501255	0.167510	-0.100924
Cu9	Cu	-1.453454	0.215230	0.196957
O10	O	-1.481528	0.360363	-0.030531
C11	C	-1.247521	0.198781	0.049863
C12	C	-1.108234	0.194952	0.048897
C13	C	-1.494111	-0.046243	-0.011511
C14	C	-1.496242	-0.190591	-0.047667
C15	C	-1.152275	0.150975	-0.225710
C16	C	-1.108858	0.127192	-0.363460
C17	C	-0.977984	0.123594	-0.364359
C18	C	-0.890524	0.143778	-0.227494
C19	C	-0.933941	0.167560	-0.089744
C20	C	-1.064819	0.171160	-0.088859
C21	C	-0.889902	0.211528	0.184857
C22	C	-1.020773	0.215136	0.185762
C23	C	-0.802441	0.231711	0.321722
C24	C	-0.845856	0.255504	0.459478
C25	C	-0.976737	0.259103	0.460372
C26	C	-1.064190	0.238918	0.323512
C27	C	-1.476254	-0.234036	0.066698
C28	C	-1.478456	-0.383227	0.029332
C29	C	-0.707190	0.183949	0.046164
C30	C	-0.846484	0.187745	0.047107
C31	C	-1.460598	0.428983	0.107548
C32	C	-1.458465	0.573333	0.143714
N33	N	-1.534884	0.133945	-0.310437
C34	C	-1.463358	0.205329	-0.364786
C35	C	-1.491371	0.177390	-0.539190
N36	N	-1.419835	0.248785	0.406468
H37	H	-1.258838	0.153920	-0.224987
H38	H	-1.170755	0.241854	0.324229
H39	H	-1.337859	0.330595	-0.510949
O40	O	-0.936009	0.100532	-0.498287
C41	C	-1.041265	0.083449	-0.618905
H42	H	-1.121594	0.133544	-0.567729
H43	H	-1.008859	0.130041	-0.699398
H44	H	-1.078453	-0.027048	-0.687123
O45	O	-1.453757	-0.146500	0.216453
C46	C	-1.342156	-0.053008	0.247670
H47	H	-1.324588	-0.047358	0.134631
H48	H	-1.356013	0.048628	0.328749
H49	H	-1.255625	-0.084692	0.304875
H50	H	-1.514977	-0.263845	-0.173242
H51	H	-0.695880	0.228771	0.320978
H52	H	-1.180083	0.110756	-0.474894
H53	H	-1.616864	0.052150	-0.393022
H54	H	-1.381387	0.287135	-0.282201
H55	H	-1.439705	-0.353415	0.269299
H56	H	-0.783964	0.140830	-0.228243
O57	O	-1.589098	0.079641	-0.637579
C58	C	-1.566255	-0.043008	-0.631260
H59	H	-1.499441	-0.024821	-0.516170
H60	H	-1.661683	-0.105542	-0.641856
H61	H	-1.519171	-0.097840	-0.730641
H62	H	-0.774638	0.271927	0.570901
O63	O	-1.018811	0.282444	0.594283
C64	C	-0.955586	0.407322	0.705777
H65	H	-0.920039	0.472030	0.644884
H66	H	-1.025680	0.457395	0.778108
H67	H	-0.869916	0.393524	0.784496
H68	H	-1.497192	-0.456478	-0.096251
