data_functionalizedCrystal
_audit_creation_method	'MofGen! by Chris Wilmer'
_symmetry_space_group_name_H-M	'P1'
_symmetry_Int_Tables_number	1
_symmetry_cell_setting	triclinic
loop_
_symmetry_equiv_pos_as_xyz
  x,y,z
_cell_length_a	10.654550
_cell_length_b	17.699083
_cell_length_c	16.776229
_cell_angle_alpha	90.007545
_cell_angle_beta	90.010645
_cell_angle_gamma	83.883958
loop_
_atom_site_label
_atom_site_type_symbol
_atom_site_fract_x
_atom_site_fract_y
_atom_site_fract_z
O1	O	-1.665985	-0.106304	-0.066355
O2	O	-1.300329	-0.116432	-0.066343
O3	O	-1.493488	-0.001245	-0.066343
O4	O	-1.472826	-0.221492	-0.066356
O5	O	-1.493462	-0.001237	0.066234
O6	O	-1.300304	-0.116425	0.066234
O7	O	-1.665959	-0.106297	0.066221
Zn8	Zn	-1.483127	-0.111360	0.087277
Zn9	Zn	-1.483161	-0.111369	-0.087399
O10	O	-1.472801	-0.221484	0.066221
C11	C	-1.253531	-0.115685	-0.000053
C12	C	-1.114127	-0.113460	-0.000048
C13	C	-1.492735	0.026961	-0.000054
C14	C	-1.490514	0.110993	-0.000054
C15	C	-1.712757	-0.107044	-0.000071
C16	C	-1.852161	-0.109269	-0.000081
C17	C	-1.033454	-0.181281	-0.000064
C18	C	-0.902470	-0.179185	-0.000077
C19	C	-0.932845	-0.041443	-0.000063
C20	C	-1.063826	-0.043539	-0.000043
C21	C	-1.083755	-0.251201	-0.000068
C22	C	-1.003081	-0.319027	-0.000085
C23	C	-0.872097	-0.316932	-0.000098
C24	C	-0.821787	-0.247011	-0.000095
C25	C	-1.473554	-0.249690	-0.000069
C26	C	-1.475775	-0.333722	-0.000075
N27	N	-1.483114	-0.111353	0.206488
C28	C	-1.603894	0.158893	-0.000057
C29	C	-1.601799	0.237850	-0.000063
C30	C	-1.486324	0.268905	-0.000062
C31	C	-1.372935	0.220998	-0.000062
C32	C	-1.375031	0.142043	-0.000060
C33	C	-1.364481	0.539415	-0.000068
C34	C	-1.362394	0.618376	-0.000067
C35	C	-1.591249	0.635222	-0.000071
C36	C	-1.593345	0.556266	-0.000070
C37	C	-1.479957	0.508367	-0.000073
C38	C	-1.482229	0.422753	-0.000067
C39	C	-1.484050	0.354517	-0.000062
N40	N	-1.483185	-0.111370	-0.206610
C41	C	-1.568670	-0.060369	0.248205
C42	C	-1.568677	-0.060368	0.331657
C43	C	-1.483133	-0.111356	0.373391
C44	C	-1.397567	-0.162342	0.331668
C45	C	-1.397555	-0.162338	0.248217
C46	C	-1.397612	-0.162357	0.668215
C47	C	-1.397633	-0.162358	0.751671
C48	C	-1.568735	-0.060387	0.751655
C49	C	-1.568723	-0.060384	0.668205
C50	C	-1.483153	-0.111367	0.626489
C51	C	-1.483145	-0.111366	0.536000
C52	C	-1.483146	-0.111361	0.463878
H53	H	-1.190407	-0.252915	-0.000061
H54	H	-1.638385	-0.018868	0.634228
H55	H	-1.694125	0.276847	-0.000064
H56	H	-1.327909	-0.203854	0.365652
O57	O	-0.793603	-0.382764	-0.000219
C58	C	-0.716994	-0.385681	-0.068902
H59	H	-0.710567	-0.325572	-0.091786
H60	H	-0.618452	-0.413359	-0.053476
H61	H	-0.760012	-0.420472	-0.116981
O62	O	-0.694570	-0.244877	-0.000211
C63	C	-0.659176	-0.206420	-0.068887
H64	H	-0.743539	-0.167416	-0.091768
H65	H	-0.579007	-0.171159	-0.053452
H66	H	-0.626360	-0.249586	-0.116971
H67	H	-1.638336	-0.018852	0.214231
O68	O	-1.314389	-0.211783	0.627659
C69	C	-1.237052	-0.170823	0.579391
H70	H	-1.235104	-0.111124	0.604550
H71	H	-1.137150	-0.201153	0.578453
H72	H	-1.276360	-0.167072	0.516140
H73	H	-1.327885	-0.203853	0.214252
H74	H	-1.044053	-0.375955	-0.000080
H75	H	-1.129513	0.011686	-0.000033
O76	O	-0.883767	0.026408	-0.000102
C77	C	-0.750860	0.013714	-0.000105
H78	H	-0.719939	-0.045189	-0.025210
H79	H	-0.710804	0.058491	-0.038602
H80	H	-0.714366	0.017578	0.063493
O81	O	-1.705440	0.526012	-0.000179
C82	C	-1.713521	0.480853	-0.068853
H83	H	-1.614485	0.461708	-0.091738
H84	H	-1.763421	0.428899	-0.053414
H85	H	-1.769189	0.515434	-0.116936
O86	O	-1.651841	-0.010952	0.372273
C87	C	-1.729199	-0.051929	0.420509
H88	H	-1.678990	-0.110872	0.433005
H89	H	-1.749171	-0.020454	0.479196
H90	H	-1.821987	-0.057594	0.388334
H91	H	-1.697927	0.133615	-0.000053
O92	O	-1.651729	-0.010883	0.792303
C93	C	-1.633421	-0.021825	0.874908
H94	H	-1.533497	-0.049551	0.886321
H95	H	-1.647583	0.035414	0.906628
H96	H	-1.704379	-0.060186	0.898571
H97	H	-1.327968	-0.203880	0.785649
O98	O	-1.701432	0.681721	0.000064
C99	C	-1.771555	0.667549	0.068716
H100	H	-1.705163	0.640925	0.116710
H101	H	-1.822082	0.723298	0.091759
H102	H	-1.844121	0.626967	0.053195
O103	O	-1.250245	0.648580	0.000068
C104	C	-1.242177	0.693769	0.068721
H105	H	-1.307720	0.674757	0.116716
H106	H	-1.140936	0.687221	0.091762
H107	H	-1.271347	0.755869	0.053199
O108	O	-1.254224	0.493001	-0.000025
C109	C	-1.151859	0.537345	-0.000038
H110	H	-1.183918	0.596100	0.025057
H111	H	-1.072427	0.508649	0.038460
H112	H	-1.116456	0.543144	-0.063639
H113	H	-1.282705	0.103043	-0.000058
O114	O	-1.260870	0.251288	-0.000025
C115	C	-1.283330	0.331247	-0.000044
H116	H	-1.381382	0.349275	0.025053
H117	H	-1.209445	0.355877	0.038449
H118	H	-1.277323	0.353248	-0.063647
