data_functionalizedCrystal
_audit_creation_method	'MofGen! by Chris Wilmer'
_symmetry_space_group_name_H-M	'P1'
_symmetry_Int_Tables_number	1
_symmetry_cell_setting	triclinic
loop_
_symmetry_equiv_pos_as_xyz
  x,y,z
_cell_length_a	17.077404
_cell_length_b	14.908520
_cell_length_c	17.077396
_cell_angle_alpha	86.731679
_cell_angle_beta	90.019501
_cell_angle_gamma	93.320938
loop_
_atom_site_label
_atom_site_type_symbol
_atom_site_fract_x
_atom_site_fract_y
_atom_site_fract_z
Zn1	Zn	1.182024	-0.359154	0.461868
Zn2	Zn	1.515357	-0.025821	0.795201
Zn3	Zn	1.848690	0.307513	1.128534
Zn4	Zn	1.174357	-0.510026	0.338173
Zn5	Zn	1.507690	-0.176692	0.671507
Zn6	Zn	1.841023	0.156641	1.004840
Zn7	Zn	1.050754	-0.359186	0.330617
Zn8	Zn	1.384087	-0.025852	0.663950
Zn9	Zn	1.717421	0.307481	0.997284
Zn10	Zn	1.043152	-0.509972	0.469394
Zn11	Zn	1.376485	-0.176639	0.802727
Zn12	Zn	1.709819	0.156695	1.136061
O13	O	1.112572	-0.434584	0.400013
O14	O	1.445905	-0.101251	0.733346
O15	O	1.779238	0.232082	1.066680
O16	O	1.290853	-0.379177	0.445472
O17	O	1.624186	-0.045843	0.778805
O18	O	1.957520	0.287490	1.112138
O19	O	1.157933	-0.490052	0.227326
O20	O	1.491266	-0.156719	0.560659
O21	O	1.824600	0.176615	0.893992
O22	O	1.074557	-0.232937	0.341715
O23	O	1.407891	0.100397	0.675049
O24	O	1.741224	0.433730	1.008382
O25	O	1.285220	-0.490021	0.354594
O26	O	1.618553	-0.156688	0.687927
O27	O	1.951887	0.176645	1.021261
O28	O	1.171001	-0.232913	0.438145
O29	O	1.504334	0.100420	0.771478
O30	O	1.837667	0.433753	1.104811
O31	O	1.067123	-0.379231	0.221774
O32	O	1.400456	-0.045897	0.555108
O33	O	1.733790	0.287436	0.888441
O34	O	0.939899	-0.379179	0.349014
O35	O	1.273232	-0.045845	0.682347
O36	O	1.606566	0.287488	1.015680
O37	O	1.061601	-0.489930	0.578241
O38	O	1.394934	-0.156597	0.911574
O39	O	1.728268	0.176737	1.244908
O40	O	0.934314	-0.489961	0.450973
O41	O	1.267647	-0.156627	0.784306
O42	O	1.600981	0.176706	1.117639
O43	O	1.163629	-0.379125	0.572711
O44	O	1.496963	-0.045791	0.906044
O45	O	1.830296	0.287542	1.239378
O46	O	1.150562	-0.636263	0.361892
O47	O	1.483895	-0.302930	0.695226
O48	O	1.817228	0.030403	1.028559
O49	O	1.054166	-0.636224	0.458300
O50	O	1.387500	-0.302891	0.791633
O51	O	1.720833	0.030443	1.124966
C52	C	0.908625	-0.434568	0.399990
C53	C	1.241958	-0.101235	0.733324
C54	C	1.575291	0.232099	1.066657
C55	C	0.821374	-0.434583	0.400001
C56	C	1.154707	-0.101249	0.733334
C57	C	1.488041	0.232084	1.066667
C58	C	0.777492	-0.492354	0.453014
C59	C	1.110825	-0.159021	0.786348
C60	C	1.444158	0.174313	1.119681
C61	C	0.695511	-0.492356	0.453027
C62	C	1.028845	-0.159023	0.786360
C63	C	1.362178	0.174311	1.119694
C64	C	0.657414	-0.434591	0.400022
C65	C	0.990748	-0.101257	0.733355
C66	C	1.324081	0.232076	1.066688
C67	C	0.701302	-0.376813	0.347005
C68	C	1.034636	-0.043480	0.680338
C69	C	1.367969	0.289854	1.013672
C70	C	0.783282	-0.376807	0.346997
C71	C	1.116615	-0.043474	0.680330
C72	C	1.449948	0.289860	1.013664
C73	C	0.530432	-0.376831	0.347025
C74	C	0.863765	-0.043497	0.680358
C75	C	1.197098	0.289836	1.013692
C76	C	0.448447	-0.376837	0.347032
C77	C	0.781780	-0.043504	0.680365
C78	C	1.115113	0.289829	1.013699
C79	C	0.442661	-0.492380	0.453055
C80	C	0.775994	-0.159046	0.786389
C81	C	1.109328	0.174287	1.119722
C82	C	0.524640	-0.492374	0.453047
C83	C	0.857974	-0.159040	0.786380
C84	C	1.191307	0.174293	1.119714
C85	C	0.568523	-0.434597	0.400029
C86	C	0.901856	-0.101264	0.733363
C87	C	1.235190	0.232070	1.066696
C88	C	1.100728	-0.668978	0.411750
C89	C	1.434062	-0.335644	0.745083
C90	C	1.767395	-0.002311	1.078416
C91	C	1.095734	-0.769252	0.416797
C92	C	1.429067	-0.435919	0.750130
C93	C	1.762400	-0.102585	1.083464
C94	C	1.186828	-0.957658	0.325973
C95	C	1.520161	-0.624325	0.659307
C96	C	1.853495	-0.290992	0.992640
C97	C	1.182137	-1.051875	0.330713
C98	C	1.515471	-0.718542	0.664046
C99	C	1.848804	-0.385208	0.997380
C100	C	1.081667	-1.051904	0.431020
C101	C	1.415000	-0.718571	0.764353
C102	C	1.748334	-0.385237	1.097687
C103	C	1.086357	-0.957687	0.426280
C104	C	1.419691	-0.624354	0.759613
C105	C	1.753024	-0.291021	1.092947
C106	C	1.138939	-0.910568	0.373754
C107	C	1.472272	-0.577234	0.707088
C108	C	1.805605	-0.243901	1.040421
C109	C	1.143625	-0.816349	0.369011
C110	C	1.476958	-0.483016	0.702344
C111	C	1.810291	-0.149683	1.035678
C112	C	1.043159	-0.816380	0.469321
C113	C	1.376492	-0.483047	0.802655
C114	C	1.709825	-0.149713	1.135988
C115	C	1.038468	-0.910597	0.474061
C116	C	1.371802	-0.577263	0.807394
C117	C	1.705135	-0.243930	1.140728
C118	C	1.317315	-0.434601	0.400036
C119	C	1.650648	-0.101268	0.733369
C120	C	1.983982	0.232065	1.066703
C121	C	1.404564	-0.434609	0.400046
C122	C	1.737898	-0.101275	0.733379
C123	C	2.071231	0.232058	1.066713
C124	C	1.112622	-0.434518	0.604754
C125	C	1.445956	-0.101185	0.938087
C126	C	1.779289	0.232149	1.271421
C127	C	1.112644	-0.434490	0.692002
C128	C	1.445977	-0.101156	1.025336
C129	C	1.779311	0.232177	1.358669
C130	C	1.124482	-0.199276	0.388248
C131	C	1.457816	0.134058	0.721581
C132	C	1.791149	0.467391	1.054914
C133	C	1.129558	-0.099001	0.383234
C134	C	1.462891	0.234332	0.716567
C135	C	1.796225	0.567665	1.049901
C136	C	1.112569	-0.434585	0.196065
C137	C	1.445903	-0.101252	0.529399
C138	C	1.779236	0.232081	0.862732
C139	C	1.112713	-0.434360	0.108804
C140	C	1.446046	-0.101026	0.442138
C141	C	1.779379	0.232307	0.775471
C142	C	1.165772	-0.376788	0.730114
C143	C	1.499106	-0.043455	1.063448
C144	C	1.832439	0.289878	1.396781
C145	C	1.165783	-0.376758	0.812093
C146	C	1.499117	-0.043425	1.145427
C147	C	1.832450	0.289908	1.478760
C148	C	1.112669	-0.434435	0.855959
C149	C	1.446002	-0.101101	1.189293
C150	C	1.779336	0.232232	1.522626
C151	C	1.059535	-0.492138	0.817842
C152	C	1.392868	-0.158805	1.151175
C153	C	1.726202	0.174528	1.484508
C154	C	1.059521	-0.492163	0.735864
C155	C	1.392854	-0.158830	1.069197
C156	C	1.726188	0.174503	1.402531
C157	C	1.059569	-0.492084	0.988709
C158	C	1.392903	-0.158751	1.322043
C159	C	1.726236	0.174582	1.655376
C160	C	1.059584	-0.492061	1.070693
C161	C	1.392918	-0.158727	1.404026
C162	C	1.726251	0.174606	1.737359
C163	C	1.165832	-0.376679	1.064938
C164	C	1.499165	-0.043346	1.398272
C165	C	1.832498	0.289987	1.731605
C166	C	1.165818	-0.376704	0.982961
C167	C	1.499151	-0.043371	1.316294
C168	C	1.832484	0.289963	1.649627
C169	C	1.112684	-0.434409	0.944849
C170	C	1.446018	-0.101076	1.278182
C171	C	1.779351	0.232257	1.611516
H172	H	0.555656	-0.539416	0.496205
H173	H	0.888990	-0.206083	0.829538
H174	H	1.222323	0.127250	1.162871
F175	F	1.233109	-1.101989	0.279860
F176	F	1.566443	-0.768656	0.613193
F177	F	1.899776	-0.435323	0.946526
F178	F	0.982513	-0.960755	0.529962
F179	F	1.315847	-0.627421	0.863296
F180	F	1.649180	-0.294088	1.196629
H181	H	1.016251	-0.539140	0.704834
H182	H	1.349584	-0.205807	1.038168
H183	H	1.682918	0.127526	1.371501
F184	F	0.395958	-0.553860	0.509489
F185	F	0.729291	-0.220527	0.842823
F186	F	1.062625	0.112806	1.176156
H187	H	1.209027	-0.329824	0.694404
H188	H	1.542360	0.003509	1.027738
H189	H	1.875693	0.336842	1.361071
H190	H	1.038863	-1.090285	0.473789
H191	H	1.372197	-0.756952	0.807122
H192	H	1.705530	-0.423619	1.140456
H193	H	0.417431	-0.329789	0.303879
H194	H	0.750764	0.003544	0.637212
H195	H	1.084098	0.336878	0.970546
F196	F	0.648812	-0.553844	0.509452
F197	F	0.982145	-0.220511	0.842785
F198	F	1.315479	0.112823	1.176119
H199	H	1.004162	-0.778028	0.508225
H200	H	1.337495	-0.444695	0.841559
H201	H	1.670828	-0.111362	1.174892
H202	H	1.209048	-0.329774	0.843120
H203	H	1.542381	0.003559	1.176453
H204	H	1.875714	0.336892	1.509787
F205	F	1.222352	-0.315324	0.936277
F206	F	1.555685	0.018009	1.269610
F207	F	1.889019	0.351343	1.602944
F208	F	1.222381	-0.315265	1.105500
F209	F	1.555714	0.018068	1.438834
F210	F	1.889048	0.351401	1.772167
H211	H	1.229636	-0.919293	0.283199
H212	H	1.562970	-0.585960	0.616532
H213	H	1.896303	-0.252626	0.949866
F214	F	0.577133	-0.315337	0.290598
F215	F	0.910466	0.017997	0.623931
F216	F	1.243800	0.351330	0.957265
H217	H	0.670278	-0.329775	0.303850
H218	H	1.003611	0.003558	0.637184
H219	H	1.336944	0.336891	0.970517
F220	F	0.829984	-0.315317	0.290574
F221	F	1.163318	0.018016	0.623907
F222	F	1.496651	0.351350	0.957240
F223	F	1.003048	-0.553439	1.117376
F224	F	1.336381	-0.220105	1.450710
F225	F	1.669715	0.113228	1.784043
F226	F	1.003017	-0.553499	0.948150
F227	F	1.336350	-0.220166	1.281483
F228	F	1.669684	0.113168	1.614816
F229	F	1.199582	-0.766202	0.313106
F230	F	1.532916	-0.432869	0.646439
F231	F	1.866249	-0.099536	0.979773
H232	H	0.808504	-0.539396	0.496175
H233	H	1.141837	-0.206063	0.829509
H234	H	1.475171	0.127270	1.162842
F235	F	1.003004	-0.553519	0.864529
F236	F	1.336337	-0.220185	1.197863
F237	F	1.669670	0.113148	1.531196
