data_functionalizedCrystal
_audit_creation_method	'MofGen! by Chris Wilmer'
_symmetry_space_group_name_H-M	'P1'
_symmetry_Int_Tables_number	1
_symmetry_cell_setting	triclinic
loop_
_symmetry_equiv_pos_as_xyz
  x,y,z
_cell_length_a	6.394989
_cell_length_b	16.109301
_cell_length_c	14.586319
_cell_angle_alpha	90.005214
_cell_angle_beta	90.002985
_cell_angle_gamma	84.979596
loop_
_atom_site_label
_atom_site_type_symbol
_atom_site_fract_x
_atom_site_fract_y
_atom_site_fract_z
O1	O	-2.771399	-0.136204	-0.076235
O2	O	-2.163266	-0.143066	-0.076239
O3	O	-2.484039	-0.018781	-0.076227
O4	O	-2.450627	-0.260489	-0.076246
O5	O	-2.484017	-0.018778	0.076253
O6	O	-2.163244	-0.143063	0.076242
O7	O	-2.771377	-0.136202	0.076246
Cu8	Cu	-2.467308	-0.139632	0.090167
Cu9	Cu	-2.467335	-0.139635	-0.090160
O10	O	-2.450605	-0.260487	0.076234
C11	C	-2.482674	0.012210	0.000013
C12	C	-2.478617	0.104548	0.000015
C13	C	-2.451969	-0.291477	-0.000008
C14	C	-2.456027	-0.383815	-0.000016
N15	N	-2.467305	-0.139630	0.216998
C16	C	-2.085435	-0.141708	0.000006
C17	C	-1.849203	-0.137562	0.000010
N18	N	-2.467355	-0.139631	-0.216991
C19	C	-2.659522	0.324905	0.000001
C20	C	-2.655693	0.411666	-0.000006
C21	C	-2.275107	0.395821	-0.000005
C22	C	-2.278938	0.309061	-0.000004
C23	C	-2.471152	0.273606	0.000004
C24	C	-2.463492	0.447126	-0.000005
C25	C	-2.459339	0.541196	-0.000013
C26	C	-2.475306	0.179530	0.000010
C27	C	-2.609390	-0.084616	0.452010
C28	C	-2.609396	-0.084614	0.547991
C29	C	-2.325254	-0.194647	0.547990
C30	C	-2.325240	-0.194644	0.452011
C31	C	-2.467320	-0.139630	0.404023
C32	C	-2.467340	-0.139631	0.595984
C33	C	-2.467346	-0.139629	0.700051
C34	C	-2.467312	-0.139630	0.299949
H35	H	-2.816034	0.296041	0.000006
C36	C	-2.765666	-0.024105	0.399222
H37	H	-2.745332	-0.031988	0.335187
H38	H	-2.743038	0.031627	0.414957
H39	H	-2.905058	-0.034636	0.414948
H40	H	-2.125535	0.267291	-0.000005
C41	C	-2.765682	-0.024103	0.600773
H42	H	-2.850301	0.008656	0.558444
H43	H	-2.690588	0.011312	0.638223
H44	H	-2.852613	-0.054948	0.638205
C45	C	-2.862894	0.468095	-0.000012
H46	H	-2.833092	0.524845	-0.000026
H47	H	-2.941713	0.457141	0.053160
H48	H	-2.941701	0.457121	-0.053194
C49	C	-2.168999	-0.255166	0.600780
H50	H	-2.189368	-0.247295	0.664815
H51	H	-2.029605	-0.244649	0.585062
H52	H	-2.191661	-0.310897	0.585038
C53	C	-2.168960	-0.255164	0.399222
H54	H	-2.084365	-0.287938	0.441546
H55	H	-2.082036	-0.224325	0.361788
H56	H	-2.244081	-0.290578	0.361773
H57	H	-2.118613	0.424699	-0.000010
