data_functionalizedCrystal
_audit_creation_method	'MofGen! by Chris Wilmer'
_symmetry_space_group_name_H-M	'P1'
_symmetry_Int_Tables_number	1
_symmetry_cell_setting	triclinic
loop_
_symmetry_equiv_pos_as_xyz
  x,y,z
_cell_length_a	8.559649
_cell_length_b	8.559649
_cell_length_c	7.088899
_cell_angle_alpha	97.658681
_cell_angle_beta	97.661974
_cell_angle_gamma	69.778664
loop_
_atom_site_label
_atom_site_type_symbol
_atom_site_fract_x
_atom_site_fract_y
_atom_site_fract_z
O1	O	-2.113827	0.068074	0.158958
O2	O	-1.638341	-0.015706	0.158965
O3	O	-1.917975	0.263926	0.158959
O4	O	-1.834193	-0.211558	0.158964
O5	O	-1.944069	0.237848	-0.159017
O6	O	-1.664435	-0.041785	-0.159011
O7	O	-2.139921	0.041996	-0.159018
Cu8	Cu	-1.904560	-0.002275	-0.188048
Cu9	Cu	-1.873701	0.028565	0.187995
O10	O	-1.860287	-0.237637	-0.159012
C11	C	-1.591079	-0.035095	-0.000022
C12	C	-1.411380	-0.053993	-0.000019
C13	C	-2.187182	0.061385	-0.000027
C14	C	-2.366881	0.080284	-0.000017
C15	C	-1.937371	0.311196	-0.000026
C16	C	-1.956269	0.490896	-0.000015
C17	C	-1.840891	-0.284906	-0.000023
C18	C	-1.821992	-0.464605	-0.000021
N19	N	-1.926277	-0.023965	-0.452536
N20	N	-1.851999	0.050269	0.452484
H21	H	-1.466258	0.209705	-0.000009
F22	F	-1.652826	0.405502	-0.000023
F23	F	-1.281477	-0.223166	0.000000
H24	H	-1.774995	0.127176	-0.465857
H25	H	-2.085698	0.590283	-0.000033
F26	F	-2.026902	-0.124506	-0.559255
