data_functionalizedCrystal
_audit_creation_method	'MofGen! by Chris Wilmer'
_symmetry_space_group_name_H-M	'P1'
_symmetry_Int_Tables_number	1
_symmetry_cell_setting	triclinic
loop_
_symmetry_equiv_pos_as_xyz
  x,y,z
_cell_length_a	25.639242
_cell_length_b	13.897448
_cell_length_c	13.897441
_cell_angle_alpha	90.029627
_cell_angle_beta	89.971480
_cell_angle_gamma	89.986780
loop_
_atom_site_label
_atom_site_type_symbol
_atom_site_fract_x
_atom_site_fract_y
_atom_site_fract_z
Zn1	Zn	0.799334	0.384108	-0.545637
Zn2	Zn	1.299334	0.884108	-0.045637
Zn3	Zn	0.799280	0.545427	-0.384338
Zn4	Zn	1.299280	1.045427	0.115662
Zn5	Zn	0.711901	0.384135	-0.384327
Zn6	Zn	1.211901	0.884135	0.115673
Zn7	Zn	0.711888	0.545351	-0.545563
Zn8	Zn	1.211888	1.045351	-0.045563
O9	O	0.755601	0.464755	-0.464966
O10	O	1.255601	0.964755	0.035034
O11	O	0.872492	0.405529	-0.524275
O12	O	1.372492	0.905529	-0.024275
O13	O	0.787672	0.524075	-0.249355
O14	O	1.287672	1.024075	0.250645
O15	O	0.723527	0.249150	-0.405751
O16	O	1.223527	0.749150	0.094249
O17	O	0.872452	0.524049	-0.405770
O18	O	1.372452	1.024049	0.094230
O19	O	0.787764	0.249130	-0.524265
O20	O	1.287764	0.749130	-0.024265
O21	O	0.723475	0.405575	-0.249347
O22	O	1.223475	0.905575	0.250653
O23	O	0.638734	0.405500	-0.405680
O24	O	1.138734	0.905500	0.094320
O25	O	0.723505	0.523918	-0.680554
O26	O	1.223505	1.023918	-0.180554
O27	O	0.638724	0.523944	-0.524139
O28	O	1.138724	1.023944	-0.024139
O29	O	0.787751	0.405454	-0.680608
O30	O	1.287751	0.905454	-0.180608
O31	O	0.787659	0.680399	-0.405698
O32	O	1.287659	1.180399	0.094302
O33	O	0.723452	0.680342	-0.524149
O34	O	1.223452	1.180342	-0.024149
C35	C	0.755562	0.715370	-0.464938
C36	C	1.255562	1.215370	0.035062
C37	C	0.755594	0.822584	-0.464958
C38	C	1.255594	1.322584	0.035042
C39	C	0.619758	0.464717	-0.464901
C40	C	1.119758	0.964717	0.035099
C41	C	0.561644	0.464724	-0.464896
C42	C	1.061644	0.964724	0.035104
C43	C	0.755633	0.464674	-0.716559
C44	C	1.255633	0.964674	-0.216559
C45	C	0.755646	0.464640	-0.823773
C46	C	1.255646	0.964640	-0.323773
C47	C	0.201285	0.526532	-0.526589
C48	C	0.701285	1.026532	-0.026589
C49	C	0.146681	0.526538	-0.526604
C50	C	0.646681	1.026538	-0.026604
O51	O	0.118447	0.579042	-0.579003
O52	O	0.618447	1.079042	-0.079003
N53	N	0.119362	0.464782	-0.465029
N54	N	0.619362	0.964782	0.034971
C55	C	0.146650	0.403009	-0.403441
C56	C	0.646650	0.903009	0.096559
O57	O	0.118399	0.350480	-0.351068
O58	O	0.618399	0.850480	0.148932
C59	C	0.201253	0.402999	-0.403431
C60	C	0.701253	0.902999	0.096569
C61	C	0.228569	0.464766	-0.465004
C62	C	0.728569	0.964766	0.034996
C63	C	0.228601	0.588294	-0.588158
C64	C	0.728601	1.088294	-0.088158
C65	C	0.283202	0.588289	-0.588141
C66	C	0.783202	1.088289	-0.088141
C67	C	0.310486	0.526523	-0.526556
C68	C	0.810486	1.026523	-0.026556
C69	C	0.283170	0.464761	-0.464987
C70	C	0.783170	0.964761	0.035013
C71	C	0.228540	0.341222	-0.341849
C72	C	0.728540	0.841222	0.158151
C73	C	0.283147	0.341216	-0.341845
C74	C	0.783147	0.841216	0.158155
C75	C	0.310463	0.402984	-0.403418
C76	C	0.810463	0.902984	0.096582
C77	C	0.365055	0.402990	-0.403385
C78	C	0.865055	0.902990	0.096615
N79	N	0.392374	0.464746	-0.464961
N80	N	0.892374	0.964746	0.035039
C81	C	0.365089	0.526513	-0.526546
C82	C	0.865089	1.026513	-0.026546
C83	C	0.031979	0.403033	-0.403467
C84	C	0.531979	0.903033	0.096533
C85	C	-0.022623	0.403048	-0.403471
C86	C	0.477377	0.903048	0.096529
C87	C	-0.022589	0.526576	-0.526636
C88	C	0.477411	1.026576	-0.026636
C89	C	0.032015	0.526566	-0.526626
C90	C	0.532015	1.026566	-0.026626
C91	C	0.059298	0.464790	-0.465043
C92	C	0.559298	0.964790	0.034957
C93	C	0.479754	0.526498	-0.526506
C94	C	0.979754	1.026498	-0.026506
C95	C	0.534360	0.526491	-0.526481
C96	C	1.034360	1.026491	-0.026481
C97	C	0.534320	0.402959	-0.403320
C98	C	1.034320	0.902959	0.096680
C99	C	0.479720	0.402970	-0.403341
C100	C	0.979720	0.902970	0.096659
C101	C	0.452438	0.464743	-0.464942
C102	C	0.952438	0.964743	0.035058
O103	O	0.393323	0.350510	-0.351016
O104	O	0.893323	0.850510	0.148984
O105	O	0.393347	0.579023	-0.578919
O106	O	0.893347	1.079023	-0.078919
C107	C	0.891974	0.464794	-0.465032
C108	C	1.391974	0.964794	0.034968
C109	C	0.950088	0.464811	-0.465060
C110	C	1.450088	0.964811	0.034940
C111	C	0.755653	0.213162	-0.465015
C112	C	1.255653	0.713162	0.034985
C113	C	0.755676	0.105948	-0.465036
C114	C	1.255676	0.605948	0.034964
C115	C	0.755649	1.018879	-0.465019
C116	C	1.255649	1.518879	0.034981
C117	C	0.755617	0.909646	-0.464988
C118	C	1.255617	1.409646	0.035012
C119	C	0.755657	0.464613	-0.910843
C120	C	1.255657	0.964613	-0.410843
C121	C	0.755672	0.464569	-1.020076
C122	C	1.255672	0.964569	-0.520076
C123	C	0.755599	0.464766	-0.214352
C124	C	1.255599	0.964766	0.285648
C125	C	0.755687	0.464529	-0.107138
C126	C	1.255687	0.964529	0.392862
H127	H	0.556598	0.576793	-0.576621
H128	H	1.056598	1.076793	-0.076621
C129	C	-0.052665	0.335105	-0.335731
C130	C	0.447335	0.835105	0.164269
N131	N	-0.075290	0.283922	-0.284711
N132	N	0.424710	0.783922	0.215289
H133	H	0.457478	0.352676	-0.353201
H134	H	0.957478	0.852676	0.146799
H135	H	0.457548	0.576797	-0.576669
H136	H	0.957548	1.076797	-0.076669
C137	C	0.313242	0.656234	-0.655881
C138	C	0.813242	1.156234	-0.155881
N139	N	0.335865	0.707411	-0.706909
N140	N	0.835865	1.207411	-0.206909
C141	C	0.198597	0.656258	-0.655902
C142	C	0.698597	1.156258	-0.155902
N143	N	0.176001	0.707462	-0.706922
N144	N	0.676001	1.207462	-0.206922
C145	C	0.062057	0.594508	-0.594366
C146	C	0.562057	1.094508	-0.094366
N147	N	0.084683	0.645684	-0.645393
N148	N	0.584683	1.145684	-0.145393
H149	H	0.206309	0.290927	-0.291708
H150	H	0.706309	0.790927	0.208292
C151	C	0.313156	0.273259	-0.274094
C152	C	0.813156	0.773259	0.225906
N153	N	0.335757	0.222076	-0.223060
N154	N	0.835757	0.722076	0.276940
C155	C	-0.052612	0.594514	-0.594389
C156	C	0.447388	1.094514	-0.094389
N157	N	-0.075227	0.645680	-0.645417
N158	N	0.424773	1.145680	-0.145417
H159	H	0.556545	0.352674	-0.353176
H160	H	1.056545	0.852674	0.146824
H161	H	0.054190	0.352729	-0.353311
H162	H	0.554190	0.852729	0.146689
