data_functionalizedCrystal
_audit_creation_method	'MofGen! by Chris Wilmer'
_symmetry_space_group_name_H-M	'P1'
_symmetry_Int_Tables_number	1
_symmetry_cell_setting	triclinic
loop_
_symmetry_equiv_pos_as_xyz
  x,y,z
_cell_length_a	9.065215
_cell_length_b	9.065218
_cell_length_c	9.130313
_cell_angle_alpha	90.000552
_cell_angle_beta	90.000271
_cell_angle_gamma	85.015291
loop_
_atom_site_label
_atom_site_type_symbol
_atom_site_fract_x
_atom_site_fract_y
_atom_site_fract_z
O1	O	1.960395	0.216330	-0.121776
O2	O	2.460395	0.716330	0.378224
O3	O	1.531110	0.234081	-0.121782
O4	O	2.031110	0.734081	0.378218
O5	O	1.754626	0.010563	-0.121776
O6	O	2.254626	0.510563	0.378224
O7	O	1.736880	0.439848	-0.121782
O8	O	2.236880	0.939848	0.378218
O9	O	1.754623	0.010569	0.121823
O10	O	2.254623	0.510569	0.621823
O11	O	1.531107	0.234087	0.121817
O12	O	2.031107	0.734087	0.621817
O13	O	1.960393	0.216336	0.121823
O14	O	2.460393	0.716336	0.621823
Cu15	Cu	1.745750	0.225212	0.144063
Cu16	Cu	2.245750	0.725212	0.644063
Cu17	Cu	1.745753	0.225205	-0.144021
Cu18	Cu	2.245753	0.725205	0.355979
O19	O	1.736877	0.439854	0.121817
O20	O	2.236877	0.939854	0.621817
C21	C	1.476122	0.232379	0.000017
C22	C	1.976122	0.732379	0.500017
C23	C	1.312279	0.227281	0.000014
C24	C	1.812279	0.727281	0.500014
C25	C	1.752919	-0.044421	0.000021
C26	C	2.252919	0.455579	0.500021
C27	C	1.747819	-0.208264	0.000014
C28	C	2.247819	0.291736	0.500014
C29	C	2.015381	0.218038	0.000021
C30	C	2.515381	0.718038	0.500021
C31	C	2.179224	0.223136	0.000014
C32	C	2.679224	0.723136	0.500014
C33	C	1.738584	0.494837	0.000017
C34	C	2.238584	0.994837	0.500017
C35	C	1.743683	0.658680	0.000014
C36	C	2.243683	1.158680	0.500014
N37	N	1.745758	0.225216	0.346685
N38	N	2.245758	0.725216	0.846685
N39	N	1.745756	0.225189	-0.346644
N40	N	2.245756	0.725189	0.153356
C41	C	1.844757	0.126277	0.423340
C42	C	2.344757	0.626277	0.923340
C43	C	1.844753	0.126259	0.576677
C44	C	2.344753	0.626259	1.076677
C45	C	1.646747	0.324133	0.576691
C46	C	2.146747	0.824133	1.076691
C47	C	1.646745	0.324143	0.423357
C48	C	2.146745	0.824143	0.923357
C49	C	1.959079	0.012040	0.423333
C50	C	2.459079	0.512040	0.923333
C51	C	1.959075	0.012022	0.576670
C52	C	2.459075	0.512022	1.076670
H53	H	1.566120	0.404694	0.360946
H54	H	2.066120	0.904694	0.860946
H55	H	1.566132	0.404675	0.639133
H56	H	2.066132	0.904675	1.139133
F57	F	1.911558	-0.128268	0.638826
F58	F	2.411558	0.371732	1.138826
F59	F	1.925462	-0.136344	0.368927
F60	F	2.425462	0.363656	0.868927
F61	F	2.099310	0.059676	0.361165
F62	F	2.599310	0.559676	0.861165
F63	F	2.107430	0.045741	0.631075
F64	F	2.607430	0.545741	1.131075
