data_functionalizedCrystal
_audit_creation_method	'MofGen! by Chris Wilmer'
_symmetry_space_group_name_H-M	'P1'
_symmetry_Int_Tables_number	1
_symmetry_cell_setting	triclinic
loop_
_symmetry_equiv_pos_as_xyz
  x,y,z
_cell_length_a	19.121241
_cell_length_b	19.120786
_cell_length_c	19.805399
_cell_angle_alpha	92.468930
_cell_angle_beta	92.462271
_cell_angle_gamma	94.790376
loop_
_atom_site_label
_atom_site_type_symbol
_atom_site_fract_x
_atom_site_fract_y
_atom_site_fract_z
Zn1	Zn	1.063748	-0.234359	0.416871
Zn2	Zn	1.563748	0.265641	0.916871
Zn3	Zn	1.058642	-0.352035	0.298631
Zn4	Zn	1.558642	0.147965	0.798631
Zn5	Zn	0.946082	-0.239388	0.298644
Zn6	Zn	1.446082	0.260612	0.798644
Zn7	Zn	0.941028	-0.357005	0.406732
Zn8	Zn	1.441028	0.142995	0.906732
O9	O	1.002375	-0.295697	0.355220
O10	O	1.502375	0.204303	0.855220
O11	O	1.161536	-0.245784	0.405424
O12	O	1.661536	0.254216	0.905424
O13	O	1.043688	-0.337117	0.203914
O14	O	1.543688	0.162883	0.703914
O15	O	0.965942	-0.140249	0.318576
O16	O	1.465942	0.359751	0.818576
O17	O	1.157785	-0.332241	0.318554
O18	O	1.657785	0.167759	0.818554
O19	O	1.052392	-0.136555	0.405437
O20	O	1.552392	0.363445	0.905437
O21	O	0.960991	-0.254355	0.203924
O22	O	1.460991	0.245645	0.703924
O23	O	0.846946	-0.259174	0.308745
O24	O	1.346946	0.240826	0.808745
O25	O	0.957330	-0.340711	0.502795
O26	O	1.457330	0.159289	1.002795
O27	O	0.843233	-0.345587	0.388156
O28	O	1.343233	0.154413	0.888156
O29	O	1.047491	-0.250604	0.510244
O30	O	1.547491	0.249396	1.010244
O31	O	1.038788	-0.451166	0.308722
O32	O	1.538788	0.048834	0.808722
O33	O	0.952378	-0.454817	0.388143
O34	O	1.452378	0.045183	0.888143
C35	C	0.819559	-0.303466	0.347352
C36	C	1.319559	0.196534	0.847352
C37	C	0.741348	-0.306807	0.344001
C38	C	1.241348	0.193193	0.844001
C39	C	0.706556	-0.263435	0.387719
C40	C	1.206556	0.236565	0.887719
C41	C	0.633069	-0.266571	0.384565
C42	C	1.133069	0.233429	0.884565
C43	C	0.594375	-0.313083	0.337696
C44	C	1.094375	0.186917	0.837696
C45	C	0.629173	-0.356457	0.293974
C46	C	1.129173	0.143543	0.793974
C47	C	0.702659	-0.353317	0.297125
C48	C	1.202659	0.146683	0.797125
C49	C	0.372399	-0.324808	0.325913
C50	C	0.872399	0.175192	0.825913
C51	C	0.298908	-0.327946	0.322767
C52	C	0.798908	0.172054	0.822767
C53	C	0.302809	-0.238059	0.413357
C54	C	0.802809	0.261941	0.913357
C55	C	0.376295	-0.234926	0.416507
C56	C	0.876295	0.265074	0.916507
C57	C	0.411087	-0.278297	0.372782
C58	C	0.911087	0.221703	0.872782
C59	C	0.519260	-0.316291	0.334473
C60	C	1.019260	0.183709	0.834473
C61	C	0.486201	-0.275085	0.376003
C62	C	0.986201	0.224915	0.876003
C63	C	0.994500	-0.478523	0.347347
C64	C	1.494500	0.021477	0.847347
C65	C	0.991195	-0.556734	0.344004
C66	C	1.491195	-0.056734	0.844004
C67	C	1.034619	-0.591495	0.387691
C68	C	1.534619	-0.091495	0.887691
C69	C	1.031511	-0.664983	0.384551
C70	C	1.531511	-0.164983	0.884551
C71	C	0.984982	-0.703708	0.337721
C72	C	1.484982	-0.203708	0.837721
C73	C	0.941554	-0.668942	0.294032
C74	C	1.441554	-0.168942	0.794032
C75	C	0.944659	-0.595456	0.297175
C76	C	1.444659	-0.095456	0.797175
C77	C	0.973354	-0.925689	0.325968
C78	C	1.473354	-0.425689	0.825968
C79	C	0.970254	-0.999180	0.322827
C80	C	1.470254	-0.499180	0.822827
C81	C	1.060210	-0.995216	0.413347
C82	C	1.560210	-0.495216	0.913347
C83	C	1.063314	-0.921728	0.416484
C84	C	1.563314	-0.421728	0.916484
C85	C	1.019883	-0.886969	0.372797
C86	C	1.519883	-0.386969	0.872797
C87	C	0.981806	-0.778825	0.334509
C88	C	1.481806	-0.278825	0.834509
C89	C	1.023056	-0.811854	0.376013
C90	C	1.523056	-0.311854	0.876013
C91	C	1.185906	-0.287897	0.363118
C92	C	1.685906	0.212103	0.863118
C93	C	1.264115	-0.284574	0.366484
C94	C	1.764115	0.215426	0.866484
C95	C	1.002416	-0.295651	0.531766
C96	C	1.502416	0.204349	1.031766
C97	C	1.002434	-0.295631	0.606999
C98	C	1.502434	0.204369	1.106999
C99	C	1.010300	-0.112156	0.363139
C100	C	1.510300	0.387844	0.863139
C101	C	1.013678	-0.033941	0.366514
C102	C	1.513678	0.466059	0.866514
C103	C	1.002377	-0.295690	0.179364
C104	C	1.502377	0.204310	0.679364
C105	C	1.002504	-0.295506	0.104145
C106	C	1.502504	0.204494	0.604145
C107	C	1.049382	-0.248710	0.646224
C108	C	1.549382	0.251290	1.146224
C109	C	1.049391	-0.248689	0.716913
C110	C	1.549391	0.251311	1.216913
C111	C	1.002453	-0.295594	0.748377
C112	C	1.502453	0.204406	1.248377
C113	C	0.955500	-0.342517	0.709148
C114	C	1.455500	0.157483	1.209148
C115	C	0.955489	-0.342534	0.638460
C116	C	1.455489	0.157466	1.138460
C117	C	0.955542	-0.342450	0.994226
C118	C	1.455542	0.157550	1.494226
C119	C	0.955558	-0.342431	1.064920
C120	C	1.455558	0.157569	1.564920
C121	C	1.049444	-0.248605	1.072680
C122	C	1.549444	0.251395	1.572680
C123	C	1.049433	-0.248622	1.001991
C124	C	1.549433	0.251378	1.501991
C125	C	1.002478	-0.295542	0.962768
C126	C	1.502478	0.204458	1.462768
C127	C	1.002468	-0.295563	0.886118
C128	C	1.502468	0.204437	1.386118
C129	C	1.002465	-0.295577	0.825026
C130	C	1.502465	0.204423	1.325026
H131	H	0.400717	-0.360125	0.290310
H132	H	0.900717	0.139875	0.790310
N133	N	0.738212	-0.397623	0.252480
N134	N	1.238212	0.102377	0.752480
N135	N	0.803823	-0.394814	0.255300
N136	N	1.303823	0.105186	0.755300
H137	H	0.828934	-0.426105	0.223767
H138	H	1.328934	0.073895	0.723767
N139	N	0.589662	-0.403966	0.246089
N140	N	1.089662	0.096034	0.746089
N141	N	0.598049	-0.398862	0.184197
N142	N	1.098049	0.101138	0.684197
H143	H	0.570146	-0.432418	0.150377
H144	H	1.070146	0.067582	0.650377
N145	N	0.928998	-0.890178	0.281350
N146	N	1.428998	-0.390178	0.781350
N147	N	0.955499	-0.848111	0.241061
N148	N	1.455499	-0.348111	0.741061
H149	H	0.924167	-0.823024	0.209553
H150	H	1.424167	-0.323024	0.709553
N151	N	0.894025	-0.708508	0.246205
N152	N	1.394025	-0.208508	0.746205
N153	N	0.891258	-0.774119	0.243403
N154	N	1.391258	-0.274119	0.743403
H155	H	0.857690	-0.802063	0.209624
H156	H	1.357690	-0.302063	0.709624
H157	H	0.604744	-0.231254	0.420166
H158	H	1.104744	0.268746	0.920166
N159	N	1.097328	-0.200787	0.614098
N160	N	1.597328	0.299213	1.114098
N161	N	1.095463	-0.136052	0.624598
N162	N	1.595463	0.363948	1.124598
H163	H	1.129324	-0.102202	0.601912
H164	H	1.629324	0.397798	1.101912
N165	N	0.922741	-1.038762	0.274989
N166	N	1.422741	-0.538762	0.774989
N167	N	0.945812	-1.078716	0.231201
N168	N	1.445812	-0.578716	0.731201
H169	H	0.912263	-1.106677	0.197417
H170	H	1.412263	-0.606677	0.697417
N171	N	1.075867	-0.700480	0.429186
N172	N	1.575867	-0.200480	0.929186
N173	N	1.117407	-0.665896	0.470995
N174	N	1.617407	-0.165896	0.970995
H175	H	1.148734	-0.690964	0.502522
H176	H	1.648734	-0.190964	1.002522
H177	H	0.917318	-0.380665	0.962299
H178	H	1.417318	0.119335	1.462299
H179	H	1.060937	-0.780322	0.414145
H180	H	1.560937	-0.280322	0.914145
H181	H	0.267405	-0.365825	0.284600
H182	H	0.767405	0.134175	0.784600
N183	N	0.907533	-0.390455	0.598380
N184	N	1.407533	0.109545	1.098380
N185	N	0.863761	-0.367606	0.558072
N186	N	1.363761	0.132394	1.058072
H187	H	0.829889	-0.401449	0.529765
H188	H	1.329889	0.098551	1.029765
N189	N	1.097378	-0.200699	0.969865
N190	N	1.597378	0.299301	1.469865
N191	N	1.095513	-0.135964	0.980364
N192	N	1.595513	0.364036	1.480364
H193	H	1.129374	-0.102115	0.957676
H194	H	1.629374	0.397885	1.457676
N195	N	0.746066	-0.215923	0.435602
N196	N	1.246066	0.284077	0.935602
N197	N	0.714988	-0.177201	0.474630
N198	N	1.214988	0.322799	0.974630
H199	H	0.742890	-0.143642	0.508449
H200	H	1.242890	0.356358	1.008449
N201	N	1.097349	-0.200770	0.756990
N202	N	1.597349	0.299230	1.256990
N203	N	1.097353	-0.200758	0.820103
N204	N	1.597353	0.299242	1.320103
H205	H	1.131224	-0.166913	0.848408
H206	H	1.631224	0.333087	1.348408
N207	N	0.900294	-0.559957	0.252549
N208	N	1.400294	-0.059957	0.752549
N209	N	0.858752	-0.594539	0.210741
N210	N	1.358752	-0.094539	0.710741
H211	H	0.827414	-0.569470	0.179224
H212	H	1.327414	-0.069470	0.679224
H213	H	0.487748	-0.354161	0.296312
H214	H	0.987748	0.145839	0.796312
N215	N	0.525722	-0.227566	0.423867
N216	N	1.025722	0.272434	0.923867
N217	N	0.568645	-0.180942	0.403810
N218	N	1.068645	0.319058	0.903810
H219	H	0.596562	-0.147381	0.437615
H220	H	1.096562	0.352619	0.937615
N221	N	0.907553	-0.390420	0.741296
N222	N	1.407553	0.109580	1.241296
N223	N	0.907568	-0.390399	0.804411
N224	N	1.407568	0.109601	1.304411
H225	H	0.873706	-0.424232	0.827115
H226	H	1.373706	0.075768	1.327115
N227	N	1.104566	-1.030712	0.457982
N228	N	1.604566	-0.530712	0.957982
N229	N	1.146103	-0.996128	0.499794
N230	N	1.646103	-0.496128	0.999794
H231	H	1.177430	-1.021195	0.531322
H232	H	1.677430	-0.521195	1.031322
N233	N	1.097405	-0.200679	1.112756
N234	N	1.597405	0.299321	1.612756
N235	N	1.097411	-0.200667	1.175870
N236	N	1.597411	0.299333	1.675870
H237	H	1.131284	-0.166823	1.204174
H238	H	1.631284	0.333177	1.704174
N239	N	0.934285	-0.818362	0.286654
N240	N	1.434285	-0.318362	0.786654
N241	N	0.869697	-0.812973	0.288622
N242	N	1.369697	-0.312973	0.788622
H243	H	0.836137	-0.840893	0.254819
H244	H	1.336137	-0.340893	0.754819
H245	H	0.407794	-0.197054	0.454675
H246	H	0.907794	0.302946	0.954675
N247	N	1.082159	-0.551943	0.435518
N248	N	1.582159	-0.051943	0.935518
N249	N	1.146745	-0.557337	0.433521
N250	N	1.646745	-0.057337	0.933521
H251	H	1.180322	-0.529405	0.467300
H252	H	1.680322	-0.029405	0.967300
N253	N	0.267258	-0.193764	0.458014
N254	N	0.767258	0.306236	0.958014
N255	N	0.201647	-0.196572	0.455197
N256	N	0.701647	0.303428	0.955197
H257	H	0.176538	-0.165287	0.486737
H258	H	0.676538	0.334713	0.986737
H259	H	1.101201	-0.890200	0.454617
H260	H	1.601201	-0.390200	0.954617
N261	N	0.907603	-0.390348	1.097050
N262	N	1.407603	0.109652	1.597050
N263	N	0.865680	-0.432235	1.062022
N264	N	1.365680	0.067765	1.562022
H265	H	0.831812	-0.466074	1.084714
H266	H	1.331812	0.033926	1.584714
