data_functionalizedCrystal
_audit_creation_method	'MofGen! by Chris Wilmer'
_symmetry_space_group_name_H-M	'P1'
_symmetry_Int_Tables_number	1
_symmetry_cell_setting	triclinic
loop_
_symmetry_equiv_pos_as_xyz
  x,y,z
_cell_length_a	18.366186
_cell_length_b	19.288840
_cell_length_c	19.288865
_cell_angle_alpha	96.868869
_cell_angle_beta	90.010368
_cell_angle_gamma	89.983695
loop_
_atom_site_label
_atom_site_type_symbol
_atom_site_fract_x
_atom_site_fract_y
_atom_site_fract_z
O1	O	-0.060680	0.921364	-0.086565
O2	O	0.439320	1.421364	0.413435
O3	O	-0.060655	0.719101	-0.098272
O4	O	0.439345	1.219101	0.401728
O5	O	-0.060654	0.826077	0.008713
O6	O	0.439346	1.326077	0.508713
O7	O	-0.060681	0.814388	-0.193549
O8	O	0.439319	1.314388	0.306451
O9	O	0.060446	0.826058	0.008716
O10	O	0.560446	1.326058	0.508716
O11	O	0.060444	0.719082	-0.098269
O12	O	0.560444	1.219082	0.401731
O13	O	0.060420	0.921346	-0.086562
O14	O	0.560420	1.421346	0.413438
Zn15	Zn	0.079659	0.820211	-0.092415
Zn16	Zn	0.579659	1.320211	0.407585
Zn17	Zn	-0.079895	0.820235	-0.092419
Zn18	Zn	0.420105	1.320235	0.407581
O19	O	0.060418	0.814370	-0.193546
O20	O	0.560418	1.314370	0.306454
C21	C	-0.000102	0.693215	-0.097896
C22	C	0.499898	1.193215	0.402104
C23	C	-0.000093	0.616110	-0.096774
C24	C	0.499907	1.116110	0.403226
N25	N	0.188550	0.820200	-0.092412
N26	N	0.688550	1.320200	0.407588
N27	N	-0.188786	0.820252	-0.092416
N28	N	0.311214	1.320252	0.407584
C29	C	-0.066106	0.579917	-0.096237
C30	C	0.433894	1.079917	0.403763
C31	C	-0.066114	0.507470	-0.095175
C32	C	0.433886	1.007470	0.404825
C33	C	-0.000106	0.471221	-0.094636
C34	C	0.499894	0.971221	0.405364
C35	C	0.065915	0.507423	-0.095178
C36	C	0.565915	1.007423	0.404822
C37	C	0.065922	0.579868	-0.096247
C38	C	0.565922	1.079868	0.403753
C39	C	0.050461	0.361886	-0.052257
C40	C	0.550461	0.861886	0.447743
C41	C	0.050451	0.289443	-0.051184
C42	C	0.550451	0.789443	0.448816
C43	C	-0.000125	0.247778	-0.091342
C44	C	0.499875	0.747778	0.408658
C45	C	-0.050703	0.278565	-0.132565
C46	C	0.449297	0.778565	0.367435
C47	C	-0.050697	0.351009	-0.133634
C48	C	0.449303	0.851009	0.366366
C49	C	-0.000107	0.392667	-0.093477
C50	C	0.499893	0.892667	0.406523
C51	C	-0.066152	0.133029	-0.089654
C52	C	0.433848	0.633029	0.410346
C53	C	-0.066158	0.060580	-0.088596
C54	C	0.433842	0.560580	0.411404
C55	C	0.065874	0.060535	-0.088592
C56	C	0.565874	0.560535	0.411408
C57	C	0.065878	0.132982	-0.089657
C58	C	0.565878	0.632982	0.410343
C59	C	-0.000137	0.169225	-0.090185
C60	C	0.499863	0.669225	0.409815
C61	C	0.226633	0.862188	-0.134432
C62	C	0.726633	1.362188	0.365568
C63	C	0.302861	0.862199	-0.134430
C64	C	0.802861	1.362199	0.365570
C65	C	0.341003	0.820209	-0.092416
C66	C	0.841003	1.320209	0.407584
C67	C	0.302911	0.778219	-0.050387
C68	C	0.802911	1.278219	0.449613
C69	C	0.226684	0.778214	-0.050385
C70	C	0.726684	1.278214	0.449615
C71	C	0.461792	0.757597	-0.090665
C72	C	0.961792	1.257597	0.409335
C73	C	0.538017	0.757600	-0.090672
C74	C	1.038017	1.257600	0.409328
C75	C	0.576110	0.820225	-0.092418
C76	C	1.076110	1.320225	0.407582
C77	C	0.537970	0.882847	-0.094172
C78	C	1.037970	1.382847	0.405828
C79	C	0.461743	0.882842	-0.094170
C80	C	0.961743	1.382842	0.405830
C81	C	0.423658	0.820210	-0.092413
C82	C	0.923658	1.320210	0.407587
C83	C	0.696848	0.862229	-0.134438
C84	C	1.196848	1.362229	0.365562
C85	C	0.773078	0.862242	-0.134431
C86	C	1.273078	1.362242	0.365569
C87	C	0.773126	0.778255	-0.050393
C88	C	1.273126	1.278255	0.449607
C89	C	0.696898	0.778248	-0.050396
C90	C	1.196898	1.278248	0.449604
C91	C	0.658764	0.820234	-0.092422
C92	C	1.158764	1.320234	0.407578
C93	C	-0.000102	0.825692	0.034591
C94	C	0.499898	1.325692	0.534591
C95	C	-0.000095	0.824563	0.111694
C96	C	0.499905	1.324563	0.611694
C97	C	-0.000135	0.947232	-0.086937
C98	C	0.499865	1.447232	0.413063
C99	C	-0.000149	1.024336	-0.088059
C100	C	0.499851	1.524336	0.411941
C101	C	-0.000135	0.814755	-0.219424
C102	C	0.499865	1.314755	0.280576
C103	C	-0.000147	0.815884	-0.296527
C104	C	0.499853	1.315884	0.203473
C105	C	-0.000099	0.887331	0.156396
C106	C	0.499901	1.387331	0.656396
C107	C	-0.000111	0.886270	0.228843
C108	C	0.499889	1.386270	0.728843
C109	C	-0.000103	0.822438	0.256585
C110	C	0.499897	1.322438	0.756585
C111	C	-0.000104	0.759661	0.211873
C112	C	0.499896	1.259661	0.711873
C113	C	-0.000100	0.760723	0.139428
C114	C	0.499900	1.260723	0.639428
C115	C	0.042321	0.772251	0.364869
C116	C	0.542321	1.272251	0.864869
C117	C	0.042321	0.771191	0.437313
C118	C	0.542321	1.271191	0.937313
C119	C	-0.000119	0.819158	0.480030
C120	C	0.499881	1.319158	0.980030
C121	C	-0.042551	0.868196	0.450295
C122	C	0.457449	1.368196	0.950295
C123	C	-0.042547	0.869259	0.377850
C124	C	0.457453	1.369259	0.877850
C125	C	-0.000108	0.821278	0.335139
C126	C	0.499892	1.321278	0.835139
C127	C	-0.000137	0.880781	0.603288
C128	C	0.499863	1.380781	1.103288
C129	C	-0.000153	0.879717	0.675736
C130	C	0.499847	1.379717	1.175736
C131	C	-0.000138	0.753106	0.658764
C132	C	0.499862	1.253106	1.158764
C133	C	-0.000130	0.754171	0.586318
C134	C	0.499870	1.254171	1.086318
C135	C	-0.000125	0.818010	0.558584
C136	C	0.499875	1.318010	1.058584
H137	H	-0.119860	0.609421	-0.096666
H138	H	0.380140	1.109421	0.403334
H139	H	0.119680	0.609336	-0.096685
H140	H	0.619680	1.109336	0.403315
H141	H	0.430783	0.706596	-0.089247
H142	H	0.930783	1.206596	0.410753
F143	F	-0.087724	0.919250	0.495752
F144	F	0.412276	1.419250	0.995752
H145	H	-0.119872	0.477995	-0.094738
H146	H	0.380128	0.977995	0.405262
F147	F	-0.104522	0.383773	-0.177507
F148	F	0.395478	0.883773	0.322493
F149	F	-0.000134	0.685169	0.688284
F150	F	0.499866	1.185169	1.188284
H151	H	0.804083	0.896438	-0.168647
H152	H	1.304083	1.396438	0.331353
H153	H	0.804180	0.744067	-0.016184
H154	H	1.304180	1.244067	0.483816
H155	H	0.195678	0.744021	-0.016166
H156	H	0.695678	1.244021	0.483834
F157	F	-0.000129	0.948723	0.573769
F158	F	0.499871	1.448723	1.073769
H159	H	0.333971	0.744031	-0.016178
H160	H	0.833971	1.244031	0.483822
F161	F	-0.000116	0.953080	0.276427
F162	F	0.499884	1.453080	0.776427
H163	H	0.091649	0.395805	-0.019554
H164	H	0.591649	0.895805	0.480446
H165	H	-0.000098	0.939314	0.133820
H166	H	0.499902	1.439314	0.633820
F167	F	-0.136410	0.171603	-0.090221
F168	F	0.363590	0.671603	0.409779
H169	H	0.091632	0.264383	-0.017614
H170	H	0.591632	0.764383	0.482386
F171	F	0.136139	0.171503	-0.090225
F172	F	0.636139	0.671503	0.409775
F173	F	-0.000096	0.693913	0.091850
F174	F	0.499904	1.193913	0.591850
H175	H	0.195589	0.896379	-0.168650
H176	H	0.695589	1.396379	0.331350
F177	F	-0.000101	0.691725	0.241399
F178	F	0.499899	1.191725	0.741399
H179	H	0.665891	0.744054	-0.016181
H180	H	1.165891	1.244054	0.483819
H181	H	-0.077098	0.909186	0.353643
H182	H	0.422902	1.409186	0.853643
H183	H	-0.000160	0.930833	0.712132
H184	H	0.499840	1.430833	1.212132
H185	H	0.333874	0.896391	-0.168649
H186	H	0.833874	1.396391	0.331351
H187	H	0.665798	0.896417	-0.168658
H188	H	1.165798	1.396417	0.331342
F189	F	-0.104532	0.234227	-0.175310
F190	F	0.395468	0.734227	0.324690
F191	F	-0.000123	0.687363	0.538741
F192	F	0.499877	1.187363	1.038741
H193	H	0.569065	0.706609	-0.089247
H194	H	1.069065	1.206609	0.410753
H195	H	0.076868	0.731258	0.461517
H196	H	0.576868	1.231258	0.961517
F197	F	0.136166	0.468843	-0.094608
F198	F	0.636166	0.968843	0.405392
H199	H	0.076885	0.733189	0.330094
H200	H	0.576885	1.233189	0.830094
H201	H	0.568984	0.933842	-0.095598
H202	H	1.068984	1.433842	0.404402
F203	F	-0.136422	0.022060	-0.088030
F204	F	0.363578	0.522060	0.411970
F205	F	0.136125	0.021961	-0.088025
F206	F	0.636125	0.521961	0.411975
H207	H	0.430692	0.933832	-0.095596
H208	H	0.930692	1.433832	0.404404
