data_functionalizedCrystal
_audit_creation_method	'MofGen! by Chris Wilmer'
_symmetry_space_group_name_H-M	'P1'
_symmetry_Int_Tables_number	1
_symmetry_cell_setting	triclinic
loop_
_symmetry_equiv_pos_as_xyz
  x,y,z
_cell_length_a	15.538191
_cell_length_b	10.654550
_cell_length_c	9.730223
_cell_angle_alpha	90.000193
_cell_angle_beta	89.998970
_cell_angle_gamma	114.121502
loop_
_atom_site_label
_atom_site_type_symbol
_atom_site_fract_x
_atom_site_fract_y
_atom_site_fract_z
O1	O	1.247250	0.406667	-0.114313
O2	O	0.973935	0.262093	-0.114310
O3	O	1.116877	0.520057	-0.114307
O4	O	1.104309	0.148703	-0.114317
O5	O	1.116875	0.520051	0.114273
O6	O	0.973934	0.262087	0.114270
O7	O	1.247248	0.406661	0.114267
Zn8	Zn	1.110591	0.334373	0.150560
Zn9	Zn	1.110593	0.334381	-0.150604
O10	O	1.104307	0.148697	0.114263
C11	C	0.938938	0.246964	-0.000019
C12	C	0.834659	0.201908	-0.000018
C13	C	1.115953	0.566421	-0.000018
C14	C	1.113192	0.704573	-0.000023
N15	N	1.110596	0.334372	0.356097
C16	C	0.543944	0.649529	-0.000027
C17	C	0.445955	0.607160	-0.000030
C18	C	0.425069	0.368846	-0.000036
C19	C	0.523058	0.411195	-0.000027
C20	C	0.582488	0.551538	-0.000024
C21	C	0.561602	0.313204	-0.000024
C22	C	0.659583	0.355550	-0.000022
C23	C	0.719019	0.495887	-0.000024
C24	C	0.680469	0.593884	-0.000023
C25	C	0.502170	0.172861	-0.000036
C26	C	0.540715	0.074870	-0.000033
C27	C	0.638697	0.117216	-0.000021
C28	C	0.698133	0.257553	-0.000023
C29	C	0.677248	0.019219	-0.000022
C30	C	0.775228	0.061564	-0.000021
C31	C	0.796114	0.299898	-0.000021
C32	C	1.282246	0.421790	-0.000027
C33	C	1.386525	0.466847	-0.000037
C34	C	1.105231	0.102334	-0.000028
C35	C	1.107991	-0.035819	-0.000032
C36	C	1.197354	0.823402	-0.000020
C37	C	1.194754	0.953208	-0.000030
C38	C	1.023824	0.845338	-0.000039
C39	C	1.026424	0.715536	-0.000040
C40	C	1.296039	0.885681	-0.000008
C41	C	1.293439	1.015486	-0.000018
N42	N	1.110595	0.334395	-0.356140
C43	C	1.173907	0.448577	0.428024
C44	C	1.173904	0.448592	0.571907
C45	C	1.047277	0.220183	0.571922
C46	C	1.047276	0.220174	0.428042
C47	C	1.247017	0.580445	0.428017
C48	C	1.247014	0.580459	0.571899
H49	H	0.798801	0.530362	-0.000041
H50	H	0.728861	0.708165	-0.000012
H51	H	0.592336	0.763810	-0.000017
C52	C	1.348177	0.870382	-0.129230
C53	C	1.438079	0.843997	-0.114699
C54	C	1.490215	0.828695	-0.243918
C55	C	1.452448	0.839779	-0.387667
C56	C	1.362540	0.866165	-0.402204
C57	C	1.310405	0.881466	-0.272985
H58	H	1.466041	0.835791	-0.008282
H59	H	1.556770	0.809162	-0.233156
H60	H	1.491041	0.828452	-0.483323
H61	H	1.334579	0.874371	-0.508621
H62	H	1.243850	0.900999	-0.283747
H63	H	1.327463	0.864742	0.098688
H64	H	0.844506	0.414180	-0.000011
H65	H	1.323264	1.075074	-0.098713
H66	H	0.414577	0.686967	-0.000034
H67	H	1.330622	1.074627	0.095640
H68	H	0.995715	0.127186	0.369480
C69	C	0.977632	0.094566	0.651065
C70	C	0.977790	0.094425	0.809327
C71	C	0.908143	-0.031196	0.888466
C72	C	0.838338	-0.156678	0.809342
C73	C	0.838178	-0.156542	0.651070
C74	C	0.907824	-0.030920	0.571932
H75	H	1.029466	0.187318	0.867908
H76	H	0.908262	-0.031296	1.005629
H77	H	0.786782	-0.249670	0.867925
H78	H	0.786502	-0.249435	0.592490
H79	H	0.907705	-0.030821	0.454769
C80	C	1.339136	0.582191	0.367717
C81	C	1.401153	0.701506	0.274199
C82	C	1.493271	0.703247	0.213901
C83	C	1.523372	0.585673	0.247122
C84	C	1.461354	0.466350	0.340646
C85	C	1.369236	0.464609	0.400943
H86	H	1.378871	0.788549	0.249602
H87	H	1.539180	0.791579	0.144668
H88	H	1.591563	0.586962	0.202486
H89	H	1.483635	0.379307	0.365242
H90	H	1.323326	0.376277	0.470176
H91	H	0.376668	0.254578	-0.000043
H92	H	0.422389	0.138388	-0.000042
H93	H	0.492314	-0.039397	-0.000040
H94	H	0.628845	-0.095049	-0.000038
H95	H	0.806611	-0.018230	-0.000005
H96	H	1.230981	0.669482	0.388965
H97	H	0.957892	0.618785	-0.000061
H98	H	0.953180	0.854282	-0.000054
H99	H	1.224196	0.661015	0.616518
H100	H	1.319188	0.592681	0.610949
