data_functionalizedCrystal
_audit_creation_method	'MofGen! by Chris Wilmer'
_symmetry_space_group_name_H-M	'P1'
_symmetry_Int_Tables_number	1
_symmetry_cell_setting	triclinic
loop_
_symmetry_equiv_pos_as_xyz
  x,y,z
_cell_length_a	19.188925
_cell_length_b	19.188930
_cell_length_c	11.892095
_cell_angle_alpha	93.870839
_cell_angle_beta	86.113334
_cell_angle_gamma	83.143665
loop_
_atom_site_label
_atom_site_type_symbol
_atom_site_fract_x
_atom_site_fract_y
_atom_site_fract_z
O1	O	0.930627	0.082670	-0.094040
O2	O	1.263960	0.416004	0.239294
O3	O	1.597293	0.749337	0.572627
O4	O	0.727315	0.094409	-0.094038
O5	O	1.060648	0.427742	0.239295
O6	O	1.393982	0.761075	0.572628
O7	O	0.834837	-0.013115	-0.094017
O8	O	1.168170	0.320218	0.239316
O9	O	1.501504	0.653551	0.572650
O10	O	0.823105	0.190194	-0.094061
O11	O	1.156438	0.523528	0.239272
O12	O	1.489771	0.856861	0.572606
O13	O	0.825872	-0.004164	0.093989
O14	O	1.159205	0.329170	0.427322
O15	O	1.492539	0.662503	0.760655
O16	O	0.718350	0.103360	0.093967
O17	O	1.051683	0.436693	0.427301
O18	O	1.385017	0.770027	0.760634
O19	O	0.921662	0.091622	0.093966
O20	O	1.254995	0.424955	0.427299
O21	O	1.588329	0.758288	0.760633
Zn22	Zn	0.818583	0.098912	0.123817
Zn23	Zn	1.151916	0.432245	0.457150
Zn24	Zn	1.485249	0.765579	0.790483
Zn25	Zn	0.830394	0.087118	-0.123889
Zn26	Zn	1.163728	0.420452	0.209444
Zn27	Zn	1.497061	0.753785	0.542778
O28	O	0.814140	0.199146	0.093945
O29	O	1.147473	0.532479	0.427278
O30	O	1.480806	0.865812	0.760611
C31	C	0.696821	0.098505	-0.000035
C32	C	1.030155	0.431838	0.333298
C33	C	1.363488	0.765172	0.666632
C34	C	0.619317	0.097366	-0.000034
C35	C	0.952650	0.430699	0.333300
C36	C	1.285983	0.764032	0.666633
C37	C	0.057547	0.152829	-0.000048
C38	C	0.390880	0.486162	0.333285
C39	C	0.724214	0.819496	0.666618
C40	C	0.130371	0.153905	-0.000055
C41	C	0.463704	0.487239	0.333279
C42	C	0.797037	0.820572	0.666612
C43	C	0.175304	0.090814	-0.000039
C44	C	0.508638	0.424147	0.333295
C45	C	0.841971	0.757481	0.666628
C46	C	0.147411	0.026640	-0.000046
C47	C	0.480744	0.359973	0.333288
C48	C	0.814077	0.693307	0.666621
C49	C	0.074589	0.025565	-0.000051
C50	C	0.407922	0.358899	0.333283
C51	C	0.741255	0.692232	0.666616
N52	N	0.292929	0.048185	0.063970
N53	N	0.626263	0.381519	0.397303
N54	N	0.959596	0.714852	0.730636
N55	N	0.362106	0.049211	0.063977
N56	N	0.695439	0.382544	0.397310
N57	N	1.028773	0.715878	0.730643
C58	C	0.394713	0.094049	-0.000026
C59	C	0.728046	0.427382	0.333307
C60	C	1.061379	0.760715	0.666640
N61	N	0.355527	0.137833	-0.064022
N62	N	0.688860	0.471167	0.269311
N63	N	1.022194	0.804500	0.602644
N64	N	0.286343	0.136810	-0.064024
N65	N	0.619677	0.470143	0.269309
N66	N	0.953010	0.803477	0.602642
C67	C	0.254268	0.091972	-0.000034
C68	C	0.587602	0.425306	0.333299
C69	C	0.920935	0.758639	0.666633
C70	C	0.501562	0.159385	-0.000034
C71	C	0.834896	0.492718	0.333299
C72	C	1.168229	0.826051	0.666633
C73	C	0.574388	0.160458	-0.000047
C74	C	0.907721	0.493791	0.333286
C75	C	1.241054	0.827125	0.666619
C76	C	0.591426	0.033192	-0.000027
C77	C	0.924759	0.366525	0.333306
C78	C	1.258093	0.699858	0.666639
C79	C	0.518602	0.032120	-0.000025
C80	C	0.851935	0.365453	0.333308
C81	C	1.185269	0.698786	0.666641
C82	C	0.473674	0.095218	-0.000023
C83	C	0.807007	0.428552	0.333310
C84	C	1.140341	0.761885	0.666643
C85	C	0.829974	-0.034650	-0.000011
C86	C	1.163308	0.298683	0.333322
C87	C	1.496641	0.632016	0.666656
C88	C	0.828833	-0.112154	-0.000001
C89	C	1.162166	0.221179	0.333332
C90	C	1.495500	0.554512	0.666665
C91	C	0.891924	-0.157079	0.000004
C92	C	1.225257	0.176254	0.333337
C93	C	1.558591	0.509587	0.666670
C94	C	0.890853	-0.229904	-0.000014
C95	C	1.224186	0.103429	0.333319
C96	C	1.557520	0.436763	0.666652
C97	C	0.826687	-0.257799	-0.000015
C98	C	1.160020	0.075534	0.333319
C99	C	1.493354	0.408867	0.666652
C100	C	0.763588	-0.212865	-0.000026
C101	C	1.096921	0.120469	0.333307
C102	C	1.430255	0.453802	0.666641
C103	C	0.764661	-0.140042	-0.000019
C104	C	1.097995	0.193291	0.333314
C105	C	1.431328	0.526624	0.666647
N106	N	0.774588	-0.362757	0.063968
N107	N	1.107922	-0.029424	0.397301
N108	N	1.441255	0.303910	0.730634
N109	N	0.773573	-0.431936	0.063964
N110	N	1.106907	-0.098602	0.397297
N111	N	1.440240	0.234731	0.730630
C112	C	0.823450	-0.477209	-0.000038
C113	C	1.156783	-0.143876	0.333296
C114	C	1.490116	0.189458	0.666629
N115	N	0.874390	-0.450691	-0.064020
N116	N	1.207723	-0.117357	0.269313
N117	N	1.541057	0.215976	0.602646
N118	N	0.875407	-0.381506	-0.064011
N119	N	1.208740	-0.048172	0.269322
N120	N	1.542074	0.285161	0.602655
C121	C	0.825516	-0.336762	-0.000023
C122	C	1.158850	-0.003429	0.333311
C123	C	1.492183	0.329904	0.666644
C124	C	0.885384	-0.601099	-0.000054
C125	C	1.218717	-0.267766	0.333280
C126	C	1.552051	0.065567	0.666613
C127	C	0.884311	-0.673925	-0.000079
C128	C	1.217644	-0.340592	0.333254
C129	C	1.550977	-0.007259	0.666588
C130	C	0.757043	-0.656884	-0.000079
C131	C	1.090377	-0.323551	0.333254
C132	C	1.423710	0.009783	0.666587
C133	C	0.758119	-0.584060	-0.000066
C134	C	1.091452	-0.250727	0.333268
C135	C	1.424786	0.082606	0.666601
C136	C	0.822291	-0.556172	-0.000047
C137	C	1.155624	-0.222839	0.333286
C138	C	1.488958	0.110494	0.666619
C139	C	0.952156	0.087525	-0.000040
C140	C	1.285489	0.420859	0.333293
C141	C	1.618822	0.754192	0.666627
C142	C	1.029661	0.088664	-0.000049
C143	C	1.362994	0.421997	0.333285
C144	C	1.696327	0.755331	0.666618
C145	C	0.819003	0.220681	-0.000064
C146	C	1.152336	0.554014	0.333269
C147	C	1.485669	0.887347	0.666603
C148	C	0.820144	0.298184	-0.000081
C149	C	1.153477	0.631518	0.333252
C150	C	1.486811	0.964851	0.666586
N151	N	0.810526	0.106961	0.292869
N152	N	1.143860	0.440294	0.626202
N153	N	1.477193	0.773627	0.959536
N154	N	0.838456	0.079064	-0.292942
N155	N	1.171789	0.412398	0.040392
N156	N	1.505123	0.745731	0.373725
C157	C	0.894514	0.023019	0.529534
C158	C	1.227847	0.356352	0.862867
C159	C	1.561180	0.689686	1.196200
C160	C	0.888888	0.028650	0.647874
C161	C	1.222221	0.361983	0.981208
C162	C	1.555554	0.695316	1.314541
C163	C	0.793645	0.123850	0.647894
C164	C	1.126979	0.457183	0.981227
C165	C	1.460312	0.790516	1.314560
C166	C	0.799271	0.118219	0.529553
C167	C	1.132605	0.451552	0.862886
C168	C	1.465938	0.784885	1.196219
C169	C	0.849708	0.067802	0.470377
C170	C	1.183041	0.401136	0.803710
C171	C	1.516375	0.734469	1.137044
C172	C	0.855337	0.062175	0.352034
C173	C	1.188670	0.395509	0.685367
C174	C	1.522004	0.728842	1.018701
C175	C	0.760092	0.157371	0.352055
C176	C	1.093425	0.490705	0.685389
C177	C	1.426758	0.824038	1.018722
C178	C	0.754466	0.163002	0.470396
C179	C	1.087799	0.496336	0.803729
C180	C	1.421132	0.829669	1.137063
H181	H	0.464980	0.210763	-0.000035
H182	H	0.798313	0.544097	0.333299
H183	H	1.131646	0.877430	0.666632
H184	H	0.706743	-0.547481	-0.000063
H185	H	1.040076	-0.214147	0.333270
H186	H	1.373410	0.119186	0.666603
C187	C	0.910816	0.006725	0.286936
C188	C	1.244150	0.340059	0.620270
C189	C	1.577483	0.673392	0.953603
H190	H	0.907757	0.009790	0.207984
H191	H	1.241091	0.343123	0.541317
H192	H	1.574424	0.676456	0.874650
H193	H	0.902458	-0.038932	0.306338
H194	H	1.235791	0.294401	0.639672
H195	H	1.569124	0.627735	0.973005
H196	H	0.956468	0.015120	0.306317
H197	H	1.289801	0.348453	0.639651
H198	H	1.623135	0.681786	0.972984
H199	H	0.752577	0.164893	0.696090
H200	H	1.085910	0.498226	1.029423
H201	H	1.419243	0.831559	1.362757
C202	C	0.605066	0.231041	-0.000055
C203	C	0.938400	0.564374	0.333278
C204	C	1.271733	0.897708	0.666612
H205	H	0.654872	0.222645	-0.000068
H206	H	0.988205	0.555978	0.333266
H207	H	1.321539	0.889312	0.666599
H208	H	0.586507	0.260129	0.065504
H209	H	0.919840	0.593463	0.398838
H210	H	1.253174	0.926796	0.732171
H211	H	0.592756	0.253889	-0.065627
H212	H	0.926089	0.587222	0.267706
H213	H	1.259423	0.920556	0.601039
C214	C	0.196834	-0.042758	-0.000024
C215	C	0.530167	0.290575	0.333309
C216	C	0.863501	0.623908	0.666642
H217	H	0.244198	-0.032928	-0.000009
H218	H	0.577531	0.300405	0.333324
H219	H	0.910865	0.633739	0.666657
H220	H	0.191531	-0.072200	-0.065583
H221	H	0.524864	0.261133	0.267750
H222	H	0.858197	0.594467	0.601084
H223	H	0.185269	-0.065957	0.065549
H224	H	0.518603	0.267376	0.398882
H225	H	0.851936	0.600709	0.732216
C226	C	0.043909	-0.045017	-0.000049
C227	C	0.377242	0.288316	0.333284
C228	C	0.710576	0.621649	0.666617
H229	H	-0.005896	-0.036621	-0.000060
H230	H	0.327438	0.296712	0.333273
H231	H	0.660771	0.630046	0.666607
H232	H	0.056217	-0.067871	0.065512
H233	H	0.389550	0.265463	0.398846
H234	H	0.722883	0.598796	0.732179
H235	H	0.062470	-0.074102	-0.065619
H236	H	0.395804	0.259231	0.267714
H237	H	0.729137	0.592565	0.601047
C238	C	0.710803	0.206638	0.286986
C239	C	1.044136	0.539971	0.620320
C240	C	1.377469	0.873305	0.953653
H241	H	0.679965	0.237472	0.339182
H242	H	1.013298	0.570806	0.672516
H243	H	1.346631	0.904139	1.005849
H244	H	0.684011	0.179404	0.240831
H245	H	1.017344	0.512737	0.574164
H246	H	1.350677	0.846070	0.907498
H247	H	0.738032	0.233444	0.240814
H248	H	1.071365	0.566778	0.574147
H249	H	1.404698	0.900111	0.907481
C250	C	0.695260	-0.090620	-0.000022
C251	C	1.028594	0.242714	0.333311
C252	C	1.361927	0.576047	0.666645
H253	H	0.705090	-0.043255	-0.000023
H254	H	1.038424	0.290078	0.333310
H255	H	1.371757	0.623411	0.666643
H256	H	0.665809	-0.095940	0.065534
H257	H	0.999142	0.237393	0.398867
H258	H	1.332476	0.570727	0.732200
H259	H	0.672071	-0.102167	-0.065598
H260	H	1.005404	0.231166	0.267735
H261	H	1.338737	0.564500	0.601069
H262	H	0.628011	-0.018179	-0.000023
H263	H	0.961344	0.315154	0.333310
H264	H	1.294678	0.648488	0.666643
C265	C	0.487924	-0.038462	-0.000007
C266	C	0.821258	0.294872	0.333326
C267	C	1.154591	0.628205	0.666660
H268	H	0.525113	-0.075883	0.000011
H269	H	0.858446	0.257450	0.333345
H270	H	1.191779	0.590783	0.666678
H271	H	0.462997	-0.044649	-0.065567
H272	H	0.796330	0.288685	0.267766
H273	H	1.129664	0.622018	0.601099
H274	H	0.456744	-0.038403	0.065564
H275	H	0.790078	0.294931	0.398898
H276	H	1.123411	0.628264	0.732231
H277	H	0.020971	0.204209	-0.000052
H278	H	0.354304	0.537542	0.333281
H279	H	0.687637	0.870876	0.666615
H280	H	0.153080	0.206158	-0.000043
H281	H	0.486413	0.539492	0.333290
H282	H	0.819746	0.872825	0.666623
H283	H	0.944178	-0.134378	0.000015
H284	H	1.277511	0.198955	0.333348
H285	H	1.610845	0.532288	0.666681
C286	C	0.960255	-0.279330	-0.000001
C287	C	1.293588	0.054003	0.333333
C288	C	1.626922	0.387337	0.666666
H289	H	0.998626	-0.252290	0.000018
H290	H	1.331959	0.081043	0.333351
H291	H	1.665292	0.414376	0.666684
H292	H	0.965612	-0.311209	-0.065561
H293	H	1.298946	0.022124	0.267772
H294	H	1.632279	0.355457	0.601105
H295	H	0.959346	-0.304973	0.065571
H296	H	1.292680	0.028360	0.398904
H297	H	1.626013	0.361693	0.732237
H298	H	0.935586	-0.018028	0.481352
H299	H	1.268919	0.315306	0.814685
H300	H	1.602253	0.648639	1.148019
H301	H	0.925372	-0.007818	0.696037
H302	H	1.258706	0.325515	1.029370
H303	H	1.592039	0.658848	1.362703
H304	H	0.937637	-0.578392	-0.000044
H305	H	1.270970	-0.245059	0.333289
H306	H	1.604303	0.088275	0.666622
C307	C	0.953714	-0.723343	-0.000071
C308	C	1.287048	-0.390010	0.333262
C309	C	1.620381	-0.056677	0.666595
H310	H	0.992083	-0.696301	-0.000049
H311	H	1.325416	-0.362967	0.333285
H312	H	1.658749	-0.029634	0.666618
H313	H	0.959074	-0.755220	-0.065636
H314	H	1.292407	-0.421886	0.267697
H315	H	1.625740	-0.088553	0.601031
H316	H	0.952808	-0.748991	0.065496
H317	H	1.286141	-0.415657	0.398829
H318	H	1.619474	-0.082324	0.732162
H319	H	0.711344	-0.235582	-0.000029
H320	H	1.044677	0.097751	0.333304
H321	H	1.378010	0.431085	0.666638
C322	C	0.686462	-0.687560	-0.000083
C323	C	1.019795	-0.354227	0.333250
C324	C	1.353129	-0.020894	0.666583
H325	H	0.694857	-0.737365	-0.000082
H326	H	1.028191	-0.404032	0.333252
H327	H	1.361524	-0.070699	0.666585
H328	H	0.663619	-0.675237	-0.065643
H329	H	0.996953	-0.341904	0.267690
H330	H	1.330286	-0.008571	0.601023
H331	H	0.657367	-0.669013	0.065488
H332	H	0.990700	-0.335679	0.398822
H333	H	1.324033	-0.002346	0.732155
H334	H	0.713399	0.204049	0.518591
H335	H	1.046733	0.537382	0.851924
H336	H	1.380066	0.870715	1.185257
