data_functionalizedCrystal
_audit_creation_method	'MofGen! by Chris Wilmer'
_symmetry_space_group_name_H-M	'P1'
_symmetry_Int_Tables_number	1
_symmetry_cell_setting	triclinic
loop_
_symmetry_equiv_pos_as_xyz
  x,y,z
_cell_length_a	10.686220
_cell_length_b	10.686551
_cell_length_c	11.169416
_cell_angle_alpha	85.596741
_cell_angle_beta	94.391770
_cell_angle_gamma	90.308082
loop_
_atom_site_label
_atom_site_type_symbol
_atom_site_fract_x
_atom_site_fract_y
_atom_site_fract_z
Zn1	Zn	1.972313	-0.562399	-0.292597
Zn2	Zn	1.956103	-0.352650	-0.509824
Zn3	Zn	1.746435	-0.368718	-0.323298
Zn4	Zn	1.762533	-0.578428	-0.507392
O5	O	1.859346	-0.465549	-0.408278
O6	O	2.145704	-0.521143	-0.309582
O7	O	1.914769	-0.179237	-0.498948
O8	O	1.776445	-0.394427	-0.151272
O9	O	2.133794	-0.367041	-0.469178
O10	O	1.942397	-0.536723	-0.128715
O11	O	1.760726	-0.191042	-0.361908
O12	O	1.573029	-0.409969	-0.359550
O13	O	1.803882	-0.751846	-0.465033
O14	O	1.584857	-0.564042	-0.494803
O15	O	1.958007	-0.740070	-0.307224
O16	O	1.930379	-0.382584	-0.677456
O17	O	1.788164	-0.548461	-0.675669
C18	C	1.533427	-0.490489	-0.430245
C19	C	1.394000	-0.501188	-0.439669
C20	C	1.884549	-0.792748	-0.382432
C21	C	1.895288	-0.932180	-0.371418
C22	C	2.186538	-0.440512	-0.386227
C23	C	2.325967	-0.429843	-0.376830
C24	C	1.859296	-0.465543	-0.720107
C25	C	1.859392	-0.465574	-0.853497
C26	C	1.834314	-0.139617	-0.433932
C27	C	1.823817	-0.000166	-0.444591
C28	C	1.859433	-0.465579	-0.095227
C29	C	1.859470	-0.465592	0.038177
H30	H	1.754415	-0.951701	-0.515667
H31	H	1.345574	-0.570453	-0.500689
C32	C	1.390676	-0.337397	-0.295663
C33	C	1.459705	-0.251193	-0.364832
C34	C	1.519354	-0.166023	-0.290101
H35	H	1.329438	-0.293940	-0.257476
H36	H	1.445575	-0.381559	-0.236245
H37	H	1.404812	-0.207035	-0.424229
H38	H	1.520965	-0.294614	-0.403019
H39	H	1.574253	-0.210185	-0.230683
H40	H	1.458107	-0.122575	-0.251917
H41	H	1.566206	-0.107531	-0.337019
H42	H	1.964704	-0.980651	-0.300345
