data_functionalizedCrystal
_audit_creation_method	'MofGen! by Chris Wilmer'
_symmetry_space_group_name_H-M	'P1'
_symmetry_Int_Tables_number	1
_symmetry_cell_setting	triclinic
loop_
_symmetry_equiv_pos_as_xyz
  x,y,z
_cell_length_a	16.959455
_cell_length_b	16.625545
_cell_length_c	16.959447
_cell_angle_alpha	90.029927
_cell_angle_beta	90.020374
_cell_angle_gamma	90.022578
loop_
_atom_site_label
_atom_site_type_symbol
_atom_site_fract_x
_atom_site_fract_y
_atom_site_fract_z
Zn1	Zn	1.208354	-0.321050	0.447038
Zn2	Zn	1.208264	-0.455897	0.314861
Zn3	Zn	1.076182	-0.321075	0.314862
Zn4	Zn	1.076134	-0.455837	0.446985
O5	O	1.142233	-0.388465	0.380937
O6	O	1.318953	-0.338952	0.429527
O7	O	1.190725	-0.438049	0.204250
O8	O	1.093773	-0.208239	0.332418
O9	O	1.318886	-0.438024	0.332416
O10	O	1.190879	-0.208221	0.429528
O11	O	1.093685	-0.338995	0.204251
O12	O	0.965565	-0.338937	0.332367
O13	O	1.093691	-0.437921	0.557603
O14	O	0.965530	-0.437946	0.429437
O15	O	1.190832	-0.338894	0.557642
O16	O	1.190679	-0.568722	0.332365
O17	O	1.093604	-0.568677	0.429436
C18	C	0.936867	-0.388439	0.380897
C19	C	0.849011	-0.388447	0.380899
C20	C	1.142148	-0.597956	0.380912
C21	C	1.142183	-0.687577	0.380928
C22	C	0.477490	-0.440000	0.330346
C23	C	0.477580	-0.336996	0.431624
C24	C	0.560126	-0.336983	0.431605
C25	C	0.601358	-0.388480	0.380956
C26	C	0.560043	-0.439990	0.330326
C27	C	0.601446	-0.285479	0.482239
C28	C	0.683997	-0.285464	0.482223
C29	C	0.725230	-0.336958	0.431569
C30	C	0.683911	-0.388470	0.380937
C31	C	0.725143	-0.439967	0.330288
C32	C	0.683825	-0.491476	0.279651
C33	C	0.601276	-0.491484	0.279673
C34	C	0.807779	-0.336950	0.431547
C35	C	0.807696	-0.439957	0.330269
C36	C	1.142214	-0.760359	0.380943
C37	C	1.142260	-0.851668	0.380961
C38	C	1.142301	-0.924444	0.380971
C39	C	1.142346	-1.015758	0.380987
C40	C	1.348402	-0.388492	0.380977
C41	C	1.436258	-0.388503	0.380994
C42	C	1.142266	-0.388398	0.587105
C43	C	1.142280	-0.388370	0.674962
C44	C	1.142341	-0.178156	0.380979
C45	C	1.142387	-0.088535	0.380997
C46	C	1.142246	-0.388473	0.175570
C47	C	1.142385	-0.388274	0.087714
C48	C	1.091798	-0.439844	1.046420
C49	C	1.192952	-0.336726	1.046455
C50	C	1.192931	-0.336743	0.963909
C51	C	1.142343	-0.388312	0.922615
C52	C	1.091777	-0.439864	0.963866
C53	C	1.243502	-0.285197	0.922652
C54	C	1.243483	-0.285213	0.840101
C55	C	1.192891	-0.336779	0.798805
C56	C	1.142322	-0.388332	0.840061
C57	C	1.091735	-0.439902	0.798767
C58	C	1.041161	-0.491452	0.840021
C59	C	1.041185	-0.491430	0.922570
C60	C	1.192868	-0.336800	0.716256
C61	C	1.091714	-0.439922	0.716213
H62	H	0.717406	-0.533409	0.238417
H63	H	1.050512	-0.481909	0.682597
H64	H	0.841261	-0.481890	0.289021
N65	N	1.040123	-0.492486	1.088549
N66	N	0.967189	-0.487114	1.079315
H67	H	0.930689	-0.524288	1.109072
H68	H	1.284663	-0.243237	0.806518
H69	H	0.717631	-0.243523	0.523454
N70	N	0.435456	-0.284419	0.483371
N71	N	0.389420	-0.312876	0.533696
H72	H	0.359663	-0.275745	0.570245
N73	N	0.559319	-0.232892	0.533974
N74	N	0.485615	-0.232909	0.533980
H75	H	0.455858	-0.195768	0.570519
H76	H	0.999976	-0.533443	0.806389
H77	H	0.567628	-0.533419	0.238447
H78	H	1.234142	-0.294745	1.080082
N79	N	0.435278	-0.492602	0.278623
N80	N	0.361575	-0.492604	0.278639
H81	H	0.331761	-0.529753	0.242110
N82	N	0.849971	-0.284341	0.483273
N83	N	0.813148	-0.238370	0.528495
H84	H	0.842945	-0.201210	0.565029
H85	H	1.000013	-0.533402	0.956167
H86	H	1.234046	-0.294831	0.682670
N87	N	1.295176	-0.232538	0.964844
N88	N	1.295185	-0.232530	1.038548
H89	H	1.331682	-0.195338	1.068350
