data_functionalizedCrystal
_audit_creation_method	'MofGen! by Chris Wilmer'
_symmetry_space_group_name_H-M	'P1'
_symmetry_Int_Tables_number	1
_symmetry_cell_setting	triclinic
loop_
_symmetry_equiv_pos_as_xyz
  x,y,z
_cell_length_a	10.489741
_cell_length_b	10.654549
_cell_length_c	9.730217
_cell_angle_alpha	89.997559
_cell_angle_beta	89.997012
_cell_angle_gamma	84.513046
loop_
_atom_site_label
_atom_site_type_symbol
_atom_site_fract_x
_atom_site_fract_y
_atom_site_fract_z
O1	O	0.179190	1.667917	-0.114323
O2	O	0.196253	1.302447	-0.114318
O3	O	0.002119	1.493498	-0.114312
O4	O	0.373323	1.476866	-0.114328
O5	O	0.002118	1.493492	0.114268
O6	O	0.196251	1.302441	0.114262
O7	O	0.179188	1.667911	0.114257
Zn8	Zn	0.187719	1.485175	0.150552
Zn9	Zn	0.187721	1.485183	-0.150612
O10	O	0.373321	1.476860	0.114252
C11	C	0.194998	1.255646	-0.000027
C12	C	0.191245	1.116201	-0.000025
C13	C	0.416340	0.826322	-0.000074
C14	C	0.534176	0.877914	-0.000073
C15	C	0.537706	1.008934	-0.000055
C16	C	0.423387	1.088366	-0.000042
C17	C	0.305551	1.036773	-0.000043
C18	C	0.302034	0.905749	-0.000057
C19	C	0.073409	1.064609	-0.000026
C20	C	0.069877	0.933589	-0.000034
C21	C	-0.040909	1.144041	-0.000013
C22	C	-0.158748	1.092449	-0.000003
C23	C	-0.162273	0.961421	-0.000020
C24	C	-0.047959	0.881997	-0.000035
C25	C	-0.045413	1.492239	-0.000023
C26	C	-0.187040	1.488481	-0.000025
C27	C	-0.255124	1.366921	-0.000034
C28	C	-0.347274	1.424342	0.112667
C29	C	-0.347247	1.424376	-0.112695
C30	C	-0.277325	1.545952	0.112769
C31	C	-0.277288	1.545970	-0.112695
C32	C	-0.369411	1.603479	0.000034
C33	C	0.420853	1.478119	-0.000041
C34	C	0.562481	1.481878	-0.000047
C35	C	0.180443	1.714713	-0.000036
C36	C	0.184195	1.854157	-0.000047
N37	N	0.187717	1.485179	0.356088
N38	N	0.187714	1.485189	-0.356149
C39	C	0.015862	1.654425	0.356084
C40	C	-0.070061	1.739056	0.428022
C41	C	-0.070062	1.739069	0.571901
C42	C	0.015868	1.654439	0.643847
C43	C	0.101791	1.569807	0.571909
C44	C	0.101785	1.569806	0.428026
C45	C	0.273637	1.400558	0.571913
C46	C	0.273646	1.400549	0.428034
C47	C	0.359567	1.315928	0.643859
C48	C	0.445498	1.231301	0.571921
C49	C	0.445496	1.231292	0.428032
C50	C	0.359570	1.315918	0.356096
H51	H	-0.251817	1.157132	-0.000002
C52	C	-0.389145	1.354852	0.241385
N53	N	-0.420678	1.302504	0.338330
H54	H	-0.246267	1.597363	-0.207982
C55	C	-0.235709	1.615370	0.241636
N56	N	-0.204361	1.667649	0.338701
C57	C	0.412468	0.682195	-0.000081
N58	N	0.409554	0.573637	-0.000088
H59	H	-0.378186	1.372928	-0.207984
C60	C	-0.051826	0.737870	-0.000055
N61	N	-0.054733	0.629311	-0.000076
H62	H	0.515450	1.162395	0.630508
H63	H	0.515461	1.162371	0.369468
C64	C	0.427277	1.232490	-0.000029
N65	N	0.430206	1.341047	-0.000015
C66	C	0.015863	1.654426	0.197812
N67	N	0.015861	1.654429	0.078600
H68	H	-0.418882	1.703515	0.000095
H69	H	-0.258230	0.919424	-0.000028
C70	C	-0.164599	1.832125	0.348872
N71	N	-0.235814	1.902216	0.289259
C72	C	-0.164582	1.832166	0.651035
N73	N	-0.235773	1.902288	0.710638
C74	C	0.015838	1.654435	0.802119
N75	N	0.015812	1.654426	0.921331
H76	H	0.359565	1.315923	0.238941
H77	H	-0.038027	1.250723	-0.000005
H78	H	0.359557	1.315937	0.761013
H79	H	-0.205426	1.266975	0.000081
H80	H	0.627251	0.813226	-0.000089
H81	H	0.633658	1.050939	-0.000053
