data_functionalizedCrystal
_audit_creation_method	'MofGen! by Chris Wilmer'
_symmetry_space_group_name_H-M	'P1'
_symmetry_Int_Tables_number	1
_symmetry_cell_setting	triclinic
loop_
_symmetry_equiv_pos_as_xyz
  x,y,z
_cell_length_a	15.944551
_cell_length_b	15.995350
_cell_length_c	15.072220
_cell_angle_alpha	90.001101
_cell_angle_beta	89.991993
_cell_angle_gamma	83.495556
loop_
_atom_site_label
_atom_site_type_symbol
_atom_site_fract_x
_atom_site_fract_y
_atom_site_fract_z
O1	O	1.114528	0.107983	-0.073686
O2	O	0.869978	0.121297	-0.073707
O3	O	0.998938	-0.007247	-0.073695
O4	O	0.985568	0.236527	-0.073698
O5	O	0.998906	-0.007240	0.073870
O6	O	0.869946	0.121304	0.073858
O7	O	1.114497	0.107990	0.073880
Zn8	Zn	0.992216	0.114648	0.097298
Zn9	Zn	0.992258	0.114639	-0.097125
O10	O	0.985536	0.236534	0.073867
C11	C	0.998370	-0.038438	0.000086
C12	C	0.996712	-0.131389	0.000081
C13	C	0.838668	0.120748	0.000073
C14	C	0.745422	0.119091	0.000064
C15	C	0.990761	-0.469137	0.000083
C16	C	0.898918	-0.421708	-0.000256
C17	C	0.900576	-0.325017	0.000077
C18	C	0.993713	-0.301576	0.000082
C19	C	1.038995	-0.342647	0.084351
C20	C	1.036688	-0.439283	0.084421
C21	C	1.038622	-0.439649	-0.083388
C22	C	1.038600	-0.342704	-0.084501
C23	C	0.995386	-0.206878	0.000084
C24	C	0.989091	-0.563835	0.000087
C25	C	0.530570	0.035452	0.000083
C26	C	0.469564	0.074288	-0.072675
C27	C	0.574697	0.116093	0.000075
C28	C	0.469554	0.074314	0.072812
C29	C	0.409784	0.113192	0.000089
C30	C	0.514918	0.154951	-0.072743
C31	C	0.514915	0.154965	0.072810
C32	C	0.453926	0.193859	0.000034
C33	C	0.669699	0.117762	0.000066
C34	C	0.314783	0.111529	0.000091
C35	C	1.145806	0.108539	0.000098
C36	C	1.239052	0.110196	0.000100
C37	C	0.986105	0.267726	0.000085
C38	C	0.987762	0.360676	0.000084
N39	N	0.992194	0.114654	0.229987
N40	N	0.992288	0.114626	-0.229814
C41	C	0.992257	0.114636	0.589188
C42	C	0.923021	0.183186	0.551575
C43	C	0.923180	0.183437	0.448749
C44	C	0.992225	0.114645	0.410984
C45	C	1.079867	0.133732	0.448283
C46	C	1.079479	0.134219	0.551141
C47	C	0.974631	0.026795	0.551288
C48	C	0.972620	0.027381	0.448424
C49	C	0.992212	0.114648	0.310271
C50	C	0.992275	0.114634	0.689902
H51	H	0.864980	-0.296600	-0.060331
H52	H	0.534917	0.189030	-0.134321
H53	H	0.563907	-0.031473	-0.000007
C54	C	0.849337	-0.446759	-0.081890
N55	N	0.811990	-0.465635	-0.143377
H56	H	1.106521	-0.327338	-0.089586
C57	C	1.042837	-0.042123	0.584153
N58	N	1.094210	-0.094026	0.608914
H59	H	0.420764	0.260854	-0.000007
C60	C	1.131429	-0.323542	0.088604
N61	N	1.201049	-0.309145	0.091809
C62	C	0.849537	-0.448151	0.080939
N63	N	0.812349	-0.468060	0.142104
C64	C	0.996468	-0.304310	0.169067
N65	N	0.964430	-0.275437	0.232873
C66	C	1.130100	-0.482556	-0.084153
N67	N	1.198998	-0.514879	-0.084723
C68	C	1.036334	-0.044764	0.413718
N69	N	1.084335	-0.099101	0.387586
C70	C	0.938390	0.271498	0.415494
N71	N	0.949851	0.337828	0.390447
C72	C	0.852131	-0.287369	0.081819
N73	N	0.815642	-0.259013	0.143391
C74	C	1.151189	0.069355	0.584755
N75	N	1.205209	0.020510	0.610069
C76	C	0.542100	0.201006	0.155913
N77	N	0.562579	0.235676	0.218514
H78	H	1.095011	0.198280	0.575123
H79	H	1.003641	-0.457583	0.147410
C80	C	0.834726	0.168092	0.585039
N81	N	0.768222	0.156725	0.610256
C82	C	0.938014	0.270754	0.586480
N83	N	0.949310	0.336710	0.612772
H84	H	1.132619	0.085131	0.423819
C85	C	1.127779	-0.482845	0.089605
N86	N	1.196388	-0.515653	0.093515
H87	H	0.449457	0.040194	0.134321
C88	C	0.998071	-0.467399	-0.169675
N89	N	0.967518	-0.488299	-0.234662
H90	H	0.449469	0.040177	-0.134186
C91	C	0.835165	0.168088	0.414680
N92	N	0.768867	0.156532	0.389024
H93	H	0.908149	0.012896	0.424046
H94	H	1.005493	-0.315460	-0.146842
H95	H	1.095770	0.197063	0.422515
H96	H	0.912110	0.008443	0.577273
