data_functionalizedCrystal
_audit_creation_method	'MofGen! by Chris Wilmer'
_symmetry_space_group_name_H-M	'P1'
_symmetry_Int_Tables_number	1
_symmetry_cell_setting	triclinic
loop_
_symmetry_equiv_pos_as_xyz
  x,y,z
_cell_length_a	10.654547
_cell_length_b	10.654545
_cell_length_c	11.892095
_cell_angle_alpha	93.929293
_cell_angle_beta	86.062459
_cell_angle_gamma	84.485741
loop_
_atom_site_label
_atom_site_type_symbol
_atom_site_fract_x
_atom_site_fract_y
_atom_site_fract_z
O1	O	1.675802	0.168455	-0.094017
O2	O	1.310324	0.185258	-0.094014
O3	O	1.501465	-0.005883	-0.094015
O4	O	1.484661	0.359596	-0.094016
O5	O	1.485528	0.010030	0.093993
O6	O	1.294387	0.201170	0.093993
O7	O	1.659865	0.184367	0.093991
Zn8	Zn	1.474595	0.195295	0.123842
Zn9	Zn	1.495593	0.174330	-0.123866
O10	O	1.468724	0.375508	0.093991
C11	C	1.255557	0.191980	-0.000010
C12	C	1.116114	0.188286	-0.000009
C13	C	1.492263	-0.044725	-0.000013
C14	C	1.488571	-0.184168	-0.000020
C15	C	0.871471	0.163975	-0.204996
C16	C	0.945676	0.157038	-0.307479
C17	C	1.076693	0.160519	-0.307476
C18	C	1.133508	0.170933	-0.204979
C19	C	1.059302	0.177869	-0.102495
C20	C	0.928282	0.174392	-0.102510
C21	C	1.041909	0.195223	0.102474
C22	C	0.910890	0.191752	0.102473
C23	C	1.098723	0.205637	0.204971
C24	C	1.024516	0.212583	0.307456
C25	C	0.893491	0.209104	0.307449
C26	C	0.836685	0.198689	0.204956
C27	C	1.505961	-0.201525	-0.204991
C28	C	1.512926	-0.275713	-0.307477
C29	C	1.509457	-0.406732	-0.307478
C30	C	1.499018	-0.463564	-0.204983
C31	C	1.492053	-0.389376	-0.102498
C32	C	1.495527	-0.258356	-0.102507
C33	C	1.474654	-0.372019	0.102472
C34	C	1.478132	-0.241001	0.102475
C35	C	1.464215	-0.428851	0.204967
C36	C	1.457259	-0.354664	0.307454
C37	C	1.460730	-0.223638	0.307451
C38	C	1.471167	-0.166813	0.204961
C39	C	1.714632	0.177646	-0.000016
C40	C	1.854076	0.181338	-0.000024
C41	C	1.477926	0.414350	-0.000013
C42	C	1.481619	0.553793	-0.000014
N43	N	1.460274	0.209603	0.292896
N44	N	1.509925	0.160013	-0.292920
C45	C	1.609579	0.060384	0.529544
C46	C	1.599578	0.070394	0.647886
C47	C	1.430265	0.239625	0.647924
C48	C	1.440266	0.229616	0.529582
C49	C	1.529927	0.139993	0.470396
C50	C	1.539934	0.129990	0.352052
C51	C	1.370616	0.299215	0.352093
C52	C	1.360615	0.309225	0.470435
H53	H	0.764788	0.161157	-0.205008
H54	H	1.612944	0.057018	0.303864
Cl55	Cl	1.317542	0.352274	0.722341
H56	H	1.521423	-0.229425	-0.390926
Cl57	Cl	1.298219	0.175286	-0.204978
Cl58	Cl	1.510347	-0.036818	-0.204998
H59	H	0.899404	0.148554	-0.390930
H60	H	1.515117	-0.467135	-0.390930
Cl61	Cl	1.722306	-0.052269	0.455137
H62	H	1.287611	0.382191	0.518638
Cl63	Cl	1.699713	-0.029693	0.722239
Cl64	Cl	0.800216	0.217813	0.436293
H65	H	1.305762	0.364042	0.303922
H66	H	1.137112	0.154868	-0.390926
Cl67	Cl	1.095947	0.225667	0.436295
Cl68	Cl	1.263432	0.210007	0.204975
H69	H	0.730003	0.195863	0.204940
H70	H	1.496179	-0.570246	-0.204993
Cl71	Cl	1.459842	-0.593561	0.204965
H72	H	1.448752	-0.400947	0.390897
H73	H	1.455039	-0.163238	0.390908
H74	H	1.474000	-0.060132	0.204948
