data_functionalizedCrystal
_audit_creation_method	'MofGen! by Chris Wilmer'
_symmetry_space_group_name_H-M	'P1'
_symmetry_Int_Tables_number	1
_symmetry_cell_setting	triclinic
loop_
_symmetry_equiv_pos_as_xyz
  x,y,z
_cell_length_a	19.188905
_cell_length_b	9.798715
_cell_length_c	10.723024
_cell_angle_alpha	89.998022
_cell_angle_beta	83.801213
_cell_angle_gamma	89.989196
loop_
_atom_site_label
_atom_site_type_symbol
_atom_site_fract_x
_atom_site_fract_y
_atom_site_fract_z
O1	O	0.927167	-0.113713	0.155630
O2	O	0.723989	-0.113666	0.176633
O3	O	0.830265	-0.113685	-0.015543
O4	O	0.820891	-0.113693	0.347806
O5	O	0.830257	0.113297	-0.015543
O6	O	0.723981	0.113316	0.176633
O7	O	0.927159	0.113269	0.155629
Zn8	Zn	0.825569	0.149331	0.166131
Zn9	Zn	0.825579	-0.149728	0.166131
O10	O	0.820883	0.113289	0.347805
C11	C	0.697970	-0.000169	0.175958
C12	C	0.620451	-0.000151	0.173932
C13	C	0.584057	-0.123882	0.172959
C14	C	0.511221	-0.123899	0.171041
C15	C	0.474783	-0.000177	0.170071
C16	C	0.511185	0.123570	0.171052
C17	C	0.584019	0.123584	0.172982
N18	N	0.365279	0.091898	0.096032
N19	N	0.296090	0.091877	0.094196
C20	C	0.255339	-0.000210	0.164258
N21	N	0.286392	-0.092297	0.236211
N22	N	0.355588	-0.092279	0.238042
C23	C	0.395807	-0.000178	0.167979
C24	C	0.139968	-0.123969	0.161208
C25	C	0.067130	-0.123981	0.159298
C26	C	0.067096	0.123493	0.159296
C27	C	0.139932	0.123501	0.161218
C28	C	0.176364	-0.000234	0.162168
C29	C	0.829579	-0.000196	-0.062028
C30	C	0.827538	-0.000200	-0.200540
C31	C	0.953178	-0.000231	0.156304
C32	C	1.030697	-0.000258	0.158330
N33	N	0.825567	0.353431	0.166130
N34	N	0.825587	-0.353827	0.166123
C35	C	0.870189	0.421200	0.085089
C36	C	0.870200	0.578362	0.085084
C37	C	0.887004	-0.000216	-0.276767
C38	C	0.884896	-0.000220	-0.419926
C39	C	0.821570	-0.000204	0.394291
C40	C	0.823610	-0.000208	0.532802
H41	H	0.169565	0.224257	0.162003
C42	C	0.623480	-0.258362	0.174059
C43	C	0.576010	-0.366725	0.172827
C44	C	0.612301	-0.490627	0.173858
H45	H	0.656879	-0.263691	0.102084
H46	H	0.646892	-0.263582	0.247590
H47	H	0.552610	-0.361508	0.099305
H48	H	0.542610	-0.361441	0.244797
H49	H	0.635713	-0.495847	0.247388
H50	H	0.645699	-0.495942	0.101881
H51	H	0.580098	-0.564166	0.173034
C52	C	0.755745	-0.000474	-0.379822
C53	C	0.753185	-0.117265	-0.304236
C54	C	0.690674	-0.117565	-0.223732
H55	H	0.753818	0.078590	-0.328308
H56	H	0.717003	-0.000542	-0.428007
H57	H	0.791917	-0.117184	-0.256055
H58	H	0.755101	-0.196347	-0.355716
H59	H	0.651932	-0.117634	-0.271918
H60	H	0.688752	-0.038497	-0.172227
H61	H	0.688926	-0.196812	-0.172446
C62	C	0.471567	-0.258101	0.170034
C63	C	0.399983	-0.231625	0.168166
C64	C	0.363434	-0.355217	0.167252
H65	H	0.488410	-0.309029	0.097614
H66	H	0.478482	-0.308964	0.243121
H67	H	0.393073	-0.180784	0.095087
H68	H	0.383120	-0.180718	0.240580
H69	H	0.370348	-0.406079	0.240339
H70	H	0.380282	-0.406135	0.094831
H71	H	0.314860	-0.337270	0.165997
H72	H	0.787370	0.411762	0.235504
H73	H	0.481513	0.224305	0.170265
C74	C	0.957043	-0.000307	-0.222722
C75	C	1.011496	-0.000360	-0.320790
C76	C	1.076028	-0.000467	-0.271056
H77	H	0.960495	0.078821	-0.172590
H78	H	0.960433	-0.079496	-0.172607
H79	H	1.008108	0.078821	-0.370884
H80	H	1.008068	-0.079483	-0.370930
H81	H	1.079418	-0.079656	-0.220941
H82	H	1.079473	0.078663	-0.220925
H83	H	1.112982	-0.000515	-0.337587
H84	H	0.775066	-0.000197	-0.241265
C85	C	0.774612	0.568731	0.258787
C86	C	0.733468	0.661760	0.333568
C87	C	0.686510	0.590461	0.418954
H88	H	0.745216	0.513001	0.214293
H89	H	0.800069	0.513004	0.310495
H90	H	0.708013	0.717464	0.281866
H91	H	0.762846	0.717494	0.378089
H92	H	0.711967	0.534734	0.470662
H93	H	0.657118	0.534733	0.374450
H94	H	0.658592	0.653570	0.469711
C95	C	0.952758	-0.000522	-0.507309
C96	C	0.955327	-0.117319	-0.582882
C97	C	1.017838	-0.117654	-0.663385
H98	H	0.954680	0.078537	-0.558831
H99	H	0.991501	-0.000604	-0.459123
H100	H	0.916595	-0.117225	-0.631063
H101	H	0.953417	-0.196397	-0.531394
H102	H	1.056580	-0.117736	-0.615199
H103	H	1.019754	-0.038590	-0.714899
H104	H	1.019592	-0.196905	-0.714662
H105	H	0.908381	0.362870	0.015705
C106	C	0.921218	0.655813	-0.007497
C107	C	0.962383	0.562784	-0.082240
C108	C	1.009395	0.634083	-0.167533
H109	H	0.895823	0.711576	-0.059251
H110	H	0.950590	0.711507	0.037109
H111	H	0.933015	0.507113	-0.126842
H112	H	0.987794	0.507017	-0.030520
H113	H	1.038767	0.689777	-0.122927
H114	H	0.983994	0.689844	-0.219278
H115	H	1.037336	0.570974	-0.218248
H116	H	0.613651	0.224344	0.173775
H117	H	0.169631	-0.224721	0.161995
H118	H	0.037499	-0.224742	0.158513
H119	H	0.037429	0.224229	0.158514
