data_functionalizedCrystal
_audit_creation_method	'MofGen! by Chris Wilmer'
_symmetry_space_group_name_H-M	'P1'
_symmetry_Int_Tables_number	1
_symmetry_cell_setting	triclinic
loop_
_symmetry_equiv_pos_as_xyz
  x,y,z
_cell_length_a	11.169417
_cell_length_b	12.759394
_cell_length_c	11.169409
_cell_angle_alpha	89.965476
_cell_angle_beta	89.980176
_cell_angle_gamma	90.015716
loop_
_atom_site_label
_atom_site_type_symbol
_atom_site_fract_x
_atom_site_fract_y
_atom_site_fract_z
Zn1	Zn	1.834925	-0.418157	-0.678525
Zn2	Zn	1.834798	-0.593883	-0.477834
Zn3	Zn	1.634211	-0.418221	-0.477859
Zn4	Zn	1.634202	-0.593797	-0.678479
O5	O	1.734534	-0.506014	-0.578174
O6	O	2.002858	-0.441476	-0.651911
O7	O	1.808141	-0.570643	-0.309887
O8	O	1.660892	-0.271191	-0.504507
O9	O	2.002765	-0.570581	-0.504465
O10	O	1.808356	-0.271144	-0.651935
O11	O	1.660770	-0.441585	-0.309906
O12	O	1.466260	-0.441502	-0.504463
O13	O	1.660878	-0.570435	-0.846435
O14	O	1.466254	-0.570498	-0.651857
O15	O	1.808348	-0.441393	-0.846468
O16	O	1.808133	-0.740892	-0.504420
O17	O	1.660756	-0.740830	-0.651833
C18	C	1.422709	-0.505998	-0.578159
C19	C	1.289309	-0.506017	-0.578180
C20	C	1.734462	-0.778982	-0.578145
C21	C	1.734541	-0.895759	-0.578173
C22	C	1.888120	-0.895771	-0.424787
C23	C	1.964941	-0.950637	-0.348108
C24	C	1.965011	-1.060359	-0.348140
C25	C	1.888255	-1.115216	-0.424863
C26	C	1.811434	-1.060349	-0.501541
C27	C	1.811370	-0.950625	-0.501498
C28	C	1.657863	-1.060337	-0.654932
C29	C	1.657785	-0.950616	-0.654895
C30	C	1.581107	-1.115195	-0.731654
C31	C	1.504279	-1.060328	-0.808329
C32	C	1.504210	-0.950600	-0.808292
C33	C	1.580964	-0.895749	-0.731574
C34	C	2.047576	-0.506031	-0.578190
C35	C	2.180976	-0.506038	-0.578197
C36	C	1.734626	-0.505898	-0.891217
C37	C	1.734666	-0.505848	-1.024617
C38	C	1.734639	-0.231981	-0.578229
C39	C	1.734684	-0.115204	-0.578253
C40	C	1.734511	-0.506055	-0.266349
C41	C	1.734705	-0.505808	-0.132950
H42	H	1.888055	-0.806430	-0.424737
C43	C	2.033021	-0.782443	-0.279926
C44	C	2.049305	-0.890337	-0.263773
H45	H	2.085101	-0.745222	-0.227856
H46	H	2.050547	-0.764391	-0.360562
H47	H	1.952374	-0.764545	-0.262294
H48	H	2.129950	-0.908236	-0.281414
H49	H	2.031788	-0.908397	-0.183118
C50	C	2.116807	-1.049362	-0.196504
C51	C	2.049450	-1.120675	-0.263853
H52	H	2.168929	-1.086601	-0.144465
H53	H	2.162669	-1.006497	-0.248814
H54	H	2.064499	-1.006635	-0.150543
H55	H	2.101757	-1.163397	-0.309821
H56	H	2.003584	-1.163558	-0.211537
C57	C	1.611769	-1.272257	-0.845901
C58	C	1.581192	-1.235802	-0.731696
H59	H	1.611826	-1.346716	-0.845922
H60	H	1.555032	-1.247437	-0.902534
H61	H	1.689195	-1.247353	-0.866689
H62	H	1.503762	-1.260700	-0.710911
H63	H	1.637931	-1.260633	-0.675044
H64	H	1.888329	-1.204557	-0.424893
H65	H	1.441796	-1.105001	-0.870795
H66	H	1.441658	-0.905933	-0.870738
C67	C	1.497251	-0.738562	-0.815030
C68	C	1.580886	-0.775141	-0.731529
H69	H	1.497203	-0.664103	-0.814994
H70	H	1.517996	-0.763302	-0.892493
H71	H	1.419829	-0.763461	-0.794219
H72	H	1.658310	-0.750248	-0.752345
H73	H	1.560148	-0.750391	-0.654049
