data_functionalizedCrystal
_audit_creation_method	'MofGen! by Chris Wilmer'
_symmetry_space_group_name_H-M	'P1'
_symmetry_Int_Tables_number	1
_symmetry_cell_setting	triclinic
loop_
_symmetry_equiv_pos_as_xyz
  x,y,z
_cell_length_a	19.805407
_cell_length_b	25.639240
_cell_length_c	19.805399
_cell_angle_alpha	89.964092
_cell_angle_beta	89.982197
_cell_angle_gamma	90.030074
loop_
_atom_site_label
_atom_site_type_symbol
_atom_site_fract_x
_atom_site_fract_y
_atom_site_fract_z
Zn1	Zn	1.034706	-0.208200	-0.382648
Zn2	Zn	1.368039	0.125133	-0.049315
Zn3	Zn	1.701372	0.458466	0.284018
Zn4	Zn	1.034608	-0.295634	-0.269444
Zn5	Zn	1.367941	0.037699	0.063890
Zn6	Zn	1.701275	0.371032	0.397223
Zn7	Zn	0.921520	-0.208211	-0.269477
Zn8	Zn	1.254854	0.125123	0.063857
Zn9	Zn	1.588187	0.458456	0.397190
Zn10	Zn	0.921471	-0.295602	-0.382594
Zn11	Zn	1.254805	0.037731	-0.049261
Zn12	Zn	1.588138	0.371064	0.284073
O13	O	0.978076	-0.251912	-0.326041
O14	O	1.311410	0.081421	0.007293
O15	O	1.644743	0.414755	0.340626
O16	O	1.129409	-0.219808	-0.367641
O17	O	1.462743	0.113526	-0.034307
O18	O	1.796076	0.446859	0.299026
O19	O	1.019586	-0.284055	-0.174732
O20	O	1.352920	0.049278	0.158602
O21	O	1.686253	0.382612	0.491935
O22	O	0.936596	-0.135044	-0.284526
O23	O	1.269929	0.198289	0.048808
O24	O	1.603263	0.531623	0.382141
O25	O	1.129338	-0.284045	-0.284470
O26	O	1.462671	0.049288	0.048864
O27	O	1.796004	0.382622	0.382197
O28	O	1.019753	-0.135037	-0.367672
O29	O	1.353086	0.198297	-0.034339
O30	O	1.686420	0.531630	0.298994
O31	O	0.936501	-0.219825	-0.174756
O32	O	1.269835	0.113508	0.158578
O33	O	1.603168	0.446841	0.491911
O34	O	0.826797	-0.219794	-0.284473
O35	O	1.160131	0.113539	0.048861
O36	O	1.493464	0.446872	0.382194
O37	O	0.936513	-0.283991	-0.477318
O38	O	1.269846	0.049343	-0.143985
O39	O	1.603179	0.382676	0.189349
O40	O	0.826761	-0.284001	-0.367580
O41	O	1.160095	0.049333	-0.034246
O42	O	1.493428	0.382666	0.299087
O43	O	1.019705	-0.219777	-0.477358
O44	O	1.353039	0.113557	-0.144025
O45	O	1.686372	0.446890	0.189309
O46	O	1.019539	-0.368795	-0.284417
O47	O	1.352872	-0.035462	0.048916
O48	O	1.686205	0.297871	0.382250
O49	O	0.936418	-0.368772	-0.367548
O50	O	1.269751	-0.035439	-0.034215
O51	O	1.603084	0.297895	0.299119
C52	C	0.802220	-0.251896	-0.326024
C53	C	1.135554	0.081438	0.007309
C54	C	1.468887	0.414771	0.340642
C55	C	0.726988	-0.251901	-0.326033
C56	C	1.060322	0.081432	0.007300
C57	C	1.393655	0.414765	0.340633
C58	C	0.977981	-0.387755	-0.325988
C59	C	1.311314	-0.054421	0.007346
C60	C	1.644647	0.278912	0.340679
C61	C	0.978002	-0.445869	-0.325988
C62	C	1.311335	-0.112535	0.007346
C63	C	1.644668	0.220798	0.340679
C64	C	0.691682	-0.218512	-0.369406
C65	C	1.025016	0.114821	-0.036073
C66	C	1.358349	0.448155	0.297260
C67	C	0.620994	-0.218515	-0.369409
C68	C	0.954327	0.114819	-0.036076
C69	C	1.287660	0.448152	0.297258
C70	C	0.585613	-0.251910	-0.326041
C71	C	0.918946	0.081424	0.007292
C72	C	1.252279	0.414757	0.340625
C73	C	0.620924	-0.285300	-0.282664
C74	C	0.954257	0.048033	0.050670
C75	C	1.287591	0.381366	0.384003
C76	C	0.691611	-0.285295	-0.282658
C77	C	1.024944	0.048039	0.050675
C78	C	1.358278	0.381372	0.384009
C79	C	0.335851	-0.285324	-0.282684
C80	C	0.669184	0.048009	0.050649
C81	C	1.002517	0.381343	0.383982
C82	C	0.265159	-0.285328	-0.282695
C83	C	0.598492	0.048005	0.050639
C84	C	0.931825	0.381338	0.383972
C85	C	0.265233	-0.218544	-0.369435
C86	C	0.598567	0.114789	-0.036102
C87	C	0.931900	0.448123	0.297232
C88	C	0.335921	-0.218538	-0.369430
C89	C	0.669254	0.114795	-0.036096
C90	C	1.002587	0.448128	0.297237
C91	C	0.371225	-0.251927	-0.326050
C92	C	0.704559	0.081407	0.007284
C93	C	1.037892	0.414740	0.340617
C94	C	0.447874	-0.251923	-0.326046
C95	C	0.781207	0.081411	0.007287
C96	C	1.114541	0.414744	0.340620
C97	C	0.508966	-0.251917	-0.326048
C98	C	0.842299	0.081417	0.007286
C99	C	1.175632	0.414750	0.340619
C100	C	1.021398	-0.806189	-0.369413
C101	C	1.354731	-0.472856	-0.036080
C102	C	1.688064	-0.139523	0.297253
C103	C	1.021418	-0.860793	-0.369427
C104	C	1.354751	-0.527460	-0.036094
C105	C	1.688084	-0.194127	0.297240
O106	O	1.058201	-0.888994	-0.406295
O107	O	1.391534	-0.555661	-0.072961
O108	O	1.724867	-0.222328	0.260372
N109	N	0.978170	-0.888151	-0.326106
N110	N	1.311504	-0.554818	0.007227
N111	N	1.644837	-0.221484	0.340561
C112	C	0.934895	-0.860901	-0.282773
C113	C	1.268229	-0.527568	0.050560
C114	C	1.601562	-0.194235	0.383893
O115	O	0.898112	-0.889185	-0.245927
O116	O	1.231445	-0.555852	0.087406
O117	O	1.564778	-0.222518	0.420740
C118	C	0.934873	-0.806298	-0.282764
C119	C	1.268206	-0.472965	0.050570
C120	C	1.601539	-0.139631	0.383903
C121	C	0.978128	-0.778943	-0.326083
C122	C	1.311461	-0.445610	0.007251
C123	C	1.644794	-0.112277	0.340584
C124	C	1.064649	-0.778834	-0.412729
C125	C	1.397982	-0.445501	-0.079396
C126	C	1.731315	-0.112168	0.253937
C127	C	1.064629	-0.724234	-0.412715
C128	C	1.397963	-0.390901	-0.079381
C129	C	1.731296	-0.057567	0.253952
C130	C	1.021359	-0.696988	-0.369384
C131	C	1.354693	-0.363655	-0.036050
C132	C	1.688026	-0.030321	0.297283
C133	C	0.978108	-0.724343	-0.326068
C134	C	1.311442	-0.391010	0.007266
C135	C	1.644775	-0.057676	0.340599
C136	C	0.891595	-0.779049	-0.239435
C137	C	1.224928	-0.445716	0.093899
C138	C	1.558261	-0.112383	0.427232
C139	C	0.891575	-0.724442	-0.239429
C140	C	1.224909	-0.391109	0.093904
C141	C	1.558242	-0.057776	0.427238
C142	C	0.934830	-0.697088	-0.282748
C143	C	1.268163	-0.363754	0.050585
C144	C	1.601497	-0.030421	0.383919
C145	C	0.934819	-0.642497	-0.282722
C146	C	1.268152	-0.309163	0.050611
C147	C	1.601486	0.024170	0.383945
N148	N	0.978066	-0.615139	-0.326043
N149	N	1.311399	-0.281806	0.007290
N150	N	1.644733	0.051528	0.340624
C151	C	1.021336	-0.642385	-0.369374
C152	C	1.354670	-0.309051	-0.036041
C153	C	1.688003	0.024282	0.297293
C154	C	0.934946	-0.975572	-0.282798
C155	C	1.268279	-0.642239	0.050535
C156	C	1.601613	-0.308905	0.383869
C157	C	0.934972	-1.030174	-0.282804
C158	C	1.268305	-0.696841	0.050529
C159	C	1.601638	-0.363508	0.383863
C160	C	1.021493	-1.030063	-0.369459
C161	C	1.354827	-0.696729	-0.036126
C162	C	1.688160	-0.363396	0.297208
C163	C	1.021470	-0.975459	-0.369449
C164	C	1.354804	-0.642126	-0.036116
C165	C	1.688137	-0.308793	0.297218
C166	C	0.978193	-0.948214	-0.326119
C167	C	1.311527	-0.614881	0.007214
C168	C	1.644860	-0.281548	0.340547
C169	C	1.021293	-0.527720	-0.369339
C170	C	1.354626	-0.194386	-0.036006
C171	C	1.687960	0.138947	0.297328
C172	C	1.021272	-0.473114	-0.369318
C173	C	1.354605	-0.139781	-0.035985
C174	C	1.687939	0.193552	0.297348
C175	C	0.934748	-0.473231	-0.282666
C176	C	1.268082	-0.139897	0.050667
C177	C	1.601415	0.193436	0.384000
C178	C	0.934772	-0.527831	-0.282684
C179	C	1.268105	-0.194498	0.050649
C180	C	1.601438	0.138835	0.383982
C181	C	0.978046	-0.555075	-0.326026
C182	C	1.311380	-0.221741	0.007307
C183	C	1.644713	0.111592	0.340641
O184	O	0.898053	-0.614261	-0.245875
O185	O	1.231386	-0.280928	0.087458
O186	O	1.564719	0.052406	0.420791
O187	O	1.058108	-0.614095	-0.406220
O188	O	1.391441	-0.280761	-0.072887
O189	O	1.724774	0.052572	0.260446
C190	C	1.154619	-0.251929	-0.326058
C191	C	1.487952	0.081405	0.007276
C192	C	1.821286	0.414738	0.340609
C193	C	1.229851	-0.251936	-0.326065
C194	C	1.563184	0.081397	0.007269
C195	C	1.896518	0.414731	0.340602
C196	C	0.978114	-0.251879	-0.502584
C197	C	1.311448	0.081454	-0.169250
C198	C	1.644781	0.414788	0.164083
C199	C	0.978131	-0.251865	-0.577816
C200	C	1.311464	0.081468	-0.244482
C201	C	1.644797	0.414802	0.088851
C202	C	0.978191	-0.115539	-0.326109
C203	C	1.311524	0.217794	0.007225
C204	C	1.644858	0.551128	0.340558
C205	C	0.978240	-0.057425	-0.326138
C206	C	1.311573	0.275908	0.007196
C207	C	1.644906	0.609242	0.340529
C208	C	1.021450	-0.218427	-0.613182
C209	C	1.354783	0.114906	-0.279848
C210	C	1.688117	0.448240	0.053485
C211	C	1.021457	-0.218412	-0.683870
C212	C	1.354790	0.114921	-0.350537
C213	C	1.688124	0.448255	-0.017203
C214	C	0.978147	-0.251838	-0.719191
C215	C	1.311481	0.081496	-0.385858
C216	C	1.644814	0.414829	-0.052525
C217	C	0.934823	-0.285277	-0.683820
C218	C	1.268156	0.048056	-0.350487
C219	C	1.601490	0.381390	-0.017153
C220	C	0.934813	-0.285289	-0.613133
C221	C	1.268147	0.048044	-0.279800
C222	C	1.601480	0.381377	0.053534
C223	C	0.934861	-0.285228	-0.968894
C224	C	1.268195	0.048105	-0.635560
C225	C	1.601528	0.381438	-0.302227
C226	C	0.934876	-0.285215	-1.039586
C227	C	1.268209	0.048119	-0.706252
C228	C	1.601543	0.381452	-0.372919
C229	C	1.021505	-0.218351	-1.039631
C230	C	1.354838	0.114982	-0.706297
C231	C	1.688172	0.448316	-0.372964
C232	C	1.021495	-0.218363	-0.968944
C233	C	1.354829	0.114970	-0.635610
C234	C	1.688162	0.448303	-0.302277
C235	C	0.978169	-0.251800	-0.933579
C236	C	1.311502	0.081533	-0.600245
C237	C	1.644835	0.414866	-0.266912
C238	C	0.978161	-0.251816	-0.856930
C239	C	1.311494	0.081518	-0.523597
C240	C	1.644827	0.414851	-0.190264
C241	C	0.978158	-0.251825	-0.795838
C242	C	1.311492	0.081508	-0.462505
C243	C	1.644825	0.414841	-0.129172
C244	C	0.978078	-0.251907	-0.150185
C245	C	1.311411	0.081426	0.183149
C246	C	1.644744	0.414760	0.516482
C247	C	0.978193	-0.251774	-0.074953
C248	C	1.311526	0.081560	0.258380
C249	C	1.644859	0.414893	0.591714
H250	H	0.720484	-0.191319	-0.404723
H251	H	1.053818	0.142014	-0.071390
H252	H	1.387151	0.475348	0.261944
H253	H	1.056765	-0.191146	-0.940189
H254	H	1.390098	0.142187	-0.606855
H255	H	1.723431	0.475520	-0.273522
C256	C	0.887211	-0.322010	-0.929998
C257	C	1.220544	0.011323	-0.596665
C258	C	1.553877	0.344656	-0.263331
H259	H	0.893399	-0.317229	-0.882840
H260	H	1.226733	0.016104	-0.549507
H261	H	1.560066	0.349438	-0.216173
H262	H	0.897089	-0.357138	-0.941567
H263	H	1.230422	-0.023805	-0.608233
H264	H	1.563756	0.309528	-0.274900
H265	H	0.841740	-0.314349	-0.941582
H266	H	1.175073	0.018985	-0.608249
H267	H	1.508406	0.352318	-0.274915
H268	H	0.592251	-0.191327	-0.404729
H269	H	0.925584	0.142007	-0.071395
H270	H	1.258917	0.475340	0.261938
C271	C	0.844008	-0.809128	-0.191788
C272	C	1.177342	-0.475794	0.141545
C273	C	1.510675	-0.142461	0.474879
H274	H	0.818233	-0.785073	-0.165991
H275	H	1.151566	-0.451740	0.167342
H276	H	1.484899	-0.118407	0.500675
H277	H	0.869914	-0.830432	-0.162318
H278	H	1.203248	-0.497099	0.171015
H279	H	1.536581	-0.163766	0.504349
H280	H	0.814506	-0.830428	-0.217664
H281	H	1.147839	-0.497095	0.115669
H282	H	1.481173	-0.163761	0.449002
C283	C	1.112254	-0.808797	-0.460394
C284	C	1.445587	-0.475463	-0.127060
C285	C	1.778921	-0.142130	0.206273
H286	H	1.138009	-0.784677	-0.486181
H287	H	1.471342	-0.451344	-0.152848
H288	H	1.804675	-0.118011	0.180485
H289	H	1.086364	-0.830099	-0.489871
H290	H	1.419698	-0.496766	-0.156538
H291	H	1.753031	-0.163433	0.176796
H292	H	1.141775	-0.830090	-0.434527
H293	H	1.475108	-0.496756	-0.101194
H294	H	1.808442	-0.163423	0.232139
H295	H	1.099849	-0.701965	-0.447991
H296	H	1.433182	-0.368632	-0.114657
H297	H	1.766516	-0.035298	0.218676
C298	C	1.069124	-0.181644	-0.722773
C299	C	1.402457	0.151689	-0.389440
C300	C	1.735791	0.485022	-0.056106
H301	H	1.062928	-0.186422	-0.769930
H302	H	1.396261	0.146911	-0.436597
H303	H	1.729594	0.480244	-0.103264
H304	H	1.114587	-0.189315	-0.711186
H305	H	1.447921	0.144018	-0.377852
H306	H	1.781254	0.477351	-0.044519
H307	H	1.059259	-0.146510	-0.711211
H308	H	1.392592	0.186823	-0.377877
H309	H	1.725925	0.520157	-0.044544
C310	C	0.226396	-0.181812	-0.417147
C311	C	0.559730	0.151522	-0.083813
C312	C	0.893063	0.484855	0.249520
H313	H	0.179230	-0.186592	-0.410936
H314	H	0.512563	0.146742	-0.077603
H315	H	0.845897	0.480075	0.255731
H316	H	0.237994	-0.189509	-0.462603
H317	H	0.571327	0.143824	-0.129270
H318	H	0.904660	0.477157	0.204063
H319	H	0.237999	-0.146670	-0.407325
H320	H	0.571333	0.186664	-0.073991
H321	H	0.904666	0.519997	0.259342
C322	C	0.374680	-0.322054	-0.234976
C323	C	0.708014	0.011280	0.098357
C324	C	1.041347	0.344613	0.431690
H325	H	0.421847	-0.317266	-0.241176
H326	H	0.755180	0.016067	0.092157
H327	H	1.088513	0.349400	0.425490
H328	H	0.363079	-0.357193	-0.244797
H329	H	0.696412	-0.023860	0.088536
H330	H	1.029746	0.309474	0.421870
H331	H	0.363080	-0.314354	-0.189517
H332	H	0.696413	0.018979	0.143816
H333	H	1.029747	0.352312	0.477150
H334	H	1.056692	-0.953190	-0.404723
H335	H	1.390025	-0.619857	-0.071390
H336	H	1.723358	-0.286524	0.261943
H337	H	1.056725	-1.052256	-0.404743
H338	H	1.390058	-0.718923	-0.071409
H339	H	1.723392	-0.385589	0.261924
C340	C	0.374836	-0.181802	-0.417131
C341	C	0.708169	0.151531	-0.083798
C342	C	1.041503	0.484864	0.249535
H343	H	0.343684	-0.161913	-0.442959
H344	H	0.677018	0.171420	-0.109626
H345	H	1.010351	0.504754	0.223707
H346	H	0.402414	-0.201828	-0.446570
H347	H	0.735747	0.131505	-0.113237
H348	H	1.069081	0.464839	0.220096
H349	H	0.402411	-0.158992	-0.391287
H350	H	0.735744	0.174341	-0.057954
H351	H	1.069077	0.507675	0.275380
H352	H	0.899706	-0.953392	-0.247508
H353	H	1.233040	-0.620059	0.085825
H354	H	1.566373	-0.286725	0.419159
H355	H	1.056781	-0.191123	-1.068433
H356	H	1.390115	0.142210	-0.735100
H357	H	1.723448	0.475544	-0.401767
C358	C	0.843971	-0.694474	-0.191765
C359	C	1.177304	-0.361140	0.141568
C360	C	1.510638	-0.027807	0.474901
H361	H	0.850146	-0.658036	-0.197962
H362	H	1.183480	-0.324702	0.135371
H363	H	1.516813	0.008631	0.468705
H364	H	0.853903	-0.703446	-0.146299
H365	H	1.187236	-0.370113	0.187034
H366	H	1.520570	-0.036779	0.520367
H367	H	0.798490	-0.703446	-0.201641
H368	H	1.131823	-0.370113	0.131692
H369	H	1.465157	-0.036780	0.465026
H370	H	0.899531	-0.312512	-0.584339
H371	H	1.232865	0.020821	-0.251005
H372	H	1.566198	0.354154	0.082328
H373	H	0.899605	-0.312435	-1.068342
H374	H	1.232938	0.020898	-0.735009
H375	H	1.566272	0.354232	-0.401676
C376	C	0.226240	-0.322061	-0.234984
C377	C	0.559574	0.011273	0.098350
C378	C	0.892907	0.344606	0.431683
H379	H	0.257390	-0.341941	-0.209142
H380	H	0.590723	-0.008608	0.124191
H381	H	0.924057	0.324725	0.457525
H382	H	0.198663	-0.344871	-0.260818
H383	H	0.531996	-0.011538	0.072516
H384	H	0.865330	0.321795	0.405849
H385	H	0.198665	-0.302025	-0.205548
H386	H	0.531998	0.031308	0.127786
H387	H	0.865332	0.364641	0.461119
H388	H	1.056720	-0.191210	-0.584428
H389	H	1.390053	0.142124	-0.251095
H390	H	1.723387	0.475457	0.082238
C391	C	0.887396	-1.060259	-0.235149
C392	C	1.220729	-0.726925	0.098184
C393	C	1.554062	-0.393592	0.431518
H394	H	0.861622	-1.036207	-0.209347
H395	H	1.194955	-0.702874	0.123987
H396	H	1.528288	-0.369540	0.457320
H397	H	0.913308	-1.081563	-0.205685
H398	H	1.246641	-0.748230	0.127649
H399	H	1.579975	-0.414897	0.460982
H400	H	0.857891	-1.081559	-0.261023
H401	H	1.191225	-0.748226	0.072311
H402	H	1.524558	-0.414892	0.405644
C403	C	0.582007	-0.322035	-0.234961
C404	C	0.915340	0.011298	0.098372
C405	C	1.248673	0.344632	0.431705
H406	H	0.534851	-0.317261	-0.241181
H407	H	0.868184	0.016072	0.092152
H408	H	1.201518	0.349406	0.425486
H409	H	0.593576	-0.314337	-0.189502
H410	H	0.926909	0.018996	0.143831
H411	H	1.260243	0.352329	0.477165
H412	H	0.593578	-0.357175	-0.244783
H413	H	0.926911	-0.023842	0.088550
H414	H	1.260245	0.309492	0.421883
C415	C	0.887194	-0.557923	-0.235034
C416	C	1.220527	-0.224589	0.098300
C417	C	1.553861	0.108744	0.431633
H418	H	0.861419	-0.533874	-0.209228
H419	H	1.194753	-0.200540	0.124105
H420	H	1.528086	0.132793	0.457439
H421	H	0.913104	-0.579231	-0.205572
H422	H	1.246438	-0.245898	0.127761
H423	H	1.579771	0.087436	0.461095
H424	H	0.857691	-0.579220	-0.260913
H425	H	1.191024	-0.245887	0.072421
H426	H	1.524357	0.087447	0.405754
H427	H	0.720356	-0.312483	-0.247339
H428	H	1.053690	0.020850	0.085994
H429	H	1.387023	0.354183	0.419328
C430	C	1.068848	-0.443027	-0.416977
C431	C	1.402182	-0.109694	-0.083644
C432	C	1.735515	0.223640	0.249690
H433	H	1.094614	-0.467077	-0.442790
H434	H	1.427947	-0.133744	-0.109457
H435	H	1.761281	0.199589	0.223876
H436	H	1.098350	-0.421723	-0.391113
H437	H	1.431684	-0.088389	-0.057780
H438	H	1.765017	0.244944	0.275553
H439	H	1.042924	-0.421726	-0.446442
H440	H	1.376257	-0.088393	-0.113108
H441	H	1.709591	0.244940	0.220225
H442	H	1.056527	-0.549895	-0.404637
H443	H	1.389860	-0.216561	-0.071303
H444	H	1.723193	0.116772	0.262030
H445	H	0.899520	-0.451039	-0.247385
H446	H	1.232853	-0.117705	0.085949
H447	H	1.566187	0.215628	0.419282
H448	H	0.899557	-0.312491	-0.712584
H449	H	1.232891	0.020842	-0.379251
H450	H	1.566224	0.354176	-0.045918
