data_functionalizedCrystal
_audit_creation_method	'MofGen! by Chris Wilmer'
_symmetry_space_group_name_H-M	'P1'
_symmetry_Int_Tables_number	1
_symmetry_cell_setting	triclinic
loop_
_symmetry_equiv_pos_as_xyz
  x,y,z
_cell_length_a	16.956995
_cell_length_b	14.853559
_cell_length_c	15.455313
_cell_angle_alpha	92.670929
_cell_angle_beta	87.515363
_cell_angle_gamma	79.842963
loop_
_atom_site_label
_atom_site_type_symbol
_atom_site_fract_x
_atom_site_fract_y
_atom_site_fract_z
O1	O	1.061571	0.033155	-0.072189
O2	O	0.829447	0.064803	-0.072177
O3	O	0.951713	-0.082723	-0.072183
O4	O	0.939305	0.180680	-0.072184
O5	O	0.944721	-0.074319	0.072080
O6	O	0.822455	0.073206	0.072086
O7	O	1.054579	0.041558	0.072073
Cu8	Cu	0.937879	0.058149	0.085252
Cu9	Cu	0.946147	0.048211	-0.085355
O10	O	0.932313	0.189083	0.072079
C11	C	0.796245	0.070625	-0.000044
C12	C	0.707729	0.075443	-0.000040
C13	C	0.208470	0.111480	-0.000072
C14	C	0.291640	0.106947	-0.000071
C15	C	0.342636	0.021850	-0.000064
C16	C	0.310458	-0.058718	-0.000067
C17	C	0.227290	-0.054184	-0.000074
C18	C	0.592383	-0.000592	-0.000049
C19	C	0.675557	-0.005120	-0.000039
C20	C	0.656733	0.160546	-0.000045
C21	C	0.573563	0.165072	-0.000047
C22	C	0.541393	0.084504	-0.000054
N23	N	0.427649	0.017214	-0.000061
N24	N	0.456381	0.089140	-0.000064
C25	C	0.947656	-0.112067	-0.000053
C26	C	0.945975	-0.212024	-0.000058
C27	C	0.942655	-0.639238	-0.078695
C28	C	0.935032	-0.630071	0.078586
C29	C	0.936618	-0.536158	0.078586
C30	C	0.941221	-0.493781	-0.000055
C31	C	0.944239	-0.545316	-0.078697
C32	C	0.933593	-0.484614	0.157227
C33	C	0.935178	-0.390695	0.157230
C34	C	0.939787	-0.348317	0.078588
C35	C	0.942805	-0.399859	-0.000057
C36	C	0.947409	-0.357481	-0.078698
C37	C	0.950433	-0.409023	-0.157344
C38	C	0.948848	-0.502939	-0.157339
C39	C	0.941372	-0.254401	0.078583
C40	C	0.948992	-0.263559	-0.078699
C41	C	1.087781	0.035736	-0.000062
C42	C	1.176297	0.030918	-0.000072
C43	C	0.936370	0.218428	-0.000053
C44	C	0.938051	0.318384	-0.000054
N45	N	0.932069	0.065138	0.205247
N46	N	0.951963	0.041215	-0.205351
C47	C	0.984030	0.002485	0.250639
C48	C	0.979643	0.007778	0.341447
C49	C	0.923299	0.075730	0.386862
C50	C	0.871333	0.138386	0.341464
C51	C	0.875716	0.133088	0.250657
C52	C	0.904380	0.098573	0.658444
C53	C	0.900003	0.103868	0.749257
C54	C	1.008312	-0.026742	0.749234
C55	C	1.012694	-0.032030	0.658426
C56	C	0.960725	0.030623	0.613036
N57	N	0.918816	0.081144	0.479682
N58	N	0.965205	0.025205	0.520217
H59	H	0.682935	0.226140	-0.000041
H60	H	0.717077	-0.074419	-0.000038
O61	O	0.518562	0.256857	-0.000050
H62	H	0.532862	0.292278	-0.058852
H63	H	0.951309	-0.544911	-0.221368
H64	H	0.566201	-0.066196	-0.000052
O65	O	0.819658	0.200655	0.201699
H66	H	0.832161	0.185545	0.130927
H67	H	0.351986	-0.128006	-0.000066
O68	O	0.192589	-0.141079	-0.000065
H69	H	0.158011	-0.146412	-0.058870
O70	O	0.938118	-0.198813	0.163398
H71	H	0.881686	-0.202558	0.201113
H72	H	0.931279	-0.664579	0.142612
H73	H	0.954175	-0.374505	-0.221373
H74	H	0.952745	-0.229064	-0.142740
H75	H	0.945120	-0.681208	-0.142726
O76	O	0.839230	0.177162	0.798247
H77	H	0.798456	0.144483	0.839645
O78	O	1.035698	-0.059799	0.390395
H79	H	1.000103	-0.098738	0.431774
O80	O	0.928648	-0.530320	0.242044
H81	H	0.928072	-0.604289	0.228830
O82	O	0.931934	-0.335115	0.242053
H83	H	0.875506	-0.338861	0.279775
H84	H	1.029914	-0.052845	0.213668
O85	O	1.073458	-0.105328	0.609442
H86	H	1.108848	-0.148013	0.656262
O87	O	1.064357	-0.094323	0.798188
H88	H	1.051841	-0.079232	0.868961
O89	O	0.848338	0.166154	0.609492
H90	H	0.808432	0.214300	0.656330
H91	H	0.166953	0.180775	-0.000071
O92	O	0.810566	0.211686	0.390441
H93	H	0.769781	0.179023	0.431839
O94	O	0.326343	0.193839	-0.000051
H95	H	0.276909	0.253774	-0.000039
