data_functionalizedCrystal
_audit_creation_method	'MofGen! by Chris Wilmer'
_symmetry_space_group_name_H-M	'P1'
_symmetry_Int_Tables_number	1
_symmetry_cell_setting	triclinic
loop_
_symmetry_equiv_pos_as_xyz
  x,y,z
_cell_length_a	16.992695
_cell_length_b	9.065218
_cell_length_c	16.053802
_cell_angle_alpha	92.619430
_cell_angle_beta	92.741074
_cell_angle_gamma	92.157946
loop_
_atom_site_label
_atom_site_type_symbol
_atom_site_fract_x
_atom_site_fract_y
_atom_site_fract_z
O1	O	0.111807	-1.976917	-0.069433
O2	O	0.121245	-1.548507	-0.069434
O3	O	0.002371	-1.760994	-0.069427
O4	O	0.230680	-1.764430	-0.069440
O5	O	0.008887	-1.749295	0.069432
O6	O	0.127761	-1.536808	0.069425
O7	O	0.118322	-1.965218	0.069426
Zn8	Zn	0.124076	-1.749156	0.091472
Zn9	Zn	0.115491	-1.764570	-0.091480
O10	O	0.237196	-1.752731	0.069419
C11	C	0.123596	-1.487587	-0.000005
C12	C	0.120883	-1.323493	-0.000005
C13	C	-0.023615	-1.750726	0.000003
C14	C	-0.110753	-1.737542	0.000002
N15	N	0.129935	-1.738647	0.216332
C16	C	-0.160090	-1.864748	0.000004
C17	C	-0.241965	-1.852352	-0.000004
C18	C	-0.274501	-1.712749	-0.000008
C19	C	-0.225158	-1.585534	-0.000011
C20	C	-0.143284	-1.597931	-0.000009
C21	C	-0.518464	-1.661366	-0.000019
C22	C	-0.600343	-1.648978	-0.000019
C23	C	-0.617145	-1.915798	-0.000013
C24	C	-0.535269	-1.928183	-0.000006
C25	C	-0.485933	-1.800968	-0.000014
N26	N	-0.358190	-1.700075	-0.000013
N27	N	-0.402246	-1.813644	-0.000015
C28	C	0.263182	-1.762999	-0.000012
C29	C	0.350320	-1.776184	-0.000018
C30	C	0.115972	-2.026138	-0.000005
C31	C	0.118684	-2.190233	-0.000010
N32	N	0.109627	-1.775089	-0.216340
C33	C	0.079372	-1.829097	0.260029
C34	C	0.083478	-1.821761	0.347436
C35	C	0.138150	-1.723980	0.391143
C36	C	0.188715	-1.633519	0.347440
C37	C	0.184605	-1.640849	0.260035
C38	C	0.156081	-1.691959	0.652552
C39	C	0.160189	-1.684639	0.739963
C40	C	0.054950	-1.872879	0.739952
C41	C	0.050848	-1.880207	0.652546
C42	C	0.101410	-1.789741	0.608850
N43	N	0.142350	-1.716482	0.480487
N44	N	0.097206	-1.797232	0.519508
H45	H	-0.133605	-1.978427	0.000011
H46	H	-0.103114	-1.494346	-0.000011
H47	H	-0.251655	-1.471866	-0.000019
H48	H	-0.478304	-1.557778	-0.000026
H49	H	0.042306	-1.895412	0.383013
H50	H	0.034855	-1.908727	0.224448
H51	H	0.233228	-1.553896	0.383032
H52	H	0.006330	-1.959827	0.616960
H53	H	0.225777	-1.567193	0.224458
H54	H	0.013785	-1.946531	0.775537
H55	H	0.197252	-1.618300	0.616982
H56	H	0.204713	-1.605010	0.775546
H57	H	-0.508785	-2.041862	-0.000004
H58	H	-0.282132	-1.955937	-0.000002
H59	H	-0.657323	-2.019368	-0.000008
H60	H	-0.626830	-1.535289	-0.000008
