data_functionalizedCrystal
_audit_creation_method	'MofGen! by Chris Wilmer'
_symmetry_space_group_name_H-M	'P1'
_symmetry_Int_Tables_number	1
_symmetry_cell_setting	triclinic
loop_
_symmetry_equiv_pos_as_xyz
  x,y,z
_cell_length_a	17.077404
_cell_length_b	18.101395
_cell_length_c	17.077396
_cell_angle_alpha	89.972533
_cell_angle_beta	89.980223
_cell_angle_gamma	90.026490
loop_
_atom_site_label
_atom_site_type_symbol
_atom_site_fract_x
_atom_site_fract_y
_atom_site_fract_z
Zn1	Zn	1.200010	-0.294921	-0.443854
Zn2	Zn	1.199898	-0.418769	-0.312590
Zn3	Zn	1.068742	-0.294936	-0.312601
Zn4	Zn	1.068691	-0.418715	-0.443813
O5	O	1.134335	-0.356835	-0.378215
O6	O	1.309842	-0.311366	-0.426454
O7	O	1.182474	-0.402372	-0.202745
O8	O	1.086223	-0.191301	-0.330034
O9	O	1.309760	-0.402357	-0.330015
O10	O	1.182665	-0.191290	-0.426465
O11	O	1.086114	-0.311392	-0.202753
O12	O	0.958888	-0.311340	-0.329994
O13	O	1.086136	-0.402264	-0.553666
O14	O	0.958851	-0.402279	-0.426395
O15	O	1.182616	-0.311313	-0.553696
O16	O	1.182425	-0.522395	-0.329976
O17	O	1.086028	-0.522355	-0.426385
C18	C	0.930387	-0.356806	-0.378192
C19	C	0.843137	-0.356811	-0.378201
C20	C	0.467324	-0.404294	-0.428354
C21	C	0.549305	-0.404284	-0.428342
C22	C	0.590288	-0.356855	-0.378227
C23	C	0.549288	-0.309438	-0.328115
C24	C	0.467309	-0.309452	-0.328124
C25	C	0.720158	-0.309411	-0.328102
C26	C	0.802142	-0.309396	-0.328095
C27	C	0.802154	-0.404243	-0.428321
C28	C	0.720175	-0.404257	-0.428329
C29	C	0.679179	-0.356839	-0.378218
C30	C	1.134230	-0.549246	-0.378192
C31	C	1.134257	-0.631560	-0.378208
C32	C	1.134429	-0.930651	-0.378250
C33	C	1.073919	-0.899331	-0.439059
C34	C	1.073632	-0.813714	-0.438869
C35	C	1.134344	-0.782268	-0.378230
C36	C	1.111947	-0.813418	-0.295500
C37	C	1.111557	-0.899063	-0.295864
C38	C	1.217469	-0.899001	-0.399443
C39	C	1.216980	-0.813350	-0.401257
C40	C	1.134297	-0.698409	-0.378213
C41	C	1.134474	-1.014510	-0.378261
C42	C	1.339079	-0.356866	-0.378238
C43	C	1.426329	-0.356879	-0.378248
C44	C	1.134462	-0.163673	-0.378255
C45	C	1.134516	-0.081359	-0.378272
C46	C	1.134383	-0.356781	-0.582959
C47	C	1.134403	-0.356758	-0.670209
C48	C	1.184641	-0.309395	-0.711216
C49	C	1.184651	-0.309371	-0.793196
C50	C	1.134425	-0.356713	-0.834168
C51	C	1.084181	-0.404077	-0.793156
C52	C	1.084168	-0.404097	-0.711177
C53	C	1.084212	-0.404032	-0.964026
C54	C	1.084226	-0.404013	-1.046010
C55	C	1.184695	-0.309306	-1.046046
C56	C	1.184683	-0.309326	-0.964067
C57	C	1.134439	-0.356692	-0.923059
C58	C	1.134333	-0.356836	-0.174267
C59	C	1.134465	-0.356651	-0.087017
H60	H	0.433932	-0.270840	-0.287324
H61	H	1.012743	-0.920913	-0.425197
H62	H	1.087644	-0.792650	-0.500212
H63	H	1.087793	-0.919880	-0.500600
H64	H	1.225544	-0.270846	-0.677862
H65	H	1.237888	-0.920550	-0.458741
H66	H	0.835536	-0.442851	-0.469125
H67	H	0.582679	-0.442896	-0.469142
H68	H	0.686808	-0.442874	-0.469141
H69	H	1.012081	-0.793286	-0.424830
H70	H	1.233870	-0.792988	-0.462142
H71	H	1.154633	-0.793051	-0.248958
H72	H	1.043326	-0.442561	-1.079368
H73	H	0.433961	-0.442912	-0.469168
H74	H	1.050855	-0.919102	-0.277912
H75	H	0.835509	-0.270768	-0.287294
H76	H	0.686782	-0.270796	-0.287298
H77	H	1.262551	-0.919254	-0.355154
H78	H	0.582663	-0.270824	-0.287307
H79	H	1.153718	-0.919784	-0.249012
H80	H	1.225562	-0.270805	-0.826581
H81	H	1.051888	-0.792029	-0.277226
H82	H	1.043251	-0.442657	-0.677790
H83	H	1.264448	-0.791941	-0.360196
H84	H	1.225585	-0.270781	-0.930709
H85	H	1.225604	-0.270738	-1.079437
H86	H	1.043287	-0.442591	-0.930640
H87	H	1.043283	-0.442621	-0.826522
