data_functionalizedCrystal
_audit_creation_method	'MofGen! by Chris Wilmer'
_symmetry_space_group_name_H-M	'P1'
_symmetry_Int_Tables_number	1
_symmetry_cell_setting	triclinic
loop_
_symmetry_equiv_pos_as_xyz
  x,y,z
_cell_length_a	15.297327
_cell_length_b	19.077105
_cell_length_c	19.076919
_cell_angle_alpha	90.076224
_cell_angle_beta	78.489658
_cell_angle_gamma	82.181934
loop_
_atom_site_label
_atom_site_type_symbol
_atom_site_fract_x
_atom_site_fract_y
_atom_site_fract_z
Zn1	Zn	-0.436205	-0.997096	0.496821
Zn2	Zn	-0.581179	-0.981405	0.398060
Zn3	Zn	-0.424127	-0.886008	0.373052
Zn4	Zn	-0.580636	-0.859303	0.510742
O5	O	-0.505537	-0.930953	0.444669
O6	O	-0.460719	-1.092606	0.488360
O7	O	-0.555519	-0.973359	0.295787
O8	O	-0.299557	-0.918487	0.373179
O9	O	-0.567231	-1.081077	0.415800
O10	O	-0.308431	-1.000103	0.464111
O11	O	-0.440133	-0.903272	0.277414
O12	O	-0.439605	-0.784875	0.386678
O13	O	-0.566304	-0.872972	0.607851
O14	O	-0.554592	-0.765254	0.487838
O15	O	-0.460192	-0.974208	0.597623
O16	O	-0.707279	-0.947464	0.429299
O17	O	-0.706880	-0.857757	0.512086
C18	C	-0.495730	-0.749760	0.436055
C19	C	-0.491557	-0.672241	0.432390
C20	C	-0.739796	-0.898028	0.474933
C21	C	-0.840018	-0.884005	0.487907
C22	C	-0.514535	-0.922362	0.629112
C23	C	-0.518369	-0.918700	0.707711
C24	C	-1.123247	-1.031451	0.352197
C25	C	-1.029084	-1.044626	0.340004
C26	C	-0.981812	-1.004472	0.376979
C27	C	-1.028714	-0.951141	0.426149
C28	C	-1.122886	-0.937961	0.438339
C29	C	-0.981452	-0.910982	0.463121
C30	C	-1.028353	-0.857651	0.512291
C31	C	-1.122517	-0.844474	0.524480
C32	C	-1.169788	-0.884628	0.487505
C33	C	-0.887280	-0.924162	0.450930
C34	C	-0.886919	-0.830672	0.537073
C35	C	-0.981082	-0.817497	0.549266
C36	C	-0.270365	-0.964025	0.414303
C37	C	-0.170148	-0.978118	0.401362
C38	C	-0.515383	-1.112853	0.453317
C39	C	-0.519579	-1.190368	0.457002
C40	C	-0.549547	-0.625617	0.483277
C41	C	-0.545614	-0.552781	0.479834
C42	C	-0.483695	-0.526571	0.425502
C43	C	-0.425698	-0.573201	0.374613
C44	C	-0.429627	-0.646036	0.378058
C45	C	-0.465511	-0.309833	0.409558
C46	C	-0.461589	-0.236992	0.406115
C47	C	-0.581504	-0.216578	0.511338
C48	C	-0.585431	-0.289415	0.514776
C49	C	-0.527431	-0.336039	0.463889
N50	N	-0.479676	-0.452121	0.421981
N51	N	-0.531447	-0.410488	0.467414
C52	C	-0.496511	-0.939560	0.260936
C53	C	-0.492430	-0.943392	0.182311
C54	C	-0.464926	-0.969686	0.739314
C55	C	-0.468525	-0.966238	0.813165
C56	C	-0.525572	-0.911807	0.855413
C57	C	-0.579017	-0.860816	0.823806
C58	C	-0.575413	-0.864262	0.749955
C59	C	-0.542271	-0.895847	1.076853
C60	C	-0.545873	-0.892406	1.150709
C61	C	-0.435379	-0.997828	1.140063
C62	C	-0.431784	-1.001271	1.066212
C63	C	-0.485225	-0.950279	1.034610
N64	N	-0.529254	-0.908282	0.930901
N65	N	-0.481538	-0.953801	0.959123
H66	H	-0.905140	-1.015202	0.367047
O67	O	-0.645486	-0.314847	0.567646
C68	C	-0.628414	-0.296513	0.634781
H69	H	-0.555489	-0.286444	0.628192
H70	H	-0.640542	-0.341689	0.672987
H71	H	-0.675407	-0.246581	0.657451
H72	H	-0.592837	-0.514822	0.521271
H73	H	-0.391869	-1.039343	1.165801
H74	H	-0.382401	-0.683998	0.336624
H75	H	-0.418290	-0.347786	0.368118
H76	H	-0.628722	-0.178609	0.552768
H77	H	-0.418475	-1.014012	0.704920
H78	H	-0.425008	-1.007757	0.838892
H79	H	-0.990900	-1.088047	0.299969
O80	O	-0.376286	-1.054174	1.025273
C81	C	-0.329903	-1.098447	1.069005
H82	H	-0.327801	-1.067867	1.119885
H83	H	-0.258226	-1.116873	1.038848
H84	H	-0.366172	-1.146403	1.083644
H85	H	-0.375279	-0.551855	0.330377
O86	O	-0.401493	-0.211413	0.353378
C87	C	-0.410442	-0.137131	0.361268
H88	H	-0.480673	-0.116328	0.392838
H89	H	-0.400105	-0.112775	0.306197
H90	H	-0.357787	-0.122225	0.391147
O91	O	-0.601310	-0.839463	1.191642
C92	C	-0.647724	-0.795203	1.147917
H93	H	-0.608094	-0.800433	1.090391
H94	H	-0.655406	-0.737911	1.167886
H95	H	-0.717201	-0.811475	1.150118
H96	H	-1.161743	-1.064135	0.322093
O97	O	-0.594234	-0.846407	1.046102
C98	C	-0.652558	-0.879900	1.012807
H99	H	-0.623084	-0.937737	1.000138
H100	H	-0.660577	-0.852204	0.961090
H101	H	-0.721175	-0.876843	1.050265
O102	O	-0.634556	-0.807961	0.864785
C103	C	-0.724365	-0.811417	0.859079
H104	H	-0.725068	-0.840463	0.806975
H105	H	-0.761946	-0.755518	0.859377
H106	H	-0.758704	-0.841063	0.906270
H107	H	-0.618923	-0.822738	0.724225
O108	O	-1.026753	-0.765771	0.597077
C109	C	-1.085516	-0.795705	0.651717
H110	H	-1.101214	-0.847769	0.631151
H111	H	-1.150689	-0.757583	0.668394
H112	H	-1.052162	-0.805966	0.699789
O113	O	-0.841818	-0.975923	0.403086
C114	C	-0.860604	-0.960781	0.334856
H115	H	-0.927482	-0.924468	0.340951
H116	H	-0.864968	-1.012166	0.305993
H117	H	-0.804554	-0.933467	0.302451
H118	H	-1.246463	-0.873905	0.497431
H119	H	-0.848431	-0.797974	0.567180
O120	O	-1.168182	-0.792748	0.572293
C121	C	-1.226943	-0.822680	0.626934
H122	H	-1.242651	-0.874740	0.606368
H123	H	-1.292113	-0.784554	0.643616
H124	H	-1.193585	-0.832947	0.675003
O125	O	-0.609722	-0.650960	0.536122
C126	C	-0.660075	-0.594184	0.580287
H127	H	-0.620469	-0.547339	0.575554
H128	H	-0.673655	-0.611277	0.638243
H129	H	-0.726817	-0.578027	0.562779
