data_functionalizedCrystal
_audit_creation_method	'MofGen! by Chris Wilmer'
_symmetry_space_group_name_H-M	'P1'
_symmetry_Int_Tables_number	1
_symmetry_cell_setting	triclinic
loop_
_symmetry_equiv_pos_as_xyz
  x,y,z
_cell_length_a	12.594517
_cell_length_b	29.839131
_cell_length_c	29.839125
_cell_angle_alpha	89.982291
_cell_angle_beta	89.987435
_cell_angle_gamma	90.041220
loop_
_atom_site_label
_atom_site_type_symbol
_atom_site_fract_x
_atom_site_fract_y
_atom_site_fract_z
Zn1	Zn	1.626987	-0.178919	-0.254012
Zn2	Zn	1.626826	-0.254031	-0.178882
Zn3	Zn	1.449018	-0.178915	-0.178894
Zn4	Zn	1.448894	-0.254022	-0.253983
O5	O	1.537932	-0.216472	-0.216443
O6	O	1.775912	-0.188888	-0.244053
O7	O	1.603224	-0.244069	-0.116017
O8	O	1.472745	-0.116049	-0.188876
O9	O	1.775794	-0.244072	-0.188856
O10	O	1.603498	-0.116051	-0.244065
O11	O	1.472589	-0.188882	-0.116025
O12	O	1.300056	-0.188873	-0.188848
O13	O	1.472534	-0.244057	-0.316854
O14	O	1.299965	-0.244054	-0.244015
O15	O	1.603378	-0.188879	-0.316875
O16	O	1.603104	-0.316897	-0.188827
O17	O	1.472378	-0.316890	-0.244003
C18	C	1.261391	-0.216463	-0.216430
C19	C	1.143085	-0.216470	-0.216435
C20	C	1.073851	-0.186416	-0.186486
C21	C	1.003001	-0.227392	-0.175431
C22	C	1.003136	-0.175514	-0.227497
C23	C	1.073793	-0.257467	-0.205358
C24	C	1.073935	-0.205561	-0.257443
C25	C	1.003117	-0.246566	-0.246404
C26	C	1.537739	-0.333194	-0.216421
C27	C	1.537755	-0.383129	-0.216426
C28	C	1.606124	-0.692763	-0.187755
C29	C	1.606256	-0.880436	-0.187772
O30	O	1.664234	-0.904693	-0.163377
N31	N	1.538152	-0.903914	-0.216477
C32	C	1.470016	-0.880471	-0.245181
O33	O	1.412101	-0.904746	-0.269600
C34	C	1.469891	-0.692798	-0.245166
C35	C	1.537991	-0.669323	-0.216456
C36	C	1.674220	-0.669287	-0.159047
C37	C	1.674182	-0.622372	-0.159042
C38	C	1.606049	-0.598932	-0.187743
C39	C	1.537954	-0.622407	-0.216450
C40	C	1.401761	-0.669356	-0.273872
C41	C	1.401738	-0.622435	-0.273866
C42	C	1.469838	-0.598960	-0.245157
C43	C	1.469783	-0.552052	-0.245146
N44	N	1.537886	-0.528574	-0.216441
C45	C	1.606019	-0.552014	-0.187740
C46	C	1.470085	-0.979001	-0.245187
C47	C	1.470115	-1.025919	-0.245190
C48	C	1.606356	-1.025881	-0.187781
C49	C	1.606320	-0.978962	-0.187776
C50	C	1.538189	-0.955523	-0.216482
C51	C	1.605934	-0.453488	-0.187729
C52	C	1.605888	-0.406569	-0.187725
C53	C	1.469651	-0.406611	-0.245135
C54	C	1.469693	-0.453526	-0.245138
C55	C	1.537844	-0.476964	-0.216434
O56	O	1.411844	-0.527766	-0.269531
O57	O	1.663943	-0.527730	-0.163331
C58	C	1.606162	-0.739678	-0.187760
C59	C	1.538066	-0.763154	-0.216467
C60	C	1.469933	-0.739714	-0.245169
C61	C	1.538096	-0.810072	-0.216471
C62	C	1.606229	-0.833511	-0.187770
C63	C	1.674333	-0.810034	-0.159065
C64	C	1.674295	-0.763118	-0.159059
C65	C	1.401830	-0.763192	-0.273874
C66	C	1.401872	-0.810107	-0.273877
C67	C	1.470005	-0.833547	-0.245175
C68	C	1.815552	-0.216481	-0.216456
C69	C	1.933858	-0.216485	-0.216462
C70	C	1.537960	-0.216468	-0.333621
C71	C	1.537973	-0.216466	-0.383556
C72	C	1.538154	-0.099293	-0.216475
C73	C	1.538248	-0.049359	-0.216489
C74	C	1.606175	-0.187659	-0.693213
C75	C	1.606228	-0.187621	-0.880887
O76	O	1.664136	-0.163171	-0.905163
N77	N	1.538114	-0.216346	-0.904341
C78	C	1.469977	-0.245080	-0.880874
O79	O	1.412036	-0.269508	-0.905130
C80	C	1.469920	-0.245115	-0.693202
C81	C	1.538046	-0.216392	-0.669750
C82	C	1.674294	-0.158938	-0.669761
C83	C	1.674284	-0.158950	-0.622846
C84	C	1.606155	-0.187683	-0.599382
C85	C	1.538036	-0.216404	-0.622834
C86	C	1.401778	-0.273847	-0.669736
C87	C	1.401768	-0.273852	-0.622815
C88	C	1.469894	-0.245129	-0.599363
C89	C	1.469897	-0.245148	-0.552456
N90	N	1.538010	-0.216424	-0.529001
C91	C	1.606140	-0.187691	-0.552465
C92	C	1.470014	-0.245060	-0.979405
C93	C	1.470029	-0.245051	-1.026323
C94	C	1.606278	-0.187592	-1.026332
C95	C	1.606267	-0.187603	-0.979413
C96	C	1.538127	-0.216335	-0.955950
C97	C	1.606115	-0.187718	-0.453939
C98	C	1.606102	-0.187733	-0.407019
C99	C	1.469849	-0.245191	-0.407014
C100	C	1.469865	-0.245177	-0.453930
C101	C	1.538002	-0.216437	-0.477391
O102	O	1.412010	-0.269582	-0.528150
O103	O	1.664056	-0.163260	-0.528201
C104	C	1.606185	-0.187648	-0.740129
C105	C	1.538065	-0.216369	-0.763581
C106	C	1.469936	-0.245102	-0.740117
C107	C	1.538081	-0.216361	-0.810499
C108	C	1.606210	-0.187628	-0.833962
C109	C	1.674324	-0.158904	-0.810508
C110	C	1.674314	-0.158915	-0.763592
C111	C	1.401822	-0.273826	-0.763572
C112	C	1.401838	-0.273813	-0.810487
C113	C	1.469968	-0.245080	-0.833951
C114	C	1.537964	-0.216443	-0.099720
C115	C	1.538158	-0.216319	-0.049786
H116	H	1.661343	-0.387456	-0.164344
N117	N	1.396372	-0.276181	-0.381703
H118	H	1.406706	-0.271826	-0.348422
H119	H	1.320371	-0.269182	-0.389899
H120	H	1.346343	-0.297225	-0.744473
N121	N	0.962017	-0.129628	-0.239877
H122	H	1.023838	-0.108715	-0.245202
H123	H	0.917905	-0.131853	-0.268051
N124	N	1.747810	-0.835324	-0.128107
H125	H	1.797112	-0.854761	-0.146389
H126	H	1.790882	-0.813310	-0.109923
N127	N	1.115236	-0.193311	-0.303352
H128	H	1.160540	-0.165457	-0.301136
H129	H	1.159293	-0.218828	-0.315515
N130	N	1.747792	-0.127932	-0.738304
H131	H	1.704579	-0.107114	-0.718837
H132	H	1.797069	-0.146226	-0.718865
N133	N	1.679784	-0.953648	-0.156814
H134	H	1.729069	-0.934156	-0.175089
H135	H	1.636485	-0.934232	-0.135980
N136	N	0.961728	-0.239630	-0.129512
H137	H	0.986946	-0.216763	-0.106942
H138	H	0.881554	-0.240090	-0.130043
H139	H	1.661431	-0.472566	-0.164357
N140	N	1.747812	-0.127914	-0.835819
H141	H	1.737473	-0.132269	-0.869099
H142	H	1.731303	-0.095830	-0.827623
H143	H	1.661740	-0.164213	-0.960322
N144	N	1.747736	-0.127962	-0.597550
H145	H	1.797030	-0.146217	-0.578081
H146	H	1.790819	-0.109762	-0.619564
H147	H	1.346364	-0.297207	-0.829578
H148	H	1.346349	-0.744111	-0.297246
N149	N	1.396510	-0.276057	-0.954111
H150	H	1.439707	-0.296885	-0.934644
H151	H	1.347213	-0.257775	-0.934673
H152	H	1.729708	-0.688367	-0.135675
N153	N	1.679841	-1.051167	-0.156823
H154	H	1.669520	-1.084450	-0.161184
H155	H	1.755841	-1.042933	-0.163847
N156	N	1.396646	-1.051237	-0.276148
H157	H	1.353484	-1.029264	-0.294328
H158	H	1.439943	-1.070677	-0.296959
N159	N	1.679764	-0.156601	-1.051643
H160	H	1.669429	-0.160957	-1.084923
H161	H	1.663248	-0.124517	-1.043447
H162	H	1.729773	-0.135538	-0.688860
N163	N	1.328293	-0.304827	-0.695021
H164	H	1.279006	-0.286564	-0.714486
H165	H	1.371577	-0.325642	-0.714461
H166	H	1.729638	-0.603261	-0.135665
N167	N	1.396566	-0.276037	-1.051615
H168	H	1.353406	-0.294238	-1.029627
H169	H	1.347346	-0.257746	-1.071082
H170	H	1.414602	-0.959920	-0.268563
H171	H	1.346268	-0.297245	-0.603714
N172	N	1.328304	-0.694669	-0.304836
H173	H	1.285147	-0.672694	-0.323016
H174	H	1.371604	-0.714108	-0.325647
N175	N	1.328251	-0.597152	-0.304826
H176	H	1.344737	-0.605297	-0.336932
H177	H	1.252249	-0.605364	-0.297783
N178	N	1.115008	-0.152783	-0.152903
H179	H	1.053205	-0.137732	-0.137471
H180	H	1.160214	-0.168661	-0.129902
N181	N	1.114722	-0.303369	-0.192926
H182	H	1.194913	-0.303077	-0.192979
H183	H	1.088214	-0.311655	-0.162068
N184	N	1.396234	-0.478850	-0.276097
H185	H	1.353063	-0.456879	-0.294277
H186	H	1.439542	-0.498286	-0.296909
N187	N	1.396160	-0.381325	-0.276087
H188	H	1.406479	-0.348041	-0.271726
H189	H	1.412680	-0.389503	-0.308180
H190	H	1.661582	-0.164343	-0.387927
N191	N	0.962229	-0.280275	-0.279968
H192	H	0.988070	-0.311190	-0.271565
H193	H	0.882045	-0.279874	-0.279967
H194	H	1.414402	-0.268570	-0.473025
H195	H	1.729749	-0.744008	-0.135681
N196	N	1.328406	-0.835425	-0.304840
H197	H	1.285243	-0.813452	-0.323020
H198	H	1.371711	-0.854862	-0.325651
H199	H	1.661594	-0.164313	-0.473035
