data_functionalizedCrystal
_audit_creation_method	'MofGen! by Chris Wilmer'
_symmetry_space_group_name_H-M	'P1'
_symmetry_Int_Tables_number	1
_symmetry_cell_setting	triclinic
loop_
_symmetry_equiv_pos_as_xyz
  x,y,z
_cell_length_a	15.711784
_cell_length_b	15.625429
_cell_length_c	9.198806
_cell_angle_alpha	71.919667
_cell_angle_beta	89.995130
_cell_angle_gamma	101.028942
loop_
_atom_site_label
_atom_site_type_symbol
_atom_site_fract_x
_atom_site_fract_y
_atom_site_fract_z
O1	O	1.147524	0.494644	-0.381678
O2	O	0.895779	0.425971	-0.345470
O3	O	1.028377	0.331290	-0.295562
O4	O	1.014926	0.589325	-0.431586
O5	O	1.028367	0.331286	-0.053775
O6	O	0.895768	0.425967	-0.103683
O7	O	1.147514	0.494641	-0.139891
Cu8	Cu	1.021640	0.460303	-0.099710
Cu9	Cu	1.021652	0.460308	-0.385651
O10	O	1.014915	0.589322	-0.189799
C11	C	0.863556	0.414751	-0.218662
C12	C	0.767558	0.381313	-0.201033
C13	C	0.642460	0.255431	-0.134672
C14	C	0.732664	0.286860	-0.151242
C15	C	0.712255	0.444374	-0.234281
C16	C	0.622047	0.412958	-0.217726
C17	C	0.587158	0.318486	-0.167919
C18	C	0.566745	0.476013	-0.250973
C19	C	0.476546	0.444599	-0.234411
C20	C	0.441649	0.350131	-0.184602
C21	C	0.496959	0.287072	-0.151357
C22	C	0.601636	0.570485	-0.300769
C23	C	0.546334	0.633539	-0.334016
C24	C	0.456133	0.602126	-0.317465
C25	C	0.421236	0.507657	-0.267656
C26	C	0.400823	0.665184	-0.350710
C27	C	0.310624	0.633771	-0.334148
C28	C	0.331037	0.476244	-0.251094
C29	C	1.027763	0.297500	-0.156860
C30	C	1.025938	0.196819	-0.103794
C31	C	1.019940	-0.134308	-0.588201
C32	C	1.018221	-0.228914	-0.538293
C33	C	1.018210	-0.228904	-0.274713
C34	C	1.019933	-0.134296	-0.324600
C35	C	1.020797	-0.087005	-0.481346
C36	C	1.020790	-0.086993	-0.217745
C37	C	1.022509	0.007607	-0.267628
C38	C	1.023370	0.054904	-0.424367
C39	C	1.022515	0.007595	-0.531229
C40	C	1.019920	-0.134286	-0.061000
C41	C	1.020777	-0.086983	0.045856
C42	C	1.022502	0.007619	-0.004028
C43	C	1.023363	0.054916	-0.160766
C44	C	1.023356	0.054928	0.102835
C45	C	1.025074	0.149528	0.052951
C46	C	1.025081	0.149516	-0.210649
C47	C	1.179736	0.505861	-0.266702
C48	C	1.275734	0.539298	-0.284341
C49	C	1.015529	0.623112	-0.328504
C50	C	1.017354	0.723793	-0.381579
N51	N	1.021638	0.460302	0.101405
N52	N	1.021662	0.460305	-0.586763
C53	C	1.077314	0.420294	0.194691
C54	C	1.077327	0.420296	0.362102
H55	H	0.468550	0.210144	-0.110815
C56	C	0.584723	0.737456	-0.388803
N57	N	0.613637	0.815728	-0.430074
C58	C	1.019823	-0.139014	0.218272
N59	N	1.019107	-0.178203	0.348139
H60	H	1.124968	0.386037	0.150622
C61	C	0.342427	0.315575	-0.166386
N62	N	0.267692	0.289548	-0.152669
C63	C	0.604077	0.151507	-0.079897
N64	N	0.575167	0.073234	-0.038640
H65	H	0.973996	0.494563	0.333102
H66	H	0.429244	0.742104	-0.391248
C67	C	0.957250	0.506573	0.160942
N68	N	0.908752	0.541426	0.205782
H69	H	1.022644	0.016409	0.230458
C70	C	1.026022	0.201565	0.170497
N71	N	1.026734	0.240759	0.259036
H72	H	1.020651	-0.095800	-0.715840
C73	C	0.793495	0.217487	-0.114672
N74	N	0.839313	0.165236	-0.087129
C75	C	0.700859	0.605038	-0.318991
N76	N	0.775594	0.631063	-0.332719
C77	C	0.249788	0.703134	-0.370735
N78	N	0.203966	0.755380	-0.398293
C79	C	1.026036	0.201541	-0.383079
N80	N	1.026752	0.240727	-0.512947
H81	H	1.024760	0.131931	-0.464978
H82	H	0.302628	0.399315	-0.210552
H83	H	1.017516	-0.267426	-0.625319
C84	C	1.017257	-0.280935	-0.102297
N85	N	1.016540	-0.320124	0.027570
C86	C	1.023470	0.059620	-0.703659
N87	N	1.024186	0.098806	-0.833527
H88	H	0.740674	0.521294	-0.274829
C89	C	1.141725	0.374021	0.470368
N90	N	1.190229	0.339163	0.551919
H91	H	1.018512	-0.211317	-0.020389
