data_functionalizedCrystal
_audit_creation_method	'MofGen! by Chris Wilmer'
_symmetry_space_group_name_H-M	'P1'
_symmetry_Int_Tables_number	1
_symmetry_cell_setting	triclinic
loop_
_symmetry_equiv_pos_as_xyz
  x,y,z
_cell_length_a	13.032831
_cell_length_b	16.120484
_cell_length_c	16.120256
_cell_angle_alpha	95.616173
_cell_angle_beta	86.057501
_cell_angle_gamma	86.078521
loop_
_atom_site_label
_atom_site_type_symbol
_atom_site_fract_x
_atom_site_fract_y
_atom_site_fract_z
Zn1	Zn	1.523154	-0.519560	-0.651746
Zn2	Zn	1.523025	-0.652232	-0.519042
Zn3	Zn	1.359945	-0.495048	-0.494602
Zn4	Zn	1.341484	-0.639874	-0.639423
O5	O	1.436902	-0.576679	-0.576203
O6	O	1.667417	-0.552590	-0.649529
O7	O	1.509064	-0.626294	-0.399655
O8	O	1.389375	-0.382166	-0.510377
O9	O	1.667322	-0.650063	-0.552032
O10	O	1.509284	-0.400175	-0.625830
O11	O	1.389249	-0.510812	-0.381699
O12	O	1.213216	-0.498829	-0.498427
O13	O	1.357911	-0.629001	-0.757203
O14	O	1.199653	-0.605232	-0.604826
O15	O	1.491384	-0.540607	-0.766257
O16	O	1.491163	-0.766727	-0.540082
O17	O	1.357786	-0.757647	-0.628525
C18	C	1.169025	-0.548030	-0.547638
C19	C	1.054423	-0.535795	-0.535438
C20	C	0.996646	-0.583064	-0.582571
C21	C	0.878199	-0.570420	-0.569962
C22	C	1.422484	-0.792303	-0.585639
C23	C	1.416408	-0.884559	-0.589714
C24	C	1.405320	-1.053474	-0.597171
C25	C	1.468667	-1.099062	-0.555269
C26	C	1.462498	-1.193053	-0.559418
C27	C	1.411488	-0.959476	-0.593023
C28	C	1.705825	-0.605439	-0.604881
C29	C	1.820424	-0.617695	-0.617102
C30	C	1.422603	-0.586160	-0.792687
C31	C	1.416509	-0.590200	-0.884939
C32	C	1.451403	-0.360216	-0.566752
C33	C	1.457583	-0.267973	-0.562724
C34	C	1.468678	-0.555587	-1.099424
C35	C	1.405352	-0.597538	-1.053835
C36	C	1.411562	-0.593454	-0.959853
C37	C	1.462470	-0.559671	-1.193415
C38	C	1.451209	-0.567181	-0.360566
C39	C	1.457518	-0.562928	-0.268325
H40	H	0.839978	-0.520583	-0.520276
F41	F	1.545622	-0.504628	-1.058182
H42	H	0.858644	-0.667524	-0.666797
H43	H	1.346467	-0.636516	-1.085388
H44	H	1.527533	-1.067502	-0.516280
F45	F	1.046604	-0.648199	-0.647514
H46	H	1.016198	-0.485962	-0.485754
H47	H	1.346458	-1.085032	-0.636156
