data_functionalizedCrystal
_audit_creation_method	'MofGen! by Chris Wilmer'
_symmetry_space_group_name_H-M	'P1'
_symmetry_Int_Tables_number	1
_symmetry_cell_setting	triclinic
loop_
_symmetry_equiv_pos_as_xyz
  x,y,z
_cell_length_a	19.805407
_cell_length_b	19.076808
_cell_length_c	19.805398
_cell_angle_alpha	87.674457
_cell_angle_beta	89.985905
_cell_angle_gamma	92.320774
loop_
_atom_site_label
_atom_site_type_symbol
_atom_site_fract_x
_atom_site_fract_y
_atom_site_fract_z
Zn1	Zn	1.023887	-0.280294	-0.371852
Zn2	Zn	1.019264	-0.397995	-0.254113
Zn3	Zn	0.910709	-0.280304	-0.258679
Zn4	Zn	0.906122	-0.397956	-0.367265
O5	O	0.964995	-0.339137	-0.312977
O6	O	1.117990	-0.295919	-0.356242
O7	O	1.004849	-0.382404	-0.160002
O8	O	0.929576	-0.181807	-0.277522
O9	O	1.114594	-0.382394	-0.269740
O10	O	1.012728	-0.181799	-0.360670
O11	O	0.925094	-0.295937	-0.163356
O12	O	0.815384	-0.295899	-0.273075
O13	O	0.921759	-0.382327	-0.462591
O14	O	0.812014	-0.382337	-0.352852
O15	O	1.008280	-0.295881	-0.465961
O16	O	1.000401	-0.496486	-0.265293
O17	O	0.917276	-0.496457	-0.348425
C18	C	0.789140	-0.339115	-0.312962
C19	C	0.713908	-0.339123	-0.312971
C20	C	0.680330	-0.294175	-0.358075
C21	C	0.609641	-0.294179	-0.358077
C22	C	0.572532	-0.339134	-0.312978
C23	C	0.606115	-0.384084	-0.267869
C24	C	0.676802	-0.384076	-0.267864
C25	C	0.321040	-0.384116	-0.267889
C26	C	0.250348	-0.384122	-0.267899
C27	C	0.253879	-0.294218	-0.358102
C28	C	0.324567	-0.294210	-0.358097
C29	C	0.358144	-0.339157	-0.312986
C30	C	0.434792	-0.339152	-0.312983
C31	C	0.495884	-0.339144	-0.312984
C32	C	0.957857	-0.522011	-0.305880
C33	C	0.954866	-0.600245	-0.302867
C34	C	0.996720	-0.636935	-0.344776
C35	C	0.993907	-0.710444	-0.341946
C36	C	0.949241	-0.747262	-0.297202
C37	C	0.907382	-0.710566	-0.255291
C38	C	0.910193	-0.637059	-0.258125
C39	C	0.936193	-0.967113	-0.284083
C40	C	0.933386	-1.040626	-0.281250
C41	C	1.019911	-1.040498	-0.367906
C42	C	1.022720	-0.966989	-0.370734
C43	C	0.980859	-0.930300	-0.328825
N44	N	0.946365	-0.822400	-0.294306
N45	N	0.983731	-0.855164	-0.331725
C46	C	1.141537	-0.339160	-0.312993
C47	C	1.216769	-0.339170	-0.313000
C48	C	0.965023	-0.339098	-0.489522
C49	C	0.965035	-0.339082	-0.564754
C50	C	0.972180	-0.155550	-0.320117
C51	C	0.975241	-0.077316	-0.323160
C52	C	1.010174	-0.293945	-1.028306
C53	C	1.010162	-0.293966	-0.957617
C54	C	0.965109	-0.338984	-0.920520
C55	C	0.920068	-0.383988	-0.954116
C56	C	0.920083	-0.383969	-1.024804
C57	C	0.920006	-0.384064	-0.669040
C58	C	0.919993	-0.384078	-0.598347
C59	C	1.010085	-0.294061	-0.601853
C60	C	1.010100	-0.294043	-0.672540
C61	C	0.965063	-0.339049	-0.706130
C62	C	0.965077	-0.339026	-0.782779
C63	C	0.965091	-0.339004	-0.843872
C64	C	0.965008	-0.339125	-0.137122
C65	C	0.965135	-0.338944	-0.061897
H66	H	0.704141	-0.420677	-0.231135
H67	H	1.046785	-0.257382	-0.702741
H68	H	0.226533	-0.257618	-0.394832
H69	H	0.582305	-0.257579	-0.394807
Br70	Br	1.071206	-0.232976	-0.556263
Br71	Br	0.879371	-0.917331	-0.227215
Br72	Br	0.846755	-0.760533	-0.194575
Br73	Br	1.071291	-0.232896	-0.912031
Br74	Br	0.858926	-0.445087	-0.903771
H75	H	0.883409	-0.420613	-1.052153
H76	H	0.710539	-0.257569	-0.394802
H77	H	0.883301	-0.420736	-0.568144
H78	H	1.033095	-0.606962	-0.381208
H79	H	1.046858	-0.257282	-1.058506
Br80	Br	0.374926	-0.233202	-0.419309
Br81	Br	0.199985	-0.445137	-0.206688
Br82	Br	1.076718	-1.090293	-0.424781
H83	H	0.348370	-0.420715	-0.231157
H84	H	0.575895	-0.420684	-0.231145
Br85	Br	1.050701	-0.760235	-0.398838
Br86	Br	0.858888	-0.445149	-0.714616
Br87	Br	1.083341	-0.917027	-0.431459
Br88	Br	0.872769	-1.090593	-0.220518
Br89	Br	0.853385	-0.587264	-0.201248
