data_functionalizedCrystal
_audit_creation_method	'MofGen! by Chris Wilmer'
_symmetry_space_group_name_H-M	'P1'
_symmetry_Int_Tables_number	1
_symmetry_cell_setting	triclinic
loop_
_symmetry_equiv_pos_as_xyz
  x,y,z
_cell_length_a	13.330367
_cell_length_b	12.837943
_cell_length_c	12.811435
_cell_angle_alpha	89.412412
_cell_angle_beta	95.425360
_cell_angle_gamma	90.006892
loop_
_atom_site_label
_atom_site_type_symbol
_atom_site_fract_x
_atom_site_fract_y
_atom_site_fract_z
O1	O	0.108237	1.376641	0.272958
O2	O	0.107015	1.074777	0.259473
O3	O	0.093792	1.233301	0.114185
O4	O	0.121460	1.218118	0.418246
O5	O	-0.073053	1.233277	0.114209
O6	O	-0.059830	1.074753	0.259497
O7	O	-0.058608	1.376617	0.272981
Cu8	Cu	-0.074453	1.225683	0.266241
Cu9	Cu	0.122860	1.225712	0.266214
O10	O	-0.045385	1.218094	0.418269
C11	C	0.023179	1.036125	0.254930
C12	C	0.021945	0.920989	0.241344
C13	C	0.006805	1.232437	0.075008
C14	C	-0.003814	1.229886	-0.041763
N15	N	-0.213233	1.225670	0.266261
C16	C	-0.679482	1.288896	0.336209
C17	C	-0.692211	1.162559	0.196179
C18	C	-0.587191	1.162544	0.196194
C19	C	-0.528312	1.225707	0.266216
C20	C	-0.574452	1.288885	0.336224
C21	C	-0.541043	1.099374	0.126180
C22	C	-0.436017	1.099358	0.126191
C23	C	-0.377136	1.162516	0.196220
C24	C	-0.423282	1.225696	0.266231
C25	C	-0.364403	1.288859	0.336254
C26	C	-0.410547	1.352034	0.406271
C27	C	-0.515571	1.352043	0.406253
C28	C	-0.272112	1.162507	0.196238
C29	C	-0.259374	1.288848	0.336269
N30	N	0.261639	1.225733	0.266187
C31	C	0.025230	1.415270	0.277525
C32	C	0.026471	1.530406	0.291111
C33	C	0.011598	1.770656	0.127783
C34	C	0.012763	1.878838	0.140544
C35	C	0.029959	1.854951	0.329391
C36	C	0.028794	1.746770	0.316630
C37	C	0.019615	1.704627	0.215824
C38	C	0.018457	1.596444	0.203064
C39	C	0.035645	1.572559	0.391910
C40	C	0.036810	1.680740	0.404670
C41	C	0.041604	1.218958	0.457446
C42	C	0.052229	1.221508	0.574217
C43	C	0.158142	1.225114	0.738791
C44	C	0.148166	1.222719	0.629075
C45	C	-0.033739	1.222691	0.629085
C46	C	-0.023763	1.225087	0.738802
C47	C	0.072180	1.226300	0.793651
C48	C	0.082154	1.228703	0.903370
C49	C	-0.099750	1.228669	0.903378
C50	C	-0.109725	1.226273	0.793662
H51	H	-0.362595	1.403466	0.463279
H52	H	0.037423	1.889283	0.411463
H53	H	0.006235	1.932596	0.068852
O54	O	-0.137210	1.221370	0.569911
H55	H	-0.195315	1.222587	0.626489
H56	H	0.160276	1.229694	0.948026
O57	O	-0.222316	1.094437	0.120697
H58	H	-0.170392	1.038914	0.165402
O59	O	0.046713	1.726195	0.513395
H60	H	0.046183	1.812514	0.507479
H61	H	-0.717057	1.340328	0.393218
H62	H	-0.187839	1.225281	0.748988
O63	O	0.044286	1.501343	0.486879
H64	H	0.041929	1.419037	0.461074
H65	H	0.236262	1.226111	0.783450
H66	H	0.218165	1.221749	0.584412
O67	O	-0.192479	1.229952	0.962541
H68	H	-0.192088	1.160443	1.014819
H69	H	0.010986	1.562133	0.120982
H70	H	-0.553151	1.403479	0.463255
O71	O	-0.195867	1.356969	0.411799
H72	H	-0.217319	1.439760	0.397289
O73	O	-0.755708	1.094433	0.120657
H74	H	-0.836489	1.105050	0.132412
H75	H	-0.398456	1.047916	0.069179
H76	H	-0.588991	1.047959	0.069163
H77	H	0.004134	1.736343	0.045703
