data_functionalizedCrystal
_audit_creation_method	'MofGen! by Chris Wilmer'
_symmetry_space_group_name_H-M	'P1'
_symmetry_Int_Tables_number	1
_symmetry_cell_setting	triclinic
loop_
_symmetry_equiv_pos_as_xyz
  x,y,z
_cell_length_a	18.215407
_cell_length_b	12.827892
_cell_length_c	18.215407
_cell_angle_alpha	90.008103
_cell_angle_beta	90.010236
_cell_angle_gamma	90.015840
loop_
_atom_site_label
_atom_site_type_symbol
_atom_site_fract_x
_atom_site_fract_y
_atom_site_fract_z
Zn1	Zn	1.125051	-0.416194	0.416137
Zn2	Zn	1.458384	-0.082860	0.749470
Zn3	Zn	1.791717	0.250473	1.082803
Zn4	Zn	1.125000	-0.590905	0.293079
Zn5	Zn	1.458334	-0.257571	0.626413
Zn6	Zn	1.791667	0.075762	0.959746
Zn7	Zn	1.002004	-0.416180	0.293084
Zn8	Zn	1.335337	-0.082846	0.626417
Zn9	Zn	1.668671	0.250487	0.959751
Zn10	Zn	1.001970	-0.590895	0.416104
Zn11	Zn	1.335303	-0.257561	0.749437
Zn12	Zn	1.668636	0.075772	1.082771
O13	O	1.063506	-0.503543	0.354601
O14	O	1.396839	-0.170210	0.687934
O15	O	1.730173	0.163123	1.021268
O16	O	1.228028	-0.439379	0.399824
O17	O	1.561362	-0.106046	0.733158
O18	O	1.894695	0.227287	1.066491
O19	O	1.108678	-0.567726	0.190096
O20	O	1.442011	-0.234392	0.523429
O21	O	1.775344	0.098941	0.856762
O22	O	1.018362	-0.269946	0.309423
O23	O	1.351695	0.063388	0.642756
O24	O	1.685029	0.396721	0.976090
O25	O	1.227991	-0.567739	0.309415
O26	O	1.561324	-0.234406	0.642748
O27	O	1.894658	0.098928	0.976081
O28	O	1.108764	-0.269956	0.399829
O29	O	1.442097	0.063378	0.733162
O30	O	1.775431	0.396711	1.066496
O31	O	1.018313	-0.439356	0.190099
O32	O	1.351646	-0.106023	0.523433
O33	O	1.684980	0.227311	0.856766
O34	O	0.899015	-0.439346	0.309391
O35	O	1.232348	-0.106013	0.642725
O36	O	1.565682	0.227321	0.976058
O37	O	1.018303	-0.567722	0.519093
O38	O	1.351637	-0.234388	0.852426
O39	O	1.684970	0.098945	1.185759
O40	O	0.898990	-0.567708	0.399774
O41	O	1.232323	-0.234375	0.733107
O42	O	1.565657	0.098958	1.066440
O43	O	1.108731	-0.439370	0.519117
O44	O	1.442064	-0.106036	0.852450
O45	O	1.775397	0.227297	1.185783
O46	O	1.108644	-0.737139	0.309383
O47	O	1.441978	-0.403806	0.642716
O48	O	1.775311	-0.070473	0.976050
O49	O	1.018254	-0.737132	0.399769
O50	O	1.351588	-0.403799	0.733102
O51	O	1.684921	-0.070465	1.066436
C52	C	0.872300	-0.503525	0.354580
C53	C	1.205633	-0.170192	0.687913
C54	C	1.538967	0.163141	1.021247
C55	C	0.790501	-0.503543	0.354588
C56	C	1.123834	-0.170209	0.687922
C57	C	1.457168	0.163124	1.021255
C58	C	1.063460	-0.775053	0.354588
C59	C	1.396793	-0.441720	0.687921
C60	C	1.730127	-0.108386	1.021255
C61	C	1.063508	-0.891206	0.354607
C62	C	1.396841	-0.557873	0.687940
C63	C	1.730174	-0.224540	1.021274
C64	C	0.602313	-0.570486	0.401591
C65	C	0.935647	-0.237153	0.734925
C66	C	1.268980	0.096181	1.068258
C67	C	0.525454	-0.570489	0.401601
C68	C	0.858788	-0.237156	0.734934
C69	C	1.192121	0.096177	1.068267
C70	C	0.525451	-0.436619	0.307627
C71	C	0.858784	-0.103286	0.640960
C72	C	1.192118	0.230047	0.974293
C73	C	0.602308	-0.436611	0.307622
C74	C	0.935642	-0.103278	0.640955
C75	C	1.268975	0.230055	0.974289
C76	C	0.640737	-0.503551	0.354603
C77	C	0.974071	-0.170217	0.687936
C78	C	1.307404	0.163116	1.021270
C79	C	0.487021	-0.503562	0.354617
C80	C	0.820355	-0.170229	0.687951
C81	C	1.153688	0.163105	1.021284
C82	C	0.403688	-0.503565	0.354627
C83	C	0.737021	-0.170232	0.687960
C84	C	1.070354	0.163102	1.021293
C85	C	0.724076	-0.503547	0.354595
C86	C	1.057410	-0.170213	0.687928
C87	C	1.390743	0.163120	1.021261
C88	C	1.108289	-0.942960	0.309931
C89	C	1.441622	-0.609627	0.643264
C90	C	1.774955	-0.276293	0.976598
C91	C	1.108339	-1.063010	0.309950
C92	C	1.441672	-0.729677	0.643283
C93	C	1.775006	-0.396344	0.976616
C94	C	1.255459	-0.503562	0.354623
C95	C	1.588792	-0.170229	0.687956
C96	C	1.922126	0.163105	1.021289
C97	C	1.337258	-0.503570	0.354632
C98	C	1.670591	-0.170237	0.687965
C99	C	2.003925	0.163097	1.021299
C100	C	1.063519	-0.503546	0.546554
C101	C	1.396852	-0.170213	0.879887
C102	C	1.730185	0.163121	1.213221
C103	C	1.063524	-0.503547	0.628353
C104	C	1.396858	-0.170214	0.961686
C105	C	1.730191	0.163119	1.295019
C106	C	1.063572	-0.230973	0.354630
C107	C	1.396906	0.102360	0.687964
C108	C	1.730239	0.435694	1.021297
C109	C	1.063601	-0.114820	0.354643
C110	C	1.396934	0.218513	0.687976
C111	C	1.730267	0.551847	1.021309
C112	C	1.110595	-0.436725	0.816560
C113	C	1.443928	-0.103392	1.149894
C114	C	1.777262	0.229942	1.483227
C115	C	1.110591	-0.436725	0.893419
C116	C	1.443924	-0.103391	1.226752
C117	C	1.777258	0.229942	1.560086
C118	C	1.016429	-0.570384	0.893383
C119	C	1.349763	-0.237051	1.226716
C120	C	1.683096	0.096282	1.560050
C121	C	1.016430	-0.570379	0.816526
C122	C	1.349764	-0.237046	1.149859
C123	C	1.683097	0.096288	1.483192
C124	C	1.063517	-0.503551	0.778116
C125	C	1.396851	-0.170217	1.111450
C126	C	1.730184	0.163116	1.444783
C127	C	1.063512	-0.503556	0.931832
C128	C	1.396846	-0.170223	1.265166
C129	C	1.730179	0.163111	1.598499
C130	C	1.063508	-0.503556	1.015166
C131	C	1.396841	-0.170223	1.348499
C132	C	1.730174	0.163111	1.681833
C133	C	1.063521	-0.503549	0.694777
C134	C	1.396855	-0.170216	1.028111
C135	C	1.730188	0.163118	1.361444
C136	C	1.063494	-0.503563	1.163395
C137	C	1.396827	-0.170230	1.496728
C138	C	1.730160	0.163104	1.830061
C139	C	1.063505	-0.503559	1.081596
C140	C	1.396839	-0.170226	1.414929
C141	C	1.730172	0.163107	1.748263
H142	H	0.494173	-0.624993	0.439864
H143	H	0.827506	-0.291660	0.773198
H144	H	1.160839	0.041673	1.106531
O145	O	1.159123	-1.121960	0.259280
O146	O	1.492456	-0.788627	0.592614
O147	O	1.825790	-0.455293	0.925947
H148	H	1.191883	-1.065740	0.226535
H149	H	1.525216	-0.732407	0.559869
H150	H	1.858549	-0.399073	0.893202
H151	H	0.978089	-0.624795	0.785224
H152	H	1.311422	-0.291462	1.118557
H153	H	1.644756	0.041871	1.451890
H154	H	0.978095	-0.624796	0.924665
H155	H	1.311428	-0.291462	1.257998
H156	H	1.644761	0.041871	1.591332
O157	O	1.161364	-0.364651	0.934891
O158	O	1.494698	-0.031317	1.268225
O159	O	1.828031	0.302016	1.601558
H160	H	1.219121	-0.382582	0.920160
H161	H	1.552454	-0.049248	1.253493
H162	H	1.885788	0.284085	1.586826
H163	H	0.633600	-0.624990	0.439848
H164	H	0.966933	-0.291656	0.773182
H165	H	1.300267	0.041677	1.106515
H166	H	1.025257	-1.070320	0.392891
H167	H	1.358590	-0.736987	0.726224
H168	H	1.691924	-0.403654	1.059558
O169	O	0.643754	-0.364409	0.256938
O170	O	0.977088	-0.031075	0.590272
O171	O	1.310421	0.302258	0.923605
H172	H	0.703654	-0.375641	0.264836
H173	H	1.036987	-0.042308	0.598169
H174	H	1.370321	0.291025	0.931503
O175	O	1.012769	-0.950239	0.405289
O176	O	1.346103	-0.616905	0.738622
O177	O	1.679436	-0.283572	1.071955
H178	H	1.025327	-0.929315	0.463071
H179	H	1.358660	-0.595981	0.796404
H180	H	1.691993	-0.262648	1.129738
O181	O	0.484004	-0.364456	0.256931
O182	O	0.817337	-0.031123	0.590264
O183	O	1.150671	0.302211	0.923598
H184	H	0.424104	-0.375723	0.264815
H185	H	0.757438	-0.042389	0.598148
H186	H	1.090771	0.290944	0.931482
O187	O	1.159039	-0.883928	0.259261
O188	O	1.492372	-0.550595	0.592594
O189	O	1.825706	-0.217262	0.925928
H190	H	1.126087	-0.834253	0.221807
H191	H	1.459420	-0.500920	0.555140
H192	H	1.792754	-0.167586	0.888474
O193	O	1.161373	-0.364643	0.775129
O194	O	1.494706	-0.031309	1.108463
O195	O	1.828040	0.302024	1.441796
H196	H	1.194103	-0.318168	0.814778
H197	H	1.527436	0.015165	1.148111
H198	H	1.860770	0.348499	1.481444
