data_functionalizedCrystal
_audit_creation_method	'MofGen! by Chris Wilmer'
_symmetry_space_group_name_H-M	'P1'
_symmetry_Int_Tables_number	1
_symmetry_cell_setting	triclinic
loop_
_symmetry_equiv_pos_as_xyz
  x,y,z
_cell_length_a	10.686220
_cell_length_b	10.685594
_cell_length_c	18.215399
_cell_angle_alpha	94.349131
_cell_angle_beta	94.351112
_cell_angle_gamma	98.404471
loop_
_atom_site_label
_atom_site_type_symbol
_atom_site_fract_x
_atom_site_fract_y
_atom_site_fract_z
Zn1	Zn	1.901801	-0.356281	-0.347072
Zn2	Zn	1.885416	-0.568562	-0.234239
Zn3	Zn	1.689542	-0.372626	-0.234237
Zn4	Zn	1.673264	-0.584787	-0.367470
O5	O	1.787506	-0.470564	-0.295754
O6	O	2.077245	-0.370809	-0.323568
O7	O	1.859388	-0.542621	-0.131258
O8	O	1.731367	-0.192827	-0.240667
O9	O	2.065208	-0.526771	-0.240670
O10	O	1.887314	-0.180818	-0.323566
O11	O	1.715480	-0.398667	-0.131257
O12	O	1.509765	-0.414400	-0.260446
O13	O	1.703625	-0.554425	-0.467745
O14	O	1.497806	-0.570274	-0.358333
O15	O	1.871530	-0.386542	-0.452758
O16	O	1.843605	-0.748345	-0.260450
O17	O	1.687738	-0.760266	-0.358335
C18	C	1.762162	-0.800360	-0.311620
C19	C	1.751435	-0.941440	-0.318427
C20	C	1.457731	-0.495873	-0.311603
C21	C	1.316649	-0.506730	-0.318402
C22	C	2.118569	-0.445157	-0.279844
C23	C	2.259648	-0.434330	-0.273064
C24	C	1.787590	-0.470470	-0.487699
C25	C	1.787626	-0.470431	-0.569495
C26	C	1.812984	-0.139477	-0.279841
C27	C	1.823841	0.001612	-0.273060
C28	C	1.875089	-0.382936	-0.749882
C29	C	1.875107	-0.382898	-0.826738
C30	C	1.700267	-0.557722	-0.842333
C31	C	1.700245	-0.557753	-0.765478
C32	C	1.787662	-0.470362	-0.719254
C33	C	1.787703	-0.470292	-0.872965
C34	C	1.787722	-0.470252	-0.956296
C35	C	1.787642	-0.470400	-0.635917
C36	C	1.787502	-0.470560	-0.104548
C37	C	1.787740	-0.470223	-0.022724
H38	H	1.894043	-0.939214	-0.229014
F39	F	1.968166	-0.289855	-0.859330
F40	F	1.607183	-0.650803	-0.732880
H41	H	1.681239	-1.000620	-0.362480
H42	H	1.318778	-0.364040	-0.229046
H43	H	1.257512	-0.577033	-0.362419
H44	H	1.946267	-0.311773	-0.712248
F45	F	1.607241	-0.650730	-0.891533
