data_functionalizedCrystal
_audit_creation_method	'MofGen! by Chris Wilmer'
_symmetry_space_group_name_H-M	'P1'
_symmetry_Int_Tables_number	1
_symmetry_cell_setting	triclinic
loop_
_symmetry_equiv_pos_as_xyz
  x,y,z
_cell_length_a	14.971482
_cell_length_b	17.699092
_cell_length_c	16.176319
_cell_angle_alpha	89.994879
_cell_angle_beta	89.993143
_cell_angle_gamma	83.449488
loop_
_atom_site_label
_atom_site_type_symbol
_atom_site_fract_x
_atom_site_fract_y
_atom_site_fract_z
O1	O	1.186615	0.098620	-0.068733
O2	O	0.926174	0.110434	-0.068736
O3	O	1.063749	-0.005644	-0.068732
O4	O	1.049040	0.214698	-0.068736
O5	O	1.063730	-0.005651	0.068761
O6	O	0.926155	0.110427	0.068757
O7	O	1.186596	0.098612	0.068761
Cu8	Cu	1.056374	0.104519	0.081313
Cu9	Cu	1.056396	0.104528	-0.081289
O10	O	1.049021	0.214690	0.068757
C11	C	0.892842	0.109903	0.000010
C12	C	0.793550	0.108321	0.000008
C13	C	0.746897	0.107572	0.074957
C14	C	0.653604	0.106073	0.074958
C15	C	0.606964	0.105329	0.000009
C16	C	0.653623	0.106076	-0.074945
C17	C	0.746916	0.107569	-0.074945
C18	C	0.459172	0.102966	-0.074940
C19	C	0.365873	0.101475	-0.074940
C20	C	0.365860	0.101470	0.074963
C21	C	0.459153	0.102963	0.074963
C22	C	0.505805	0.103712	0.000009
C23	C	1.063211	-0.033846	0.000013
C24	C	1.061626	-0.117867	0.000009
C25	C	1.060894	-0.157333	-0.074939
C26	C	1.059399	-0.236279	-0.074940
C27	C	1.058643	-0.275760	0.000008
C28	C	1.059372	-0.236289	0.074962
C29	C	1.060861	-0.157343	0.074962
C30	C	1.053368	-0.554669	0.074963
C31	C	1.051882	-0.633620	0.074957
C32	C	1.051906	-0.633605	-0.074940
C33	C	1.053395	-0.554659	-0.074939
C34	C	1.054120	-0.515194	0.000014
C35	C	1.055739	-0.429591	0.000015
C36	C	1.057030	-0.361362	0.000009
C37	C	1.219928	0.099144	0.000013
C38	C	1.319220	0.100726	0.000009
C39	C	1.049559	0.242892	0.000010
C40	C	1.051144	0.326914	0.000008
N41	N	1.056365	0.104512	0.195678
N42	N	1.056412	0.104528	-0.195654
C43	C	1.117301	0.053134	0.238944
C44	C	1.117305	0.053133	0.325491
C45	C	1.056377	0.104515	0.368771
C46	C	0.995434	0.155895	0.325499
C47	C	0.995426	0.155892	0.238953
C48	C	0.995465	0.155910	0.674527
C49	C	0.995480	0.155911	0.761079
C50	C	1.117344	0.053151	0.761065
C51	C	1.117336	0.053147	0.674519
C52	C	1.056390	0.104525	0.631255
C53	C	1.056385	0.104524	0.537411
C54	C	1.056386	0.104520	0.462613
H55	H	0.615626	0.105451	0.135988
C56	C	0.928445	0.212432	0.808685
N57	N	0.877956	0.255002	0.844541
C58	C	0.928404	0.212409	0.373110
N59	N	0.877915	0.254976	0.408969
H60	H	0.784899	0.108181	-0.135976
C61	C	1.058676	-0.279696	-0.157390
N62	N	1.058160	-0.312401	-0.219494
H63	H	1.166919	0.011296	0.203711
C64	C	1.061725	-0.113911	-0.157390
N65	N	1.062348	-0.081208	-0.219495
C66	C	1.061669	-0.113932	0.157411
N67	N	1.062275	-0.081236	0.219515
C68	C	0.510455	0.103783	0.157410
N69	N	0.549096	0.104397	0.219511
H70	H	0.945805	0.197728	0.203727
C71	C	1.054226	-0.511235	-0.157388
N72	N	1.054848	-0.478528	-0.219491
C73	C	0.314541	0.100642	0.157414
N74	N	0.275884	0.100020	0.219514
C75	C	1.184319	-0.003405	0.373080
N76	N	1.234788	-0.046000	0.408923
H77	H	1.053976	-0.522548	0.135995
C78	C	0.314571	0.100653	-0.157387
N79	N	0.275930	0.100034	-0.219487
C80	C	1.058534	-0.279720	0.157406
N81	N	1.057904	-0.312431	0.219505
C82	C	1.051098	-0.677022	-0.157391
N83	N	1.050490	-0.709722	-0.219492
C84	C	0.510487	0.103793	-0.157394
N85	N	0.549136	0.104422	-0.219497
C86	C	1.184360	-0.003378	0.626917
N87	N	1.234840	-0.045957	0.591063
H88	H	0.615642	0.105465	-0.135969
H89	H	1.166967	0.011314	0.796300
C90	C	0.928539	0.212525	0.626948
N91	N	0.878168	0.255206	0.591108
H92	H	0.784864	0.108184	0.135989
C93	C	1.051042	-0.677047	0.157410
N94	N	1.050407	-0.709755	0.219511
