data_functionalizedCrystal
_audit_creation_method	'MofGen! by Chris Wilmer'
_symmetry_space_group_name_H-M	'P1'
_symmetry_Int_Tables_number	1
_symmetry_cell_setting	triclinic
loop_
_symmetry_equiv_pos_as_xyz
  x,y,z
_cell_length_a	15.538191
_cell_length_b	15.995350
_cell_length_c	14.185569
_cell_angle_alpha	76.847063
_cell_angle_beta	97.875798
_cell_angle_gamma	65.382234
loop_
_atom_site_label
_atom_site_type_symbol
_atom_site_fract_x
_atom_site_fract_y
_atom_site_fract_z
O1	O	1.228538	-0.246460	-0.083440
O2	O	0.954280	-0.149782	-0.083436
O3	O	1.098906	-0.322287	-0.083437
O4	O	1.083912	-0.073955	-0.083439
O5	O	1.141630	-0.373243	0.083397
O6	O	0.997004	-0.200737	0.083399
O7	O	1.271262	-0.297416	0.083394
Cu8	Cu	1.138034	-0.253729	0.098629
Cu9	Cu	1.087508	-0.193468	-0.098671
O10	O	1.126635	-0.124910	0.083395
C11	C	0.940547	-0.165144	-0.000018
C12	C	0.835973	-0.135015	-0.000016
C13	C	0.548179	-0.434345	-0.000030
C14	C	0.449913	-0.406012	-0.000031
C15	C	0.427470	-0.246646	-0.000032
C16	C	0.525737	-0.274967	-0.000026
C17	C	0.586085	-0.368817	-0.000026
C18	C	0.563643	-0.209439	-0.000022
C19	C	0.661900	-0.237757	-0.000021
C20	C	0.722252	-0.331602	-0.000025
C21	C	0.684342	-0.397135	-0.000026
C22	C	0.503292	-0.115587	-0.000029
C23	C	0.541197	-0.050060	-0.000025
C24	C	0.639458	-0.078379	-0.000017
C25	C	0.699811	-0.172225	-0.000021
C26	C	0.677369	-0.012847	-0.000016
C27	C	0.775626	-0.041165	-0.000016
C28	C	0.798068	-0.200542	-0.000020
C29	C	1.119648	-0.378771	-0.000022
C30	C	1.117788	-0.471155	-0.000028
C31	C	1.111115	-0.806875	-0.000024
C32	C	1.008019	-0.728023	-0.000397
C33	C	1.009974	-0.632013	-0.000021
C34	C	1.114425	-0.640320	-0.000026
C35	C	1.189625	-0.725935	0.095241
C36	C	1.187058	-0.821808	0.095321
C37	C	1.140601	-0.764867	-0.094401
C38	C	1.140254	-0.667530	-0.095660
C39	C	1.116302	-0.546193	-0.000024
C40	C	1.109243	-0.901005	-0.000019
C41	C	1.284995	-0.282052	-0.000026
C42	C	1.389566	-0.312180	-0.000034
C43	C	1.105893	-0.068426	-0.000022
C44	C	1.107752	0.023960	-0.000023
N45	N	1.173578	-0.296116	0.237400
N46	N	1.051971	-0.151090	-0.237442
C47	C	0.947543	-0.026594	0.605052
C48	C	0.974474	-0.058698	0.710074
C49	C	1.102566	-0.211417	0.710033
C50	C	1.075643	-0.179328	0.605010
C51	C	0.998131	-0.086915	0.552528
C52	C	1.126231	-0.239649	0.552485
C53	C	1.099314	-0.207560	0.447471
C54	C	1.021807	-0.115150	0.394981
C55	C	0.971214	-0.054826	0.447514
C56	C	1.203747	-0.332059	0.604969
C57	C	1.254336	-0.392380	0.552445
C58	C	1.227413	-0.360294	0.447428
C59	C	1.149907	-0.267884	0.394939
C60	C	1.278007	-0.420618	0.394896
C61	C	1.251089	-0.388529	0.289882
C62	C	1.122989	-0.235795	0.289925
H63	H	0.423285	-0.092533	-0.000032
N64	N	0.868358	0.067796	0.551420
N65	N	0.794879	0.076862	0.492833
H66	H	0.738957	0.143521	0.454954
H67	H	1.168250	-0.850603	0.166539
N68	N	1.357177	-0.515007	0.448530
N69	N	1.342322	-0.575821	0.507147
H70	H	1.398238	-0.642484	0.545028
H71	H	0.628218	0.063569	-0.000026
N72	N	0.814336	0.025779	-0.000015
N73	N	0.760447	0.109568	-0.000011
H74	H	0.787784	0.156851	-0.000013
N75	N	0.822627	-0.360553	-0.000012
N76	N	0.876497	-0.444350	-0.000008
H77	H	0.947387	-0.464799	0.000003
N78	N	1.075175	-0.750143	-0.184989
N79	N	1.066953	-0.820225	-0.201801
H80	H	1.020741	-0.809827	-0.265776
H81	H	1.085062	-0.607467	-0.166136
N82	N	0.479535	0.045802	-0.000037
N83	N	0.391806	0.071078	-0.000044
H84	H	0.348256	0.138782	-0.000053
N85	N	0.922779	0.002910	0.763732
N86	N	0.879335	-0.023833	0.822342
H87	H	0.842828	0.019675	0.860241
H88	H	1.292285	-0.437649	0.247116
N89	N	0.937932	-0.554971	-0.085692
N90	N	0.885853	-0.571901	-0.146179
H91	H	0.834966	-0.517491	-0.206686
N92	N	1.287034	-0.738831	0.099718
N93	N	1.357038	-0.803995	0.170776
H94	H	1.425834	-0.813100	0.173941
N95	N	0.892028	0.039564	0.393881
N96	N	0.818550	0.048629	0.335294
H97	H	0.762627	0.115289	0.297415
N98	N	1.231221	-0.364846	0.712239
N99	N	1.170460	-0.370956	0.759115
H100	H	1.189860	-0.394117	0.834875
H101	H	1.059865	-0.160547	0.247192
N102	N	0.934433	-0.709396	-0.086110
N103	N	0.957107	-0.754019	-0.147923
H104	H	0.905137	-0.740866	-0.208464
H105	H	0.984432	-0.755912	0.067543
H106	H	1.165679	-0.286660	0.752776
N107	N	1.333517	-0.486764	0.606073
N108	N	1.357550	-0.515402	0.699835
H109	H	1.413475	-0.582062	0.737710
N110	N	0.994324	-0.082340	0.287712
N111	N	1.055083	-0.076227	0.240833
H112	H	1.035675	-0.053046	0.165074
H113	H	1.172495	-0.708484	0.166140
H114	H	1.214950	-0.673559	-0.101416
N115	N	0.745986	-0.493013	-0.000003
N116	N	0.712138	-0.551520	0.000010
H117	H	0.755674	-0.619232	0.000029
N118	N	0.609824	-0.530208	-0.000045
N119	N	0.649145	-0.542310	-0.070373
H120	H	0.692680	-0.610010	-0.070386
H121	H	0.987290	-0.612824	0.068389
H122	H	1.216377	-0.819511	-0.095045
H123	H	0.419056	-0.459379	-0.000036
N124	N	0.859731	-0.296418	0.000011
N125	N	0.874287	-0.368088	0.070346
H126	H	0.917839	-0.435798	0.070371
N127	N	0.365811	-0.150791	-0.000021
N128	N	0.326484	-0.138695	0.070303
H129	H	0.282937	-0.070997	0.070313
N130	N	1.283315	-0.892747	0.100752
N131	N	1.352175	-0.871355	0.104478
H132	H	1.420158	-0.921453	0.108321
