data_functionalizedCrystal
_audit_creation_method	'MofGen! by Chris Wilmer'
_symmetry_space_group_name_H-M	'P1'
_symmetry_Int_Tables_number	1
_symmetry_cell_setting	triclinic
loop_
_symmetry_equiv_pos_as_xyz
  x,y,z
_cell_length_a	18.050589
_cell_length_b	11.169417
_cell_length_c	11.169409
_cell_angle_alpha	89.978351
_cell_angle_beta	90.032850
_cell_angle_gamma	89.973557
loop_
_atom_site_label
_atom_site_type_symbol
_atom_site_fract_x
_atom_site_fract_y
_atom_site_fract_z
Zn1	Zn	-0.295635	-1.834813	0.678597
Zn2	Zn	-0.419850	-1.834640	0.477912
Zn3	Zn	-0.295674	-1.634099	0.477925
Zn4	Zn	-0.419783	-1.634044	0.678550
O5	O	-0.357735	-1.734399	0.578246
O6	O	-0.312123	-2.002740	0.651990
O7	O	-0.403422	-1.807988	0.309964
O8	O	-0.191744	-1.660820	0.504569
O9	O	-0.403383	-2.002613	0.504547
O10	O	-0.191715	-1.808284	0.652002
O11	O	-0.312190	-1.660652	0.309973
O12	O	-0.312126	-1.466142	0.504524
O13	O	-0.403271	-1.660726	0.846506
O14	O	-0.403309	-1.466102	0.651923
O15	O	-0.312059	-1.808230	0.846540
O16	O	-0.523765	-1.807935	0.504502
O17	O	-0.523717	-1.660558	0.651910
C18	C	-0.357715	-1.422574	0.578221
C19	C	-0.357724	-1.289174	0.578238
C20	C	-0.550688	-1.734254	0.578226
C21	C	-0.633233	-1.734302	0.578258
C22	C	-0.832684	-1.654237	0.658390
C23	C	-0.882135	-1.624974	0.548874
C24	C	-0.784364	-1.734420	0.578273
C25	C	-0.881995	-1.763742	0.687802
C26	C	-0.930349	-1.734532	0.578298
C27	C	-0.832727	-1.705099	0.468699
C28	C	-0.832582	-1.843918	0.607701
C29	C	-0.882011	-1.814697	0.498109
C30	C	-0.700265	-1.734353	0.578261
C31	C	-1.014445	-1.734599	0.578298
C32	C	-0.164030	-1.734577	0.578292
C33	C	-0.081484	-1.734653	0.578312
C34	C	-0.357653	-1.734491	0.891289
C35	C	-0.357618	-1.734531	1.024689
C36	C	-0.357749	-1.047441	0.578264
C37	C	-0.357736	-1.180841	0.578251
C38	C	-0.357764	-1.734376	0.266421
C39	C	-0.357590	-1.734570	0.133022
H40	H	-0.811026	-1.586330	0.726047
F41	F	-0.910583	-1.504002	0.516342
H42	H	-0.903532	-1.882552	0.430289
H43	H	-0.810802	-1.936444	0.632621
H44	H	-0.811175	-1.680236	0.376056
F45	F	-0.910285	-1.796100	0.808857
