data_functionalizedCrystal
_audit_creation_method	'MofGen! by Chris Wilmer'
_symmetry_space_group_name_H-M	'P1'
_symmetry_Int_Tables_number	1
_symmetry_cell_setting	triclinic
loop_
_symmetry_equiv_pos_as_xyz
  x,y,z
_cell_length_a	15.995350
_cell_length_b	12.837942
_cell_length_c	14.472311
_cell_angle_alpha	89.992378
_cell_angle_beta	90.001458
_cell_angle_gamma	90.839342
loop_
_atom_site_label
_atom_site_type_symbol
_atom_site_fract_x
_atom_site_fract_y
_atom_site_fract_z
O1	O	1.121647	-0.133624	0.076761
O2	O	0.879188	-0.150124	0.076780
O3	O	0.995042	0.009029	0.076766
O4	O	1.005794	-0.292776	0.076776
O5	O	0.995029	0.009045	-0.076916
O6	O	0.879176	-0.150108	-0.076902
O7	O	1.121634	-0.133608	-0.076921
Cu8	Cu	1.000404	-0.141857	-0.090943
Cu9	Cu	1.000419	-0.141875	0.090803
O10	O	1.005781	-0.292761	-0.076906
C11	C	0.991403	0.047657	-0.000075
C12	C	0.980569	0.162735	-0.000072
C13	C	0.847933	-0.149434	-0.000058
C14	C	0.754819	-0.147389	-0.000051
N15	N	1.000399	-0.141843	-0.218774
C16	C	0.416486	-0.140044	-0.000071
C17	C	0.454876	-0.026699	-0.000417
C18	C	0.551730	-0.028744	-0.000064
C19	C	0.584337	-0.143687	-0.000061
C20	C	0.547718	-0.199602	0.087697
C21	C	0.450855	-0.196755	0.087764
C22	C	0.450688	-0.199079	-0.087001
C23	C	0.547631	-0.199052	-0.088155
C24	C	0.679199	-0.145752	-0.000053
C25	C	0.321623	-0.137983	-0.000073
C26	C	1.152890	-0.134298	-0.000080
C27	C	1.246003	-0.136343	-0.000081
C28	C	1.009420	-0.331389	-0.000064
C29	C	1.020253	-0.446466	-0.000060
C30	C	1.110807	0.403693	-0.000063
C31	C	1.100632	0.511819	-0.000061
C32	C	0.950045	0.487114	-0.000059
C33	C	0.960220	0.378988	-0.000061
C34	C	1.040604	0.337282	-0.000065
C35	C	1.050778	0.229154	-0.000073
C36	C	0.900191	0.204452	-0.000065
C37	C	0.890016	0.312577	-0.000062
C38	C	1.000409	-0.141856	-0.407275
C39	C	1.062418	-0.056726	-0.446484
C40	C	1.062686	-0.056952	-0.553572
C41	C	1.000419	-0.141867	-0.592866
C42	C	1.027780	-0.250163	-0.553970
C43	C	1.028228	-0.249657	-0.446849
C44	C	0.910911	-0.119666	-0.446760
C45	C	0.911309	-0.117215	-0.553888
C46	C	1.000424	-0.141880	-0.697754
C47	C	1.000407	-0.141850	-0.302386
N48	N	1.000430	-0.141880	0.218634
H49	H	0.432734	0.018615	-0.063352
O50	O	1.115021	-0.275456	-0.413737
H51	H	1.156280	-0.288171	-0.474235
H52	H	0.571686	-0.158235	-0.153078
H53	H	0.569684	-0.282872	-0.093453
O54	O	0.584737	0.029463	-0.083401
H55	H	0.563580	0.111367	-0.080814
O56	O	0.863349	0.532103	-0.000043
H57	H	0.829190	0.505437	-0.062676
H58	H	1.176258	0.369735	-0.000075
H59	H	1.157799	0.565888	-0.000057
H60	H	0.843027	0.150367	-0.000073
H61	H	0.824570	0.346550	-0.000056
H62	H	0.425594	-0.282648	-0.087593
H63	H	1.116230	0.195199	-0.000080
O64	O	1.039529	0.049674	-0.588421
H65	H	1.028037	0.101865	-0.528761
H66	H	0.431690	0.018393	0.062168
O67	O	0.878796	-0.017262	-0.410995
H68	H	0.815624	-0.003415	-0.439828
O69	O	1.039433	0.050256	-0.412394
H70	H	0.983573	0.043899	-0.367132
H71	H	0.576063	0.015492	0.062951
H72	H	1.128276	-0.070735	-0.419551
O73	O	0.422291	-0.142741	0.174644
H74	H	0.477655	-0.118893	0.216213
H75	H	0.425246	-0.279972	0.091749
H76	H	1.128930	-0.071175	-0.579197
H77	H	0.864668	-0.181744	-0.421401
H78	H	0.985062	-0.314778	-0.420909
H79	H	0.984165	-0.315058	-0.579420
O80	O	0.575354	-0.311460	0.092040
H81	H	0.615582	-0.328425	0.031552
H82	H	1.092609	-0.270122	-0.580796
H83	H	0.427191	-0.162017	-0.153520
O84	O	0.884059	-0.011685	-0.587561
H85	H	0.821033	0.005160	-0.559710
O86	O	0.846466	-0.193984	-0.589305
H87	H	0.876876	-0.251168	-0.635441
H88	H	0.572999	-0.160779	0.153006
