data_functionalizedCrystal
_audit_creation_method	'MofGen! by Chris Wilmer'
_symmetry_space_group_name_H-M	'P1'
_symmetry_Int_Tables_number	1
_symmetry_cell_setting	triclinic
loop_
_symmetry_equiv_pos_as_xyz
  x,y,z
_cell_length_a	14.853567
_cell_length_b	15.944551
_cell_length_c	13.330367
_cell_angle_alpha	89.994404
_cell_angle_beta	89.995418
_cell_angle_gamma	83.566834
loop_
_atom_site_label
_atom_site_type_symbol
_atom_site_fract_x
_atom_site_fract_y
_atom_site_fract_z
O1	O	1.196228	0.109665	-0.083357
O2	O	1.696228	0.609665	0.416643
O3	O	0.933752	0.122728	-0.083374
O4	O	1.433752	0.622728	0.416626
O5	O	1.072158	-0.006070	-0.083356
O6	O	1.572158	0.493930	0.416644
O7	O	1.057822	0.238463	-0.083375
O8	O	1.557822	0.738463	0.416625
O9	O	1.072137	-0.006073	0.083491
O10	O	1.572137	0.493927	0.583491
O11	O	0.933732	0.122725	0.083473
O12	O	1.433732	0.622725	0.583473
O13	O	1.196208	0.109662	0.083491
O14	O	1.696208	0.609662	0.583491
Cu15	Cu	1.064968	0.116193	0.098716
Cu16	Cu	1.564968	0.616193	0.598716
Cu17	Cu	1.064992	0.116197	-0.098600
Cu18	Cu	1.564992	0.616197	0.401400
O19	O	1.057802	0.238460	0.083472
O20	O	1.557802	0.738460	0.583472
C21	C	0.900154	0.122135	0.000047
C22	C	1.400154	0.622135	0.500047
C23	C	0.800072	0.120361	0.000041
C24	C	1.300072	0.620361	0.500041
C25	C	1.071552	-0.037367	0.000068
C26	C	1.571552	0.462633	0.500068
C27	C	1.069768	-0.130615	0.000068
C28	C	1.569768	0.369385	0.500068
C29	C	0.387646	0.036354	0.000070
C30	C	0.887646	0.536354	0.500070
C31	C	0.366169	0.189369	0.000057
C32	C	0.866169	0.689369	0.500057
C33	C	0.460201	0.191037	0.000054
C34	C	0.960201	0.691037	0.500054
C35	C	0.517960	0.115362	0.000057
C36	C	1.017960	0.615362	0.500057
C37	C	0.481687	0.038019	0.000064
C38	C	0.981687	0.538019	0.500064
C39	C	0.496480	0.268379	0.000037
C40	C	0.996480	0.768379	0.500037
C41	C	0.590517	0.270050	0.000033
C42	C	1.090517	0.770050	0.500033
C43	C	0.648278	0.194374	0.000043
C44	C	1.148278	0.694374	0.500043
C45	C	0.612000	0.117028	0.000051
C46	C	1.112000	0.617028	0.500051
C47	C	0.669759	0.041353	0.000054
C48	C	1.169759	0.541353	0.500054
C49	C	0.633483	-0.035994	0.000069
C50	C	1.133483	0.464006	0.500069
C51	C	0.539448	-0.037657	0.000074
C52	C	1.039448	0.462343	0.500074
C53	C	0.742313	0.196036	0.000038
C54	C	1.242313	0.696036	0.500038
C55	C	0.763800	0.043018	0.000048
C56	C	1.263800	0.543018	0.500048
C57	C	0.979713	-0.345572	0.000049
C58	C	1.479713	0.154428	0.500049
C59	C	1.021522	-0.406544	0.082317
C60	C	1.521522	0.093456	0.582317
C61	C	1.066541	-0.301344	0.000060
C62	C	1.566541	0.198656	0.500060
C63	C	1.021562	-0.406524	-0.082181
C64	C	1.521562	0.093476	0.417819
C65	C	1.063416	-0.466260	0.000048
C66	C	1.563416	0.033740	0.500048
C67	C	1.108373	-0.361088	0.082397
C68	C	1.608373	0.138912	0.582397
C69	C	1.108401	-0.361062	-0.082175
C70	C	1.608401	0.138938	0.417825
C71	C	1.150273	-0.422017	0.000113
C72	C	1.650273	0.077983	0.500113
C73	C	1.068338	-0.206340	0.000068
C74	C	1.568338	0.293660	0.500068
C75	C	1.061626	-0.561263	0.000048
C76	C	1.561626	-0.061263	0.500048
C77	C	1.229806	0.110255	0.000067
C78	C	1.729806	0.610255	0.500067
C79	C	1.329887	0.112029	0.000067
C80	C	1.829887	0.612029	0.500067
C81	C	1.058407	0.269756	0.000046
C82	C	1.558407	0.769756	0.500046
C83	C	1.060191	0.363004	0.000039
C84	C	1.560191	0.863004	0.500039
N85	N	1.064958	0.116190	0.237498
N86	N	1.564958	0.616190	0.737498
N87	N	1.065009	0.116193	-0.237381
N88	N	1.565009	0.616193	0.262619
C89	C	1.003703	0.173206	0.710113
C90	C	1.503703	0.673206	1.210113
C91	C	1.126305	0.059180	0.710097
C92	C	1.626305	0.559180	1.210097
C93	C	1.126295	0.059178	0.605078
C94	C	1.626295	0.559178	1.105078
C95	C	1.064989	0.116191	0.552572
C96	C	1.564989	0.616191	1.052572
C97	C	1.003693	0.173207	0.605085
C98	C	1.503693	0.673207	1.105085
C99	C	1.187595	0.002169	0.552558
C100	C	1.687595	0.502169	1.052558
C101	C	1.187588	0.002164	0.447534
C102	C	1.687588	0.502164	0.947534
C103	C	1.126277	0.059174	0.395026
C104	C	1.626277	0.559174	0.895026
C105	C	1.064978	0.116192	0.447544
C106	C	1.564978	0.616192	0.947544
C107	C	1.003672	0.173205	0.395038
C108	C	1.503672	0.673205	0.895038
C109	C	0.942368	0.230220	0.447555
C110	C	1.442368	0.730220	0.947555
C111	C	0.942382	0.230217	0.552577
C112	C	1.442382	0.730217	1.052577
C113	C	1.126264	0.059177	0.290004
C114	C	1.626264	0.559177	0.790004
C115	C	1.003662	0.173206	0.290010
C116	C	1.503662	0.673206	0.790010
H117	H	0.810822	-0.018607	0.000054
H118	H	1.310822	0.481393	0.500054
C119	C	0.847639	0.222254	0.742467
C120	C	1.347639	0.722254	1.242467
C121	C	0.936318	0.235870	0.767837
C122	C	1.436318	0.735870	1.267837
H123	H	0.806040	0.260937	0.778110
H124	H	1.306040	0.760937	1.278110
H125	H	0.838869	0.230420	0.672414
H126	H	1.338869	0.730420	1.172414
H127	H	0.837866	0.166173	0.759688
H128	H	1.337866	0.666173	1.259688
H129	H	0.946093	0.291950	0.750609
H130	H	1.446093	0.791950	1.250609
H131	H	0.945092	0.227712	0.837905
H132	H	1.445092	0.727712	1.337905
H133	H	0.680523	-0.097609	0.000065
H134	H	1.180523	0.402391	0.500065
C135	C	0.836528	-0.324622	-0.085129
C136	C	1.336528	0.175378	0.414871
C137	C	0.882422	-0.300716	0.000147
C138	C	1.382422	0.199284	0.500147
H139	H	0.776465	-0.296934	-0.085060
H140	H	1.276465	0.203066	0.414940
H141	H	0.867241	-0.309158	-0.143630
H142	H	1.367241	0.190842	0.356370
H143	H	0.834743	-0.383989	-0.084522
H144	H	1.334743	0.116011	0.415478
H145	H	0.884213	-0.241349	-0.000464
H146	H	1.384213	0.258651	0.499536
H147	H	0.851701	-0.316174	0.058663
H148	H	1.351701	0.183826	0.558663
H149	H	0.984789	-0.426694	0.151864
H150	H	1.484789	0.073306	0.651864
C151	C	1.159074	-0.246369	0.175574
C152	C	1.659074	0.253631	0.675574
C153	C	1.157892	-0.334055	0.176398
C154	C	1.657892	0.165945	0.676398
H155	H	1.189637	-0.229680	0.233610
H156	H	1.689637	0.270320	0.733610
H157	H	1.189717	-0.230445	0.117238
H158	H	1.689717	0.269555	0.617238
H159	H	1.098664	-0.219514	0.175332
H160	H	1.598664	0.280486	0.675332
H161	H	1.218302	-0.360910	0.176633
H162	H	1.718302	0.139090	0.676633
H163	H	1.127251	-0.349988	0.234749
H164	H	1.627251	0.150012	0.734749
H165	H	1.237513	-0.044246	0.595312
H166	H	1.737513	0.455754	1.095312
H167	H	0.358106	-0.026620	0.000086
H168	H	0.858106	0.473380	0.500086
C169	C	1.292871	-0.443761	0.086388
C170	C	1.792871	0.056239	0.586388
C171	C	1.247646	-0.466682	0.000180
C172	C	1.747646	0.033318	0.500180
H173	H	1.352981	-0.471342	0.086433
H174	H	1.852981	0.028658	0.586433
H175	H	1.294523	-0.384384	0.086933
H176	H	1.794523	0.115616	0.586933
H177	H	1.261785	-0.460025	0.144263
H178	H	1.761785	0.039975	0.644263
H179	H	1.278727	-0.450412	-0.057696
H180	H	1.778727	0.049588	0.442304
H181	H	1.245999	-0.526072	-0.000374
H182	H	1.745999	-0.026072	0.499626
H183	H	1.237504	-0.044260	0.404781
H184	H	1.737504	0.455740	0.904781
H185	H	0.892471	0.276637	0.595342
H186	H	1.392471	0.776637	1.095342
C187	C	1.179225	-0.086142	0.742442
C188	C	1.679225	0.413858	1.242442
C189	C	1.193681	-0.003491	0.767813
C190	C	1.693681	0.496509	1.267813
H191	H	1.220823	-0.124835	0.778075
H192	H	1.720823	0.375165	1.278075
H193	H	1.119064	-0.095351	0.759667
H194	H	1.619064	0.404649	1.259667
H195	H	1.187998	-0.094295	0.672379
H196	H	1.687998	0.405705	1.172379
H197	H	1.184901	0.004664	0.837876
H198	H	1.684901	0.504664	1.337876
H199	H	1.253856	0.005721	0.750595
H200	H	1.753856	0.505721	1.250595
H201	H	0.620045	0.333030	0.000020
H202	H	1.120045	0.833030	0.500020
H203	H	1.145102	-0.340890	-0.151725
H204	H	1.645102	0.159110	0.348275
H205	H	0.984835	-0.426641	-0.151738
H206	H	1.484835	0.073359	0.348262
H207	H	0.892456	0.276644	0.404792
H208	H	1.392456	0.776644	0.904792
C209	C	0.404836	-0.108149	0.000074
C210	C	0.904836	0.391851	0.500074
C211	C	0.499571	-0.122671	0.000079
C212	C	0.999571	0.377329	0.500079
H213	H	0.380218	-0.160633	0.000069
H214	H	0.880218	0.339367	0.500069
H215	H	0.385016	-0.076994	0.058253
H216	H	0.885016	0.423006	0.558253
H217	H	0.385028	-0.076981	-0.058114
H218	H	0.885028	0.423019	0.441886
H219	H	0.519380	-0.153833	0.058272
H220	H	1.019380	0.346167	0.558272
H221	H	0.519399	-0.153838	-0.058105
H222	H	1.019399	0.346162	0.441895
C223	C	0.212485	0.254753	0.000064
C224	C	0.712485	0.754753	0.500064
C225	C	0.302683	0.272548	0.000057
C226	C	0.802683	0.772548	0.500057
H227	H	0.173290	0.306108	0.000072
H228	H	0.673290	0.806108	0.500072
H229	H	0.201494	0.223055	-0.058116
H230	H	0.701494	0.723055	0.441884
H231	H	0.201496	0.223039	0.058252
H232	H	0.701496	0.723039	0.558252
H233	H	0.313674	0.304258	-0.058135
H234	H	0.813674	0.804258	0.441865
H235	H	0.313678	0.304260	0.058242
H236	H	0.813678	0.804260	0.558242
H237	H	0.449447	0.329989	0.000024
H238	H	0.949447	0.829989	0.500024
C239	C	0.711634	0.347117	0.000015
C240	C	1.211634	0.847117	0.500015
C241	C	0.782189	0.281047	0.000022
C242	C	1.282189	0.781047	0.500022
H243	H	0.736253	0.399601	0.000013
H244	H	1.236253	0.899601	0.500013
H245	H	0.675410	0.343283	-0.058163
H246	H	1.175410	0.843283	0.441837
H247	H	0.675399	0.343281	0.058204
H248	H	1.175399	0.843281	0.558204
H249	H	0.818421	0.284880	-0.058170
H250	H	1.318421	0.784880	0.441830
H251	H	0.818428	0.284883	0.058207
H252	H	1.318428	0.784883	0.558207
H253	H	0.953736	0.219631	0.247266
H254	H	1.453736	0.719631	0.747266
C255	C	1.247456	-0.053527	0.300543
C256	C	1.747456	0.446473	0.800543
C257	C	1.193641	-0.003487	0.232278
C258	C	1.693641	0.496513	0.732278
H259	H	1.289049	-0.092219	0.264903
H260	H	1.789049	0.407781	0.764903
H261	H	1.279884	-0.018503	0.341488
H262	H	1.779884	0.481497	0.841488
H263	H	1.209929	-0.083805	0.341522
H264	H	1.709929	0.416195	0.841522
H265	H	1.231168	0.026796	0.191303
H266	H	1.731168	0.526796	0.691303
H267	H	1.161210	-0.038515	0.191315
H268	H	1.661210	0.461485	0.691315
