data_functionalizedCrystal
_audit_creation_method	'MofGen! by Chris Wilmer'
_symmetry_space_group_name_H-M	'P1'
_symmetry_Int_Tables_number	1
_symmetry_cell_setting	triclinic
loop_
_symmetry_equiv_pos_as_xyz
  x,y,z
_cell_length_a	15.944551
_cell_length_b	10.654550
_cell_length_c	9.730223
_cell_angle_alpha	90.004253
_cell_angle_beta	89.998800
_cell_angle_gamma	83.991834
loop_
_atom_site_label
_atom_site_type_symbol
_atom_site_fract_x
_atom_site_fract_y
_atom_site_fract_z
O1	O	-1.115460	-0.161966	-0.114146
O2	O	-0.871026	-0.181935	-0.114180
O3	O	-0.998863	0.010862	-0.114154
O4	O	-0.987623	-0.354762	-0.114173
O5	O	-0.998855	0.010867	0.114426
O6	O	-0.871018	-0.181929	0.114400
O7	O	-1.115452	-0.161961	0.114434
Zn8	Zn	-0.993234	-0.171944	0.150709
Zn9	Zn	-0.993244	-0.171951	-0.150455
O10	O	-0.987615	-0.354757	0.114407
C11	C	-0.998034	0.057652	0.000135
C12	C	-0.995565	0.197063	0.000133
C13	C	-0.839723	-0.181103	0.000105
C14	C	-0.746463	-0.178618	0.000093
C15	C	-1.146755	-0.162792	0.000145
C16	C	-1.240015	-0.165278	0.000149
C17	C	-0.530880	-0.053173	0.000126
C18	C	-0.470201	-0.111428	-0.112579
C19	C	-0.575711	-0.174122	0.000109
C20	C	-0.470215	-0.111451	0.112783
C21	C	-0.410773	-0.169770	0.000131
C22	C	-0.516260	-0.232410	-0.112689
C23	C	-0.516281	-0.232416	0.112774
C24	C	-0.455620	-0.290759	0.000042
C25	C	-0.670728	-0.176625	0.000095
C26	C	-0.315757	-0.167276	0.000135
C27	C	-0.988444	-0.401547	0.000115
C28	C	-0.990913	-0.540958	0.000109
N29	N	-0.993232	-0.171939	0.356245
C30	C	-1.070833	0.277522	0.000143
C31	C	-1.068508	0.408513	0.000126
C32	C	-0.915639	0.378572	0.000095
C33	C	-0.917965	0.247584	0.000102
N34	N	-0.993252	-0.171947	-0.355992
C35	C	-1.049858	-0.086604	0.428183
C36	C	-1.049866	-0.086605	0.572066
C37	C	-0.936621	-0.257285	0.572061
C38	C	-0.936609	-0.257278	0.428180
H39	H	-0.449798	-0.060274	-0.207858
N40	N	-0.543350	-0.300142	0.238962
H41	H	-0.514855	-0.389381	0.239840
H42	H	-0.526789	-0.254293	0.324003
H43	H	-1.129799	0.474019	0.000131
N44	N	-0.543119	-0.300105	-0.239059
H45	H	-0.515018	-0.389577	-0.239458
H46	H	-0.606376	-0.301234	-0.238242
N47	N	-0.836782	0.160784	0.000107
H48	H	-0.834346	0.105761	-0.084625
H49	H	-0.787315	0.212745	0.000151
H50	H	-0.852460	0.419723	0.000072
N51	N	-1.110926	0.005437	0.350592
H52	H	-1.146798	0.059496	0.418003
H53	H	-1.078445	0.060991	0.290909
H54	H	-1.095975	-0.017116	0.630634
N55	N	-0.412460	-0.423850	-0.000038
H56	H	-0.429196	-0.469359	-0.085206
H57	H	-0.349317	-0.421345	0.000823
H58	H	-0.449830	-0.060271	0.208063
N59	N	-0.875524	-0.349311	0.350578
H60	H	-0.839658	-0.403378	0.417978
H61	H	-0.907991	-0.404860	0.290859
H62	H	-0.890520	-0.326768	0.630645
H63	H	-1.134019	0.236393	0.000165
H64	H	-0.563632	0.047204	-0.000009
