data_functionalizedCrystal
_audit_creation_method	'MofGen! by Chris Wilmer'
_symmetry_space_group_name_H-M	'P1'
_symmetry_Int_Tables_number	1
_symmetry_cell_setting	triclinic
loop_
_symmetry_equiv_pos_as_xyz
  x,y,z
_cell_length_a	14.044202
_cell_length_b	7.088929
_cell_length_c	8.559649
_cell_angle_alpha	95.344185
_cell_angle_beta	98.514317
_cell_angle_gamma	96.775746
loop_
_atom_site_label
_atom_site_type_symbol
_atom_site_fract_x
_atom_site_fract_y
_atom_site_fract_z
O1	O	-1.219141	0.158877	0.396207
O2	O	-0.719141	0.658877	0.896207
O3	O	-0.944173	0.158902	0.382436
O4	O	-0.444173	0.658902	0.882436
O5	O	-1.105882	0.158885	0.160173
O6	O	-0.605882	0.658885	0.660173
O7	O	-1.057432	0.158894	0.618470
O8	O	-0.557432	0.658894	1.118470
O9	O	-1.127498	-0.159092	0.130397
O10	O	-0.627498	0.340908	0.630397
O11	O	-0.965789	-0.159075	0.352660
O12	O	-0.465789	0.340925	0.852660
O13	O	-1.240757	-0.159101	0.366431
O14	O	-0.740757	0.340899	0.866431
Cu15	Cu	-1.105247	-0.188122	0.356826
Cu16	Cu	-0.605247	0.311878	0.856826
Cu17	Cu	-1.079683	0.187924	0.392040
Cu18	Cu	-0.579683	0.687924	0.892040
O19	O	-1.079048	-0.159084	0.588693
O20	O	-0.579048	0.340916	1.088693
C21	C	-0.920105	-0.000083	0.361524
C22	C	-0.420105	0.499917	0.861524
C23	C	-0.816186	-0.000073	0.343555
C24	C	-0.316186	0.499927	0.843555
N25	N	-1.123234	-0.452612	0.332058
N26	N	-0.623234	0.047388	0.832058
C27	C	-0.559016	-0.000089	0.438135
C28	C	-0.059016	0.499911	0.938135
C29	C	-0.625920	-0.000089	0.310727
C30	C	-0.125920	0.499911	0.810727
C31	C	-0.731794	-0.000080	0.328997
C32	C	-0.231794	0.499920	0.828997
C33	C	-0.453132	-0.000098	0.419867
C34	C	0.046868	0.499902	0.919867
C35	C	-0.264826	-0.000110	0.387340
C36	C	0.235174	0.499890	0.887340
C37	C	-0.368745	-0.000105	0.405300
C38	C	0.131255	0.499895	0.905300
C39	C	-1.120362	-0.000100	0.086279
C40	C	-0.620362	0.499900	0.586279
C41	C	-1.131290	-0.000090	-0.089542
C42	C	-0.631290	0.499910	0.410458
N43	N	-1.061705	0.452413	0.416797
N44	N	-0.561705	0.952413	0.916797
C45	C	-1.064568	-0.000094	0.662588
C46	C	-0.564568	0.499906	1.162588
C47	C	-1.053639	-0.000091	0.838410
C48	C	-0.553639	0.499909	1.338410
H49	H	-0.603675	0.000044	0.187942
H50	H	-0.103675	0.500044	0.687942
H51	H	-0.581251	-0.000082	0.560924
H52	H	-0.081251	0.499918	1.060924
C53	C	-0.975552	-0.437277	0.535422
C54	C	-0.475552	0.062723	1.035422
N55	N	-0.910659	-0.354179	0.624770
N56	N	-0.410659	0.145821	1.124770
C57	C	-1.209391	-0.562929	0.213426
C58	C	-0.709391	-0.062929	0.713426
N59	N	-1.274282	-0.646022	0.124072
N60	N	-0.774282	-0.146022	0.624072
C61	C	-1.232407	-0.000110	-0.187933
C62	C	-0.732407	0.499890	0.312067
N63	N	-1.308567	-0.000123	-0.262042
N64	N	-0.808567	0.499877	0.237958
C65	C	-0.952527	-0.000070	-0.063206
C66	C	-0.452527	0.499930	0.436794
N67	N	-0.876368	-0.000051	0.010908
N68	N	-0.376368	0.499949	0.510908
