data_functionalizedCrystal
_audit_creation_method	'MofGen! by Chris Wilmer'
_symmetry_space_group_name_H-M	'P1'
_symmetry_Int_Tables_number	1
_symmetry_cell_setting	triclinic
loop_
_symmetry_equiv_pos_as_xyz
  x,y,z
_cell_length_a	16.625547
_cell_length_b	16.625546
_cell_length_c	19.076919
_cell_angle_alpha	92.269917
_cell_angle_beta	92.276735
_cell_angle_gamma	90.022405
loop_
_atom_site_label
_atom_site_type_symbol
_atom_site_fract_x
_atom_site_fract_y
_atom_site_fract_z
Zn1	Zn	1.214333	-0.339339	-0.398022
Zn2	Zn	1.714333	0.160661	0.101978
Zn3	Zn	1.219661	-0.468760	-0.280325
Zn4	Zn	1.719661	0.031240	0.219675
Zn5	Zn	1.084920	-0.333945	-0.280332
Zn6	Zn	1.584920	0.166055	0.219668
Zn7	Zn	1.079467	-0.474131	-0.397971
Zn8	Zn	1.579467	0.025869	0.102029
O9	O	1.149595	-0.404044	-0.339162
O10	O	1.649595	0.095956	0.160838
O11	O	1.327871	-0.356517	-0.382427
O12	O	1.827871	0.143483	0.117573
O13	O	1.206300	-0.446371	-0.181837
O14	O	1.706300	0.053629	0.318163
O15	O	1.102138	-0.221830	-0.295968
O16	O	1.602138	0.278170	0.204032
O17	O	1.331786	-0.451602	-0.295956
O18	O	1.831786	0.048398	0.204044
O19	O	1.197217	-0.225793	-0.382434
O20	O	1.697217	0.274207	0.117566
O21	O	1.107305	-0.347323	-0.181843
O22	O	1.607305	0.152677	0.318157
O23	O	0.971365	-0.352532	-0.295919
O24	O	1.471365	0.147468	0.204081
O25	O	1.092845	-0.460756	-0.496466
O26	O	1.592845	0.039244	0.003534
O27	O	0.967359	-0.455526	-0.382348
O28	O	1.467359	0.044474	0.117652
O29	O	1.191930	-0.361725	-0.496503
O30	O	1.691930	0.138275	0.003497
O31	O	1.201012	-0.582304	-0.295907
O32	O	1.701012	-0.082304	0.204093
O33	O	1.098012	-0.586250	-0.382341
O34	O	1.598012	-0.086250	0.117659
C35	C	0.940106	-0.404027	-0.339129
C36	C	1.440106	0.095973	0.160871
C37	C	0.850485	-0.404040	-0.339132
C38	C	1.350485	0.095960	0.160868
C39	C	0.777702	-0.404042	-0.339140
C40	C	1.277702	0.095958	0.160860
C41	C	0.686393	-0.404047	-0.339158
C42	C	1.186393	0.095953	0.160842
C43	C	0.613615	-0.404055	-0.339176
C44	C	1.113615	0.095945	0.160824
C45	C	0.522300	-0.404061	-0.339193
C46	C	1.022300	0.095939	0.160807
C47	C	1.149520	-0.613534	-0.339133
C48	C	1.649520	-0.113534	0.160867
C49	C	1.149561	-0.703155	-0.339144
C50	C	1.649561	-0.203155	0.160856
C51	C	1.149698	-1.031334	-0.339217
C52	C	1.649698	-0.531334	0.160783
C53	C	1.149657	-0.940025	-0.339199
C54	C	1.649657	-0.440025	0.160801
C55	C	1.149629	-0.867248	-0.339180
C56	C	1.649629	-0.367248	0.160820
C57	C	1.149589	-0.775932	-0.339163
C58	C	1.649589	-0.275932	0.160837
C59	C	1.359902	-0.404062	-0.339196
C60	C	1.859902	0.095938	0.160804
C61	C	1.449523	-0.404069	-0.339211
C62	C	1.949523	0.095931	0.160789
C63	C	1.141185	-0.412442	-0.522736
C64	C	1.641185	0.087558	-0.022736
C65	C	1.137601	-0.416020	-0.600964
C66	C	1.637601	0.083980	-0.100964
C67	C	1.149692	-0.193737	-0.339207
C68	C	1.649692	0.306263	0.160793
C69	C	1.149733	-0.104117	-0.339227
C70	C	1.649733	0.395883	0.160773
C71	C	1.187503	-0.366144	-0.637736
C72	C	1.687503	0.133856	-0.137736
C73	C	1.184126	-0.369503	-0.711240
C74	C	1.684126	0.130497	-0.211240
C75	C	1.130851	-0.422744	-0.747970
C76	C	1.630851	0.077256	-0.247970
C77	C	1.080943	-0.472622	-0.711193
C78	C	1.580943	0.027378	-0.211193
C79	C	1.084317	-0.469258	-0.637690
C80	C	1.584317	0.030742	-0.137690
C81	C	1.115225	-0.438330	-0.967796
C82	C	1.615225	0.061670	-0.467796
C83	C	1.111857	-0.441692	-1.041303
C84	C	1.611857	0.058308	-0.541303
C85	C	1.215039	-0.338571	-1.041346
C86	C	1.715039	0.161429	-0.541346
C87	C	1.218412	-0.335215	-0.967842
C88	C	1.718412	0.164785	-0.467842
C89	C	1.168501	-0.385091	-0.931071
C90	C	1.668501	0.114909	-0.431071
N91	N	1.127399	-0.426181	-0.823102
N92	N	1.627399	0.073819	-0.323102
N93	N	1.171949	-0.381649	-0.855940
N94	N	1.671949	0.118351	-0.355940
C95	C	1.158019	-0.395621	-0.156303
C96	C	1.658019	0.104379	0.343697
C97	C	1.161759	-0.391815	-0.078076
C98	C	1.661759	0.108185	0.421924
H99	H	1.230889	-0.322792	-0.607836
H100	H	1.730889	0.177208	-0.107836
O101	O	1.029120	-0.524362	-0.746761
O102	O	1.529120	-0.024362	-0.246761
C103	C	0.927173	-0.626327	-0.738956
C104	C	1.427173	-0.126327	-0.238956
C105	C	0.985810	-0.567751	-0.698589
C106	C	1.485810	-0.067751	-0.198589
H107	H	0.892152	-0.661434	-0.700026
H108	H	1.392152	-0.161434	-0.200026
H109	H	0.883397	-0.590920	-0.773349
H110	H	1.383397	-0.090920	-0.273349
H111	H	0.962607	-0.670032	-0.773383
H112	H	1.462607	-0.170032	-0.273383
H113	H	0.950442	-0.524033	-0.664124
H114	H	1.450442	-0.024033	-0.164124
H115	H	1.029585	-0.603210	-0.664240
H116	H	1.529585	-0.103210	-0.164240
O117	O	1.066666	-0.486659	-0.932044
O118	O	1.566666	0.013341	-0.432044
C119	C	0.961646	-0.493684	-0.848995
C120	C	1.461646	0.006316	-0.348995
C121	C	1.016579	-0.438858	-0.889461
C122	C	1.516579	0.061142	-0.389461
H123	H	0.921149	-0.455060	-0.814545
H124	H	1.421149	0.044940	-0.314545
H125	H	0.922930	-0.532304	-0.887835
H126	H	1.422930	-0.032304	-0.387835
H127	H	1.000240	-0.534286	-0.814610
H128	H	1.500240	-0.034286	-0.314610
H129	H	0.978048	-0.398207	-0.923847
H130	H	1.478048	0.101793	-0.423847
H131	H	1.055300	-0.400293	-0.850583
H132	H	1.555300	0.099707	-0.350583
O133	O	1.035964	-0.517746	-0.601886
O134	O	1.535964	-0.017746	-0.101886
C135	C	1.028887	-0.622834	-0.518897
C136	C	1.528887	-0.122834	-0.018897
C137	C	1.083741	-0.567959	-0.559390
C138	C	1.583741	-0.067959	-0.059390
H139	H	1.067493	-0.663456	-0.484541
H140	H	1.567493	-0.163456	0.015459
H141	H	0.988340	-0.584277	-0.484436
H142	H	1.488340	-0.084277	0.015564
H143	H	0.990209	-0.661433	-0.557782
H144	H	1.490209	-0.161433	-0.057782
H145	H	1.122469	-0.529350	-0.520556
H146	H	1.622469	-0.029350	-0.020556
H147	H	1.124234	-0.606563	-0.593862
H148	H	1.624234	-0.106563	-0.093862
O149	O	1.263477	-0.290004	-1.076988
O150	O	1.763477	0.209996	-0.576988
C151	C	1.301608	-0.153880	-1.099545
C152	C	1.801608	0.346120	-0.599545
C153	C	1.246717	-0.208795	-1.059125
C154	C	1.746717	0.291205	-0.559125
H155	H	1.288065	-0.088211	-1.085129
H156	H	1.788065	0.411789	-0.585129
H157	H	1.367294	-0.167314	-1.085091
H158	H	1.867294	0.332686	-0.585091
H159	H	1.290061	-0.165468	-1.158385
H160	H	1.790061	0.334532	-0.658385
H161	H	1.258193	-0.197238	-1.000276
H162	H	1.758193	0.302762	-0.500276
H163	H	1.181049	-0.195349	-1.073638
H164	H	1.681049	0.304651	-0.573638
H165	H	1.224764	-0.328890	-0.741176
H166	H	1.724764	0.171110	-0.241176
O167	O	1.270036	-0.283422	-0.932101
O168	O	1.770036	0.216578	-0.432101
C169	C	1.284680	-0.170687	-0.849218
C170	C	1.784680	0.329313	-0.349218
C171	C	1.226137	-0.229318	-0.889629
C172	C	1.726137	0.270682	-0.389629
H173	H	1.249210	-0.126919	-0.814881
H174	H	1.749210	0.373081	-0.314881
H175	H	1.328414	-0.206047	-0.814746
H176	H	1.828414	0.293953	-0.314746
H177	H	1.319763	-0.135655	-0.888157
H178	H	1.819763	0.364345	-0.388157
H179	H	1.191000	-0.264366	-0.850741
H180	H	1.691000	0.235634	-0.350741
H181	H	1.182456	-0.193913	-0.924111
H182	H	1.682456	0.306087	-0.424111
H183	H	1.068471	-0.485048	-1.071207
H184	H	1.568471	0.014952	-0.571207
