data_functionalizedCrystal
_audit_creation_method	'MofGen! by Chris Wilmer'
_symmetry_space_group_name_H-M	'P1'
_symmetry_Int_Tables_number	1
_symmetry_cell_setting	triclinic
loop_
_symmetry_equiv_pos_as_xyz
  x,y,z
_cell_length_a	12.759401
_cell_length_b	21.295417
_cell_length_c	12.759393
_cell_angle_alpha	89.961827
_cell_angle_beta	89.980163
_cell_angle_gamma	90.031227
loop_
_atom_site_label
_atom_site_type_symbol
_atom_site_fract_x
_atom_site_fract_y
_atom_site_fract_z
Zn1	Zn	1.606145	-0.250546	-0.593972
Zn2	Zn	1.605994	-0.355830	-0.418272
Zn3	Zn	1.430448	-0.250582	-0.418307
Zn4	Zn	1.430390	-0.355784	-0.593909
O5	O	1.518244	-0.303186	-0.506115
O6	O	1.753146	-0.264517	-0.570677
O7	O	1.582668	-0.341903	-0.271256
O8	O	1.453842	-0.162488	-0.441651
O9	O	1.753035	-0.341869	-0.441591
O10	O	1.582926	-0.162461	-0.570711
O11	O	1.453695	-0.264577	-0.271282
O12	O	1.283419	-0.264533	-0.441590
O13	O	1.453744	-0.341790	-0.740939
O14	O	1.283377	-0.341825	-0.570604
O15	O	1.582870	-0.264472	-0.740985
O16	O	1.582612	-0.443914	-0.441530
O17	O	1.453597	-0.443880	-0.570570
C18	C	1.245277	-0.303178	-0.506095
C19	C	1.128500	-0.303190	-0.506111
C20	C	1.518110	-0.466737	-0.506062
C21	C	1.518149	-0.536705	-0.506075
C22	C	1.073644	-0.343497	-0.573182
C23	C	0.963920	-0.343499	-0.573203
C24	C	0.963918	-0.262886	-0.439071
C25	C	1.073640	-0.262881	-0.439057
C26	C	1.585325	-0.569501	-0.573324
C27	C	1.585362	-0.635244	-0.573350
C28	C	1.518234	-0.668188	-0.506108
C29	C	1.451045	-0.635384	-0.438853
C30	C	1.451003	-0.569643	-0.438837
N31	N	1.510295	-0.771457	-0.414161
N32	N	1.510342	-0.833909	-0.414180
C33	C	1.518357	-0.866262	-0.506155
N34	N	1.526344	-0.833806	-0.598113
N35	N	1.526303	-0.771349	-0.598093
C36	C	1.518273	-0.739473	-0.506119
C37	C	1.585577	-0.970344	-0.573439
C38	C	1.585606	-1.036088	-0.573466
C39	C	1.451295	-1.036227	-0.438960
C40	C	1.451260	-0.970484	-0.438942
C41	C	1.518406	-0.937547	-0.506180
C42	C	1.792277	-0.303194	-0.506137
C43	C	1.909054	-0.303197	-0.506146
C44	C	1.518318	-0.303122	-0.780149
C45	C	1.518349	-0.303095	-0.896926
C46	C	1.518407	-0.138995	-0.506192
C47	C	1.518477	-0.069027	-0.506224
C48	C	1.451217	-0.262824	-0.951801
C49	C	1.451241	-0.262805	-1.061525
C50	C	1.585539	-0.343329	-1.061489
C51	C	1.585509	-0.343351	-0.951767
C52	C	1.518232	-0.303204	-0.233148
C53	C	1.518404	-0.303053	-0.116372
H54	H	0.919260	-0.376320	-0.627821
H55	H	1.396574	-0.230013	-1.106199
C56	C	1.659266	-0.671329	-0.647322
C57	C	1.733123	-0.635100	-0.721279
C58	C	1.807029	-0.671184	-0.795249
C59	C	1.807077	-0.743497	-0.795262
C60	C	1.733217	-0.779730	-0.721302
C61	C	1.659311	-0.743646	-0.647333
H62	H	1.733090	-0.581566	-0.721272
H63	H	1.861705	-0.644361	-0.849998
H64	H	1.861786	-0.770208	-0.850018
H65	H	1.733250	-0.833264	-0.721309
H66	H	1.604635	-0.770469	-0.592583
H67	H	1.118308	-0.376318	-0.627785
H68	H	1.396531	-0.230045	-0.907152
C69	C	1.659365	-0.387646	-0.891391
C70	C	1.613769	-0.437079	-0.815925
C71	C	1.687620	-0.481371	-0.755546
C72	C	1.807066	-0.476231	-0.770634
C73	C	1.852668	-0.426796	-0.846104
C74	C	1.778817	-0.382504	-0.906483
H75	H	1.525343	-0.440885	-0.804753
H76	H	1.653862	-0.517966	-0.699678
H77	H	1.861735	-0.509019	-0.725938
H78	H	1.941094	-0.422989	-0.857276
H79	H	1.812575	-0.345909	-0.962350
C80	C	0.903565	-0.218552	-0.365310
C81	C	0.828189	-0.169171	-0.411000
C82	C	0.767836	-0.124838	-0.337236
C83	C	0.782859	-0.129887	-0.217782
C84	C	0.858239	-0.179271	-0.172085
C85	C	0.918592	-0.223604	-0.245850
H86	H	0.817065	-0.165431	-0.499433
H87	H	0.712035	-0.088281	-0.371064
H88	H	0.738183	-0.097069	-0.163177
H89	H	0.869363	-0.183011	-0.083653
H90	H	0.974393	-0.260161	-0.212021
C91	C	1.133988	-0.218542	-0.365267
C92	C	1.118964	-0.146987	-0.374058
C93	C	1.179311	-0.102649	-0.300274
C94	C	1.254683	-0.129866	-0.217699
C95	C	1.269712	-0.201425	-0.208905
C96	C	1.209364	-0.245763	-0.282689
H97	H	1.063166	-0.126836	-0.435187
H98	H	1.168186	-0.049676	-0.306784
H99	H	1.299356	-0.097044	-0.163079
H100	H	1.325510	-0.221576	-0.147775
H101	H	1.220489	-0.298735	-0.276179
H102	H	1.639997	-0.542685	-0.628076
C103	C	1.659405	-0.387608	-1.121826
C104	C	1.650735	-0.459172	-1.106705
C105	C	1.724598	-0.503454	-1.167044
C106	C	1.807130	-0.476172	-1.242503
C107	C	1.815803	-0.404604	-1.257628
C108	C	1.741941	-0.360323	-1.197289
H109	H	1.589637	-0.479371	-1.050843
H110	H	1.718177	-0.556433	-1.155847
H111	H	1.861808	-0.508952	-1.287169
H112	H	1.876902	-0.384405	-1.313490
H113	H	1.748361	-0.307344	-1.208486
H114	H	1.396387	-0.662211	-0.384106
H115	H	1.396632	-1.063049	-0.384216
C116	C	1.377111	-0.533563	-0.364852
C117	C	1.303264	-0.569795	-0.290888
C118	C	1.229373	-0.533714	-0.216901
C119	C	1.229329	-0.461401	-0.216877
C120	C	1.303178	-0.425165	-0.290844
C121	C	1.377069	-0.461246	-0.364831
H122	H	1.303295	-0.623329	-0.290903
H123	H	1.174705	-0.560538	-0.162145
H124	H	1.174630	-0.434692	-0.162107
H125	H	1.303147	-0.371631	-0.290829
H126	H	1.431737	-0.434422	-0.419586
C127	C	1.659426	-0.934105	-0.647402
C128	C	1.778872	-0.943085	-0.638939
C129	C	1.852723	-0.906848	-0.712900
C130	C	1.807127	-0.861631	-0.795324
C131	C	1.687675	-0.852649	-0.803790
C132	C	1.613825	-0.888886	-0.729829
H133	H	1.812631	-0.976559	-0.577921
H134	H	1.941149	-0.913497	-0.706632
H135	H	1.861795	-0.834806	-0.850075
H136	H	1.653917	-0.819175	-0.864809
H137	H	1.525398	-0.882237	-0.736097
H138	H	1.396564	-0.943780	-0.384176
C139	C	1.659506	-1.072164	-0.647448
C140	C	1.778941	-1.063064	-0.638963
C141	C	1.852843	-1.099141	-0.712945
C142	C	1.807311	-1.144317	-0.795412
C143	C	1.687871	-1.153418	-0.803901
C144	C	1.613968	-1.117342	-0.729918
H145	H	1.812652	-1.029621	-0.577913
H146	H	1.941261	-1.092403	-0.706661
H147	H	1.862018	-1.171023	-0.850179
H148	H	1.654160	-1.186862	-0.864951
H149	H	1.525550	-1.124080	-0.736202
