data_functionalizedCrystal
_audit_creation_method	'MofGen! by Chris Wilmer'
_symmetry_space_group_name_H-M	'P1'
_symmetry_Int_Tables_number	1
_symmetry_cell_setting	triclinic
loop_
_symmetry_equiv_pos_as_xyz
  x,y,z
_cell_length_a	15.538191
_cell_length_b	16.992695
_cell_length_c	16.053802
_cell_angle_alpha	92.747646
_cell_angle_beta	88.440717
_cell_angle_gamma	68.970159
loop_
_atom_site_label
_atom_site_type_symbol
_atom_site_fract_x
_atom_site_fract_y
_atom_site_fract_z
O1	O	1.234792	-0.253665	-0.069467
O2	O	1.734792	0.246335	0.430533
O3	O	0.967205	-0.165027	-0.069456
O4	O	1.467205	0.334973	0.430544
O5	O	1.099926	-0.323184	-0.069469
O6	O	1.599926	0.176816	0.430531
O7	O	1.102071	-0.095508	-0.069454
O8	O	1.602071	0.404492	0.430546
O9	O	1.092619	-0.314505	0.069391
O10	O	1.592619	0.185495	0.569391
O11	O	0.959898	-0.156348	0.069403
O12	O	1.459898	0.343652	0.569403
O13	O	1.227485	-0.244986	0.069393
O14	O	1.727485	0.255014	0.569393
Zn15	Zn	1.092531	-0.199289	0.091445
Zn16	Zn	1.592531	0.300711	0.591445
Zn17	Zn	1.102159	-0.210724	-0.091508
Zn18	Zn	1.602159	0.289276	0.408492
O19	O	1.094764	-0.086829	0.069405
O20	O	1.594764	0.413171	0.569405
C21	C	0.929154	-0.151414	-0.000025
C22	C	1.429154	0.348586	0.499975
C23	C	0.826660	-0.123790	-0.000022
C24	C	1.326660	0.376210	0.499978
C25	C	1.093513	-0.347272	-0.000042
C26	C	1.593513	0.152728	0.499958
C27	C	1.085279	-0.431973	-0.000053
C28	C	1.585279	0.068027	0.499947
N29	N	1.085967	-0.191488	0.216306
N30	N	1.585967	0.308512	0.716306
C31	C	0.518211	-0.398225	-0.000053
C32	C	1.018211	0.101775	0.499947
C33	C	0.421901	-0.372249	-0.000052
C34	C	0.921901	0.127751	0.499948
C35	C	0.410457	-0.226140	-0.000042
C36	C	0.910457	0.273860	0.499958
C37	C	0.506768	-0.252103	-0.000039
C38	C	1.006768	0.247897	0.499961
C39	C	0.560638	-0.338147	-0.000045
C40	C	1.060638	0.161853	0.499955
C41	C	0.549194	-0.192025	-0.000032
C42	C	1.049194	0.307975	0.499968
C43	C	0.645497	-0.217987	-0.000033
C44	C	1.145497	0.282013	0.499967
C45	C	0.699374	-0.304028	-0.000042
C46	C	1.199374	0.195972	0.499958
C47	C	0.656941	-0.364109	-0.000047
C48	C	1.156941	0.135891	0.499953
C49	C	0.495323	-0.105982	-0.000031
C50	C	0.995323	0.394018	0.499969
C51	C	0.537750	-0.045904	-0.000024
C52	C	1.037750	0.454096	0.499976
C53	C	0.634054	-0.071865	-0.000019
C54	C	1.134054	0.428135	0.499981
C55	C	0.687930	-0.157906	-0.000028
C56	C	1.187930	0.342094	0.499972
C57	C	0.676487	-0.011784	-0.000015
C58	C	1.176487	0.488216	0.499985
C59	C	0.772790	-0.037746	-0.000016
C60	C	1.272790	0.462254	0.499984
C61	C	0.784233	-0.183868	-0.000030
C62	C	1.284233	0.316132	0.499970
C63	C	1.265536	-0.258600	-0.000040
C64	C	1.765536	0.241400	0.499960
C65	C	1.368031	-0.286224	-0.000049
C66	C	1.868031	0.213776	0.499951
C67	C	1.101177	-0.062742	-0.000023
C68	C	1.601177	0.437258	0.499977
C69	C	1.109412	0.021959	-0.000018
C70	C	1.609412	0.521959	0.499982
C71	C	1.029958	0.094813	-0.000015
C72	C	1.529958	0.594813	0.499985
C73	C	1.037701	0.174395	-0.000026
C74	C	1.537701	0.674395	0.499974
C75	C	1.124899	0.181122	-0.000033
C76	C	1.624899	0.681122	0.499967
C77	C	1.204358	0.108261	-0.000038
C78	C	1.704358	0.608261	0.499962
C79	C	1.196614	0.028680	-0.000034
C80	C	1.696614	0.528680	0.499966
C81	C	1.156994	0.415585	-0.000053
C82	C	1.656994	0.915585	0.499947
C83	C	1.164732	0.495174	-0.000056
C84	C	1.664732	0.995174	0.499944
C85	C	0.998075	0.561303	-0.000045
C86	C	1.498075	1.061303	0.499955
C87	C	0.990338	0.481718	-0.000035
C88	C	1.490338	0.981718	0.499965
C89	C	1.069798	0.408863	-0.000044
C90	C	1.569798	0.908863	0.499956
N91	N	1.132816	0.262468	-0.000041
N92	N	1.632816	0.762468	0.499959
N93	N	1.061880	0.327519	-0.000042
N94	N	1.561880	0.827519	0.499958
N95	N	1.108730	-0.218533	-0.216369
N96	N	1.608730	0.281467	0.283631
C97	C	1.142463	-0.258772	0.259995
C98	C	1.642463	0.241228	0.759995
C99	C	1.137881	-0.253310	0.347402
C100	C	1.637881	0.246690	0.847402
C101	C	1.076806	-0.180561	0.391119
C102	C	1.576806	0.319439	0.891119
C103	C	1.020304	-0.113272	0.347424
C104	C	1.520304	0.386728	0.847424
C105	C	1.024882	-0.118737	0.260018
C106	C	1.524882	0.381263	0.760018
C107	C	1.056806	-0.156710	0.652530
C108	C	1.556806	0.343290	1.152530
C109	C	1.052233	-0.151249	0.739942
C110	C	1.552233	0.348751	1.239942
C111	C	1.169810	-0.291288	0.739914
C112	C	1.669810	0.208712	1.239914
C113	C	1.174387	-0.296745	0.652507
C114	C	1.674387	0.203255	1.152507
C115	C	1.117881	-0.229458	0.608819
C116	C	1.617881	0.270542	1.108819
N117	N	1.072123	-0.174975	0.480463
N118	N	1.572123	0.325025	0.980463
N119	N	1.122560	-0.235047	0.519477
N120	N	1.622560	0.264953	1.019477
H121	H	0.828097	-0.253933	-0.000030
H122	H	1.328097	0.246067	0.499970
H123	H	0.973002	0.233712	-0.000026
H124	H	1.473002	0.733712	0.499974
H125	H	1.224119	-0.355983	0.616914
H126	H	1.724119	0.144017	1.116914
H127	H	1.261314	-0.030640	-0.000039
H128	H	1.761314	0.469360	0.499961
Cl129	Cl	1.219252	-0.350232	0.205046
Cl130	Cl	1.719252	0.149768	0.705046
Cl131	Cl	0.585940	-0.506396	-0.000050
Cl132	Cl	1.085940	-0.006396	0.499950
H133	H	0.387362	-0.421179	-0.000059
H134	H	0.887362	0.078821	0.499941
Cl135	Cl	0.953851	-0.034149	0.205096
Cl136	Cl	1.453851	0.465851	0.705096
H137	H	0.493876	0.024153	-0.000022
H138	H	0.993876	0.524153	0.499978
H139	H	1.215813	-0.346070	0.775492
H140	H	1.715813	0.153930	1.275492
Cl141	Cl	0.920332	0.086367	0.000001
Cl142	Cl	1.420332	0.586367	0.500001
H143	H	1.002496	-0.092003	0.775532
H144	H	1.502496	0.407997	1.275532
Cl145	Cl	1.274359	0.503628	-0.000042
Cl146	Cl	1.774359	1.003628	0.499958
Cl147	Cl	0.985775	-0.072121	0.597615
Cl148	Cl	1.485775	0.427879	1.097615
Cl149	Cl	0.342727	-0.117975	-0.000039
Cl150	Cl	0.842727	0.382025	0.499961
H151	H	1.275357	0.113744	-0.000043
H152	H	1.775357	0.613744	0.499957
Cl153	Cl	1.208905	-0.337898	0.402326
Cl154	Cl	1.708905	0.162102	0.902326
H155	H	0.970571	-0.054039	0.383023
H156	H	1.470571	0.445961	0.883023
Cl157	Cl	1.256888	0.324006	-0.000057
Cl158	Cl	1.756888	0.824006	0.499943
H159	H	0.777790	-0.325165	-0.000054
H160	H	1.277790	0.174835	0.499946
Cl161	Cl	0.826131	0.037781	-0.000009
Cl162	Cl	1.326131	0.537781	0.499991
Cl163	Cl	0.724670	-0.472280	-0.000044
Cl164	Cl	1.224670	0.027720	0.499956
H165	H	0.416907	-0.084847	-0.000033
H166	H	0.916907	0.415153	0.499967
H167	H	0.632612	0.058273	-0.000018
H168	H	1.132612	0.558273	0.499982
H169	H	0.933383	0.620628	-0.000038
H170	H	1.433383	1.120628	0.499962
Cl171	Cl	0.880714	0.473268	-0.000028
Cl172	Cl	1.380714	0.973268	0.499972
