data_functionalizedCrystal
_audit_creation_method	'MofGen! by Chris Wilmer'
_symmetry_space_group_name_H-M	'P1'
_symmetry_Int_Tables_number	1
_symmetry_cell_setting	triclinic
loop_
_symmetry_equiv_pos_as_xyz
  x,y,z
_cell_length_a	25.639242
_cell_length_b	25.639240
_cell_length_c	25.639233
_cell_angle_alpha	89.974071
_cell_angle_beta	89.978417
_cell_angle_gamma	90.027658
loop_
_atom_site_label
_atom_site_type_symbol
_atom_site_fract_x
_atom_site_fract_y
_atom_site_fract_z
Zn1	Zn	0.799247	-0.208286	-0.295708
Zn2	Zn	1.299247	0.291714	0.204292
Zn3	Zn	0.799179	-0.295704	-0.208261
Zn4	Zn	1.299179	0.204296	0.291739
Zn5	Zn	0.711823	-0.208277	-0.208273
Zn6	Zn	1.211823	0.291723	0.291727
Zn7	Zn	0.711777	-0.295684	-0.295652
Zn8	Zn	1.211777	0.204316	0.204348
O9	O	0.755506	-0.251988	-0.251974
O10	O	1.255506	0.248012	0.248026
O11	O	0.872403	-0.219894	-0.284127
O12	O	1.372403	0.280106	0.215873
O13	O	0.787582	-0.284112	-0.135098
O14	O	1.287582	0.215888	0.364902
O15	O	0.723467	-0.135113	-0.219900
O16	O	1.223467	0.364887	0.280100
O17	O	0.872353	-0.284120	-0.219880
O18	O	1.372353	0.215880	0.280120
O19	O	0.787697	-0.135119	-0.284138
O20	O	1.287697	0.364881	0.215862
O21	O	0.723402	-0.219879	-0.135106
O22	O	1.223402	0.280121	0.364894
O23	O	0.638652	-0.219860	-0.219846
O24	O	1.138652	0.280140	0.280154
O25	O	0.723389	-0.284085	-0.368825
O26	O	1.223389	0.215915	0.131175
O27	O	0.638618	-0.284077	-0.284043
O28	O	1.138618	0.215923	0.215957
O29	O	0.787653	-0.219874	-0.368866
O30	O	1.287653	0.280126	0.131134
O31	O	0.787538	-0.368867	-0.219826
O32	O	1.287538	0.131133	0.280174
O33	O	0.723324	-0.368852	-0.284031
O34	O	1.223324	0.131148	0.215969
C35	C	0.619664	-0.251966	-0.251940
C36	C	1.119664	0.248034	0.248060
C37	C	0.561550	-0.251969	-0.251937
C38	C	1.061550	0.248031	0.248063
C39	C	0.755433	-0.387830	-0.251933
C40	C	1.255433	0.112170	0.248067
C41	C	0.755449	-0.445944	-0.251933
C42	C	1.255449	0.054056	0.248067
C43	C	0.310365	-0.218494	-0.218604
C44	C	0.810365	0.281506	0.281396
C45	C	0.364969	-0.218489	-0.218597
C46	C	0.864969	0.281511	0.281403
O47	O	0.393214	-0.189996	-0.190227
O48	O	0.893214	0.310004	0.309773
N49	N	0.392276	-0.251975	-0.251964
N50	N	0.892276	0.248025	0.248036
C51	C	0.364975	-0.285465	-0.285343
C52	C	0.864975	0.214535	0.214657
O53	O	0.393216	-0.313947	-0.313723
O54	O	0.893216	0.186053	0.186277
C55	C	0.310372	-0.285467	-0.285352
C56	C	0.810372	0.214533	0.214648
C57	C	0.283068	-0.251982	-0.251979
C58	C	0.783068	0.248018	0.248021
C59	C	0.283061	-0.185011	-0.185235
C60	C	0.783061	0.314989	0.314765
C61	C	0.228461	-0.185017	-0.185241
C62	C	0.728461	0.314983	0.314759
C63	C	0.201164	-0.218505	-0.218616
C64	C	0.701164	0.281495	0.281384
C65	C	0.228468	-0.251987	-0.251985
C66	C	0.728468	0.248013	0.248015
C67	C	0.283072	-0.318953	-0.318733
C68	C	0.783072	0.181047	0.181267
C69	C	0.228465	-0.318952	-0.318739
C70	C	0.728465	0.181048	0.181261
C71	C	0.201162	-0.285467	-0.285367
C72	C	0.701162	0.214533	0.214633
C73	C	0.146570	-0.285481	-0.285367
C74	C	0.646570	0.214519	0.214633
N75	N	0.119264	-0.251995	-0.252000
N76	N	0.619264	0.248005	0.248000
C77	C	0.146561	-0.218507	-0.218625
C78	C	0.646561	0.281493	0.281375
C79	C	0.479646	-0.285458	-0.285322
C80	C	0.979646	0.214542	0.214678
C81	C	0.534248	-0.285459	-0.285311
C82	C	1.034248	0.214541	0.214689
C83	C	0.534239	-0.218482	-0.218566
C84	C	1.034239	0.281518	0.281434
C85	C	0.479635	-0.218484	-0.218575
C86	C	0.979635	0.281516	0.281425
C87	C	0.452339	-0.251971	-0.251956
C88	C	0.952339	0.248029	0.248044
C89	C	0.031896	-0.218522	-0.218640
C90	C	0.531896	0.281478	0.281360
C91	C	-0.022710	-0.218532	-0.218648
C92	C	0.477290	0.281468	0.281352
C93	C	-0.022695	-0.285506	-0.285394
C94	C	0.477305	0.214494	0.214606
C95	C	0.031905	-0.285498	-0.285385
C96	C	0.531905	0.214502	0.214615
C97	C	0.059199	-0.252002	-0.252006
C98	C	0.559199	0.247998	0.247994
O99	O	0.118292	-0.313958	-0.313724
O100	O	0.618292	0.186042	0.186276
O101	O	0.118314	-0.190025	-0.190254
O102	O	0.618314	0.309975	0.309746
C103	C	0.788967	-0.806272	-0.285483
C104	C	1.288967	-0.306272	0.214517
C105	C	0.788983	-0.860876	-0.285493
C106	C	1.288983	-0.360876	0.214507
O107	O	0.817394	-0.889083	-0.313977
O108	O	1.317394	-0.389083	0.186023
N109	N	0.755579	-0.888227	-0.252024
N110	N	1.255579	-0.388227	0.247976
C111	C	0.722154	-0.860970	-0.218546
C112	C	1.222154	-0.360970	0.281454
O113	O	0.693742	-0.889247	-0.190079
O114	O	1.193742	-0.389247	0.309921
C115	C	0.722136	-0.806367	-0.218538
C116	C	1.222136	-0.306367	0.281462
C117	C	0.755546	-0.779019	-0.252006
C118	C	1.255546	-0.279019	0.247994
C119	C	0.822374	-0.778925	-0.318948
C120	C	1.322374	-0.278925	0.181052
C121	C	0.822359	-0.724324	-0.318937
C122	C	1.322359	-0.224324	0.181063
C123	C	0.788938	-0.697071	-0.285460
C124	C	1.288938	-0.197071	0.214540
C125	C	0.755531	-0.724419	-0.251995
C126	C	1.255531	-0.224419	0.248005
C127	C	0.688708	-0.779111	-0.185063
C128	C	1.188708	-0.279111	0.314937
C129	C	0.688693	-0.724504	-0.185059
C130	C	1.188693	-0.224504	0.314941
C131	C	0.722103	-0.697156	-0.218526
C132	C	1.222103	-0.197156	0.281474
C133	C	0.722095	-0.642565	-0.218506
C134	C	1.222095	-0.142565	0.281494
N135	N	0.755498	-0.615215	-0.251975
N136	N	1.255498	-0.115215	0.248025
C137	C	0.788920	-0.642468	-0.285452
C138	C	1.288920	-0.142468	0.214548
C139	C	0.722193	-0.975640	-0.218565
C140	C	1.222193	-0.475640	0.281435
C141	C	0.722213	-1.030243	-0.218570
C142	C	1.222213	-0.530243	0.281430
C143	C	0.789041	-1.030146	-0.285518
C144	C	1.289041	-0.530146	0.214482
C145	C	0.789024	-0.975542	-0.285510
C146	C	1.289024	-0.475542	0.214490
C147	C	0.755597	-0.948290	-0.252034
C148	C	1.255597	-0.448290	0.247966
C149	C	0.788887	-0.527803	-0.285425
C150	C	1.288887	-0.027803	0.214575
C151	C	0.788870	-0.473197	-0.285409
C152	C	1.288870	0.026803	0.214591
C153	C	0.722040	-0.473299	-0.218463
C154	C	1.222040	0.026701	0.281537
C155	C	0.722058	-0.527900	-0.218477
C156	C	1.222058	-0.027900	0.281523
C157	C	0.755483	-0.555150	-0.251962
C158	C	1.255483	-0.055150	0.248038
O159	O	0.693697	-0.614323	-0.190039
O160	O	1.193697	-0.114323	0.309961
O161	O	0.817322	-0.614184	-0.313919
O162	O	1.317322	-0.114184	0.186081
C163	C	0.891879	-0.252010	-0.252008
C164	C	1.391879	0.247990	0.247992
C165	C	0.949993	-0.252020	-0.252023
C166	C	1.449993	0.247980	0.247977
C167	C	0.755523	-0.251978	-0.388347
C168	C	1.255523	0.248022	0.111653
C169	C	0.755530	-0.251975	-0.446461
C170	C	1.255530	0.248025	0.053539
C171	C	0.755595	-0.115615	-0.252026
C172	C	1.255595	0.384385	0.247974
C173	C	0.755632	-0.057501	-0.252049
C174	C	1.255632	0.442499	0.247951
C175	C	0.789035	-0.218440	-0.806851
C176	C	1.289035	0.281560	-0.306851
C177	C	0.789041	-0.218426	-0.861455
C178	C	1.289041	0.281574	-0.361455
O179	O	0.817486	-0.189976	-0.889715
O180	O	1.317486	0.310024	-0.389715
N181	N	0.755588	-0.251852	-0.888743
N182	N	1.255588	0.248148	-0.388743
C183	C	0.722122	-0.285291	-0.861424
C184	C	1.222122	0.214709	-0.361424
O185	O	0.693668	-0.313721	-0.889649
O186	O	1.193668	0.186279	-0.389649
C187	C	0.722114	-0.285302	-0.806821
C188	C	1.222114	0.214698	-0.306821
C189	C	0.755573	-0.251878	-0.779536
C190	C	1.255573	0.248122	-0.279536
C191	C	0.822491	-0.185018	-0.779566
C192	C	1.322491	0.314982	-0.279566
C193	C	0.822485	-0.185034	-0.724965
C194	C	1.322485	0.314966	-0.224965
C195	C	0.789023	-0.218471	-0.697650
C196	C	1.289023	0.281529	-0.197650
C197	C	0.755567	-0.251893	-0.724935
C198	C	1.255567	0.248107	-0.224935
C199	C	0.688646	-0.318738	-0.779503
C200	C	1.188646	0.181262	-0.279503
C201	C	0.688640	-0.318747	-0.724896
C202	C	1.188640	0.181253	-0.224896
C203	C	0.722099	-0.285322	-0.697611
C204	C	1.222099	0.214678	-0.197611
C205	C	0.722099	-0.285346	-0.643019
C206	C	1.222099	0.214654	-0.143019
N207	N	0.755552	-0.251920	-0.615731
N208	N	1.255552	0.248080	-0.115731
C209	C	0.789014	-0.218482	-0.643046
C210	C	1.289014	0.281518	-0.143046
C211	C	0.722143	-0.285264	-0.976095
C212	C	1.222143	0.214736	-0.476095
C213	C	0.722154	-0.285255	-1.030697
C214	C	1.222154	0.214745	-0.530697
C215	C	0.789072	-0.218390	-1.030725
C216	C	1.289072	0.281610	-0.530725
C217	C	0.789063	-0.218401	-0.976121
C218	C	1.289063	0.281599	-0.476121
C219	C	0.755596	-0.251838	-0.948807
C220	C	1.255596	0.248162	-0.448807
C221	C	0.789000	-0.218517	-0.528381
C222	C	1.289000	0.281483	-0.028381
C223	C	0.788992	-0.218537	-0.473776
C224	C	1.288992	0.281463	0.026224
C225	C	0.722072	-0.285401	-0.473754
C226	C	1.222072	0.214599	0.026246
C227	C	0.722081	-0.285383	-0.528354
C228	C	1.222081	0.214617	-0.028354
C229	C	0.755547	-0.251937	-0.555667
C230	C	1.255547	0.248063	-0.055667
O231	O	0.693668	-0.313780	-0.614725
O232	O	1.193668	0.186220	-0.114725
O233	O	0.817459	-0.190053	-0.614815
O234	O	1.317459	0.309947	-0.114815
C235	C	0.755520	-0.251959	-0.116131
C236	C	1.255520	0.248041	0.383869
C237	C	0.755614	-0.251816	-0.058017
C238	C	1.255614	0.248184	0.441983
H239	H	0.054112	-0.191243	-0.191462
H240	H	0.554112	0.308757	0.308538
H241	H	0.816079	-0.450933	-0.312663
H242	H	1.316079	0.049067	0.187337
H243	H	0.816228	-0.953279	-0.312763
H244	H	1.316228	-0.453279	0.187237
O245	O	0.309596	-0.152425	-0.152884
O246	O	0.809596	0.347575	0.347116
C247	C	0.341224	-0.118700	-0.182701
C248	C	0.841224	0.381300	0.317299
H249	H	0.324801	-0.115529	-0.223892
H250	H	0.824801	0.384471	0.276108
H251	H	0.382603	-0.134862	-0.184457
H252	H	0.882603	0.365138	0.315543
C253	C	0.362234	-0.068207	-0.106665
C254	C	0.862234	0.431793	0.393335
C255	C	0.342060	-0.064309	-0.157255
C256	C	0.842060	0.435691	0.342745
H257	H	0.362752	-0.034656	-0.090968
H258	H	0.862752	0.465344	0.409032
H259	H	0.340927	-0.090928	-0.086576
H260	H	0.840927	0.409072	0.413424
H261	H	0.396715	-0.081677	-0.108135
H262	H	0.896715	0.418323	0.391865
H263	H	0.307578	-0.050845	-0.155783
H264	H	0.807578	0.449155	0.344217
H265	H	0.363361	-0.041583	-0.177343
H266	H	0.863361	0.458417	0.322657
H267	H	0.694857	-0.550167	-0.191221
H268	H	1.194857	-0.050167	0.308779
H269	H	0.694913	-0.312479	-1.052909
H270	H	1.194913	0.187521	-0.552909
H271	H	0.305294	-0.346220	-0.345908
H272	H	0.805294	0.153780	0.154092
H273	H	0.661503	-0.801368	-0.157810
H274	H	1.161503	-0.301368	0.342190
H275	H	0.816101	-0.549983	-0.312696
H276	H	1.316101	-0.049983	0.187304
O277	O	0.689645	-0.317905	-0.447152
O278	O	1.189645	0.182095	0.052848
C279	C	0.719392	-0.351691	-0.415577
C280	C	1.219392	0.148309	0.084423
H281	H	0.759028	-0.333259	-0.407423
H282	H	1.259028	0.166741	0.092577
H283	H	0.725108	-0.390437	-0.436607
H284	H	1.225108	0.109563	0.063393
C285	C	0.641941	-0.383791	-0.373706
C286	C	1.141941	0.116209	0.126294
C287	C	0.690622	-0.361151	-0.363688
C288	C	1.190622	0.138849	0.136312
H289	H	0.624194	-0.389629	-0.341699
H290	H	1.124194	0.110371	0.158301
H291	H	0.621900	-0.361031	-0.394980
H292	H	1.121900	0.138969	0.105020
H293	H	0.646711	-0.416077	-0.391232
H294	H	1.146711	0.083923	0.108768
H295	H	0.685851	-0.328862	-0.346168
H296	H	1.185851	0.171138	0.153832
H297	H	0.710663	-0.383906	-0.342410
H298	H	1.210663	0.116094	0.157590
O299	O	0.854828	-0.697843	-0.351499
O300	O	1.354828	-0.197843	0.148501
C301	C	0.884335	-0.733616	-0.381036
C302	C	1.384335	-0.233616	0.118964
H303	H	0.862925	-0.772553	-0.382824
H304	H	1.362925	-0.272553	0.117176
H305	H	0.924059	-0.739406	-0.361934
H306	H	1.424059	-0.239406	0.138066
C307	C	0.918122	-0.664451	-0.434494
C308	C	1.418122	-0.164451	0.065506
C309	C	0.891824	-0.712272	-0.436694
C310	C	1.391824	-0.212272	0.063306
H311	H	0.922744	-0.651285	-0.468826
H312	H	1.422744	-0.151285	0.031174
H313	H	0.898244	-0.640350	-0.414594
H314	H	1.398244	-0.140350	0.085406
H315	H	0.951222	-0.669282	-0.418573
H316	H	1.451222	-0.169282	0.081427
H317	H	0.858722	-0.707439	-0.452609
H318	H	1.358722	-0.207439	0.047391
H319	H	0.911696	-0.736372	-0.456598
H320	H	1.411696	-0.236372	0.043402
H321	H	0.661400	-0.345956	-0.801709
H322	H	1.161400	0.154044	-0.301709
O323	O	-0.049151	-0.185953	-0.186213
O324	O	0.450849	0.314047	0.313787
C325	C	-0.013345	-0.156403	-0.156747
C326	C	0.486655	0.343597	0.343253
H327	H	0.025589	-0.154623	-0.178163
H328	H	0.525589	0.345377	0.321837
H329	H	-0.007563	-0.175490	-0.117000
H330	H	0.492437	0.324510	0.383000
C331	C	-0.082453	-0.102933	-0.123017
C332	C	0.417547	0.397067	0.376983
C333	C	-0.034635	-0.100743	-0.149323
C334	C	0.465365	0.399257	0.350677
H335	H	-0.095586	-0.068600	-0.118436
H336	H	0.404414	0.431400	0.381564
H337	H	-0.106577	-0.122842	-0.142867
H338	H	0.393423	0.377158	0.357133
H339	H	-0.077628	-0.118841	-0.089898
H340	H	0.422372	0.381159	0.410102
H341	H	-0.039462	-0.084842	-0.182444
H342	H	0.460538	0.415158	0.317556
H343	H	-0.010513	-0.080830	-0.129479
H344	H	0.489487	0.419170	0.370521
O345	O	0.656118	-0.351284	-0.698445
O346	O	1.156118	0.148716	-0.198445
C347	C	0.626585	-0.380772	-0.734241
C348	C	1.126585	0.119228	-0.234241
H349	H	0.648003	-0.382567	-0.773170
H350	H	1.148003	0.117433	-0.273170
H351	H	0.586886	-0.361623	-0.740037
H352	H	1.086886	0.138377	-0.240037
C353	C	0.592714	-0.434222	-0.665112
C354	C	1.092714	0.065778	-0.165112
C355	C	0.619022	-0.436431	-0.712924
C356	C	1.119022	0.063569	-0.212924
H357	H	0.588047	-0.468555	-0.651963
H358	H	1.088047	0.031445	-0.151963
H359	H	0.612610	-0.414355	-0.640995
H360	H	1.112610	0.085645	-0.140995
H361	H	0.559635	-0.418262	-0.669949
H362	H	1.059635	0.081738	-0.169949
H363	H	0.652103	-0.452384	-0.708086
H364	H	1.152103	0.047616	-0.208086
H365	H	0.599132	-0.456303	-0.737041
H366	H	1.099132	0.043697	-0.237041
H367	H	0.054137	-0.312768	-0.312555
H368	H	0.554137	0.187232	0.187445
O369	O	0.689627	-0.446845	-0.185873
O370	O	1.189627	0.053155	0.314127
C371	C	0.701074	-0.460216	-0.133774
C372	C	1.201074	0.039784	0.366226
H373	H	0.742849	-0.475195	-0.131171
H374	H	1.242849	0.024805	0.368829
H375	H	0.673059	-0.491939	-0.120086
H376	H	1.173059	0.008061	0.379914
C377	C	0.643684	-0.393335	-0.102070
C378	C	1.143684	0.106665	0.397930
C379	C	0.694994	-0.411728	-0.098872
C380	C	1.194994	0.088272	0.401128
H381	H	0.639931	-0.363427	-0.080539
H382	H	1.139931	0.136573	0.419461
H383	H	0.635970	-0.384328	-0.137169
H384	H	1.135970	0.115672	0.362831
H385	H	0.620344	-0.419776	-0.090663
H386	H	1.120344	0.080224	0.409337
H387	H	0.718333	-0.385290	-0.110284
H388	H	1.218333	0.114710	0.389716
H389	H	0.702712	-0.420730	-0.063773
H390	H	1.202712	0.079270	0.436227
H391	H	0.816308	-0.191183	-0.953909
H392	H	1.316308	0.308817	-0.453909
O393	O	0.202023	-0.152436	-0.152811
O394	O	0.702023	0.347564	0.347189
C395	C	0.237834	-0.122890	-0.123348
C396	C	0.737834	0.377110	0.376652
H397	H	0.276767	-0.121117	-0.144765
H398	H	0.776767	0.378883	0.355235
H399	H	0.243613	-0.141974	-0.083599
H400	H	0.743613	0.358026	0.416401
C401	C	0.168734	-0.069406	-0.089622
C402	C	0.668734	0.430594	0.410378
C403	C	0.216552	-0.067226	-0.115929
C404	C	0.716552	0.432774	0.384071
H405	H	0.155606	-0.035071	-0.085043
H406	H	0.655606	0.464929	0.414957
H407	H	0.144607	-0.089313	-0.109470
H408	H	0.644607	0.410687	0.390530
H409	H	0.173556	-0.085312	-0.056501
H410	H	0.673556	0.414688	0.443499
H411	H	0.211727	-0.051326	-0.149051
H412	H	0.711727	0.448674	0.350949
H413	H	0.240678	-0.047315	-0.096086
H414	H	0.740678	0.452685	0.403914
O415	O	0.854769	-0.805416	-0.351525
O416	O	1.354769	-0.305416	0.148475
C417	C	0.825000	-0.837017	-0.385265
C418	C	1.325000	-0.337017	0.114735
H419	H	0.783810	-0.820601	-0.388451
H420	H	1.283810	-0.320601	0.111549
H421	H	0.823230	-0.878413	-0.369108
H422	H	1.323230	-0.378413	0.130892
C423	C	0.901102	-0.857953	-0.435730
C424	C	1.401102	-0.357953	0.064270
C425	C	0.850513	-0.837788	-0.439646
C426	C	1.350513	-0.337788	0.060354
H427	H	0.916840	-0.858432	-0.469274
H428	H	1.416840	-0.358432	0.030726
H429	H	0.921159	-0.836665	-0.412997
H430	H	1.421159	-0.336665	0.087003
H431	H	0.899620	-0.892448	-0.422264
H432	H	1.399620	-0.392448	0.077736
H433	H	0.851996	-0.803292	-0.453105
H434	H	1.351996	-0.303292	0.046895
H435	H	0.830457	-0.859071	-0.462382
H436	H	1.330457	-0.359071	0.037618
H437	H	0.457408	-0.191216	-0.191402
H438	H	0.957408	0.308784	0.308598
O439	O	0.821430	-1.056648	-0.318098
O440	O	1.321430	-0.556648	0.181902
C441	C	0.791644	-1.088244	-0.351828
C442	C	1.291644	-0.588244	0.148172
H443	H	0.750460	-1.071814	-0.355009
H444	H	1.250460	-0.571814	0.144991
H445	H	0.789863	-1.129637	-0.335664
H446	H	1.289863	-0.629637	0.164336
C447	C	0.867730	-1.109214	-0.402303
C448	C	1.367730	-0.609214	0.097697
C449	C	0.817148	-1.089033	-0.406213
C450	C	1.317148	-0.589033	0.093787
H451	H	0.883462	-1.109703	-0.435850
H452	H	1.383462	-0.609703	0.064150
H453	H	0.887798	-1.087929	-0.379577
H454	H	1.387798	-0.587929	0.120423
H455	H	0.866239	-1.143706	-0.388831
H456	H	1.366239	-0.643706	0.111169
H457	H	0.818640	-1.054539	-0.419678
H458	H	1.318640	-0.554539	0.080322
H459	H	0.797080	-1.110312	-0.428942
H460	H	1.297080	-0.610312	0.071058
H461	H	0.695013	-1.052504	-0.191311
H462	H	1.195013	-0.552504	0.308689
H463	H	0.694974	-0.953454	-0.191300
H464	H	1.194974	-0.453454	0.308700
O465	O	0.656204	-0.698113	-0.152490
O466	O	1.156204	-0.198113	0.347510
C467	C	0.626712	-0.733964	-0.122967
C468	C	1.126712	-0.233964	0.377033
H469	H	0.648143	-0.772870	-0.121186
H470	H	1.148143	-0.272870	0.378814
H471	H	0.586994	-0.739791	-0.142077
H472	H	1.086994	-0.239791	0.357923
C473	C	0.592880	-0.664912	-0.069496
C474	C	1.092880	-0.164912	0.430504
C475	C	0.619203	-0.712696	-0.067305
C476	C	1.119203	-0.212696	0.432695
H477	H	0.588245	-0.651793	-0.035162
H478	H	1.088245	-0.151793	0.464838
H479	H	0.612747	-0.640758	-0.089388
H480	H	1.112747	-0.140758	0.410612
H481	H	0.559784	-0.669775	-0.085424
H482	H	1.059784	-0.169775	0.414576
H483	H	0.652300	-0.707832	-0.051384
H484	H	1.152300	-0.207832	0.448616
H485	H	0.599341	-0.736849	-0.047410
H486	H	1.099341	-0.236849	0.452590
O487	O	0.821559	-0.186014	-0.554827
O488	O	1.321559	0.313986	-0.054827
C489	C	0.851074	-0.156513	-0.519026
C490	C	1.351074	0.343487	-0.019026
H491	H	0.852859	-0.177943	-0.480102
H492	H	1.352859	0.322057	0.019898
H493	H	0.831954	-0.116801	-0.513220
H494	H	1.331954	0.383199	-0.013220
C495	C	0.904538	-0.122661	-0.588152
C496	C	1.404538	0.377339	-0.088152
C497	C	0.906734	-0.148984	-0.540345
C498	C	1.406734	0.351016	-0.040345
H499	H	0.938872	-0.118014	-0.601303
H500	H	1.438872	0.381986	-0.101303
H501	H	0.884653	-0.142534	-0.612272
H502	H	1.384653	0.357466	-0.112272
H503	H	0.888603	-0.089571	-0.583307
H504	H	1.388603	0.410429	-0.083307
H505	H	0.922663	-0.182076	-0.545192
H506	H	1.422663	0.317924	-0.045192
H507	H	0.926624	-0.129116	-0.516226
H508	H	1.426624	0.370884	-0.016226
H509	H	-0.044930	-0.312773	-0.312565
H510	H	0.455070	0.187227	0.187435
O511	O	0.560817	-0.186020	-0.186121
O512	O	1.060817	0.313980	0.313879
C513	C	0.592364	-0.215735	-0.152282
C514	C	1.092364	0.284265	0.347718
H515	H	0.600532	-0.255387	-0.170643
H516	H	1.100532	0.244613	0.329357
H517	H	0.571302	-0.221419	-0.113525
H518	H	1.071302	0.278581	0.386475
C519	C	0.634210	-0.138253	-0.120322
C520	C	1.134210	0.361747	0.379678
C521	C	0.644246	-0.186952	-0.142874
C522	C	1.144246	0.313048	0.357126
H523	H	0.666212	-0.120498	-0.114516
H524	H	1.166212	0.379502	0.385484
H525	H	0.612955	-0.118233	-0.143118
H526	H	1.112955	0.381767	0.356882
H527	H	0.616656	-0.142997	-0.088027
H528	H	1.116656	0.357003	0.411973
H529	H	0.661792	-0.182208	-0.175171
H530	H	1.161792	0.317792	0.324829
H531	H	0.665505	-0.206971	-0.120083
H532	H	1.165505	0.293029	0.379917
H533	H	0.556474	-0.312731	-0.312480
H534	H	1.056474	0.187269	0.187520
O535	O	0.453213	-0.318044	-0.317762
O536	O	0.953213	0.181956	0.182238
C537	C	0.489029	-0.347586	-0.347216
C538	C	0.989029	0.152414	0.152784
H539	H	0.527938	-0.349358	-0.325787
H540	H	1.027938	0.150642	0.174213
H541	H	0.494868	-0.328499	-0.386961
H542	H	0.994868	0.171501	0.113039
C543	C	0.419916	-0.401071	-0.380968
C544	C	0.919916	0.098929	0.119032
C545	C	0.467704	-0.403251	-0.354646
C546	C	0.967704	0.096749	0.145354
H547	H	0.406761	-0.435407	-0.385553
H548	H	0.906761	0.064593	0.114447
H549	H	0.395786	-0.381166	-0.361126
H550	H	0.895786	0.118834	0.138874
H551	H	0.424788	-0.385163	-0.414086
H552	H	0.924788	0.114837	0.085914
H553	H	0.462830	-0.419152	-0.321526
H554	H	0.962830	0.080848	0.178474
H555	H	0.491833	-0.423159	-0.374482
H556	H	0.991833	0.076841	0.125518
O557	O	0.202032	-0.351530	-0.351185
O558	O	0.702032	0.148470	0.148815
C559	C	0.237844	-0.381069	-0.380646
C560	C	0.737844	0.118931	0.119354
H561	H	0.276754	-0.382847	-0.359219
H562	H	0.776754	0.117153	0.140781
H563	H	0.243682	-0.361975	-0.420388
H564	H	0.743682	0.138025	0.079612
C565	C	0.168727	-0.434544	-0.414403
C566	C	0.668727	0.065456	0.085597
C567	C	0.216516	-0.436731	-0.388084
C568	C	0.716516	0.063269	0.111916
H569	H	0.155571	-0.468878	-0.418994
H570	H	0.655571	0.031122	0.081006
H571	H	0.144599	-0.414642	-0.394557
H572	H	0.644599	0.085358	0.105443
H573	H	0.173599	-0.418630	-0.447519
H574	H	0.673599	0.081370	0.052481
H575	H	0.211643	-0.452639	-0.354967
H576	H	0.711643	0.047361	0.145033
H577	H	0.240643	-0.456637	-0.407926
H578	H	0.740643	0.043363	0.092074
H579	H	0.816241	-0.191318	-0.451563
H580	H	1.316241	0.308682	0.048437
H581	H	0.849730	-0.157815	-0.702754
H582	H	1.349730	0.342185	-0.202754
O583	O	0.855049	-0.152519	-0.806014
O584	O	1.355049	0.347481	-0.306014
C585	C	0.884562	-0.123017	-0.770211
C586	C	1.384562	0.376983	-0.270211
H587	H	0.886342	-0.144446	-0.731286
H588	H	1.386342	0.355554	-0.231286
H589	H	0.865443	-0.083305	-0.764409
H590	H	1.365443	0.416695	-0.264409
C591	C	0.938034	-0.089170	-0.839333
C592	C	1.438034	0.410830	-0.339333
C593	C	0.940225	-0.115491	-0.791525
C594	C	1.440225	0.384509	-0.291525
H595	H	0.972369	-0.084525	-0.852481
H596	H	1.472369	0.415475	-0.352481
H597	H	0.918150	-0.109044	-0.863454
H598	H	1.418150	0.390956	-0.363454
H599	H	0.922100	-0.056079	-0.834491
H600	H	1.422100	0.443921	-0.334491
H601	H	0.956153	-0.148583	-0.796369
H602	H	1.456153	0.351417	-0.296369
H603	H	0.960113	-0.095622	-0.767405
H604	H	1.460113	0.404378	-0.267405
H605	H	0.816317	-0.191162	-1.052975
H606	H	1.316317	0.308838	-0.552975
H607	H	0.694889	-0.312495	-0.953859
H608	H	1.194889	0.187505	-0.453859
O609	O	0.689535	-0.317871	-0.554782
O610	O	1.189535	0.182129	-0.054782
C611	C	0.660012	-0.347399	-0.518960
C612	C	1.160012	0.152601	-0.018960
H613	H	0.658214	-0.325995	-0.480040
H614	H	1.158214	0.174005	0.019960
H615	H	0.679133	-0.387113	-0.513154
H616	H	1.179133	0.112887	-0.013154
C617	C	0.606569	-0.381208	-0.588053
C618	C	1.106569	0.118792	-0.088053
C619	C	0.604358	-0.354917	-0.540251
C620	C	1.104358	0.145083	-0.040251
H621	H	0.572240	-0.385848	-0.601187
H622	H	1.072240	0.114152	-0.101187
H623	H	0.626461	-0.361316	-0.612187
H624	H	1.126461	0.138684	-0.112187
H625	H	0.622506	-0.414300	-0.583208
H626	H	1.122506	0.085700	-0.083208
H627	H	0.588428	-0.321824	-0.545098
H628	H	1.088428	0.178176	-0.045098
H629	H	0.584462	-0.374804	-0.516119
H630	H	1.084462	0.125196	-0.016119
