data_functionalizedCrystal
_audit_creation_method	'MofGen! by Chris Wilmer'
_symmetry_space_group_name_H-M	'P1'
_symmetry_Int_Tables_number	1
_symmetry_cell_setting	triclinic
loop_
_symmetry_equiv_pos_as_xyz
  x,y,z
_cell_length_a	19.288867
_cell_length_b	14.044220
_cell_length_c	18.366186
_cell_angle_alpha	89.993222
_cell_angle_beta	89.992441
_cell_angle_gamma	88.162973
loop_
_atom_site_label
_atom_site_type_symbol
_atom_site_fract_x
_atom_site_fract_y
_atom_site_fract_z
O1	O	0.928948	0.118224	-0.060526
O2	O	1.428948	0.618224	0.439474
O3	O	0.727712	0.134168	-0.060533
O4	O	1.227712	0.634168	0.439467
O5	O	0.825309	-0.011776	-0.060523
O6	O	1.325309	0.488224	0.439477
O7	O	0.831350	0.264168	-0.060537
O8	O	1.331350	0.764168	0.439463
O9	O	0.825291	-0.011783	0.060577
O10	O	1.325291	0.488217	0.560577
O11	O	0.727693	0.134161	0.060566
O12	O	1.227693	0.634161	0.560566
O13	O	0.928929	0.118216	0.060573
O14	O	1.428929	0.618216	0.560573
Zn15	Zn	0.828308	0.126188	0.079797
Zn16	Zn	1.328308	0.626188	0.579797
Zn17	Zn	0.828333	0.126197	-0.079757
Zn18	Zn	1.328333	0.626197	0.420243
O19	O	0.831332	0.264161	0.060563
O20	O	1.331332	0.764161	0.560563
C21	C	0.701793	0.133652	0.000016
C22	C	1.201793	0.633652	0.500016
C23	C	0.624591	0.132110	0.000013
C24	C	1.124591	0.632110	0.500013
C25	C	0.822656	-0.047082	0.000027
C26	C	1.322656	0.452918	0.500027
C27	C	0.814768	-0.152275	0.000028
C28	C	1.314768	0.347725	0.500028
C29	C	0.068322	0.121014	-0.065989
C30	C	0.568322	0.621014	0.434011
C31	C	0.140862	0.122456	-0.065992
C32	C	0.640862	0.622456	0.434008
C33	C	0.177128	0.123178	0.000019
C34	C	0.677128	0.623178	0.500019
C35	C	0.140847	0.122433	0.066038
C36	C	0.640847	0.622433	0.566038
C37	C	0.068309	0.120981	0.066039
C38	C	0.568309	0.620981	0.566039
C39	C	0.290161	0.180977	0.050589
C40	C	0.790161	0.680977	0.550589
C41	C	0.362698	0.182435	0.050585
C42	C	0.862698	0.682435	0.550585
C43	C	0.400861	0.127652	0.000019
C44	C	0.900861	0.627652	0.500019
C45	C	0.366477	0.071423	-0.050556
C46	C	0.866477	0.571423	0.449444
C47	C	0.293938	0.069971	-0.050555
C48	C	0.793938	0.569971	0.449445
C49	C	0.255783	0.124752	0.000025
C50	C	0.755783	0.624752	0.500025
C51	C	0.515789	0.129954	-0.065999
C52	C	1.015789	0.629954	0.434001
C53	C	0.588331	0.131390	-0.065999
C54	C	1.088331	0.631390	0.434001
C55	C	0.588314	0.131377	0.066033
C56	C	1.088314	0.631377	0.566033
C57	C	0.515774	0.129931	0.066031
C58	C	1.015774	0.629931	0.566031
C59	C	0.479515	0.129224	0.000013
C60	C	0.979515	0.629224	0.500013
C61	C	0.800347	-0.344875	0.000017
C62	C	1.300347	0.155125	0.500017
C63	C	0.856291	-0.402746	0.000017
C64	C	1.356291	0.097254	0.500017
C65	C	0.848267	-0.509915	0.000011
C66	C	1.348267	-0.009915	0.500011
C67	C	0.808370	-0.237695	0.000023
C68	C	1.308370	0.262305	0.500023
C69	C	0.954848	0.118733	0.000023
C70	C	1.454848	0.618733	0.500023
C71	C	1.032050	0.120274	0.000021
C72	C	1.532050	0.620274	0.500021
C73	C	0.833986	0.299467	0.000011
C74	C	1.333986	0.799467	0.500011
C75	C	0.841873	0.404660	0.000006
C76	C	1.341873	0.904660	0.500006
N77	N	0.828297	0.126181	0.188688
N78	N	1.328297	0.626181	0.688688
N79	N	0.828350	0.126197	-0.188648
N80	N	1.328350	0.626197	0.311352
C81	C	0.871530	0.061588	0.226793
C82	C	1.371530	0.561588	0.726793
C83	C	0.871534	0.061584	0.303021
C84	C	1.371534	0.561584	0.803021
C85	C	0.828313	0.126189	0.341141
C86	C	1.328313	0.626189	0.841141
C87	C	0.785070	0.190786	0.303026
C88	C	1.285070	0.690786	0.803026
C89	C	0.785062	0.190782	0.226800
C90	C	1.285062	0.690782	0.726800
C91	C	0.824562	0.212532	0.461896
C92	C	1.324562	0.712532	0.961896
C93	C	0.824575	0.212537	0.538121
C94	C	1.324575	0.712537	1.038121
C95	C	0.828333	0.126200	0.576248
C96	C	1.328333	0.626200	1.076248
C97	C	0.832093	0.039855	0.538141
C98	C	1.332093	0.539855	1.038141
C99	C	0.832085	0.039851	0.461914
C100	C	1.332085	0.539851	0.961914
C101	C	0.828316	0.126200	0.423795
C102	C	1.328316	0.626200	0.923795
C103	C	0.871573	0.061598	0.697008
C104	C	1.371573	0.561598	1.197008
C105	C	0.871573	0.061593	0.773238
C106	C	1.371573	0.561593	1.273238
C107	C	0.785112	0.190803	0.773242
C108	C	1.285112	0.690803	1.273242
C109	C	0.785109	0.190800	0.697014
C110	C	1.285109	0.690800	1.197014
C111	C	0.828344	0.126199	0.658902
C112	C	1.328344	0.626199	1.158902
H113	H	0.038805	0.120435	-0.119746
H114	H	0.538805	0.620435	0.380254
H115	H	0.038777	0.120382	0.119794
H116	H	0.538777	0.620382	0.619794
C117	C	0.737513	0.261845	0.184879
C118	C	1.237513	0.761845	0.684879
H119	H	0.743698	0.252589	0.134023
H120	H	1.243698	0.752589	0.634023
H121	H	0.748972	0.325063	0.197365
H122	H	1.248972	0.825063	0.697365
H123	H	0.690528	0.251711	0.197379
H124	H	1.190528	0.751711	0.697379
H125	H	0.397547	0.026817	-0.091734
H126	H	0.897547	0.526817	0.408266
C127	C	0.628196	0.132170	0.138644
C128	C	1.128196	0.632170	0.638644
H129	H	0.676593	0.133145	0.129191
H130	H	1.176593	0.633145	0.629191
H131	H	0.618179	0.076682	0.165770
H132	H	1.118179	0.576682	0.665770
H133	H	0.614431	0.187186	0.165765
H134	H	1.114431	0.687186	0.665765
C135	C	0.820440	0.307509	0.580036
C136	C	1.320440	0.807509	1.080036
H137	H	0.820992	0.295148	0.630894
H138	H	1.320992	0.795148	1.130894
H139	H	0.778734	0.341447	0.567552
H140	H	1.278734	0.841447	1.067552
H141	H	0.859056	0.344519	0.567528
H142	H	1.359056	0.844519	1.067528
C143	C	0.836221	-0.055121	0.580070
C144	C	1.336221	0.444879	1.080070
H145	H	0.835678	-0.042756	0.630925
H146	H	1.335678	0.457244	1.130925
H147	H	0.877922	-0.089070	0.567575
H148	H	1.377922	0.410930	1.067575
H149	H	0.797599	-0.092122	0.567586
H150	H	1.297599	0.407878	1.067586
H151	H	0.170400	0.123064	-0.119747
H152	H	0.670400	0.623064	0.380253
H153	H	0.906776	0.008989	0.804263
H154	H	1.406776	0.508989	1.304263
C155	C	0.919117	-0.009469	0.655079
C156	C	1.419117	0.490531	1.155079
H157	H	0.912926	-0.000213	0.604223
H158	H	1.412926	0.499787	1.104223
H159	H	0.907657	-0.072687	0.667581
H160	H	1.407657	0.427313	1.167581
H161	H	0.966103	0.000663	0.667559
H162	H	1.466103	0.500663	1.167559
C163	C	0.737568	0.261868	0.815161
C164	C	1.237568	0.761868	1.315161
H165	H	0.711816	0.300337	0.781546
H166	H	1.211816	0.800337	1.281546
H167	H	0.764991	0.301230	0.844887
H168	H	1.264991	0.801230	1.344887
H169	H	0.706550	0.227874	0.844906
H170	H	1.206550	0.727874	1.344906
C171	C	0.628230	0.132205	-0.138614
C172	C	1.128230	0.632205	0.361386
H173	H	0.596243	0.131585	-0.177928
H174	H	1.096243	0.631585	0.322072
H175	H	0.658401	0.077522	-0.141363
H176	H	1.158401	0.577522	0.358637
H177	H	0.654653	0.188026	-0.141353
H178	H	1.154653	0.688026	0.358647
H179	H	0.910211	-0.371805	-0.000030
H180	H	1.410211	0.128195	0.499970
C181	C	0.400514	0.244260	0.106229
C182	C	0.900514	0.744260	0.606229
H183	H	0.367399	0.276658	0.136358
H184	H	0.867399	0.776658	0.636358
H185	H	0.427307	0.289471	0.081206
H186	H	0.927307	0.789471	0.581206
H187	H	0.430159	0.204777	0.135468
H188	H	0.930159	0.704777	0.635468
H189	H	0.746431	-0.375814	0.000013
H190	H	1.246431	0.124186	0.500013
C191	C	0.737560	0.261863	0.655096
C192	C	1.237560	0.761863	1.155096
H193	H	0.711823	0.300345	0.688714
H194	H	1.211823	0.800345	1.188714
H195	H	0.706541	0.227875	0.625370
H196	H	1.206541	0.727875	1.125370
H197	H	0.764986	0.301225	0.625351
H198	H	1.264986	0.801225	1.125351
H199	H	0.835144	-0.030454	0.430891
H200	H	1.335144	0.469546	0.930891
C201	C	0.475858	0.129455	0.138641
C202	C	0.975858	0.629455	0.638641
H203	H	0.427461	0.128580	0.129187
H204	H	0.927461	0.628580	0.629187
H205	H	0.485954	0.185038	0.165603
H206	H	0.985954	0.685038	0.665603
H207	H	0.489526	0.074532	0.165925
H208	H	0.989526	0.574532	0.665925
H209	H	0.265946	0.024186	-0.091734
H210	H	0.765946	0.524186	0.408266
H211	H	0.821490	0.282842	0.430860
H212	H	1.321490	0.782842	0.930860
C213	C	0.919095	-0.009465	0.344949
C214	C	1.419095	0.490535	0.844949
H215	H	0.912904	-0.000212	0.395805
H216	H	1.412904	0.499788	0.895805
H217	H	0.966074	0.000671	0.332444
H218	H	1.466074	0.500671	0.832444
H219	H	0.907637	-0.072691	0.332471
H220	H	1.407637	0.427309	0.832471
C221	C	0.737530	0.261852	0.344955
C222	C	1.237530	0.761852	0.844955
H223	H	0.743732	0.252610	0.395811
H224	H	1.243732	0.752610	0.895811
H225	H	0.690547	0.251721	0.332478
H226	H	1.190547	0.751721	0.832478
H227	H	0.748991	0.325073	0.332449
H228	H	1.248991	0.825073	0.832449
C229	C	0.475902	0.129181	-0.138614
C230	C	0.975902	0.629181	0.361386
H231	H	0.507897	0.129818	-0.177929
H232	H	1.007897	0.629818	0.322071
H233	H	0.445736	0.183870	-0.141353
H234	H	0.945736	0.683870	0.358647
H235	H	0.449474	0.073365	-0.141362
H236	H	0.949474	0.573365	0.358638
C237	C	0.919078	-0.009480	0.184874
C238	C	1.419078	0.490520	0.684874
H239	H	0.944822	-0.047956	0.218490
H240	H	1.444822	0.452044	0.718490
H241	H	0.950091	0.024503	0.155123
H242	H	1.450091	0.524503	0.655123
H243	H	0.891647	-0.048848	0.155154
H244	H	1.391647	0.451152	0.655154
H245	H	0.259095	0.225584	0.091774
H246	H	0.759095	0.725584	0.591774
H247	H	0.170379	0.123019	0.119784
H248	H	0.670379	0.623019	0.619784
