data_functionalizedCrystal
_audit_creation_method	'MofGen! by Chris Wilmer'
_symmetry_space_group_name_H-M	'P1'
_symmetry_Int_Tables_number	1
_symmetry_cell_setting	triclinic
loop_
_symmetry_equiv_pos_as_xyz
  x,y,z
_cell_length_a	18.101398
_cell_length_b	18.101395
_cell_length_c	18.101389
_cell_angle_alpha	90.020787
_cell_angle_beta	90.026178
_cell_angle_gamma	90.026279
loop_
_atom_site_label
_atom_site_type_symbol
_atom_site_fract_x
_atom_site_fract_y
_atom_site_fract_z
Zn1	Zn	-1.132107	0.294974	-0.418922
Zn2	Zn	-1.132007	0.418808	-0.295084
Zn3	Zn	-1.008270	0.294974	-0.295075
Zn4	Zn	-1.008216	0.418768	-0.418864
O5	O	-1.070150	0.356881	-0.356986
O6	O	-1.235726	0.311417	-0.402522
O7	O	-1.115573	0.402398	-0.191450
O8	O	-1.024761	0.191341	-0.311524
O9	O	-1.235653	0.402398	-0.311539
O10	O	-1.115744	0.191341	-0.402514
O11	O	-1.024664	0.311418	-0.191443
O12	O	-0.904630	0.311379	-0.311468
O13	O	-1.024670	0.402329	-0.522505
O14	O	-0.904591	0.402329	-0.402415
O15	O	-1.115692	0.311378	-0.522547
O16	O	-1.115522	0.522435	-0.311483
O17	O	-1.024573	0.522406	-0.402424
C18	C	-0.877739	0.356851	-0.356935
C19	C	-0.795425	0.356855	-0.356930
C20	C	-1.070051	0.549291	-0.356964
C21	C	-1.070076	0.631606	-0.356980
C22	C	-1.070186	0.356849	-0.550148
C23	C	-1.070202	0.356835	-0.632462
C24	C	-0.644717	0.356864	-0.356955
C25	C	-0.613363	0.299557	-0.299827
C26	C	-0.527745	0.299338	-0.300009
C27	C	-0.496334	0.356872	-0.356978
C28	C	-0.527472	0.336049	-0.435114
C29	C	-0.613117	0.335628	-0.434771
C30	C	-0.613114	0.435141	-0.336634
C31	C	-0.527463	0.434724	-0.334926
C32	C	-0.412475	0.356878	-0.356996
C33	C	-0.728576	0.356856	-0.356942
C34	C	-0.263312	0.356901	-0.357024
C35	C	-0.345626	0.356881	-0.357002
C36	C	-1.070270	0.163719	-0.357024
C37	C	-1.070321	0.081405	-0.357041
C38	C	-1.070239	0.930696	-0.357020
C39	C	-1.013149	0.899383	-0.414379
C40	C	-1.012878	0.813765	-0.414200
C41	C	-1.070158	0.782314	-0.357001
C42	C	-1.049032	0.813455	-0.278948
C43	C	-1.048664	0.899100	-0.279291
C44	C	-1.148580	0.899049	-0.377026
C45	C	-1.148119	0.813398	-0.378738
C46	C	-1.070114	0.698454	-0.356985
C47	C	-1.070281	1.014556	-0.357030
C48	C	-1.070229	0.356778	-0.783171
C49	C	-1.012970	0.413990	-0.814498
C50	C	-1.012762	0.413789	-0.900116
C51	C	-1.070257	0.356722	-0.931553
C52	C	-1.049370	0.278625	-0.900466
C53	C	-1.048939	0.278989	-0.814821
C54	C	-1.148526	0.376967	-0.814752
C55	C	-1.148122	0.378657	-0.900402
C56	C	-1.070274	0.356686	-1.015413
C57	C	-1.070211	0.356808	-0.699311
C58	C	-1.070157	0.356859	-0.164576
C59	C	-1.070285	0.356664	-0.082262
H60	H	-0.506690	0.312328	-0.242082
C61	C	-1.102849	0.219416	-0.786822
N62	N	-1.143449	0.174543	-0.765737
H63	H	-0.633906	0.312401	-0.241709
H64	H	-0.507108	0.450432	-0.277421
C65	C	-0.500098	0.220982	-0.318240
N66	N	-0.479274	0.161963	-0.331976
C67	C	-0.972482	0.784564	-0.255647
N68	N	-0.914823	0.762805	-0.238101
H69	H	-1.191184	0.335295	-0.794499
H70	H	-0.634910	0.241883	-0.313145
C71	C	-1.174270	0.452622	-0.785580
N72	N	-1.193653	0.509609	-0.763608
C73	C	-0.498575	0.495461	-0.387005
N74	N	-0.476816	0.541207	-0.426237
C75	C	-0.642237	0.460831	-0.260945
N76	N	-0.664172	0.480173	-0.203932
H77	H	-1.026095	0.792709	-0.472075
H78	H	-0.991397	0.919136	-0.262345
C79	C	-1.103978	0.219433	-0.927999
N80	N	-1.145103	0.174849	-0.948748
H81	H	-1.025800	0.471691	-0.921135
C82	C	-1.174599	0.928165	-0.452611
N83	N	-1.194189	0.950095	-0.509545
H84	H	-1.164051	0.793043	-0.436180
C85	C	-1.169407	0.456304	-0.927850
N86	N	-1.185437	0.514789	-0.948527
H87	H	-1.192904	0.791985	-0.340006
C88	C	-0.640143	0.258341	-0.457970
N89	N	-0.660496	0.200125	-0.475441
H90	H	-0.991715	0.261907	-0.794834
C91	C	-0.935036	0.396125	-0.785417
N92	N	-0.876335	0.382665	-0.763514
H93	H	-0.954810	0.793336	-0.400947
C94	C	-1.206042	0.926408	-0.320591
N95	N	-1.249317	0.947021	-0.278083
C96	C	-0.640512	0.492819	-0.392837
N97	N	-0.661154	0.536256	-0.435172
H98	H	-0.633861	0.375571	-0.478809
H99	H	-1.025846	0.472089	-0.793905
H100	H	-0.507129	0.376516	-0.478855
C101	C	-0.934396	0.395676	-0.927785
N102	N	-0.875369	0.382029	-0.948624
H103	H	-0.506051	0.279472	-0.452591
H104	H	-1.026236	0.919939	-0.472442
H105	H	-1.089305	0.793083	-0.235045
H106	H	-0.955434	0.920964	-0.401293
C107	C	-0.972923	0.255127	-0.929430
N108	N	-0.915343	0.237431	-0.951245
C109	C	-1.102393	0.927088	-0.219579
N110	N	-1.142856	0.948165	-0.174600
C111	C	-1.208821	0.326468	-0.929304
N112	N	-1.254538	0.287152	-0.951070
