data_functionalizedCrystal
_audit_creation_method	'MofGen! by Chris Wilmer'
_symmetry_space_group_name_H-M	'P1'
_symmetry_Int_Tables_number	1
_symmetry_cell_setting	triclinic
loop_
_symmetry_equiv_pos_as_xyz
  x,y,z
_cell_length_a	15.297327
_cell_length_b	18.215407
_cell_length_c	18.215399
_cell_angle_alpha	90.017368
_cell_angle_beta	80.351692
_cell_angle_gamma	99.704016
loop_
_atom_site_label
_atom_site_type_symbol
_atom_site_fract_x
_atom_site_fract_y
_atom_site_fract_z
Zn1	Zn	-0.359235	1.074350	0.466758
Zn2	Zn	-0.510106	1.052956	0.364980
Zn3	Zn	-0.359257	0.951279	0.343713
Zn4	Zn	-0.510048	0.929954	0.488002
O5	O	-0.434661	1.002135	0.415863
O6	O	-0.379264	1.174494	0.453266
O7	O	-0.490129	1.039440	0.259179
O8	O	-0.233007	0.985483	0.342244
O9	O	-0.490108	1.158776	0.378490
O10	O	-0.232991	1.075902	0.432644
O11	O	-0.379300	0.964738	0.243555
O12	O	-0.379244	0.845468	0.362844
O13	O	-0.490009	0.949137	0.588164
O14	O	-0.490030	0.829801	0.468853
O15	O	-0.379207	1.055224	0.572555
O16	O	-0.636345	1.018761	0.399090
O17	O	-0.636302	0.928393	0.489474
C18	C	-0.434634	0.810932	0.415847
C19	C	-0.434643	0.729132	0.415860
C20	C	-0.377046	0.549105	0.454887
C21	C	-0.377053	0.472245	0.454890
C22	C	-0.492302	0.455913	0.376857
C23	C	-0.492289	0.532772	0.376849
C24	C	-0.434662	0.579366	0.415868
C25	C	-0.434683	0.425647	0.415879
C26	C	-0.434692	0.342312	0.415883
C27	C	-0.434652	0.662706	0.415864
C28	C	-0.669058	0.968961	0.448911
C29	C	-0.769333	0.954837	0.463074
C30	C	-1.051958	1.103387	0.314891
C31	C	-0.957744	1.116657	0.301581
C32	C	-0.910636	1.076204	0.341953
C33	C	-0.957753	1.022477	0.395638
C34	C	-1.051976	1.009201	0.408945
C35	C	-0.910655	0.982018	0.436007
C36	C	-0.957771	0.928291	0.489692
C37	C	-1.051985	0.915019	0.502997
C38	C	-1.099092	0.955472	0.462625
C39	C	-0.816431	0.995294	0.422700
C40	C	-0.816450	0.901108	0.516754
C41	C	-0.910664	0.887838	0.530064
C42	C	-0.199350	1.035458	0.382702
C43	C	-0.099074	1.049658	0.368571
C44	C	-0.434599	1.002188	0.607808
C45	C	-0.434573	1.002211	0.689603
C46	C	-0.434690	1.194084	0.415881
C47	C	-0.434702	1.275881	0.415888
C48	C	-0.434658	1.002133	0.224657
C49	C	-0.434430	1.002289	0.142826
C50	C	-0.376824	1.057475	0.869663
C51	C	-0.376798	1.057488	0.946518
C52	C	-0.492181	0.947019	0.962761
C53	C	-0.492202	0.947004	0.885906
C54	C	-0.434525	1.002236	0.839360
C55	C	-0.434478	1.002264	0.993069
C56	C	-0.434450	1.002277	1.076399
C57	C	-0.434552	1.002222	0.756024
H58	H	-0.833923	1.087011	0.331112
H59	H	-0.539221	0.417968	0.345089
H60	H	-0.330119	0.587040	0.486656
H61	H	-0.330135	0.447611	0.486661
H62	H	-0.919385	1.160400	0.257871
N63	N	-0.554443	0.565414	0.334768
H64	H	-0.545686	0.621174	0.340683
H65	H	-0.540324	0.553957	0.280237
N66	N	-0.554448	0.887425	0.853219
H67	H	-0.545706	0.895797	0.797469
H68	H	-0.540399	0.836856	0.864665
H69	H	-0.329857	1.102447	0.831766
H70	H	-0.329811	1.102468	0.971187
H71	H	-0.778078	1.039038	0.378989
H72	H	-1.090321	1.136314	0.282022
N73	N	-0.554386	0.887460	1.012977
H74	H	-0.618852	0.889757	1.008690
H75	H	-0.540296	0.836889	0.997598
H76	H	-1.175809	0.944672	0.473461
N77	N	-1.102806	0.857060	0.560886
H78	H	-1.058670	0.833446	0.584442
H79	H	-1.141846	0.881493	0.600484
N80	N	-0.961480	0.829887	0.587962
H81	H	-1.000517	0.854276	0.627603
H82	H	-1.000575	0.790302	0.563492
H83	H	-0.778095	0.868166	0.549627
