data_functionalizedCrystal
_audit_creation_method	'MofGen! by Chris Wilmer'
_symmetry_space_group_name_H-M	'P1'
_symmetry_Int_Tables_number	1
_symmetry_cell_setting	triclinic
loop_
_symmetry_equiv_pos_as_xyz
  x,y,z
_cell_length_a	27.732048
_cell_length_b	15.995350
_cell_length_c	14.472310
_cell_angle_alpha	90.001162
_cell_angle_beta	89.992508
_cell_angle_gamma	83.067515
loop_
_atom_site_label
_atom_site_type_symbol
_atom_site_fract_x
_atom_site_fract_y
_atom_site_fract_z
O1	O	0.641363	0.099622	-0.076718
O2	O	0.500635	0.114770	-0.076745
O3	O	0.574846	-0.014741	-0.076730
O4	O	0.567152	0.229134	-0.076733
O5	O	0.574827	-0.014733	0.076952
O6	O	0.500616	0.114778	0.076937
O7	O	0.641344	0.099630	0.076964
Cu8	Cu	0.570978	0.107205	0.090983
Cu9	Cu	0.571001	0.107196	-0.090764
O10	O	0.567133	0.229141	0.076949
C11	C	0.574518	-0.045928	0.000109
C12	C	0.573565	-0.138866	0.000104
C13	C	0.482617	0.114456	0.000092
C14	C	0.428958	0.113499	0.000082
C15	C	0.570140	-0.476569	0.000106
C16	C	0.517289	-0.428451	-0.000249
C17	C	0.518242	-0.331773	0.000098
C18	C	0.571839	-0.309031	0.000105
C19	C	0.597896	-0.350441	0.087868
C20	C	0.596569	-0.447060	0.087941
C21	C	0.597682	-0.447441	-0.086824
C22	C	0.597670	-0.350495	-0.087984
C23	C	0.572802	-0.214346	0.000107
C24	C	0.569179	-0.571255	0.000110
C25	C	0.090447	0.184004	0.000121
C26	C	-0.111228	0.180451	0.000129
O27	O	-0.142205	0.244923	0.000168
N28	N	-0.130683	0.103656	0.000128
C29	C	-0.099715	0.027744	0.000132
O30	O	-0.120891	-0.037657	0.000141
C31	C	0.101958	0.031297	0.000130
C32	C	0.121410	0.108097	0.000121
C33	C	0.109900	0.260797	0.000113
C34	C	0.160315	0.261685	0.000106
C35	C	0.191279	0.185778	0.000107
C36	C	0.171826	0.108985	0.000114
C37	C	0.132925	-0.044614	0.000140
C38	C	0.183346	-0.043719	0.000142
C39	C	0.202798	0.033081	0.000133
C40	C	0.253205	0.033965	0.000108
N41	N	0.272660	0.110761	0.000108
C42	C	0.241697	0.186667	0.000108
C43	C	-0.205598	0.025883	0.000131
C44	C	-0.256016	0.024995	0.000130
C45	C	-0.267525	0.177703	0.000129
C46	C	-0.217106	0.178590	0.000123
C47	C	-0.186143	0.102679	0.000132
C48	C	0.347574	0.188525	0.000092
C49	C	0.397995	0.189405	0.000081
C50	C	0.409499	0.036698	0.000087
C51	C	0.359083	0.035817	0.000093
C52	C	0.328121	0.111737	0.000099
O53	O	0.284211	-0.030472	0.000079
O54	O	0.262881	0.252058	0.000119
C55	C	0.040031	0.183116	0.000128
C56	C	0.020579	0.106323	0.000136
C57	C	0.051542	0.030416	0.000136
C58	C	-0.029839	0.105434	0.000134
C59	C	-0.060803	0.181340	0.000134
C60	C	-0.041348	0.258135	0.000134
C61	C	0.009068	0.259023	0.000127
C62	C	0.032087	-0.046379	0.000136
C63	C	-0.018329	-0.047260	0.000142
C64	C	-0.049292	0.028646	0.000141
C65	C	0.659362	0.099944	0.000125
C66	C	0.713021	0.100901	0.000129
C67	C	0.567461	0.260328	0.000108
C68	C	0.568414	0.353266	0.000107
N69	N	0.570966	0.107210	0.218814
N70	N	0.571017	0.107183	-0.218595
C71	C	0.571000	0.107192	0.592905
C72	C	0.531158	0.176262	0.553731
C73	C	0.531250	0.176511	0.446643
C74	C	0.570983	0.107201	0.407314
C75	C	0.621417	0.125630	0.446161
C76	C	0.621193	0.126121	0.553282
C77	C	0.560858	0.019484	0.553433
C78	C	0.559701	0.020084	0.446305
C79	C	0.570976	0.107205	0.302426
C80	C	0.571010	0.107190	0.697793
H81	H	0.497759	-0.303089	-0.062815
H82	H	-0.201272	0.241128	0.000121
O83	O	-0.175592	-0.047939	0.000092
C84	C	-0.203582	-0.115901	0.000112
H85	H	-0.241206	-0.094140	-0.028982
H86	H	-0.184991	-0.169050	-0.044507
H87	H	-0.207182	-0.139471	0.073841
H88	H	-0.271849	-0.037543	0.000122
H89	H	0.322370	0.250346	0.000100
H90	H	0.524880	0.001601	0.580494
O91	O	0.575021	-0.317748	-0.165538
C92	C	0.598525	-0.355406	-0.244178
H93	H	0.618847	-0.419141	-0.224479
H94	H	0.570376	-0.364546	-0.299505
H95	H	0.625356	-0.312982	-0.272140
H96	H	0.493548	0.165567	0.579512
H97	H	0.496250	-0.447770	0.062330
O98	O	0.644296	-0.332729	-0.094143
C99	C	0.654624	-0.282138	-0.018607
H100	H	0.628726	-0.291478	0.040661
H101	H	0.693651	-0.300893	0.004975
H102	H	0.649845	-0.213136	-0.040374
O103	O	0.538859	0.253436	0.585875
C104	C	0.580085	0.245278	0.643668
H105	H	0.604380	0.184799	0.625758
H106	H	0.601099	0.301542	0.633091
H107	H	0.568112	0.242895	0.718887
O108	O	0.644148	-0.486034	-0.087413
C109	C	0.651772	-0.539076	-0.009649
H110	H	0.615428	-0.556846	0.015634
H111	H	0.676501	-0.598552	-0.029413
H112	H	0.669551	-0.504723	0.047713
H113	H	0.630568	0.188843	0.419325
H114	H	-0.034161	-0.109804	0.000141
H115	H	0.343245	-0.026720	0.000087
O116	O	0.079806	0.334517	0.000270
C117	C	0.050278	0.338588	0.079845
H118	H	0.068727	0.295533	0.135487
H119	H	0.044620	0.406113	0.106550
H120	H	0.013612	0.317412	0.061848
H121	H	0.651773	0.076634	0.420684
O122	O	0.577148	-0.471786	-0.166207
C123	C	0.611835	-0.524859	-0.216949
H124	H	0.641337	-0.554706	-0.168268
H125	H	0.593383	-0.576421	-0.251884
H126	H	0.628832	-0.486367	-0.271727
O127	O	0.179127	0.336363	0.000150
C128	C	0.140979	0.403160	0.000131
H129	H	0.106727	0.380131	0.029222
H130	H	0.151511	0.456820	0.044754
H131	H	0.133850	0.426543	-0.073597
O132	O	0.493562	-0.298290	0.075243
C133	C	0.445090	-0.316380	0.071267
H134	H	0.442979	-0.374119	0.025948
H135	H	0.431960	-0.329438	0.143906
H136	H	0.421136	-0.260215	0.040733
H137	H	0.413829	0.251948	0.000073
O138	O	0.644888	-0.334307	0.091897
C139	C	0.667176	-0.372351	0.171469
H140	H	0.646793	-0.426586	0.194294
H141	H	0.706488	-0.397422	0.155136
H142	H	0.666271	-0.323809	0.229319
O143	O	-0.297676	0.251363	0.000171
C144	C	-0.346346	0.234100	0.000147
H145	H	-0.348281	0.168357	0.029236
H146	H	-0.369190	0.282517	0.044770
H147	H	-0.360922	0.237467	-0.073582
O148	O	0.515439	0.003491	0.415910
C149	C	0.494731	0.070355	0.359674
H150	H	0.524728	0.105560	0.330567
H151	H	0.474015	0.044198	0.300381
H152	H	0.468706	0.115373	0.402598
H153	H	0.117096	-0.107153	0.000148
O154	O	0.213354	-0.117539	0.000104
C155	C	0.185368	-0.185507	0.000135
H156	H	0.147743	-0.163753	-0.028956
H157	H	0.203960	-0.238655	-0.044484
H158	H	0.181773	-0.209072	0.073865
O159	O	0.538919	0.254238	0.416168
C160	C	0.501576	0.314563	0.448999
H161	H	0.484585	0.289265	0.513370
H162	H	0.517324	0.375164	0.466896
H163	H	0.472625	0.328042	0.393282
H164	H	0.434719	-0.025103	0.000084
O165	O	0.027880	0.333701	0.000166
C166	C	-0.010269	0.400498	0.000144
H167	H	-0.044520	0.377471	0.029240
H168	H	0.000264	0.454161	0.044762
H169	H	-0.017398	0.423876	-0.073585
O170	O	0.592126	-0.043948	0.414327
C171	C	0.625866	-0.011230	0.355677
H172	H	0.627398	0.057956	0.372847
H173	H	0.663321	-0.047974	0.366067
H174	H	0.614165	-0.017215	0.280693
O175	O	0.631922	0.202400	0.582971
C176	C	0.678188	0.216000	0.550039
H177	H	0.687428	0.175595	0.486100
H178	H	0.678042	0.285279	0.531411
H179	H	0.706505	0.198125	0.605974
O180	O	0.595542	-0.041733	0.583771
C181	C	0.628842	-0.005534	0.640355
H182	H	0.610768	0.056652	0.669618
H183	H	0.640793	-0.050337	0.699531
H184	H	0.661892	0.006354	0.597674
O185	O	0.573827	-0.468688	0.166101
C186	C	0.532404	-0.507100	0.142131
H187	H	0.536967	-0.534054	0.069303
H188	H	0.527866	-0.560012	0.192989
H189	H	0.498884	-0.458297	0.144719
O190	O	0.492154	-0.450359	-0.075353
C191	C	0.521996	-0.509505	-0.128752
H192	H	0.551870	-0.542996	-0.083274
H193	H	0.499184	-0.557668	-0.158728
H194	H	0.539063	-0.475679	-0.187431
O195	O	-0.071480	0.331818	0.000011
C196	C	-0.100977	0.335874	-0.079590
H197	H	-0.103525	0.269447	-0.106127
H198	H	-0.138870	0.367553	-0.061683
H199	H	-0.084388	0.373900	-0.135325
O200	O	0.062092	-0.120195	0.000092
C201	C	0.034103	-0.188158	0.000117
H202	H	-0.003522	-0.166397	-0.028970
H203	H	0.052692	-0.241306	-0.044506
H204	H	0.030508	-0.211728	0.073846
H205	H	0.635371	-0.479810	0.091928
O206	O	0.657650	0.068452	0.584304
C207	C	0.690144	0.109214	0.638217
H208	H	0.670659	0.170919	0.666051
H209	H	0.703809	0.066863	0.698413
H210	H	0.722238	0.122822	0.593784
H211	H	0.493761	0.165627	0.420380
H212	H	0.579782	-0.321822	0.153174
