data_functionalizedCrystal
_audit_creation_method	'MofGen! by Chris Wilmer'
_symmetry_space_group_name_H-M	'P1'
_symmetry_Int_Tables_number	1
_symmetry_cell_setting	triclinic
loop_
_symmetry_equiv_pos_as_xyz
  x,y,z
_cell_length_a	12.759401
_cell_length_b	18.101395
_cell_length_c	12.759393
_cell_angle_alpha	89.966555
_cell_angle_beta	89.981504
_cell_angle_gamma	90.031265
loop_
_atom_site_label
_atom_site_type_symbol
_atom_site_fract_x
_atom_site_fract_y
_atom_site_fract_z
Zn1	Zn	1.606136	-0.294783	-0.593968
Zn2	Zn	2.106136	0.205217	-0.093968
Zn3	Zn	1.605980	-0.418644	-0.418282
Zn4	Zn	2.105980	0.081356	0.081718
Zn5	Zn	1.430438	-0.294822	-0.418307
Zn6	Zn	1.930438	0.205178	0.081693
Zn7	Zn	1.430376	-0.418587	-0.593923
Zn8	Zn	1.930376	0.081413	-0.093923
O9	O	1.518232	-0.356709	-0.506120
O10	O	2.018232	0.143291	-0.006120
O11	O	1.753136	-0.311221	-0.570671
O12	O	2.253136	0.188779	-0.070671
O13	O	1.582654	-0.402259	-0.271264
O14	O	2.082654	0.097741	0.228736
O15	O	1.453835	-0.191183	-0.441638
O16	O	1.953835	0.308817	0.058362
O17	O	1.753021	-0.402221	-0.441595
O18	O	2.253021	0.097779	0.058405
O19	O	1.582920	-0.191155	-0.570695
O20	O	2.082920	0.308845	-0.070695
O21	O	1.453684	-0.311287	-0.271283
O22	O	1.953684	0.188713	0.228717
O23	O	1.283408	-0.311232	-0.441595
O24	O	1.783408	0.188768	0.058405
O25	O	1.453730	-0.402124	-0.740950
O26	O	1.953730	0.097876	-0.240950
O27	O	1.283363	-0.402162	-0.570619
O28	O	1.783363	0.097838	-0.070619
O29	O	1.582860	-0.311166	-0.740983
O30	O	2.082860	0.188834	-0.240983
O31	O	1.582594	-0.522270	-0.441552
O32	O	2.082594	-0.022270	0.058448
O33	O	1.453579	-0.522228	-0.570595
O34	O	1.953579	-0.022228	-0.070595
C35	C	1.245265	-0.356695	-0.506106
C36	C	1.745265	0.143305	-0.006106
C37	C	1.128488	-0.356707	-0.506125
C38	C	1.628488	0.143293	-0.006125
C39	C	1.073630	-0.404131	-0.573197
C40	C	1.573630	0.095869	-0.073197
C41	C	0.963906	-0.404140	-0.573208
C42	C	1.463906	0.095860	-0.073208
C43	C	0.963908	-0.309301	-0.439066
C44	C	1.463908	0.190699	0.060934
C45	C	1.073630	-0.309288	-0.439061
C46	C	1.573630	0.190712	0.060939
C47	C	1.128488	-0.451550	-0.640260
C48	C	1.628488	0.048450	-0.140260
C49	C	1.073630	-0.498977	-0.707337
C50	C	1.573630	0.001023	-0.207337
C51	C	0.963906	-0.498987	-0.707348
C52	C	1.463906	0.001013	-0.207348
C53	C	0.909040	-0.451568	-0.640283
C54	C	1.409040	0.048432	-0.140283
C55	C	1.518092	-0.549120	-0.506089
C56	C	2.018092	-0.049120	-0.006089
C57	C	1.518128	-0.631434	-0.506111
C58	C	2.018128	-0.131434	-0.006111
C59	C	1.518358	-0.930525	-0.506168
C60	C	2.018358	-0.430525	-0.006168
C61	C	1.437374	-0.899204	-0.587559
C62	C	1.937374	-0.399204	-0.087559
C63	C	1.436989	-0.813586	-0.587305
C64	C	1.936989	-0.313586	-0.087305
C65	C	1.518244	-0.782142	-0.506140
C66	C	2.018244	-0.282142	-0.006140
C67	C	1.488263	-0.813302	-0.395415
C68	C	1.988263	-0.313302	0.104585
C69	C	1.487741	-0.898947	-0.395903
C70	C	1.987741	-0.398947	0.104097
C71	C	1.629501	-0.898866	-0.534526
C72	C	2.129501	-0.398866	-0.034526
C73	C	1.628847	-0.813215	-0.536954
C74	C	2.128847	-0.313215	-0.036954
C75	C	1.518181	-0.698283	-0.506118
C76	C	2.018181	-0.198283	-0.006118
C77	C	1.518418	-1.014384	-0.506182
C78	C	2.018418	-0.514384	-0.006182
C79	C	1.792265	-0.356723	-0.506135
C80	C	2.292265	0.143277	-0.006135
C81	C	1.909042	-0.356729	-0.506141
C82	C	2.409042	0.143271	-0.006141
C83	C	1.518306	-0.356634	-0.780153
C84	C	2.018306	0.143366	-0.280153
C85	C	1.518337	-0.356602	-0.896930
C86	C	2.018337	0.143398	-0.396930
C87	C	1.518402	-0.163547	-0.506174
C88	C	2.018402	0.336453	-0.006174
C89	C	1.518474	-0.081233	-0.506197
C90	C	2.018474	0.418767	-0.006197
C91	C	1.585584	-0.309236	-0.951811
C92	C	2.085584	0.190764	-0.451811
C93	C	1.585609	-0.309209	-1.061535
C94	C	2.085609	0.190791	-0.561535
C95	C	1.451137	-0.403922	-1.061488
C96	C	1.951137	0.096078	-0.561488
C97	C	1.451108	-0.403944	-0.951766
C98	C	1.951108	0.096056	-0.451766
C99	C	1.652814	-0.261894	-0.896975
C100	C	2.152814	0.238106	-0.396975
C101	C	1.720068	-0.214524	-0.951856
C102	C	2.220068	0.285476	-0.451856
C103	C	1.720092	-0.214497	-1.061580
C104	C	2.220092	0.285503	-0.561580
C105	C	1.652864	-0.261840	-1.116423
C106	C	2.152864	0.238160	-0.616423
C107	C	1.518219	-0.356730	-0.233153
C108	C	2.018219	0.143270	0.266847
C109	C	1.518392	-0.356553	-0.116376
C110	C	2.018392	0.143447	0.383624
H111	H	0.919227	-0.270696	-0.384464
H112	H	1.419227	0.229304	0.115536
H113	H	1.652803	-0.261912	-0.807632
H114	H	2.152803	0.238088	-0.307632
H115	H	1.118297	-0.270667	-0.384453
H116	H	1.618297	0.229333	0.115547
H117	H	1.656833	-0.920408	-0.613890
H118	H	2.156833	-0.420408	-0.113890
O119	O	1.378635	-0.454983	-1.120642
O120	O	1.878635	0.045017	-0.620642
H121	H	1.331860	-0.487920	-1.064045
H122	H	1.831860	0.012080	-0.564045
O123	O	1.562482	-0.926392	-0.312832
O124	O	2.062482	-0.426392	0.187168
H125	H	1.624535	-0.960384	-0.350077
H126	H	2.124535	-0.460384	0.149923
O127	O	1.461810	-0.785694	-0.696074
O128	O	1.961810	-0.285694	-0.196074
H129	H	1.533972	-0.751473	-0.693509
H130	H	2.033972	-0.251473	-0.193509
O131	O	1.652876	-0.261812	-1.234770
O132	O	2.152876	0.238188	-0.734770
H133	H	1.732108	-0.276782	-1.263709
H134	H	2.232108	0.223218	-0.763709
O135	O	1.658801	-0.786224	-0.644888
O136	O	2.158801	-0.286224	-0.144888
H137	H	1.670747	-0.834316	-0.697473
H138	H	2.170747	-0.334316	-0.197473
O139	O	1.132811	-0.550106	-0.779678
O140	O	1.632811	-0.050106	-0.279678
H141	H	1.111713	-0.608218	-0.761531
H142	H	1.611713	-0.108218	-0.261531
O143	O	0.904731	-0.550214	-0.779578
O144	O	1.404731	-0.050214	-0.279578
H145	H	0.961315	-0.583216	-0.826160
H146	H	1.461315	-0.083216	-0.326160
H147	H	1.355493	-0.920792	-0.569012
H148	H	1.855493	-0.420792	-0.069012
H149	H	1.692377	-0.791806	-0.481993
H150	H	2.192377	-0.291806	0.018007
H151	H	1.396333	-0.442503	-0.907081
H152	H	1.896333	0.057497	-0.407081
O153	O	1.461584	-0.926768	-0.696573
O154	O	1.961584	-0.426768	-0.196573
H155	H	1.531645	-0.963040	-0.693927
H156	H	2.031645	-0.463040	-0.193927
H157	H	0.819695	-0.451573	-0.640307
H158	H	1.319695	0.048427	-0.140307
O159	O	1.327875	-0.786524	-0.562397
O160	O	1.827875	-0.286524	-0.062397
H161	H	1.275179	-0.834610	-0.550478
H162	H	1.775179	-0.334610	-0.050478
H163	H	1.406496	-0.918992	-0.371879
H164	H	1.906496	-0.418992	0.128121
O165	O	1.246833	-0.451541	-0.640249
O166	O	1.746833	0.048459	-0.140249
H167	H	1.275714	-0.466441	-0.560963
H168	H	1.775714	0.033559	-0.060963
H169	H	1.545393	-0.792936	-0.333119
H170	H	2.045393	-0.292936	0.166881
O171	O	1.381782	-0.784989	-0.363014
O172	O	1.881782	-0.284989	0.136986
H173	H	1.350043	-0.748734	-0.425587
H174	H	1.850043	-0.248734	0.074413
H175	H	1.689837	-0.919120	-0.475245
H176	H	2.189837	-0.419120	0.024755
H177	H	1.774796	-0.175974	-0.907195
H178	H	2.274796	0.324026	-0.407195
O179	O	1.792624	-0.163409	-1.120779
O180	O	2.292624	0.336591	-0.620779
H181	H	1.839371	-0.130500	-1.064211
H182	H	2.339371	0.369500	-0.564211
