data_functionalizedCrystal
_audit_creation_method	'MofGen! by Chris Wilmer'
_symmetry_space_group_name_H-M	'P1'
_symmetry_Int_Tables_number	1
_symmetry_cell_setting	triclinic
loop_
_symmetry_equiv_pos_as_xyz
  x,y,z
_cell_length_a	13.635800
_cell_length_b	13.167930
_cell_length_c	9.514088
_cell_angle_alpha	85.348595
_cell_angle_beta	61.156455
_cell_angle_gamma	105.754568
loop_
_atom_site_label
_atom_site_type_symbol
_atom_site_fract_x
_atom_site_fract_y
_atom_site_fract_z
V1	V	-2.122830	-0.150888	0.523229
O2	O	-2.100187	0.005286	0.490423
O3	O	-2.111608	-0.297296	0.541623
O4	O	-2.140082	-0.149429	0.741403
O5	O	-2.071516	-0.143604	0.289260
V6	V	-2.357591	-0.132106	0.492575
O7	O	-2.268815	-0.192088	0.590471
O8	O	-2.436704	-0.090906	0.425334
O9	O	-2.257209	0.014302	0.474182
O10	O	-2.438931	-0.288280	0.525381
O11	O	-2.467603	-0.139389	0.726544
O12	O	-2.228735	-0.133565	0.274401
V13	V	-1.622830	-0.150888	0.523229
O14	O	-1.600187	0.005286	0.490423
O15	O	-1.611608	-0.297296	0.541623
O16	O	-1.640082	-0.149429	0.741403
O17	O	-1.571516	-0.143604	0.289260
V18	V	-1.857591	-0.132106	0.492575
O19	O	-1.768815	-0.192088	0.590471
O20	O	-1.936704	-0.090906	0.425334
O21	O	-1.757209	0.014302	0.474182
O22	O	-1.938931	-0.288280	0.525381
O23	O	-1.967603	-0.139389	0.726544
O24	O	-1.728735	-0.133565	0.274401
C25	C	-2.035924	-0.332960	0.539038
C26	C	-2.067668	-0.452656	0.555532
C27	C	-2.028089	-0.645703	0.287594
C28	C	-2.057913	-0.758167	0.303083
C29	C	-2.157148	-0.790051	0.601998
C30	C	-2.127324	-0.677587	0.586509
C31	C	-2.062792	-0.605416	0.429302
C32	C	-2.032961	-0.492949	0.413813
C33	C	-2.132203	-0.524835	0.712728
C34	C	-2.162027	-0.637300	0.728217
C35	C	-2.072245	-0.144339	0.793875
C36	C	-2.127079	-0.144115	0.972378
C37	C	-2.164564	0.049961	0.476763
C38	C	-2.122440	0.169656	0.460280
C39	C	-2.128241	-0.138657	0.221921
C40	C	-2.063026	-0.138876	0.043416
C41	C	-1.535924	-0.332960	0.539038
C42	C	-1.567668	-0.452656	0.555532
C43	C	-1.572245	-0.144339	0.793875
C44	C	-1.627079	-0.144115	0.972378
C45	C	-1.664564	0.049961	0.476763
C46	C	-1.622440	0.169656	0.460280
C47	C	-1.628241	-0.138657	0.221921
C48	C	-1.563026	-0.138876	0.043416
C49	C	-1.675686	-0.514387	0.572124
C50	C	-1.705535	-0.626858	0.587647
C51	C	-1.627362	-0.677593	0.586565
C52	C	-1.519337	-0.615854	0.569975
C53	C	-1.489493	-0.503387	0.554465
C54	C	-1.686918	0.231387	0.443692
C55	C	-1.647341	0.343856	0.428177
C56	C	-1.543292	0.394592	0.429263
C57	C	-1.478809	0.332853	0.445848
C58	C	-1.518381	0.220387	0.461350
H59	H	-1.975530	-0.586939	0.159588
H60	H	-1.465874	0.170132	0.474870
H61	H	-2.214575	-0.696076	0.856211
H62	H	-2.029653	-0.790963	0.187690
H63	H	-1.394088	0.374180	0.446728
O64	O	-1.447503	-0.133594	0.953173
C65	C	-1.371344	-0.036469	0.952739
H66	H	-1.424456	-0.006570	1.065182
H67	H	-1.332936	0.028314	0.834571
C68	C	-1.203057	-0.094996	0.821895
C69	C	-1.268288	-0.058279	0.960007
H70	H	-1.139484	-0.108447	0.826371
H71	H	-1.254366	-0.160429	0.822181
H72	H	-1.171062	-0.041004	0.723436
H73	H	-1.300295	-0.112276	1.058462
H74	H	-1.216983	0.007145	0.959738
O75	O	-1.751792	-0.465296	0.573279
C76	C	-1.853512	-0.543913	0.591214
H77	H	-1.864711	-0.627998	0.651585
H78	H	-1.841646	-0.543553	0.464051
C79	C	-1.951774	-0.413420	0.626885
C80	C	-1.965534	-0.516693	0.701046
H81	H	-2.020874	-0.396628	0.694627
H82	H	-1.883242	-0.360452	0.614795
H83	H	-1.941882	-0.413133	0.520917
H84	H	-1.975411	-0.516975	0.807001
H85	H	-2.034071	-0.569660	0.713156
O86	O	-1.742624	-0.149457	1.062741
C87	C	-1.818752	-0.246559	1.063072
H88	H	-1.772472	-0.308995	1.036602
H89	H	-1.839791	-0.228858	0.963358
C90	C	-1.992846	-0.215517	1.266399
C91	C	-1.936008	-0.292204	1.233902
H92	H	-2.065179	-0.243671	1.371771
H93	H	-1.941559	-0.150094	1.266172
H94	H	-2.010369	-0.200772	1.183292
H95	H	-1.918474	-0.306936	1.316996
H96	H	-1.987296	-0.357630	1.234147
O97	O	-1.504699	0.503869	0.413927
C98	C	-1.388859	0.553579	0.271628
H99	H	-1.373723	0.499453	0.181149
H100	H	-1.319405	0.565212	0.308868
C101	C	-1.395177	0.731758	0.299232
C102	C	-1.376591	0.665283	0.188098
H103	H	-1.387607	0.800665	0.247709
H104	H	-1.473220	0.698269	0.395105
H105	H	-1.337296	0.741440	0.330256
H106	H	-1.434481	0.655591	0.157092
H107	H	-1.298558	0.698774	0.092217
O108	O	-1.810544	-0.686896	0.604028
C109	C	-1.880534	-0.767438	0.755500
H110	H	-1.851683	-0.741012	0.845084
H111	H	-1.867485	-0.847776	0.732783
C112	C	-2.049022	-0.815048	0.720604
C113	C	-2.013594	-0.782586	0.830638
H114	H	-2.131100	-0.824397	0.766951
H115	H	-2.001868	-0.760788	0.618551
H116	H	-2.038138	-0.881993	0.701682
H117	H	-2.024464	-0.715636	0.849541
H118	H	-2.060753	-0.836836	0.932696
O119	O	-2.165965	-0.485881	0.850560
C120	C	-2.229341	-0.573703	0.992630
H121	H	-2.203726	-0.647284	0.956782
H122	H	-2.329708	-0.595413	1.048021
C123	C	-2.229054	-0.450535	1.165450
C124	C	-2.197585	-0.540907	1.121423
H125	H	-2.209471	-0.430305	1.244899
H126	H	-2.186360	-0.391367	1.069736
H127	H	-2.312692	-0.468640	1.211599
H128	H	-2.113947	-0.522797	1.075256
H129	H	-2.240265	-0.600071	1.217132
H130	H	-1.455696	-0.657180	0.569097
O131	O	-1.947503	-0.133594	0.953173
C132	C	-1.871344	-0.036469	0.952739
H133	H	-1.924456	-0.006570	1.065182
H134	H	-1.832936	0.028314	0.834571
C135	C	-1.703057	-0.094996	0.821895
C136	C	-1.768288	-0.058279	0.960007
H137	H	-1.639484	-0.108447	0.826371
H138	H	-1.754366	-0.160429	0.822181
H139	H	-1.671062	-0.041004	0.723436
H140	H	-1.800295	-0.112276	1.058462
H141	H	-1.716983	0.007145	0.959738
H142	H	-1.980410	-0.434188	0.285806
H143	H	-2.209707	-0.848831	0.729990
O144	O	-1.787984	0.182297	0.442521
C145	C	-1.836403	0.260914	0.424584
H146	H	-1.762869	0.345000	0.364230
H147	H	-1.910341	0.260545	0.551745
C148	C	-1.979060	0.130428	0.388869
C149	C	-1.888743	0.233703	0.314729
H150	H	-2.011351	0.113642	0.321113
H151	H	-1.946444	0.077461	0.400960
H152	H	-2.040664	0.130134	0.494834
H153	H	-1.827134	0.233992	0.208776
H154	H	-1.921350	0.286670	0.302618
H155	H	-2.223874	-0.148432	1.048129
H156	H	-1.651678	-0.769172	0.599195
H157	H	-1.401531	-0.453132	0.540947
H158	H	-1.699862	0.394108	0.414677
