data_functionalizedCrystal
_audit_creation_method	'MofGen! by Chris Wilmer'
_symmetry_space_group_name_H-M	'P1'
_symmetry_Int_Tables_number	1
_symmetry_cell_setting	triclinic
loop_
_symmetry_equiv_pos_as_xyz
  x,y,z
_cell_length_a	10.654545
_cell_length_b	15.538191
_cell_length_c	9.130313
_cell_angle_alpha	89.999886
_cell_angle_beta	90.003278
_cell_angle_gamma	65.877586
loop_
_atom_site_label
_atom_site_type_symbol
_atom_site_fract_x
_atom_site_fract_y
_atom_site_fract_z
O1	O	1.606186	0.131894	0.121770
O2	O	1.234829	0.144467	0.121774
O3	O	1.492795	0.001522	0.121778
O4	O	1.348220	0.274838	0.121766
O5	O	1.492781	0.001522	-0.121821
O6	O	1.234815	0.144467	-0.121825
O7	O	1.606171	0.131894	-0.121829
Cu8	Cu	1.420492	0.138180	-0.144069
Cu9	Cu	1.420509	0.138180	0.144014
O10	O	1.348205	0.274838	-0.121833
C11	C	1.188455	0.143544	-0.000024
C12	C	1.050301	0.140785	-0.000022
C13	C	0.985396	0.139486	-0.132808
C14	C	0.855596	0.136878	-0.132808
C15	C	0.855615	0.136872	0.132776
C16	C	0.985417	0.139473	0.132775
C17	C	1.507914	-0.033475	-0.000017
C18	C	1.552971	-0.137755	-0.000003
C19	C	1.105346	-0.428464	-0.000029
C20	C	1.147715	-0.526454	-0.000032
C21	C	1.386031	-0.547342	-0.000035
C22	C	1.343682	-0.449353	-0.000024
C23	C	1.203338	-0.389921	-0.000022
C24	C	1.441674	-0.410809	-0.000017
C25	C	1.399328	-0.312828	-0.000014
C26	C	1.258990	-0.253390	-0.000017
C27	C	1.160992	-0.291940	-0.000019
C28	C	1.582017	-0.470243	-0.000029
C29	C	1.680009	-0.431700	-0.000023
C30	C	1.637663	-0.333717	-0.000009
C31	C	1.497325	-0.274279	-0.000012
C32	C	1.735661	-0.295168	-0.000008
C33	C	1.693315	-0.197186	-0.000004
C34	C	1.454979	-0.176298	-0.000009
C35	C	1.652546	0.132816	-0.000027
C36	C	1.790699	0.135576	-0.000020
C37	C	1.333086	0.309835	-0.000035
C38	C	1.288030	0.414115	-0.000039
N39	N	1.420489	0.138180	-0.346692
C40	C	1.470443	0.195674	-0.423342
C41	C	1.470466	0.195668	-0.576679
C42	C	1.370571	0.080673	-0.576702
C43	C	1.370557	0.080674	-0.423368
N44	N	1.420525	0.138173	0.346637
H45	H	0.802756	0.135821	-0.240936
O46	O	1.623328	-0.565438	0.000164
C47	C	1.702831	-0.603900	0.126338
H48	H	1.748009	-0.553531	0.168395
H49	H	1.635030	-0.614689	0.214688
C50	C	1.764749	-0.761243	0.036352
C51	C	1.820247	-0.699383	0.088000
H52	H	1.837173	-0.820143	0.012707
H53	H	1.711183	-0.735331	-0.048652
H54	H	1.708249	-0.770223	0.109985
H55	H	1.876731	-0.690395	0.014361
H56	H	1.873826	-0.725296	0.172991
O57	O	1.788679	-0.159895	0.000081
C58	C	1.921630	-0.233360	0.000052
H59	H	1.916887	-0.300147	0.046160
H60	H	1.962777	-0.246985	-0.116811
C61	C	2.023506	-0.122958	0.038970
C62	C	2.017682	-0.204985	0.095612
H63	H	2.082759	-0.105454	0.097909
H64	H	1.933936	-0.073462	0.038984
H65	H	2.057792	-0.134323	-0.058415
H66	H	1.983381	-0.193616	0.192988
H67	H	2.107250	-0.254479	0.095616
O68	O	1.321922	0.024796	-0.349127
C69	C	1.277875	-0.025972	-0.449680
H70	H	1.252846	0.012856	-0.558986
H71	H	1.363060	-0.099336	-0.465975
C72	C	1.179241	-0.082464	-0.255598
C73	C	1.148488	-0.034771	-0.389846
H74	H	1.099433	-0.087896	-0.218689
H75	H	1.208921	-0.048264	-0.187853
H76	H	1.250231	-0.143596	-0.269196
H77	H	1.077512	0.026363	-0.376243
H78	H	1.118793	-0.068961	-0.457589
O79	O	1.519060	0.251552	-0.349085
C80	C	1.563125	0.302312	-0.449627
H81	H	1.588166	0.263480	-0.558925
H82	H	1.477946	0.375677	-0.465949
C83	C	1.661741	0.358809	-0.255522
C84	C	1.692508	0.311109	-0.389760
H85	H	1.741547	0.364239	-0.218592
H86	H	1.632050	0.324614	-0.187783
H87	H	1.590756	0.419941	-0.269141
H88	H	1.763479	0.249974	-0.376135
H89	H	1.722215	0.345294	-0.457495
H90	H	1.511146	0.242484	-0.639081
H91	H	1.038221	0.140554	-0.240940
H92	H	0.802770	0.135804	0.240895
H93	H	1.038266	0.140528	0.240912
O94	O	1.318664	-0.118516	0.000260
C95	C	1.287069	-0.061202	0.126404
H96	H	1.367461	-0.096664	0.214580
H97	H	1.287002	0.010247	0.097879
C98	C	1.045311	-0.003652	0.075321
C99	C	1.144044	-0.047211	0.183624
H100	H	0.957084	0.004983	0.110614
H101	H	1.066596	-0.042262	-0.009669
H102	H	1.045273	0.055884	0.051559
H103	H	1.144092	-0.106750	0.207370
H104	H	1.122755	-0.008610	0.268619
H105	H	1.224514	-0.173608	-0.000023
H106	H	1.046710	-0.243546	-0.000007
H107	H	0.991064	-0.380071	-0.000017
H108	H	1.067908	-0.557830	-0.000059
H109	H	1.500300	-0.595745	-0.000042
H110	H	1.794277	-0.480102	-0.000030
H111	H	1.849929	-0.343571	-0.000023
H112	H	1.329916	0.033855	-0.639150
