data_functionalizedCrystal
_audit_creation_method	'MofGen! by Chris Wilmer'
_symmetry_space_group_name_H-M	'P1'
_symmetry_Int_Tables_number	1
_symmetry_cell_setting	triclinic
loop_
_symmetry_equiv_pos_as_xyz
  x,y,z
_cell_length_a	11.792254
_cell_length_b	15.944493
_cell_length_c	10.868271
_cell_angle_alpha	90.000739
_cell_angle_beta	89.995741
_cell_angle_gamma	83.836821
loop_
_atom_site_label
_atom_site_type_symbol
_atom_site_fract_x
_atom_site_fract_y
_atom_site_fract_z
O1	O	1.505918	0.115182	-0.102304
O2	O	2.005918	0.615182	0.397696
O3	O	1.175478	0.127036	-0.102305
O4	O	1.675478	0.627036	0.397695
O5	O	1.349756	-0.001128	-0.102315
O6	O	1.849756	0.498872	0.397685
O7	O	1.331641	0.243346	-0.102294
O8	O	1.831641	0.743346	0.397706
O9	O	1.349742	-0.001133	0.102330
O10	O	1.849742	0.498867	0.602330
O11	O	1.175464	0.127031	0.102340
O12	O	1.675464	0.627031	0.602340
O13	O	1.505904	0.115177	0.102341
O14	O	2.005904	0.615177	0.602341
Zn15	Zn	1.340682	0.121103	0.134832
Zn16	Zn	1.840682	0.621103	0.634832
Zn17	Zn	1.340701	0.121110	-0.134796
Zn18	Zn	1.840701	0.621110	0.365204
O19	O	1.331626	0.243341	0.102350
O20	O	1.831626	0.743341	0.602350
C21	C	1.133187	0.126287	0.000017
C22	C	1.633187	0.626287	0.500017
C23	C	1.007193	0.124052	0.000016
C24	C	1.507193	0.624052	0.500016
C25	C	0.904872	0.122236	0.000011
C26	C	1.404872	0.622236	0.500011
C27	C	0.776504	0.119965	0.000010
C28	C	1.276504	0.619965	0.500010
C29	C	1.349009	-0.032429	0.000002
C30	C	1.849009	0.467571	0.500002
C31	C	1.346789	-0.125687	-0.000013
C32	C	1.846789	0.374313	0.499987
C33	C	1.449373	-0.360981	0.000010
C34	C	1.949373	0.139019	0.500010
C35	C	1.394060	-0.411798	-0.100890
C36	C	1.894060	0.088202	0.399110
C37	C	1.342676	-0.296427	0.000002
C38	C	1.842676	0.203573	0.500002
C39	C	1.394021	-0.411779	0.100874
C40	C	1.894021	0.088221	0.600874
C41	C	1.338711	-0.461355	0.000022
C42	C	1.838711	0.038645	0.500022
C43	C	1.287392	-0.346016	-0.100981
C44	C	1.787392	0.153984	0.399019
C45	C	1.287368	-0.345994	0.100873
C46	C	1.787368	0.154006	0.600873
C47	C	1.231977	-0.396778	-0.000052
C48	C	1.731977	0.103222	0.499948
C49	C	1.344963	-0.201417	-0.000011
C50	C	1.844963	0.298583	0.499989
C51	C	1.336415	-0.556362	0.000026
C52	C	1.836415	-0.056362	0.500026
C53	C	1.548196	0.115926	0.000016
C54	C	2.048196	0.615926	0.500016
C55	C	1.674190	0.118161	0.000009
C56	C	2.174190	0.618161	0.500009
C57	C	1.332374	0.274642	0.000031
C58	C	1.832374	0.774642	0.500031
C59	C	1.334594	0.367900	0.000038
C60	C	1.834594	0.867900	0.500038
N61	N	1.340677	0.121098	0.318846
N62	N	1.840677	0.621098	0.818846
N63	N	1.340714	0.121108	-0.318810
N64	N	1.840714	0.621108	0.181190
C65	C	1.340695	0.121108	0.569852
C66	C	1.840695	0.621108	1.069852
C67	C	1.340681	0.121105	0.430175
C68	C	1.840681	0.621105	0.930175
H69	H	1.541279	-0.344935	-0.000091
H70	H	2.041279	0.155065	0.499909
C71	C	1.454943	-0.450631	-0.216126
C72	C	1.954943	0.049369	0.283874
N73	N	1.500809	-0.479880	-0.302916
N74	N	2.000809	0.020120	0.197084
H75	H	1.242364	-0.317399	-0.186376
H76	H	1.742364	0.182601	0.313624
C77	C	1.107722	-0.418241	-0.000125
C78	C	1.607722	0.081759	0.499875
N79	N	1.014134	-0.434409	-0.000187
N80	N	1.514134	0.065591	0.499813
H81	H	1.242342	-0.317240	0.186180
H82	H	1.742342	0.182760	0.686180
C83	C	1.454912	-0.450580	0.216116
C84	C	1.954912	0.049420	0.716116
N85	N	1.500782	-0.479802	0.302912
N86	N	2.000782	0.020198	0.802912
