data_functionalizedCrystal
_audit_creation_method	'MofGen! by Chris Wilmer'
_symmetry_space_group_name_H-M	'P1'
_symmetry_Int_Tables_number	1
_symmetry_cell_setting	triclinic
loop_
_symmetry_equiv_pos_as_xyz
  x,y,z
_cell_length_a	16.120530
_cell_length_b	18.050589
_cell_length_c	16.120256
_cell_angle_alpha	92.877276
_cell_angle_beta	89.871735
_cell_angle_gamma	92.869593
loop_
_atom_site_label
_atom_site_type_symbol
_atom_site_fract_x
_atom_site_fract_y
_atom_site_fract_z
Zn1	Zn	1.247356	0.376260	0.534588
Zn2	Zn	1.254281	0.494481	0.395537
Zn3	Zn	1.115350	0.363707	0.388505
Zn4	Zn	1.108237	0.493800	0.527507
O5	O	1.181306	0.432062	0.461534
O6	O	1.364640	0.397481	0.522049
O7	O	1.241726	0.472164	0.278238
O8	O	1.132939	0.261452	0.407904
O9	O	1.369727	0.484337	0.419889
O10	O	1.229924	0.270675	0.515231
O11	O	1.139654	0.376085	0.273072
O12	O	0.998041	0.375426	0.401037
O13	O	1.120817	0.483177	0.644812
O14	O	0.992816	0.471005	0.503161
O15	O	1.223027	0.396821	0.650015
O16	O	1.234829	0.598310	0.413022
O17	O	1.127532	0.597811	0.509980
C18	C	0.965256	0.421780	0.450568
C19	C	0.872828	0.417400	0.445897
C20	C	0.703600	0.409386	0.437375
C21	C	0.659849	0.454795	0.485754
C22	C	0.565685	0.450337	0.481013
C23	C	0.797773	0.413844	0.442115
C24	C	1.181182	0.625008	0.461515
C25	C	1.181203	0.707556	0.461538
C26	C	1.122885	0.906762	0.514247
C27	C	1.106457	0.951981	0.437341
C28	C	1.181265	0.858689	0.461553
C29	C	1.197716	0.960553	0.538469
C30	C	1.181323	1.004678	0.461574
C31	C	1.164799	0.902818	0.384605
C32	C	1.256091	0.911389	0.485786
C33	C	1.239694	0.956585	0.408829
C34	C	1.181230	0.774589	0.461542
C35	C	1.181360	1.088776	0.461576
C36	C	1.398199	0.442385	0.472544
C37	C	1.490626	0.446784	0.477235
C38	C	1.170357	0.441324	0.678430
C39	C	1.165691	0.445270	0.770858
C40	C	1.181421	1.238363	0.461572
C41	C	1.181388	1.155817	0.461587
C42	C	1.192261	0.422785	0.245485
C43	C	1.197088	0.418637	0.153066
C44	C	1.205637	0.411461	0.983840
C45	C	1.157144	0.452444	0.940078
C46	C	1.161901	0.448451	0.845915
C47	C	1.200881	0.415453	1.078011
H48	H	0.693112	0.497020	0.530736
H49	H	1.112051	0.490524	0.973331
O50	O	1.331494	0.889957	0.510401
C51	C	1.434080	0.895178	0.619305
C52	C	1.348666	0.919490	0.591530
H53	H	1.447998	0.919058	0.684894
H54	H	1.433520	0.831966	0.618525
H55	H	1.483987	0.916556	0.575026
H56	H	1.298713	0.898164	0.635784
H57	H	1.349297	0.982703	0.592288
H58	H	1.250723	0.373380	0.950589
O59	O	1.148161	0.872963	0.306929
C60	C	1.117619	0.896438	0.164643
C61	C	1.136476	0.930350	0.252561
H62	H	1.108149	0.942819	0.120665
H63	H	1.171859	0.862663	0.141941
H64	H	1.058825	0.858716	0.166251
H65	H	1.195244	0.968105	0.251023
H66	H	1.082189	0.964081	0.275228
H67	H	0.670340	0.367165	0.392398
H68	H	1.073457	0.884887	0.558738
H69	H	1.043207	0.969976	0.416862
H70	H	1.211607	0.985773	0.603509
O71	O	1.298610	0.982646	0.355679
C72	C	1.365186	1.090205	0.296429
C73	C	1.298455	1.060791	0.356667
H74	H	1.365071	1.153387	0.297194
H75	H	1.428814	1.072789	0.316509
H76	H	1.351034	1.066202	0.230936
H77	H	1.312528	1.084779	0.422177
H78	H	1.234848	1.078199	0.336516
