data_functionalizedCrystal
_audit_creation_method	'MofGen! by Chris Wilmer'
_symmetry_space_group_name_H-M	'P1'
_symmetry_Int_Tables_number	1
_symmetry_cell_setting	triclinic
loop_
_symmetry_equiv_pos_as_xyz
  x,y,z
_cell_length_a	16.959455
_cell_length_b	16.625546
_cell_length_c	16.959447
_cell_angle_alpha	89.967784
_cell_angle_beta	89.979626
_cell_angle_gamma	90.019488
loop_
_atom_site_label
_atom_site_type_symbol
_atom_site_fract_x
_atom_site_fract_y
_atom_site_fract_z
Zn1	Zn	1.208371	-0.321050	-0.447026
Zn2	Zn	1.708371	0.178950	0.052974
Zn3	Zn	1.208288	-0.455897	-0.314843
Zn4	Zn	1.708288	0.044103	0.185157
Zn5	Zn	1.076199	-0.321075	-0.314849
Zn6	Zn	1.576199	0.178925	0.185151
Zn7	Zn	1.076158	-0.455837	-0.446968
Zn8	Zn	1.576158	0.044163	0.053032
O9	O	1.142254	-0.388465	-0.380921
O10	O	1.642254	0.111535	0.119079
O11	O	1.318971	-0.338952	-0.429513
O12	O	1.818971	0.161048	0.070487
O13	O	1.190748	-0.438049	-0.204233
O14	O	1.690748	0.061951	0.295767
O15	O	1.093784	-0.208239	-0.332410
O16	O	1.593784	0.291761	0.167590
O17	O	1.318910	-0.438024	-0.332399
O18	O	1.818910	0.061976	0.167601
O19	O	1.190890	-0.208221	-0.429520
O20	O	1.690890	0.291779	0.070480
O21	O	1.093703	-0.338995	-0.204238
O22	O	1.593703	0.161005	0.295762
O23	O	0.965583	-0.338937	-0.332354
O24	O	1.465583	0.161063	0.167646
O25	O	1.093714	-0.437921	-0.557586
O26	O	1.593714	0.062079	-0.057586
O27	O	0.965553	-0.437946	-0.429420
O28	O	1.465553	0.062054	0.070580
O29	O	1.190850	-0.338894	-0.557629
O30	O	1.690850	0.161106	-0.057629
O31	O	1.190709	-0.568722	-0.332342
O32	O	1.690709	-0.068722	0.167658
O33	O	1.093634	-0.568677	-0.429414
O34	O	1.593634	-0.068677	0.070586
C35	C	0.936888	-0.388439	-0.380882
C36	C	1.436888	0.111561	0.119118
C37	C	0.849031	-0.388447	-0.380883
C38	C	1.349031	0.111553	0.119117
C39	C	0.477513	-0.440000	-0.330328
C40	C	0.977513	0.060000	0.169672
C41	C	0.477598	-0.336996	-0.431611
C42	C	0.977598	0.163004	0.068389
C43	C	0.560144	-0.336983	-0.431592
C44	C	1.060144	0.163017	0.068408
C45	C	0.601378	-0.388480	-0.380941
C46	C	1.101378	0.111520	0.119059
C47	C	0.560067	-0.439990	-0.330309
C48	C	1.060067	0.060010	0.169691
C49	C	0.601461	-0.285479	-0.482228
C50	C	1.101461	0.214521	0.017772
C51	C	0.684012	-0.285464	-0.482211
C52	C	1.184012	0.214536	0.017789
C53	C	0.725248	-0.336958	-0.431556
C54	C	1.225248	0.163042	0.068444
C55	C	0.683932	-0.388470	-0.380922
C56	C	1.183932	0.111530	0.119078
C57	C	0.725166	-0.439967	-0.330271
C58	C	1.225166	0.060033	0.169729
C59	C	0.683851	-0.491476	-0.279632
C60	C	1.183851	0.008524	0.220368
C61	C	0.601302	-0.491484	-0.279654
C62	C	1.101302	0.008516	0.220346
C63	C	0.807797	-0.336950	-0.431534
C64	C	1.307797	0.163050	0.068466
C65	C	0.807720	-0.439957	-0.330252
C66	C	1.307720	0.060043	0.169748
C67	C	1.142179	-0.597956	-0.380888
C68	C	1.642179	-0.097956	0.119112
C69	C	1.142219	-0.687577	-0.380901
C70	C	1.642219	-0.187577	0.119099
C71	C	1.142357	-1.015752	-0.380983
C72	C	1.642357	-0.515752	0.119017
C73	C	1.142316	-0.924444	-0.380962
C74	C	1.642316	-0.424444	0.119038
C75	C	1.142288	-0.851667	-0.380941
C76	C	1.642288	-0.351667	0.119059
C77	C	1.142248	-0.760353	-0.380922
C78	C	1.642248	-0.260353	0.119078
C79	C	1.348422	-0.388492	-0.380962
C80	C	1.848422	0.111508	0.119038
C81	C	1.436279	-0.388503	-0.380979
C82	C	1.936279	0.111497	0.119021
C83	C	1.142287	-0.388398	-0.587090
C84	C	1.642287	0.111602	-0.087090
C85	C	1.142301	-0.388370	-0.674946
C86	C	1.642301	0.111630	-0.174946
C87	C	1.142351	-0.178156	-0.380972
C88	C	1.642351	0.321844	0.119028
C89	C	1.142392	-0.088535	-0.380994
C90	C	1.642392	0.411465	0.119006
C91	C	1.091821	-0.439844	-1.046402
C92	C	1.591821	0.060156	-0.546402
C93	C	1.192970	-0.336726	-1.046442
C94	C	1.692970	0.163274	-0.546442
C95	C	1.192949	-0.336743	-0.963896
C96	C	1.692949	0.163257	-0.463896
C97	C	1.142364	-0.388312	-0.922600
C98	C	1.642364	0.111688	-0.422600
C99	C	1.091800	-0.439864	-0.963849
C100	C	1.591800	0.060136	-0.463849
C101	C	1.243517	-0.285197	-0.922641
C102	C	1.743517	0.214803	-0.422641
C103	C	1.243499	-0.285213	-0.840090
C104	C	1.743499	0.214787	-0.340090
C105	C	1.192909	-0.336779	-0.798792
C106	C	1.692909	0.163221	-0.298792
C107	C	1.142343	-0.388332	-0.840046
C108	C	1.642343	0.111668	-0.340046
C109	C	1.091758	-0.439902	-0.798749
C110	C	1.591758	0.060098	-0.298749
C111	C	1.041187	-0.491452	-0.840002
C112	C	1.541187	0.008548	-0.340002
C113	C	1.041211	-0.491430	-0.922551
C114	C	1.541211	0.008570	-0.422551
C115	C	1.192886	-0.336800	-0.716243
C116	C	1.692886	0.163200	-0.216243
C117	C	1.091737	-0.439922	-0.716196
C118	C	1.591737	0.060078	-0.216196
C119	C	1.142267	-0.388473	-0.175555
C120	C	1.642267	0.111527	0.324445
C121	C	1.142406	-0.388274	-0.087699
C122	C	1.642406	0.111726	0.412301
H123	H	0.717435	-0.533409	-0.238396
H124	H	1.217435	-0.033409	0.261604
O125	O	0.852194	-0.495496	-0.275615
O126	O	1.352194	0.004504	0.224385
H127	H	0.836348	-0.558799	-0.289063
H128	H	1.336348	-0.058799	0.210937
H129	H	0.567882	-0.243558	-0.523470
H130	H	1.067882	0.256442	-0.023470
H131	H	1.234158	-0.294745	-1.080071
H132	H	1.734158	0.205255	-0.580071
O133	O	0.986625	-0.547071	-0.795460
O134	O	1.486625	-0.047071	-0.295460
H135	H	0.995109	-0.538418	-0.731129
H136	H	1.495109	-0.038418	-0.231129
H137	H	0.841432	-0.295014	-0.472765
H138	H	1.341432	0.204986	0.027235
H139	H	1.050537	-0.481909	-0.682578
H140	H	1.550537	0.018091	-0.182578
O141	O	1.298036	-0.229609	-0.795602
O142	O	1.798036	0.270391	-0.295602
H143	H	1.338229	-0.265711	-0.757987
H144	H	1.838229	0.234289	-0.257987
H145	H	1.000041	-0.533402	-0.956146
H146	H	1.500041	-0.033402	-0.456146
H147	H	1.234062	-0.294831	-0.682659
H148	H	1.734062	0.205169	-0.182659
H149	H	0.567656	-0.533419	-0.238426
H150	H	1.067656	-0.033419	0.261574
H151	H	0.717644	-0.243523	-0.523444
H152	H	1.217644	0.256477	-0.023444
H153	H	0.443871	-0.481935	-0.289097
H154	H	0.943871	0.018065	0.210903
O155	O	0.433130	-0.281449	-0.486235
O156	O	0.933130	0.218551	0.013765
H157	H	0.368788	-0.290105	-0.477737
H158	H	0.868788	0.209895	0.022263
O159	O	1.037274	-0.495440	-1.090888
O160	O	1.537274	0.004560	-0.590888
H161	H	1.045784	-0.486767	-1.155228
H162	H	1.545784	0.013233	-0.655228
O163	O	1.298045	-0.229549	-0.967177
O164	O	1.798045	0.270451	-0.467177
H165	H	1.289545	-0.238178	-1.031509
H166	H	1.789545	0.261822	-0.531509
