data_functionalizedCrystal
_audit_creation_method	'MofGen! by Chris Wilmer'
_symmetry_space_group_name_H-M	'P1'
_symmetry_Int_Tables_number	1
_symmetry_cell_setting	triclinic
loop_
_symmetry_equiv_pos_as_xyz
  x,y,z
_cell_length_a	12.759395
_cell_length_b	13.032721
_cell_length_c	13.032268
_cell_angle_alpha	76.710373
_cell_angle_beta	97.164484
_cell_angle_gamma	82.794230
loop_
_atom_site_label
_atom_site_type_symbol
_atom_site_fract_x
_atom_site_fract_y
_atom_site_fract_z
Zn1	Zn	1.458908	0.499038	-0.654153
Zn2	Zn	1.458794	0.654122	-0.499101
Zn3	Zn	1.308773	0.476537	-0.476578
Zn4	Zn	1.257633	0.676602	-0.676649
O5	O	1.371027	0.576575	-0.576620
O6	O	1.605912	0.519619	-0.633596
O7	O	1.460247	0.611741	-0.347492
O8	O	1.350138	0.330891	-0.481292
O9	O	1.605827	0.633558	-0.519680
O10	O	1.460442	0.347422	-0.611756
O11	O	1.350027	0.481270	-0.330945
O12	O	1.154970	0.503067	-0.503106
O13	O	1.262979	0.671872	-0.822286
O14	O	1.117398	0.650054	-0.650098
O15	O	1.410855	0.541416	-0.805758
O16	O	1.410659	0.805735	-0.541494
O17	O	1.262868	0.822251	-0.671938
C18	C	1.331227	0.852534	-0.611624
C19	C	1.314291	0.970596	-0.626635
C20	C	1.098064	0.576559	-0.576600
C21	C	0.981282	0.576582	-0.576620
C22	C	1.331225	0.611662	-0.853635
C23	C	1.314264	0.626614	-0.971682
C24	C	0.942197	0.729831	-0.729491
C25	C	0.867792	0.806464	-0.805930
C26	C	0.758067	0.806479	-0.805945
C27	C	0.722746	0.729850	-0.729514
C28	C	0.797151	0.653216	-0.653074
C29	C	0.906876	0.653212	-0.653066
C30	C	0.836235	0.499965	-0.500210
C31	C	0.945961	0.499953	-0.500189
C32	C	0.800914	0.423336	-0.423779
C33	C	0.875320	0.346705	-0.347333
C34	C	0.985051	0.346694	-0.347321
C35	C	1.020366	0.423319	-0.423749
C36	C	1.645056	0.576591	-0.576641
C37	C	1.761830	0.576598	-0.576650
C38	C	1.411008	0.299540	-0.541502
C39	C	1.428045	0.181485	-0.526537
C40	C	1.379915	1.015031	-0.568834
C41	C	1.362413	1.137053	-0.584346
C42	C	1.379868	0.568733	-1.016133
C43	C	1.362340	0.584185	-1.138141
C44	C	1.410745	0.541548	-0.300673
C45	C	1.427953	0.526296	-0.182589
H46	H	1.031539	0.729833	-0.729480
H47	H	0.711569	0.423349	-0.423800
H48	H	1.449008	0.507736	-0.963863
Br49	Br	1.543219	0.424641	-1.095488
Br50	Br	1.086021	0.242678	-0.243583
H51	H	1.293271	1.189344	-0.645325
Br52	Br	0.573831	0.729854	-0.729552
H53	H	1.293186	0.645176	-1.190406
Br54	Br	1.543301	1.094343	-0.424915
H55	H	0.896563	0.868852	-0.868160
Br56	Br	1.199008	0.728269	-1.058789
Br57	Br	1.199056	1.057746	-0.728269
Br58	Br	0.827378	0.242711	-0.243626
Br59	Br	0.657084	0.910473	-0.909692
Br60	Br	1.495166	0.927883	-0.467219
H61	H	1.109708	0.423321	-0.423744
