data_functionalizedCrystal
_audit_creation_method	'MofGen! by Chris Wilmer'
_symmetry_space_group_name_H-M	'P1'
_symmetry_Int_Tables_number	1
_symmetry_cell_setting	triclinic
loop_
_symmetry_equiv_pos_as_xyz
  x,y,z
_cell_length_a	15.944551
_cell_length_b	13.448316
_cell_length_c	14.971486
_cell_angle_alpha	90.012777
_cell_angle_beta	83.556433
_cell_angle_gamma	89.996074
loop_
_atom_site_label
_atom_site_type_symbol
_atom_site_fract_x
_atom_site_fract_y
_atom_site_fract_z
O1	O	1.114628	0.082589	0.115371
O2	O	0.870092	0.082613	0.129593
O3	O	0.998914	0.082593	-0.007725
O4	O	0.985806	0.082609	0.252689
O5	O	0.998915	-0.082791	-0.007751
O6	O	0.870093	-0.082770	0.129567
O7	O	1.114629	-0.082795	0.115345
Cu8	Cu	0.992361	-0.097884	0.122454
Cu9	Cu	0.992360	0.097702	0.122484
O10	O	0.985806	-0.082775	0.252663
C11	C	0.838798	-0.000075	0.128990
C12	C	0.745550	-0.000066	0.127220
N13	N	0.992367	-0.235448	0.122432
C14	C	0.998328	-0.000098	-0.041062
C15	C	0.996572	-0.000097	-0.140357
C16	C	0.530608	-0.000091	0.037872
C17	C	0.469627	0.081455	0.079375
C18	C	0.574821	-0.000078	0.124017
C19	C	0.469650	-0.081601	0.079370
C20	C	0.409905	-0.000094	0.120918
C21	C	0.515068	0.081535	0.165544
C22	C	0.515098	-0.081594	0.165527
C23	C	0.454134	-0.000029	0.207092
C24	C	0.669825	-0.000068	0.125801
C25	C	0.314903	-0.000097	0.119141
C26	C	1.145923	-0.000104	0.115948
C27	C	1.239171	-0.000107	0.117718
N28	N	0.992360	0.235266	0.122499
C29	C	1.049516	0.712476	0.061756
C30	C	1.049512	0.608372	0.061765
C31	C	0.992362	0.556347	0.122455
C32	C	0.935208	0.608431	0.183133
C33	C	0.935209	0.712532	0.183119
C34	C	0.935211	0.391451	0.183160
C35	C	0.935211	0.287343	0.183175
C36	C	1.049514	0.287291	0.061806
C37	C	1.049515	0.391392	0.061792
C38	C	0.992362	0.443469	0.122471
C39	C	1.072251	-0.000106	-0.197664
C40	C	1.070595	-0.000095	-0.290962
C41	C	0.993259	-0.000084	-0.326951
C42	C	0.917574	-0.000073	-0.269637
C43	C	0.919230	-0.000076	-0.176341
C44	C	0.914127	-0.000069	-0.464095
C45	C	0.912470	-0.000067	-0.557398
C46	C	1.065491	-0.000088	-0.578717
C47	C	1.067148	-0.000091	-0.485421
C48	C	0.991462	-0.000082	-0.428113
C49	C	0.986392	-0.000081	0.286000
C50	C	0.988149	-0.000076	0.385295
H51	H	0.563873	0.000006	-0.033621
H52	H	1.127118	-0.000093	-0.625382
O53	O	1.147356	-0.000292	-0.162667
C54	C	1.152890	-0.085934	-0.109340
H55	H	1.108975	-0.145798	-0.131416
H56	H	1.133593	-0.066569	-0.035764
C57	C	1.298261	-0.051251	-0.093545
C58	C	1.244329	-0.124781	-0.120664
H59	H	1.354666	-0.075212	-0.100526
H60	H	1.294533	0.006450	-0.129469
H61	H	1.282170	-0.035120	-0.032233
H62	H	1.260415	-0.140901	-0.181978
H63	H	1.248063	-0.182486	-0.084750
O64	O	0.445685	0.163800	0.036009
C65	C	0.469941	0.249638	0.080713
H66	H	0.524331	0.230629	0.121042
H67	H	0.414115	0.278124	0.128056
C68	C	0.431574	0.353950	-0.038419
C69	C	0.498382	0.330604	0.011108
H70	H	0.449114	0.403896	-0.081353
H71	H	0.415229	0.296120	-0.068536
H72	H	0.385058	0.377682	0.001043
H73	H	0.544892	0.306861	-0.028352
H74	H	0.514735	0.388432	0.041217
H75	H	0.888672	0.566066	0.232545
H76	H	1.096054	0.433751	0.012378
O77	O	1.144189	-0.000155	-0.346502
C78	C	1.212802	-0.000149	-0.294732
H79	H	1.191549	-0.031458	-0.225109
H80	H	1.236510	0.079188	-0.288069
C81	C	1.310539	-0.026568	-0.426741
C82	C	1.284437	-0.065030	-0.341232
H83	H	1.354729	-0.066585	-0.455426
H84	H	1.264314	-0.026568	-0.461621
H85	H	1.330290	0.039545	-0.421178
H86	H	1.264676	-0.131137	-0.346797
H87	H	1.330661	-0.065043	-0.306354
H88	H	0.535090	0.150550	0.201963
H89	H	0.888668	0.433848	0.232569
H90	H	0.421044	0.000021	0.278659
O91	O	0.845738	0.000106	-0.120632
C92	C	0.842131	0.085748	-0.065996
H93	H	0.885049	0.145609	-0.100151
H94	H	0.863942	0.066380	0.001842
C95	C	0.698036	0.051078	-0.009864
C96	C	0.750745	0.124603	-0.051818
H97	H	0.641665	0.075044	-0.001115
H98	H	0.700467	-0.006623	-0.046671
H99	H	0.716223	0.034944	0.046663
H100	H	0.732564	0.140726	-0.108349
H101	H	0.748308	0.182308	-0.015021
H102	H	0.535264	-0.150534	0.201922
O103	O	0.842396	-0.000191	-0.304486
C104	C	0.796263	-0.085850	-0.275236
H105	H	0.819221	-0.114411	-0.210536
H106	H	0.805933	-0.145829	-0.329235
C107	C	0.673594	-0.024738	-0.337206
C108	C	0.701788	-0.059812	-0.257736
H109	H	0.615317	-0.008679	-0.326415
H110	H	0.704675	0.032971	-0.356916
H111	H	0.681660	-0.074726	-0.382198
H112	H	0.693731	-0.009820	-0.212750
H113	H	0.670703	-0.117512	-0.238019
H114	H	0.449530	-0.150539	0.042907
H115	H	0.852495	-0.000058	-0.417437
O116	O	0.837274	0.000003	-0.592210
C117	C	0.770826	0.000000	-0.521626
H118	H	0.794437	0.031297	-0.458237
H119	H	0.747461	-0.079335	-0.508446
C120	C	0.668911	0.026448	-0.625811
C121	C	0.697909	0.064896	-0.547957
H122	H	0.623930	0.066475	-0.642054
H123	H	0.713677	0.026447	-0.673366
H124	H	0.649446	-0.039663	-0.614817
H125	H	0.717383	0.131001	-0.558956
H126	H	0.653144	0.064910	-0.500405
H127	H	1.096057	0.754828	0.012339
O128	O	1.105001	0.236822	0.002736
C129	C	1.091414	0.262211	-0.085869
H130	H	1.059043	0.337796	-0.085855
H131	H	1.049642	0.203612	-0.113648
C132	C	1.216489	0.174164	-0.145170
C133	C	1.176736	0.267003	-0.145153
H134	H	1.269119	0.177116	-0.181741
H135	H	1.225641	0.157055	-0.085476
H136	H	1.181670	0.125341	-0.168317
H137	H	1.211550	0.315821	-0.121996
H138	H	1.167592	0.284120	-0.204845
H139	H	1.096046	0.565972	0.012358
H140	H	0.888672	0.754932	0.232526
H141	H	0.888674	0.244989	0.232594
H142	H	1.130122	-0.000108	-0.456122
