data_functionalizedCrystal
_audit_creation_method	'MofGen! by Chris Wilmer'
_symmetry_space_group_name_H-M	'P1'
_symmetry_Int_Tables_number	1
_symmetry_cell_setting	triclinic
loop_
_symmetry_equiv_pos_as_xyz
  x,y,z
_cell_length_a	15.944551
_cell_length_b	10.654550
_cell_length_c	9.730223
_cell_angle_alpha	89.995869
_cell_angle_beta	89.996201
_cell_angle_gamma	96.008179
loop_
_atom_site_label
_atom_site_type_symbol
_atom_site_fract_x
_atom_site_fract_y
_atom_site_fract_z
O1	O	1.115457	-0.161968	0.114143
O2	O	0.871023	-0.181937	0.114177
O3	O	0.998860	0.010860	0.114154
O4	O	0.987620	-0.354764	0.114166
O5	O	0.998858	0.010869	-0.114426
O6	O	0.871021	-0.181927	-0.114403
O7	O	1.115455	-0.161959	-0.114437
Zn8	Zn	0.993238	-0.171941	-0.150712
Zn9	Zn	0.993240	-0.171954	0.150452
O10	O	0.987618	-0.354755	-0.114414
C11	C	0.839723	-0.181103	-0.000109
C12	C	0.746463	-0.178618	-0.000096
N13	N	0.993242	-0.171953	0.355988
C14	C	0.998034	0.057652	-0.000134
C15	C	0.995565	0.197063	-0.000129
C16	C	0.530880	-0.053173	-0.000127
C17	C	0.470198	-0.111430	0.112577
C18	C	0.575711	-0.174122	-0.000112
C19	C	0.470219	-0.111449	-0.112785
C20	C	0.410773	-0.169770	-0.000134
C21	C	0.516257	-0.232412	0.112684
C22	C	0.516284	-0.232414	-0.112779
C23	C	0.455620	-0.290759	-0.000047
C24	C	0.670728	-0.176625	-0.000099
C25	C	0.315757	-0.167276	-0.000138
C26	C	1.146755	-0.162792	-0.000148
C27	C	1.240015	-0.165278	-0.000152
C28	C	0.988444	-0.401547	-0.000123
C29	C	0.990913	-0.540958	-0.000119
C30	C	1.070833	0.277523	-0.000144
C31	C	1.068508	0.408513	-0.000134
C32	C	0.915639	0.378572	-0.000100
C33	C	0.917965	0.247584	-0.000101
C34	C	1.148432	0.227002	-0.000172
C35	C	1.223707	0.307463	-0.000188
C36	C	1.221382	0.438453	-0.000178
C37	C	1.143782	0.488983	-0.000152
N38	N	0.993243	-0.171932	-0.356249
C39	C	1.049955	-0.086748	0.427904
C40	C	1.049957	-0.086740	0.571787
C41	C	0.936527	-0.257146	0.571825
C42	C	0.936529	-0.257159	0.427945
C43	C	1.106667	-0.001542	0.355947
C44	C	1.163384	0.083671	0.427863
C45	C	1.163387	0.083679	0.571746
C46	C	1.106673	-0.001526	0.643713
H47	H	0.563632	0.047204	0.000009
Br48	Br	0.436245	-0.026146	-0.271590
Br49	Br	1.240365	0.199308	0.669347
H50	H	1.282674	0.503962	-0.000177
Br51	Br	1.106661	-0.001542	0.160678
H52	H	1.141895	0.595646	-0.000130
H53	H	0.890349	-0.326543	0.369391
Br54	Br	1.151592	0.049230	-0.000196
Br55	Br	0.436190	-0.026181	0.271389
Br56	Br	0.550058	-0.317621	0.271669
H57	H	1.106685	-0.001520	0.760873
H58	H	0.852461	0.419724	-0.000081
Br59	Br	0.859562	-0.372773	0.669492
H60	H	1.286886	0.266312	-0.000175
H61	H	0.423043	-0.391240	0.000019
H62	H	0.856675	0.182071	-0.000091
Br63	Br	1.240359	0.199286	0.330201
H64	H	0.536711	-0.283524	-0.208063
