data_functionalizedCrystal
_audit_creation_method	'MofGen! by Chris Wilmer'
_symmetry_space_group_name_H-M	'P1'
_symmetry_Int_Tables_number	1
_symmetry_cell_setting	triclinic
loop_
_symmetry_equiv_pos_as_xyz
  x,y,z
_cell_length_a	15.698487
_cell_length_b	17.052862
_cell_length_c	17.052862
_cell_angle_alpha	61.493325
_cell_angle_beta	90.001087
_cell_angle_gamma	70.264613
loop_
_atom_site_label
_atom_site_type_symbol
_atom_site_fract_x
_atom_site_fract_y
_atom_site_fract_z
Zr1	Zr	0.987260	0.816672	-0.200433
O2	O	0.893187	0.944568	-0.328563
O3	O	0.995386	0.665950	-0.146242
O4	O	1.041032	0.783753	-0.307053
O5	O	0.835095	0.860692	-0.057865
O6	O	1.181215	0.783751	-0.307049
O7	O	0.847541	0.826765	-0.167752
O8	O	1.099563	0.573024	-0.019386
O9	O	0.916747	1.071419	-0.345527
O10	O	1.128493	0.736397	-0.141143
O11	O	1.014587	0.761718	-0.059139
O12	O	1.068330	0.900415	-0.248473
O13	O	0.954424	0.925736	-0.166469
Zr14	Zr	1.190986	0.870779	-0.025168
Zr15	Zr	1.210836	0.816669	-0.200426
Zr16	Zr	0.967410	0.870782	-0.025175
Zr17	Zr	1.024836	1.018986	-0.227488
Zr18	Zr	1.153410	0.668465	0.001887
O19	O	1.182860	1.021500	-0.079359
O20	O	1.211084	0.944563	-0.328553
O21	O	0.864963	1.021505	-0.079370
O22	O	1.285059	0.742883	0.102962
O23	O	1.313283	0.665946	-0.146232
O24	O	0.967162	0.742887	0.102952
O25	O	1.343151	0.826759	-0.167736
O26	O	1.137214	0.903698	0.081452
O27	O	0.997030	0.903700	0.081447
O28	O	1.330705	0.860686	-0.057849
O29	O	1.094461	1.071417	-0.345521
O30	O	1.083785	0.616034	0.119920
O31	O	1.261498	0.616032	0.119926
O32	O	1.277276	0.573022	-0.019381
O33	O	0.900970	1.114429	-0.206220
O34	O	1.078683	1.114427	-0.206215
O35	O	1.109916	0.787036	0.022872
O36	O	1.223822	0.761715	-0.059132
O37	O	1.163659	0.925733	-0.166462
O38	O	1.049753	0.951054	-0.084458
C39	C	1.042120	0.590662	-0.078959
C40	C	1.026168	0.504774	-0.067474
C41	C	0.809463	0.843729	-0.112809
C42	C	0.714549	0.843730	-0.112812
C43	C	1.219031	0.209808	-0.206333
C44	C	1.234017	0.290506	-0.217130
C45	C	1.182057	0.344077	-0.179717
C46	C	1.115106	0.316942	-0.131505
C47	C	1.100114	0.236240	-0.120712
C48	C	1.063139	0.370509	-0.094096
C49	C	0.996189	0.343374	-0.045884
C50	C	0.981200	0.262679	-0.035094
C51	C	1.033160	0.209109	-0.072507
C52	C	1.078132	0.451211	-0.104889
C53	C	0.959215	0.477643	-0.019268
C54	C	0.944229	0.396945	-0.008471
C55	C	0.637467	0.843733	-0.112811
C56	C	0.540768	0.843730	-0.112801
C57	C	1.368783	0.843722	-0.112792
C58	C	1.463697	0.843721	-0.112789
C59	C	1.113952	0.776042	-0.332021
C60	C	1.122379	0.753072	-0.406423
C61	C	1.136125	1.096789	-0.146642
C62	C	1.152077	1.182677	-0.158127
C63	C	1.020500	1.030791	-0.840255
C64	C	1.012577	1.052377	-0.770353
C65	C	1.040027	0.977552	-0.679368
C66	C	1.075401	0.881139	-0.658290
C67	C	1.083318	0.859551	-0.728199
C68	C	1.102845	0.806312	-0.567311
C69	C	1.138218	0.709898	-0.546233
C70	C	1.146134	0.688315	-0.616137
C71	C	1.118684	0.763139	-0.707122
C72	C	1.094928	0.827900	-0.497403
C73	C	1.157745	0.656660	-0.385346
C74	C	1.165668	0.635074	-0.455248
C75	C	1.064294	0.911408	0.106420
C76	C	1.055867	0.934379	0.180822
C77	C	1.321780	0.590658	-0.078950
C78	C	1.400742	0.504769	-0.067462
C79	C	1.017291	0.658345	0.140261
C80	C	0.992912	0.595428	0.226148
C81	C	1.296951	0.658341	0.140270
C82	C	1.367486	0.595423	0.226160
C83	C	0.881294	1.029110	-0.365871
C84	C	0.810759	1.092027	-0.451761
C85	C	0.856465	1.096793	-0.146651
C86	C	0.777503	1.182681	-0.158139
C87	C	1.160954	1.029106	-0.365863
C88	C	1.185333	1.092023	-0.451749
C89	C	1.388064	0.451217	-0.104883
C90	C	1.462252	0.370522	-0.094106
C91	C	1.549117	0.343376	-0.045903
C92	C	1.561795	0.396937	-0.008481
C93	C	1.487609	0.477635	-0.019264
C94	C	1.031224	0.579100	0.309298
C95	C	1.008314	0.519997	0.390003
C96	C	0.947099	0.477217	0.387557
C97	C	0.908783	0.493551	0.304398
C98	C	0.931687	0.552659	0.223694
C99	C	1.460077	0.552659	0.223690
C100	C	1.526364	0.493551	0.304384
C101	C	1.500057	0.477202	0.387549
C102	C	1.407457	0.519973	0.390017
C103	C	1.341173	0.579086	0.309323
C104	C	0.718170	1.134801	-0.449292
C105	C	0.651888	1.193935	-0.529990
C106	C	0.678196	1.210288	-0.613155
C107	C	0.770795	1.167512	-0.615623
C108	C	0.837076	1.108385	-0.534926
C109	C	0.790184	1.236240	-0.120726
C110	C	0.716002	1.316952	-0.131525
C111	C	0.629138	1.344099	-0.179732
C112	C	0.616459	1.290536	-0.217149
C113	C	0.690642	1.209830	-0.206356
C114	C	1.246552	1.134785	-0.449274
C115	C	1.269476	1.193893	-0.529966
C116	C	1.231176	1.210243	-0.613133
C117	C	1.169954	1.167473	-0.615606
C118	C	1.147036	1.108361	-0.534914
H119	H	1.194262	0.409784	-0.188511
H120	H	0.726343	1.360552	-0.101050
N121	N	0.974440	1.156357	-0.793084
H122	H	0.917234	1.169134	-0.766581
H123	H	0.958313	1.200413	-0.861334
H124	H	1.288526	0.312597	-0.256385
N125	N	1.184297	0.584329	-0.593407
H126	H	1.200494	0.540203	-0.525163
H127	H	1.241471	0.571665	-0.619977
H128	H	1.319324	1.228713	-0.527935
N129	N	0.990886	1.111486	-0.938381
H130	H	1.001267	1.083178	-0.979464
H131	H	1.028306	1.152651	-0.950637
H132	H	1.261326	0.166191	-0.236796
H133	H	1.081069	0.613927	0.311306
N134	N	0.689773	1.117175	-0.359603
H135	H	0.661079	1.180769	-0.361291
H136	H	0.745838	1.073196	-0.308894
H137	H	1.632530	0.374823	0.030766
H138	H	1.317343	0.473314	-0.144146
N139	N	1.049662	0.502381	0.479684
H140	H	1.086067	0.430917	0.521434
H141	H	0.998647	0.526034	0.508648
N142	N	0.922400	0.413464	0.474606
H143	H	0.955967	0.409614	0.527649
H144	H	0.941036	0.346541	0.483520
N145	N	0.522763	1.319809	-0.269124
H146	H	0.477698	1.379056	-0.270270
H147	H	0.500516	1.265113	-0.238387
N148	N	1.571545	0.413427	0.474586
H149	H	1.573004	0.451889	0.504488
H150	H	1.634153	0.388825	0.460330
N151	N	0.903170	0.535403	0.021100
H152	H	0.835536	0.561957	-0.005833
H153	H	0.922903	0.590592	0.006946
H154	H	1.451911	0.326921	-0.124581
N155	N	1.127083	0.739731	-0.782436
H156	H	1.193803	0.700851	-0.777327
H157	H	1.104244	0.801738	-0.843286
H158	H	1.020966	0.143393	-0.063714
N159	N	0.842764	0.447401	0.301768
H160	H	0.834080	0.407475	0.365516
H161	H	0.868740	0.404425	0.275336
N162	N	0.676958	1.152066	-0.246710
H163	H	0.610672	1.181516	-0.278883
H164	H	0.692072	1.083193	-0.196572
N165	N	0.890310	0.570323	0.134006
H166	H	0.848040	0.534267	0.144709
H167	H	0.941298	0.546766	0.104966
N168	N	1.255909	1.273991	-0.700160
H169	H	1.300504	1.298595	-0.685963
H170	H	1.198162	1.330527	-0.742735
N171	N	0.883870	1.206983	-0.068743
H172	H	0.928951	1.147730	-0.067576
H173	H	0.879147	1.192052	-0.004409
H174	H	0.568742	1.409817	-0.188514
H175	H	0.576494	1.228755	-0.527963
H176	H	1.265781	0.613898	0.311347
H177	H	1.066125	0.906401	-0.514573
H178	H	1.277745	1.121484	-0.381563
N179	N	1.128648	1.185120	-0.705313
H180	H	1.059213	1.216589	-0.716352
H181	H	1.146662	1.121502	-0.703583
N182	N	0.606702	1.274061	-0.700188
H183	H	0.544056	1.298671	-0.685996
H184	H	0.605325	1.235539	-0.730043
H185	H	1.097183	1.073549	-0.536942
N186	N	1.488475	0.570272	0.134004
H187	H	1.534827	0.601735	0.122979
H188	H	1.432398	0.614178	0.083303
N189	N	1.150338	0.480471	-0.156887
H190	H	1.212754	0.425832	-0.126199
H191	H	1.151872	0.539741	-0.158039
H192	H	0.792206	1.180834	-0.683346
H193	H	0.926677	0.240596	0.004155
N194	N	1.626233	0.447424	0.301711
H195	H	1.632831	0.466746	0.236781
H196	H	1.647499	0.374792	0.339687
N197	N	1.379084	0.502333	0.479717
H198	H	1.412762	0.525917	0.508753
H199	H	1.395112	0.430857	0.521386
H200	H	1.609516	0.277664	-0.037129
H201	H	1.194469	0.556574	-0.438098
N202	N	0.936940	1.062248	-0.537596
H203	H	0.943538	1.081582	-0.602528
H204	H	0.958196	0.989617	-0.499632
N205	N	1.501289	0.535389	0.021104
H206	H	1.567575	0.505939	0.053277
H207	H	1.459192	0.534623	0.066026
N208	N	0.872022	0.367673	0.043529
H209	H	0.870414	0.308422	0.044688
H210	H	0.809643	0.422363	0.012812
N211	N	1.031491	1.000829	-0.603970
H212	H	1.004921	1.073259	-0.631128
H213	H	1.094464	0.972356	-0.565167
H214	H	1.180094	0.595732	-0.311262
