data_functionalizedCrystal
_audit_creation_method	'MofGen! by Chris Wilmer'
_symmetry_space_group_name_H-M	'P1'
_symmetry_Int_Tables_number	1
_symmetry_cell_setting	triclinic
loop_
_symmetry_equiv_pos_as_xyz
  x,y,z
_cell_length_a	16.109318
_cell_length_b	16.109301
_cell_length_c	14.586319
_cell_angle_alpha	89.994786
_cell_angle_beta	90.000075
_cell_angle_gamma	83.465022
loop_
_atom_site_label
_atom_site_type_symbol
_atom_site_fract_x
_atom_site_fract_y
_atom_site_fract_z
O1	O	1.103122	0.106935	-0.076167
O2	O	1.353122	0.356935	0.173833
O3	O	1.603122	0.606935	0.423833
O4	O	1.853122	0.856935	0.673833
O5	O	0.861062	0.120219	-0.076186
O6	O	1.111062	0.370219	0.173814
O7	O	1.361062	0.620219	0.423814
O8	O	1.611062	0.870219	0.673814
O9	O	0.988741	-0.007454	-0.076167
O10	O	1.238741	0.242546	0.173833
O11	O	1.488741	0.492546	0.423833
O12	O	1.738741	0.742546	0.673833
O13	O	0.975442	0.234607	-0.076186
O14	O	1.225442	0.484607	0.173814
O15	O	1.475442	0.734607	0.423814
O16	O	1.725442	0.984607	0.673814
O17	O	0.988733	-0.007456	0.076314
O18	O	1.238733	0.242544	0.326314
O19	O	1.488733	0.492544	0.576314
O20	O	1.738733	0.742544	0.826314
O21	O	0.861053	0.120217	0.076295
O22	O	1.111053	0.370217	0.326295
O23	O	1.361053	0.620217	0.576295
O24	O	1.611053	0.870217	0.826295
O25	O	1.103113	0.106933	0.076314
O26	O	1.353113	0.356933	0.326314
O27	O	1.603113	0.606933	0.576314
O28	O	1.853113	0.856933	0.826314
Cu29	Cu	0.982082	0.113575	0.090227
Cu30	Cu	1.232082	0.363575	0.340227
Cu31	Cu	1.482082	0.613575	0.590227
Cu32	Cu	1.732082	0.863575	0.840227
Cu33	Cu	0.982093	0.113577	-0.090099
Cu34	Cu	1.232093	0.363577	0.159901
Cu35	Cu	1.482093	0.613577	0.409901
Cu36	Cu	1.732093	0.863577	0.659901
O37	O	0.975433	0.234606	0.076294
O38	O	1.225433	0.484606	0.326294
O39	O	1.475433	0.734606	0.576294
O40	O	1.725433	0.984606	0.826294
C41	C	0.830083	0.119677	0.000052
C42	C	1.080083	0.369677	0.250052
C43	C	1.330083	0.619677	0.500052
C44	C	1.580083	0.869677	0.750052
C45	C	0.737788	0.118057	0.000045
C46	C	0.987788	0.368057	0.250045
C47	C	1.237788	0.618057	0.500045
C48	C	1.487788	0.868057	0.750045
C49	C	0.438719	0.112823	-0.083055
C50	C	0.688719	0.362823	0.166945
C51	C	0.938719	0.612823	0.416945
C52	C	1.188719	0.862823	0.666945
C53	C	0.525441	0.114340	-0.083061
C54	C	0.775441	0.364340	0.166939
C55	C	1.025441	0.614340	0.416939
C56	C	1.275441	0.864340	0.666939
C57	C	0.525450	0.114327	0.083182
C58	C	0.775450	0.364327	0.333182
C59	C	1.025450	0.614327	0.583182
C60	C	1.275450	0.864327	0.833182
C61	C	0.438731	0.112803	0.083187
C62	C	0.688731	0.362803	0.333187
C63	C	0.938731	0.612803	0.583187
C64	C	1.188731	0.862803	0.833187
C65	C	0.395367	0.112056	0.000065
C66	C	0.645367	0.362056	0.250065
C67	C	0.895367	0.612056	0.500065
C68	C	1.145367	0.862056	0.750065
C69	C	0.568807	0.115096	0.000055
C70	C	0.818807	0.365096	0.250055
C71	C	1.068807	0.615096	0.500055
C72	C	1.318807	0.865096	0.750055
C73	C	0.662835	0.116742	0.000049
C74	C	0.912835	0.366742	0.250049
C75	C	1.162835	0.616742	0.500049
C76	C	1.412835	0.866742	0.750049
C77	C	0.301334	0.110409	0.000070
C78	C	0.551334	0.360409	0.250070
C79	C	0.801334	0.610409	0.500070
C80	C	1.051334	0.860409	0.750070
C81	C	0.988198	-0.038430	0.000074
C82	C	1.238198	0.211570	0.250074
C83	C	1.488198	0.461570	0.500074
C84	C	1.738198	0.711570	0.750074
C85	C	0.986583	-0.130725	0.000075
C86	C	1.236583	0.119275	0.250075
C87	C	1.486583	0.369275	0.500075
C88	C	1.736583	0.619275	0.750075
C89	C	1.058590	-0.352993	0.000067
C90	C	1.308590	-0.102993	0.250067
C91	C	1.558590	0.147007	0.500067
C92	C	1.808590	0.397007	0.750067
C93	C	1.057066	-0.439713	0.000059
C94	C	1.307066	-0.189713	0.250059
C95	C	1.557066	0.060287	0.500059
C96	C	1.807066	0.310287	0.750059
C97	C	0.905579	-0.419848	0.000051
C98	C	1.155579	-0.169848	0.250051
C99	C	1.405579	0.080152	0.500051
C100	C	1.655579	0.330152	0.750051
C101	C	0.907104	-0.333130	0.000052
C102	C	1.157104	-0.083130	0.250052
C103	C	1.407104	0.166870	0.500052
C104	C	1.657104	0.416870	0.750052
C105	C	0.983612	-0.299704	0.000064
C106	C	1.233612	-0.049704	0.250064
C107	C	1.483612	0.200296	0.500064
C108	C	1.733612	0.450296	0.750064
C109	C	0.980563	-0.473144	0.000056
C110	C	1.230563	-0.223144	0.250056
C111	C	1.480563	0.026856	0.500056
C112	C	1.730563	0.276856	0.750056
C113	C	0.978910	-0.567170	0.000047
C114	C	1.228910	-0.317170	0.250047
C115	C	1.478910	-0.067170	0.500047
C116	C	1.728910	0.182830	0.750047
C117	C	0.985265	-0.205672	0.000071
C118	C	1.235265	0.044328	0.250071
C119	C	1.485265	0.294328	0.500071
C120	C	1.735265	0.544328	0.750071
C121	C	1.134092	0.107474	0.000074
C122	C	1.384092	0.357474	0.250074
C123	C	1.634092	0.607474	0.500074
C124	C	1.884092	0.857474	0.750074
C125	C	1.226387	0.109095	0.000075
C126	C	1.476387	0.359095	0.250075
C127	C	1.726387	0.609095	0.500075
C128	C	1.976387	0.859095	0.750075
C129	C	0.975976	0.265581	0.000052
C130	C	1.225976	0.515581	0.250052
C131	C	1.475976	0.765581	0.500052
C132	C	1.725976	1.015581	0.750052
C133	C	0.977592	0.357877	0.000044
C134	C	1.227592	0.607877	0.250044
C135	C	1.477592	0.857877	0.500044
C136	C	1.727592	1.107877	0.750044
N137	N	0.982081	0.113573	0.217059
N138	N	1.232081	0.363573	0.467059
N139	N	1.482081	0.613573	0.717059
N140	N	1.732081	0.863573	0.967059
N141	N	0.982100	0.113573	-0.216931
N142	N	1.232100	0.363573	0.033069
N143	N	1.482100	0.613573	0.283069
N144	N	1.732100	0.863573	0.533069
C145	C	1.038636	0.057058	0.452074
C146	C	1.288636	0.307058	0.702074
C147	C	1.538636	0.557058	0.952074
C148	C	1.788636	0.807058	1.202074
C149	C	1.038638	0.057056	0.548055
C150	C	1.288638	0.307056	0.798055
C151	C	1.538638	0.557056	1.048055
C152	C	1.788638	0.807056	1.298055
C153	C	0.925539	0.170090	0.548047
C154	C	1.175539	0.420090	0.798047
C155	C	1.425539	0.670090	1.048047
C156	C	1.675539	0.920090	1.298047
C157	C	0.925534	0.170087	0.452068
C158	C	1.175534	0.420087	0.702068
C159	C	1.425534	0.670087	0.952068
C160	C	1.675534	0.920087	1.202068
C161	C	0.982087	0.113572	0.404084
C162	C	1.232087	0.363572	0.654084
C163	C	1.482087	0.613572	0.904084
C164	C	1.732087	0.863572	1.154084
C165	C	0.982095	0.113573	0.596044
C166	C	1.232095	0.363573	0.846044
C167	C	1.482095	0.613573	1.096044
C168	C	1.732095	0.863573	1.346044
C169	C	0.982097	0.113571	0.700111
C170	C	1.232097	0.363571	0.950111
C171	C	1.482097	0.613571	1.200111
C172	C	1.732097	0.863571	1.450111
C173	C	0.982084	0.113573	0.300010
C174	C	1.232084	0.363573	0.550010
C175	C	1.482084	0.613573	0.800010
C176	C	1.732084	0.863573	1.050010
H177	H	0.560734	0.114964	-0.150746
H178	H	0.810734	0.364964	0.099254
H179	H	1.060734	0.614964	0.349254
H180	H	1.310734	0.864964	0.599254
H181	H	1.084685	0.011036	0.587126
H182	H	1.334685	0.261036	0.837126
H183	H	1.584685	0.511036	1.087126
H184	H	1.834685	0.761036	1.337126
Cl185	Cl	0.579968	0.115276	0.187671
Cl186	Cl	0.829968	0.365276	0.437671
Cl187	Cl	1.079968	0.615276	0.687671
Cl188	Cl	1.329968	0.865276	0.937671
Cl189	Cl	0.854433	0.241135	0.391731
Cl190	Cl	1.104433	0.491135	0.641731
Cl191	Cl	1.354433	0.741135	0.891731
Cl192	Cl	1.604433	0.991135	1.141731
Cl193	Cl	0.384209	0.111878	-0.187550
Cl194	Cl	0.634209	0.361878	0.062450
Cl195	Cl	0.884209	0.611878	0.312450
Cl196	Cl	1.134209	0.861878	0.562450
H197	H	0.403433	0.112178	0.150877
H198	H	0.653433	0.362178	0.400877
H199	H	0.903433	0.612178	0.650877
H200	H	1.153433	0.862178	0.900877
Cl201	Cl	0.854450	0.241137	0.608375
Cl202	Cl	1.104450	0.491137	0.858375
Cl203	Cl	1.354450	0.741137	1.108375
Cl204	Cl	1.604450	0.991137	1.358375
H205	H	0.846043	-0.289740	0.000047
H206	H	1.096043	-0.039740	0.250047
H207	H	1.346043	0.210260	0.500047
H208	H	1.596043	0.460260	0.750047
H209	H	1.120888	-0.325781	0.000075
H210	H	1.370888	-0.075781	0.250075
H211	H	1.620888	0.174219	0.500075
H212	H	1.870888	0.424219	0.750075
Cl213	Cl	1.151329	-0.506702	0.000060
Cl214	Cl	1.401329	-0.256702	0.250060
Cl215	Cl	1.651329	-0.006702	0.500060
Cl216	Cl	1.901329	0.243298	0.750060
H217	H	0.843288	-0.447074	0.000042
H218	H	1.093288	-0.197074	0.250042
H219	H	1.343288	0.052926	0.500042
H220	H	1.593288	0.302926	0.750042
Cl221	Cl	1.109728	-0.013992	0.391755
Cl222	Cl	1.359728	0.236008	0.641755
Cl223	Cl	1.609728	0.486008	0.891755
Cl224	Cl	1.859728	0.736008	1.141755
