data_functionalizedCrystal
_audit_creation_method	'MofGen! by Chris Wilmer'
_symmetry_space_group_name_H-M	'P1'
_symmetry_Int_Tables_number	1
_symmetry_cell_setting	triclinic
loop_
_symmetry_equiv_pos_as_xyz
  x,y,z
_cell_length_a	6.817900
_cell_length_b	11.102244
_cell_length_c	16.418042
_cell_angle_alpha	93.888670
_cell_angle_beta	103.389568
_cell_angle_gamma	108.604870
loop_
_atom_site_label
_atom_site_type_symbol
_atom_site_fract_x
_atom_site_fract_y
_atom_site_fract_z
V1	V	-4.051815	-0.176871	-0.261151
O2	O	-4.011990	0.007436	-0.256182
O3	O	-4.028995	-0.349684	-0.259363
O4	O	-4.002555	-0.174617	-0.375050
O5	O	-4.038613	-0.168842	-0.139695
V6	V	-4.532240	-0.154771	-0.246625
O7	O	-4.319870	-0.225351	-0.293017
O8	O	-4.714383	-0.106292	-0.214759
O9	O	-4.331854	0.018042	-0.248413
O10	O	-4.689462	-0.339079	-0.251594
O11	O	-4.662839	-0.162800	-0.368081
O12	O	-4.358294	-0.157025	-0.132726
C13	C	-3.880246	-0.391797	-0.255243
C14	C	-3.942869	-0.533077	-0.254540
C15	C	-3.929654	-0.581007	-0.177510
C16	C	-3.988508	-0.713757	-0.176859
C17	C	-4.073781	-0.750636	-0.330276
C18	C	-4.014942	-0.617889	-0.330926
C19	C	-3.880414	-0.559716	-0.088936
C20	C	-3.939268	-0.692465	-0.088285
C21	C	-3.846518	-0.168481	-0.402811
C22	C	-3.887696	-0.167781	-0.495924
C23	C	-4.165418	-0.172509	-0.714410
C24	C	-4.204088	-0.171840	-0.801897
C25	C	-3.837992	-0.159127	-0.793354
C26	C	-3.799321	-0.159786	-0.705868
C27	C	-3.963044	-0.166484	-0.666398
C28	C	-4.040385	-0.165156	-0.841373
C29	C	-4.082311	-0.164431	-0.936230
C30	C	-3.921115	-0.167206	-0.571534
C31	C	-4.143945	0.060148	-0.252531
C32	C	-4.060561	0.201427	-0.253239
C33	C	-4.177673	-0.163166	-0.104960
C34	C	-4.115733	-0.163859	-0.011847
H35	H	-4.087244	-0.732170	-0.063905
C36	C	-3.489279	-0.043432	-0.591212
C37	C	-3.576898	-0.153223	-0.653075
H38	H	-3.351979	-0.039393	-0.558620
H39	H	-3.581269	-0.047500	-0.555204
H40	H	-3.475135	0.031058	-0.617861
H41	H	-3.591057	-0.227714	-0.626426
H42	H	-3.484886	-0.149165	-0.689088
H43	H	-4.025724	-0.578871	-0.393651
H44	H	-3.795795	-0.715337	-0.050898
H45	H	-4.368876	-0.176745	-0.840984
C46	C	-3.734725	-0.152488	-0.923675
C47	C	-3.658045	-0.151784	-0.836745
H48	H	-3.623632	-0.147966	-0.950460
H49	H	-3.779506	-0.080507	-0.932112
H50	H	-3.853022	-0.229482	-0.947410
H51	H	-3.539757	-0.074785	-0.813008
H52	H	-3.613234	-0.223772	-0.828302
H53	H	-3.701890	-0.506793	-0.058345
C54	C	-4.362061	-0.927439	-0.422481
C55	C	-4.152994	-0.843868	-0.414234
H56	H	-4.410953	-0.984999	-0.474313
H57	H	-4.454417	-0.879034	-0.422223
H58	H	-4.362588	-0.974977	-0.376506
H59	H	-4.152469	-0.796323	-0.460206
H60	H	-4.060613	-0.892278	-0.414500
C61	C	-4.168420	-0.607423	-0.021876
C62	C	-4.023046	-0.506763	-0.047595
H63	H	-4.256476	-0.574730	0.003642
H64	H	-4.091522	-0.645609	0.017916
H65	H	-4.255879	-0.670188	-0.069748
H66	H	-3.935576	-0.444002	0.000278
H67	H	-4.099951	-0.468557	-0.087389
H68	H	-4.298733	-0.177960	-0.682276
