data_functionalizedCrystal
_audit_creation_method	'MofGen! by Chris Wilmer'
_symmetry_space_group_name_H-M	'P1'
_symmetry_Int_Tables_number	1
_symmetry_cell_setting	triclinic
loop_
_symmetry_equiv_pos_as_xyz
  x,y,z
_cell_length_a	13.897449
_cell_length_b	18.101395
_cell_length_c	13.897441
_cell_angle_alpha	89.969302
_cell_angle_beta	89.976606
_cell_angle_gamma	90.031931
loop_
_atom_site_label
_atom_site_type_symbol
_atom_site_fract_x
_atom_site_fract_y
_atom_site_fract_z
Zn1	Zn	1.474613	-0.294790	-0.545449
Zn2	Zn	1.474469	-0.418645	-0.384150
Zn3	Zn	1.313302	-0.294824	-0.384160
Zn4	Zn	1.313246	-0.418596	-0.545395
O5	O	1.393907	-0.356714	-0.464789
O6	O	1.609575	-0.311226	-0.524071
O7	O	1.453053	-0.402255	-0.249170
O8	O	1.334784	-0.191186	-0.405582
O9	O	1.609470	-0.402222	-0.405565
O10	O	1.453298	-0.191161	-0.524080
O11	O	1.334644	-0.311284	-0.249177
O12	O	1.178313	-0.311236	-0.405530
O13	O	1.334688	-0.402137	-0.680384
O14	O	1.178272	-0.402171	-0.523989
O15	O	1.453244	-0.311178	-0.680424
O16	O	1.452999	-0.522272	-0.405513
O17	O	1.334549	-0.522235	-0.523979
C18	C	1.143293	-0.356702	-0.464755
C19	C	1.036079	-0.356715	-0.464763
C20	C	0.949009	-0.356718	-0.464779
C21	C	0.839777	-0.356723	-0.464809
C22	C	1.393778	-0.549124	-0.464760
C23	C	1.393811	-0.631438	-0.464780
C24	C	1.394023	-0.930529	-0.464832
C25	C	1.319670	-0.899212	-0.539553
C26	C	1.319317	-0.813594	-0.539319
C27	C	1.393918	-0.782147	-0.464807
C28	C	1.366392	-0.813303	-0.363147
C29	C	1.365913	-0.898948	-0.363594
C30	C	1.496064	-0.898871	-0.490877
C31	C	1.495464	-0.813219	-0.493106
C32	C	1.393860	-0.698287	-0.464787
C33	C	1.394078	-1.014389	-0.464846
C34	C	1.645500	-0.356726	-0.464823
C35	C	1.752714	-0.356731	-0.464837
C36	C	1.393976	-0.356648	-0.716382
C37	C	1.394005	-0.356620	-0.823596
C38	C	1.394063	-0.163552	-0.464838
C39	C	1.394130	-0.081238	-0.464859
C40	C	1.394031	-0.356570	-1.019891
C41	C	1.394014	-0.356600	-0.910658
C42	C	1.393895	-0.356725	-0.214174
C43	C	1.394052	-0.356545	-0.106961
H44	H	1.336539	-0.792526	-0.614699
H45	H	1.243682	-0.793172	-0.522067
H46	H	1.336722	-0.919756	-0.615177
N47	N	1.267113	-0.925508	-0.334368
H48	H	1.224280	-0.881580	-0.321317
H49	H	1.238612	-0.956132	-0.387992
N50	N	1.268634	-0.784980	-0.333400
H51	H	1.218863	-0.801397	-0.381830
H52	H	1.251646	-0.805341	-0.267882
N53	N	1.220088	-0.927802	-0.516997
H54	H	1.222929	-0.960952	-0.458587
H55	H	1.175805	-0.884796	-0.503597
N56	N	1.434498	-0.926398	-0.287308
H57	H	1.434714	-0.982194	-0.286997
H58	H	1.501447	-0.907639	-0.301627
N59	N	1.435863	-0.786329	-0.287384
H60	H	1.485967	-0.753573	-0.318305
H61	H	1.399609	-0.757347	-0.236987
H62	H	1.521159	-0.920415	-0.563744
N63	N	1.522970	-0.786244	-0.592207
H64	H	1.469883	-0.754028	-0.618668
H65	H	1.584496	-0.756698	-0.588066
H66	H	1.553792	-0.791809	-0.442650
H67	H	1.551460	-0.919122	-0.436455
