data_functionalizedCrystal
_audit_creation_method	'MofGen! by Chris Wilmer'
_symmetry_space_group_name_H-M	'P1'
_symmetry_Int_Tables_number	1
_symmetry_cell_setting	triclinic
loop_
_symmetry_equiv_pos_as_xyz
  x,y,z
_cell_length_a	11.169417
_cell_length_b	16.625546
_cell_length_c	16.625539
_cell_angle_alpha	89.969603
_cell_angle_beta	89.982760
_cell_angle_gamma	90.023347
loop_
_atom_site_label
_atom_site_type_symbol
_atom_site_fract_x
_atom_site_fract_y
_atom_site_fract_z
Zn1	Zn	1.834831	-0.320981	-0.455826
Zn2	Zn	1.834686	-0.455824	-0.320988
Zn3	Zn	1.634125	-0.321012	-0.321014
Zn4	Zn	1.634081	-0.455778	-0.455786
O5	O	1.734431	-0.388399	-0.388404
O6	O	2.002761	-0.338875	-0.437945
O7	O	1.808040	-0.437973	-0.208159
O8	O	1.660828	-0.208175	-0.338925
O9	O	2.002655	-0.437944	-0.338881
O10	O	1.808285	-0.208153	-0.437971
O11	O	1.660688	-0.338927	-0.208178
O12	O	1.466170	-0.338882	-0.338886
O13	O	1.660753	-0.437864	-0.568624
O14	O	1.466138	-0.437894	-0.437902
O15	O	1.808243	-0.338830	-0.568653
O16	O	1.807997	-0.568651	-0.338842
O17	O	1.660613	-0.568616	-0.437877
C18	C	1.422606	-0.388387	-0.388393
C19	C	1.289206	-0.388401	-0.388408
C20	C	1.734317	-0.597890	-0.388370
C21	C	1.734379	-0.687511	-0.388382
C22	C	1.734588	-1.015686	-0.388466
C23	C	1.734526	-0.924378	-0.388445
C24	C	1.734482	-0.851601	-0.388424
C25	C	1.734422	-0.760287	-0.388404
C26	C	2.047473	-0.388412	-0.388415
C27	C	2.180873	-0.388417	-0.388419
C28	C	1.734509	-0.388339	-0.598713
C29	C	1.734542	-0.388313	-0.688334
C30	C	1.734578	-0.178090	-0.388455
C31	C	1.734640	-0.088469	-0.388477
C32	C	1.734598	-0.388223	-1.016510
C33	C	1.734579	-0.388250	-0.925201
C34	C	1.734571	-0.388269	-0.852425
C35	C	1.734551	-0.388295	-0.761110
C36	C	1.734422	-0.388400	-0.178913
C37	C	1.734622	-0.388199	-0.089292
