data_functionalizedCrystal
_audit_creation_method	'MofGen! by Chris Wilmer'
_symmetry_space_group_name_H-M	'P1'
_symmetry_Int_Tables_number	1
_symmetry_cell_setting	triclinic
loop_
_symmetry_equiv_pos_as_xyz
  x,y,z
_cell_length_a	10.654549
_cell_length_b	10.967829
_cell_length_c	9.130313
_cell_angle_alpha	77.867600
_cell_angle_beta	89.997498
_cell_angle_gamma	84.600152
loop_
_atom_site_label
_atom_site_type_symbol
_atom_site_fract_x
_atom_site_fract_y
_atom_site_fract_z
O1	O	1.667815	0.175275	-0.166001
O2	O	1.302334	0.191975	-0.170226
O3	O	1.493503	0.002047	-0.122278
O4	O	1.476646	0.365203	-0.213950
O5	O	1.493490	0.002042	0.121323
O6	O	1.302321	0.191969	0.073374
O7	O	1.667802	0.175270	0.077599
Cu8	Cu	1.485060	0.183619	0.097729
Cu9	Cu	1.485076	0.183626	-0.190356
O10	O	1.476633	0.365197	0.029651
C11	C	1.255530	0.190746	-0.048118
C12	C	1.116087	0.187078	-0.047196
C13	C	0.905557	0.295448	-0.074546
C14	C	1.036578	0.298904	-0.075427
C15	C	1.064571	0.071788	-0.018096
C16	C	0.933553	0.068333	-0.017226
C17	C	1.492269	-0.044456	0.011257
C18	C	1.488596	-0.183013	0.046224
C19	C	1.486966	-0.244777	-0.064380
C20	C	1.483170	-0.387982	-0.028244
C21	C	1.714606	0.176498	-0.044512
C22	C	1.854049	0.180167	-0.045444
C23	C	1.477867	0.411700	-0.103888
C24	C	1.481540	0.550257	-0.138864
N25	N	1.485059	0.183614	0.300353
N26	N	1.485088	0.183621	-0.392978
C27	C	1.569737	0.099549	0.398228
C28	C	1.569749	0.099550	0.551564
C29	C	1.400400	0.267689	0.509136
C30	C	1.400383	0.267682	0.355804
H31	H	1.078508	0.392777	-0.099126
F32	F	1.659853	0.010073	0.339220
F33	F	1.659872	0.010075	0.655727
H34	H	1.488375	-0.191635	-0.185826
H35	H	1.129318	-0.019263	0.004882
F36	F	0.878732	-0.054372	0.013734
F37	F	1.481313	-0.457429	0.130506
F38	F	1.486739	-0.252464	0.204966
F39	F	1.483349	-0.380293	-0.297616
F40	F	1.310290	0.357160	0.568161
F41	F	1.310248	0.357154	0.251631
H42	H	0.840828	0.386511	-0.097524
