data_functionalizedCrystal
_audit_creation_method	'MofGen! by Chris Wilmer'
_symmetry_space_group_name_H-M	'P1'
_symmetry_Int_Tables_number	1
_symmetry_cell_setting	triclinic
loop_
_symmetry_equiv_pos_as_xyz
  x,y,z
_cell_length_a	14.044202
_cell_length_b	19.188924
_cell_length_c	17.666332
_cell_angle_alpha	89.990193
_cell_angle_beta	89.996322
_cell_angle_gamma	91.832667
loop_
_atom_site_label
_atom_site_type_symbol
_atom_site_fract_x
_atom_site_fract_y
_atom_site_fract_z
O1	O	-1.256996	0.168317	-0.062917
O2	O	-0.981052	0.162238	-0.062926
O3	O	-1.126990	0.064136	-0.062912
O4	O	-1.111057	0.266419	-0.062931
O5	O	-1.126994	0.064125	0.062984
O6	O	-0.981055	0.162227	0.062970
O7	O	-1.256999	0.168307	0.062980
Cu8	Cu	-1.119027	0.165266	0.074471
Cu9	Cu	-1.119023	0.165278	-0.074417
O10	O	-1.111060	0.266409	0.062966
C11	C	-0.945750	0.159574	0.000021
C12	C	-0.840557	0.151642	0.000018
C13	C	-0.590097	0.193389	0.000021
C14	C	-0.647961	0.137153	0.000025
C15	C	-0.755131	0.145217	0.000021
C16	C	-0.482916	0.185326	0.000025
C17	C	-1.126477	0.038086	0.000037
C18	C	-1.124931	-0.039518	0.000039
C19	C	-1.124208	-0.075958	-0.068588
C20	C	-1.122743	-0.148875	-0.068594
C21	C	-1.122019	-0.185351	0.000031
C22	C	-1.122737	-0.148902	0.068667
C23	C	-1.124193	-0.075986	0.068670
N24	N	-1.173661	-0.301685	0.051109
N25	N	-1.172279	-0.370952	0.051100
C26	C	-1.117630	-0.405043	0.000024
N27	N	-1.064425	-0.367251	-0.051056
N28	N	-1.065811	-0.297977	-0.051050
C29	C	-1.120440	-0.264416	0.000035
C30	C	-1.115316	-0.520548	-0.068614
C31	C	-1.113844	-0.593467	-0.068617
C32	C	-1.113848	-0.593493	0.068645
C33	C	-1.115310	-0.520575	0.068646
C34	C	-1.116049	-0.484108	0.000015
C35	C	-0.292301	0.170969	0.000031
C36	C	-0.397494	0.178896	0.000028
C37	C	-1.111574	0.292458	0.000015
C38	C	-1.113119	0.370063	0.000008
N39	N	-1.119021	0.165282	-0.179136
C40	C	-1.183758	0.121943	-0.218740
C41	C	-1.183766	0.121942	-0.297987
C42	C	-1.119022	0.165273	-0.337628
C43	C	-1.054281	0.208621	-0.298015
C44	C	-1.054280	0.208626	-0.218769
N45	N	-1.035134	0.168784	-0.462057
N46	N	-1.035138	0.168776	-0.537338
C47	C	-1.119020	0.165263	-0.576392
N48	N	-1.202902	0.161745	-0.537323
N49	N	-1.202898	0.161750	-0.462035
C50	C	-1.119015	0.165273	-0.423558
C51	C	-1.183771	0.121921	-0.701925
C52	C	-1.183781	0.121925	-0.781174
C53	C	-1.054287	0.208600	-0.781201
C54	C	-1.054285	0.208600	-0.701953
C55	C	-1.119027	0.165256	-0.662320
N56	N	-1.119037	0.165257	0.179190
H57	H	-0.617012	0.082952	-0.000024
C58	C	-1.035511	-0.435819	0.148280
C59	C	-1.116117	-0.480518	0.144085
H60	H	-1.036007	-0.411094	0.194858
H61	H	-1.036159	-0.403664	0.107416
H62	H	-0.979701	-0.462387	0.145422
H63	H	-1.171928	-0.453949	0.146937
H64	H	-1.115478	-0.512677	0.184960
H65	H	-0.621044	0.247585	0.000014
C66	C	-1.240229	0.004666	-0.322420
C67	C	-1.254923	0.074316	-0.341559
H68	H	-1.284154	-0.024729	-0.349329
H69	H	-1.249524	-0.001550	-0.269563
H70	H	-1.177046	-0.006961	-0.335399
H71	H	-1.318103	0.085945	-0.328574
H72	H	-1.245636	0.080536	-0.394427
C73	C	-1.124056	-0.083263	-0.204265
C74	C	-1.125005	-0.035874	-0.144027
H75	H	-1.124539	-0.058513	-0.250836
H76	H	-1.178735	-0.113582	-0.201409
H77	H	-1.068238	-0.109823	-0.201406
H78	H	-1.180827	-0.009316	-0.146882
H79	H	-1.070320	-0.005542	-0.146884
C80	C	-1.039657	-0.228099	-0.148208
C81	C	-1.121941	-0.188953	-0.144025
H82	H	-1.039160	-0.252839	-0.194777
H83	H	-1.039022	-0.260240	-0.107332
H84	H	-0.984986	-0.197761	-0.145366
H85	H	-1.176613	-0.219292	-0.146862
H86	H	-1.122585	-0.156808	-0.184913
H87	H	-1.122145	-0.178605	0.124541
H88	H	-1.124778	-0.046317	0.124556
C89	C	-1.311761	0.036238	-0.773183
C90	C	-1.254944	0.074281	-0.824710
H91	H	-1.355690	0.006822	-0.800063
H92	H	-1.345643	0.067479	-0.742281
H93	H	-1.272481	0.008605	-0.742270
H94	H	-1.294224	0.101919	-0.855620
H95	H	-1.221060	0.043037	-0.855626
C96	C	-1.115153	-0.527844	-0.204291
C97	C	-1.116112	-0.480457	-0.144051
H98	H	-1.115638	-0.503093	-0.250862
H99	H	-1.169829	-0.558167	-0.201438
H100	H	-1.059332	-0.554401	-0.201431
H101	H	-1.171937	-0.453904	-0.146908
H102	H	-1.061431	-0.450121	-0.146905
C103	C	-1.030766	-0.672663	-0.148271
C104	C	-1.113049	-0.633520	-0.144060
H105	H	-1.030276	-0.697386	-0.194850
H106	H	-1.030123	-0.704821	-0.107409
H107	H	-0.976094	-0.642326	-0.145421
H108	H	-1.167722	-0.663858	-0.146904
H109	H	-1.113701	-0.601360	-0.184933
C110	C	-1.111581	-0.705274	0.129586
C111	C	-1.113026	-0.633577	0.144080
H112	H	-1.111068	-0.730021	0.176159
H113	H	-1.056105	-0.715322	0.101377
H114	H	-1.166602	-0.719103	0.101403
H115	H	-1.058001	-0.619747	0.172259
H116	H	-1.168507	-0.623524	0.172302
H117	H	-1.001566	0.243903	-0.330295
C118	C	-1.204969	0.028238	-0.612784
C119	C	-1.254935	0.074284	-0.658351
H120	H	-1.248903	-0.001173	-0.585887
H121	H	-1.166415	0.054049	-0.577860
H122	H	-1.165713	0.000600	-0.643706
H123	H	-1.294186	0.101926	-0.627428
H124	H	-1.293505	0.048470	-0.693279
C125	C	-0.890002	0.239078	-0.805613
C126	C	-0.983120	0.256234	-0.824765
H127	H	-0.846070	0.268491	-0.832509
H128	H	-0.880036	0.191836	-0.818595
H129	H	-0.880746	0.245284	-0.752748
H130	H	-0.992379	0.250023	-0.877630
H131	H	-0.993090	0.303487	-0.811789
H132	H	-1.236476	0.086652	-0.186473
C133	C	-0.925252	0.215479	-0.612842
C134	C	-0.983115	0.256233	-0.658414
H135	H	-0.881318	0.244890	-0.585961
H136	H	-0.891376	0.184241	-0.643752
H137	H	-0.963821	0.189675	-0.577897
H138	H	-0.944546	0.282033	-0.693363
H139	H	-1.016994	0.287483	-0.627502
H140	H	-1.001563	0.243919	-0.186523
