data_functionalizedCrystal
_audit_creation_method	'MofGen! by Chris Wilmer'
_symmetry_space_group_name_H-M	'P1'
_symmetry_Int_Tables_number	1
_symmetry_cell_setting	triclinic
loop_
_symmetry_equiv_pos_as_xyz
  x,y,z
_cell_length_a	15.538191
_cell_length_b	16.109302
_cell_length_c	14.586319
_cell_angle_alpha	89.994552
_cell_angle_beta	89.999456
_cell_angle_gamma	65.366938
loop_
_atom_site_label
_atom_site_type_symbol
_atom_site_fract_x
_atom_site_fract_y
_atom_site_fract_z
O1	O	0.121097	1.066615	-0.076271
O2	O	0.621097	1.566615	0.423729
O3	O	0.136166	0.820009	-0.076263
O4	O	0.636166	1.320009	0.423737
O5	O	-0.008513	0.991316	-0.076273
O6	O	0.491487	1.491316	0.423727
O7	O	0.265775	0.895308	-0.076261
O8	O	0.765775	1.395308	0.423739
O9	O	-0.008515	0.991308	0.076208
O10	O	0.491485	1.491308	0.576208
O11	O	0.136164	0.820001	0.076218
O12	O	0.636164	1.320001	0.576218
O13	O	0.121095	1.066607	0.076210
O14	O	0.621095	1.566607	0.576210
Cu15	Cu	0.128629	0.943303	0.090137
Cu16	Cu	0.628629	1.443303	0.590137
Cu17	Cu	0.128631	0.943313	-0.090190
Cu18	Cu	0.628631	1.443313	0.409810
O19	O	0.265773	0.895300	0.076220
O20	O	0.765773	1.395300	0.576220
C21	C	0.135554	0.789214	-0.000021
C22	C	0.635554	1.289214	0.499979
C23	C	0.133724	0.697471	-0.000019
C24	C	0.633724	1.197471	0.499981
C25	C	0.129490	0.486402	0.083089
C26	C	0.629490	0.986402	0.583089
C27	C	0.127760	0.400204	0.083086
C28	C	0.627760	0.900204	0.583086
C29	C	0.127767	0.400221	-0.083157
C30	C	0.627767	0.900221	0.416843
C31	C	0.129491	0.486421	-0.083153
C32	C	0.629491	0.986421	0.416847
C33	C	0.130357	0.529507	-0.000027
C34	C	0.630357	1.029507	0.499973
C35	C	0.126904	0.357109	-0.000034
C36	C	0.626904	0.857109	0.499966
C37	C	0.125028	0.263649	-0.000038
C38	C	0.625028	0.763649	0.499962
C39	C	0.132231	0.622974	-0.000022
C40	C	0.632231	1.122974	0.499978
C41	C	-0.043612	1.001357	-0.000036
C42	C	0.456388	1.501357	0.499964
C43	C	-0.148195	1.031277	-0.000046
C44	C	0.351805	1.531277	0.499954
C45	C	-0.435895	0.734025	-0.000016
C46	C	0.064105	1.234025	0.499984
C47	C	-0.534170	0.762160	-0.000015
C48	C	-0.034170	1.262160	0.499985
C49	C	-0.556661	0.920418	-0.000021
C50	C	-0.056661	1.420418	0.499979
C51	C	-0.458386	0.892296	-0.000026
C52	C	0.041614	1.392296	0.499974
C53	C	-0.398011	0.799098	-0.000023
C54	C	0.101989	1.299098	0.499977
C55	C	-0.420502	0.957369	-0.000033
C56	C	0.079498	1.457369	0.499967
C57	C	-0.322236	0.929248	-0.000034
C58	C	0.177764	1.429248	0.499966
C59	C	-0.261855	0.836054	-0.000028
C60	C	0.238145	1.336054	0.499972
C61	C	-0.299745	0.770977	-0.000024
C62	C	0.200255	1.270977	0.499976
C63	C	-0.480879	1.050566	-0.000030
C64	C	0.019121	1.550566	0.499970
C65	C	-0.442995	1.115639	-0.000037
C66	C	0.057005	1.615639	0.499963
C67	C	-0.344727	1.087519	-0.000044
C68	C	0.155273	1.587519	0.499956
C69	C	-0.284346	0.994325	-0.000038
C70	C	0.215654	1.494325	0.499962
C71	C	-0.306837	1.152596	-0.000049
C72	C	0.193163	1.652596	0.499951
C73	C	-0.208571	1.124475	-0.000049
C74	C	0.291429	1.624475	0.499951
C75	C	-0.186080	0.966204	-0.000039
C76	C	0.313920	1.466204	0.499961
C77	C	0.300873	0.885259	-0.000019
C78	C	0.800873	1.385259	0.499981
C79	C	0.405456	0.855339	-0.000015
C80	C	0.905456	1.355339	0.499985
C81	C	0.121706	1.097402	-0.000034
C82	C	0.621706	1.597402	0.499966
C83	C	0.123537	1.189145	-0.000042
C84	C	0.623537	1.689145	0.499958
N85	N	0.128627	0.943303	0.216968
N86	N	0.628627	1.443303	0.716968
N87	N	0.128626	0.943322	-0.217021
N88	N	0.628626	1.443322	0.282979
C89	C	0.064584	1.019169	0.451970
C90	C	0.564584	1.519169	0.951970
C91	C	0.064582	1.019173	0.547952
C92	C	0.564582	1.519173	1.047952
C93	C	0.192672	0.867449	0.547970
C94	C	0.692672	1.367449	1.047970
C95	C	0.192669	0.867444	0.451991
C96	C	0.692669	1.367444	0.951991
C97	C	0.128626	0.943309	0.403993
C98	C	0.628626	1.443309	0.903993
C99	C	0.128627	0.943316	0.595954
C100	C	0.628627	1.443316	1.095954
C101	C	0.128625	0.943319	0.700021
C102	C	0.628625	1.443319	1.200021
C103	C	0.128627	0.943305	0.299919
C104	C	0.628627	1.443305	0.799919
H105	H	0.130196	0.521480	0.150776
H106	H	0.630196	1.021480	0.650776
C107	C	0.126822	0.352816	-0.174590
C108	C	0.626822	0.852816	0.325410
N109	N	0.126114	0.317109	-0.243460
N110	N	0.626114	0.817109	0.256540
H111	H	0.244820	0.805664	0.412925
H112	H	0.744820	1.305664	0.912925
H113	H	-0.250583	0.695086	-0.000028
H114	H	0.249417	1.195086	0.499972
H115	H	0.130194	0.521519	-0.150840
H116	H	0.630194	1.021519	0.349160
H117	H	0.244815	0.805682	0.587059
H118	H	0.744815	1.305682	1.087059
H119	H	-0.565010	0.709163	0.000004
H120	H	-0.065010	1.209163	0.500004
C121	C	0.126818	0.352787	0.174521
C122	C	0.626818	0.852787	0.674521
N123	N	0.126111	0.317072	0.243393
N124	N	0.626111	0.817072	0.743393
H125	H	-0.605831	0.996300	-0.000020
H126	H	-0.105831	1.496300	0.499980
C127	C	-0.005877	1.102621	0.600722
C128	C	0.494123	1.602621	1.100722
N129	N	-0.058953	1.165477	0.640468
N130	N	0.441047	1.665477	1.140468
H131	H	-0.136918	0.890313	-0.000043
H132	H	0.363082	1.390313	0.499957
C133	C	-0.166895	1.196059	-0.000062
C134	C	0.333105	1.696059	0.499938
N135	N	-0.135506	1.249978	-0.000070
N136	N	0.364494	1.749978	0.499930
H137	H	-0.181841	0.813160	-0.000023
H138	H	0.318159	1.313160	0.499977
C139	C	-0.369476	0.631501	-0.000013
C140	C	0.130524	1.131501	0.499987
N141	N	-0.319450	0.554285	-0.000008
N142	N	0.180550	1.054285	0.499992
H143	H	-0.560893	1.073459	-0.000038
H144	H	-0.060893	1.573459	0.499962
H145	H	0.012436	1.080942	0.412893
H146	H	0.512436	1.580942	0.912893
H147	H	-0.356008	1.228478	-0.000042
H148	H	0.143992	1.728478	0.499958
C149	C	-0.509418	1.218155	-0.000042
C150	C	-0.009418	1.718155	0.499958
N151	N	-0.559447	1.295371	-0.000049
N152	N	-0.059447	1.795371	0.499951
