data_functionalizedCrystal
_audit_creation_method	'MofGen! by Chris Wilmer'
_symmetry_space_group_name_H-M	'P1'
_symmetry_Int_Tables_number	1
_symmetry_cell_setting	triclinic
loop_
_symmetry_equiv_pos_as_xyz
  x,y,z
_cell_length_a	9.065218
_cell_length_b	9.065218
_cell_length_c	22.610064
_cell_angle_alpha	90.003700
_cell_angle_beta	90.015297
_cell_angle_gamma	94.984115
loop_
_atom_site_label
_atom_site_type_symbol
_atom_site_fract_x
_atom_site_fract_y
_atom_site_fract_z
O1	O	1.960424	-0.216341	0.049198
O2	O	2.460424	0.283659	0.549198
O3	O	1.531139	-0.234087	0.049196
O4	O	2.031139	0.265913	0.549196
O5	O	1.754654	-0.010572	0.049196
O6	O	2.254654	0.489428	0.549196
O7	O	1.736908	-0.439856	0.049198
O8	O	2.236908	0.060144	0.549198
O9	O	1.754591	-0.010596	-0.049173
O10	O	2.254591	0.489404	0.450827
O11	O	1.531075	-0.234112	-0.049173
O12	O	2.031075	0.265888	0.450827
O13	O	1.960360	-0.216366	-0.049171
O14	O	2.460360	0.283634	0.450829
Zn15	Zn	1.745707	-0.225243	-0.064790
Zn16	Zn	2.245707	0.274757	0.435210
Zn17	Zn	1.745791	-0.225210	0.064815
Zn18	Zn	2.245791	0.274790	0.564815
O19	O	1.736844	-0.439881	-0.049171
O20	O	2.236844	0.060119	0.450829
C21	C	1.476120	-0.232394	0.000011
C22	C	1.976120	0.267606	0.500011
C23	C	1.312277	-0.227294	0.000010
C24	C	1.812277	0.272706	0.500010
N25	N	1.745661	-0.225264	-0.153243
N26	N	2.245661	0.274736	0.346757
C27	C	1.752917	0.044403	0.000012
C28	C	2.252917	0.544403	0.500012
C29	C	1.747817	0.208245	0.000015
C30	C	2.247817	0.708245	0.500015
C31	C	2.015378	-0.218059	0.000016
C32	C	2.515378	0.281941	0.500016
C33	C	2.179221	-0.223158	0.000020
C34	C	2.679221	0.276842	0.500020
C35	C	1.738582	-0.494855	0.000014
C36	C	2.238582	0.005145	0.500014
C37	C	1.743681	-0.658698	0.000015
C38	C	2.243681	-0.158698	0.500015
C39	C	1.655070	-0.134458	-0.438085
C40	C	2.155070	0.365542	0.061915
C41	C	1.655056	-0.134465	-0.376165
C42	C	2.155056	0.365535	0.123835
O43	O	1.577972	-0.057262	-0.344142
O44	O	2.077972	0.442738	0.155858
N45	N	1.745722	-0.225218	-0.345195
N46	N	2.245722	0.274782	0.154805
C47	C	1.836418	-0.315959	-0.376148
C48	C	2.336418	0.184041	0.123852
O49	O	1.913536	-0.393152	-0.344120
O50	O	2.413536	0.106848	0.155880
C51	C	1.836439	-0.315944	-0.438067
C52	C	2.336439	0.184056	0.061933
C53	C	1.745756	-0.225195	-0.469034
C54	C	2.245756	0.274805	0.030966
C55	C	1.564396	-0.043716	-0.469052
C56	C	2.064396	0.456284	0.030948
C57	C	1.564409	-0.043711	-0.530968
C58	C	2.064409	0.456289	-0.030968
C59	C	1.655095	-0.134449	-0.561916
C60	C	2.155095	0.365551	-0.061916
C61	C	1.745769	-0.225191	-0.530949
C62	C	2.245769	0.274809	-0.030949
C63	C	1.927142	-0.406676	-0.469019
C64	C	2.427142	0.093324	0.030981
C65	C	1.927156	-0.406652	-0.530942
C66	C	2.427156	0.093348	-0.030942
C67	C	1.836473	-0.315903	-0.561909
C68	C	2.336473	0.184097	-0.061909
C69	C	1.836467	-0.315924	-0.623814
C70	C	2.336467	0.184076	-0.123814
N71	N	1.745802	-0.225171	-0.654784
N72	N	2.245802	0.274829	-0.154784
C73	C	1.655115	-0.134433	-0.623835
C74	C	2.155115	0.365567	-0.123835
C75	C	1.836369	-0.315984	-0.246114
C76	C	2.336369	0.184016	0.253886
C77	C	1.836342	-0.316008	-0.184197
C78	C	2.336342	0.183992	0.315803
C79	C	1.654982	-0.134511	-0.184218
C80	C	2.154982	0.365489	0.315782
C81	C	1.655002	-0.134495	-0.246137
C82	C	2.155002	0.365505	0.253863
C83	C	1.745704	-0.225230	-0.277085
C84	C	2.245704	0.274770	0.222915
C85	C	1.655147	-0.134431	-0.753862
C86	C	2.155147	0.365569	-0.253862
C87	C	1.655163	-0.134439	-0.815784
C88	C	2.155163	0.365561	-0.315784
C89	C	1.836528	-0.315930	-0.815757
C90	C	2.336528	0.184070	-0.315757
C91	C	1.836508	-0.315928	-0.753841
C92	C	2.336508	0.184072	-0.253841
C93	C	1.745813	-0.225167	-0.722895
C94	C	2.245813	0.274833	-0.222895
O95	O	1.913517	-0.393083	-0.655877
O96	O	2.413517	0.106917	-0.155877
O97	O	1.578025	-0.057239	-0.655871
O98	O	2.078025	0.442761	-0.155871
N99	N	1.745849	-0.225177	0.153268
N100	N	2.245849	0.274823	0.653268
H101	H	1.581312	-0.060541	-0.840994
H102	H	2.081312	0.439459	-0.340994
Br103	Br	2.050180	-0.529882	-0.427008
Br104	Br	2.550180	-0.029882	0.072992
H105	H	1.910167	-0.389922	-0.158989
H106	H	2.410167	0.110078	0.341011
Br107	Br	1.531930	-0.011333	-0.288157
Br108	Br	2.031930	0.488667	0.211843
H109	H	1.490571	0.030191	-0.556176
H110	H	1.990571	0.530191	-0.056176
Br111	Br	1.959596	-0.439068	-0.711813
Br112	Br	2.459596	0.060932	-0.211813
H113	H	1.910359	-0.389810	-0.840966
H114	H	2.410359	0.110190	-0.340966
H115	H	2.001020	-0.480539	-0.556136
H116	H	2.501020	0.019461	-0.056136
H117	H	1.490548	0.030181	-0.443860
H118	H	1.990548	0.530181	0.056140
Br119	Br	1.531906	-0.011365	-0.142205
Br120	Br	2.031906	0.488635	0.357795
Br121	Br	1.532068	-0.011247	-0.711874
Br122	Br	2.032068	0.488753	-0.211874
Br123	Br	1.959465	-0.439147	-0.288108
Br124	Br	2.459465	0.060853	0.211892
