data_functionalizedCrystal
_audit_creation_method	'MofGen! by Chris Wilmer'
_symmetry_space_group_name_H-M	'P1'
_symmetry_Int_Tables_number	1
_symmetry_cell_setting	triclinic
loop_
_symmetry_equiv_pos_as_xyz
  x,y,z
_cell_length_a	10.540539
_cell_length_b	13.339070
_cell_length_c	11.804783
_cell_angle_alpha	99.452288
_cell_angle_beta	76.826486
_cell_angle_gamma	79.922607
loop_
_atom_site_label
_atom_site_type_symbol
_atom_site_fract_x
_atom_site_fract_y
_atom_site_fract_z
O1	O	1.705258	-0.124485	0.098959
O2	O	1.340431	-0.137949	0.098973
O3	O	1.480975	0.016349	0.098964
O4	O	1.564714	-0.278782	0.098968
O5	O	1.539686	-0.020555	-0.099078
O6	O	1.399141	-0.174852	-0.099069
O7	O	1.763969	-0.161389	-0.099083
Cu8	Cu	1.586916	-0.171490	-0.117159
Cu9	Cu	1.517484	-0.127847	0.117049
O10	O	1.623424	-0.315686	-0.099074
C11	C	1.322138	-0.155390	-0.000046
C12	C	1.180159	-0.152368	-0.000041
N13	N	1.635760	-0.202186	-0.281888
C14	C	1.496184	0.035689	-0.000055
C15	C	1.454019	0.148297	-0.000048
C16	C	0.957407	-0.036677	-0.000504
C17	C	1.104933	-0.039654	-0.000046
C18	C	1.103449	-0.185537	0.113047
C19	C	0.955569	-0.181675	0.113130
C20	C	1.022627	-0.225935	-0.112081
C21	C	1.170403	-0.227249	-0.113564
C22	C	1.782260	-0.143946	-0.000061
C23	C	1.924237	-0.146967	-0.000059
C24	C	1.608214	-0.335026	-0.000053
C25	C	1.650378	-0.447632	-0.000051
C26	C	1.781866	0.510718	-0.000062
C27	C	1.821488	0.404917	-0.000075
C28	C	1.729624	0.340757	-0.000068
C29	C	1.598131	0.382408	-0.000049
C30	C	1.558507	0.488218	-0.000045
C31	C	1.506265	0.318257	-0.000051
C32	C	1.374772	0.359908	-0.000032
C33	C	1.335155	0.465708	-0.000028
C34	C	1.427019	0.529868	-0.000035
C35	C	1.545889	0.212447	-0.000055
C36	C	1.322531	0.189946	-0.000038
C37	C	1.282908	0.295748	-0.000025
C38	C	1.351306	-0.023423	-0.655904
C39	C	1.314329	-0.000196	-0.531251
C40	C	1.394684	-0.050692	-0.468904
C41	C	1.512022	-0.124418	-0.531222
C42	C	1.549008	-0.147642	-0.655888
C43	C	1.592385	-0.174911	-0.468888
C44	C	1.709723	-0.248637	-0.531206
C45	C	1.746703	-0.271858	-0.655859
C46	C	1.666348	-0.221362	-0.718206
C47	C	1.555399	-0.151687	-0.344223
C48	C	1.753100	-0.275906	-0.344207
C49	C	1.790077	-0.299133	-0.468860
N50	N	1.468647	-0.097143	0.281778
H51	H	0.937687	-0.007261	-0.081607
H52	H	1.218796	0.059835	-0.480520
O53	O	1.223431	0.120761	-0.000035
H54	H	1.212199	0.087065	0.080688
H55	H	1.761893	0.254609	-0.000078
H56	H	1.157032	-0.012080	-0.081113
H57	H	0.888634	-0.125833	0.197663
H58	H	1.228087	0.499615	-0.000022
H59	H	1.175844	0.329675	-0.000011
O60	O	1.239600	-0.195401	-0.224387
H61	H	1.232255	-0.248694	-0.304221
O62	O	1.242265	-0.337793	-0.122616
H63	H	1.322904	-0.363842	-0.206969
H64	H	0.888177	0.022692	0.080145
H65	H	1.364569	-0.031776	-0.367406
H66	H	1.459861	-0.091659	-0.293495
H67	H	0.933708	-0.261781	0.118264
O68	O	1.963304	0.360000	-0.000094
H69	H	1.975428	0.275648	-0.000110
H70	H	1.394763	0.616022	-0.000020
H71	H	1.107954	0.018459	0.081160
H72	H	1.696446	-0.240275	-0.819709
H73	H	1.285901	0.017689	-0.706678
H74	H	1.842255	-0.331882	-0.706596
O75	O	1.916649	-0.378635	-0.536077
H76	H	1.928868	-0.386287	-0.633231
O77	O	1.839771	-0.330386	-0.276976
H78	H	1.874191	-0.271710	-0.220156
O79	O	1.168772	-0.294138	0.118645
H80	H	1.256819	-0.325696	0.040699
O81	O	0.998057	-0.198763	-0.225629
H82	H	0.893883	-0.201682	-0.227263
O83	O	1.109772	-0.114849	0.224539
H84	H	1.167449	-0.056049	0.199692
H85	H	1.003376	-0.307490	-0.112844
H86	H	1.652952	0.178545	-0.000070
H87	H	1.856650	0.562964	-0.000077
