data_functionalizedCrystal
_audit_creation_method	'MofGen! by Chris Wilmer'
_symmetry_space_group_name_H-M	'P1'
_symmetry_Int_Tables_number	1
_symmetry_cell_setting	triclinic
loop_
_symmetry_equiv_pos_as_xyz
  x,y,z
_cell_length_a	17.699097
_cell_length_b	14.044190
_cell_length_c	16.176319
_cell_angle_alpha	89.988653
_cell_angle_beta	89.988988
_cell_angle_gamma	88.240103
loop_
_atom_site_label
_atom_site_type_symbol
_atom_site_fract_x
_atom_site_fract_y
_atom_site_fract_z
O1	O	1.012347	0.119911	-0.068825
O2	O	1.512347	0.619911	0.431175
O3	O	0.793045	0.135491	-0.068813
O4	O	1.293045	0.635491	0.431187
O5	O	0.899401	-0.010277	-0.068803
O6	O	1.399401	0.489723	0.431197
O7	O	0.905990	0.265678	-0.068835
O8	O	1.405990	0.765678	0.431165
O9	O	0.899384	-0.010286	0.068691
O10	O	1.399384	0.489714	0.568691
O11	O	0.793028	0.135481	0.068680
O12	O	1.293028	0.635481	0.568680
O13	O	1.012330	0.119902	0.068668
O14	O	1.512330	0.619902	0.568668
Cu15	Cu	0.902677	0.127691	0.081228
Cu16	Cu	1.402677	0.627691	0.581228
Cu17	Cu	0.902697	0.127702	-0.081373
Cu18	Cu	1.402697	0.627702	0.418627
O19	O	0.905973	0.265669	0.068658
O20	O	1.405973	0.765669	0.568658
C21	C	0.764801	0.134926	-0.000065
C22	C	1.264801	0.634926	0.499935
C23	C	0.680667	0.133244	-0.000059
C24	C	1.180667	0.633244	0.499941
C25	C	0.164247	0.122945	-0.075039
C26	C	0.664247	0.622945	0.424961
C27	C	0.243300	0.124518	-0.075035
C28	C	0.743300	0.624518	0.424965
C29	C	0.282811	0.125301	-0.000084
C30	C	0.782811	0.625301	0.499916
C31	C	0.243266	0.124501	0.074868
C32	C	0.743266	0.624501	0.574868
C33	C	0.164215	0.122921	0.074863
C34	C	0.664215	0.622921	0.574863
C35	C	0.562069	0.130871	0.074889
C36	C	1.062069	0.630871	0.574889
C37	C	0.641126	0.132454	0.074888
C38	C	1.141126	0.632454	0.574888
C39	C	0.641154	0.132468	-0.075009
C40	C	1.141154	0.632468	0.424991
C41	C	0.562103	0.130888	-0.075014
C42	C	1.062103	0.630888	0.424986
C43	C	0.522565	0.130083	-0.000063
C44	C	1.022565	0.630083	0.499937
C45	C	0.436847	0.128376	-0.000068
C46	C	0.936847	0.628376	0.499932
C47	C	0.368527	0.127015	-0.000078
C48	C	0.868527	0.627015	0.499922
C49	C	0.896510	-0.045589	-0.000053
C50	C	1.396510	0.454411	0.499947
C51	C	0.887912	-0.150796	-0.000046
C52	C	1.387912	0.349204	0.499954
C53	C	0.933172	-0.401184	-0.000081
C54	C	1.433172	0.098816	0.499919
C55	C	0.872205	-0.343418	-0.000072
C56	C	1.372205	0.156582	0.499928
C57	C	0.880947	-0.236234	-0.000057
C58	C	1.380947	0.263766	0.499943
C59	C	0.924432	-0.508379	-0.000095
C60	C	1.424432	-0.008379	0.499905
C61	C	1.040574	0.120467	-0.000082
C62	C	1.540574	0.620467	0.499918
C63	C	1.124707	0.122148	-0.000093
C64	C	1.624707	0.622148	0.499907
C65	C	0.908864	0.300981	-0.000093
C66	C	1.408864	0.800981	0.499907
C67	C	0.917462	0.406188	-0.000106
C68	C	1.417462	0.906188	0.499894
N69	N	0.902669	0.127682	0.195594
N70	N	1.402669	0.627682	0.695594
N71	N	0.902711	0.127702	-0.195738
N72	N	1.402711	0.627702	0.304262
C73	C	0.949781	0.063163	0.238862
C74	C	1.449781	0.563163	0.738862
C75	C	0.949785	0.063162	0.325409
C76	C	1.449785	0.563162	0.825409
C77	C	0.902680	0.127686	0.368686
C78	C	1.402680	0.627686	0.868686
C79	C	0.855563	0.192208	0.325411
C80	C	1.355563	0.692208	0.825411
C81	C	0.855556	0.192204	0.238866
C82	C	1.355556	0.692204	0.738866
C83	C	0.855590	0.192226	0.674440
C84	C	1.355590	0.692226	1.174440
C85	C	0.855602	0.192227	0.760991
C86	C	1.355602	0.692227	1.260991
C87	C	0.949819	0.063184	0.760983
C88	C	1.449819	0.563184	1.260983
C89	C	0.949812	0.063180	0.674438
C90	C	1.449812	0.563180	1.174438
C91	C	0.902692	0.127698	0.631170
C92	C	1.402692	0.627698	1.131170
C93	C	0.902688	0.127697	0.537326
C94	C	1.402688	0.627697	1.037326
C95	C	0.902688	0.127692	0.462529
C96	C	1.402688	0.627692	0.962529
H97	H	0.673356	0.133119	-0.136038
H98	H	1.173356	0.633119	0.363962
Cl99	Cl	0.796340	0.273321	0.379814
Cl100	Cl	1.296340	0.773321	0.879814
H101	H	0.673294	0.133092	0.135925
H102	H	1.173294	0.633092	0.635925
Cl103	Cl	0.512436	0.129908	-0.169242
Cl104	Cl	1.012436	0.629908	0.330758
Cl105	Cl	0.796359	0.273336	0.620052
Cl106	Cl	1.296359	0.773336	1.120052
Cl107	Cl	0.114508	0.121911	0.169085
Cl108	Cl	0.614508	0.621911	0.669085
H109	H	0.991928	-0.370142	-0.000075
H110	H	1.491928	0.129858	0.499925
Cl111	Cl	0.796323	0.273315	0.184472
Cl112	Cl	1.296323	0.773315	0.684472
H113	H	0.988142	0.010624	0.203632
H114	H	1.488142	0.510624	0.703632
Cl115	Cl	0.114583	0.121967	-0.169269
Cl116	Cl	0.614583	0.621967	0.330731
H117	H	0.988146	0.010625	0.360639
H118	H	1.488146	0.510625	0.860639
Cl119	Cl	0.796379	0.273348	0.815395
Cl120	Cl	1.296379	0.773348	1.315395
H121	H	0.275490	0.125161	-0.136064
H122	H	0.775490	0.625161	0.363936
Cl123	Cl	0.512374	0.129886	0.169113
Cl124	Cl	1.012374	0.629886	0.669113
Cl125	Cl	0.781482	-0.391343	-0.000068
Cl126	Cl	1.281482	0.108657	0.499932
Cl127	Cl	0.292937	0.125484	0.169092
Cl128	Cl	0.792937	0.625484	0.669092
Cl129	Cl	1.009034	-0.017935	0.620036
Cl130	Cl	1.509034	0.482065	1.120036
H131	H	0.988184	0.010646	0.796221
H132	H	1.488184	0.510646	1.296221
