data_functionalizedCrystal
_audit_creation_method	'MofGen! by Chris Wilmer'
_symmetry_space_group_name_H-M	'P1'
_symmetry_Int_Tables_number	1
_symmetry_cell_setting	triclinic
loop_
_symmetry_equiv_pos_as_xyz
  x,y,z
_cell_length_a	12.759401
_cell_length_b	12.759400
_cell_length_c	12.759393
_cell_angle_alpha	89.969553
_cell_angle_beta	89.980535
_cell_angle_gamma	90.012838
loop_
_atom_site_label
_atom_site_type_symbol
_atom_site_fract_x
_atom_site_fract_y
_atom_site_fract_z
Zn1	Zn	1.606267	-0.418214	-0.594017
Zn2	Zn	1.606166	-0.593932	-0.418340
Zn3	Zn	1.430569	-0.418267	-0.418353
Zn4	Zn	1.430562	-0.593850	-0.593979
O5	O	1.518391	-0.506066	-0.506172
O6	O	1.753274	-0.441535	-0.570723
O7	O	1.582833	-0.570687	-0.271321
O8	O	1.453920	-0.271239	-0.441677
O9	O	1.753200	-0.570635	-0.441655
O10	O	1.583005	-0.271200	-0.570736
O11	O	1.453822	-0.441626	-0.271330
O12	O	1.283547	-0.441546	-0.441640
O13	O	1.453909	-0.570495	-0.741005
O14	O	1.283542	-0.570546	-0.570671
O15	O	1.582998	-0.441455	-0.741033
O16	O	1.582826	-0.740942	-0.441618
O17	O	1.453811	-0.740882	-0.570659
C18	C	1.245423	-0.506044	-0.506153
C19	C	1.128647	-0.506060	-0.506170
C20	C	1.518336	-0.779033	-0.506156
C21	C	1.518408	-0.895810	-0.506184
C22	C	0.964023	-0.573201	-0.438892
C23	C	1.073747	-0.573180	-0.438874
C24	C	1.073817	-0.438949	-0.573481
C25	C	0.964095	-0.438966	-0.573493
C26	C	0.909129	-0.640333	-0.371600
C27	C	0.963951	-0.707442	-0.304287
C28	C	1.073675	-0.707421	-0.304269
C29	C	1.128577	-0.640291	-0.371564
C30	C	1.585589	-0.950572	-0.573440
C31	C	1.585638	-1.060296	-0.573465
C32	C	1.451322	-1.060486	-0.438970
C33	C	1.451269	-0.950764	-0.438950
C34	C	1.652728	-0.895617	-0.640673
C35	C	1.719915	-0.950379	-0.707934
C36	C	1.719964	-1.060103	-0.707960
C37	C	1.652826	-1.115065	-0.640725
C38	C	1.792424	-0.506088	-0.506192
C39	C	1.909201	-0.506098	-0.506200
C40	C	1.518464	-0.505960	-0.780206
C41	C	1.518496	-0.505915	-0.896982
C42	C	1.518475	-0.232032	-0.506212
C43	C	1.518510	-0.115256	-0.506229
C44	C	1.585722	-0.438717	-0.951861
C45	C	1.585747	-0.438679	-1.061585
C46	C	1.451316	-0.573045	-1.061543
C47	C	1.451287	-0.573077	-0.951821
C48	C	1.652930	-0.371555	-0.897022
C49	C	1.720163	-0.304353	-0.951901
C50	C	1.720188	-0.304315	-1.061625
C51	C	1.652980	-0.371479	-1.116471
C52	C	1.518378	-0.506095	-0.233205
C53	C	1.518550	-0.505845	-0.116429
H54	H	0.819786	-0.640360	-0.371609
Cl55	Cl	1.266517	-0.640252	-0.371524
Cl56	Cl	0.895170	-0.354601	-0.658104
Cl57	Cl	1.652645	-0.757679	-0.640672
Cl58	Cl	1.366838	-0.657477	-1.130493
Cl59	Cl	1.652907	-0.371602	-0.759084
Cl60	Cl	1.142592	-0.791771	-0.219636
H61	H	1.774662	-1.104687	-0.762735
H62	H	0.919243	-0.762092	-0.249494
Cl63	Cl	1.804631	-0.219907	-0.882954
Cl64	Cl	1.804709	-0.219838	-1.130612
H65	H	1.396529	-0.627778	-0.907138
H66	H	1.118527	-0.384296	-0.628269
H67	H	1.652994	-0.371431	-1.205816
H68	H	1.774571	-0.905623	-0.762681
Cl69	Cl	1.653049	-1.253005	-0.640601
Cl70	Cl	1.366928	-1.129582	-0.354450
Cl71	Cl	1.366815	-0.881916	-0.354394
