data_functionalizedCrystal
_audit_creation_method	'MofGen! by Chris Wilmer'
_symmetry_space_group_name_H-M	'P1'
_symmetry_Int_Tables_number	1
_symmetry_cell_setting	triclinic
loop_
_symmetry_equiv_pos_as_xyz
  x,y,z
_cell_length_a	10.540510
_cell_length_b	27.732048
_cell_length_c	9.016244
_cell_angle_alpha	89.992799
_cell_angle_beta	89.992396
_cell_angle_gamma	83.577983
loop_
_atom_site_label
_atom_site_type_symbol
_atom_site_fract_x
_atom_site_fract_y
_atom_site_fract_z
O1	O	1.682960	0.068043	-0.123368
O2	O	1.313263	0.074476	-0.123370
O3	O	1.509594	0.000935	-0.123341
O4	O	1.486630	0.141585	-0.123397
O5	O	1.509565	0.000937	0.123340
O6	O	1.313234	0.074478	0.123311
O7	O	1.682932	0.068045	0.123313
Cu8	Cu	1.498080	0.071262	0.145836
Cu9	Cu	1.498114	0.071260	-0.145893
O10	O	1.486601	0.141586	0.123284
C11	C	1.265966	0.073998	-0.000030
C12	C	1.125078	0.072563	-0.000030
C13	C	0.905404	0.123652	-0.000617
C14	C	1.051933	0.125182	-0.000053
C15	C	1.081472	0.045629	0.140845
C16	C	0.934761	0.044472	0.140954
C17	C	0.935035	0.043374	-0.139568
C18	C	1.081268	0.045870	-0.141421
C19	C	1.509097	-0.017074	0.000004
C20	C	1.507646	-0.070738	0.000016
C21	C	1.614526	-0.408885	-0.000059
C22	C	1.609141	-0.610578	-0.000080
O23	O	1.706875	-0.641222	-0.000144
N24	N	1.492725	-0.630430	-0.000079
C25	C	1.377647	-0.599855	-0.000083
O26	O	1.278505	-0.621369	-0.000099
C27	C	1.383034	-0.398163	-0.000073
C28	C	1.499457	-0.378314	-0.000059
C29	C	1.730940	-0.389035	-0.000046
C30	C	1.732285	-0.338615	-0.000033
C31	C	1.617216	-0.308044	-0.000033
C32	C	1.500802	-0.327893	-0.000046
C33	C	1.267958	-0.367589	-0.000088
C34	C	1.269315	-0.317163	-0.000089
C35	C	1.385738	-0.297314	-0.000075
C36	C	1.387079	-0.246902	-0.000032
N37	N	1.503495	-0.227050	-0.000032
C38	C	1.618564	-0.257621	-0.000033
C39	C	1.374827	-0.705747	-0.000086
C40	C	1.373480	-0.756170	-0.000086
C41	C	1.604974	-0.766889	-0.000085
C42	C	1.606320	-0.716465	-0.000075
C43	C	1.491243	-0.685895	-0.000086
C44	C	1.621380	-0.151734	-0.000004
C45	C	1.622715	-0.101309	0.000016
C46	C	1.391221	-0.090594	0.000007
C47	C	1.389885	-0.141015	-0.000004
C48	C	1.504975	-0.171584	-0.000015
O49	O	1.289397	-0.216229	0.000016
O50	O	1.717692	-0.236098	-0.000051
C51	C	1.613181	-0.459305	-0.000073
C52	C	1.496767	-0.479155	-0.000085
C53	C	1.381698	-0.448584	-0.000085
C54	C	1.495420	-0.529577	-0.000085
C55	C	1.610489	-0.560148	-0.000086
C56	C	1.726905	-0.540296	-0.000086
C57	C	1.728250	-0.489876	-0.000073
C58	C	1.265282	-0.468436	-0.000084
C59	C	1.263947	-0.518857	-0.000096
C60	C	1.379015	-0.549427	-0.000096
C61	C	1.730229	0.068524	-0.000031
C62	C	1.871116	0.069958	-0.000041
C63	C	1.487097	0.159595	-0.000064
C64	C	1.488549	0.213259	-0.000086
N65	N	1.498066	0.071263	0.351022
N66	N	1.498139	0.071255	-0.351079
C67	C	1.392731	0.110470	0.586039
C68	C	1.392954	0.110617	0.414148
C69	C	1.630293	0.082730	0.413356
C70	C	1.629715	0.083008	0.585301
C71	C	1.472498	0.020459	0.585586
C72	C	1.469438	0.020788	0.413632
H73	H	0.861001	0.144034	0.099823
Br74	Br	0.866371	0.075155	0.316441
H75	H	1.653600	0.119370	0.370263
H76	H	1.541295	-0.009796	0.370668
H77	H	1.294099	0.103677	0.627435
Br78	Br	1.777574	-0.193213	-0.000020
Br79	Br	1.600635	-0.028191	0.653358
Br80	Br	1.105928	-0.545788	-0.000104
Br81	Br	1.883068	-0.581795	-0.000075
Br82	Br	1.764328	-0.689533	-0.000052
Br83	Br	1.780728	-0.074374	0.000037
Br84	Br	0.900983	-0.022473	-0.141124
Br85	Br	1.099346	0.160305	-0.168369
Br86	Br	1.667626	0.144775	0.652102
Br87	Br	1.764076	0.036423	0.345213
Br88	Br	1.315357	0.002275	0.657955
Br89	Br	1.165822	-0.018162	-0.155574
Br90	Br	1.113129	-0.275678	-0.000112
H91	H	0.913474	0.005116	0.147369
H92	H	1.294636	0.103718	0.372006
H93	H	1.372176	0.012096	0.372893
Br94	Br	1.419476	0.172931	0.657970
Br95	Br	1.131519	0.076806	0.315564
H96	H	0.862572	0.144151	-0.101647
H97	H	1.109047	0.065467	-0.245639
H98	H	1.827089	-0.322459	-0.000028
H99	H	1.409217	0.148303	0.372986
Br100	Br	1.887127	-0.430516	-0.000048
Br101	Br	1.097734	0.160516	0.168523
Br102	Br	1.163240	-0.018939	0.149601
H103	H	1.823054	-0.473720	-0.000062
Br104	Br	1.761138	-0.808388	-0.000089
H105	H	1.710549	0.055596	0.626894
H106	H	1.278676	-0.772326	-0.000072
H107	H	1.173153	-0.383741	-0.000109
Br108	Br	1.218635	-0.664265	-0.000105
Br109	Br	1.231882	-0.167954	0.000010
Br110	Br	0.862952	0.071034	-0.317534
H111	H	1.171577	-0.443549	-0.000087
Br112	Br	1.235064	-0.049096	0.000008
