data_functionalizedCrystal
_audit_creation_method	'MofGen! by Chris Wilmer'
_symmetry_space_group_name_H-M	'P1'
_symmetry_Int_Tables_number	1
_symmetry_cell_setting	triclinic
loop_
_symmetry_equiv_pos_as_xyz
  x,y,z
_cell_length_a	14.853566
_cell_length_b	19.188924
_cell_length_c	17.666332
_cell_angle_alpha	90.007291
_cell_angle_beta	90.006406
_cell_angle_gamma	83.388189
loop_
_atom_site_label
_atom_site_type_symbol
_atom_site_fract_x
_atom_site_fract_y
_atom_site_fract_z
O1	O	1.195862	0.091152	0.062902
O2	O	1.695862	0.591152	0.562902
O3	O	0.933342	0.102011	0.062915
O4	O	1.433342	0.602011	0.562915
O5	O	1.072181	-0.005049	0.062899
O6	O	1.572181	0.494951	0.562899
O7	O	1.057023	0.198212	0.062918
O8	O	1.557023	0.698212	0.562918
O9	O	1.072156	-0.005052	-0.062998
O10	O	1.572156	0.494948	0.437002
O11	O	0.933317	0.102008	-0.062982
O12	O	1.433317	0.602008	0.437018
O13	O	1.195838	0.091148	-0.062995
O14	O	1.695838	0.591148	0.437005
Cu15	Cu	1.064575	0.096578	-0.074484
Cu16	Cu	1.564575	0.596578	0.425516
Cu17	Cu	1.064604	0.096582	0.074404
Cu18	Cu	1.564604	0.596582	0.574404
O19	O	1.056998	0.198209	-0.062979
O20	O	1.556998	0.698209	0.437021
C21	C	0.899743	0.101518	-0.000032
C22	C	1.399743	0.601518	0.499968
C23	C	0.799668	0.100044	-0.000027
C24	C	1.299668	0.600044	0.499973
C25	C	0.376531	0.093811	0.068585
C26	C	0.876531	0.593811	0.568585
C27	C	0.376526	0.093808	-0.068672
C28	C	0.876526	0.593808	0.431328
C29	C	0.470552	0.095192	-0.068670
C30	C	0.970552	0.595192	0.431330
C31	C	0.517572	0.095887	-0.000039
C32	C	1.017572	0.595887	0.499961
C33	C	0.470566	0.095197	0.068590
C34	C	0.970566	0.595197	0.568590
C35	C	0.517564	0.095889	-0.137297
C36	C	1.017564	0.595889	0.362703
C37	C	0.611596	0.097274	-0.137298
C38	C	1.111596	0.597274	0.362702
C39	C	0.658619	0.097963	-0.068666
C40	C	1.158619	0.597963	0.431334
C41	C	0.611607	0.097273	-0.000034
C42	C	1.111607	0.597273	0.499966
C43	C	0.658627	0.097968	0.068597
C44	C	1.158627	0.597968	0.568597
C45	C	0.611617	0.097272	0.137229
C46	C	1.111617	0.597272	0.637229
C47	C	0.517588	0.095887	0.137221
C48	C	1.017588	0.595887	0.637221
C49	C	0.752648	0.099349	-0.068658
C50	C	1.252648	0.599349	0.431342
C51	C	0.752662	0.099354	0.068601
C52	C	1.252662	0.599354	0.568601
C53	C	1.071679	-0.031064	-0.000050
C54	C	1.571679	0.468936	0.499950
C55	C	1.070208	-0.108573	-0.000052
C56	C	1.570208	0.391427	0.499948
C57	C	1.069535	-0.144973	0.068575
C58	C	1.569535	0.355027	0.568575
C59	C	1.068141	-0.217800	0.068580
C60	C	1.568141	0.282200	0.568580
C61	C	1.067438	-0.254227	-0.000044
C62	C	1.567438	0.245773	0.499956
C63	C	1.068106	-0.217818	-0.068680
C64	C	1.568106	0.282182	0.431320
C65	C	1.069491	-0.144991	-0.068684
C66	C	1.569491	0.355009	0.431316
N67	N	1.116556	-0.373728	-0.051122
N68	N	1.616556	0.126272	0.448878
N69	N	1.115242	-0.442911	-0.051114
N70	N	1.615242	0.057089	0.448886
C71	C	1.063262	-0.473650	-0.000037
C72	C	1.563262	0.026350	0.499963
N73	N	1.012657	-0.432595	0.051043
N74	N	1.512657	0.067405	0.551043
N75	N	1.013975	-0.363406	0.051037
N76	N	1.513975	0.136594	0.551037
C77	C	1.065935	-0.333195	-0.000048
C78	C	1.565935	0.166805	0.499952
C79	C	1.061076	-0.589017	0.068601
C80	C	1.561076	-0.089017	0.568601
C81	C	1.059675	-0.661845	0.068604
C82	C	1.559675	-0.161845	0.568604
C83	C	1.059649	-0.661863	-0.068658
C84	C	1.559649	-0.161863	0.431342
C85	C	1.061040	-0.589035	-0.068659
C86	C	1.561040	-0.089035	0.431341
C87	C	1.061758	-0.552617	-0.000028
C88	C	1.561758	-0.052617	0.499972
C89	C	1.229436	0.091642	-0.000046
C90	C	1.729436	0.591642	0.499954
C91	C	1.329511	0.093116	-0.000046
C92	C	1.829511	0.593116	0.499954
C93	C	1.057500	0.224223	-0.000028
C94	C	1.557500	0.724223	0.499972
C95	C	1.058971	0.301733	-0.000021
C96	C	1.558971	0.801733	0.499979
N97	N	1.064561	0.096575	-0.179203
N98	N	1.564561	0.596575	0.320797
C99	C	1.119061	0.139002	-0.218805
C100	C	1.619061	0.639002	0.281195
C101	C	1.119076	0.139000	-0.298053
C102	C	1.619076	0.639000	0.201947
C103	C	1.064574	0.096579	-0.337695
C104	C	1.564574	0.596579	0.162305
C105	C	1.010070	0.054143	-0.298084
C106	C	1.510070	0.554143	0.201916
C107	C	1.010064	0.054141	-0.218838
C108	C	1.510064	0.554141	0.281162
N109	N	0.985617	0.094596	-0.462131
N110	N	1.485617	0.594596	0.037869
N111	N	0.985626	0.094602	-0.537412
N112	N	1.485626	0.594602	-0.037412
C113	C	1.064590	0.096581	-0.576459
C114	C	1.564590	0.596581	-0.076459
N115	N	1.143547	0.098569	-0.537383
N116	N	1.643547	0.598569	-0.037383
N117	N	1.143537	0.098566	-0.462095
N118	N	1.643537	0.598566	0.037905
C119	C	1.064574	0.096576	-0.423624
C120	C	1.564574	0.596576	0.076376
C121	C	1.119110	0.139009	-0.701991
C122	C	1.619110	0.639009	-0.201991
C123	C	1.119126	0.139002	-0.781240
C124	C	1.619126	0.639002	-0.281240
C125	C	1.010113	0.054149	-0.781269
C126	C	1.510113	0.554149	-0.281269
C127	C	1.010105	0.054152	-0.702022
C128	C	1.510105	0.554152	-0.202022
C129	C	1.064602	0.096586	-0.662387
C130	C	1.564602	0.596586	-0.162387
N131	N	1.064625	0.096579	0.179123
N132	N	1.564625	0.596579	0.679123
H133	H	0.790918	0.099922	-0.124538
H134	H	1.290918	0.599922	0.375462
H135	H	0.338236	0.093247	-0.124549
H136	H	0.838236	0.593247	0.375451
H137	H	1.059070	-0.691520	-0.124534
H138	H	1.559070	-0.191520	0.375466
H139	H	1.067587	-0.247442	0.124466
H140	H	1.567587	0.252558	0.624466
H141	H	1.070117	-0.115325	0.124460
H142	H	1.570117	0.384675	0.624460
H143	H	0.479273	0.095328	-0.193173
H144	H	0.979273	0.595328	0.306827
H145	H	0.965721	0.019606	-0.669777
H146	H	1.465721	0.519606	-0.169777
H147	H	1.163486	0.173560	-0.669719
H148	H	1.663486	0.673560	-0.169719
H149	H	1.070035	-0.115355	-0.124569
H150	H	1.570035	0.384645	0.375431
H151	H	0.790939	0.099918	0.124490
H152	H	1.290939	0.599918	0.624490
H153	H	0.965737	0.019608	-0.813545
H154	H	1.465737	0.519608	-0.313545
H155	H	0.649912	0.097843	0.193108
H156	H	1.149912	0.597843	0.693108
H157	H	1.059123	-0.691480	0.124490
H158	H	1.559123	-0.191480	0.624490
H159	H	1.067530	-0.247481	-0.124554
H160	H	1.567530	0.252519	0.375446
H161	H	0.649864	0.097838	-0.193182
H162	H	1.149864	0.597838	0.306818
H163	H	1.061654	-0.559363	0.124485
H164	H	1.561654	-0.059363	0.624485
H165	H	1.061596	-0.559399	-0.124543
H166	H	1.561596	-0.059399	0.375457
H167	H	1.163441	0.173552	-0.186540
H168	H	1.663441	0.673552	0.313460
H169	H	0.965682	0.019591	-0.186594
H170	H	1.465682	0.519591	0.313406
H171	H	1.163456	0.173551	-0.330303
H172	H	1.663456	0.673551	0.169697
H173	H	1.163513	0.173549	-0.813483
H174	H	1.663513	0.673549	-0.313483
H175	H	0.479305	0.095320	0.193098
H176	H	0.979305	0.595320	0.693098
H177	H	0.965695	0.019603	-0.330366
H178	H	1.465695	0.519603	0.169634
H179	H	0.338252	0.093242	0.124464
H180	H	0.838252	0.593242	0.624464
