data_functionalizedCrystal
_audit_creation_method	'MofGen! by Chris Wilmer'
_symmetry_space_group_name_H-M	'P1'
_symmetry_Int_Tables_number	1
_symmetry_cell_setting	triclinic
loop_
_symmetry_equiv_pos_as_xyz
  x,y,z
_cell_length_a	31.640172
_cell_length_b	14.809374
_cell_length_c	14.809374
_cell_angle_alpha	61.589507
_cell_angle_beta	98.946972
_cell_angle_gamma	55.123482
loop_
_atom_site_label
_atom_site_type_symbol
_atom_site_fract_x
_atom_site_fract_y
_atom_site_fract_z
Zr1	Zr	0.298309	1.187590	-0.307067
O2	O	0.201102	1.413980	-0.488682
O3	O	0.341343	0.961214	-0.226665
O4	O	0.308367	1.187587	-0.453028
O5	O	0.245036	1.187604	-0.111888
O6	O	0.377924	1.187569	-0.453031
O7	O	0.234078	1.187607	-0.262319
O8	O	0.436913	0.782629	-0.048110
O9	O	0.186047	1.592544	-0.516810
O10	O	0.395616	1.054307	-0.222252
O11	O	0.351884	1.054319	-0.109984
O12	O	0.313058	1.320843	-0.376497
O13	O	0.269326	1.320855	-0.264230
Zr14	Zr	0.426721	1.187556	-0.067152
Zr15	Zr	0.409245	1.187561	-0.307072
Zr16	Zr	0.315785	1.187585	-0.067147
Zr17	Zr	0.274298	1.472379	-0.351928
Zr18	Zr	0.450732	0.902767	-0.022291
O19	O	0.383686	1.413932	-0.147554
O20	O	0.358838	1.413938	-0.488689
O21	O	0.225950	1.413973	-0.147547
O22	O	0.523928	0.961166	0.114463
O23	O	0.499080	0.961173	-0.226672
O24	O	0.366191	0.961208	0.114470
O25	O	0.479994	1.187542	-0.262331
O26	O	0.416663	1.187559	0.078809
O27	O	0.347106	1.187577	0.078812
O28	O	0.490951	1.187539	-0.111900
O29	O	0.274226	1.592520	-0.516814
O30	O	0.450804	0.782626	0.142595
O31	O	0.538983	0.782602	0.142591
O32	O	0.525092	0.782606	-0.048114
O33	O	0.199937	1.592540	-0.326105
O34	O	0.288117	1.592517	-0.326109
O35	O	0.411971	1.054303	0.002278
O36	O	0.455704	1.054291	-0.109989
O37	O	0.373146	1.320828	-0.264235
O38	O	0.329413	1.320839	-0.151967
C39	C	0.392549	0.831346	-0.130996
C40	C	0.402742	0.710445	-0.111951
C41	C	0.357251	0.750043	-0.196944
C42	C	0.367785	0.625089	-0.177263
C43	C	0.223751	1.187610	-0.187103
C44	C	0.176656	1.187622	-0.187101
C45	C	-0.121381	1.187547	-0.269977
C46	C	-0.298366	1.187528	-0.269982
O47	O	-0.326365	1.187461	-0.340425
N48	N	-0.314461	1.187529	-0.187110
C49	C	-0.286303	1.187525	-0.104225
O50	O	-0.304048	1.187511	-0.033728
C51	C	-0.109315	1.187534	-0.104214
C52	C	-0.093228	1.187548	-0.187101
C53	C	-0.105293	1.187559	-0.352855
C54	C	-0.061052	1.187572	-0.352858
C55	C	-0.032898	1.187573	-0.269982
C56	C	-0.048987	1.187561	-0.187103
C57	C	-0.081154	1.187519	-0.021324
C58	C	-0.036904	1.187517	-0.021326
C59	C	-0.020817	1.187531	-0.104212
C60	C	0.023408	1.187575	-0.104230
N61	N	0.039502	1.187574	-0.187102
C62	C	0.011349	1.187573	-0.269978
C63	C	-0.379225	1.187524	-0.104238
C64	C	-0.423473	1.187525	-0.104242
C65	C	-0.435533	1.187524	-0.269998
C66	C	-0.391288	1.187535	-0.269999
C67	C	-0.363131	1.187523	-0.187110
C68	C	0.104259	1.187602	-0.269978
C69	C	0.148503	1.187621	-0.269977
C70	C	0.160561	1.187614	-0.104217
C71	C	0.116319	1.187602	-0.104222
C72	C	0.088170	1.187591	-0.187107
O73	O	0.051436	1.187624	-0.033814
O74	O	0.029114	1.187554	-0.340445
C75	C	-0.165622	1.187534	-0.269974
C76	C	-0.181710	1.187521	-0.187095
C77	C	-0.153557	1.187522	-0.104219
C78	C	-0.225958	1.187522	-0.187099
C79	C	-0.254111	1.187521	-0.269975
C80	C	-0.238016	1.187520	-0.352847
C81	C	-0.193775	1.187533	-0.352850
C82	C	-0.169652	1.187524	-0.021347
C83	C	-0.213894	1.187512	-0.021352
C84	C	-0.242047	1.187512	-0.104228
C85	C	0.501279	1.187536	-0.187116
C86	C	0.548374	1.187524	-0.187118
C87	C	0.340655	1.187579	-0.487213
C88	C	0.333236	1.187581	-0.589065
C89	C	0.332481	1.543800	-0.243223
C90	C	0.322287	1.664701	-0.262268
C91	C	0.366346	1.187572	-0.634476
C92	C	0.358679	1.187574	-0.739746
C93	C	0.384374	1.187567	0.112994
C94	C	0.391793	1.187565	0.214846
C95	C	0.531313	0.831309	-0.131002
C96	C	0.588601	0.710396	-0.111960
C97	C	0.414408	0.831340	0.169108
C98	C	0.432021	0.710438	0.290004
C99	C	0.553172	0.831303	0.169101
C100	C	0.617880	0.710389	0.289996
C101	C	0.171857	1.543843	-0.543320
C102	C	0.107150	1.664758	-0.664215
C103	C	0.193717	1.543837	-0.243217
C104	C	0.136428	1.664750	-0.262259
C105	C	0.310621	1.543806	-0.543327
C106	C	0.293009	1.664709	-0.664224
C107	C	0.584139	0.653623	-0.161627
C108	C	0.637961	0.540028	-0.143760
C109	C	0.696245	0.483201	-0.076217
C110	C	0.700705	0.539986	-0.026549
C111	C	0.646883	0.653586	-0.044425
C112	C	0.471657	0.653652	0.405389
C113	C	0.488203	0.540068	0.518991
C114	C	0.465116	0.483263	0.517207
C115	C	0.425474	0.540059	0.401810
C116	C	0.408925	0.653649	0.288209
C117	C	0.671100	0.653600	0.288167
C118	C	0.731901	0.540003	0.401749
C119	C	0.739483	0.483190	0.517159
C120	C	0.686256	0.539990	0.518984
C121	C	0.625455	0.653592	0.405403
C122	C	0.053929	1.721560	-0.662388
C123	C	-0.006876	1.835192	-0.775976
C124	C	-0.014458	1.892011	-0.891387
C125	C	0.038769	1.835204	-0.893211
C126	C	0.099572	1.721582	-0.779626
C127	C	0.140889	1.721535	-0.212604
C128	C	0.087063	1.835161	-0.230503
C129	C	0.028778	1.891992	-0.298050
C130	C	0.024318	1.835202	-0.347712
C131	C	0.078142	1.721586	-0.329820
C132	C	0.316107	1.721478	-0.662398
C133	C	0.299571	1.835063	-0.775982
C134	C	0.259932	1.891885	-0.891391
C135	C	0.236834	1.835105	-0.893213
C136	C	0.253374	1.721514	-0.779629
H137	H	0.275539	0.791112	-0.349614
H138	H	0.318382	1.881282	-0.774475
H139	H	0.414535	0.498677	-0.089922
C140	C	-0.245506	1.187523	-0.516700
C141	C	-0.268967	1.187516	-0.443946
H142	H	-0.264617	1.187523	-0.572937
H143	H	-0.200428	1.098527	-0.461752
H144	H	-0.255573	1.276541	-0.564769
H145	H	-0.258896	1.098491	-0.395869
H146	H	-0.314055	1.276521	-0.498901
H147	H	0.074503	1.675354	-0.370254
C148	C	0.720351	0.504955	0.700132
C149	C	0.694602	0.477514	0.645858
H150	H	0.725509	0.466367	0.778466
H151	H	0.692268	0.612200	0.643487
H152	H	0.760744	0.454884	0.715271
H153	H	0.654207	0.527595	0.630711
H154	H	0.722686	0.370249	0.702516
C155	C	0.297278	1.961817	-1.007560
C156	C	0.241751	2.016754	-1.016239
H157	H	0.286053	2.038913	-1.084631
H158	H	0.319246	1.873208	-0.993618
H159	H	0.324188	1.936095	-0.938554
H160	H	0.214844	2.042465	-1.085239
H161	H	0.219773	2.105390	-1.030196
H162	H	0.400371	1.187555	-0.595417
H163	H	0.650526	0.699797	-0.003970
C164	C	0.818915	0.505097	0.446783
C165	C	0.790395	0.477608	0.399705
H166	H	0.855021	0.466595	0.445505
H167	H	0.832143	0.454989	0.531770
H168	H	0.788925	0.612358	0.394986
H169	H	0.820384	0.370345	0.451508
H170	H	0.777169	0.527711	0.314704
C171	C	0.598173	0.827746	0.061990
C172	C	0.662776	0.716039	0.161316
H173	H	0.593041	0.866283	-0.016317
H174	H	0.573526	0.909289	0.057544
H175	H	0.584145	0.783411	0.077377
H176	H	0.676804	0.760376	0.145934
H177	H	0.687433	0.634482	0.165761
H178	H	-0.050208	1.881425	-0.774466
H179	H	0.788994	0.390688	0.609636
H180	H	0.406679	0.493791	0.400376
C181	C	0.076454	1.870107	-0.089834
C182	C	0.091978	1.897550	-0.175888
H183	H	0.079487	1.908626	-0.056121
H184	H	0.105307	1.762867	-0.022383
H185	H	0.034034	1.920242	-0.132647
H186	H	0.134399	1.847405	-0.133072
H187	H	0.063124	2.004810	-0.243349
C188	C	0.295921	1.011442	-0.311520
C189	C	0.294142	0.920687	-0.314847
H190	H	0.256956	1.116789	-0.384307
H191	H	0.330600	0.989557	-0.311501
H192	H	0.301401	0.989543	-0.236503
H193	H	0.288665	0.942578	-0.389861
H194	H	0.259452	0.942581	-0.314879
H195	H	0.324657	1.187575	-0.778793
H196	H	0.582126	0.699815	0.406910
H197	H	0.478596	0.390770	0.609717
C198	C	0.183616	2.009289	-1.119380
C199	C	0.193256	1.897589	-1.020081
H200	H	0.156707	2.047877	-1.197706
H201	H	0.223612	1.964944	-1.103997
H202	H	0.163982	2.090814	-1.123793
H203	H	0.212895	1.816059	-1.015663
H204	H	0.153252	1.941934	-1.035468
C205	C	0.464069	0.449047	0.002634
C206	C	0.465849	0.539802	0.005957
H207	H	0.503029	0.343700	0.075433
H208	H	0.458596	0.470926	-0.072365
H209	H	0.429380	0.470952	0.002601
H210	H	0.500536	0.517905	0.005981
H211	H	0.471330	0.517914	0.080976
H212	H	0.348383	1.675231	-0.568438
H213	H	0.234560	1.675305	-0.781133
H214	H	0.376653	0.699869	0.194264
H215	H	0.032588	1.881481	-0.987193
C216	C	0.002686	1.733030	-0.557953
C217	C	0.062249	1.659142	-0.535541
H218	H	0.007820	1.694514	-0.479647
H219	H	-0.014773	1.714407	-0.594770
H220	H	-0.025379	1.840281	-0.614629
H221	H	0.090313	1.551892	-0.478873
H222	H	0.079718	1.677753	-0.498705
C223	C	0.587170	0.319538	0.729344
C224	C	0.531781	0.477640	0.645828
H225	H	0.614070	0.281002	0.807647
H226	H	0.609225	0.300916	0.692505
H227	H	0.575778	0.269473	0.744536
H228	H	0.543173	0.527707	0.630630
H229	H	0.509722	0.496275	0.682675
H230	H	0.161597	1.187637	-0.337478
H231	H	0.081345	1.187590	-0.337469
H232	H	-0.436575	1.187537	-0.036762
H233	H	-0.047955	1.187578	-0.420347
C234	C	-0.051898	1.962005	-0.262824
C235	C	-0.030388	2.016885	-0.317719
H236	H	-0.088426	2.039115	-0.274975
H237	H	-0.018972	1.873381	-0.174211
H238	H	-0.062895	1.936323	-0.302074
H239	H	-0.019386	2.042556	-0.278462
H240	H	-0.063321	2.105537	-0.406349
H241	H	-0.063971	1.984529	-0.983866
H242	H	0.299216	1.187581	-0.628116
C243	C	-0.197509	1.187486	0.142510
C244	C	-0.231571	1.187492	0.069769
H245	H	-0.208416	1.187453	0.198772
H246	H	-0.208079	1.276498	0.087556
H247	H	-0.152929	1.098484	0.190552
H248	H	-0.276152	1.276501	0.021720
H249	H	-0.221005	1.098471	0.124730
C250	C	0.436661	1.186816	-0.637936
C251	C	0.437885	1.187044	-0.732149
H252	H	0.465160	1.186351	-0.605133
H253	H	0.449469	1.097974	-0.571000
H254	H	0.394525	1.275987	-0.673791
H255	H	0.480020	1.097867	-0.696292
H256	H	0.425080	1.275895	-0.799097
C257	C	-0.032308	1.823837	-0.461757
C258	C	-0.039750	1.897665	-0.421944
H259	H	-0.071862	1.862404	-0.507584
H260	H	-0.000842	1.716597	-0.389417
H261	H	-0.019183	1.842466	-0.515290
H262	H	-0.052871	1.879027	-0.368403
H263	H	-0.071227	2.004931	-0.494296
C264	C	-0.407661	1.187529	-0.433835
C265	C	-0.373601	1.187530	-0.361098
H266	H	-0.396739	1.187514	-0.490070
H267	H	-0.452236	1.276535	-0.481895
H268	H	-0.397098	1.098521	-0.378867
H269	H	-0.384168	1.276545	-0.416067
H270	H	-0.329016	1.098515	-0.313035
C271	C	0.149360	1.779405	-0.859235
C272	C	0.158066	1.659158	-0.781666
H273	H	0.185467	1.740876	-0.860511
H274	H	0.144659	1.823676	-0.826426
H275	H	0.112052	1.855201	-0.943383
H276	H	0.195370	1.583367	-0.697515
H277	H	0.162773	1.614863	-0.814470
C278	C	-0.508708	1.187492	-0.343570
C279	C	-0.466478	1.187503	-0.361086
H280	H	-0.527807	1.187459	-0.399790
H281	H	-0.541052	1.276502	-0.361044
H282	H	-0.485902	1.098488	-0.257997
H283	H	-0.489285	1.276512	-0.446657
H284	H	-0.434130	1.098483	-0.343620
C285	C	0.474150	0.827778	0.283302
C286	C	0.497038	0.716083	0.407370
H287	H	0.489823	0.866310	0.284536
H288	H	0.428734	0.909327	0.230699
H289	H	0.488380	0.783436	0.250538
H290	H	0.482804	0.760428	0.440131
H291	H	0.542463	0.634520	0.459992
H292	H	-0.356303	1.187516	-0.036738
C293	C	-0.064753	1.187462	0.142546
C294	C	-0.098822	1.187481	0.069803
H295	H	-0.075656	1.187424	0.198814
H296	H	-0.075322	1.276472	0.087593
H297	H	-0.020174	1.098458	0.190581
H298	H	-0.143401	1.276492	0.021760
H299	H	-0.088257	1.098462	0.124762
C300	C	-0.020792	1.318730	-0.001095
C301	C	-0.005954	1.187517	0.069779
H302	H	-0.001683	1.318726	0.055148
H303	H	-0.065871	1.407713	-0.056031
H304	H	-0.004876	1.318721	-0.050451
H305	H	-0.021875	1.187532	0.119128
H306	H	0.039133	1.098510	0.124737
H307	H	0.103214	1.187613	-0.036742
C308	C	0.233750	1.187602	-0.030623
C309	C	0.191516	1.187603	-0.013116
H310	H	0.252867	1.187576	0.025631
H311	H	0.210948	1.276612	-0.116173
H312	H	0.266086	1.098598	-0.013179
H313	H	0.159177	1.276613	-0.030569
H314	H	0.214320	1.098584	0.072454
H315	H	0.188343	1.675272	-0.157594
H316	H	-0.180681	1.187544	-0.420344
C317	C	0.527537	0.642245	-0.275700
C318	C	0.520076	0.716076	-0.235881
H319	H	0.487986	0.680808	-0.321553
H320	H	0.559002	0.535004	-0.203361
H321	H	0.540673	0.660874	-0.329211
H322	H	0.506945	0.697437	-0.182362
H323	H	0.488601	0.823342	-0.308231
H324	H	-0.128210	1.187553	-0.420343
C325	C	0.675603	0.319512	-0.098870
C326	C	0.633051	0.477609	-0.198344
H327	H	0.672572	0.280980	-0.132570
H328	H	0.665082	0.300902	-0.040480
H329	H	0.718015	0.269432	-0.056110
H330	H	0.590638	0.527690	-0.241099
H331	H	0.643567	0.496231	-0.256756
H332	H	-0.146731	1.187522	0.046142
H333	H	0.740066	0.390699	-0.061669
H334	H	0.748168	0.493701	0.028445
