data_functionalizedCrystal
_audit_creation_method	'MofGen! by Chris Wilmer'
_symmetry_space_group_name_H-M	'P1'
_symmetry_Int_Tables_number	1
_symmetry_cell_setting	triclinic
loop_
_symmetry_equiv_pos_as_xyz
  x,y,z
_cell_length_a	15.995292
_cell_length_b	10.654541
_cell_length_c	9.130307
_cell_angle_alpha	90.000178
_cell_angle_beta	89.999900
_cell_angle_gamma	96.023728
loop_
_atom_site_label
_atom_site_type_symbol
_atom_site_fract_x
_atom_site_fract_y
_atom_site_fract_z
O1	O	0.117595	-1.666266	-0.121743
O2	O	0.617595	-1.166266	0.378257
O3	O	0.128801	-1.300637	-0.121755
O4	O	0.628801	-0.800637	0.378245
O5	O	0.001365	-1.493484	-0.121751
O6	O	0.501365	-0.993484	0.378249
O7	O	0.245031	-1.473418	-0.121747
O8	O	0.745031	-0.973418	0.378253
O9	O	0.001364	-1.493478	0.121848
O10	O	0.501364	-0.993478	0.621848
O11	O	0.128800	-1.300630	0.121844
O12	O	0.628800	-0.800630	0.621844
O13	O	0.117593	-1.666259	0.121856
O14	O	0.617593	-1.166259	0.621856
Cu15	Cu	0.123197	-1.483444	0.144093
Cu16	Cu	0.623197	-0.983444	0.644093
Cu17	Cu	0.123198	-1.483452	-0.143992
Cu18	Cu	0.623198	-0.983452	0.356008
O19	O	0.245029	-1.473412	0.121852
O20	O	0.745029	-0.973412	0.621852
C21	C	0.127978	-1.253847	0.000043
C22	C	0.627978	-0.753847	0.500043
C23	C	0.125518	-1.114436	0.000038
C24	C	0.625518	-0.614436	0.500038
N25	N	0.123195	-1.483448	0.346715
N26	N	0.623195	-0.983448	0.846715
C27	C	-0.029836	-1.492664	0.000045
C28	C	0.470164	-0.992664	0.500045
C29	C	-0.122803	-1.490216	0.000034
C30	C	0.377197	-0.990216	0.500034
C31	C	-0.460594	-1.481215	0.000047
C32	C	0.039406	-0.981215	0.500047
C33	C	-0.436474	-1.620407	0.000596
C34	C	0.063526	-1.120407	0.500596
C35	C	-0.339783	-1.623052	0.000041
C36	C	0.160217	-1.123052	0.500041
C37	C	-0.293012	-1.485681	0.000041
C38	C	0.206988	-0.985681	0.500041
C39	C	-0.322516	-1.416095	-0.139063
C40	C	0.177484	-0.916095	0.360937
C41	C	-0.419316	-1.414420	-0.139175
C42	C	0.080684	-0.914420	0.360825
C43	C	-0.419191	-1.411570	0.137843
C44	C	0.080809	-0.911570	0.637843
C45	C	-0.322669	-1.416728	0.139676
C46	C	0.177331	-0.916728	0.639676
C47	C	-0.198301	-1.488198	0.000033
C48	C	0.301699	-0.988198	0.500033
C49	C	-0.555304	-1.478694	0.000045
C50	C	-0.055304	-0.978694	0.500045
C51	C	0.276230	-1.474232	0.000053
C52	C	0.776230	-0.974232	0.500053
C53	C	0.369198	-1.476680	0.000054
C54	C	0.869198	-0.976680	0.500054
C55	C	0.118416	-1.713050	0.000055
C56	C	0.618416	-1.213050	0.500055
C57	C	0.120877	-1.852460	0.000050
C58	C	0.620877	-1.352460	0.500050
C59	C	0.277902	-1.084427	0.000022
C60	C	0.777902	-0.584427	0.500022
C61	C	0.352935	-1.003929	0.000008
C62	C	0.852935	-0.503929	0.500008
C63	C	0.350618	-0.872942	0.000007
C64	C	0.850618	-0.372942	0.500007
C65	C	0.273260	-0.822451	0.000024
C66	C	0.773260	-0.322451	0.500024
C67	C	0.198227	-0.902949	0.000038
C68	C	0.698227	-0.402949	0.500038
C69	C	0.200552	-1.033938	0.000035
C70	C	0.700552	-0.533938	0.500035
C71	C	0.045844	-0.932958	0.000064
C72	C	0.545844	-0.432958	0.500064
C73	C	0.048159	-1.063946	0.000055
C74	C	0.548159	-0.563946	0.500055
C75	C	-0.031514	-0.882468	0.000081
C76	C	0.468486	-0.382468	0.500081
C77	C	-0.106549	-0.962966	0.000084
C78	C	0.393451	-0.462966	0.500084
C79	C	-0.104228	-1.093960	0.000084
C80	C	0.395772	-0.593960	0.500084
C81	C	-0.026873	-1.144443	0.000069
C82	C	0.473127	-0.644443	0.500069
N83	N	0.123193	-1.483458	-0.346614
N84	N	0.623193	-0.983458	0.153386
C85	C	0.010383	-1.654284	0.346709
C86	C	0.510383	-1.154284	0.846709
C87	C	-0.046020	-1.739710	0.423372
C88	C	0.453980	-1.239710	0.923372
C89	C	-0.046020	-1.739722	0.576706
C90	C	0.453980	-1.239722	1.076706
C91	C	0.010387	-1.654297	0.653379
C92	C	0.510387	-1.154297	1.153379
C93	C	0.066790	-1.568871	0.576716
C94	C	0.566790	-1.068871	1.076716
C95	C	0.066786	-1.568870	0.423379
C96	C	0.566786	-1.068870	0.923379
C97	C	0.179596	-1.398032	0.576722
C98	C	0.679596	-0.898032	1.076722
C99	C	0.179602	-1.398023	0.423389
C100	C	0.679602	-0.898023	0.923389
C101	C	0.236004	-1.312607	0.653396
C102	C	0.736004	-0.812607	1.153396
C103	C	0.292412	-1.227184	0.576732
C104	C	0.792412	-0.727184	1.076732
C105	C	0.292411	-1.227176	0.423390
C106	C	0.792411	-0.727176	0.923390
C107	C	0.236006	-1.312597	0.346725
C108	C	0.736006	-0.812597	0.846725
H109	H	-0.320442	-1.677550	0.099755
H110	H	0.179558	-1.177550	0.599755
F111	F	0.010375	-1.654299	0.816571
F112	F	0.510375	-1.154299	1.316571
F113	F	-0.280338	-1.285668	0.150659
F114	F	0.219662	-0.785668	0.650659
H115	H	0.338331	-1.157632	0.639169
H116	H	0.838331	-0.657632	1.139169
H117	H	0.415919	-1.045053	-0.000002
H118	H	0.915919	-0.545053	0.499998
H119	H	-0.433776	-1.309114	0.138780
H120	H	0.066224	-0.809114	0.638780
F121	F	-0.281627	-1.283969	-0.145833
F122	F	0.218373	-0.783969	0.354167
H123	H	-0.091948	-1.809260	0.360931
H124	H	0.408052	-1.309260	0.860931
H125	H	-0.033395	-0.775810	0.000088
H126	H	0.466605	-0.275810	0.500088
F127	F	0.270797	-0.683042	0.000044
F128	F	0.770797	-0.183042	0.500044
F129	F	-0.298013	-1.482948	0.274189
F130	F	0.201987	-0.982948	0.774189
H131	H	0.236003	-1.312603	0.221873
H132	H	0.736003	-0.812603	0.721873
H133	H	0.010385	-1.654293	0.221857
H134	H	0.510385	-1.154293	0.721857
H135	H	0.411716	-0.807399	0.000006
H136	H	0.911716	-0.307399	0.500006
F137	F	-0.315306	-1.694708	-0.130521
F138	F	0.184694	-1.194708	0.369479
H139	H	-0.302174	-1.464423	-0.242584
H140	H	0.197826	-0.964423	0.257416
H141	H	-0.464160	-1.674055	0.100354
H142	H	0.035840	-1.174055	0.600354
F143	F	-0.473995	-1.690150	-0.129059
F144	F	0.026005	-1.190150	0.370941
H145	H	0.235997	-1.312615	0.778248
H146	H	0.735997	-0.812615	1.278248
H147	H	0.338338	-1.157608	0.360978
H148	H	0.838338	-0.657608	0.860978
F149	F	-0.188869	-0.909222	0.000114
F150	F	0.311131	-0.409222	0.500114
H151	H	-0.445852	-1.462617	-0.243158
H152	H	0.054148	-0.962617	0.256842
F153	F	0.280374	-1.223834	-0.000000
F154	F	0.780374	-0.723834	0.500000
F155	F	-0.184091	-1.179624	0.000109
F156	F	0.315909	-0.679624	0.500109
H157	H	-0.434458	-1.312363	-0.145477
H158	H	0.065542	-0.812363	0.354523
H159	H	-0.447026	-1.455402	0.243284
H160	H	0.052974	-0.955402	0.743284
F161	F	-0.024397	-1.283850	0.000060
F162	F	0.475603	-0.783850	0.500060
H163	H	-0.091952	-1.809279	0.639125
H164	H	0.408048	-1.309279	1.139125
