data_functionalizedCrystal
_audit_creation_method	'MofGen! by Chris Wilmer'
_symmetry_space_group_name_H-M	'P1'
_symmetry_Int_Tables_number	1
_symmetry_cell_setting	triclinic
loop_
_symmetry_equiv_pos_as_xyz
  x,y,z
_cell_length_a	10.489741
_cell_length_b	13.262390
_cell_length_c	12.376457
_cell_angle_alpha	63.168449
_cell_angle_beta	101.393369
_cell_angle_gamma	84.484178
loop_
_atom_site_label
_atom_site_type_symbol
_atom_site_fract_x
_atom_site_fract_y
_atom_site_fract_z
O1	O	0.027044	1.512620	-0.559074
O2	O	0.071739	1.185856	-0.458609
O3	O	-0.136837	1.356672	-0.511121
O4	O	0.235620	1.341804	-0.506563
O5	O	-0.084761	1.313983	-0.309985
O6	O	0.123815	1.143166	-0.257474
O7	O	0.079120	1.469931	-0.357939
Zn8	Zn	0.109736	1.299771	-0.275772
Zn9	Zn	0.041123	1.356016	-0.540776
O10	O	0.287696	1.299115	-0.305428
C11	C	0.100061	1.122669	-0.345177
C12	C	0.106851	0.997992	-0.306845
C13	C	0.012424	0.739640	-0.637366
C14	C	0.006037	0.856781	-0.673384
C15	C	0.031240	0.892090	-0.581752
C16	C	0.062831	0.810245	-0.454097
C17	C	0.069208	0.693094	-0.418076
C18	C	0.088025	0.845544	-0.362462
C19	C	0.119616	0.763699	-0.234807
C20	C	0.125993	0.646559	-0.198792
C21	C	0.100789	0.611251	-0.290424
C22	C	0.081648	0.962695	-0.398483
C23	C	0.138432	0.916149	-0.179193
C24	C	0.144819	0.799007	-0.143175
C25	C	-0.158236	1.334204	-0.410208
C26	C	-0.299580	1.330844	-0.409177
C27	C	-0.358475	1.222160	-0.375770
C28	C	-0.429289	1.252454	-0.292386
C29	C	-0.480609	1.294568	-0.490697
C30	C	-0.368512	1.361166	-0.325725
C31	C	-0.419844	1.403284	-0.524121
C32	C	-0.490631	1.433652	-0.440736
C33	C	0.309094	1.321583	-0.406343
C34	C	0.450436	1.324945	-0.407381
C35	C	0.050797	1.533119	-0.471374
C36	C	0.044005	1.657797	-0.509714
N37	N	0.156560	1.261393	-0.094916
N38	N	-0.005713	1.394402	-0.721635
C39	C	-0.114433	1.483488	0.191794
C40	C	-0.147206	1.510343	0.065199
C41	C	-0.071267	1.448107	0.025164
C42	C	0.037450	1.359014	0.111737
C43	C	0.070232	1.332163	0.238343
C44	C	0.113398	1.296782	0.071712
C45	C	0.222115	1.207688	0.158285
C46	C	0.254891	1.180841	0.284878
C47	C	0.178953	1.243077	0.324913
C48	C	0.080616	1.323633	-0.054894
C49	C	0.265281	1.172307	-0.008345
C50	C	0.298054	1.145453	0.118250
H51	H	0.105992	0.515866	-0.261105
H52	H	-0.414417	1.467028	-0.622093
C53	C	0.179558	0.708972	-0.002758
C54	C	0.303319	0.610180	0.055788
C55	C	0.338057	0.520144	0.196204
C56	C	0.249035	0.528900	0.278073
C57	C	0.125266	0.627695	0.219528
C58	C	0.090527	0.717731	0.079112
H59	H	0.369225	0.603696	-0.004817
H60	H	0.429679	0.447009	0.239543
H61	H	0.274750	0.462250	0.382017
H62	H	0.059359	0.634180	0.280133
H63	H	-0.001095	0.790866	0.035773
C64	C	0.160731	0.556533	-0.058372
C65	C	0.284492	0.457740	0.000185
C66	C	0.319231	0.367718	0.140606
C67	C	0.230208	0.376488	0.222469
C68	C	0.106439	0.475285	0.163912
C69	C	0.071700	0.565307	0.023492
H70	H	0.350400	0.451244	-0.060415
H71	H	0.410853	0.294582	0.183953
H72	H	0.255923	0.309848	0.326417
H73	H	0.040532	0.481781	0.224513
H74	H	-0.019922	0.638443	-0.019855
H75	H	-0.235721	1.582882	-0.005284
H76	H	-0.434681	1.188672	-0.194405
C77	C	-0.567671	1.554465	-0.477819
C78	C	-0.524619	1.612814	-0.397624
C79	C	-0.601658	1.733624	-0.434702
C80	C	-0.721749	1.796084	-0.551975
C81	C	-0.764808	1.737735	-0.632178
C82	C	-0.687769	1.616925	-0.595100
H83	H	-0.435715	1.566577	-0.310805
H84	H	-0.569782	1.776817	-0.375330
H85	H	-0.778778	1.885515	-0.579423
H86	H	-0.853712	1.783972	-0.718997
H87	H	-0.719645	1.573731	-0.654472
C88	C	-0.038972	1.421624	-0.150112
C89	C	-0.155753	1.395426	-0.223399
C90	C	-0.275351	1.493422	-0.318618
C91	C	-0.278168	1.617616	-0.340549
C92	C	-0.161384	1.643819	-0.267259
C93	C	-0.041786	1.545823	-0.172041
H94	H	-0.153671	1.303485	-0.207167
H95	H	-0.361802	1.474024	-0.372872
H96	H	-0.366702	1.690158	-0.411035
H97	H	-0.163466	1.735760	-0.283492
H98	H	0.044666	1.565222	-0.117787
H99	H	0.055929	1.029322	-0.502420
C100	C	-0.028714	0.946811	-0.813793
C101	C	0.070650	1.021904	-0.865078
C102	C	0.035893	1.111940	-1.005495
C103	C	-0.098228	1.126884	-1.094627
C104	C	-0.197601	1.051790	-1.043343
C105	C	-0.162844	0.961753	-0.902926
H106	H	0.169942	1.010843	-0.799096
H107	H	0.109456	1.167530	-1.043458
H108	H	-0.123957	1.193535	-1.198572
H109	H	-0.296893	1.062850	-1.109325
H110	H	-0.236407	0.906163	-0.864963
C111	C	-0.197955	1.551944	0.235830
C112	C	-0.161897	1.522415	0.375082
C113	C	-0.245426	1.590879	0.419115
C114	C	-0.365014	1.688874	0.323895
C115	C	-0.401078	1.718408	0.184633
C116	C	-0.317549	1.649943	0.140601
H117	H	-0.073366	1.449869	0.445578
H118	H	-0.218729	1.569015	0.522206
H119	H	-0.426848	1.739555	0.356490
H120	H	-0.489609	1.790954	0.114138
H121	H	-0.344247	1.671807	0.037510
H122	H	0.386574	1.072911	0.188753
C123	C	-0.281085	1.101417	-0.338528
C124	C	-0.325210	1.041987	-0.417298
C125	C	-0.247817	0.921247	-0.380051
C126	C	-0.126299	0.859936	-0.264034
C127	C	-0.082168	0.919366	-0.185256
C128	C	-0.159561	1.040106	-0.222504
H129	H	-0.415170	1.087373	-0.503188
H130	H	-0.280486	0.877254	-0.438368
H131	H	-0.069008	0.770557	-0.236461
H132	H	0.007793	0.873980	-0.099367
H133	H	-0.126891	1.084099	-0.164187
H134	H	-0.319857	1.389299	-0.255917
H135	H	-0.097956	1.469976	-0.077917
H136	H	0.026040	0.987473	-0.611085
H137	H	-0.529369	1.266363	-0.560402
H138	H	0.205632	1.221209	0.427998
C139	C	0.348821	1.103839	-0.052369
C140	C	0.360657	0.972260	0.004381
C141	C	0.444191	0.903801	-0.039655
C142	C	0.515890	0.966922	-0.140440
C143	C	0.504056	1.098509	-0.197195
C144	C	0.420522	1.166967	-0.153160
H145	H	0.307580	0.925528	0.078993
H146	H	0.452951	0.806392	0.002360
H147	H	0.577727	0.916245	-0.173038
H148	H	0.557133	1.145241	-0.271808
H149	H	0.411762	1.264376	-0.195175
H150	H	0.158953	0.944895	-0.104578
H151	H	-0.008106	0.710880	-0.711959
H152	H	0.343424	1.108305	0.355365
