data_functionalizedCrystal
_audit_creation_method	'MofGen! by Chris Wilmer'
_symmetry_space_group_name_H-M	'P1'
_symmetry_Int_Tables_number	1
_symmetry_cell_setting	triclinic
loop_
_symmetry_equiv_pos_as_xyz
  x,y,z
_cell_length_a	16.109301
_cell_length_b	14.519709
_cell_length_c	15.186229
_cell_angle_alpha	89.995307
_cell_angle_beta	89.999362
_cell_angle_gamma	83.570813
loop_
_atom_site_label
_atom_site_type_symbol
_atom_site_fract_x
_atom_site_fract_y
_atom_site_fract_z
O1	O	1.103336	0.118540	-0.073175
O2	O	0.861299	0.133292	-0.073189
O3	O	0.988735	-0.008336	-0.073174
O4	O	0.975900	0.260168	-0.073190
O5	O	0.988726	-0.008338	0.073284
O6	O	0.861291	0.133290	0.073268
O7	O	1.103327	0.118538	0.073282
Zn8	Zn	0.982308	0.125914	0.096529
Zn9	Zn	0.982319	0.125916	-0.096435
O10	O	0.975892	0.260166	0.073267
C11	C	0.830319	0.132693	0.000038
C12	C	0.738021	0.130902	0.000033
C13	C	0.515887	0.210775	0.000038
C14	C	0.429163	0.209085	0.000044
C15	C	0.448747	0.041048	0.000050
C16	C	0.535468	0.042739	0.000051
C17	C	0.569036	0.127606	0.000040
C18	C	0.395591	0.124224	0.000045
C19	C	0.301562	0.122390	0.000052
C20	C	0.663071	0.129440	0.000036
C21	C	0.988132	-0.042696	0.000055
C22	C	0.986340	-0.145073	0.000056
C23	C	0.979741	-0.519955	0.000032
C24	C	0.981574	-0.415651	0.000039
C25	C	0.983041	-0.332517	0.000045
C26	C	0.984873	-0.228207	0.000050
C27	C	1.134307	0.119136	0.000054
C28	C	1.226606	0.120928	0.000053
C29	C	0.976494	0.294526	0.000036
C30	C	0.978287	0.396903	0.000030
N31	N	0.982306	0.125911	0.228221
N32	N	0.982327	0.125911	-0.228128
C33	C	1.038754	0.063219	0.453951
C34	C	1.038756	0.063217	0.546141
C35	C	0.925873	0.188606	0.546136
C36	C	0.925867	0.188603	0.453948
C37	C	0.982312	0.125911	0.407858
C38	C	0.982321	0.125912	0.592236
C39	C	0.982323	0.125910	0.692192
C40	C	0.982309	0.125911	0.307895
H41	H	0.385892	0.276810	0.000044
H42	H	0.578745	-0.024991	0.000055
C43	C	0.552448	0.302846	0.000170
C44	C	0.601681	0.308712	0.075506
C45	C	0.635381	0.393510	0.075653
H46	H	0.508458	0.352217	0.000216
H47	H	0.585917	0.307010	-0.050878
H48	H	0.568214	0.304557	0.126540
H49	H	0.645685	0.259361	0.075476
H50	H	0.668851	0.397674	0.024605
H51	H	0.591386	0.442874	0.075696
H52	H	0.668796	0.397498	0.126763
C53	C	0.864492	0.256527	0.403849
C54	C	0.813512	0.207382	0.350950
C55	C	0.756959	0.269916	0.304795
H56	H	0.894358	0.294947	0.367807
H57	H	0.830832	0.293858	0.444471
H58	H	0.847168	0.170067	0.310333
H59	H	0.783628	0.168966	0.386970
H60	H	0.723298	0.307247	0.345417
H61	H	0.786831	0.308332	0.268758
H62	H	0.722357	0.236580	0.268904
C63	C	1.099876	-0.004940	0.403820
C64	C	1.055472	-0.061389	0.350916
C65	C	1.111740	-0.124202	0.304728
H66	H	1.133492	-0.042365	0.444396
H67	H	1.134543	0.028173	0.367783
H68	H	1.020820	-0.094499	0.386949
H69	H	1.021859	-0.023989	0.310324
H70	H	1.146407	-0.091090	0.268691
H71	H	1.145353	-0.161621	0.345310
H72	H	1.081620	-0.162505	0.268821
H73	H	0.421405	-0.028048	0.000064
H74	H	1.084715	0.012167	0.583667
H75	H	0.879918	0.239650	0.583672
