data_functionalizedCrystal
_audit_creation_method	'MofGen! by Chris Wilmer'
_symmetry_space_group_name_H-M	'P1'
_symmetry_Int_Tables_number	1
_symmetry_cell_setting	triclinic
loop_
_symmetry_equiv_pos_as_xyz
  x,y,z
_cell_length_a	11.169417
_cell_length_b	12.759400
_cell_length_c	11.169409
_cell_angle_alpha	89.967381
_cell_angle_beta	89.979747
_cell_angle_gamma	90.014415
loop_
_atom_site_label
_atom_site_type_symbol
_atom_site_fract_x
_atom_site_fract_y
_atom_site_fract_z
Zn1	Zn	1.834948	-0.418147	-0.678530
Zn2	Zn	1.834824	-0.593872	-0.477846
Zn3	Zn	1.634231	-0.418212	-0.477865
Zn4	Zn	1.634231	-0.593788	-0.678492
O5	O	1.734558	-0.506005	-0.578183
O6	O	2.002881	-0.441465	-0.651917
O7	O	1.808164	-0.570633	-0.309898
O8	O	1.660908	-0.271182	-0.504508
O9	O	2.002790	-0.570570	-0.504475
O10	O	1.808373	-0.271134	-0.651936
O11	O	1.660788	-0.441576	-0.309913
O12	O	1.466281	-0.441494	-0.504471
O13	O	1.660908	-0.570426	-0.846447
O14	O	1.466281	-0.570489	-0.651870
O15	O	1.808374	-0.441384	-0.846475
O16	O	1.808164	-0.740882	-0.504437
O17	O	1.660789	-0.740820	-0.651851
C18	C	1.422734	-0.505991	-0.578169
C19	C	1.289334	-0.506010	-0.578192
C20	C	1.734495	-0.778972	-0.578164
C21	C	1.734578	-0.895749	-0.578196
C22	C	1.811325	-0.950506	-0.655025
C23	C	1.811381	-1.060230	-0.655054
C24	C	1.657940	-1.060430	-0.501416
C25	C	1.657879	-0.950708	-0.501394
C26	C	1.888025	-0.895547	-0.731827
C27	C	1.964779	-0.950305	-0.808661
C28	C	1.964835	-1.060029	-0.808690
C29	C	1.888137	-1.114995	-0.731885
C30	C	2.047601	-0.506020	-0.578198
C31	C	2.181001	-0.506026	-0.578204
C32	C	1.734655	-0.505888	-0.891226
C33	C	1.734696	-0.505839	-1.024626
C34	C	1.734654	-0.231971	-0.578228
C35	C	1.734695	-0.115195	-0.578248
C36	C	1.734532	-0.506045	-0.266358
C37	C	1.734723	-0.505799	-0.132959
H38	H	1.887991	-0.806204	-0.731809
H39	H	2.027322	-1.104609	-0.871261
N40	N	1.575236	-1.119716	-0.418572
H41	H	1.593912	-1.100662	-0.332834
H42	H	1.489494	-1.100647	-0.437233
N43	N	1.888182	-1.233341	-0.731914
H44	H	1.866092	-1.259727	-0.814233
H45	H	1.970553	-1.259655	-0.709878
N46	N	1.575109	-0.891630	-0.418534
H47	H	1.489357	-0.910765	-0.437105
H48	H	1.593900	-0.910785	-0.332831
N49	N	2.047486	-0.891028	-0.891510
H50	H	2.035807	-0.813210	-0.879836
H51	H	2.133222	-0.910165	-0.872912
