data_functionalizedCrystal
_audit_creation_method	'MofGen! by Chris Wilmer'
_symmetry_space_group_name_H-M	'P1'
_symmetry_Int_Tables_number	1
_symmetry_cell_setting	triclinic
loop_
_symmetry_equiv_pos_as_xyz
  x,y,z
_cell_length_a	14.519709
_cell_length_b	10.654545
_cell_length_c	12.996460
_cell_angle_alpha	89.994208
_cell_angle_beta	89.998766
_cell_angle_gamma	84.081612
loop_
_atom_site_label
_atom_site_type_symbol
_atom_site_fract_x
_atom_site_fract_y
_atom_site_fract_z
O1	O	0.129506	1.666603	-0.085559
O2	O	0.379506	1.916603	0.164441
O3	O	0.629506	2.166603	0.414441
O4	O	0.879506	2.416603	0.664441
O5	O	0.141852	1.301005	-0.085564
O6	O	0.391852	1.551005	0.164436
O7	O	0.641852	1.801005	0.414436
O8	O	0.891852	2.051005	0.664436
O9	O	0.001491	1.493498	-0.085552
O10	O	0.251491	1.743498	0.164448
O11	O	0.501491	1.993498	0.414448
O12	O	0.751491	2.243498	0.664448
O13	O	0.269867	1.474111	-0.085571
O14	O	0.519867	1.724111	0.164429
O15	O	0.769867	1.974111	0.414429
O16	O	1.019867	2.224111	0.664429
O17	O	0.001499	1.493473	0.085582
O18	O	0.251499	1.743473	0.335582
O19	O	0.501499	1.993473	0.585582
O20	O	0.751499	2.243473	0.835582
O21	O	0.141860	1.300981	0.085570
O22	O	0.391860	1.550981	0.335570
O23	O	0.641860	1.800981	0.585570
O24	O	0.891860	2.050981	0.835570
O25	O	0.129514	1.666578	0.085575
O26	O	0.379514	1.916578	0.335575
O27	O	0.629514	2.166578	0.585575
O28	O	0.879514	2.416578	0.835575
Cu29	Cu	0.135688	1.483777	0.101198
Cu30	Cu	0.385688	1.733777	0.351198
Cu31	Cu	0.635688	1.983777	0.601198
Cu32	Cu	0.885688	2.233777	0.851198
Cu33	Cu	0.135678	1.483807	-0.101187
Cu34	Cu	0.385678	1.733807	0.148813
Cu35	Cu	0.635678	1.983807	0.398813
Cu36	Cu	0.885678	2.233807	0.648813
O37	O	0.269875	1.474086	0.085563
O38	O	0.519875	1.724086	0.335563
O39	O	0.769875	1.974086	0.585563
O40	O	1.019875	2.224086	0.835563
C41	C	0.140950	1.254204	0.000003
C42	C	0.390950	1.504204	0.250003
C43	C	0.640950	1.754204	0.500003
C44	C	0.890950	2.004204	0.750003
C45	C	0.138241	1.114786	0.000001
C46	C	0.388241	1.364786	0.250001
C47	C	0.638241	1.614786	0.500001
C48	C	0.888241	1.864786	0.750001
C49	C	0.136970	1.049280	0.093287
C50	C	0.386970	1.299280	0.343287
C51	C	0.636970	1.549280	0.593287
C52	C	0.886970	1.799280	0.843287
C53	C	0.134409	0.918286	0.093287
C54	C	0.384409	1.168286	0.343287
C55	C	0.634409	1.418286	0.593287
C56	C	0.884409	1.668286	0.843287
C57	C	0.134394	0.918313	-0.093292
C58	C	0.384394	1.168313	0.156708
C59	C	0.634394	1.418313	0.406708
C60	C	0.884394	1.668313	0.656708
C61	C	0.136948	1.049307	-0.093291
C62	C	0.386948	1.299307	0.156709
C63	C	0.636948	1.549307	0.406709
C64	C	0.886948	1.799307	0.656709
C65	C	-0.032870	1.492582	0.000015
C66	C	0.217130	1.742582	0.250015
C67	C	0.467130	1.992582	0.500015
C68	C	0.717130	2.242582	0.750015
C69	C	-0.135265	1.489874	0.000016
C70	C	0.114735	1.739874	0.250016
C71	C	0.364735	1.989874	0.500016
C72	C	0.614735	2.239874	0.750016
C73	C	-0.510212	1.479907	-0.000011
C74	C	-0.260212	1.729907	0.249989
C75	C	-0.010212	1.979907	0.499989
C76	C	0.239788	2.229907	0.749989
C77	C	-0.405890	1.482675	-0.000003
C78	C	-0.155890	1.732675	0.249997
C79	C	0.094110	1.982675	0.499997
C80	C	0.344110	2.232675	0.749997
C81	C	-0.322742	1.484890	0.000003
C82	C	-0.072742	1.734890	0.250003
C83	C	0.177258	1.984890	0.500003
C84	C	0.427258	2.234890	0.750003
C85	C	-0.218413	1.487659	0.000009
C86	C	0.031587	1.737659	0.250009
C87	C	0.281587	1.987659	0.500009
C88	C	0.531587	2.237659	0.750009
C89	C	0.304236	1.475002	-0.000006
C90	C	0.554236	1.725002	0.249994
C91	C	0.804236	1.975002	0.499994
C92	C	1.054236	2.225002	0.749994
C93	C	0.406631	1.477710	-0.000014
C94	C	0.656631	1.727710	0.249986
C95	C	0.906631	1.977710	0.499986
C96	C	1.156631	2.227710	0.749986
C97	C	0.130416	1.713380	0.000006
C98	C	0.380416	1.963380	0.250006
C99	C	0.630416	2.213380	0.500006
C100	C	0.880416	2.463380	0.750006
C101	C	0.133125	1.852798	0.000001
C102	C	0.383125	2.102798	0.250001
C103	C	0.633125	2.352798	0.500001
C104	C	0.883125	2.602798	0.750001
N105	N	0.135694	1.483766	0.243545
N106	N	0.385694	1.733766	0.493545
N107	N	0.635694	1.983766	0.743545
N108	N	0.885694	2.233766	0.993545
N109	N	0.135665	1.483828	-0.243534
N110	N	0.385665	1.733828	0.006466
N111	N	0.635665	1.983828	0.256466
N112	N	0.885665	2.233828	0.506466
C113	C	0.135696	1.483772	0.336651
C114	C	0.385696	1.733772	0.586651
C115	C	0.635696	1.983772	0.836651
C116	C	0.885696	2.233772	1.086651
C117	C	0.135690	1.483783	0.453457
C118	C	0.385690	1.733783	0.703457
C119	C	0.635690	1.983783	0.953457
C120	C	0.885690	2.233783	1.203457
C121	C	0.135680	1.483799	0.546555
C122	C	0.385680	1.733799	0.796555
C123	C	0.635680	1.983799	1.046555
C124	C	0.885680	2.233799	1.296555
C125	C	0.135675	1.483812	0.663367
C126	C	0.385675	1.733812	0.913367
C127	C	0.635675	1.983812	1.163367
C128	C	0.885675	2.233812	1.413367
H129	H	0.133374	0.864956	0.169250
H130	H	0.383374	1.114956	0.419250
H131	H	0.633374	1.364956	0.669250
H132	H	0.883374	1.614956	0.919250
C133	C	0.132982	0.846278	-0.195909
C134	C	0.382982	1.096278	0.054091
C135	C	0.632982	1.346278	0.304091
C136	C	0.882982	1.596278	0.554091
C137	C	0.051287	0.770309	-0.221558
C138	C	0.301287	1.020309	0.028442
C139	C	0.551287	1.270309	0.278442
C140	C	0.801287	1.520309	0.528442
C141	C	0.049879	0.698275	-0.324177
C142	C	0.299879	0.948275	-0.074177
C143	C	0.549879	1.198275	0.175823
C144	C	0.799879	1.448275	0.425823
C145	C	0.130166	0.702211	-0.401146
C146	C	0.380166	0.952211	-0.151146
C147	C	0.630166	1.202211	0.098854
C148	C	0.880166	1.452211	0.348854
C149	C	0.211867	0.778183	-0.375499
C150	C	0.461867	1.028183	-0.125499
C151	C	0.711867	1.278183	0.124501
C152	C	0.961867	1.528183	0.374501
C153	C	0.213275	0.850217	-0.272880
C154	C	0.463275	1.100217	-0.022880
C155	C	0.713275	1.350217	0.227120
C156	C	0.963275	1.600217	0.477120
H157	H	-0.008151	0.767393	-0.164579
H158	H	0.241849	1.017393	0.085421
H159	H	0.491849	1.267393	0.335421
H160	H	0.741849	1.517393	0.585421
H161	H	-0.010601	0.642035	-0.343163
H162	H	0.239399	0.892035	-0.093163
H163	H	0.489399	1.142035	0.156837
H164	H	0.739399	1.392035	0.406837
H165	H	0.129124	0.648887	-0.477111
H166	H	0.379124	0.898887	-0.227111
H167	H	0.629124	1.148887	0.022889
H168	H	0.879124	1.398887	0.272889
H169	H	0.271306	0.781099	-0.432478
H170	H	0.521306	1.031099	-0.182478
H171	H	0.771306	1.281099	0.067522
H172	H	1.021306	1.531099	0.317522
H173	H	0.273756	0.906457	-0.253894
H174	H	0.523756	1.156457	-0.003894
H175	H	0.773756	1.406457	0.246106
H176	H	1.023756	1.656457	0.496106
C177	C	0.138383	1.121307	0.195908
C178	C	0.388383	1.371307	0.445908
C179	C	0.638383	1.621307	0.695908
C180	C	0.888383	1.871307	0.945908
C181	C	0.060201	1.225449	0.221575
C182	C	0.310201	1.475449	0.471575
C183	C	0.560201	1.725449	0.721575
C184	C	0.810201	1.975449	0.971575
C185	C	0.061611	1.297471	0.324200
C186	C	0.311611	1.547471	0.574200
C187	C	0.561611	1.797471	0.824200
C188	C	0.811611	2.047471	1.074200
C189	C	0.141203	1.265350	0.401156
C190	C	0.391203	1.515350	0.651156
C191	C	0.641203	1.765350	0.901156
C192	C	0.891203	2.015350	1.151156
C193	C	0.219390	1.161203	0.375490
C194	C	0.469390	1.411203	0.625490
C195	C	0.719390	1.661203	0.875490
C196	C	0.969390	1.911203	1.125490
C197	C	0.217980	1.089181	0.272866
C198	C	0.467980	1.339181	0.522866
C199	C	0.717980	1.589181	0.772866
C200	C	0.967980	1.839181	1.022866
H201	H	0.001277	1.249231	0.164606
H202	H	0.251277	1.499231	0.414606
H203	H	0.501277	1.749231	0.664606
H204	H	0.751277	1.999231	0.914606
H205	H	0.003731	1.374568	0.343199
H206	H	0.253731	1.624568	0.593199
H207	H	0.503731	1.874568	0.843199
H208	H	0.753731	2.124568	1.093199
H209	H	0.142247	1.318665	0.477125
H210	H	0.392247	1.568665	0.727125
H211	H	0.642247	1.818665	0.977125
H212	H	0.892247	2.068665	1.227125
H213	H	0.278314	1.137421	0.432460
H214	H	0.528314	1.387421	0.682460
H215	H	0.778314	1.637421	0.932460
H216	H	1.028314	1.887421	1.182460
H217	H	0.275860	1.012085	0.253867
H218	H	0.525860	1.262085	0.503867
H219	H	0.775860	1.512085	0.753867
H220	H	1.025860	1.762085	1.003867
H221	H	0.137981	1.102643	-0.169260
H222	H	0.387981	1.352643	0.080740
H223	H	0.637981	1.602643	0.330740
H224	H	0.887981	1.852643	0.580740
