data_functionalizedCrystal
_audit_creation_method	'MofGen! by Chris Wilmer'
_symmetry_space_group_name_H-M	'P1'
_symmetry_Int_Tables_number	1
_symmetry_cell_setting	triclinic
loop_
_symmetry_equiv_pos_as_xyz
  x,y,z
_cell_length_a	11.169409
_cell_length_b	12.759401
_cell_length_c	12.759400
_cell_angle_alpha	89.987741
_cell_angle_beta	89.967324
_cell_angle_gamma	90.025330
loop_
_atom_site_label
_atom_site_type_symbol
_atom_site_fract_x
_atom_site_fract_y
_atom_site_fract_z
Zn1	Zn	-0.678716	-1.606282	-0.418207
Zn2	Zn	-0.478032	-1.606177	-0.593932
Zn3	Zn	-0.478031	-1.430579	-0.418265
Zn4	Zn	-0.678657	-1.430577	-0.593841
O5	O	-0.578359	-1.518404	-0.506061
O6	O	-0.652120	-1.753289	-0.441530
O7	O	-0.310082	-1.582840	-0.570692
O8	O	-0.504677	-1.453932	-0.271236
O9	O	-0.504678	-1.753212	-0.570635
O10	O	-0.652119	-1.583020	-0.271193
O11	O	-0.310082	-1.453830	-0.441630
O12	O	-0.504620	-1.283558	-0.441542
O13	O	-0.846615	-1.453928	-0.570480
O14	O	-0.652019	-1.283557	-0.570537
O15	O	-0.846658	-1.583018	-0.441442
O16	O	-0.504621	-1.582838	-0.740941
O17	O	-0.652020	-1.453826	-0.740874
C18	C	-0.578314	-1.245436	-0.506037
C19	C	-0.578323	-1.128660	-0.506052
C20	C	-0.501479	-0.964023	-0.573190
C21	C	-0.501451	-1.073748	-0.573172
C22	C	-0.655219	-1.073842	-0.438937
C23	C	-0.655240	-0.964120	-0.438950
C24	C	-0.412706	-0.963970	-0.650693
C25	C	-0.412678	-1.073694	-0.650676
C26	C	-0.891402	-1.518485	-0.505945
C27	C	-1.024802	-1.518519	-0.505895
C28	C	-0.266534	-1.518384	-0.506102
C29	C	-0.133135	-1.518553	-0.505855
C30	C	-0.578340	-1.518349	-0.779029
C31	C	-0.578372	-1.518421	-0.895805
C32	C	-0.578392	-0.792437	-0.506083
C33	C	-0.578372	-0.909214	-0.506082
C34	C	-0.655208	-1.585604	-0.950565
C35	C	-0.655238	-1.585653	-1.060289
C36	C	-0.501584	-1.451334	-1.060484
C37	C	-0.501562	-1.451280	-0.950762
C38	C	-0.743915	-1.663155	-0.950454
C39	C	-0.743945	-1.663204	-1.060178
C40	C	-0.578405	-1.518488	-0.232028
C41	C	-0.578424	-1.518524	-0.115251
H42	H	-0.717801	-1.118561	-0.384279
H43	H	-0.319800	-0.934146	-0.628816
O44	O	-0.452228	-0.923545	-0.743028
C45	C	-0.526640	-0.959982	-0.916469
C46	C	-0.481877	-1.005903	-0.811965
H47	H	-0.550648	-1.026546	-0.972225
H48	H	-0.453248	-0.909690	-0.952975
H49	H	-0.609250	-0.909700	-0.901540
H50	H	-0.399290	-1.056232	-0.826804
H51	H	-0.555343	-1.056135	-0.775491
H52	H	-0.710694	-1.740445	-0.916389
H53	H	-0.717845	-0.919498	-0.384296
O54	O	-0.426875	-1.386159	-0.897450
C55	C	-0.264754	-1.372021	-0.773730
C56	C	-0.349282	-1.445892	-0.834023
H57	H	-0.201982	-1.420286	-0.722452
H58	H	-0.319731	-1.317059	-0.722294
H59	H	-0.209915	-1.324021	-0.831876
H60	H	-0.404138	-1.493959	-0.775952
H61	H	-0.294236	-1.500784	-0.885475
O62	O	-0.427099	-1.385969	-1.113823
C63	C	-0.368611	-1.207299	-1.147504
C64	C	-0.453061	-1.281204	-1.087054
H65	H	-0.389554	-1.122583	-1.125867
H66	H	-0.381830	-1.218782	-1.235345
H67	H	-0.271857	-1.225835	-1.125997
H68	H	-0.549847	-1.262715	-1.108473
H69	H	-0.439738	-1.269708	-0.999228
O70	O	-0.307495	-1.114301	-0.615642
C71	C	-0.209751	-1.222516	-0.486724
C72	C	-0.328941	-1.176574	-0.526275
H73	H	-0.227052	-1.272890	-0.414479
H74	H	-0.146031	-1.155995	-0.465554
H75	H	-0.167934	-1.272734	-0.550918
H76	H	-0.370861	-1.126367	-0.462129
H77	H	-0.392579	-1.243144	-0.547476
H78	H	-0.836840	-1.641310	-0.920632
O79	O	-0.442333	-1.109365	-0.747688
C80	C	-0.580545	-1.211041	-0.851041
C81	C	-0.547082	-1.170734	-0.741122
H82	H	-0.665250	-1.260647	-0.845774
H83	H	-0.504192	-1.260697	-0.883430
H84	H	-0.597007	-1.141546	-0.905314
H85	H	-0.530640	-1.240166	-0.686770
H86	H	-0.623453	-1.121046	-0.708819
O87	O	-0.849350	-1.628432	-1.100567
C88	C	-1.047324	-1.562892	-1.064064
C89	C	-0.928033	-1.602278	-1.018182
H90	H	-1.110964	-1.541715	-0.997479
H91	H	-1.089181	-1.627088	-1.114245
H92	H	-1.030104	-1.490638	-1.114448
H93	H	-0.945152	-1.674512	-0.967751
H94	H	-0.886213	-1.538018	-0.968061
H95	H	-0.719147	-1.744601	-1.089917
