data_functionalizedCrystal
_audit_creation_method	'MofGen! by Chris Wilmer'
_symmetry_space_group_name_H-M	'P1'
_symmetry_Int_Tables_number	1
_symmetry_cell_setting	triclinic
loop_
_symmetry_equiv_pos_as_xyz
  x,y,z
_cell_length_a	11.792241
_cell_length_b	19.288864
_cell_length_c	18.366186
_cell_angle_alpha	89.977071
_cell_angle_beta	90.005243
_cell_angle_gamma	96.335169
loop_
_atom_site_label
_atom_site_type_symbol
_atom_site_fract_x
_atom_site_fract_y
_atom_site_fract_z
O1	O	0.141580	-0.922157	0.060784
O2	O	0.160679	-0.720005	0.060734
O3	O	-0.014115	-0.825987	0.060755
O4	O	0.316375	-0.816175	0.060763
O5	O	-0.014120	-0.825968	-0.060345
O6	O	0.160675	-0.719987	-0.060365
O7	O	0.141575	-0.922139	-0.060316
Zn8	Zn	0.151124	-0.821060	-0.079568
Zn9	Zn	0.151131	-0.821084	0.079986
O10	O	0.316370	-0.816157	-0.060337
C11	C	-0.056399	-0.825361	0.000205
C12	C	-0.182385	-0.823517	0.000206
C13	C	0.160063	-0.694116	0.000178
C14	C	0.158218	-0.617002	0.000159
N15	N	0.151119	-0.821048	-0.188459
C16	C	-0.413046	-0.820125	0.000217
C17	C	-0.284689	-0.822009	0.000211
C18	C	0.358654	-0.816783	0.000214
C19	C	0.484640	-0.818627	0.000219
C20	C	0.142192	-0.948028	0.000242
C21	C	0.144037	-1.025142	0.000266
C22	C	0.260779	-0.572888	0.000173
C23	C	0.259046	-0.500431	0.000181
C24	C	0.154746	-0.472091	0.000189
C25	C	0.052171	-0.516215	0.000171
C26	C	0.053907	-0.588670	0.000156
C27	C	0.072756	-0.363370	0.042638
C28	C	0.071024	-0.290916	0.042658
C29	C	0.149387	-0.248615	0.000233
C30	C	0.229501	-0.278777	-0.042202
C31	C	0.231237	-0.351232	-0.042217
C32	C	0.152852	-0.393526	0.000205
C33	C	0.250076	-0.125935	0.000255
C34	C	0.248339	-0.053477	0.000258
C35	C	0.041460	-0.069262	0.000256
C36	C	0.043201	-0.141718	0.000246
C37	C	0.147512	-0.170050	0.000248
C38	C	0.219785	-0.863426	-0.226541
C39	C	0.219782	-0.863437	-0.302768
C40	C	0.151126	-0.821058	-0.340912
C41	C	0.082446	-0.778678	-0.302821
C42	C	0.082443	-0.778673	-0.226594
C43	C	0.148256	-0.758430	-0.461708
C44	C	0.148267	-0.758433	-0.537933
C45	C	0.151130	-0.821074	-0.576019
C46	C	0.154005	-0.883712	-0.537871
C47	C	0.154002	-0.883707	-0.461644
C48	C	0.151122	-0.821059	-0.423566
C49	C	0.219796	-0.863467	-0.696756
C50	C	0.219785	-0.863480	-0.772985
C51	C	0.082455	-0.778714	-0.773036
C52	C	0.082460	-0.778708	-0.696808
C53	C	0.151137	-0.821083	-0.658673
N54	N	0.151127	-0.821101	0.188877
H55	H	0.342567	-0.464507	0.000190
N56	N	-0.056720	-0.636253	0.000152
H57	H	-0.039793	-0.686452	0.000145
H58	H	-0.102195	-0.627012	-0.044739
N59	N	0.008396	-0.732966	-0.343954
H60	H	-0.074239	-0.746362	-0.330690
H61	H	0.018914	-0.739417	-0.398010
N62	N	0.157079	-0.951260	-0.420495
H63	H	0.227523	-0.948123	-0.388862
H64	H	0.158846	-0.990912	-0.456227
H65	H	0.026553	-0.744209	-0.804091
H66	H	0.275703	-0.897934	-0.195495
N67	N	0.373289	-0.603437	0.000177
H68	H	0.418209	-0.587350	-0.044709
H69	H	0.358745	-0.656027	0.000194
H70	H	0.331860	-0.017560	0.000265
N71	N	0.008376	-0.732965	-0.185515
H72	H	-0.035123	-0.706120	-0.221242
H73	H	0.058002	-0.699193	-0.153903
H74	H	0.026549	-0.744196	-0.665802
H75	H	0.296465	-0.375786	-0.076772
H76	H	0.005795	-0.266364	0.077214
H77	H	-0.040316	-0.177637	0.000238
N78	N	0.157151	-0.951265	-0.578956
H79	H	0.228747	-0.972694	-0.565672
H80	H	0.156685	-0.941690	-0.633016
H81	H	0.293311	-0.244337	-0.076749
H82	H	0.145932	-0.707430	-0.568988
N83	N	0.362575	-0.156500	0.000254
H84	H	0.427287	-0.117556	0.000258
H85	H	0.367798	-0.186196	-0.044643
N86	N	-0.071038	-0.038706	0.000257
H87	H	-0.056577	0.013888	0.000267
H88	H	-0.115905	-0.054841	0.045147
H89	H	0.275716	-0.897972	-0.665704
H90	H	-0.032752	-0.493136	0.000188
H91	H	0.008941	-0.397806	0.077190
H92	H	0.145932	-0.707416	-0.430705
N93	N	0.293854	-0.909200	-0.814045
H94	H	0.349536	-0.879178	-0.845687
H95	H	0.244225	-0.943015	-0.845610
N96	N	0.293846	-0.909146	-0.343855
H97	H	0.337350	-0.935990	-0.308129
H98	H	0.349450	-0.879065	-0.375490
