data_functionalizedCrystal
_audit_creation_method	'MofGen! by Chris Wilmer'
_symmetry_space_group_name_H-M	'P1'
_symmetry_Int_Tables_number	1
_symmetry_cell_setting	triclinic
loop_
_symmetry_equiv_pos_as_xyz
  x,y,z
_cell_length_a	8.559649
_cell_length_b	10.654550
_cell_length_c	9.730223
_cell_angle_alpha	89.997176
_cell_angle_beta	89.996947
_cell_angle_gamma	77.131797
loop_
_atom_site_label
_atom_site_type_symbol
_atom_site_fract_x
_atom_site_fract_y
_atom_site_fract_z
O1	O	-2.119654	0.042561	0.114267
O2	O	-1.619654	0.542561	0.614267
O3	O	-1.655168	-0.022226	0.114274
O4	O	-1.155168	0.477774	0.614274
O5	O	-1.898091	0.194010	0.114262
O6	O	-1.398091	0.694010	0.614262
O7	O	-1.876732	-0.173675	0.114279
O8	O	-1.376732	0.326325	0.614279
O9	O	-1.898074	0.194008	-0.114318
O10	O	-1.398074	0.694008	0.385682
O11	O	-1.655151	-0.022228	-0.114305
O12	O	-1.155151	0.477772	0.385695
O13	O	-2.119637	0.042559	-0.114313
O14	O	-1.619637	0.542559	0.385687
Zn15	Zn	-1.887391	0.010165	-0.150601
Zn16	Zn	-1.387391	0.510165	0.349399
Zn17	Zn	-1.887414	0.010168	0.150563
Zn18	Zn	-1.387414	0.510168	0.650563
O19	O	-1.876715	-0.173677	-0.114301
O20	O	-1.376715	0.326323	0.385699
C21	C	-1.896514	0.240645	-0.000027
C22	C	-1.396514	0.740645	0.499973
C23	C	-1.891822	0.379603	-0.000025
C24	C	-1.391822	0.879603	0.499975
C25	C	-1.595684	-0.027137	-0.000015
C26	C	-1.095684	0.472863	0.499985
C27	C	-1.418466	-0.041751	-0.000012
C28	C	-0.918466	0.458249	0.499988
C29	C	-2.179121	0.047469	-0.000021
C30	C	-1.679121	0.547469	0.499979
C31	C	-2.356339	0.062084	-0.000015
C32	C	-1.856339	0.562084	0.499985
C33	C	-1.878292	-0.220312	-0.000008
C34	C	-1.378292	0.279688	0.499992
C35	C	-1.882984	-0.359271	-0.000001
C36	C	-1.382984	0.140729	0.499999
N37	N	-1.887387	0.010165	-0.356138
N38	N	-1.387387	0.510165	0.143862
C39	C	-2.034851	0.473864	-0.000027
C40	C	-1.534851	0.973864	0.499973
C41	C	-2.030432	0.604428	-0.000010
C42	C	-1.530432	1.104428	0.499990
C43	C	-1.739944	0.546458	0.000005
C44	C	-1.239944	1.046458	0.500005
C45	C	-1.744364	0.415896	-0.000002
C46	C	-1.244364	0.915896	0.499998
C47	C	-1.985032	-0.056630	-0.428056
C48	C	-1.485032	0.443370	0.071944
C49	C	-1.985059	-0.056620	-0.571939
C50	C	-1.485059	0.443380	-0.071939
C51	C	-1.789782	0.076982	-0.571972
C52	C	-1.289782	0.576982	-0.071972
C53	C	-1.789765	0.076979	-0.428092
C54	C	-1.289765	0.576979	0.071908
N55	N	-1.887431	0.010178	0.356099
N56	N	-1.387431	0.510178	0.856099
H57	H	-1.438727	0.162162	-0.000013
H58	H	-0.938727	0.662162	0.499987
Cl59	Cl	-2.220226	0.428242	-0.000052
Cl60	Cl	-1.720226	0.928242	0.499948
H61	H	-1.619888	0.576024	0.000020
H62	H	-1.119888	1.076024	0.500020
H63	H	-1.627885	0.339143	0.000003
H64	H	-1.127885	0.839143	0.500003
Cl65	Cl	-2.107771	-0.140613	-0.337605
Cl66	Cl	-1.607771	0.359387	0.162395
H67	H	-1.336069	-0.141836	0.000000
H68	H	-0.836069	0.358164	0.500000
Cl69	Cl	-1.666997	0.160955	-0.337673
Cl70	Cl	-1.166997	0.660955	0.162327
Cl71	Cl	-2.107821	-0.140594	-0.662346
Cl72	Cl	-1.607821	0.359406	-0.162346
H73	H	-1.710299	0.131378	-0.630575
H74	H	-1.210299	0.631378	-0.130575
H75	H	-2.146901	0.681172	-0.000009
H76	H	-1.646901	1.181172	0.499991
