data_functionalizedCrystal
_audit_creation_method	'MofGen! by Chris Wilmer'
_symmetry_space_group_name_H-M	'P1'
_symmetry_Int_Tables_number	1
_symmetry_cell_setting	triclinic
loop_
_symmetry_equiv_pos_as_xyz
  x,y,z
_cell_length_a	6.817900
_cell_length_b	17.982968
_cell_length_c	17.982783
_cell_angle_alpha	95.926085
_cell_angle_beta	102.448572
_cell_angle_gamma	102.451960
loop_
_atom_site_label
_atom_site_type_symbol
_atom_site_fract_x
_atom_site_fract_y
_atom_site_fract_z
V1	V	-4.009918	-0.237867	-0.106127
V2	V	-3.509918	0.262133	0.393873
O3	O	-4.003034	-0.233013	0.004365
O4	O	-3.503034	0.266987	0.504365
O5	O	-3.956470	-0.236553	-0.209725
O6	O	-3.456470	0.263447	0.290275
O7	O	-3.956489	-0.341466	-0.104816
O8	O	-3.456489	0.158534	0.395184
O9	O	-4.003015	-0.127374	-0.101269
O10	O	-3.503015	0.372626	0.398731
V11	V	-4.494852	-0.224613	-0.092872
V12	V	-3.994852	0.275387	0.407128
O13	O	-4.268082	-0.266940	-0.135201
O14	O	-3.768082	0.233060	0.364799
O15	O	-4.686885	-0.195540	-0.063798
O16	O	-4.186885	0.304460	0.436202
O17	O	-4.325093	-0.225927	0.010726
O18	O	-3.825093	0.274073	0.510726
O19	O	-4.619133	-0.229466	-0.203364
O20	O	-4.119133	0.270534	0.296636
O21	O	-4.619152	-0.335106	-0.097730
O22	O	-4.119152	0.164894	0.402270
O23	O	-4.325074	-0.121014	-0.094183
O24	O	-3.825074	0.378986	0.405817
C25	C	-3.800406	-0.232881	-0.234970
C26	C	-3.300406	0.267119	0.265030
C27	C	-3.837959	-0.232498	-0.319665
C28	C	-3.337959	0.267502	0.180335
C29	C	-3.819323	-0.162514	-0.348365
C30	C	-3.319323	0.337486	0.151635
C31	C	-3.854628	-0.162156	-0.427945
C32	C	-3.354628	0.337844	0.072055
C33	C	-3.908554	-0.231782	-0.478825
C34	C	-3.408554	0.268218	0.021175
C35	C	-3.927196	-0.301772	-0.450120
C36	C	-3.427196	0.198228	0.049880
C37	C	-3.891906	-0.302129	-0.370541
C38	C	-3.391906	0.197871	0.129459
C39	C	-4.069522	-0.300333	-0.771054
C40	C	-3.569522	0.199667	-0.271054
C41	C	-4.104806	-0.299970	-0.850638
C42	C	-3.604806	0.200030	-0.350638
C43	C	-4.032244	-0.160359	-0.828458
C44	C	-3.532244	0.339641	-0.328458
C45	C	-3.996953	-0.160716	-0.748879
C46	C	-3.496953	0.339284	-0.248879
C47	C	-4.015609	-0.230705	-0.720182
C48	C	-3.515609	0.269295	-0.220182
C49	C	-3.977331	-0.231093	-0.633891
C50	C	-3.477331	0.268907	-0.133891
C51	C	-3.946818	-0.231396	-0.565113
C52	C	-3.446818	0.268604	-0.065113
C53	C	-3.800429	-0.366707	-0.101148
C54	C	-3.300429	0.133293	0.398852
C55	C	-3.837995	-0.451402	-0.100762
C56	C	-3.337995	0.048598	0.399238
C57	C	-4.037378	-0.495085	-0.104398
C58	C	-3.537378	0.004915	0.395602
C59	C	-4.072664	-0.574664	-0.104036
C60	C	-3.572664	-0.074664	0.395964
C61	C	-3.908566	-0.610561	-0.100041
C62	C	-3.408566	-0.110561	0.399959
C63	C	-3.709166	-0.566872	-0.096402
C64	C	-3.209166	-0.066872	0.403598
C65	C	-3.673880	-0.487293	-0.096760
C66	C	-3.173880	0.012707	0.403240
C67	C	-3.851463	-0.887805	-0.094959
C68	C	-3.351463	-0.387805	0.405041
C69	C	-3.886766	-0.967390	-0.094604
C70	C	-3.386766	-0.467390	0.405396
C71	C	-4.250247	-0.975176	-0.102235
C72	C	-3.750247	-0.475176	0.397765
C73	C	-4.214961	-0.895597	-0.102593
C74	C	-3.714961	-0.395597	0.397407
C75	C	-4.015563	-0.851915	-0.098949
C76	C	-3.515563	-0.351915	0.401051
C77	C	-3.977304	-0.765625	-0.099342
C78	C	-3.477304	-0.265625	0.400658
C79	C	-3.946825	-0.696849	-0.099655
C80	C	-3.446825	-0.196849	0.400345
C81	C	-4.144500	-0.229596	0.035967
C82	C	-3.644500	0.270404	0.535967
C83	C	-4.086185	-0.229985	0.120661
C84	C	-3.586185	0.270015	0.620661
C85	C	-4.144477	-0.095769	-0.097854
C86	C	-3.644477	0.404231	0.402146
C87	C	-4.086149	-0.011073	-0.098236
C88	C	-3.586149	0.488927	0.401764
H89	H	-3.907104	-0.359118	-0.347176
H90	H	-3.407104	0.140882	0.152824
H91	H	-4.171013	-0.465865	-0.107656
H92	H	-3.671013	0.034135	0.392344
H93	H	-4.412608	-1.010752	-0.105199
H94	H	-3.912608	-0.510752	0.394801
O95	O	-3.761139	-0.087412	-0.293492
O96	O	-3.261139	0.412588	0.206508
H97	H	-3.879195	-0.087085	-0.259606
H98	H	-3.379195	0.412915	0.240394
H99	H	-3.575555	-0.596104	-0.093146
H100	H	-3.075555	-0.096104	0.406854
H101	H	-3.511515	-0.451724	-0.093780
H102	H	-3.011515	0.048276	0.406220
H103	H	-3.839456	-0.105168	-0.451308
H104	H	-3.339456	0.394832	0.048692
H105	H	-3.971120	-0.358464	-0.491553
H106	H	-3.471120	0.141536	0.008447
O107	O	-4.012125	-0.084868	-0.859413
O108	O	-3.512125	0.415132	-0.359413
H109	H	-4.123818	-0.054306	-0.841724
H110	H	-3.623818	0.445694	-0.341724
H111	H	-4.235015	-0.610227	-0.106992
H112	H	-3.735015	-0.110227	0.393008
H113	H	-4.348592	-0.866375	-0.105849
H114	H	-3.848592	-0.366375	0.394151
O115	O	-3.636416	-0.840695	-0.091041
O116	O	-3.136416	-0.340695	0.408959
H117	H	-3.528251	-0.879030	-0.088214
H118	H	-3.028251	-0.379030	0.411786
H119	H	-3.953034	-0.104019	-0.707455
H120	H	-3.453034	0.395981	-0.207455
O121	O	-4.089610	-0.375816	-0.740104
O122	O	-3.589610	0.124184	-0.240104
H123	H	-4.133008	-0.424168	-0.788855
H124	H	-3.633008	0.075832	-0.288855
O125	O	-3.709960	-1.006168	-0.090656
O126	O	-3.209960	-0.506168	0.409344
H127	H	-3.565442	-0.962444	-0.088308
H128	H	-3.065442	-0.462444	0.411692
H129	H	-4.148719	-0.356672	-0.892063
H130	H	-3.648719	0.143328	-0.392063
