data_functionalizedCrystal
_audit_creation_method	'MofGen! by Chris Wilmer'
_symmetry_space_group_name_H-M	'P1'
_symmetry_Int_Tables_number	1
_symmetry_cell_setting	triclinic
loop_
_symmetry_equiv_pos_as_xyz
  x,y,z
_cell_length_a	12.759399
_cell_length_b	21.395364
_cell_length_c	21.395355
_cell_angle_alpha	89.974323
_cell_angle_beta	90.014263
_cell_angle_gamma	89.990851
loop_
_atom_site_label
_atom_site_type_symbol
_atom_site_fract_x
_atom_site_fract_y
_atom_site_fract_z
Zn1	Zn	-0.418555	-0.957927	0.354299
Zn2	Zn	-0.594220	-0.957858	0.249529
Zn3	Zn	-0.418537	-0.853142	0.249533
Zn4	Zn	-0.594174	-0.853140	0.354267
O5	O	-0.506372	-0.905517	0.301907
O6	O	-0.441884	-1.045596	0.340412
O7	O	-0.570927	-0.943939	0.161852
O8	O	-0.271519	-0.867072	0.263446
O9	O	-0.570944	-1.045545	0.263438
O10	O	-0.271532	-0.944057	0.340416
O11	O	-0.441853	-0.867005	0.161855
O12	O	-0.441809	-0.765464	0.263415
O13	O	-0.570867	-0.867068	0.441949
O14	O	-0.570849	-0.765462	0.340363
O15	O	-0.441840	-0.944055	0.441972
O16	O	-0.741235	-0.943937	0.263408
O17	O	-0.741202	-0.867001	0.340358
C18	C	-0.506323	-0.742729	0.301886
C19	C	-0.506328	-0.673088	0.301892
C20	C	-0.439292	-0.171317	0.342047
C21	C	-0.439287	-0.236753	0.342048
C22	C	-0.506372	-0.269449	0.301908
C23	C	-0.573485	-0.236705	0.261776
C24	C	-0.573495	-0.171271	0.261780
C25	C	-0.514512	-0.373087	0.245444
C26	C	-0.514495	-0.438520	0.245438
C27	C	-0.506347	-0.471270	0.301895
C28	C	-0.498194	-0.438579	0.358359
C29	C	-0.498204	-0.373145	0.358364
C30	C	-0.506369	-0.340402	0.301899
C31	C	-0.439238	-0.574959	0.342029
C32	C	-0.439241	-0.640396	0.342031
C33	C	-0.573433	-0.640347	0.261754
C34	C	-0.573436	-0.574912	0.261757
C35	C	-0.506333	-0.542221	0.301894
C36	C	-0.779339	-0.905478	0.301893
C37	C	-0.896116	-0.905519	0.301908
C38	C	-0.950960	-0.945625	0.261885
C39	C	-1.060684	-0.945666	0.261906
C40	C	-1.060710	-0.865488	0.341974
C41	C	-0.950988	-0.865451	0.341956
C42	C	-1.210565	-1.019619	0.239613
C43	C	-1.265413	-1.059720	0.199581
C44	C	-1.229845	-1.069357	0.138448
C45	C	-1.139430	-1.038884	0.117335
C46	C	-1.084588	-0.998778	0.157364
C47	C	-1.120154	-0.989153	0.218506
C48	C	-0.801105	-0.791497	0.364242
C49	C	-0.746260	-0.751388	0.404268
C50	C	-0.781826	-0.741745	0.465402
C51	C	-0.872245	-0.772207	0.486513
C52	C	-0.927089	-0.812316	0.446486
C53	C	-0.891515	-0.821960	0.385353
C54	C	-0.232338	-0.905572	0.301935
C55	C	-0.115562	-0.905596	0.301947
C56	C	-0.506350	-0.905569	0.465330
C57	C	-0.506341	-0.905591	0.534972
C58	C	-0.506408	-0.068940	0.301923
C59	C	-0.506392	-0.138581	0.301917
C60	C	-0.506317	-0.905501	0.139120
C61	C	-0.506030	-0.905600	0.069479
C62	C	-0.439154	-0.945676	0.567698
C63	C	-0.439109	-0.945675	0.633133
C64	C	-0.506270	-0.905596	0.665840
C65	C	-0.573461	-0.865503	0.633106
C66	C	-0.573497	-0.865500	0.567672
C67	C	-0.600868	-0.900635	0.769510
C68	C	-0.600834	-0.900642	0.834943
C69	C	-0.506159	-0.905600	0.867661
C70	C	-0.411515	-0.910563	0.834938
C71	C	-0.411551	-0.910561	0.769504
C72	C	-0.506238	-0.905594	0.736793
C73	C	-0.438917	-0.945686	0.971340
C74	C	-0.438870	-0.945681	1.036776
C75	C	-0.573232	-0.865511	1.036748
C76	C	-0.573269	-0.865513	0.971312
C77	C	-0.506113	-0.905604	0.938612
H78	H	-0.628063	-0.666968	0.229077
H79	H	-0.384655	-0.144705	0.374732
H80	H	-0.384469	-0.978320	0.541078
H81	H	-0.334488	-0.914601	0.742864
H82	H	-1.339029	-1.084531	0.216777
H83	H	-1.110484	-1.046729	0.067552
Br84	Br	-0.920521	-0.759119	0.569482
Br85	Br	-0.487147	-0.328780	0.434989
Br86	Br	-0.283018	-0.917297	0.879333
Br87	Br	-0.664563	-0.126840	0.207313
H88	H	-1.000710	-0.837122	0.463681
H89	H	-1.010973	-0.973969	0.140175
Br90	Br	-0.729370	-0.893925	0.725113
Br91	Br	-0.525594	-0.328648	0.168817
Br92	Br	-0.664490	-0.530480	0.207284
Br93	Br	-0.752824	-0.804588	0.281272
H94	H	-0.628141	-0.832868	0.659740
H95	H	-1.274510	-1.102009	0.105854
Br96	Br	-0.664685	-0.811093	0.523254
H97	H	-0.737163	-0.709082	0.497991
Br98	Br	-1.135185	-0.811112	0.396322
H99	H	-0.384641	-0.263412	0.374725
H100	H	-0.384599	-0.548341	0.374711
Br101	Br	-0.487115	-0.483017	0.434984
Br102	Br	-1.258830	-1.006554	0.322587
H103	H	-0.672633	-0.726588	0.387076
H104	H	-0.627905	-0.832871	1.063377
H105	H	-0.384392	-0.978316	0.659784
Br106	Br	-0.348180	-0.684825	0.396505
Br107	Br	-0.525534	-0.482880	0.168808
Br108	Br	-0.664537	-0.281077	0.207305
H109	H	-0.384229	-0.978327	0.944714
H110	H	-0.906286	-0.978252	0.229276
Br111	Br	-0.347695	-1.000097	1.081192
H112	H	-0.627987	-0.832875	0.944666
Br113	Br	-0.729278	-0.893914	0.879346
