data_functionalizedCrystal
_audit_creation_method	'MofGen! by Chris Wilmer'
_symmetry_space_group_name_H-M	'P1'
_symmetry_Int_Tables_number	1
_symmetry_cell_setting	triclinic
loop_
_symmetry_equiv_pos_as_xyz
  x,y,z
_cell_length_a	9.065218
_cell_length_b	8.140239
_cell_length_c	9.065215
_cell_angle_alpha	90.002571
_cell_angle_beta	94.984675
_cell_angle_gamma	89.995101
loop_
_atom_site_label
_atom_site_type_symbol
_atom_site_fract_x
_atom_site_fract_y
_atom_site_fract_z
O1	O	-1.960396	0.136694	0.216356
O2	O	-1.627062	0.470027	0.549689
O3	O	-1.293729	0.803361	0.883023
O4	O	-1.531111	0.136678	0.234102
O5	O	-1.197777	0.470012	0.567436
O6	O	-0.864444	0.803345	0.900769
O7	O	-1.754629	0.136680	0.010586
O8	O	-1.421295	0.470013	0.343920
O9	O	-1.087962	0.803346	0.677253
O10	O	-1.736878	0.136693	0.439872
O11	O	-1.403544	0.470026	0.773205
O12	O	-1.070211	0.803360	1.106538
O13	O	-1.754616	-0.136548	0.010584
O14	O	-1.421283	0.196786	0.343917
O15	O	-1.087949	0.530119	0.677250
O16	O	-1.531098	-0.136549	0.234100
O17	O	-1.197765	0.196785	0.567433
O18	O	-0.864431	0.530118	0.900766
O19	O	-1.960383	-0.136533	0.216353
O20	O	-1.627050	0.196800	0.549687
O21	O	-1.293716	0.530134	0.883020
Zn22	Zn	-1.745739	-0.179922	0.225226
Zn23	Zn	-1.412405	0.153412	0.558559
Zn24	Zn	-1.079072	0.486745	0.891893
Zn25	Zn	-1.745755	0.180067	0.225230
Zn26	Zn	-1.412422	0.513400	0.558563
Zn27	Zn	-1.079088	0.846734	0.891896
O28	O	-1.736865	-0.136534	0.439869
O29	O	-1.403532	0.196799	0.773202
O30	O	-1.070198	0.530133	1.106536
C31	C	-1.476118	0.000063	0.232395
C32	C	-1.142784	0.333396	0.565729
C33	C	-0.809451	0.666730	0.899062
C34	C	-1.312275	0.000057	0.227296
C35	C	-0.978942	0.333390	0.560629
C36	C	-0.645608	0.666724	0.893962
N37	N	-1.745738	-0.425604	0.225223
N38	N	-1.412405	-0.092271	0.558556
N39	N	-1.079071	0.241063	0.891889
C40	C	-1.752917	0.000068	-0.044402
C41	C	-1.419584	0.333401	0.288932
C42	C	-1.086251	0.666734	0.622265
C43	C	-1.747819	0.000072	-0.208245
C44	C	-1.414486	0.333406	0.125089
C45	C	-1.081153	0.666739	0.458422
C46	C	-1.015376	0.000076	0.218060
C47	C	-0.682043	0.333409	0.551393
C48	C	-0.348709	0.666742	0.884727
C49	C	-1.179219	0.000062	0.223159
C50	C	-0.845885	0.333395	0.556493
C51	C	-0.512552	0.666729	0.889826
N52	N	-1.745767	0.425750	0.225221
N53	N	-1.412434	0.759083	0.558555
N54	N	-1.079100	1.092416	0.891888
C55	C	-1.738576	0.000081	0.494857
C56	C	-1.405243	0.333415	0.828190
C57	C	-1.071910	0.666748	1.161524
C58	C	-1.743674	0.000087	0.658700
C59	C	-1.410341	0.333421	0.992034
C60	C	-1.077008	0.666754	1.325367
