data_functionalizedCrystal
_audit_creation_method	'MofGen! by Chris Wilmer'
_symmetry_space_group_name_H-M	'P1'
_symmetry_Int_Tables_number	1
_symmetry_cell_setting	triclinic
loop_
_symmetry_equiv_pos_as_xyz
  x,y,z
_cell_length_a	10.489741
_cell_length_b	14.519709
_cell_length_c	13.596369
_cell_angle_alpha	89.993066
_cell_angle_beta	90.002617
_cell_angle_gamma	95.890341
loop_
_atom_site_label
_atom_site_type_symbol
_atom_site_fract_x
_atom_site_fract_y
_atom_site_fract_z
O1	O	1.692699	-0.130116	0.081733
O2	O	2.192699	0.369884	0.581733
O3	O	1.321376	-0.142329	0.081748
O4	O	1.821376	0.357671	0.581748
O5	O	1.516882	-0.002038	0.081731
O6	O	2.016882	0.497962	0.581731
O7	O	1.497192	-0.270407	0.081750
O8	O	1.997192	0.229593	0.581750
O9	O	1.516863	-0.002030	-0.081851
O10	O	2.016863	0.497970	0.418149
O11	O	1.321356	-0.142322	-0.081834
O12	O	1.821356	0.357678	0.418166
O13	O	1.692679	-0.130108	-0.081850
O14	O	2.192679	0.369892	0.418150
Zn15	Zn	1.507015	-0.136214	-0.107814
Zn16	Zn	2.007015	0.363786	0.392186
Zn17	Zn	1.507040	-0.136224	0.107713
Zn18	Zn	2.007040	0.363776	0.607713
O19	O	1.497173	-0.270400	-0.081833
O20	O	1.997173	0.229600	0.418167
C21	C	1.273844	-0.141403	-0.000041
C22	C	1.773844	0.358597	0.499959
C23	C	1.132243	-0.138643	-0.000035
C24	C	1.632243	0.361357	0.499965
C25	C	1.065034	-0.049380	-0.000051
C26	C	1.565034	0.450620	0.499949
C27	C	0.972477	-0.091551	0.080605
C28	C	1.472477	0.408449	0.580605
C29	C	0.972491	-0.091565	-0.080675
C30	C	1.472491	0.408435	0.419325
C31	C	1.041551	-0.180851	0.080687
C32	C	1.541551	0.319149	0.580687
C33	C	1.041576	-0.180852	-0.080665
C34	C	1.541576	0.319148	0.419335
C35	C	0.949046	-0.223088	0.000010
C36	C	1.449046	0.276912	0.500010
C37	C	1.515955	0.032331	-0.000060
C38	C	2.015955	0.532331	0.499940
C39	C	1.513205	0.134727	-0.000061
C40	C	2.013205	0.634727	0.499939
C41	C	1.740211	-0.131035	-0.000058
C42	C	2.240211	0.368965	0.499942
C43	C	1.881812	-0.133794	-0.000057
C44	C	2.381812	0.366206	0.499943
N45	N	1.507006	-0.136206	-0.254906
N46	N	2.007006	0.363794	0.245094
C47	C	1.498100	-0.304768	-0.000039
C48	C	1.998100	0.195232	0.499961
C49	C	1.500850	-0.407165	-0.000032
C50	C	2.000850	0.092835	0.499968
C51	C	1.503082	0.509678	-0.000035
C52	C	2.003082	1.009678	0.499965
C53	C	1.505893	0.405355	-0.000042
C54	C	2.005893	0.905355	0.499958
C55	C	1.508143	0.322206	-0.000048
C56	C	2.008143	0.822206	0.499952
C57	C	1.510955	0.217876	-0.000054
C58	C	2.010955	0.717876	0.499946
C59	C	1.507039	-0.136225	-0.656197
C60	C	2.007039	0.363775	-0.156197
C61	C	1.507026	-0.136223	-0.544546
C62	C	2.007026	0.363777	-0.044546
C63	C	1.507023	-0.136216	-0.455555
C64	C	2.007023	0.363784	0.044445
C65	C	1.507009	-0.136213	-0.343897
C66	C	2.007009	0.363787	0.156103
N67	N	1.507059	-0.136224	0.254805
N68	N	2.007059	0.363776	0.754805
H69	H	1.071994	-0.218594	0.148952
H70	H	1.571994	0.281406	0.648952
O71	O	1.082187	-0.230828	-0.170990
O72	O	1.582187	0.269172	0.329010
H73	H	1.033863	-0.302509	-0.171610
H74	H	1.533863	0.197491	0.328390
O75	O	1.131765	0.047850	0.000009
O76	O	1.631765	0.547850	0.500009
H77	H	1.104256	0.084685	0.067050
H78	H	1.604256	0.584685	0.567050
O79	O	0.931901	-0.041531	0.170918
O80	O	1.431901	0.458469	0.670918
H81	H	0.978791	0.030562	0.170749
H82	H	1.478791	0.530562	0.670749
O83	O	0.882570	-0.320392	0.000055
O84	O	1.382570	0.179608	0.500055
H85	H	0.910232	-0.357217	0.067069
H86	H	1.410232	0.142783	0.567069
H87	H	0.941899	-0.053776	-0.148864
H88	H	1.441899	0.446224	0.351136
