data_functionalizedCrystal
_audit_creation_method	'MofGen! by Chris Wilmer'
_symmetry_space_group_name_H-M	'P1'
_symmetry_Int_Tables_number	1
_symmetry_cell_setting	triclinic
loop_
_symmetry_equiv_pos_as_xyz
  x,y,z
_cell_length_a	27.780893
_cell_length_b	27.780874
_cell_length_c	27.781022
_cell_angle_alpha	90.003897
_cell_angle_beta	120.001264
_cell_angle_gamma	59.999919
loop_
_atom_site_label
_atom_site_type_symbol
_atom_site_fract_x
_atom_site_fract_y
_atom_site_fract_z
O1	O	0.344535	0.410271	0.014330
O2	O	0.245966	0.340273	-0.014243
O3	O	0.344531	0.340273	0.084324
O4	O	0.245970	0.410271	-0.084236
O5	O	0.424588	0.260215	0.084319
O6	O	0.326023	0.260214	-0.014248
O7	O	0.424592	0.330213	0.014325
Zn8	Zn	0.388018	0.282503	0.000038
Zn9	Zn	0.282540	0.387983	0.000044
O10	O	0.326027	0.330213	-0.084241
C11	C	0.492840	0.462880	0.029967
C12	C	0.459047	0.433178	0.025876
C13	C	0.464147	0.520810	0.030379
C14	C	0.580008	0.462880	0.029970
C15	C	0.639415	0.433177	0.025881
C16	C	0.551183	0.520809	0.030382
C17	C	0.492845	0.550044	0.029975
C18	C	0.459057	0.613538	0.025892
C19	C	0.551178	0.433778	0.030374
C20	C	0.431758	0.664834	0.022592
C21	C	0.431744	0.409181	0.022569
C22	C	0.687409	0.409180	0.022577
C23	C	0.397511	0.729188	0.018454
C24	C	0.397492	0.379077	0.018421
C25	C	0.747620	0.379074	0.018432
C26	C	0.090567	0.550048	-0.372302
C27	C	0.031163	0.613542	-0.402000
C28	C	0.119395	0.520813	-0.314373
C29	C	0.177729	0.462885	-0.372309
C30	C	0.211518	0.433183	-0.402015
C31	C	0.206424	0.433782	-0.314380
C32	C	0.177730	0.462883	-0.285143
C33	C	0.211521	0.433180	-0.221650
C34	C	0.119393	0.520814	-0.401407
C35	C	0.238822	0.409183	-0.170354
C36	C	-0.016829	0.664838	-0.425992
C37	C	0.238817	0.409187	-0.426015
C38	C	0.273071	0.379077	-0.106001
C39	C	-0.077038	0.729192	-0.456093
C40	C	0.273065	0.379083	-0.456123
C41	C	0.177736	0.120429	-0.029854
C42	C	0.211531	0.056932	-0.025760
C43	C	0.206431	0.149665	-0.030264
C44	C	0.090565	0.207598	-0.029862
C45	C	0.031155	0.237304	-0.025778
C46	C	0.119391	0.236702	-0.030273
C47	C	0.177731	0.207598	-0.029863
C48	C	0.211521	0.237303	-0.025778
C49	C	0.119396	0.149665	-0.030264
C50	C	0.238820	0.261301	-0.022477
C51	C	0.238835	0.005633	-0.022451
C52	C	-0.016841	0.261303	-0.022476
C53	C	0.273067	0.291408	-0.018337
C54	C	0.273088	-0.058724	-0.018301
C55	C	-0.077055	0.291411	-0.018336
O56	O	0.905272	0.260218	-0.014248
O57	O	0.765287	0.330211	0.014335
O58	O	0.765272	0.330218	-0.084236
O59	O	0.905286	0.260211	0.084323
O60	O	0.765277	0.410276	-0.084228
O61	O	0.765291	0.410268	0.014343
O62	O	0.905277	0.340276	-0.014240
Zn63	Zn	0.835285	0.387983	0.000053
Zn64	Zn	0.835279	0.282504	0.000042
O65	O	0.905291	0.340269	0.084331
O66	O	0.326043	0.919515	-0.014212
O67	O	0.424612	0.750951	0.014357
O68	O	0.326042	0.849505	-0.084208
O69	O	0.424613	0.820961	0.084353
O70	O	0.245989	0.849502	-0.084197
O71	O	0.344558	0.750949	0.014367
O72	O	0.245990	0.919513	-0.014201
Zn73	Zn	0.282564	0.835230	0.000085
Zn74	Zn	0.388038	0.835234	0.000071
O75	O	0.344559	0.820959	0.084363
O76	O	0.344521	0.340283	-0.574994
O77	O	0.245963	0.410278	-0.504985
O78	O	0.344527	0.410279	-0.504984
O79	O	0.245957	0.340281	-0.574994
O80	O	0.424585	0.330220	-0.424931
O81	O	0.326021	0.330219	-0.424932
O82	O	0.424578	0.260223	-0.494941
Zn83	Zn	0.388011	0.282510	-0.447227
Zn84	Zn	0.282531	0.387991	-0.552699
O85	O	0.326015	0.260222	-0.494942
O86	O	-0.234700	0.919515	-0.494883
O87	O	-0.094706	0.750954	-0.424896
O88	O	-0.094701	0.849515	-0.424886
O89	O	-0.234706	0.820953	-0.494893
O90	O	-0.094701	0.849515	-0.504946
O91	O	-0.094707	0.750954	-0.504955
O92	O	-0.234701	0.919515	-0.574943
Zn93	Zn	-0.164704	0.835234	-0.552660
Zn94	Zn	-0.164703	0.835234	-0.447178
O95	O	-0.234706	0.820953	-0.574952
C96	C	0.579983	0.120445	0.372386
C97	C	0.639388	0.056952	0.402086
C98	C	0.551155	0.149681	0.401489
C99	C	0.492821	0.207608	0.285225
C100	C	0.459032	0.237310	0.221732
C101	C	0.464126	0.236712	0.314461
C102	C	0.492819	0.207611	0.372390
C103	C	0.459028	0.237315	0.402094
C104	C	0.551157	0.149679	0.314457
C105	C	0.431727	0.261312	0.426091
C106	C	0.687380	0.005655	0.426080
C107	C	0.431733	0.261306	0.170436
C108	C	0.397477	0.291418	0.456198
C109	C	0.747589	-0.058698	0.456182
C110	C	0.397486	0.291410	0.106083
C111	C	0.492789	0.550073	-0.372280
C112	C	0.458999	0.613568	-0.401975
C113	C	0.464086	0.520842	-0.401384
C114	C	0.579963	0.462903	-0.285126
C115	C	0.639380	0.433194	-0.221636
C116	C	0.551127	0.433804	-0.314362
C117	C	0.492781	0.462911	-0.372287
C118	C	0.458982	0.433211	-0.401991
C119	C	0.551135	0.520834	-0.314354
C120	C	0.431675	0.409217	-0.425988
C121	C	0.431699	0.664865	-0.425966
C122	C	0.687381	0.409194	-0.170343
C123	C	0.397417	0.379116	-0.456094
C124	C	0.397451	0.729220	-0.456063
C125	C	0.747602	0.379083	-0.105993
C126	C	1.177780	0.207578	0.372383
C127	C	1.211576	0.237280	0.402088
C128	C	1.206478	0.149646	0.401479
C129	C	1.090600	0.207584	0.285221
C130	C	1.031184	0.237293	0.221731
C131	C	1.119431	0.149652	0.314449
C132	C	1.177777	0.120413	0.372374
C133	C	1.211571	0.056917	0.402068
C134	C	1.119434	0.236685	0.314458
C135	C	1.238873	0.005619	0.426058
C136	C	1.238880	0.261276	0.426086
C137	C	0.983183	0.261293	0.170438
C138	C	1.273125	-0.058737	0.456155
C139	C	1.273134	0.291379	0.456193
C140	C	0.922962	0.291404	0.106088
C141	C	0.090578	0.865097	-0.372266
C142	C	0.031173	0.861004	-0.401964
C143	C	0.119403	0.865502	-0.401373
C144	C	0.177743	0.865108	-0.285107
C145	C	0.211535	0.861028	-0.221614
C146	C	0.206435	0.865513	-0.314346
C147	C	0.177738	0.865099	-0.372275
C148	C	0.211526	0.861009	-0.401983
C149	C	0.119407	0.865511	-0.314337
C150	C	0.238825	0.857704	-0.425983
C151	C	-0.016819	0.857696	-0.425956
C152	C	0.238837	0.857730	-0.170318
C153	C	0.273071	0.853558	-0.456092
C154	C	-0.077027	0.853547	-0.456056
C155	C	0.273087	0.853594	-0.105964
O156	O	0.245927	0.919547	-0.574901
O157	O	0.344488	0.750985	-0.504922
O158	O	0.245943	0.849542	-0.504895
O159	O	0.344472	0.820991	-0.574928
O160	O	0.326016	0.849536	-0.424841
O161	O	0.424561	0.750980	-0.424868
O162	O	0.326000	0.919542	-0.494847
Zn163	Zn	0.387994	0.835260	-0.447147
Zn164	Zn	0.282494	0.835267	-0.552622
O165	O	0.424545	0.820985	-0.494874
C166	C	0.492865	0.805365	0.372432
C167	C	0.459078	0.809455	0.402139
C168	C	0.551201	0.804962	0.401529
C169	C	0.492860	0.805356	0.285263
C170	C	0.459067	0.809436	0.221770
C171	C	0.551196	0.804953	0.314493
C172	C	0.580025	0.805367	0.372422
C173	C	0.639430	0.809460	0.402119
C174	C	0.464168	0.804951	0.314502
C175	C	0.687422	0.812768	0.426111
C176	C	0.431780	0.812760	0.426140
C177	C	0.431765	0.812734	0.170474
C178	C	0.747631	0.816917	0.456210
C179	C	0.397535	0.816906	0.456250
C180	C	0.397514	0.816870	0.106120
H181	H	0.575298	0.386181	0.031022
O182	O	0.087454	0.866386	-0.283239
H183	H	0.041963	0.866594	-0.313311
H184	H	0.575323	0.804288	0.291018
O185	O	0.087438	0.551882	-0.464460
H186	H	0.034395	0.564744	-0.492694
H187	H	0.575255	0.386206	-0.290893
O188	O	0.401896	0.551929	-0.464426
H189	H	0.359565	0.591926	-0.466999
O190	O	0.583163	0.804106	0.464574
H191	H	0.553296	0.803905	0.479991
H192	H	0.575311	0.544280	0.031035
H193	H	0.095272	0.866153	-0.448970
O194	O	0.401993	0.804073	0.283418
H195	H	0.359660	0.843816	0.243410
O196	O	0.401965	0.551906	0.031245
H197	H	0.386752	0.521835	0.031444
O198	O	0.583117	0.118590	0.283366
H199	H	0.553252	0.148671	0.238091
H200	H	0.575257	0.544309	-0.290879
H201	H	1.095301	0.126183	0.290972
O202	O	1.268669	0.118546	0.464521
H203	H	1.283883	0.148617	0.479937
O204	O	1.087467	0.299735	0.283371
H205	H	1.117336	0.315149	0.313447
H206	H	0.253364	0.386184	-0.290916
H207	H	0.253376	0.866172	-0.290876
H208	H	0.253370	0.126192	-0.030926
O209	O	0.087450	0.551894	-0.283269
H210	H	0.087209	0.591892	-0.280927
H211	H	0.095257	0.284303	-0.030935
O212	O	0.087432	0.118581	-0.031132
H213	H	0.117299	0.073299	-0.031340
H214	H	0.417178	0.284306	0.290986
H215	H	0.575284	0.126209	0.449087
