data_functionalizedCrystal
_audit_creation_method	'MofGen! by Chris Wilmer'
_symmetry_space_group_name_H-M	'P1'
_symmetry_Int_Tables_number	1
_symmetry_cell_setting	triclinic
loop_
_symmetry_equiv_pos_as_xyz
  x,y,z
_cell_length_a	10.723024
_cell_length_b	12.837942
_cell_length_c	9.798715
_cell_angle_alpha	89.997407
_cell_angle_beta	89.996609
_cell_angle_gamma	89.648405
loop_
_atom_site_label
_atom_site_type_symbol
_atom_site_fract_x
_atom_site_fract_y
_atom_site_fract_z
O1	O	1.672991	0.145513	-0.113481
O2	O	2.172991	0.645513	0.386519
O3	O	1.311352	0.159441	-0.113486
O4	O	1.811352	0.659441	0.386514
O5	O	1.484153	0.001517	-0.113475
O6	O	1.984153	0.501517	0.386525
O7	O	1.500190	0.303437	-0.113492
O8	O	2.000190	0.803437	0.386508
O9	O	1.484138	0.001517	0.113507
O10	O	1.984138	0.501517	0.613507
O11	O	1.311337	0.159441	0.113496
O12	O	1.811337	0.659441	0.613496
O13	O	1.672977	0.145512	0.113501
O14	O	2.172977	0.645512	0.613501
Zn15	Zn	1.492155	0.152477	0.149537
Zn16	Zn	1.992155	0.652477	0.649537
Zn17	Zn	1.492174	0.152477	-0.149522
Zn18	Zn	1.992174	0.652477	0.350478
O19	O	1.500176	0.303436	0.113490
O20	O	2.000176	0.803436	0.613490
C21	C	1.264735	0.158427	0.000004
C22	C	1.764735	0.658427	0.500004
C23	C	1.125851	0.155395	0.000003
C24	C	1.625851	0.655395	0.500003
C25	C	1.060466	0.243761	-0.000003
C26	C	1.560466	0.743761	0.499997
C27	C	0.916922	0.240629	-0.000004
C28	C	1.416922	0.740629	0.499996
C29	C	1.478728	-0.037142	0.000015
C30	C	1.978728	0.462858	0.500015
C31	C	1.462569	-0.152334	0.000012
C32	C	1.962569	0.347666	0.500012
C33	C	1.656825	-0.391911	-0.000014
C34	C	2.156825	0.108089	0.499986
C35	C	1.641648	-0.500145	-0.000016
C36	C	2.141648	-0.000145	0.499984
C37	C	1.417040	-0.477037	-0.000005
C38	C	1.917040	0.022963	0.499995
C39	C	1.432217	-0.368804	-0.000002
C40	C	1.932217	0.131196	0.499998
C41	C	1.552113	-0.326245	-0.000005
C42	C	2.052113	0.173755	0.499995
C43	C	1.567289	-0.218009	0.000008
C44	C	2.067289	0.281991	0.500008
C45	C	1.342681	-0.194904	0.000009
C46	C	1.842681	0.305096	0.500009
C47	C	1.327505	-0.303137	0.000007
C48	C	1.827505	0.196863	0.500007
C49	C	1.719594	0.146526	0.000007
C50	C	2.219594	0.646526	0.500007
C51	C	1.858478	0.149559	-0.000000
C52	C	2.358478	0.649559	0.500000
C53	C	1.505601	0.342096	-0.000003
C54	C	2.005601	0.842096	0.499997
C55	C	1.521760	0.457288	-0.000010
C56	C	2.021760	0.957288	0.499990
N57	N	1.492151	0.152476	0.353636
N58	N	1.992151	0.652476	0.853636
N59	N	1.492187	0.152470	-0.353622
N60	N	1.992187	0.652470	0.146378
C61	C	1.564674	0.085875	0.421418
C62	C	2.064674	0.585875	0.921418
C63	C	1.564693	0.085872	0.578581
C64	C	2.064693	0.585872	1.078581
H65	H	0.860706	0.316277	-0.000015
H66	H	1.360706	0.816277	0.499985
Br67	Br	1.730002	-0.160250	0.000019
Br68	Br	2.230002	0.339750	0.500019
H69	H	1.430071	0.209488	0.411957
H70	H	1.930071	0.709488	0.911957
H71	H	1.229888	-0.337804	0.000003
H72	H	1.729888	0.162196	0.500003
H73	H	0.914686	0.073907	-0.000004
H74	H	1.414686	0.573907	0.499996
H75	H	1.075561	0.077423	-0.000028
H76	H	1.575561	0.577423	0.499972
H77	H	1.626745	0.028855	0.363099
H78	H	2.126745	0.528855	0.863099
Br79	Br	1.668197	-0.009161	0.675725
Br80	Br	2.168197	0.490839	1.175725
H81	H	1.430099	0.209496	0.588098
H82	H	1.930099	0.709496	1.088098
Br83	Br	1.144273	0.373728	-0.000001
Br84	Br	1.644273	0.873728	0.499999
Br85	Br	1.200563	-0.105779	0.000046
Br86	Br	1.700563	0.394221	0.500046
H87	H	1.754449	-0.357259	-0.000002
H88	H	2.254449	0.142741	0.499998
Br89	Br	1.254337	-0.534815	-0.000051
Br90	Br	1.754337	-0.034815	0.499949
Br91	Br	1.783764	-0.589262	-0.000038
Br92	Br	2.283764	-0.089262	0.499962
