data_functionalizedCrystal
_audit_creation_method	'MofGen! by Chris Wilmer'
_symmetry_space_group_name_H-M	'P1'
_symmetry_Int_Tables_number	1
_symmetry_cell_setting	triclinic
loop_
_symmetry_equiv_pos_as_xyz
  x,y,z
_cell_length_a	14.446369
_cell_length_b	18.426585
_cell_length_c	18.426585
_cell_angle_alpha	90.001762
_cell_angle_beta	59.999749
_cell_angle_gamma	60.000047
loop_
_atom_site_label
_atom_site_type_symbol
_atom_site_fract_x
_atom_site_fract_y
_atom_site_fract_z
Zr1	Zr	1.013199	0.699147	-0.095252
O2	O	1.206318	0.583267	-0.211138
O3	O	0.820080	0.734670	-0.059721
O4	O	1.013191	0.734671	-0.211127
O5	O	1.013213	0.583266	0.059693
O6	O	1.013184	0.854102	-0.211124
O7	O	1.013207	0.583266	-0.059733
O8	O	0.667744	0.854100	0.059713
O9	O	1.358654	0.583268	-0.211144
O10	O	0.899508	0.838951	-0.044572
O11	O	0.899517	0.749821	0.044552
O12	O	1.126880	0.749822	-0.133708
O13	O	1.126890	0.660692	-0.044585
Zr14	Zr	1.013199	0.889626	0.095224
Zr15	Zr	1.013189	0.889626	-0.095246
Zr16	Zr	1.013209	0.699148	0.095219
Zr17	Zr	1.256157	0.699149	-0.095260
Zr18	Zr	0.770241	0.889625	0.095233
O19	O	1.206318	0.854104	0.059694
O20	O	1.206303	0.854103	-0.211131
O21	O	1.206333	0.583268	0.059686
O22	O	0.820080	1.005506	0.211111
O23	O	0.820065	1.005506	-0.059714
O24	O	0.820094	0.734670	0.211103
O25	O	1.013184	1.005507	-0.059721
O26	O	1.013207	0.854103	0.211100
O27	O	1.013213	0.734672	0.211096
O28	O	1.013191	1.005507	0.059705
O29	O	1.358646	0.734673	-0.211140
O30	O	0.667752	0.854100	0.211112
O31	O	0.667744	1.005505	0.211116
O32	O	0.667736	1.005505	0.059718
O33	O	1.358662	0.583268	-0.059745
O34	O	1.358654	0.734674	-0.059741
O35	O	0.899517	0.838951	0.133681
O36	O	0.899508	0.928081	0.044557
O37	O	1.126880	0.838952	-0.044580
O38	O	1.126890	0.749823	0.044544
C39	C	0.709295	0.794385	-0.000003
C40	C	0.606153	0.794384	0.000001
C41	C	1.013212	0.794387	0.238236
C42	C	1.013216	0.794387	0.319095
C43	C	1.013186	1.032646	-0.000007
C44	C	1.013182	1.113510	-0.000005
C45	C	0.459150	0.738439	0.056469
C46	C	0.566770	0.738135	0.056240
C47	C	0.655147	0.753376	-0.096852
C48	C	0.547914	0.752955	-0.096559
C49	C	0.372692	0.891376	0.039552
C50	C	0.478843	0.891234	0.041529
C51	C	1.317102	0.794389	-0.000025
C52	C	1.420244	0.794390	-0.000028
C53	C	1.013212	0.556127	-0.000021
C54	C	1.013216	0.475264	-0.000023
C55	C	1.013221	1.409593	-0.000026
C56	C	1.013215	1.327212	-0.000022
C57	C	1.013201	1.261554	-0.000015
C58	C	1.013196	1.179167	-0.000012
C59	C	1.013186	0.794386	-0.238263
C60	C	1.013182	0.794386	-0.319123
C61	C	1.013177	0.794389	0.615210
C62	C	1.013182	0.794391	0.532824
C63	C	1.013196	0.794389	0.467156
C64	C	1.013202	0.794389	0.384764
C65	C	0.709283	1.032644	0.000004
C66	C	0.606136	1.113507	0.000010
C67	C	0.709308	0.794385	0.238247
C68	C	0.606171	0.794385	0.319110
C69	C	0.709295	1.032645	0.238254
C70	C	0.606153	1.113507	0.319119
C71	C	1.317102	0.556129	-0.238281
C72	C	1.420244	0.475266	-0.319147
C73	C	1.317115	0.556129	-0.000032
C74	C	1.420261	0.475267	-0.000038
C75	C	1.317089	0.794388	-0.238274
C76	C	1.420227	0.794389	-0.319138
C77	C	0.557698	1.104955	-0.046519
C78	C	0.460794	1.180927	-0.046532
C79	C	0.412324	1.265449	-0.000009
C80	C	0.460772	1.273998	0.046522
C81	C	0.557681	1.198028	0.046529
C82	C	0.557736	0.840909	0.403617
C83	C	0.460841	0.840905	0.479604
C84	C	0.412375	0.794381	0.471082
C85	C	0.460819	0.747851	0.386567
C86	C	0.557720	0.747850	0.310582
C87	C	0.557712	1.198014	0.310573
C88	C	0.460812	1.274000	0.386548
C89	C	0.412350	1.265478	0.471068
C90	C	0.460801	1.180962	0.479612
C91	C	0.557705	1.104978	0.403638
C92	C	1.468698	0.390759	-0.310601
C93	C	1.565627	0.314773	-0.386575
C94	C	1.614095	0.323295	-0.471095
C95	C	1.565637	0.407811	-0.479640
C96	C	1.468716	0.483795	-0.403666
C97	C	1.468710	0.483818	0.046484
C98	C	1.565640	0.407846	0.046475
C99	C	1.614114	0.323325	-0.000051
C100	C	1.565661	0.314775	-0.046578
C101	C	1.468739	0.390746	-0.046574
C102	C	1.468662	0.840922	-0.310588
C103	C	1.565558	0.840940	-0.386560
C104	C	1.614024	0.794419	-0.471082
C105	C	1.565579	0.747884	-0.479630
C106	C	1.468678	0.747872	-0.403658
H107	H	0.530062	0.765642	0.127559
H108	H	0.333414	1.327302	-0.000020
N109	N	0.408543	1.365147	0.377317
H110	H	0.339800	1.411996	0.438266
H111	H	0.482554	1.372183	0.343703
N112	N	0.609921	1.207256	0.096717
H113	H	0.535973	1.240824	0.161802
H114	H	0.678686	1.146277	0.089595
H115	H	0.370284	0.765801	0.127965
H116	H	0.525941	0.791075	-0.140940
H117	H	1.429240	0.383803	-0.241787
H118	H	1.693034	0.261472	-0.000047
H119	H	1.605143	0.245947	-0.084458
N120	N	0.609920	1.013837	0.412874
H121	H	0.593038	0.980246	0.383435
H122	H	0.707187	0.980293	0.383440
N123	N	1.617864	0.223622	-0.377354
H124	H	1.715143	0.190019	-0.406790
H125	H	1.572346	0.229831	-0.312266
H126	H	0.683927	0.792170	-0.140766
N127	N	1.718531	0.794449	-0.553012
H128	H	1.798940	0.767979	-0.553039
H129	H	1.741788	0.757936	-0.607817
N130	N	0.609987	1.207211	0.219415
H131	H	0.593117	1.177768	0.185817
H132	H	0.564571	1.272296	0.225611
H133	H	0.439244	0.921870	0.112881
H134	H	0.597186	0.878795	0.410572
H135	H	0.421409	0.878799	0.548412
H136	H	0.346713	0.933259	-0.001402
N137	N	1.718630	0.241337	-0.553035
H138	H	1.741960	0.186512	-0.534788
H139	H	1.684831	0.241373	-0.589570
N140	N	1.416387	0.891104	-0.219428
H141	H	1.490323	0.866709	-0.212310
H142	H	1.376150	0.956179	-0.212366
N143	N	0.408490	1.365163	0.096698
H144	H	0.339746	1.411986	0.089630
H145	H	0.368342	1.372209	0.161763
H146	H	0.333473	0.794389	0.532962
H147	H	0.278948	0.925638	0.109773
N148	N	1.416442	0.574977	0.096662
H149	H	1.376247	0.582098	0.161747
H150	H	1.490443	0.582035	0.072175
H151	H	1.605112	0.414740	-0.548465
H152	H	1.429266	0.552603	-0.410635
N153	N	1.617901	0.417083	0.096648
H154	H	1.686673	0.356135	0.089579
H155	H	1.658010	0.450692	0.072205
H156	H	1.605055	0.710008	-0.548458
H157	H	1.429254	0.709976	-0.410632
H158	H	1.604991	0.878832	-0.379583
N159	N	0.408521	0.697686	0.377390
H160	H	0.368297	0.722097	0.343839
H161	H	0.482501	0.632607	0.343850
N162	N	0.609961	1.013799	-0.096700
H163	H	0.564563	1.019923	-0.126176
H164	H	0.707246	0.980249	-0.143472
H165	H	1.429295	0.383771	-0.084455
N166	N	0.777414	0.659740	-0.139125
H167	H	0.848263	0.660540	-0.141496
H168	H	0.757609	0.622066	-0.102744
N169	N	0.684411	0.643376	0.019890
H170	H	0.666482	0.601640	0.003946
H171	H	0.763112	0.635476	-0.034917
N172	N	0.601792	0.658419	-0.138492
H173	H	0.694842	0.617410	-0.156996
H174	H	0.546271	0.640891	-0.094081
H175	H	0.500341	0.936433	0.004659
H176	H	0.421359	1.173949	-0.084422
N177	N	0.610023	0.697614	0.219436
H178	H	0.564631	0.668128	0.225577
H179	H	0.593193	0.740287	0.185840
H180	H	0.494915	0.667321	0.029258
H181	H	0.333444	1.327357	0.532923
H182	H	0.421328	1.174036	0.548439
