data_functionalizedCrystal
_audit_creation_method	'MofGen! by Chris Wilmer'
_symmetry_space_group_name_H-M	'P1'
_symmetry_Int_Tables_number	1
_symmetry_cell_setting	triclinic
loop_
_symmetry_equiv_pos_as_xyz
  x,y,z
_cell_length_a	12.759401
_cell_length_b	12.759400
_cell_length_c	12.759393
_cell_angle_alpha	90.029373
_cell_angle_beta	90.019802
_cell_angle_gamma	90.012251
loop_
_atom_site_label
_atom_site_type_symbol
_atom_site_fract_x
_atom_site_fract_y
_atom_site_fract_z
Zn1	Zn	1.606278	-0.418241	0.593996
Zn2	Zn	1.606173	-0.593957	0.418320
Zn3	Zn	1.430576	-0.418290	0.418335
Zn4	Zn	1.430573	-0.593876	0.593961
O5	O	1.518400	-0.506091	0.506153
O6	O	1.753285	-0.441564	0.570701
O7	O	1.582838	-0.570708	0.271301
O8	O	1.453928	-0.271262	0.441658
O9	O	1.753208	-0.570661	0.441633
O10	O	1.583015	-0.271226	0.570716
O11	O	1.453827	-0.441646	0.271312
O12	O	1.283555	-0.441568	0.441624
O13	O	1.453923	-0.570523	0.740987
O14	O	1.283552	-0.570570	0.570655
O15	O	1.583012	-0.441485	0.741013
O16	O	1.582835	-0.740967	0.441598
O17	O	1.453822	-0.740908	0.570640
C18	C	1.245433	-0.506066	0.506138
C19	C	1.128656	-0.506081	0.506156
C20	C	0.964097	-0.439006	0.573473
C21	C	1.073821	-0.438985	0.573466
C22	C	1.073761	-0.573210	0.438856
C23	C	0.964039	-0.573235	0.438869
C24	C	1.518345	-0.779058	0.506136
C25	C	1.518417	-0.895835	0.506165
C26	C	1.585599	-0.950599	0.573420
C27	C	1.585648	-1.060323	0.573445
C28	C	1.451330	-1.060509	0.438951
C29	C	1.451277	-0.950787	0.438932
C30	C	1.652740	-0.895646	0.640653
C31	C	1.719928	-0.950410	0.707913
C32	C	1.719977	-1.060134	0.707938
C33	C	1.652838	-1.115094	0.640704
C34	C	1.792433	-0.506116	0.506169
C35	C	1.909210	-0.506127	0.506176
C36	C	1.518479	-0.505990	0.780187
C37	C	1.518512	-0.505947	0.896963
C38	C	1.518484	-0.232057	0.506193
C39	C	1.518520	-0.115281	0.506210
C40	C	1.518382	-0.506115	0.233186
C41	C	1.518552	-0.505862	0.116410
C42	C	1.585734	-0.438746	0.951841
C43	C	1.585752	-0.438701	1.061565
C44	C	1.451323	-0.573066	1.061525
C45	C	1.451301	-0.573105	0.951802
H46	H	1.118416	-0.627844	0.384055
N47	N	1.378785	-0.645596	0.892622
H48	H	1.421449	-0.694308	0.847093
H49	H	1.330113	-0.602835	0.847163
N50	N	0.904952	-0.366643	0.646074
H51	H	0.859409	-0.317914	0.603466
H52	H	0.956439	-0.324190	0.688694
N53	N	1.378831	-0.891705	0.366387
H54	H	1.330102	-0.846185	0.409036
H55	H	1.336381	-0.943226	0.323803
H56	H	1.396604	-0.627747	1.106188
H57	H	1.774585	-0.905656	0.762659
H58	H	1.652710	-0.806303	0.640637
H59	H	1.640459	-0.384058	0.907194
N60	N	0.904823	-0.645630	0.366282
H61	H	0.923925	-0.720712	0.382467
H62	H	0.923901	-0.629130	0.291269
H63	H	1.118506	-0.384330	0.628267
N64	N	1.792406	-1.119204	0.780511
H65	H	1.834919	-1.067739	0.823105
H66	H	1.841076	-1.164741	0.737820
H67	H	1.652871	-1.204439	0.640742
H68	H	1.396669	-1.105267	0.384212
H69	H	1.640489	-0.383977	1.106241
