data_functionalizedCrystal
_audit_creation_method	'MofGen! by Chris Wilmer'
_symmetry_space_group_name_H-M	'P1'
_symmetry_Int_Tables_number	1
_symmetry_cell_setting	triclinic
loop_
_symmetry_equiv_pos_as_xyz
  x,y,z
_cell_length_a	6.817900
_cell_length_b	10.943925
_cell_length_c	23.753023
_cell_angle_alpha	95.047895
_cell_angle_beta	100.067528
_cell_angle_gamma	108.844289
loop_
_atom_site_label
_atom_site_type_symbol
_atom_site_fract_x
_atom_site_fract_y
_atom_site_fract_z
V1	V	-4.016395	-0.180263	-0.178380
O2	O	-3.975949	0.006985	-0.174993
O3	O	-3.995064	-0.355818	-0.177153
O4	O	-3.951119	-0.178226	-0.256182
O5	O	-4.020198	-0.171836	-0.095417
V6	V	-4.498703	-0.157779	-0.168458
O7	O	-4.280320	-0.229584	-0.200145
O8	O	-4.684975	-0.108459	-0.146693
O9	O	-4.296828	0.017776	-0.169686
O10	O	-4.656546	-0.345027	-0.171846
O11	O	-4.612297	-0.166206	-0.251422
O12	O	-4.340773	-0.159816	-0.090657
C13	C	-3.847196	-0.398591	-0.174337
C14	C	-3.910929	-0.542115	-0.173851
C15	C	-4.176958	-0.718870	-0.176258
C16	C	-4.014631	-0.612426	-0.127665
C17	C	-4.072445	-0.646645	-0.222430
C18	C	-3.862031	-0.691368	-0.124350
C19	C	-3.919901	-0.725612	-0.219158
C20	C	-3.757445	-0.619197	-0.170551
C21	C	-3.791138	-0.172054	-0.275145
C22	C	-3.819230	-0.171550	-0.338748
C23	C	-4.050285	-0.286892	-0.741334
C24	C	-4.076718	-0.286439	-0.801097
O25	O	-4.138578	-0.386821	-0.838953
N26	N	-4.033341	-0.167900	-0.822820
C27	C	-3.963547	-0.049807	-0.784777
O28	O	-3.929080	0.051061	-0.808742
C29	C	-3.937129	-0.050262	-0.725014
C30	C	-3.980491	-0.168808	-0.703295
C31	C	-4.093644	-0.405428	-0.719613
C32	C	-4.067209	-0.405880	-0.659854
C33	C	-3.997414	-0.287797	-0.621815
C34	C	-3.954055	-0.169260	-0.643535
C35	C	-3.867350	0.067829	-0.686972
C36	C	-3.840937	0.067363	-0.627207
C37	C	-3.884299	-0.051182	-0.605487
C38	C	-3.857826	-0.051629	-0.545737
N39	N	-3.901203	-0.170168	-0.524014
C40	C	-3.970997	-0.288252	-0.562053
C41	C	-4.019033	-0.048861	-0.910282
C42	C	-4.045435	-0.048404	-0.970042
C43	C	-4.158608	-0.285036	-0.986359
C44	C	-4.132191	-0.285491	-0.926597
C45	C	-4.062410	-0.167400	-0.888558
C46	C	-3.915475	-0.289193	-0.436553
C47	C	-3.889024	-0.289634	-0.376787
C48	C	-3.775864	-0.053003	-0.360476
C49	C	-3.802302	-0.052561	-0.420236
C50	C	-3.872118	-0.170666	-0.458274
O51	O	-3.795981	0.048701	-0.507847
O52	O	-4.005478	-0.389104	-0.538080
C53	C	-4.108039	0.060543	-0.172500
C54	C	-4.023543	0.204064	-0.172989
C55	C	-4.164097	-0.165992	-0.071690
C56	C	-4.115243	-0.166489	-0.008087
H57	H	-3.880597	-0.774912	-0.257839
H58	H	-3.784119	0.163530	-0.596238
N59	N	-4.183232	-0.621196	-0.274451
N60	N	-4.081891	-0.561830	-0.308734
H61	H	-4.160145	-0.543878	-0.345478
H62	H	-3.924333	-0.386172	-0.359107
H63	H	-4.010096	0.048128	-0.987720
N64	N	-4.229888	-0.405648	-1.025229
N65	N	-4.253459	-0.405211	-1.078585
H66	H	-4.303790	-0.490387	-1.106039
N67	N	-3.986797	-0.409844	-0.475393
N68	N	-4.025494	-0.515663	-0.455982
H69	H	-4.075856	-0.600874	-0.483413
H70	H	-3.579474	-0.575889	-0.168126
N71	N	-4.111866	-0.526997	-0.637687
N72	N	-4.174421	-0.632419	-0.671670
H73	H	-4.206104	-0.717970	-0.656022
H74	H	-4.354857	-0.762386	-0.178606
N75	N	-4.176379	-0.406531	-0.904372
N76	N	-4.033067	-0.428088	-0.870587
H77	H	-4.064244	-0.513562	-0.854881
H78	H	-4.150483	-0.501592	-0.750580
N79	N	-3.757951	0.068541	-0.442416
N80	N	-3.695610	0.173964	-0.408442
H81	H	-3.664293	0.259496	-0.424103
H82	H	-3.962193	0.047310	-0.879313
H83	H	-4.054018	-0.563156	-0.088986
H84	H	-3.773676	-0.711526	-0.082855
N85	N	-3.823042	0.188934	-0.709139
N86	N	-3.760746	0.294345	-0.675158
H87	H	-3.729454	0.379884	-0.690812
N88	N	-3.704559	0.067600	-0.321606
N89	N	-3.680979	0.067163	-0.268250
H90	H	-3.630630	0.152339	-0.240795
