data_functionalizedCrystal
_audit_creation_method	'MofGen! by Chris Wilmer'
_symmetry_space_group_name_H-M	'P1'
_symmetry_Int_Tables_number	1
_symmetry_cell_setting	triclinic
loop_
_symmetry_equiv_pos_as_xyz
  x,y,z
_cell_length_a	14.971486
_cell_length_b	18.266242
_cell_length_c	14.971486
_cell_angle_alpha	90.006550
_cell_angle_beta	83.614129
_cell_angle_gamma	90.004077
loop_
_atom_site_label
_atom_site_type_symbol
_atom_site_fract_x
_atom_site_fract_y
_atom_site_fract_z
O1	O	1.186950	0.060797	0.116564
O2	O	1.686950	0.560797	0.616564
O3	O	0.926550	0.060817	0.130523
O4	O	1.426550	0.560817	0.630523
O5	O	1.063730	0.060801	-0.006657
O6	O	1.563730	0.560801	0.493343
O7	O	1.049771	0.060813	0.253744
O8	O	1.549771	0.560813	0.753744
O9	O	1.063706	-0.060961	-0.006664
O10	O	1.563706	0.439039	0.493336
O11	O	0.926527	-0.060945	0.130516
O12	O	1.426527	0.439055	0.630516
O13	O	1.186927	-0.060965	0.116557
O14	O	1.686927	0.439035	0.616557
Zn15	Zn	1.056723	-0.080287	0.123535
Zn16	Zn	1.556723	0.419713	0.623535
Zn17	Zn	1.056754	0.080139	0.123545
Zn18	Zn	1.556754	0.580139	0.623545
O19	O	1.049748	-0.060949	0.253736
O20	O	1.549748	0.439051	0.753736
C21	C	0.893214	-0.000061	0.129895
C22	C	1.393214	0.499939	0.629895
C23	C	0.793917	-0.000054	0.128024
C24	C	1.293917	0.499946	0.628024
C25	C	0.736691	-0.000051	0.208614
C26	C	1.236691	0.499949	0.708614
C27	C	0.643392	-0.000062	0.206850
C28	C	1.143392	0.499938	0.706850
C29	C	0.607320	-0.000071	0.124497
C30	C	1.107320	0.499929	0.624497
C31	C	0.664552	-0.000075	0.043902
C32	C	1.164552	0.499925	0.543902
C33	C	0.757850	-0.000070	0.045666
C34	C	1.257850	0.499930	0.545666
C35	C	0.470090	-0.000086	0.040231
C36	C	0.970090	0.499914	0.540231
C37	C	0.376786	-0.000090	0.038466
C38	C	0.876786	0.499910	0.538466
C39	C	0.355632	-0.000078	0.201415
C40	C	0.855632	0.499922	0.701415
C41	C	0.448930	-0.000073	0.203179
C42	C	0.948930	0.499927	0.703179
C43	C	0.506156	-0.000076	0.122584
C44	C	1.006156	0.499924	0.622584
N45	N	1.056709	-0.189774	0.123528
N46	N	1.556709	0.310226	0.623528
C47	C	1.117472	-0.228090	0.062815
C48	C	1.617472	0.271910	0.562815
C49	C	1.117478	-0.304735	0.062811
C50	C	1.617478	0.195265	0.562811
C51	C	1.056729	-0.343061	0.123535
C52	C	1.556729	0.156939	0.623535
C53	C	0.995954	-0.304736	0.184253
C54	C	1.495954	0.195264	0.684253
C55	C	0.995944	-0.228093	0.184250
C56	C	1.495944	0.271907	0.684250
N57	N	1.045429	-0.463389	0.202669
N58	N	1.545429	0.036611	0.702669
N59	N	1.045443	-0.536197	0.202670
N60	N	1.545443	-0.036197	0.702670
C61	C	1.056754	-0.573983	0.123549
C62	C	1.556754	-0.073983	0.623549
N63	N	1.068067	-0.536211	0.044424
N64	N	1.568067	-0.036211	0.544424
N65	N	1.068056	-0.463396	0.044424
N66	N	1.568056	0.036604	0.544424
C67	C	1.056733	-0.426168	0.123546
C68	C	1.556733	0.073832	0.623546
C69	C	1.117527	-0.695406	0.062826
C70	C	1.617527	-0.195406	0.562826
C71	C	1.117526	-0.772053	0.062820
C72	C	1.617526	-0.272053	0.562820
C73	C	0.996007	-0.772052	0.184270
C74	C	1.496007	-0.272052	0.684270
C75	C	0.996003	-0.695408	0.184268
C76	C	1.496003	-0.195408	0.684268
C77	C	1.056768	-0.657089	0.123547
C78	C	1.556768	-0.157089	0.623547
C79	C	1.220263	-0.000085	0.117185
C80	C	1.720263	0.499915	0.617185
C81	C	1.319561	-0.000087	0.119056
C82	C	1.819561	0.499913	0.619056
C83	C	1.063094	-0.000079	-0.039985
C84	C	1.563094	0.499921	0.460015
C85	C	1.061223	-0.000079	-0.139282
C86	C	1.561223	0.499921	0.360718
N87	N	1.056776	0.189626	0.123544
N88	N	1.556776	0.689626	0.623544
C89	C	1.141812	-0.000085	-0.196507
C90	C	1.641812	0.499915	0.303493
C91	C	1.140049	-0.000078	-0.289807
C92	C	1.640049	0.499922	0.210193
C93	C	1.057696	-0.000069	-0.325879
C94	C	1.557696	0.499931	0.174121
C95	C	0.977101	-0.000060	-0.268646
C96	C	1.477101	0.499940	0.231354
C97	C	0.978865	-0.000062	-0.175349
C98	C	1.478865	0.499938	0.324651
C99	C	0.973430	-0.000057	-0.463109
C100	C	1.473430	0.499943	0.036891
C101	C	0.971665	-0.000056	-0.556413
C102	C	1.471665	0.499944	-0.056413
C103	C	1.134614	-0.000073	-0.577567
C104	C	1.634614	0.499927	-0.077567
C105	C	1.136378	-0.000075	-0.484269
C106	C	1.636378	0.499925	0.015731
C107	C	1.055782	-0.000067	-0.427043
C108	C	1.555782	0.499933	0.072957
C109	C	1.050384	-0.000067	0.287065
C110	C	1.550384	0.499933	0.787065
C111	C	1.052254	-0.000063	0.386362
C112	C	1.552254	0.499937	0.886362
H113	H	0.516682	-0.000089	-0.025399
H114	H	1.016682	0.499911	0.474601
H115	H	1.167004	-0.803250	0.013376
H116	H	1.667004	-0.303250	0.513376
F117	F	0.626159	-0.000089	-0.043745
F118	F	1.126159	0.499911	0.456255
F119	F	0.887650	-0.000047	-0.402206
F120	F	1.387650	0.499953	0.097794
F121	F	1.224028	-0.000083	-0.445880
F122	F	1.724028	0.499917	0.054120
F123	F	1.182139	-0.187310	-0.001812
F124	F	1.682139	0.312690	0.498188
F125	F	0.931348	-0.812838	0.248892
F126	F	1.431348	-0.312838	0.748892
H127	H	1.200238	-0.000076	-0.624165
H128	H	1.700238	0.499924	-0.124165
H129	H	1.166960	-0.335937	0.013369
H130	H	1.666960	0.164063	0.513369
F131	F	0.931298	-0.345526	0.248878
F132	F	1.431298	0.154474	0.748878
H133	H	0.804443	-0.000071	-0.019958
H134	H	1.304443	0.499929	0.480042
F135	F	0.884016	-0.000047	-0.594802
F136	F	1.384016	0.499953	-0.094802
H137	H	0.596802	-0.000059	0.272474
H138	H	1.096802	0.499941	0.772474
H139	H	0.946463	-0.196895	0.233691
H140	H	1.446463	0.303105	0.733691
H141	H	1.167002	-0.664206	0.013380
H142	H	1.667002	-0.164206	0.513380
F143	F	0.931335	-0.654626	0.248891
F144	F	1.431335	-0.154626	0.748891
F145	F	1.229465	-0.000102	-0.158125
F146	F	1.729465	0.499898	0.341875
F147	F	1.225824	-0.000086	-0.350707
F148	F	1.725824	0.499914	0.149293
F149	F	0.889454	-0.000042	-0.307040
F150	F	1.389454	0.499958	0.192960
F151	F	0.893090	-0.000053	-0.114445
F152	F	1.393090	0.499947	0.385555
H153	H	0.478296	-0.000059	0.270239
H154	H	0.978296	0.499941	0.770239
F155	F	0.775073	-0.000038	0.296267
F156	F	1.275073	0.499962	0.796267
H157	H	0.347419	-0.000098	-0.028593
H158	H	0.847419	0.499902	0.471407
F159	F	0.294727	-0.000076	0.287192
F160	F	0.794727	0.499924	0.787192
