data_functionalizedCrystal
_audit_creation_method	'MofGen! by Chris Wilmer'
_symmetry_space_group_name_H-M	'P1'
_symmetry_Int_Tables_number	1
_symmetry_cell_setting	triclinic
loop_
_symmetry_equiv_pos_as_xyz
  x,y,z
_cell_length_a	12.759401
_cell_length_b	19.121063
_cell_length_c	12.759393
_cell_angle_alpha	87.595965
_cell_angle_beta	90.020938
_cell_angle_gamma	92.470439
loop_
_atom_site_label
_atom_site_type_symbol
_atom_site_fract_x
_atom_site_fract_y
_atom_site_fract_z
Zn1	Zn	1.588334	-0.279551	0.611809
Zn2	Zn	1.580690	-0.397017	0.443603
Zn3	Zn	1.412630	-0.279588	0.436146
Zn4	Zn	1.405092	-0.396968	0.619238
O5	O	1.496686	-0.338281	0.527699
O6	O	1.734340	-0.295138	0.589508
O7	O	1.558352	-0.381476	0.295595
O8	O	1.442291	-0.181299	0.453218
O9	O	1.728724	-0.381440	0.465928
O10	O	1.571380	-0.181271	0.582277
O11	O	1.434879	-0.295201	0.290117
O12	O	1.264609	-0.295154	0.460422
O13	O	1.429444	-0.381356	0.765271
O14	O	1.259071	-0.381393	0.594938
O15	O	1.564071	-0.295090	0.759813
O16	O	1.551042	-0.495295	0.473132
O17	O	1.422032	-0.495259	0.602169
C18	C	1.223720	-0.338272	0.527678
C19	C	1.106942	-0.338286	0.527694
C20	C	1.049220	-0.383259	0.597636
C21	C	0.939495	-0.383261	0.597657
C22	C	0.945226	-0.293316	0.457786
C23	C	1.054948	-0.293311	0.457771
C24	C	1.484918	-0.520761	0.539289
C25	C	1.479980	-0.598827	0.544282
C26	C	1.544881	-0.635498	0.479500
C27	C	1.540243	-0.708849	0.484203
C28	C	1.470697	-0.745528	0.553682
C29	C	1.405794	-0.708852	0.618471
C30	C	1.410438	-0.635502	0.613773
C31	C	1.453316	-0.966997	0.571229
C32	C	1.448675	-1.040352	0.575920
C33	C	1.583126	-1.040344	0.441653
C34	C	1.587759	-0.966993	0.436957
C35	C	1.522860	-0.930323	0.501749
C36	C	1.465952	-0.820504	0.558488
C37	C	1.527611	-0.855348	0.496948
C38	C	1.770719	-0.338290	0.527721
C39	C	1.887495	-0.338294	0.527731
C40	C	1.496769	-0.338214	0.801728
C41	C	1.496805	-0.338185	0.918503
C42	C	1.508529	-0.155088	0.516087
C43	C	1.513576	-0.077023	0.511139
C44	C	1.496667	-0.338298	0.254733
C45	C	1.496848	-0.338128	0.137946
C46	C	1.566910	-0.293259	0.970524
C47	C	1.566930	-0.293229	1.080246
C48	C	1.426735	-0.383056	1.085917
C49	C	1.426711	-0.383083	0.976196
H50	H	1.091550	-0.419879	0.654575
O51	O	1.646213	-1.075857	0.378619
C52	C	1.780114	-1.068107	0.245004
C53	C	1.708702	-1.027802	0.316313
H54	H	1.830670	-1.029272	0.194627
H55	H	1.729786	-1.102485	0.192154
H56	H	1.832806	-1.102408	0.295505
H57	H	1.655997	-0.993462	0.265894
H58	H	1.759092	-0.993468	0.369169
H59	H	0.892502	-0.419882	0.654611
H60	H	1.593091	-0.738703	0.431450
O61	O	1.612289	-0.599839	0.411893
C62	C	1.631743	-0.517063	0.264798
C63	C	1.555282	-0.557413	0.341278
H64	H	1.585686	-0.482740	0.207702
H65	H	1.677319	-0.555844	0.219228
H66	H	1.688850	-0.482697	0.310904
H67	H	1.498112	-0.591780	0.295254
H68	H	1.509783	-0.518594	0.386850
H69	H	1.623982	-0.256698	0.923553
O70	O	1.381095	-1.075874	0.643516
C71	C	1.248198	-1.068146	0.776166
C72	C	1.324695	-1.027830	0.699686
H73	H	1.202563	-1.029320	0.821584
H74	H	1.294194	-1.102412	0.833399
H75	H	1.191150	-1.102562	0.730072
H76	H	1.381760	-0.993376	0.745692
H77	H	1.278631	-0.993608	0.642452
H78	H	0.902879	-0.256700	0.400855
O79	O	1.634928	-0.249608	1.130943
C80	C	1.697130	-0.209775	1.297459
C81	C	1.620052	-0.259204	1.240179
H82	H	1.685145	-0.217526	1.385786
H83	H	1.682336	-0.153132	1.272363
H84	H	1.781035	-0.222109	1.276623
H85	H	1.536119	-0.246933	1.260986
H86	H	1.634938	-0.315832	1.265279
H87	H	1.369670	-0.419612	1.132904
O88	O	1.110866	-0.249599	0.389724
C89	C	1.104982	-0.160357	0.251035
C90	C	1.041527	-0.209834	0.328017
H91	H	1.048950	-0.128183	0.201141
H92	H	1.154224	-0.192522	0.197988
H93	H	1.158766	-0.123700	0.297048
H94	H	0.987686	-0.246500	0.282090
H95	H	0.992355	-0.177625	0.381065
H96	H	1.644389	-0.937130	0.380382
H97	H	1.400470	-0.937146	0.623984
O98	O	1.358714	-0.426828	0.925709
C99	C	1.299938	-0.546300	0.899735
C100	C	1.377019	-0.496845	0.956964
H101	H	1.314695	-0.602918	0.925000
H102	H	1.311961	-0.538665	0.811397
H103	H	1.216033	-0.533922	0.920496
H104	H	1.460954	-0.509193	0.936290
H105	H	1.364904	-0.504490	1.045289
O106	O	1.338263	-0.744588	0.685871
C107	C	1.271559	-0.857588	0.752654
C108	C	1.348072	-0.817207	0.676260
H109	H	1.279479	-0.916307	0.744924
H110	H	1.187736	-0.843274	0.733210
H111	H	1.290872	-0.843069	0.836445
H112	H	1.328855	-0.831703	0.592442
H113	H	1.431872	-0.831524	0.695794
H114	H	1.357590	-0.605645	0.666526
H115	H	1.409326	-0.850376	0.615056
O116	O	1.595015	-0.819690	0.429343
C117	C	1.614442	-0.736902	0.282260
C118	C	1.537994	-0.777262	0.358743
H119	H	1.568373	-0.702578	0.225175
H120	H	1.660018	-0.775676	0.236677
H121	H	1.671548	-0.702535	0.328366
H122	H	1.480824	-0.811629	0.312719
H123	H	1.492495	-0.738450	0.404327
