data_functionalizedCrystal
_audit_creation_method	'MofGen! by Chris Wilmer'
_symmetry_space_group_name_H-M	'P1'
_symmetry_Int_Tables_number	1
_symmetry_cell_setting	triclinic
loop_
_symmetry_equiv_pos_as_xyz
  x,y,z
_cell_length_a	10.908878
_cell_length_b	16.109301
_cell_length_c	14.586319
_cell_angle_alpha	89.994786
_cell_angle_beta	89.996700
_cell_angle_gamma	71.773136
loop_
_atom_site_label
_atom_site_type_symbol
_atom_site_fract_x
_atom_site_fract_y
_atom_site_fract_z
O1	O	1.703906	-0.128420	-0.076218
O2	O	2.203906	0.371580	0.423782
O3	O	1.330015	-0.063492	-0.076226
O4	O	1.830015	0.436508	0.423774
O5	O	1.527232	-0.218405	-0.076213
O6	O	2.027232	0.281595	0.423787
O7	O	1.506690	0.026493	-0.076232
O8	O	2.006690	0.526493	0.423768
O9	O	1.527218	-0.218405	0.076268
O10	O	2.027218	0.281595	0.576268
O11	O	1.330001	-0.063492	0.076255
O12	O	1.830001	0.436508	0.576255
O13	O	1.703893	-0.128420	0.076262
O14	O	2.203893	0.371580	0.576262
Cu15	Cu	1.516946	-0.095956	0.090181
Cu16	Cu	2.016946	0.404044	0.590181
Cu17	Cu	1.516962	-0.095956	-0.090145
Cu18	Cu	2.016962	0.404044	0.409855
O19	O	1.506676	0.026493	0.076249
O20	O	2.006676	0.526493	0.576249
C21	C	1.526393	-0.249265	0.000028
C22	C	2.026393	0.250735	0.500028
C23	C	1.523898	-0.341216	0.000029
C24	C	2.023898	0.158784	0.500029
C25	C	1.282164	-0.057424	0.000014
C26	C	1.782164	0.442576	0.500014
C27	C	1.139604	-0.039353	0.000011
C28	C	1.639604	0.460647	0.500011
C29	C	1.635122	-0.578847	0.000017
C30	C	2.135122	-0.078847	0.500017
C31	C	1.632768	-0.665242	0.000010
C32	C	2.132768	-0.165242	0.500010
C33	C	1.398777	-0.613057	0.000008
C34	C	1.898777	-0.113057	0.500008
C35	C	1.401132	-0.526664	0.000009
C36	C	1.901132	-0.026664	0.500009
C37	C	1.519309	-0.509562	0.000019
C38	C	2.019309	-0.009562	0.500019
C39	C	1.514599	-0.682351	0.000010
C40	C	2.014599	-0.182351	0.500010
C41	C	1.512046	-0.776024	0.000002
C42	C	2.012046	-0.276024	0.500002
C43	C	1.521863	-0.415882	0.000025
C44	C	2.021863	0.084118	0.500025
C45	C	1.090623	-0.105289	0.000016
C46	C	1.590623	0.394711	0.500016
C47	C	0.943280	-0.086614	0.000013
C48	C	1.443280	0.413386	0.500013
C49	C	1.751744	-0.134488	0.000021
C50	C	2.251744	0.365512	0.500021
C51	C	1.894304	-0.152559	0.000018
C52	C	2.394304	0.347441	0.500018
C53	C	1.507515	0.057353	0.000006
C54	C	2.007515	0.557353	0.500006
C55	C	1.510010	0.149304	-0.000001
C56	C	2.010010	0.649304	0.499999
N57	N	1.516944	-0.095958	0.217013
N58	N	2.016944	0.404042	0.717013
N59	N	1.516974	-0.095962	-0.216977
N60	N	2.016974	0.404038	0.283023
C61	C	1.604300	-0.164539	0.452025
C62	C	2.104300	0.335461	0.952025
C63	C	1.604304	-0.164541	0.548007
C64	C	2.104304	0.335459	1.048007
C65	C	1.429608	-0.027378	0.548004
C66	C	1.929608	0.472622	1.048004
C67	C	1.429600	-0.027379	0.452025
C68	C	1.929600	0.472621	0.952025
C69	C	1.516953	-0.095960	0.404038
C70	C	2.016953	0.404040	0.904038
C71	C	1.516965	-0.095961	0.595999
C72	C	2.016965	0.404039	1.095999
C73	C	1.516969	-0.095963	0.700066
C74	C	2.016969	0.404037	1.200066
C75	C	1.516948	-0.095958	0.299964
C76	C	2.016948	0.404042	0.799964
H77	H	1.731349	-0.564927	0.000023
H78	H	2.231349	-0.064927	0.500023
H79	H	1.358465	0.028468	0.412951
H80	H	1.858465	0.528468	0.912951
H81	H	1.675427	-0.220382	0.412957
H82	H	2.175427	0.279618	0.912957
H83	H	1.157771	-0.175565	0.000017
H84	H	1.657771	0.324435	0.500017
C85	C	1.048905	0.055585	0.000003
C86	C	1.548905	0.555585	0.500003
H87	H	0.961772	0.055682	0.000009
H88	H	1.461772	0.555682	0.500009
H89	H	1.064494	0.084823	-0.053170
H90	H	1.564494	0.584823	0.446830
H91	H	1.064483	0.084818	0.053183
H92	H	1.564483	0.584818	0.553183
C93	C	1.760163	-0.741453	0.000014
C94	C	2.260163	-0.241453	0.500014
H95	H	1.830876	-0.718890	0.000026
H96	H	2.330876	-0.218890	0.500026
H97	H	1.764117	-0.776237	-0.053160
H98	H	2.264117	-0.276237	0.446840
H99	H	1.764100	-0.776243	0.053194
H100	H	2.264100	-0.276243	0.553194
C101	C	1.268794	-0.631874	0.000011
C102	C	1.768794	-0.131874	0.500011
H103	H	1.283976	-0.693250	0.000021
H104	H	1.783976	-0.193250	0.500021
H105	H	1.221105	-0.606991	-0.053160
H106	H	1.721105	-0.106991	0.446840
H107	H	1.221115	-0.606998	0.053194
H108	H	1.721115	-0.106998	0.553194
C109	C	1.700391	-0.239976	0.600789
C110	C	2.200391	0.260024	1.100789
H111	H	1.752416	-0.280814	0.558461
H112	H	2.252416	0.219186	1.058461
H113	H	1.654222	-0.268221	0.638239
H114	H	2.154222	0.231779	1.138239
H115	H	1.753838	-0.217431	0.638222
H116	H	2.253838	0.282569	1.138222
H117	H	0.961446	-0.222840	0.000017
H118	H	1.461446	0.277160	0.500017
H119	H	0.876136	-0.016333	0.000003
H120	H	1.376136	0.483667	0.500003
H121	H	1.306817	-0.470246	0.000008
H122	H	1.806817	0.029754	0.500008
C123	C	1.333540	0.048061	0.600793
C124	C	1.833540	0.548061	1.100793
H125	H	1.346063	0.038246	0.664828
H126	H	1.846063	0.538246	1.164828
H127	H	1.247838	0.050854	0.585074
H128	H	1.747838	0.550854	1.085074
H129	H	1.347473	0.101629	0.585051
H130	H	1.847473	0.601629	1.085051
