data_functionalizedCrystal
_audit_creation_method	'MofGen! by Chris Wilmer'
_symmetry_space_group_name_H-M	'P1'
_symmetry_Int_Tables_number	1
_symmetry_cell_setting	triclinic
loop_
_symmetry_equiv_pos_as_xyz
  x,y,z
_cell_length_a	12.645323
_cell_length_b	12.759395
_cell_length_c	12.759394
_cell_angle_alpha	90.015393
_cell_angle_beta	89.974577
_cell_angle_gamma	89.979903
loop_
_atom_site_label
_atom_site_type_symbol
_atom_site_fract_x
_atom_site_fract_y
_atom_site_fract_z
Zn1	Zn	-0.599369	1.606271	-0.418215
Zn2	Zn	-0.422108	1.606165	-0.593918
Zn3	Zn	-0.422122	1.430570	-0.418258
Zn4	Zn	-0.599331	1.430564	-0.593857
O5	O	-0.510732	1.518392	-0.506062
O6	O	-0.575865	1.753278	-0.441530
O7	O	-0.273762	1.582830	-0.570660
O8	O	-0.445656	1.453924	-0.271232
O9	O	-0.445632	1.753200	-0.570618
O10	O	-0.575879	1.583010	-0.271200
O11	O	-0.273772	1.453822	-0.441604
O12	O	-0.445619	1.283548	-0.441545
O13	O	-0.747683	1.453913	-0.570514
O14	O	-0.575814	1.283543	-0.570557
O15	O	-0.747712	1.583004	-0.441471
O16	O	-0.445595	1.582824	-0.740931
O17	O	-0.575800	1.453811	-0.740887
C18	C	-0.510714	1.245425	-0.506049
C19	C	-0.510731	1.128648	-0.506069
C20	C	-0.646084	1.128682	-0.640627
C21	C	-0.713764	1.073838	-0.707913
C22	C	-0.713777	0.964116	-0.707926
C23	C	-0.646105	0.909236	-0.640643
C24	C	-0.578426	0.964080	-0.573356
C25	C	-0.578418	1.073804	-0.573353
C26	C	-0.443080	0.964046	-0.438795
C27	C	-0.443060	1.073768	-0.438786
C28	C	-0.375409	0.909166	-0.371511
C29	C	-0.307722	0.964010	-0.304228
C30	C	-0.307711	1.073738	-0.304219
C31	C	-0.375381	1.128612	-0.371499
C32	C	-0.787238	1.518470	-0.505981
C33	C	-0.905068	1.518503	-0.505946
C34	C	-1.072614	1.437041	-0.586745
C35	C	-0.950054	1.437254	-0.587145
C36	C	-0.949583	1.629206	-0.535991
C37	C	-1.072181	1.628759	-0.536498
C38	C	-1.072268	1.490308	-0.394651
C39	C	-0.949662	1.487838	-0.395318
C40	C	-0.235303	1.518376	-0.506067
C41	C	-0.117473	1.518546	-0.505806
C42	C	-0.510715	1.518334	-0.779030
C43	C	-0.510743	1.518405	-0.895806
C44	C	-0.510751	1.792426	-0.506076
C45	C	-0.510759	1.909202	-0.506082
C46	C	-0.646446	1.652722	-0.895615
C47	C	-0.714305	1.719914	-0.950380
C48	C	-0.714328	1.719976	-1.060102
C49	C	-0.646487	1.652838	-1.115061
C50	C	-0.578627	1.585646	-1.060296
C51	C	-0.578609	1.585593	-0.950572
C52	C	-0.442931	1.451325	-1.060487
C53	C	-0.442901	1.451266	-0.950765
C54	C	-0.375089	1.384186	-1.115446
C55	C	-0.307223	1.316998	-1.060681
C56	C	-0.307202	1.316940	-0.950953
C57	C	-0.375042	1.384075	-0.896000
C58	C	-0.510773	1.518480	-0.232029
C59	C	-0.510791	1.518517	-0.115252
H60	H	-0.252635	0.919318	-0.249446
H61	H	-0.769596	1.774678	-1.104691
N62	N	-0.646112	0.797159	-0.640634
N63	N	-0.585693	0.748172	-0.580557
H64	H	-0.585699	0.669016	-0.580544
N65	N	-0.911238	1.556872	-0.315673
N66	N	-0.850094	1.630126	-0.339256
H67	H	-0.822956	1.678890	-0.283010
N68	N	-0.237886	1.248288	-0.895031
N69	N	-0.177329	1.188350	-0.944118
H70	H	-0.128373	1.139861	-0.904628
H71	H	-1.100790	1.652694	-0.617754
N72	N	-0.238582	1.129740	-0.235467
N73	N	-0.178178	1.080723	-0.175399
H74	H	-0.129355	1.120270	-0.126838
H75	H	-0.768862	1.118534	-0.762693
H76	H	-0.768892	0.919463	-0.762712
N77	N	-0.237932	1.248446	-1.116843
N78	N	-0.170437	1.285487	-1.178091
H79	H	-0.121498	1.237075	-1.217764
N80	N	-0.375029	1.384035	-0.783923
N81	N	-0.435604	1.443983	-0.734871
H82	H	-0.435600	1.443956	-0.655714
H83	H	-0.375375	1.217953	-0.371501
N84	N	-0.912306	1.334271	-0.563555
N85	N	-0.976506	1.261737	-0.546682
H86	H	-0.949851	1.188999	-0.530026
H87	H	-0.646073	1.218023	-0.640631
N88	N	-1.109424	1.707514	-0.465751
N89	N	-1.085336	1.703195	-0.370848
H90	H	-1.111638	1.758816	-0.320886
N91	N	-0.375441	0.797089	-0.371526
N92	N	-0.435872	0.748131	-0.431607
H93	H	-0.435893	0.668975	-0.431619
H94	H	-0.920739	1.455896	-0.669549
N95	N	-1.109572	1.333748	-0.563377
N96	N	-1.088604	1.292815	-0.476850
H97	H	-1.114713	1.219862	-0.460344
N98	N	-1.111288	1.460199	-0.689469
N99	N	-1.171743	1.536470	-0.703326
H100	H	-1.199059	1.552828	-0.775874
N101	N	-0.913047	1.707451	-0.464389
N102	N	-0.978019	1.759454	-0.411916
H103	H	-0.952216	1.814716	-0.361345
N104	N	-0.911073	1.659740	-0.636855
N105	N	-0.850857	1.600163	-0.686786
H106	H	-0.823659	1.621723	-0.758023
H107	H	-1.103176	1.410989	-0.367264
N108	N	-0.913161	1.385636	-0.366904
N109	N	-0.854519	1.335510	-0.427844
H110	H	-0.828735	1.263328	-0.407780
H111	H	-0.646424	1.652688	-0.806274
N112	N	-1.108664	1.564787	-0.319011
N113	N	-1.167638	1.638373	-0.346703
H114	H	-1.193348	1.690977	-0.293290
H115	H	-0.769544	1.774576	-0.905623
N116	N	-0.646538	1.652898	-1.227138
N117	N	-0.707140	1.712886	-1.276022
H118	H	-0.707178	1.712928	-1.355179
N119	N	-0.375118	1.384273	-1.227523
N120	N	-0.353034	1.466268	-1.276436
H121	H	-0.353052	1.466333	-1.355592
