data_functionalizedCrystal
_audit_creation_method	'MofGen! by Chris Wilmer'
_symmetry_space_group_name_H-M	'P1'
_symmetry_Int_Tables_number	1
_symmetry_cell_setting	triclinic
loop_
_symmetry_equiv_pos_as_xyz
  x,y,z
_cell_length_a	18.050590
_cell_length_b	18.050589
_cell_length_c	18.050568
_cell_angle_alpha	89.906844
_cell_angle_beta	89.955174
_cell_angle_gamma	90.017386
loop_
_atom_site_label
_atom_site_type_symbol
_atom_site_fract_x
_atom_site_fract_y
_atom_site_fract_z
Zn1	Zn	1.135627	-0.295372	-0.419625
Zn2	Zn	1.385627	-0.045372	-0.169625
Zn3	Zn	1.635627	0.204628	0.080375
Zn4	Zn	1.885627	0.454628	0.330375
Zn5	Zn	1.135438	-0.419718	-0.295444
Zn6	Zn	1.385438	-0.169718	-0.045444
Zn7	Zn	1.635438	0.080282	0.204556
Zn8	Zn	1.885438	0.330282	0.454556
Zn9	Zn	1.011347	-0.295523	-0.295483
Zn10	Zn	1.261347	-0.045523	-0.045483
Zn11	Zn	1.511347	0.204477	0.204517
Zn12	Zn	1.761347	0.454477	0.454517
Zn13	Zn	1.011394	-0.419502	-0.419627
Zn14	Zn	1.261394	-0.169502	-0.169627
Zn15	Zn	1.511394	0.080498	0.080373
Zn16	Zn	1.761394	0.330498	0.330373
O17	O	1.073451	-0.357529	-0.357545
O18	O	1.323451	-0.107529	-0.107545
O19	O	1.573451	0.142471	0.142455
O20	O	1.823451	0.392471	0.392455
O21	O	1.239526	-0.311895	-0.403135
O22	O	1.489526	-0.061895	-0.153135
O23	O	1.739526	0.188105	0.096865
O24	O	1.989526	0.438105	0.346865
O25	O	1.118879	-0.403397	-0.191525
O26	O	1.368879	-0.153397	0.058475
O27	O	1.618879	0.096603	0.308475
O28	O	1.868879	0.346603	0.558475
O29	O	1.027892	-0.191578	-0.311966
O30	O	1.277892	0.058422	-0.061966
O31	O	1.527892	0.308422	0.188034
O32	O	1.777892	0.558422	0.438034
O33	O	1.239388	-0.403251	-0.311900
O34	O	1.489388	-0.153251	-0.061900
O35	O	1.739388	0.096749	0.188100
O36	O	1.989388	0.346749	0.438100
O37	O	1.119200	-0.191468	-0.403173
O38	O	1.369200	0.058532	-0.153173
O39	O	1.619200	0.308532	0.096827
O40	O	1.869200	0.558532	0.346827
O41	O	1.027710	-0.312151	-0.191553
O42	O	1.277710	-0.062151	0.058447
O43	O	1.527710	0.187849	0.308447
O44	O	1.777710	0.437849	0.558447
O45	O	0.907429	-0.311941	-0.311968
O46	O	1.157429	-0.061941	-0.061968
O47	O	1.407429	0.188059	0.188032
O48	O	1.657429	0.438059	0.438032
O49	O	1.027972	-0.402882	-0.523552
O50	O	1.277972	-0.152882	-0.273552
O51	O	1.527972	0.097118	-0.023552
O52	O	1.777972	0.347118	0.226448
O53	O	0.907463	-0.403028	-0.403176
O54	O	1.157463	-0.153028	-0.153176
O55	O	1.407463	0.096972	0.096824
O56	O	1.657463	0.346972	0.346824
O57	O	1.119245	-0.311685	-0.523550
O58	O	1.369245	-0.061685	-0.273550
O59	O	1.619245	0.188315	-0.023550
O60	O	1.869245	0.438315	0.226450
O61	O	1.118924	-0.523614	-0.311902
O62	O	1.368924	-0.273614	-0.061902
O63	O	1.618924	-0.023614	0.188098
O64	O	1.868924	0.226386	0.438098
O65	O	1.027789	-0.523455	-0.403139
O66	O	1.277789	-0.273455	-0.153139
O67	O	1.527789	-0.023455	0.096861
O68	O	1.777789	0.226545	0.346861
C69	C	0.880499	-0.357478	-0.357577
C70	C	1.130499	-0.107478	-0.107577
C71	C	1.380499	0.142522	0.142423
C72	C	1.630499	0.392522	0.392423
C73	C	0.797954	-0.357474	-0.357608
C74	C	1.047954	-0.107474	-0.107608
C75	C	1.297954	0.142526	0.142392
C76	C	1.547954	0.392526	0.392392
C77	C	0.598543	-0.407149	-0.407089
C78	C	0.848543	-0.157149	-0.157089
C79	C	1.098543	0.092851	0.092911
C80	C	1.348543	0.342851	0.342911
C81	C	0.549164	-0.339410	-0.425359
C82	C	0.799164	-0.089410	-0.175359
C83	C	1.049164	0.160590	0.074641
C84	C	1.299164	0.410590	0.324641
C85	C	0.646823	-0.357516	-0.357572
C86	C	0.896823	-0.107516	-0.107572
C87	C	1.146823	0.142484	0.142428
C88	C	1.396823	0.392484	0.392428
C89	C	0.549120	-0.425293	-0.339301
C90	C	0.799120	-0.175293	-0.089301
C91	C	1.049120	0.074707	0.160699
C92	C	1.299120	0.324707	0.410699
C93	C	0.500838	-0.357562	-0.357538
C94	C	0.750838	-0.107562	-0.107538
C95	C	1.000838	0.142438	0.142462
C96	C	1.250838	0.392438	0.392462
C97	C	0.598532	-0.289741	-0.375877
C98	C	0.848532	-0.039741	-0.125877
C99	C	1.098532	0.210259	0.124123
C100	C	1.348532	0.460259	0.374123
C101	C	0.598492	-0.375669	-0.289787
C102	C	0.848492	-0.125669	-0.039787
C103	C	1.098492	0.124331	0.210213
C104	C	1.348492	0.374331	0.460213
C105	C	0.549135	-0.307884	-0.308032
C106	C	0.799135	-0.057884	-0.058032
C107	C	1.049135	0.192116	0.191968
C108	C	1.299135	0.442116	0.441968
C109	C	0.730921	-0.357490	-0.357593
C110	C	0.980921	-0.107490	-0.107593
C111	C	1.230921	0.142510	0.142407
C112	C	1.480921	0.392510	0.392407
C113	C	0.416741	-0.357580	-0.357517
C114	C	0.666741	-0.107580	-0.107517
C115	C	0.916741	0.142420	0.142483
C116	C	1.166741	0.392420	0.392483
C117	C	1.073362	-0.550481	-0.357533
C118	C	1.323362	-0.300481	-0.107533
C119	C	1.573362	-0.050481	0.142467
C120	C	1.823362	0.199519	0.392467
C121	C	1.073391	-0.633027	-0.357552
C122	C	1.323391	-0.383027	-0.107552
C123	C	1.573391	-0.133027	0.142448
C124	C	1.823391	0.116973	0.392448
C125	C	1.023881	-0.832418	-0.407149
C126	C	1.273881	-0.582418	-0.157149
C127	C	1.523881	-0.332418	0.092851
C128	C	1.773881	-0.082418	0.342851
C129	C	1.005729	-0.881937	-0.339387
C130	C	1.255729	-0.631937	-0.089387
C131	C	1.505729	-0.381937	0.160613
C132	C	1.755729	-0.131937	0.410613
C133	C	1.073464	-0.784157	-0.357562
C134	C	1.323464	-0.534157	-0.107562
C135	C	1.573464	-0.284157	0.142438
C136	C	1.823464	-0.034157	0.392438
C137	C	1.091653	-0.881719	-0.425332
C138	C	1.341653	-0.631719	-0.175332
C139	C	1.591653	-0.381719	0.074668
C140	C	1.841653	-0.131719	0.324668
C141	C	1.073533	-0.930142	-0.357577
C142	C	1.323533	-0.680142	-0.107577
C143	C	1.573533	-0.430142	0.142423
C144	C	1.823533	-0.180142	0.392423
C145	C	1.055277	-0.832589	-0.289763
C146	C	1.305277	-0.582589	-0.039763
C147	C	1.555277	-0.332589	0.210237
C148	C	1.805277	-0.082589	0.460237
C149	C	1.141232	-0.832367	-0.375754
C150	C	1.391232	-0.582367	-0.125754
C151	C	1.641232	-0.332367	0.124246
C152	C	1.891232	-0.082367	0.374246
C153	C	1.123106	-0.881864	-0.307945
C154	C	1.373106	-0.631864	-0.057945
C155	C	1.623106	-0.381864	0.192055
C156	C	1.873106	-0.131864	0.442055
C157	C	1.073423	-0.700059	-0.357554
C158	C	1.323423	-0.450059	-0.107554
C159	C	1.573423	-0.200059	0.142446
C160	C	1.823423	0.049941	0.392446
C161	C	1.073575	-1.014239	-0.357577
C162	C	1.323575	-0.764239	-0.107577
C163	C	1.573575	-0.514239	0.142423
C164	C	1.823575	-0.264239	0.392423
C165	C	1.267157	-0.357580	-0.357513
C166	C	1.517157	-0.107580	-0.107513
C167	C	1.767157	0.142420	0.142487
C168	C	2.017157	0.392420	0.392487
C169	C	1.349703	-0.357602	-0.357500
C170	C	1.599703	-0.107602	-0.107500
C171	C	1.849703	0.142398	0.142500
C172	C	2.099703	0.392398	0.392500
C173	C	1.073635	-0.357242	-0.551251
C174	C	1.323635	-0.107242	-0.301251
C175	C	1.573635	0.142758	-0.051251
C176	C	1.823635	0.392758	0.198749
C177	C	1.073713	-0.357120	-0.633797
C178	C	1.323713	-0.107120	-0.383797
C179	C	1.573713	0.142880	-0.133797
C180	C	1.823713	0.392880	0.116203
C181	C	1.073562	-0.163823	-0.357573
C182	C	1.323562	0.086177	-0.107573
C183	C	1.573562	0.336177	0.142427
C184	C	1.823562	0.586177	0.392427
C185	C	1.073609	-0.081277	-0.357586
C186	C	1.323609	0.168723	-0.107586
C187	C	1.573609	0.418723	0.142414
C188	C	1.823609	0.668723	0.392414
C189	C	1.073312	-0.357760	-0.164592
C190	C	1.323312	-0.107760	0.085408
C191	C	1.573312	0.142240	0.335408
C192	C	1.823312	0.392240	0.585408
C193	C	1.073377	-0.357673	-0.082047
C194	C	1.323377	-0.107673	0.167953
C195	C	1.573377	0.142327	0.417953
C196	C	1.823377	0.392327	0.667953
C197	C	1.123507	-0.406634	0.166832
C198	C	1.373507	-0.156634	0.416832
C199	C	1.623507	0.093366	0.666832
C200	C	1.873507	0.343366	0.916832
C201	C	1.141185	-0.338815	0.117221
C202	C	1.391185	-0.088815	0.367221
C203	C	1.641185	0.161185	0.617221
C204	C	1.891185	0.411185	0.867221
C205	C	1.073600	-0.357305	0.215073
C206	C	1.323600	-0.107305	0.465073
C207	C	1.573600	0.142695	0.715073
C208	C	1.823600	0.392695	0.965073
C209	C	1.055847	-0.425302	0.117602
C210	C	1.305847	-0.175302	0.367602
C211	C	1.555847	0.074698	0.617602
C212	C	1.805847	0.324698	0.867602
C213	C	1.073492	-0.357490	0.069088
C214	C	1.323492	-0.107490	0.319088
C215	C	1.573492	0.142510	0.569088
C216	C	1.823492	0.392510	0.819088
C217	C	1.091313	-0.289449	0.166549
C218	C	1.341313	-0.039449	0.416549
C219	C	1.591313	0.210551	0.666549
C220	C	1.841313	0.460551	0.916549
C221	C	1.005945	-0.375982	0.166935
C222	C	1.255945	-0.125982	0.416935
C223	C	1.505945	0.124018	0.666935
C224	C	1.755945	0.374018	0.916935
C225	C	1.023596	-0.308117	0.117347
C226	C	1.273596	-0.058117	0.367347
C227	C	1.523596	0.191883	0.617347
C228	C	1.773596	0.441883	0.867347
C229	C	1.073664	-0.357200	0.299171
C230	C	1.323664	-0.107200	0.549171
C231	C	1.573664	0.142800	0.799171
C232	C	1.823664	0.392800	1.049171
C233	C	1.073428	-0.357587	-0.015008
C234	C	1.323428	-0.107587	0.234992
C235	C	1.573428	0.142413	0.484992
C236	C	1.823428	0.392413	0.734992
H237	H	0.527496	-0.324071	-0.482669
H238	H	0.777496	-0.074071	-0.232669
H239	H	1.027496	0.175929	0.017331
H240	H	1.277496	0.425929	0.267331
H241	H	1.107009	-0.903303	-0.482639
H242	H	1.357009	-0.653303	-0.232639
H243	H	1.607009	-0.403303	0.017361
H244	H	1.857009	-0.153303	0.267361
C245	C	1.218588	-0.802926	-0.396562
C246	C	1.468588	-0.552926	-0.146562
C247	C	1.718588	-0.302926	0.103438
C248	C	1.968588	-0.052926	0.353438
H249	H	1.237573	-0.774031	-0.356936
H250	H	1.487573	-0.524031	-0.106936
H251	H	1.737573	-0.274031	0.143064
H252	H	1.987573	-0.024031	0.393064
H253	H	1.215038	-0.773150	-0.439853
H254	H	1.465038	-0.523150	-0.189853
H255	H	1.715038	-0.273150	0.060147
H256	H	1.965038	-0.023150	0.310147
H257	H	1.250883	-0.843441	-0.405725
H258	H	1.500883	-0.593441	-0.155725
H259	H	1.750883	-0.343441	0.094275
H260	H	2.000883	-0.093441	0.344275
C261	C	1.180622	-0.462807	0.196189
C262	C	1.430622	-0.212807	0.446189
C263	C	1.680622	0.037193	0.696189
C264	C	1.930622	0.287193	0.946189
H265	H	1.228632	-0.449477	0.179161
H266	H	1.478632	-0.199477	0.429161
H267	H	1.728632	0.050523	0.679161
H268	H	1.978632	0.300523	0.929161
H269	H	1.168521	-0.510919	0.178709
H270	H	1.418521	-0.260919	0.428709
H271	H	1.668521	-0.010919	0.678709
H272	H	1.918521	0.239081	0.928709
H273	H	1.179959	-0.462665	0.248815
H274	H	1.429959	-0.212665	0.498815
H275	H	1.679959	0.037335	0.748815
H276	H	1.929959	0.287335	0.998815
H277	H	0.620145	-0.232424	-0.391381
H278	H	0.870145	0.017576	-0.141381
H279	H	1.120145	0.267576	0.108619
H280	H	1.370145	0.517576	0.358619
H281	H	0.981341	-0.266433	0.095764
H282	H	1.231341	-0.016433	0.345764
H283	H	1.481341	0.233567	0.595764
H284	H	1.731341	0.483567	0.845764
C285	C	0.520006	-0.251147	-0.251445
C286	C	0.770006	-0.001147	-0.001445
C287	C	1.020006	0.248853	0.248555
C288	C	1.270006	0.498853	0.498555
H289	H	0.537017	-0.203060	-0.264534
H290	H	0.787017	0.046940	-0.014534
H291	H	1.037017	0.296940	0.235466
H292	H	1.287017	0.546940	0.485466
H293	H	0.537643	-0.263615	-0.203451
H294	H	0.787643	-0.013615	0.046549
H295	H	1.037643	0.236385	0.296549
H296	H	1.287643	0.486385	0.546549
H297	H	0.467379	-0.251753	-0.251456
H298	H	0.717379	-0.001753	-0.001456
H299	H	0.967379	0.248247	0.248544
H300	H	1.217379	0.498247	0.498544
H301	H	0.948452	-0.903726	-0.324013
H302	H	1.198452	-0.653726	-0.074013
H303	H	1.448452	-0.403726	0.175987
H304	H	1.698452	-0.153726	0.425987
H305	H	1.198353	-0.323093	0.095389
H306	H	1.448353	-0.073093	0.345389
H307	H	1.698353	0.176907	0.595389
H308	H	1.948353	0.426907	0.845389
C309	C	0.519788	-0.502695	-0.318447
C310	C	0.769788	-0.252695	-0.068447
C311	C	1.019788	-0.002695	0.181553
C312	C	1.269788	0.247305	0.431553
H313	H	0.536712	-0.537879	-0.353694
H314	H	0.786712	-0.287879	-0.103694
H315	H	1.036712	-0.037879	0.146306
H316	H	1.286712	0.212121	0.396306
H317	H	0.467167	-0.502037	-0.318146
H318	H	0.717167	-0.252037	-0.068146
H319	H	0.967167	-0.002037	0.181854
H320	H	1.217167	0.247963	0.431854
H321	H	0.537403	-0.515925	-0.270643
H322	H	0.787403	-0.265925	-0.020643
H323	H	1.037403	-0.015925	0.229357
H324	H	1.287403	0.234075	0.479357
C325	C	1.111632	-0.211850	0.195475
C326	C	1.361632	0.038150	0.445475
C327	C	1.611632	0.288150	0.695475
C328	C	1.861632	0.538150	0.945475
H329	H	1.111573	-0.212263	0.248106
H330	H	1.361573	0.037737	0.498106
H331	H	1.611573	0.287737	0.748106
H332	H	1.861573	0.537737	0.998106
H333	H	1.076365	-0.176845	0.178136
H334	H	1.326365	0.073155	0.428136
H335	H	1.576365	0.323155	0.678136
H336	H	1.826365	0.573155	0.928136
H337	H	1.159508	-0.198574	0.178039
H338	H	1.409508	0.051426	0.428039
H339	H	1.659508	0.301426	0.678039
H340	H	1.909508	0.551426	0.928039
C341	C	0.928740	-0.397248	0.196458
C342	C	1.178740	-0.147248	0.446458
C343	C	1.428740	0.102752	0.696458
C344	C	1.678740	0.352752	0.946458
H345	H	0.916237	-0.445534	0.179735
H346	H	1.166237	-0.195534	0.429735
H347	H	1.416237	0.054466	0.679735
H348	H	1.666237	0.304466	0.929735
H349	H	0.893128	-0.362765	0.178780
H350	H	1.143128	-0.112765	0.428780
H351	H	1.393128	0.137235	0.678780
H352	H	1.643128	0.387235	0.928780
H353	H	0.929231	-0.396583	0.249080
H354	H	1.179231	-0.146583	0.499080
H355	H	1.429231	0.103417	0.749080
H356	H	1.679231	0.353417	0.999080
H357	H	1.040877	-0.482728	0.096093
H358	H	1.290877	-0.232728	0.346093
H359	H	1.540877	0.017272	0.596093
H360	H	1.790877	0.267272	0.846093
H361	H	0.620238	-0.449049	-0.449012
H362	H	0.870238	-0.199049	-0.199012
H363	H	1.120238	0.050951	0.050988
H364	H	1.370238	0.300951	0.300988
C365	C	0.627794	-0.396419	-0.212393
C366	C	0.877794	-0.146419	0.037607
C367	C	1.127794	0.103581	0.287607
C368	C	1.377794	0.353581	0.537607
H369	H	0.610906	-0.444600	-0.199495
H370	H	0.860906	-0.194600	0.050505
H371	H	1.110906	0.055400	0.300505
H372	H	1.360906	0.305400	0.550505
H373	H	0.610142	-0.361670	-0.177079
H374	H	0.860142	-0.111670	0.072921
H375	H	1.110142	0.138330	0.322921
H376	H	1.360142	0.388330	0.572921
H377	H	0.680418	-0.395807	-0.212862
H378	H	0.930418	-0.145807	0.037138
H379	H	1.180418	0.104193	0.287138
H380	H	1.430418	0.354193	0.537138
C381	C	1.034440	-0.803562	-0.212325
C382	C	1.284440	-0.553562	0.037675
C383	C	1.534440	-0.303562	0.287675
C384	C	1.784440	-0.053562	0.537675
H385	H	1.025794	-0.844254	-0.180008
H386	H	1.275794	-0.594254	0.069992
H387	H	1.525794	-0.344254	0.319992
H388	H	1.775794	-0.094254	0.569992
H389	H	0.990843	-0.774294	-0.215718
H390	H	1.240843	-0.524294	0.034282
H391	H	1.490843	-0.274294	0.284282
H392	H	1.740843	-0.024294	0.534282
H393	H	1.073839	-0.774238	-0.193471
H394	H	1.323839	-0.524238	0.056529
H395	H	1.573839	-0.274238	0.306529
H396	H	1.823839	-0.024238	0.556529
C397	C	0.967157	-0.803082	-0.463716
C398	C	1.217157	-0.553082	-0.213716
C399	C	1.467157	-0.303082	0.036284
C400	C	1.717157	-0.053082	0.286284
H401	H	0.919053	-0.820058	-0.450671
H402	H	1.169053	-0.570058	-0.200671
H403	H	1.419053	-0.320058	0.049329
H404	H	1.669053	-0.070058	0.299329
H405	H	0.979580	-0.820626	-0.511731
H406	H	1.229580	-0.570626	-0.261731
H407	H	1.479580	-0.320626	-0.011731
H408	H	1.729580	-0.070626	0.238269
H409	H	0.967833	-0.750457	-0.463631
H410	H	1.217833	-0.500457	-0.213631
H411	H	1.467833	-0.250457	0.036369
H412	H	1.717833	-0.000457	0.286369
H413	H	1.165067	-0.903437	-0.265969
H414	H	1.415067	-0.653437	-0.015969
H415	H	1.665067	-0.403437	0.234031
H416	H	1.915067	-0.153437	0.484031
