data_functionalizedCrystal
_audit_creation_method	'MofGen! by Chris Wilmer'
_symmetry_space_group_name_H-M	'P1'
_symmetry_Int_Tables_number	1
_symmetry_cell_setting	triclinic
loop_
_symmetry_equiv_pos_as_xyz
  x,y,z
_cell_length_a	19.805407
_cell_length_b	19.805405
_cell_length_c	17.077396
_cell_angle_alpha	89.968350
_cell_angle_beta	89.974830
_cell_angle_gamma	90.025657
loop_
_atom_site_label
_atom_site_type_symbol
_atom_site_fract_x
_atom_site_fract_y
_atom_site_fract_z
Zn1	Zn	1.034742	-0.269477	-0.443944
Zn2	Zn	1.034655	-0.382670	-0.312671
Zn3	Zn	0.921555	-0.269499	-0.312679
Zn4	Zn	0.921520	-0.382628	-0.443881
O5	O	0.978118	-0.326068	-0.378294
O6	O	1.129447	-0.284501	-0.426553
O7	O	1.019630	-0.367684	-0.202825
O8	O	0.936620	-0.174779	-0.330121
O9	O	1.129383	-0.367663	-0.330107
O10	O	1.019779	-0.174763	-0.426561
O11	O	0.936536	-0.284538	-0.202831
O12	O	0.826834	-0.284497	-0.330061
O13	O	0.936561	-0.367591	-0.553737
O14	O	0.826808	-0.367612	-0.426454
O15	O	1.019745	-0.284460	-0.553783
O16	O	1.019597	-0.477381	-0.330047
O17	O	0.936477	-0.477350	-0.426446
C18	C	0.802262	-0.326053	-0.378252
C19	C	0.727030	-0.326063	-0.378253
C20	C	0.265244	-0.369428	-0.428458
C21	C	0.335932	-0.369427	-0.428441
C22	C	0.371268	-0.326085	-0.378325
C23	C	0.335913	-0.282746	-0.328216
C24	C	0.265226	-0.282751	-0.328229
C25	C	0.620986	-0.282725	-0.328161
C26	C	0.691678	-0.282722	-0.328153
C27	C	0.691692	-0.369401	-0.428373
C28	C	0.621005	-0.369406	-0.428386
C29	C	0.585656	-0.326070	-0.378275
C30	C	0.509007	-0.326072	-0.378292
C31	C	0.447916	-0.326078	-0.378310
C32	C	0.978042	-0.501924	-0.378256
C33	C	0.978071	-0.577156	-0.378266
C34	C	1.021394	-0.612494	-0.328123
C35	C	1.021422	-0.683182	-0.328140
C36	C	0.978125	-0.718532	-0.378297
C37	C	0.934801	-0.683189	-0.428446
C38	C	0.934776	-0.612502	-0.428432
C39	C	0.934900	-0.968262	-0.428504
C40	C	0.934927	-1.038954	-0.428512
C41	C	1.021547	-1.038943	-0.328213
C42	C	1.021522	-0.968256	-0.328199
C43	C	0.978201	-0.932919	-0.378350
C44	C	0.978171	-0.856271	-0.378331
C45	C	0.978151	-0.795179	-0.378312
C46	C	1.154661	-0.326084	-0.378336
C47	C	1.229893	-0.326091	-0.378354
C48	C	0.978159	-0.326018	-0.583038
C49	C	0.978177	-0.325997	-0.670288
C50	C	0.978213	-0.149525	-0.378349
C51	C	0.978253	-0.074293	-0.378373
C52	C	1.021492	-0.282707	-0.711304
C53	C	1.021500	-0.282684	-0.793284
C54	C	0.978196	-0.325956	-0.834248
C55	C	0.934876	-0.369248	-0.793226
C56	C	0.934865	-0.369267	-0.711247
C57	C	0.934903	-0.369207	-0.964097
C58	C	0.934915	-0.369190	-1.046081
C59	C	1.021538	-0.282625	-1.046133
C60	C	1.021527	-0.282644	-0.964154
C61	C	0.978208	-0.325937	-0.923139
C62	C	0.978116	-0.326069	-0.174346
C63	C	0.978230	-0.325900	-0.087097
H64	H	0.592213	-0.247440	-0.287354
C65	C	0.887247	-0.929398	-0.483663
H66	H	0.893436	-0.882236	-0.476481
H67	H	0.841780	-0.941025	-0.472124
H68	H	0.897137	-0.940946	-0.536420
C69	C	0.374815	-0.417093	-0.483559
H70	H	0.343646	-0.442900	-0.513416
H71	H	0.402364	-0.446553	-0.453470
H72	H	0.402417	-0.391230	-0.517811
C73	C	0.887173	-0.722071	-0.483615
H74	H	0.893386	-0.769232	-0.476437
H75	H	0.897045	-0.710448	-0.536367
H76	H	0.841696	-0.710528	-0.472064
C77	C	1.069150	-0.235068	-0.838398
H78	H	1.094945	-0.209307	-0.802260
H79	H	1.043283	-0.205564	-0.870379
H80	H	1.098632	-0.260962	-0.870378
H81	H	1.056793	-0.247412	-0.930804
C82	C	1.069137	-0.929372	-0.273015
H83	H	1.062910	-0.882212	-0.280181
H84	H	1.114616	-0.940906	-0.284546
H85	H	1.059248	-0.941002	-0.220265
H86	H	0.720447	-0.247424	-0.287341
H87	H	0.236444	-0.247459	-0.287432
H88	H	0.899651	-0.404424	-1.079432
C89	C	0.887275	-0.416851	-0.918981
H90	H	0.861497	-0.442631	-0.955117
H91	H	0.857786	-0.390986	-0.886985
H92	H	0.913173	-0.446347	-0.887015
H93	H	0.899614	-0.404478	-0.826586
H94	H	1.056649	-0.583717	-0.287276
C95	C	1.069206	-1.077812	-0.273050
H96	H	1.094983	-1.046634	-0.243171
H97	H	1.098695	-1.105344	-0.303114
H98	H	1.043336	-1.105428	-0.238821
H99	H	0.720483	-0.404689	-0.469173
H100	H	1.056699	-0.711951	-0.287309
H101	H	0.899499	-0.583731	-0.469264
C102	C	0.887235	-0.416902	-0.666131
H103	H	0.861454	-0.442680	-0.702267
H104	H	0.857749	-0.391029	-0.634140
H105	H	0.913124	-0.446401	-0.634159
C106	C	0.887303	-1.077838	-0.483694
H107	H	0.861504	-1.046669	-0.513567
H108	H	0.857835	-1.105456	-0.453641
H109	H	0.913198	-1.105370	-0.517929
H110	H	1.056757	-0.247472	-0.677957
C111	C	1.069196	-0.235011	-1.091246
H112	H	1.063000	-0.241193	-1.145937
H113	H	1.114662	-0.244936	-1.077818
H114	H	1.059321	-0.189530	-1.077827
H115	H	0.236478	-0.404718	-0.469273
C116	C	0.582139	-0.417082	-0.483513
H117	H	0.613317	-0.442897	-0.513347
H118	H	0.554590	-0.391231	-0.517774
H119	H	0.554539	-0.446544	-0.453422
H120	H	0.364689	-0.247459	-0.287407
