data_functionalizedCrystal
_audit_creation_method	'MofGen! by Chris Wilmer'
_symmetry_space_group_name_H-M	'P1'
_symmetry_Int_Tables_number	1
_symmetry_cell_setting	triclinic
loop_
_symmetry_equiv_pos_as_xyz
  x,y,z
_cell_length_a	17.638686
_cell_length_b	17.637651
_cell_length_c	21.395356
_cell_angle_alpha	78.756692
_cell_angle_beta	78.790682
_cell_angle_gamma	87.823829
loop_
_atom_site_label
_atom_site_type_symbol
_atom_site_fract_x
_atom_site_fract_y
_atom_site_fract_z
Zn1	Zn	1.099805	-0.537546	-0.443964
Zn2	Zn	1.599805	-0.037546	0.056036
Zn3	Zn	1.074064	-0.664548	-0.314700
Zn4	Zn	1.574064	-0.164548	0.185300
Zn5	Zn	0.972821	-0.511847	-0.323011
Zn6	Zn	1.472821	-0.011847	0.176989
Zn7	Zn	0.947138	-0.638796	-0.403268
Zn8	Zn	1.447138	-0.138796	0.096732
O9	O	1.023457	-0.588184	-0.371236
O10	O	1.523457	-0.088184	0.128764
O11	O	1.202653	-0.575925	-0.440370
O12	O	1.702653	-0.075925	0.059630
O13	O	1.060610	-0.644314	-0.228117
O14	O	1.560610	-0.144314	0.271883
O15	O	1.011186	-0.408977	-0.359565
O16	O	1.511186	0.091023	0.140435
O17	O	1.183741	-0.669233	-0.345400
O18	O	1.683741	-0.169233	0.154600
O19	O	1.104481	-0.427857	-0.448429
O20	O	1.604481	0.072143	0.051571
O21	O	0.986227	-0.532126	-0.234223
O22	O	1.486227	-0.032126	0.265777
O23	O	0.863151	-0.507155	-0.320104
O24	O	1.363151	-0.007155	0.179896
O25	O	0.967414	-0.625343	-0.496352
O26	O	1.467414	-0.125343	0.003648
O27	O	0.844282	-0.600424	-0.379068
O28	O	1.344282	-0.100424	0.120932
O29	O	1.079577	-0.550955	-0.526251
O30	O	1.579577	-0.050955	-0.026251
O31	O	1.035707	-0.767412	-0.305939
O32	O	1.535707	-0.267412	0.194061
O33	O	0.942454	-0.748492	-0.371009
O34	O	1.442454	-0.248492	0.128991
C35	C	0.826164	-0.548207	-0.346072
C36	C	1.326164	-0.048207	0.153928
C37	C	0.741758	-0.531123	-0.335318
C38	C	1.241758	-0.031123	0.164682
C39	C	0.415064	-0.718137	-0.453056
C40	C	0.915064	-0.218137	0.046944
C41	C	0.335753	-0.702077	-0.442937
C42	C	0.835753	-0.202077	0.057063
C43	C	0.355398	-0.604805	-0.381691
C44	C	0.855398	-0.104805	0.118309
C45	C	0.434712	-0.620860	-0.391802
C46	C	0.934712	-0.120860	0.108198
C47	C	0.464539	-0.677526	-0.427486
C48	C	0.964539	-0.177526	0.072514
C49	C	0.484187	-0.580248	-0.366232
C50	C	0.984187	-0.080248	0.133768
C51	C	0.563494	-0.596299	-0.376345
C52	C	1.063494	-0.096299	0.123655
C53	C	0.593328	-0.652961	-0.412029
C54	C	1.093328	-0.152961	0.087971
C55	C	0.543846	-0.693576	-0.437600
C56	C	1.043846	-0.193576	0.062400
C57	C	0.454359	-0.523579	-0.330552
C58	C	0.954359	-0.023579	0.169448
C59	C	0.503834	-0.482968	-0.304982
C60	C	1.003834	0.017032	0.195018
C61	C	0.583142	-0.499022	-0.315091
C62	C	1.083142	0.000978	0.184909
C63	C	0.612976	-0.555683	-0.350775
C64	C	1.112976	-0.055683	0.149225
C65	C	0.632624	-0.458406	-0.289521
C66	C	1.132624	0.041594	0.210479
C67	C	0.711931	-0.474457	-0.299634
C68	C	1.211931	0.025543	0.200366
C69	C	0.692283	-0.571734	-0.360889
C70	C	1.192283	-0.071734	0.139111
C71	C	0.983521	-0.785513	-0.333172
C72	C	1.483521	-0.285513	0.166828
C73	C	0.966506	-0.869945	-0.316918
C74	C	1.466506	-0.369945	0.183082
C75	C	1.153214	-1.196448	-0.494975
C76	C	1.653214	-0.696448	0.005025
C77	C	1.137201	-1.275780	-0.479688
C78	C	1.637201	-0.775780	0.020312
C79	C	1.040118	-1.256240	-0.387085
C80	C	1.540118	-0.756240	0.112915
C81	C	1.056125	-1.176905	-0.402362
C82	C	1.556125	-0.676905	0.097638
C83	C	1.112673	-1.147016	-0.456308
C84	C	1.612673	-0.647016	0.043692
C85	C	1.015585	-1.127473	-0.363696
C86	C	1.515585	-0.627473	0.136304
C87	C	1.031588	-1.048145	-0.378974
C88	C	1.531588	-0.548145	0.121026
C89	C	1.088132	-1.018248	-0.432919
C90	C	1.588132	-0.518248	0.067081
C91	C	1.128676	-1.067687	-0.471587
C92	C	1.628676	-0.567687	0.028413
C93	C	0.959033	-1.157363	-0.309753
C94	C	1.459033	-0.657363	0.190247
C95	C	0.918492	-1.107931	-0.271086
C96	C	1.418492	-0.607931	0.228914
C97	C	0.934499	-1.028602	-0.286362
C98	C	1.434499	-0.528602	0.213638
C99	C	0.991043	-0.998706	-0.340306
C100	C	1.491043	-0.498706	0.159694
C101	C	0.893954	-0.979163	-0.247694
C102	C	1.393954	-0.479163	0.252306
C103	C	0.909958	-0.899835	-0.262972
C104	C	1.409958	-0.399835	0.237028
C105	C	1.007046	-0.919377	-0.355585
C106	C	1.507046	-0.419377	0.144415
C107	C	1.221520	-0.628318	-0.396498
C108	C	1.721520	-0.128318	0.103502
C109	C	1.305923	-0.645421	-0.407263
C110	C	1.805923	-0.145421	0.092737
C111	C	1.023502	-0.588143	-0.534673
C112	C	1.523502	-0.088143	-0.034673
C113	C	1.023521	-0.588125	-0.604320
C114	C	1.523521	-0.088125	-0.104320
C115	C	1.063569	-0.390089	-0.409464
C116	C	1.563569	0.109911	0.090536
C117	C	1.080663	-0.305673	-0.425755
C118	C	1.580663	0.194327	0.074245
C119	C	1.082021	-0.549284	-1.121718
C120	C	1.582021	-0.049284	-0.621718
C121	C	1.082011	-0.549302	-1.056279
C122	C	1.582011	-0.049302	-0.556279
C123	C	1.023607	-0.588037	-1.007986
C124	C	1.523607	-0.088037	-0.507986
C125	C	0.965219	-0.626775	-1.025137
C126	C	1.465219	-0.126775	-0.525137
C127	C	0.965234	-0.626763	-1.090576
C128	C	1.465234	-0.126763	-0.590576
C129	C	0.953953	-0.580190	-0.894428
C130	C	1.453953	-0.080190	-0.394428
C131	C	0.953937	-0.580196	-0.828991
C132	C	1.453937	-0.080196	-0.328991
C133	C	1.023558	-0.588078	-0.806151
C134	C	1.523558	-0.088078	-0.306151
C135	C	1.093200	-0.595938	-0.848759
C136	C	1.593200	-0.095938	-0.348759
C137	C	1.093216	-0.595926	-0.914198
C138	C	1.593216	-0.095926	-0.414198
C139	C	1.023583	-0.588054	-0.937027
C140	C	1.523583	-0.088054	-0.437027
C141	C	1.081935	-0.549365	-0.718050
C142	C	1.581935	-0.049365	-0.218050
C143	C	1.081925	-0.549388	-0.652608
C144	C	1.581925	-0.049388	-0.152608
C145	C	0.965127	-0.626856	-0.621468
C146	C	1.465127	-0.126856	-0.121468
C147	C	0.965143	-0.626839	-0.686908
C148	C	1.465143	-0.126839	-0.186908
C149	C	1.023546	-0.588089	-0.735196
C150	C	1.523546	-0.088089	-0.235196
C151	C	1.023467	-0.588180	-0.208450
C152	C	1.523467	-0.088180	0.291550
C153	C	1.023638	-0.588013	-0.138863
C154	C	1.523638	-0.088013	0.361137
H155	H	0.752216	-0.441381	-0.278818
H156	H	1.252216	0.058619	0.221182
H157	H	0.917667	-0.658315	-0.985813
H158	H	1.417667	-0.158315	-0.485813
H159	H	0.994075	-1.280587	-0.343163
H160	H	1.494075	-0.780587	0.156837
H161	H	0.945998	-1.221956	-0.297320
H162	H	1.445998	-0.721956	0.202680
C163	C	1.146185	-0.506750	-0.771168
C164	C	1.646185	-0.006750	-0.271168
N165	N	1.194581	-0.474653	-0.811176
N166	N	1.694581	0.025347	-0.311176
H167	H	1.129472	-0.517853	-0.638652
H168	H	1.629472	-0.017853	-0.138652
C169	C	0.900882	-0.669467	-0.568349
C170	C	1.400882	-0.169467	-0.068349
N171	N	0.852492	-0.701564	-0.528337
N172	N	1.352492	-0.201564	-0.028337
C173	C	1.169789	-0.604613	-0.823641
C174	C	1.669789	-0.104613	-0.323641
N175	N	1.227473	-0.611147	-0.804718
N176	N	1.727473	-0.111147	-0.304718
C177	C	1.105736	-0.930984	-0.449725
C178	C	1.605736	-0.430984	0.050275
N179	N	1.118998	-0.865257	-0.462382
N180	N	1.618998	-0.365257	0.037618
C181	C	0.865368	-0.845458	-0.220432
C182	C	1.365368	-0.345458	0.279568
N183	N	0.831782	-0.804501	-0.188389
N184	N	1.331782	-0.304501	0.311611
H185	H	0.917599	-0.658372	-0.700866
H186	H	1.417599	-0.158372	-0.200866
C187	C	1.146271	-0.506665	-1.174832
C188	C	1.646271	-0.006665	-0.674832
N189	N	1.194666	-0.474567	-1.214837
N190	N	1.694666	0.025433	-0.714837
C191	C	0.901002	-0.669364	-1.109434
C192	C	1.401002	-0.169364	-0.609434
N193	N	0.852620	-0.701449	-1.123640
N194	N	1.352620	-0.201449	-0.623640
H195	H	1.174729	-1.043352	-0.515511
H196	H	1.674729	-0.543352	-0.015511
H197	H	0.657906	-0.666024	-0.420267
H198	H	1.157906	-0.166024	0.079733
C199	C	0.877331	-0.571544	-0.782129
C200	C	1.377331	-0.071544	-0.282129
N201	N	0.819629	-0.565027	-0.746834
N202	N	1.319629	-0.065027	-0.246834
H203	H	0.479538	-0.436828	-0.275930
H204	H	0.979538	0.063172	0.224070
H205	H	0.295472	-0.735149	-0.463765
H206	H	0.795472	-0.235149	0.036235
C207	C	1.146236	-0.506690	-1.037414
C208	C	1.646236	-0.006690	-0.537414
N209	N	1.194609	-0.474593	-1.023207
N210	N	1.694609	0.025407	-0.523207
C211	C	0.856339	-1.140829	-0.211714
C212	C	1.356339	-0.640829	0.288286
N213	N	0.809543	-1.165610	-0.166980
N214	N	1.309543	-0.665610	0.333020
H215	H	0.847908	-1.003510	-0.203775
H216	H	1.347908	-0.503510	0.296225
H217	H	1.199266	-1.172113	-0.538900
H218	H	1.699266	-0.672113	-0.038900
C219	C	0.725096	-0.634071	-0.400141
C220	C	1.225096	-0.134071	0.099859
N221	N	0.749812	-0.681020	-0.429707
N222	N	1.249812	-0.181020	0.070293
H223	H	1.053099	-0.895042	-0.399509
H224	H	1.553099	-0.395042	0.100491
C225	C	1.181804	-1.330154	-0.522229
C226	C	1.681804	-0.830154	-0.022229
N227	N	1.215396	-1.371108	-0.554271
N228	N	1.715396	-0.871108	-0.054271
H229	H	1.149920	-0.602328	-0.948887
H230	H	1.649920	-0.102328	-0.448887
H231	H	0.897255	-0.573771	-0.913016
H232	H	1.397255	-0.073771	-0.413016
H233	H	0.568132	-0.739723	-0.466653
H234	H	1.068132	-0.239723	0.033347
H235	H	0.439349	-0.764284	-0.482110
H236	H	0.939349	-0.264284	0.017890
H237	H	0.331102	-0.558666	-0.352639
H238	H	0.831102	-0.058666	0.147361
H239	H	0.389782	-0.510509	-0.322323
H240	H	0.889782	-0.010509	0.177677
H241	H	0.608327	-0.412264	-0.260473
H242	H	1.108327	0.087736	0.239527
