data_functionalizedCrystal
_audit_creation_method	'MofGen! by Chris Wilmer'
_symmetry_space_group_name_H-M	'P1'
_symmetry_Int_Tables_number	1
_symmetry_cell_setting	triclinic
loop_
_symmetry_equiv_pos_as_xyz
  x,y,z
_cell_length_a	15.995288
_cell_length_b	11.026607
_cell_length_c	9.482900
_cell_angle_alpha	101.400185
_cell_angle_beta	99.289458
_cell_angle_gamma	83.973601
loop_
_atom_site_label
_atom_site_type_symbol
_atom_site_fract_x
_atom_site_fract_y
_atom_site_fract_z
O1	O	-1.144732	0.137034	-0.120970
O2	O	-0.903872	0.156430	-0.120956
O3	O	-1.004339	-0.029913	-0.120956
O4	O	-1.044265	0.323378	-0.120969
O5	O	-0.983955	0.008089	0.120836
O6	O	-0.883487	0.194433	0.120837
O7	O	-1.124348	0.175036	0.120823
Cu8	Cu	-1.002056	0.188205	0.142907
Cu9	Cu	-1.026163	0.143262	-0.143040
O10	O	-1.023880	0.361380	0.120823
C11	C	-0.862365	0.174643	-0.000058
C12	C	-0.769055	0.172281	-0.000052
C13	C	-0.598214	0.167914	-0.000060
C14	C	-0.570746	0.300592	-0.000060
C15	C	-0.473740	0.298091	-0.000611
C16	C	-0.430009	0.163617	-0.000065
C17	C	-0.472837	0.076132	-0.137867
C18	C	-0.569986	0.079465	-0.137981
C19	C	-0.546787	0.120718	0.136992
C20	C	-0.449693	0.121021	0.138801
C21	C	-0.334947	0.161181	-0.000074
C22	C	-0.693277	0.170345	-0.000061
C23	C	-0.986782	-0.056121	-0.000061
C24	C	-0.964826	-0.190828	-0.000065
C25	C	-1.025451	-0.264655	-0.000071
C26	C	-1.002760	-0.403882	-0.000075
C27	C	-0.165855	0.156840	-0.000073
C28	C	-0.259168	0.159251	-0.000073
C29	C	-1.041438	0.387587	-0.000075
C30	C	-1.063395	0.522293	-0.000080
N31	N	-0.985107	0.219814	0.344028
N32	N	-1.043118	0.111643	-0.344161
C33	C	-1.021157	0.152579	0.416227
C34	C	-1.007062	0.178888	0.583644
H35	H	-0.606591	0.337606	-0.098734
H36	H	-1.084415	0.034594	0.593715
H37	H	-0.604173	0.110652	-0.241383
H38	H	-0.462032	0.333976	-0.099971
H39	H	-1.094153	-0.224785	-0.000066
H40	H	-0.459932	0.105082	-0.240807
H41	H	-0.565063	0.180818	0.241471
H42	H	-0.934054	-0.443746	-0.000080
H43	H	-0.588945	0.369438	0.098741
H44	H	-0.588070	-0.018886	-0.143866
H45	H	-1.062452	0.075535	0.354098
H46	H	-0.421004	0.185115	0.240749
H47	H	-0.418831	0.024289	0.147534
H48	H	-1.132112	-0.437863	-0.000194
H49	H	-0.896124	-0.230698	-0.000071
H50	H	-0.943805	0.296849	0.406158
H51	H	-0.444748	0.365337	0.098148
H52	H	-0.444233	-0.023484	-0.142601
H53	H	-0.563712	0.023106	0.138320
H54	H	-0.965757	0.255928	0.645769
