data_functionalizedCrystal
_audit_creation_method	'MofGen! by Chris Wilmer'
_symmetry_space_group_name_H-M	'P1'
_symmetry_Int_Tables_number	1
_symmetry_cell_setting	triclinic
loop_
_symmetry_equiv_pos_as_xyz
  x,y,z
_cell_length_a	16.956984
_cell_length_b	16.992694
_cell_length_c	15.455313
_cell_angle_alpha	92.857794
_cell_angle_beta	92.464369
_cell_angle_gamma	96.639179
loop_
_atom_site_label
_atom_site_type_symbol
_atom_site_fract_x
_atom_site_fract_y
_atom_site_fract_z
O1	O	0.165135	-1.033119	-0.072024
O2	O	0.665135	-0.533119	0.427976
O3	O	0.163287	-0.804955	-0.072049
O4	O	0.663287	-0.304955	0.427951
O5	O	0.049006	-0.932744	-0.072029
O6	O	0.549006	-0.432744	0.427971
O7	O	0.279416	-0.905329	-0.072044
O8	O	0.779416	-0.405329	0.427956
O9	O	0.055513	-0.925439	0.072232
O10	O	0.555513	-0.425439	0.572232
O11	O	0.169793	-0.797649	0.072212
O12	O	0.669793	-0.297649	0.572212
O13	O	0.171642	-1.025813	0.072237
O14	O	0.671642	-0.525813	0.572237
Cu15	Cu	0.171312	-0.911064	0.085397
Cu16	Cu	0.671312	-0.411064	0.585397
Cu17	Cu	0.163617	-0.919704	-0.085209
Cu18	Cu	0.663617	-0.419704	0.414791
O19	O	0.285922	-0.898024	0.072217
O20	O	0.785922	-0.398024	0.572217
C21	C	0.164163	-0.772244	0.000078
C22	C	0.664163	-0.272244	0.500078
C23	C	0.157072	-0.685660	0.000068
C24	C	0.657072	-0.185660	0.500068
N25	N	0.176723	-0.904993	0.205391
N26	N	0.676723	-0.404993	0.705391
C27	C	0.022641	-0.930495	0.000101
C28	C	0.522641	-0.430495	0.500101
C29	C	-0.065614	-0.934669	0.000101
C30	C	0.434386	-0.434669	0.500101
C31	C	-0.102146	-0.864884	0.000089
C32	C	0.397854	-0.364884	0.500089
C33	C	-0.185071	-0.868811	0.000092
C34	C	0.314929	-0.368811	0.500092
C35	C	-0.231463	-0.942523	0.000100
C36	C	0.268537	-0.442523	0.500100
C37	C	-0.194925	-1.012313	0.000115
C38	C	0.305075	-0.512313	0.500115
C39	C	-0.112002	-1.008385	0.000118
C40	C	0.387998	-0.508385	0.500118
C41	C	-0.479997	-0.961962	0.000097
C42	C	0.020003	-0.461962	0.500097
C43	C	-0.562926	-0.965884	0.000091
C44	C	-0.062926	-0.465884	0.500091
C45	C	-0.553066	-0.822381	0.000070
C46	C	-0.053066	-0.322381	0.500070
C47	C	-0.470141	-0.818461	0.000068
C48	C	0.029859	-0.318461	0.500068
C49	C	-0.433611	-0.888250	0.000087
C50	C	0.066389	-0.388250	0.500087
N51	N	-0.316225	-0.946538	0.000100
N52	N	0.183775	-0.446538	0.500100
N53	N	-0.348849	-0.884234	0.000093
N54	N	0.151151	-0.384234	0.500093
C55	C	0.312288	-0.900273	0.000085
C56	C	0.812288	-0.400273	0.500085
C57	C	0.400542	-0.896099	0.000079
C58	C	0.900542	-0.396099	0.500079
C59	C	0.170765	-1.058525	0.000108
C60	C	0.670765	-0.558525	0.500108
C61	C	0.177856	-1.145109	0.000112
C62	C	0.677856	-0.645109	0.500112
C63	C	0.225487	-0.630985	0.000065
C64	C	0.725487	-0.130985	0.500065
C65	C	0.218821	-0.549630	0.000077
C66	C	0.718821	-0.049630	0.500077
C67	C	0.143738	-0.522951	0.000087
C68	C	0.643738	-0.022951	0.500087
C69	C	0.075318	-0.577633	0.000094
C70	C	0.575318	-0.077633	0.500094
C71	C	0.081986	-0.658986	0.000087
C72	C	0.581986	-0.158986	0.500087
C73	C	0.116104	-0.281144	0.000112
C74	C	0.616104	0.218856	0.500112
C75	C	0.109441	-0.199784	0.000116
C76	C	0.609441	0.300216	0.500116
C77	C	0.252944	-0.171786	0.000101
C78	C	0.752944	0.328214	0.500101
C79	C	0.259605	-0.253142	0.000089
C80	C	0.759605	0.246858	0.500089
C81	C	0.191185	-0.307816	0.000100
C82	C	0.691185	0.192184	0.500100
N83	N	0.136922	-0.439794	0.000097
N84	N	0.636922	0.060206	0.500097
N85	N	0.198002	-0.390972	0.000097
N86	N	0.698002	0.109028	0.500097
N87	N	0.158199	-0.925782	-0.205203
N88	N	0.658199	-0.425782	0.294797
C89	C	0.128193	-0.959299	0.250794
C90	C	0.628193	-0.459299	0.750794
C91	C	0.132294	-0.954714	0.341601
C92	C	0.632294	-0.454714	0.841601
C93	C	0.184929	-0.895827	0.387004
C94	C	0.684929	-0.395827	0.887004
C95	C	0.233461	-0.841515	0.341595
C96	C	0.733461	-0.341515	0.841595
C97	C	0.229356	-0.846097	0.250789
C98	C	0.729356	-0.346097	0.750789
C99	C	0.202627	-0.876052	0.658582
C100	C	0.702627	-0.376052	1.158582
C101	C	0.206730	-0.871476	0.749394
C102	C	0.706730	-0.371476	1.249394
C103	C	0.105561	-0.984675	0.749394
C104	C	0.605561	-0.484675	1.249394
C105	C	0.101463	-0.989254	0.658587
C106	C	0.601463	-0.489254	1.158587
C107	C	0.149993	-0.934940	0.613186
C108	C	0.649993	-0.434940	1.113186
N109	N	0.189123	-0.891141	0.479823
N110	N	0.689123	-0.391141	0.979823
N111	N	0.145794	-0.939623	0.520368
N112	N	0.645794	-0.439623	1.020368
H113	H	-0.064379	-0.804860	0.000079
H114	H	0.435621	-0.304860	0.500079
H115	H	0.308647	-0.127262	0.000094
H116	H	0.808647	0.372738	0.500094
H117	H	-0.214811	-0.811985	0.000076
H118	H	0.285189	-0.311985	0.500076
Cl119	Cl	-0.621247	-1.058558	0.000095
Cl120	Cl	-0.121247	-0.558558	0.500095
H121	H	0.014185	-0.555905	0.000114
H122	H	0.514185	-0.055905	0.500114
Cl123	Cl	0.062023	-1.033337	0.193726
Cl124	Cl	0.562023	-0.533337	0.693726
Cl125	Cl	0.030089	-0.349866	0.000125
Cl126	Cl	0.530089	0.150134	0.500125
Cl127	Cl	0.263636	-0.807776	0.601512
Cl128	Cl	0.763636	-0.307776	1.101512
H129	H	0.092776	-0.998934	0.378568
H130	H	0.592776	-0.498934	0.878568
H131	H	0.066049	-1.028894	0.786368
H132	H	0.566049	-0.528894	1.286368
Cl133	Cl	0.015046	-0.166247	0.000148
Cl134	Cl	0.515046	0.333753	0.500148
Cl135	Cl	-0.004025	-0.727721	0.000096
Cl136	Cl	0.495975	-0.227721	0.500096
Cl137	Cl	0.290366	-0.777820	0.193712
Cl138	Cl	0.790366	-0.277820	0.693712
H139	H	-0.450264	-1.018790	0.000110
H140	H	0.049736	-0.518790	0.500110
H141	H	-0.232704	-1.072330	0.000127
H142	H	0.267296	-0.572330	0.500127
Cl143	Cl	0.035294	-1.063286	0.601509
Cl144	Cl	0.535294	-0.563286	1.101509
Cl145	Cl	-0.411826	-0.725791	0.000048
Cl146	Cl	0.088174	-0.225791	0.500048
Cl147	Cl	0.272908	-0.797439	0.806466
Cl148	Cl	0.772908	-0.297439	1.306466
H149	H	-0.082259	-1.065212	0.000129
H150	H	0.417741	-0.565212	0.500129
H151	H	0.276315	-0.793564	0.378567
H152	H	0.776315	-0.293564	0.878567
Cl153	Cl	0.319881	-0.664514	0.000046
Cl154	Cl	0.819881	-0.164514	0.500046
Cl155	Cl	0.304832	-0.480898	0.000067
Cl156	Cl	0.804832	0.019102	0.500067
Cl157	Cl	0.353998	-0.286674	0.000071
Cl158	Cl	0.853998	0.213326	0.500071
Cl159	Cl	-0.598994	-0.734652	0.000049
Cl160	Cl	-0.098994	-0.234652	0.500049
