data_functionalizedCrystal
_audit_creation_method	'MofGen! by Chris Wilmer'
_symmetry_space_group_name_H-M	'P1'
_symmetry_Int_Tables_number	1
_symmetry_cell_setting	triclinic
loop_
_symmetry_equiv_pos_as_xyz
  x,y,z
_cell_length_a	8.559649
_cell_length_b	11.792254
_cell_length_c	7.681481
_cell_angle_alpha	84.218036
_cell_angle_beta	94.913240
_cell_angle_gamma	76.988631
loop_
_atom_site_label
_atom_site_type_symbol
_atom_site_fract_x
_atom_site_fract_y
_atom_site_fract_z
O1	O	2.104792	-0.026423	-0.146400
O2	O	2.438126	0.306910	0.186933
O3	O	2.771459	0.640243	0.520267
O4	O	1.640099	0.032147	-0.146410
O5	O	1.973432	0.365481	0.186923
O6	O	2.306765	0.698814	0.520256
O7	O	1.883713	-0.163340	-0.146392
O8	O	2.217046	0.169993	0.186941
O9	O	2.550380	0.503327	0.520274
O10	O	1.861178	0.169064	-0.146418
O11	O	2.194511	0.502397	0.186916
O12	O	2.527845	0.835731	0.520249
O13	O	1.913698	-0.187450	0.146468
O14	O	2.247031	0.145884	0.479801
O15	O	2.580364	0.479217	0.813134
O16	O	1.670083	0.008038	0.146450
O17	O	2.003416	0.341371	0.479783
O18	O	2.336750	0.674704	0.813116
O19	O	2.134777	-0.050533	0.146460
O20	O	2.468110	0.282800	0.479793
O21	O	2.801444	0.616134	0.813127
Zn22	Zn	1.907191	-0.025076	0.192953
Zn23	Zn	2.240524	0.308258	0.526286
Zn24	Zn	2.573857	0.641591	0.859619
Zn25	Zn	1.867685	0.006690	-0.192903
Zn26	Zn	2.201018	0.340023	0.140430
Zn27	Zn	2.534352	0.673357	0.473764
O28	O	1.891162	0.144954	0.146442
O29	O	2.224496	0.478288	0.479775
O30	O	2.557829	0.811621	0.813109
C31	C	1.595600	0.024531	0.000018
C32	C	1.928933	0.357864	0.333352
C33	C	2.262266	0.691198	0.666685
C34	C	1.418334	0.037743	0.000015
C35	C	1.751668	0.371077	0.333348
C36	C	2.085001	0.704410	0.666681
C37	C	1.897286	-0.217555	0.000037
C38	C	2.230619	0.115778	0.333370
C39	C	2.563953	0.449111	0.666704
C40	C	1.893037	-0.343179	0.000035
C41	C	2.226371	-0.009846	0.333369
C42	C	2.559704	0.323487	0.666702
C43	C	1.889585	-0.445200	0.000029
C44	C	2.222918	-0.111866	0.333362
C45	C	2.556251	0.221467	0.666696
C46	C	1.885267	-0.573190	0.000013
C47	C	2.218600	-0.239856	0.333346
C48	C	2.551933	0.093477	0.666679
C49	C	2.179276	-0.042916	0.000027
C50	C	2.512609	0.290417	0.333361
C51	C	2.845942	0.623750	0.666694
C52	C	2.356540	-0.056128	0.000020
C53	C	2.689873	0.277206	0.333353
C54	C	3.023206	0.610539	0.666686
C55	C	1.877589	0.199170	0.000009
C56	C	2.210923	0.532503	0.333342
C57	C	2.544256	0.865837	0.666676
C58	C	1.881837	0.324795	-0.000001
C59	C	2.215170	0.658128	0.333332
C60	C	2.548503	0.991462	0.666666
N61	N	1.934164	-0.046757	0.456289
N62	N	2.267497	0.286577	0.789622
N63	N	2.600831	0.619910	1.122956
N64	N	1.840724	0.028361	-0.456239
N65	N	2.174057	0.361694	-0.122906
N66	N	2.507391	0.695027	0.210428
H67	H	1.439247	-0.146602	0.000018
H68	H	1.772580	0.186731	0.333351
H69	H	2.105913	0.520064	0.666684
H70	H	2.029565	-0.123427	0.531502
H71	H	2.362899	0.209906	0.864835
H72	H	2.696232	0.543239	1.198168
H73	H	1.335617	0.128225	-0.000002
H74	H	1.668950	0.461559	0.333332
H75	H	2.002283	0.794892	0.666665
H76	H	1.745341	0.105034	0.468557
H77	H	2.078674	0.438367	0.801890
H78	H	2.412007	0.771700	1.135224
