data_functionalizedCrystal
_audit_creation_method	'MofGen! by Chris Wilmer'
_symmetry_space_group_name_H-M	'P1'
_symmetry_Int_Tables_number	1
_symmetry_cell_setting	triclinic
loop_
_symmetry_equiv_pos_as_xyz
  x,y,z
_cell_length_a	16.120530
_cell_length_b	19.077068
_cell_length_c	16.120728
_cell_angle_alpha	84.936240
_cell_angle_beta	89.860094
_cell_angle_gamma	89.537851
loop_
_atom_site_label
_atom_site_type_symbol
_atom_site_fract_x
_atom_site_fract_y
_atom_site_fract_z
Zn1	Zn	1.229521	-0.356649	0.550595
Zn2	Zn	1.230903	-0.468632	0.416574
Zn3	Zn	1.098135	-0.344718	0.403978
Zn4	Zn	1.084865	-0.468020	0.548515
O5	O	1.160856	-0.409505	0.479916
O6	O	1.345807	-0.376753	0.538959
O7	O	1.219423	-0.447458	0.298326
O8	O	1.120538	-0.247833	0.419027
O9	O	1.346823	-0.459027	0.440495
O10	O	1.217067	-0.256599	0.526746
O11	O	1.121879	-0.356419	0.289072
O12	O	0.980272	-0.355825	0.417009
O13	O	1.097922	-0.457983	0.665368
O14	O	0.970523	-0.446414	0.523200
O15	O	1.204200	-0.376159	0.666897
O16	O	1.206556	-0.567019	0.438477
O17	O	1.099263	-0.566569	0.535413
C18	C	1.151641	-0.592327	0.488106
C19	C	1.147773	-0.670544	0.491641
C20	C	0.945293	-0.399759	0.468512
C21	C	0.853072	-0.395608	0.463654
C22	C	1.201857	-0.707504	0.442879
C23	C	1.198224	-0.780998	0.446210
C24	C	1.140502	-0.817528	0.498298
C25	C	1.086416	-0.780562	0.547066
C26	C	1.090054	-0.707071	0.543739
C27	C	1.123632	-1.037302	0.513659
C28	C	1.119997	-1.110798	0.516980
C29	C	1.231806	-1.111229	0.416124
C30	C	1.235435	-1.037735	0.412799
C31	C	1.181352	-1.000776	0.461569
N32	N	1.136786	-0.892650	0.501702
N33	N	1.185073	-0.925656	0.458170
C34	C	0.684224	-0.388013	0.454792
C35	C	0.638323	-0.431051	0.505103
C36	C	0.544370	-0.426825	0.500172
C37	C	0.778186	-0.392238	0.459722
C38	C	1.377261	-0.419289	0.491364
C39	C	1.469480	-0.423458	0.496243
C40	C	1.149427	-0.418333	0.697205
C41	C	1.144556	-0.422095	0.789800
C42	C	1.170129	-0.225971	0.471713
C43	C	1.174080	-0.147759	0.468218
C44	C	1.135634	-0.428947	0.959331
C45	C	1.186049	-0.390129	1.001353
C46	C	1.181085	-0.393941	1.095686
C47	C	1.140597	-0.425136	0.864990
C48	C	1.172240	-0.400730	1.263473
C49	C	1.177130	-0.396978	1.170879
H50	H	1.248857	-0.677766	0.400459
H51	H	0.669588	-0.471071	0.551881
H52	H	1.232938	-0.354031	0.966483
N53	N	0.644997	-0.337812	0.396119
N54	N	0.567623	-0.334412	0.392150
H55	H	0.539910	-0.298960	0.350712
N56	N	1.076806	-0.474217	1.003074
N57	N	1.022689	-0.448986	1.047734
H58	H	0.981142	-0.480956	1.078640
N59	N	1.253487	-0.818742	0.396408
N60	N	1.305023	-0.786118	0.349908
H61	H	1.344060	-0.812774	0.314737
H62	H	1.039422	-0.810312	0.589481
N63	N	1.034820	-0.669314	0.593560
N64	N	1.035818	-0.680860	0.671093
H65	H	0.996811	-0.654194	0.706284
N66	N	1.294387	-1.000437	0.359566
N67	N	1.292562	-1.005327	0.282780
H68	H	1.334194	-0.978989	0.245174
N69	N	1.287040	-1.148993	0.366314
N70	N	1.283786	-1.214609	0.369287
H71	H	1.322799	-1.241282	0.334108
H72	H	1.079594	-1.007215	0.553368
N73	N	1.061021	-1.148103	0.570188
N74	N	1.012734	-1.115097	0.613725
H75	H	0.971081	-1.141443	0.651298
