data_functionalizedCrystal
_audit_creation_method	'MofGen! by Chris Wilmer'
_symmetry_space_group_name_H-M	'P1'
_symmetry_Int_Tables_number	1
_symmetry_cell_setting	triclinic
loop_
_symmetry_equiv_pos_as_xyz
  x,y,z
_cell_length_a	14.044220
_cell_length_b	16.992694
_cell_length_c	16.053811
_cell_angle_alpha	92.751328
_cell_angle_beta	92.799878
_cell_angle_gamma	88.071450
loop_
_atom_site_label
_atom_site_type_symbol
_atom_site_fract_x
_atom_site_fract_y
_atom_site_fract_z
O1	O	0.198305	-1.057565	-0.069327
O2	O	0.196087	-0.829126	-0.069352
O3	O	0.058952	-0.939916	-0.069331
O4	O	0.335440	-0.946774	-0.069347
O5	O	0.066468	-0.933815	0.069526
O6	O	0.203603	-0.823024	0.069506
O7	O	0.205821	-1.051463	0.069531
Zn8	Zn	0.205905	-0.936275	0.091565
Zn9	Zn	0.196003	-0.944314	-0.091386
O10	O	0.342956	-0.940673	0.069511
C11	C	0.196993	-0.796663	0.000074
C12	C	0.188484	-0.709024	0.000065
C13	C	0.027168	-0.933863	0.000098
C14	C	-0.078736	-0.924909	0.000098
N15	N	0.212663	-0.930795	0.216425
C16	C	-0.272638	-0.908540	0.000084
C17	C	-0.325460	-0.972046	0.000088
C18	C	-0.433354	-0.962938	0.000080
C19	C	-0.164734	-0.917647	0.000091
C20	C	0.374740	-0.946726	0.000080
C21	C	0.480643	-0.955680	0.000074
C22	C	0.204915	-1.083926	0.000103
C23	C	0.213424	-1.171565	0.000107
C24	C	0.270580	-0.664526	0.000061
C25	C	0.262581	-0.582179	0.000073
C26	C	0.172483	-0.544333	0.000083
C27	C	0.090381	-0.588837	0.000090
C28	C	0.098382	-0.671182	0.000084
C29	C	0.139322	-0.298414	0.000107
C30	C	0.131327	-0.216063	0.000111
C31	C	0.303528	-0.209412	0.000096
C32	C	0.311521	-0.291759	0.000085
C33	C	0.229419	-0.336255	0.000096
N34	N	0.164304	-0.460161	0.000093
N35	N	0.237599	-0.420425	0.000092
C36	C	0.154336	-0.977956	0.260127
C37	C	0.159073	-0.974130	0.347533
C38	C	0.222142	-0.923147	0.391235
C39	C	0.280472	-0.875980	0.347526
C40	C	0.275730	-0.879802	0.260122
C41	C	0.242830	-0.906450	0.652642
C42	C	0.247570	-0.902633	0.740052
C43	C	0.126169	-1.000783	0.740053
C44	C	0.121436	-1.004604	0.652647
C45	C	0.179762	-0.957434	0.608946
N46	N	0.226988	-0.919237	0.480578
N47	N	0.174911	-0.961340	0.519604
N48	N	0.189243	-0.949794	0.783755
H49	H	-0.289655	-1.033258	0.000039
H50	H	0.298933	-0.861113	0.775630
H51	H	0.331821	-0.834464	0.383114
O52	O	-0.320057	-0.827462	0.000088
H53	H	-0.398587	-0.832942	0.000095
H54	H	0.343947	-0.695334	0.000052
O55	O	0.351126	-0.534182	0.000069
H56	H	0.415120	-0.574333	0.000051
H57	H	0.384887	-0.322568	0.000067
O58	O	0.086302	-1.032935	0.212986
H59	H	0.104034	-1.094504	0.229747
O60	O	0.050768	-0.346396	0.000118
H61	H	0.047226	-0.386557	-0.056475
H62	H	0.370371	-0.173174	0.000089
H63	H	0.057955	-0.185251	0.000118
H64	H	0.017022	-0.558015	0.000110
O65	O	0.305748	-0.855581	0.605518
H66	H	0.291853	-0.866794	0.537398
O67	O	0.338643	-0.828940	0.212979
H68	H	0.383304	-0.792851	0.258050
H69	H	0.031530	-0.707411	0.000086
H70	H	0.111577	-1.012532	0.383115
H71	H	0.070080	-1.046119	0.617066
O72	O	0.063253	-1.051650	0.787185
H73	H	0.077137	-1.040425	0.855305
