data_functionalizedCrystal
_audit_creation_method	'MofGen! by Chris Wilmer'
_symmetry_space_group_name_H-M	'P1'
_symmetry_Int_Tables_number	1
_symmetry_cell_setting	triclinic
loop_
_symmetry_equiv_pos_as_xyz
  x,y,z
_cell_length_a	27.732048
_cell_length_b	27.732048
_cell_length_c	12.503572
_cell_angle_alpha	93.489054
_cell_angle_beta	86.516589
_cell_angle_gamma	82.642655
loop_
_atom_site_label
_atom_site_type_symbol
_atom_site_fract_x
_atom_site_fract_y
_atom_site_fract_z
O1	O	0.643731	0.054704	-0.089192
O2	O	1.143731	0.554704	0.410808
O3	O	0.502939	0.063448	-0.089227
O4	O	1.002939	0.563448	0.410773
O5	O	0.577707	-0.011320	-0.089188
O6	O	1.077707	0.488680	0.410812
O7	O	0.568963	0.129472	-0.089231
O8	O	1.068963	0.629472	0.410769
O9	O	0.572084	-0.005688	0.089451
O10	O	1.072084	0.494312	0.589451
O11	O	0.497316	0.069080	0.089412
O12	O	0.997316	0.569080	0.589412
O13	O	0.638108	0.060336	0.089447
O14	O	1.138108	0.560336	0.589447
Cu15	Cu	0.567199	0.065222	0.105741
Cu16	Cu	1.067199	0.565222	0.605741
Cu17	Cu	0.573849	0.058562	-0.105521
Cu18	Cu	1.073849	0.558562	0.394479
O19	O	0.563340	0.135104	0.089408
O20	O	1.063340	0.635104	0.589408
C21	C	0.482121	0.066081	0.000089
C22	C	0.982121	0.566081	0.500089
C23	C	0.428466	0.065527	0.000077
C24	C	0.928466	0.565527	0.500077
C25	C	0.089650	0.106232	0.000111
C26	C	0.589650	0.606232	0.500111
C27	C	-0.112010	0.104182	0.000121
C28	C	0.387990	0.604182	0.500121
O29	O	-0.143267	0.141403	0.000156
O30	O	0.356733	0.641403	0.500156
N31	N	-0.131134	0.059847	0.000133
N32	N	0.368866	0.559847	0.500133
C33	C	-0.099840	0.016022	0.000149
C34	C	0.400160	0.516022	0.500149
O35	O	-0.120734	-0.021735	0.000170
O36	O	0.379266	0.478265	0.500170
C37	C	0.101819	0.018073	0.000146
C38	C	0.601819	0.518073	0.500146
C39	C	0.120940	0.062410	0.000124
C40	C	0.620940	0.562410	0.500124
C41	C	0.108772	0.150566	0.000089
C42	C	0.608772	0.650566	0.500089
C43	C	0.159184	0.151078	0.000081
C44	C	0.659184	0.651078	0.500081
C45	C	0.190475	0.107256	0.000094
C46	C	0.690475	0.607256	0.500094
C47	C	0.171353	0.062922	0.000115
C48	C	0.671353	0.562922	0.500115
C49	C	0.133112	-0.025751	0.000170
C50	C	0.633112	0.474249	0.500170
C51	C	0.183529	-0.025234	0.000172
C52	C	0.683529	0.474766	0.500172
C53	C	0.202651	0.019103	0.000150
C54	C	0.702651	0.519103	0.500150
C55	C	0.253055	0.019613	0.000120
C56	C	0.753055	0.519613	0.500120
N57	N	0.272179	0.063948	0.000108
N58	N	0.772179	0.563948	0.500108
C59	C	0.240889	0.107769	0.000095
C60	C	0.740889	0.607769	0.500095
C61	C	-0.205714	0.014948	0.000148
C62	C	0.294286	0.514948	0.500148
C63	C	-0.256128	0.014435	0.000147
C64	C	0.243872	0.514435	0.500147
C65	C	-0.268295	0.102595	0.000121
C66	C	0.231705	0.602595	0.500121
C67	C	-0.217879	0.103107	0.000115
C68	C	0.282121	0.603107	0.500115
C69	C	-0.186590	0.059283	0.000136
C70	C	0.313410	0.559283	0.500136
C71	C	0.346759	0.108841	0.000077
C72	C	0.846759	0.608841	0.500077
C73	C	0.397176	0.109349	0.000064
C74	C	0.897176	0.609349	0.500064
C75	C	0.409338	0.021189	0.000095
C76	C	0.909338	0.521189	0.500095
C77	C	0.358925	0.020681	0.000102
C78	C	0.858925	0.520681	0.500102
C79	C	0.327636	0.064511	0.000097
C80	C	0.827636	0.564511	0.500097
O81	O	0.284340	-0.017589	0.000097
O82	O	0.784340	0.482411	0.500097
O83	O	0.261791	0.145521	0.000098
O84	O	0.761791	0.645521	0.500098
C85	C	0.039238	0.105720	0.000119
C86	C	0.539238	0.605720	0.500119
C87	C	0.020116	0.061386	0.000141
C88	C	0.520116	0.561386	0.500141
C89	C	0.051406	0.017565	0.000153
C90	C	0.551406	0.517565	0.500153
C91	C	-0.030298	0.060873	0.000139
C92	C	0.469702	0.560873	0.500139
C93	C	-0.061589	0.104695	0.000126
C94	C	0.438411	0.604695	0.500126
C95	C	-0.042465	0.149030	0.000115
C96	C	0.457535	0.649030	0.500115
C97	C	0.007948	0.149542	0.000106
C98	C	0.507948	0.649542	0.500106
C99	C	0.032282	-0.026770	0.000165
C100	C	0.532282	0.473230	0.500165
C101	C	-0.018131	-0.027279	0.000172
C102	C	0.481869	0.472721	0.500172
C103	C	-0.049421	0.016543	0.000159
C104	C	0.450579	0.516543	0.500159
C105	C	0.574712	-0.026511	0.000134
C106	C	1.074712	0.473489	0.500134
C107	C	0.574159	-0.080165	0.000143
C108	C	1.074159	0.419835	0.500143
C109	C	0.614864	-0.418982	0.000098
C110	C	1.114864	0.081018	0.500098
C111	C	0.612814	-0.620642	0.000082
C112	C	1.112814	-0.120642	0.500082
O113	O	0.650036	-0.651899	0.000044
O114	O	1.150036	-0.151899	0.500044
N115	N	0.568479	-0.639766	0.000073
N116	N	1.068479	-0.139766	0.500073
C117	C	0.524654	-0.608472	0.000060
C118	C	1.024654	-0.108472	0.500060
O119	O	0.486897	-0.629366	0.000040
O120	O	0.986897	-0.129366	0.500040
C121	C	0.526705	-0.406813	0.000067
C122	C	1.026705	0.093187	0.500067
C123	C	0.571042	-0.387692	0.000088
C124	C	1.071042	0.112308	0.500088
C125	C	0.659198	-0.399860	0.000117
C126	C	1.159198	0.100140	0.500117
C127	C	0.659710	-0.349448	0.000127
C128	C	1.159710	0.150552	0.500127
C129	C	0.615888	-0.318157	0.000117
C130	C	1.115888	0.181843	0.500117
C131	C	0.571554	-0.337279	0.000098
C132	C	1.071554	0.162721	0.500098
C133	C	0.482881	-0.375520	0.000047
C134	C	0.982881	0.124480	0.500047
C135	C	0.483397	-0.325103	0.000046
C136	C	0.983397	0.174897	0.500046
C137	C	0.527735	-0.305981	0.000067
C138	C	1.027735	0.194019	0.500067
C139	C	0.528244	-0.255577	0.000098
C140	C	1.028244	0.244423	0.500098
N141	N	0.572579	-0.236453	0.000108
N142	N	1.072579	0.263547	0.500108
C143	C	0.616401	-0.267743	0.000117
C144	C	1.116401	0.232257	0.500117
C145	C	0.523580	-0.714346	0.000058
C146	C	1.023580	-0.214346	0.500058
C147	C	0.523067	-0.764760	0.000058
C148	C	1.023067	-0.264760	0.500058
C149	C	0.611227	-0.776927	0.000078
C150	C	1.111227	-0.276927	0.500078
C151	C	0.611739	-0.726512	0.000086
C152	C	1.111739	-0.226512	0.500086
C153	C	0.567915	-0.695222	0.000067
C154	C	1.067915	-0.195222	0.500067
C155	C	0.617473	-0.161873	0.000139
C156	C	1.117473	0.338127	0.500139
C157	C	0.617981	-0.111456	0.000153
C158	C	1.117981	0.388544	0.500153
C159	C	0.529821	-0.099294	0.000126
C160	C	1.029821	0.400706	0.500126
C161	C	0.529313	-0.149706	0.000118
C162	C	1.029313	0.350294	0.500118
C163	C	0.573143	-0.180996	0.000120
C164	C	1.073143	0.319004	0.500120
O165	O	0.491043	-0.224292	0.000124
O166	O	0.991043	0.275708	0.500124
O167	O	0.654153	-0.246841	0.000113
O168	O	1.154153	0.253159	0.500113
C169	C	0.614352	-0.469394	0.000088
C170	C	1.114352	0.030606	0.500088
C171	C	0.570018	-0.488516	0.000069
C172	C	1.070018	0.011484	0.500069
C173	C	0.526197	-0.457226	0.000059
C174	C	1.026197	0.042774	0.500059
C175	C	0.569505	-0.538930	0.000069
C176	C	1.069505	-0.038930	0.500069
C177	C	0.613327	-0.570221	0.000078
C178	C	1.113327	-0.070221	0.500078
C179	C	0.657662	-0.551097	0.000088
C180	C	1.157662	-0.051097	0.500088
C181	C	0.658174	-0.500685	0.000098
C182	C	1.158174	-0.000685	0.500098
C183	C	0.481862	-0.476350	0.000049
C184	C	0.981862	0.023650	0.500049
C185	C	0.481353	-0.526763	0.000041
C186	C	0.981353	-0.026763	0.500041
C187	C	0.525175	-0.558053	0.000050
C188	C	1.025175	-0.058053	0.500050
C189	C	0.658927	0.057703	0.000129
C190	C	1.158927	0.557703	0.500129
C191	C	0.712582	0.058256	0.000134
C192	C	1.212582	0.558256	0.500134
C193	C	0.566335	0.150295	0.000083
C194	C	1.066335	0.650295	0.500083
C195	C	0.566889	0.203949	0.000067
C196	C	1.066889	0.703949	0.500067
N197	N	0.562525	0.069907	0.254331
N198	N	1.062525	0.569907	0.754331
N199	N	0.578526	0.053873	-0.254111
N200	N	1.078526	0.553873	0.245889
C201	C	0.555650	0.076802	0.473442
C202	C	1.055650	0.576802	0.973442
C203	C	0.585400	0.046980	0.526785
C204	C	1.085400	0.546980	1.026785
C205	C	0.581574	0.050816	0.648706
C206	C	1.081574	0.550816	1.148706
C207	C	0.559475	0.072966	0.351510
C208	C	1.059475	0.572966	0.851510
H209	H	0.321288	0.144532	0.000075
H210	H	0.821288	0.644532	0.500075
H211	H	0.527309	0.105214	0.519335
H212	H	1.027309	0.605214	1.019335
H213	H	0.654087	-0.095890	0.000172
H214	H	1.154087	0.404110	0.500172
F215	F	0.622590	0.009985	0.466797
F216	F	1.122590	0.509985	0.966797
F217	F	0.417523	0.156541	0.000036
F218	F	0.917523	0.656541	0.500036
F219	F	0.705365	-0.480341	0.000113
F220	F	1.205365	0.019659	0.500113
H221	H	0.647843	-0.710947	0.000102
H222	H	1.147843	-0.210947	0.500102
F223	F	0.704301	-0.584407	0.000104
F224	F	1.204301	-0.084407	0.500104
F225	F	0.442648	-0.025446	0.000111
F226	F	0.942648	0.474554	0.500111
F227	F	0.434160	-0.547106	0.000026
F228	F	0.934160	-0.047106	0.500026
H229	H	0.023511	0.185646	0.000089
H230	H	0.523511	0.685646	0.500089
F231	F	0.706901	-0.329105	0.000126
F232	F	1.206901	0.170895	0.500126
F233	F	0.216827	-0.071880	0.000198
F234	F	0.716827	0.428120	0.500198
F235	F	0.075477	0.197212	0.000076
F236	F	0.575477	0.697212	0.500076
F237	F	0.179528	0.198268	0.000062
F238	F	0.679528	0.698268	0.500062
F239	F	-0.197534	0.150296	0.000093
F240	F	0.302466	0.650296	0.500093
H241	H	0.694885	-0.425332	0.000121
H242	H	1.194885	0.074668	0.500121
H243	H	-0.293780	0.138276	0.000111
H244	H	0.206220	0.638276	0.500111
F245	F	-0.276472	-0.032756	0.000147
F246	F	0.223528	0.467244	0.500147
F247	F	-0.075775	0.195668	0.000095
F248	F	0.424225	0.695668	0.500095
H249	H	-0.180242	-0.020742	0.000166
H250	H	0.319758	0.479258	0.500166
H251	H	0.117552	-0.061855	0.000189
H252	H	0.617552	0.438145	0.500189
H253	H	0.343357	-0.015423	0.000105
H254	H	0.843357	0.484577	0.500105
H255	H	-0.033694	-0.063386	0.000182
H256	H	0.466306	0.436614	0.500182
F257	F	0.065578	-0.073414	0.000181
F258	F	0.565578	0.426586	0.500181
H259	H	0.646909	-0.802413	0.000087
H260	H	1.146909	-0.302413	0.500087
F261	F	0.664122	-0.195167	0.000141
F262	F	1.164122	0.304833	0.500141
H263	H	0.486962	-0.780324	0.000060
H264	H	0.986962	-0.280324	0.500060
F265	F	0.435690	-0.395859	0.000020
F266	F	0.935690	0.104141	0.500020
F267	F	0.476932	-0.681050	0.000038
F268	F	0.976932	-0.181050	0.500038
H269	H	0.447709	-0.299628	0.000029
H270	H	0.947709	0.200372	0.500029
H271	H	0.494142	-0.073808	0.000122
H272	H	0.994142	0.426192	0.500122
F273	F	0.482124	-0.170057	0.000115
F274	F	0.982124	0.329943	0.500115
H275	H	0.446176	-0.450877	0.000039
H276	H	0.946176	0.049123	0.500039
