data_functionalizedCrystal
_audit_creation_method	'MofGen! by Chris Wilmer'
_symmetry_space_group_name_H-M	'P1'
_symmetry_Int_Tables_number	1
_symmetry_cell_setting	triclinic
loop_
_symmetry_equiv_pos_as_xyz
  x,y,z
_cell_length_a	14.395555
_cell_length_b	14.395555
_cell_length_c	14.560438
_cell_angle_alpha	59.997053
_cell_angle_beta	90.000925
_cell_angle_gamma	60.002087
loop_
_atom_site_label
_atom_site_type_symbol
_atom_site_fract_x
_atom_site_fract_y
_atom_site_fract_z
Zr1	Zr	0.894858	1.016886	-0.120624
O2	O	0.746530	1.210684	-0.267282
O3	O	0.940331	0.823082	-0.075655
O4	O	0.940325	1.016887	-0.267272
O5	O	0.746538	1.016880	0.075474
O6	O	1.093193	1.016894	-0.267275
O7	O	0.746535	1.016879	-0.075665
O8	O	1.093202	0.670212	0.075493
O9	O	0.746528	1.363562	-0.267294
O10	O	1.073805	0.902803	-0.056491
O11	O	0.959724	0.902798	0.056305
O12	O	0.959717	1.130979	-0.169299
O13	O	0.845636	1.130974	-0.056503
Zr14	Zr	1.138668	1.016897	0.120420
Zr15	Zr	1.138664	1.016897	-0.120629
Zr16	Zr	0.894862	1.016886	0.120426
Zr17	Zr	0.894855	1.260708	-0.120642
Zr18	Zr	1.138671	0.773075	0.120439
O19	O	1.093195	1.210701	0.075451
O20	O	1.093190	1.210700	-0.267290
O21	O	0.746535	1.210686	0.075459
O22	O	1.286996	0.823099	0.267079
O23	O	1.286991	0.823097	-0.075663
O24	O	0.940336	0.823083	0.267087
O25	O	1.286988	1.016903	-0.075678
O26	O	1.093201	1.016896	0.267069
O27	O	0.940334	1.016889	0.267072
O28	O	1.286991	1.016904	0.075462
O29	O	0.940321	1.363571	-0.267298
O30	O	1.093205	0.670212	0.267095
O31	O	1.286998	0.670221	0.267091
O32	O	1.286995	0.670220	0.075488
O33	O	0.746531	1.363563	-0.075692
O34	O	0.940324	1.363571	-0.075696
O35	O	1.073809	0.902804	0.169096
O36	O	1.187890	0.902809	0.056300
O37	O	1.073802	1.130985	-0.056508
O38	O	0.959721	1.130980	0.056288
C39	C	1.016767	0.711907	-0.000078
C40	C	1.016769	0.608398	-0.000070
C41	C	0.954551	0.485924	0.061393
C42	C	1.061825	0.471650	0.106000
C43	C	0.909514	0.624011	-0.044625
C44	C	1.124096	0.409685	0.044535
C45	C	0.971707	0.562109	-0.106148
C46	C	1.079046	0.547788	-0.061568
C47	C	0.711800	1.016878	-0.000095
C48	C	0.608298	1.016873	-0.000092
C49	C	0.609915	0.892461	0.061414
C50	C	0.516899	0.954656	0.105985
C51	C	0.516885	0.954684	-0.044631
C52	C	0.516645	1.079068	0.044541
C53	C	0.516646	1.079079	-0.106134
C54	C	0.423612	1.141364	-0.061590
C55	C	1.321727	1.016905	-0.000109
C56	C	1.425229	1.016910	-0.000111
C57	C	1.016758	1.016891	-0.301618
C58	C	1.016757	1.016890	-0.403950
C59	C	1.016759	1.321876	-0.000125
C60	C	1.016758	1.425385	-0.000133
C61	C	0.932548	1.016889	-0.548187
C62	C	0.932544	1.016883	-0.452032
C63	C	1.100986	1.016890	-0.452021
C64	C	1.100995	1.016887	-0.548170
C65	C	1.016768	1.016893	0.301415
C66	C	1.016769	1.016893	0.403747
C67	C	1.321731	0.711921	-0.000085
C68	C	1.425234	0.608417	-0.000080
C69	C	1.016772	0.711908	0.301438
C70	C	1.016775	0.608400	0.403778
C71	C	1.321735	0.711922	0.301431
C72	C	1.425240	0.608418	0.403768
C73	C	0.711791	1.321861	-0.301634
C74	C	0.608286	1.425365	-0.403972
C75	C	0.711796	1.321862	-0.000118
C76	C	0.608292	1.425366	-0.000123
C77	C	1.016754	1.321875	-0.301641
C78	C	1.016751	1.425383	-0.403981
C79	C	1.414312	0.559785	-0.058950
C80	C	1.511568	0.462540	-0.058949
C81	C	1.630665	0.462563	0.058802
C82	C	1.533410	0.559813	0.058794
C83	C	1.076326	0.559772	0.510733
C84	C	1.076316	0.462524	0.606888
C85	C	0.957201	0.462536	0.489120
C86	C	0.957206	0.559789	0.392967
C87	C	1.533416	0.559792	0.392971
C88	C	1.630666	0.462548	0.489132
C89	C	1.511550	0.462560	0.606884
C90	C	1.414303	0.559810	0.510724
H91	H	1.099962	0.434381	0.195693
H92	H	1.169583	1.016885	-0.587306
H93	H	0.689672	0.787260	0.113497
O94	O	1.232388	0.300471	0.089746
C95	C	1.402501	0.128821	0.252351
C96	C	1.279890	0.252509	0.201278
H97	H	1.440934	0.089991	0.342540
H98	H	1.455726	0.154540	0.200414
H99	H	1.401582	0.050306	0.251929
H100	H	1.280701	0.331079	0.201693
H101	H	1.226716	0.226686	0.253230
H102	H	1.326234	0.599367	-0.106901
H103	H	1.131730	0.574758	-0.113560
O104	O	0.850617	1.016942	-0.405514
C105	C	0.683582	1.016863	-0.415642
C106	C	0.776284	1.016830	-0.468453
H107	H	0.623474	1.016745	-0.466491
H108	H	0.633573	1.108326	-0.415869
H109	H	0.725127	0.925440	-0.325404
H110	H	0.734832	1.108191	-0.558709
H111	H	0.826284	0.925306	-0.468138
H112	H	0.908704	0.422943	0.480331
O113	O	0.801377	0.733383	-0.089487
C114	C	0.680353	0.954560	-0.140747
C115	C	0.802870	0.830784	-0.089906
H116	H	0.681522	1.033350	-0.141124
H117	H	0.627400	0.929093	-0.088208
H118	H	0.641438	0.992900	-0.230630
H119	H	0.841886	0.792381	-0.000032
H120	H	0.855743	0.856325	-0.142527
O121	O	1.501100	0.415067	-0.115966
C122	C	1.541724	0.225222	-0.105133
C123	C	1.553690	0.278803	-0.040426
H124	H	1.584214	0.115052	-0.044083
H125	H	1.584321	0.244248	-0.171978
H126	H	1.447695	0.276733	-0.147242
H127	H	1.647690	0.227327	0.001752
H128	H	1.511022	0.259796	0.026357
H129	H	0.902027	0.458664	0.113458
H130	H	0.517471	1.131612	0.082304
H131	H	0.863968	1.016892	-0.587333
H132	H	0.515974	0.902075	0.195656
H133	H	1.124827	0.599353	0.519542
O134	O	1.182786	1.016771	-0.405137
C135	C	1.337122	0.903665	-0.240637
C136	C	1.244540	0.903613	-0.293576
H137	H	1.387091	0.812173	-0.150440
H138	H	1.295591	0.995072	-0.240771
H139	H	1.397279	0.903750	-0.291549
H140	H	1.184354	0.903481	-0.242707
H141	H	1.286148	0.812214	-0.293459
H142	H	1.124807	0.422938	0.693973
O143	O	0.328640	1.266986	-0.123485
C144	C	0.220200	1.474455	-0.146489
C145	C	0.327789	1.332216	-0.076287
H146	H	0.219488	1.527242	-0.108370
H147	H	0.141421	1.473633	-0.146628
H148	H	0.220079	1.527820	-0.236502
H149	H	0.328020	1.278766	0.013757
H150	H	0.406520	1.333132	-0.076243
H151	H	0.517613	1.131614	-0.195786
H152	H	1.718752	0.422976	0.106737
O153	O	1.544220	0.606874	0.116084
C154	C	1.672603	0.596701	0.232821
C155	C	1.660529	0.543262	0.168019
H156	H	1.766632	0.545313	0.274808
H157	H	1.630120	0.577532	0.299751
H158	H	1.629981	0.706904	0.171804
H159	H	1.703157	0.433052	0.228949
H160	H	1.702981	0.562532	0.101074
O161	O	1.735814	0.415092	0.478798
C162	C	1.914745	0.225269	0.519004
C163	C	1.795705	0.278824	0.530806
H164	H	1.963192	0.115095	0.561024
H165	H	1.963297	0.244316	0.561127
H166	H	1.905839	0.276780	0.426040
H167	H	1.804506	0.227347	0.623741
H168	H	1.747196	0.259796	0.488612
O169	O	1.309272	0.607071	0.521354
C170	C	1.177680	0.716964	0.592497
C171	C	1.296666	0.663466	0.580567
H172	H	1.167441	0.762597	0.640349
H173	H	1.167399	0.633213	0.640505
H174	H	1.110076	0.794774	0.505385
H175	H	1.364342	0.585677	0.667632
H176	H	1.306849	0.747289	0.532502
H177	H	0.908706	0.599385	0.305873
H178	H	0.933567	0.599318	-0.195813
H179	H	0.515975	0.902079	-0.082291
H180	H	1.542328	0.599369	0.305887
H181	H	1.502659	0.422970	0.693977
