data_functionalizedCrystal
_audit_creation_method	'MofGen! by Chris Wilmer'
_symmetry_space_group_name_H-M	'P1'
_symmetry_Int_Tables_number	1
_symmetry_cell_setting	triclinic
loop_
_symmetry_equiv_pos_as_xyz
  x,y,z
_cell_length_a	13.032831
_cell_length_b	16.959454
_cell_length_c	13.033429
_cell_angle_alpha	82.784688
_cell_angle_beta	89.091437
_cell_angle_gamma	82.825094
loop_
_atom_site_label
_atom_site_type_symbol
_atom_site_fract_x
_atom_site_fract_y
_atom_site_fract_z
Zn1	Zn	1.498532	-0.383755	-0.780889
Zn2	Zn	1.520249	-0.534570	-0.608902
Zn3	Zn	1.348372	-0.387969	-0.587118
Zn4	Zn	1.326514	-0.501448	-0.759035
O5	O	1.423417	-0.451935	-0.683986
O6	O	1.645334	-0.415859	-0.776336
O7	O	1.515686	-0.530749	-0.462088
O8	O	1.368349	-0.276802	-0.612852
O9	O	1.661290	-0.526663	-0.649979
O10	O	1.478671	-0.273706	-0.755214
O11	O	1.389408	-0.423042	-0.446083
O12	O	1.201550	-0.390924	-0.591661
O13	O	1.331095	-0.470209	-0.905859
O14	O	1.185491	-0.474296	-0.717968
O15	O	1.457476	-0.383741	-0.921914
O16	O	1.494491	-0.640785	-0.628788
O17	O	1.352154	-0.616449	-0.739090
C18	C	1.156203	-0.429474	-0.650080
C19	C	1.041885	-0.419881	-0.635599
C20	C	0.983013	-0.456942	-0.691544
C21	C	0.864859	-0.447028	-0.676578
C22	C	1.423333	-0.657296	-0.683958
C23	C	1.423386	-0.745155	-0.683992
C24	C	1.349398	-1.104001	-0.741425
C25	C	1.497708	-1.129279	-0.626688
C26	C	1.497674	-1.046731	-0.626674
C27	C	1.423499	-0.992814	-0.684035
C28	C	1.349359	-1.021445	-0.741411
C29	C	1.571806	-1.018094	-0.569291
C30	C	1.571773	-0.935542	-0.569274
C31	C	1.497602	-0.881623	-0.626642
C32	C	1.423460	-0.910259	-0.684020
C33	C	1.349285	-0.856342	-0.741382
C34	C	1.275147	-0.884975	-0.798767
C35	C	1.275188	-0.967527	-0.798779
C36	C	1.497561	-0.799072	-0.626630
C37	C	1.349247	-0.773786	-0.741367
C38	C	1.691673	-0.474485	-0.718025
C39	C	1.805988	-0.484095	-0.732531
C40	C	1.389425	-0.422810	-0.952248
C41	C	1.374940	-0.410399	-1.066565
C42	C	1.423526	-0.245773	-0.684041
C43	C	1.423573	-0.157918	-0.684064
C44	C	1.415998	-0.445341	-1.243600
C45	C	1.430969	-0.458165	-1.125447
C46	C	1.457335	-0.480895	-0.416775
C47	C	1.472019	-0.493101	-0.302484
H48	H	1.004815	-0.380808	-0.576628
Br49	Br	1.317589	-0.361358	-1.305358
Br50	Br	1.672469	-1.091268	-0.491453
H51	H	0.843051	-0.523161	-0.791516
Br52	Br	1.276526	-0.326411	-1.128316
Br53	Br	1.529400	-0.542140	-1.063696
Br54	Br	1.570445	-0.577072	-1.240728
H55	H	0.827793	-0.407953	-0.617603
Br56	Br	1.044786	-0.522065	-0.789841
Br57	Br	1.174581	-1.006392	-0.876651
Br58	Br	1.248583	-0.700618	-0.819229
H59	H	1.632141	-0.912234	-0.522549
H60	H	1.214749	-0.841067	-0.845466
H61	H	1.289039	-1.127319	-0.788150
Br62	Br	1.598156	-0.760214	-0.548741
Br63	Br	1.598368	-1.202451	-0.548842
