data_functionalizedCrystal
_audit_creation_method	'MofGen! by Chris Wilmer'
_symmetry_space_group_name_H-M	'P1'
_symmetry_Int_Tables_number	1
_symmetry_cell_setting	triclinic
loop_
_symmetry_equiv_pos_as_xyz
  x,y,z
_cell_length_a	8.497374
_cell_length_b	8.497367
_cell_length_c	16.959455
_cell_angle_alpha	90.036528
_cell_angle_beta	90.002432
_cell_angle_gamma	90.038609
loop_
_atom_site_label
_atom_site_type_symbol
_atom_site_fract_x
_atom_site_fract_y
_atom_site_fract_z
Zn1	Zn	0.892502	0.628459	1.208585
Zn2	Zn	0.628921	0.892205	1.208659
Zn3	Zn	0.628726	0.628418	1.076441
Zn4	Zn	0.892650	0.892177	1.076502
O5	O	0.760700	0.760315	1.142547
O6	O	0.857558	0.663474	1.319206
O7	O	0.408133	0.857208	1.191125
O8	O	0.663573	0.407661	1.093914
O9	O	0.663906	0.857247	1.319260
O10	O	0.857368	0.407691	1.191000
O11	O	0.407990	0.663405	1.093985
O12	O	0.663716	0.663378	0.965838
O13	O	1.113392	0.857200	1.094018
O14	O	0.857620	0.857160	0.965883
O15	O	1.113284	0.663447	1.191059
O16	O	0.664049	1.112964	1.191184
O17	O	0.857809	1.112943	1.094089
C18	C	0.760664	0.760263	0.937180
C19	C	0.760686	0.760278	0.849324
C20	C	1.172180	0.760317	1.142541
C21	C	1.350824	0.760334	1.142543
C22	C	0.760554	1.348834	1.142492
C23	C	0.760842	1.170191	1.142591
C24	C	0.659945	0.659330	0.477801
C25	C	0.861545	0.861430	0.477896
C26	C	0.861535	0.861407	0.560442
C27	C	0.760727	0.760346	0.601671
C28	C	0.659929	0.659307	0.560354
C29	C	0.962321	0.962455	0.601765
C30	C	0.962314	0.962438	0.684316
C31	C	0.861513	0.861367	0.725546
C32	C	0.760711	0.760323	0.684225
C33	C	0.659903	0.659262	0.725454
C34	C	0.559109	0.558209	0.684133
C35	C	0.559127	0.558237	0.601585
C36	C	0.861494	0.861340	0.808095
C37	C	0.659887	0.659240	0.808007
C38	C	0.760737	0.760368	1.348715
C39	C	0.760753	0.760391	1.436572
H40	H	0.477024	0.475932	0.717713
C41	C	0.346971	0.536001	0.508723
C42	C	0.448348	0.447168	0.556160
H43	H	0.278580	0.467430	0.480681
H44	H	0.407013	0.596189	0.472365
H45	H	0.286549	0.604613	0.540957
H46	H	0.508779	0.378564	0.523925
H47	H	0.388299	0.386953	0.592522
C48	C	1.051827	1.052133	0.810895
C49	C	1.073117	1.073496	0.729733
H50	H	1.120231	1.120700	0.838933
H51	H	1.075005	0.946179	0.824375
H52	H	0.945806	1.075061	0.824422
H53	H	1.179136	1.050557	0.716205
H54	H	1.049950	1.179475	0.716247
H55	H	0.943554	0.943620	0.841734
H56	H	0.577885	0.577050	0.444154
C57	C	1.038968	1.229707	0.576454
C58	C	1.073148	1.073524	0.556454
H59	H	1.107396	1.298270	0.548476
H60	H	1.053371	1.244148	0.631524
H61	H	0.932959	1.252629	0.562911
H62	H	1.179154	1.050599	0.570002
H63	H	1.058758	1.059076	0.501371
C64	C	0.392812	0.581970	0.833373
C65	C	0.549069	0.548156	0.853326
H66	H	0.324400	0.513398	0.861355
H67	H	0.378413	0.567509	0.778303
H68	H	0.369646	0.687932	0.846941
H69	H	0.572239	0.442196	0.839752
H70	H	0.563475	0.562603	0.908408
C71	C	0.951076	0.951195	0.351398
C72	C	0.972349	0.972511	0.432579
H73	H	1.019495	1.019769	0.323420
H74	H	0.845073	0.974129	0.337878
H75	H	0.974259	0.845233	0.337837
H76	H	0.949155	1.078471	0.446141
H77	H	1.078376	0.949589	0.446104
