data_functionalizedCrystal
_audit_creation_method	'MofGen! by Chris Wilmer'
_symmetry_space_group_name_H-M	'P1'
_symmetry_Int_Tables_number	1
_symmetry_cell_setting	triclinic
loop_
_symmetry_equiv_pos_as_xyz
  x,y,z
_cell_length_a	25.639239
_cell_length_b	18.101398
_cell_length_c	18.101398
_cell_angle_alpha	90.006000
_cell_angle_beta	90.006971
_cell_angle_gamma	89.966508
loop_
_atom_site_label
_atom_site_type_symbol
_atom_site_fract_x
_atom_site_fract_y
_atom_site_fract_z
Zn1	Zn	-0.208348	-1.131975	0.418517
Zn2	Zn	-0.295748	-1.131886	0.294671
Zn3	Zn	-0.208321	-1.008166	0.294712
Zn4	Zn	-0.295746	-1.008068	0.418494
O5	O	-0.252041	-1.070024	0.356599
O6	O	-0.219954	-1.235596	0.402081
O7	O	-0.284141	-1.115478	0.191044
O8	O	-0.135159	-1.024667	0.311162
O9	O	-0.284167	-1.235531	0.311092
O10	O	-0.135179	-1.115629	0.402121
O11	O	-0.219908	-1.024581	0.191074
O12	O	-0.219906	-0.904520	0.311140
O13	O	-0.284163	-1.024502	0.522130
O14	O	-0.284137	-0.904449	0.402081
O15	O	-0.219951	-1.115535	0.522147
O16	O	-0.368913	-1.115384	0.311070
O17	O	-0.368912	-1.024415	0.402042
C18	C	-0.252018	-0.877613	0.356613
C19	C	-0.252021	-0.795299	0.356636
C20	C	-0.252049	-0.496208	0.356612
C21	C	-0.292657	-0.527513	0.413547
C22	C	-0.292531	-0.613132	0.413779
C23	C	-0.252036	-0.644591	0.356624
C24	C	-0.196972	-0.613541	0.377955
C25	C	-0.197215	-0.527896	0.378362
C26	C	-0.266020	-0.527773	0.278208
C27	C	-0.267230	-0.613423	0.278625
C28	C	-0.252025	-0.728450	0.356630
C29	C	-0.252057	-0.412349	0.356608
C30	C	-0.387883	-1.069899	0.356565
C31	C	-0.445997	-1.069914	0.356575
C32	C	-0.806349	-1.117515	0.309310
C33	C	-0.860953	-1.117543	0.309320
O34	O	-0.889180	-1.157886	0.269097
N35	N	-0.888280	-1.070154	0.356648
C36	C	-0.860999	-1.022738	0.403974
O37	O	-0.889257	-0.982433	0.444231
C38	C	-0.806396	-1.022714	0.403967
C39	C	-0.779072	-1.070101	0.356631
C40	C	-0.779025	-1.164899	0.261979
C41	C	-0.724424	-1.164869	0.261968
C42	C	-0.697148	-1.117455	0.309289
C43	C	-0.724472	-1.070071	0.356620
C44	C	-0.779117	-0.975302	0.451296
C45	C	-0.724510	-0.975282	0.451286
C46	C	-0.697186	-1.022669	0.403950
C47	C	-0.642594	-1.022628	0.403930
N48	N	-0.615268	-1.070017	0.356603
C49	C	-0.642544	-1.117431	0.309282
C50	C	-0.975670	-1.022794	0.403985
C51	C	-1.030272	-1.022814	0.403989
C52	C	-1.030222	-1.117620	0.309336
C53	C	-0.975619	-1.117596	0.309329
C54	C	-0.948343	-1.070183	0.356658
C55	C	-0.527879	-1.117364	0.309263
C56	C	-0.473274	-1.117328	0.309254
C57	C	-0.473329	-1.022524	0.403909
C58	C	-0.527929	-1.022557	0.403916
C59	C	-0.555203	-1.069983	0.356590
O60	O	-0.614333	-0.982307	0.444135
O61	O	-0.614280	-1.157736	0.269039
C62	C	-0.115668	-1.070169	0.356649
C63	C	-0.057554	-1.070231	0.356670
C64	C	-0.252060	-1.070017	0.549761
C65	C	-0.252068	-1.070015	0.632075
C66	C	-0.252061	-0.263186	0.356590
C67	C	-0.252064	-0.345500	0.356599
C68	C	-0.252059	-1.070009	0.782783
C69	C	-0.292458	-1.012736	0.814126
C70	C	-0.292334	-1.012508	0.899744
C71	C	-0.252052	-1.070004	0.931166
C72	C	-0.196909	-1.049134	0.900090
C73	C	-0.197147	-1.048722	0.814445
C74	C	-0.266321	-1.148296	0.814336
C75	C	-0.267532	-1.147873	0.899986
C76	C	-0.252045	-1.070002	1.015025
C77	C	-0.252063	-1.070009	0.698924
C78	C	-0.252038	-1.070017	1.164188
C79	C	-0.252044	-1.069998	1.081874
H80	H	-0.305485	-0.506157	0.258824
C81	C	-0.809163	-0.923186	0.503374
H82	H	-0.845591	-0.929982	0.496609
H83	H	-0.800192	-0.933989	0.553133
H84	H	-0.800248	-0.873428	0.492502
C85	C	-0.180676	-0.642498	0.454552
H86	H	-0.207351	-0.673502	0.473633
H87	H	-0.149204	-0.669874	0.450229
H88	H	-0.175433	-0.601969	0.487058
H89	H	-0.550079	-1.155984	0.270727
C90	C	-0.155086	-1.102642	0.786427
H91	H	-0.154949	-1.102758	0.733943
H92	H	-0.121883	-1.087464	0.804071
H93	H	-0.162484	-1.150972	0.803975
H94	H	-0.165897	-0.633922	0.337779
C95	C	-0.443218	-1.169446	0.257176
H96	H	-0.406791	-1.162633	0.263936
H97	H	-0.452128	-1.219202	0.268043
H98	H	-0.452189	-1.158640	0.207413
C99	C	-0.347864	-1.030116	0.786291
H100	H	-0.346858	-1.072454	0.755302
H101	H	-0.370047	-1.039457	0.827264
H102	H	-0.360868	-0.989159	0.759117
H103	H	-0.702304	-0.936674	0.489829
H104	H	-0.307749	-0.633723	0.262537
H105	H	-0.550178	-0.983973	0.442463
C106	C	-0.279837	-0.934809	0.785088
H107	H	-0.304428	-0.900545	0.804291
H108	H	-0.245746	-0.921117	0.800396
H109	H	-0.281558	-0.934688	0.732663
C110	C	-0.181209	-0.500905	0.455790
H111	H	-0.181213	-0.448430	0.456720
H112	H	-0.205283	-0.519015	0.491316
H113	H	-0.147247	-0.518615	0.467097
H114	H	-0.451112	-0.983918	0.442435
C115	C	-0.180323	-0.972686	0.929072
H116	H	-0.146901	-0.960549	0.909960
H117	H	-0.204956	-0.936633	0.913636
H118	H	-0.178873	-0.973719	0.981504
H119	H	-0.333218	-1.025534	0.920755
C120	C	-0.694375	-1.217004	0.209907
H121	H	-0.718447	-1.245248	0.181736
H122	H	-0.673096	-1.188703	0.177610
H123	H	-0.673052	-1.249242	0.238264
C124	C	-0.180857	-0.971426	0.787469
H125	H	-0.174159	-0.940571	0.828852
H126	H	-0.150212	-0.975353	0.758240
H127	H	-0.208160	-0.950658	0.758683
H128	H	-0.165876	-0.507190	0.338795
H129	H	-0.305851	-1.167352	0.792728
H130	H	-0.801228	-1.203513	0.223444
C131	C	-0.226073	-0.500413	0.220894
H132	H	-0.201000	-0.469902	0.244591
H133	H	-0.209049	-0.541598	0.199043
H134	H	-0.243529	-0.472838	0.183698
C135	C	-0.230172	-0.642345	0.218237
H136	H	-0.204833	-0.673944	0.239901
H137	H	-0.249608	-0.669085	0.182450
H138	H	-0.213201	-0.601844	0.195113
C139	C	-0.945568	-1.169727	0.257266
H140	H	-0.969638	-1.197969	0.229090
H141	H	-0.924287	-1.141421	0.224974
H142	H	-0.924245	-1.201967	0.285621
H143	H	-0.282879	-0.954497	0.920243
C144	C	-0.280048	-0.640820	0.492252
H145	H	-0.279934	-0.693303	0.492665
H146	H	-0.246742	-0.623090	0.506861
H147	H	-0.305774	-0.623158	0.525645
H148	H	-1.052441	-1.156230	0.270807
C149	C	-1.060323	-0.970684	0.456053
H150	H	-1.036253	-0.942448	0.484236
H151	H	-1.081652	-0.938449	0.427710
H152	H	-1.081596	-0.999001	0.488352
H153	H	-0.953465	-0.984179	0.442523
H154	H	-0.165984	-1.089571	0.920442
H155	H	-0.308115	-1.163614	0.920294
H156	H	-0.240268	-1.192804	0.921377
C157	C	-0.226578	-1.205940	0.786951
H158	H	-0.201414	-1.182452	0.756436
H159	H	-0.209639	-1.227927	0.828129
H160	H	-0.244161	-1.242995	0.759377
C161	C	-0.347694	-0.641496	0.395734
H162	H	-0.347691	-0.693980	0.395853
H163	H	-0.371537	-0.623898	0.431849
H164	H	-0.357885	-0.624116	0.348361
H165	H	-0.333624	-0.506894	0.400327
H166	H	-0.283533	-0.505990	0.471303
