data_functionalizedCrystal
_audit_creation_method	'MofGen! by Chris Wilmer'
_symmetry_space_group_name_H-M	'P1'
_symmetry_Int_Tables_number	1
_symmetry_cell_setting	triclinic
loop_
_symmetry_equiv_pos_as_xyz
  x,y,z
_cell_length_a	27.731993
_cell_length_b	16.992695
_cell_length_c	15.455313
_cell_angle_alpha	92.853997
_cell_angle_beta	87.353086
_cell_angle_gamma	86.644306
loop_
_atom_site_label
_atom_site_type_symbol
_atom_site_fract_x
_atom_site_fract_y
_atom_site_fract_z
O1	O	0.646946	0.089606	-0.071885
O2	O	1.146946	0.589606	0.428115
O3	O	0.506765	0.103827	-0.071936
O4	O	1.006765	0.603827	0.428064
O5	O	0.576294	-0.017419	-0.071918
O6	O	1.076294	0.482581	0.428082
O7	O	0.577417	0.210853	-0.071903
O8	O	1.077417	0.710853	0.428097
O9	O	0.572317	-0.010514	0.072343
O10	O	1.072317	0.489486	0.572343
O11	O	0.502788	0.110733	0.072325
O12	O	1.002788	0.610733	0.572325
O13	O	0.642969	0.096511	0.072376
O14	O	1.142969	0.596511	0.572376
Cu15	Cu	0.572515	0.104252	0.085523
Cu16	Cu	1.072515	0.604252	0.585523
Cu17	Cu	0.577219	0.096086	-0.085083
Cu18	Cu	1.077219	0.596086	0.414917
O19	O	0.573440	0.217758	0.072358
O20	O	1.073440	0.717758	0.572358
C21	C	0.486757	0.106988	0.000188
C22	C	0.986757	0.606988	0.500188
C23	C	0.433063	0.106108	0.000167
C24	C	0.933063	0.606108	0.500167
C25	C	0.051794	0.095973	-0.078428
C26	C	0.551794	0.595973	0.421572
C27	C	0.253597	0.099323	-0.078451
C28	C	0.753597	0.599323	0.421549
O29	O	0.281531	0.096524	-0.145330
O30	O	0.781531	0.596524	0.354670
N31	N	0.276668	0.103506	0.000184
N32	N	0.776668	0.603506	0.500184
C33	C	0.249284	0.106847	0.078830
C34	C	0.749284	0.606847	0.578830
O35	O	0.273538	0.110474	0.145714
O36	O	0.773538	0.610474	0.645714
C37	C	0.047483	0.103491	0.078853
C38	C	0.547483	0.603491	0.578853
C39	C	0.024415	0.099316	0.000213
C40	C	0.524415	0.599316	0.500213
C41	C	0.028726	0.091797	-0.157061
C42	C	0.528726	0.591797	0.342939
C43	C	-0.021722	0.090964	-0.157055
C44	C	0.478278	0.590964	0.342945
C45	C	-0.049102	0.094307	-0.078414
C46	C	0.450898	0.594307	0.421586
C47	C	-0.026033	0.098483	0.000219
C48	C	0.473967	0.598483	0.500219
C49	C	0.020101	0.106826	0.157498
C50	C	0.520101	0.606826	0.657498
C51	C	-0.030353	0.105985	0.157497
C52	C	0.469647	0.605985	0.657497
C53	C	-0.053421	0.101809	0.078857
C54	C	0.446579	0.601809	0.578857
C55	C	-0.103861	0.100992	0.078866
C56	C	0.396139	0.600992	0.578866
N57	N	-0.126931	0.096809	0.000231
N58	N	0.373069	0.596809	0.500231
C59	C	-0.099552	0.093466	-0.078409
C60	C	0.400448	0.593466	0.421591
C61	C	0.355233	0.108610	0.078813
C62	C	0.855233	0.608610	0.578813
C63	C	0.405683	0.109450	0.078808
C64	C	0.905683	0.609450	0.578808
C65	C	0.409993	0.101925	-0.078474
C66	C	0.909993	0.601925	0.421526
C67	C	0.359541	0.101090	-0.078468
C68	C	0.859541	0.601090	0.421532
C69	C	0.332163	0.104427	0.000178
C70	C	0.832163	0.604427	0.500178
C71	C	-0.205496	0.091717	-0.078389
C72	C	0.294504	0.591717	0.421611
C73	C	-0.255949	0.090888	-0.078376
C74	C	0.244051	0.590888	0.421624
C75	C	-0.260254	0.098409	0.078905
C76	C	0.239746	0.598409	0.578905
C77	C	-0.209806	0.099243	0.078892
C78	C	0.290194	0.599243	0.578892
C79	C	-0.182428	0.095894	0.000238
C80	C	0.317572	0.595894	0.500238
O81	O	-0.131825	0.103781	0.145710
O82	O	0.368175	0.603781	0.645710
O83	O	-0.123814	0.089822	-0.145282
O84	O	0.376186	0.589822	0.354718
C85	C	0.102242	0.096806	-0.078434
C86	C	0.602242	0.596806	0.421566
C87	C	0.125310	0.100982	0.000199
C88	C	0.625310	0.600982	0.500199
C89	C	0.097931	0.104325	0.078840
C90	C	0.597931	0.604325	0.578840
C91	C	0.175760	0.101822	0.000194
C92	C	0.675760	0.601822	0.500194
C93	C	0.203140	0.098480	-0.078446
C94	C	0.703140	0.598480	0.421554
C95	C	0.180070	0.094296	-0.157081
C96	C	0.680070	0.594296	0.342919
C97	C	0.129622	0.093463	-0.157075
C98	C	0.629622	0.593463	0.342925
C99	C	0.121001	0.108508	0.157475
C100	C	0.621001	0.608508	0.657475
C101	C	0.171449	0.109342	0.157462
C102	C	0.671449	0.609342	0.657462
C103	C	0.198829	0.105999	0.078821
C104	C	0.698829	0.605999	0.578821
C105	C	0.572860	-0.043161	0.000208
C106	C	1.072860	0.456839	0.500208
C107	C	0.568546	-0.130153	0.000195
C108	C	1.068546	0.369847	0.500195
C109	C	0.662977	0.093351	0.000250
C110	C	1.162977	0.593351	0.500250
C111	C	0.716671	0.094231	0.000265
C112	C	1.216671	0.594231	0.500265
C113	C	0.576875	0.243500	0.000230
C114	C	1.076875	0.743500	0.500230
C115	C	0.581188	0.330491	0.000237
C116	C	1.081188	0.830491	0.500237
N117	N	0.569211	0.109995	0.205517
N118	N	1.069211	0.609995	0.705517
C119	C	0.539565	0.381248	0.000222
C120	C	1.039565	0.881248	0.500222
C121	C	0.543622	0.462984	0.000212
C122	C	1.043622	0.962984	0.500212
C123	C	0.589302	0.493961	0.000225
C124	C	1.089302	0.993961	0.500225
C125	C	0.630928	0.443197	0.000238
C126	C	1.130928	0.943197	0.500238
C127	C	0.626872	0.361463	0.000241
C128	C	1.126872	0.861463	0.500241
C129	C	0.606116	0.737349	0.000211
C130	C	1.106116	1.237349	0.500211
C131	C	0.610169	0.819090	0.000210
C132	C	1.110169	1.319090	0.500210
C133	C	0.522862	0.838871	0.000183
C134	C	1.022862	1.338871	0.500183
C135	C	0.518809	0.757135	0.000192
C136	C	1.018809	1.257135	0.500192
C137	C	0.560436	0.706378	0.000200
C138	C	1.060436	1.206378	0.500200
N139	N	0.593449	0.577508	0.000218
N140	N	1.093449	1.077508	0.500218
N141	N	0.556288	0.622832	0.000201
N142	N	1.056288	1.122832	0.500201
N143	N	0.580527	0.090337	-0.205078
N144	N	1.080527	0.590337	0.294922
C145	C	0.598761	0.058504	0.250919
C146	C	1.098761	0.558504	0.750919
C147	C	0.596266	0.062855	0.341726
C148	C	1.096266	0.562855	0.841726
C149	C	0.564224	0.118701	0.387130
C150	C	1.064224	0.618701	0.887130
C151	C	0.534671	0.170194	0.341722
C152	C	1.034671	0.670194	0.841722
C153	C	0.537163	0.165839	0.250916
C154	C	1.037163	0.665839	0.750916
C155	C	0.553466	0.137476	0.658709
C156	C	1.053466	0.637476	1.158709
C157	C	0.550977	0.141828	0.749521
C158	C	1.050977	0.641828	1.249521
C159	C	0.612572	0.034487	0.749519
C160	C	1.112572	0.534487	1.249519
C161	C	0.615063	0.030141	0.658711
C162	C	1.115063	0.530141	1.158711
C163	C	0.585509	0.081631	0.613311
C164	C	1.085509	0.581631	1.113311
N165	N	0.561675	0.123150	0.479950
N166	N	1.061675	0.623150	0.979950
N167	N	0.588056	0.077177	0.520493
N168	N	1.088056	0.577177	1.020493
H169	H	-0.040499	0.087560	-0.221092
H170	H	0.459501	0.587560	0.278908
H171	H	0.110844	0.090063	-0.221112
H172	H	0.610844	0.590063	0.278888
Br173	Br	-0.067506	0.110506	0.264237
Br174	Br	0.432494	0.610506	0.764237
H175	H	-0.191023	0.102658	0.142928
H176	H	0.308977	0.602658	0.642928
H177	H	0.332946	0.111325	0.142860
H178	H	0.832946	0.611325	0.642860
H179	H	-0.282555	0.101134	0.142932
H180	H	0.217445	0.601134	0.642932
Br181	Br	0.436983	0.115137	0.185538
Br182	Br	0.936983	0.615137	0.685538
Br183	Br	0.692924	0.485236	0.000244
Br184	Br	1.192924	0.985236	0.500244
Br185	Br	0.051394	0.112495	0.264231
Br186	Br	0.551394	0.612495	0.764231
H187	H	0.508579	0.215662	0.378695
H188	H	1.008579	0.715662	0.878695
Br189	Br	0.507489	0.217629	0.811135
Br190	Br	1.007489	0.717629	1.311135
Br191	Br	0.662609	0.668475	0.000229
Br192	Br	1.162609	1.168475	0.500229
Br193	Br	0.497055	0.235718	0.189300
Br194	Br	0.997055	0.735718	0.689300
Br195	Br	0.466372	0.907758	0.000168
Br196	Br	0.966372	1.407758	0.500168
H197	H	0.481612	0.731919	0.000172
H198	H	0.981612	1.231919	0.500172
H199	H	0.202371	0.091579	-0.221113
H200	H	0.702371	0.591579	0.278887
H201	H	0.647370	0.844308	0.000221
H202	H	1.147370	1.344308	0.500221
Br203	Br	0.652679	-0.035391	0.811136
Br204	Br	1.152679	0.464609	1.311136
H205	H	0.502367	0.356034	0.000222
H206	H	1.002367	0.856034	0.500222
H207	H	0.509727	0.504308	0.000197
H208	H	1.009727	1.004308	0.500197
Br209	Br	0.642253	-0.017285	0.189309
Br210	Br	1.142253	0.482715	0.689309
H211	H	0.098714	0.111226	0.221515
H212	H	0.598714	0.611226	0.721515
H213	H	0.190227	0.112749	0.221505
H214	H	0.690227	0.612749	0.721505
Br215	Br	0.683363	0.292576	0.000253
Br216	Br	1.183363	0.792576	0.500253
Br217	Br	0.636369	-0.007030	0.403346
Br218	Br	1.136369	0.492970	0.903346
H219	H	0.641155	-0.015333	0.621745
H220	H	1.141155	0.484667	1.121745
H221	H	-0.274729	0.087490	-0.142417
H222	H	0.225271	0.587490	0.357583
Br223	Br	-0.168349	0.087172	-0.185135
Br224	Br	0.331651	0.587172	0.314865
H225	H	0.051013	0.089072	-0.221103
H226	H	0.551013	0.589072	0.278897
H227	H	0.529402	0.179403	0.621751
H228	H	1.029402	0.679403	1.121751
H229	H	0.340763	0.097690	-0.142503
H230	H	0.840763	0.597690	0.357497
H231	H	0.432294	0.099206	-0.142506
H232	H	0.932294	0.599206	0.357494
