data_functionalizedCrystal
_audit_creation_method	'MofGen! by Chris Wilmer'
_symmetry_space_group_name_H-M	'P1'
_symmetry_Int_Tables_number	1
_symmetry_cell_setting	triclinic
loop_
_symmetry_equiv_pos_as_xyz
  x,y,z
_cell_length_a	16.959454
_cell_length_b	10.685661
_cell_length_c	10.686551
_cell_angle_alpha	99.072622
_cell_angle_beta	94.404578
_cell_angle_gamma	85.641540
loop_
_atom_site_label
_atom_site_type_symbol
_atom_site_fract_x
_atom_site_fract_y
_atom_site_fract_z
Zn1	Zn	-0.368940	1.995666	0.866180
Zn2	Zn	-0.510555	1.979224	0.653923
Zn3	Zn	-0.368976	1.767101	0.637705
Zn4	Zn	-0.491656	1.783357	0.849885
O5	O	-0.435031	1.881337	0.751923
O6	O	-0.395619	2.171112	0.851631
O7	O	-0.499698	1.937401	0.474143
O8	O	-0.258362	1.797499	0.668045
O9	O	-0.499663	2.159032	0.695686
O10	O	-0.258336	1.965425	0.835905
O11	O	-0.395680	1.781556	0.462228
O12	O	-0.377355	1.591632	0.652245
O13	O	-0.467453	1.825205	1.029675
O14	O	-0.467488	1.603575	0.808132
O15	O	-0.377294	1.981188	1.041647
O16	O	-0.618656	1.953164	0.679886
O17	O	-0.604772	1.809262	0.823858
C18	C	-0.420376	1.551547	0.726661
C19	C	-0.414123	1.410463	0.715884
C20	C	-0.640394	1.881229	0.751894
C21	C	-0.728252	1.881303	0.751932
C22	C	-1.092536	1.806525	0.826890
C23	C	-1.106934	1.956514	0.677113
C24	C	-1.024387	1.956469	0.677098
C25	C	-0.975910	1.881449	0.751979
C26	C	-1.009981	1.806474	0.826875
C27	C	-0.990310	2.031432	0.602194
C28	C	-0.907758	2.031389	0.602175
C29	C	-0.859279	1.956375	0.677063
C30	C	-0.893355	1.881398	0.751963
C31	C	-0.844878	1.806378	0.826844
C32	C	-0.878952	1.731408	0.901752
C33	C	-0.961502	1.731460	0.901763
C34	C	-0.776729	1.956322	0.677052
C35	C	-0.762323	1.806328	0.826828
C36	C	-0.228867	1.881483	0.751984
C37	C	-0.141012	1.881544	0.752009
C38	C	-0.420262	1.906844	1.083006
C39	C	-0.413968	1.917713	1.224093
C40	C	-0.449745	2.212416	0.777285
C41	C	-0.456015	2.353502	0.788093
C42	C	-0.449690	1.856003	0.422135
C43	C	-0.455772	1.845380	0.281067
H44	H	-0.373470	1.351291	0.645816
H45	H	-0.989253	1.670422	0.962747
H46	H	-0.373362	1.987966	1.283260
C47	C	-0.756383	1.658077	0.974888
C48	C	-0.709040	1.723863	0.909143
H49	H	-0.723487	1.607163	1.025700
H50	H	-0.788830	1.717109	1.027722
H51	H	-0.788930	1.605325	0.915824
H52	H	-0.676496	1.776622	0.968207
H53	H	-0.676579	1.664823	0.856305
H54	H	-0.880020	2.092435	0.541183
C55	C	-0.799257	2.104567	0.528989
C56	C	-0.739274	2.038717	0.594718
H57	H	-0.776133	2.155442	0.478163
H58	H	-0.831198	2.045573	0.476171
H59	H	-0.831111	2.157363	0.588063
H60	H	-0.707423	1.985914	0.535644
H61	H	-0.707320	2.097719	0.647540
C62	C	-1.212680	1.739995	0.893430
C63	C	-1.129985	1.724114	0.909222
H64	H	-1.235798	1.689111	0.944253
H65	H	-1.229115	1.826700	0.918616
H66	H	-1.229209	1.714923	0.806711
H67	H	-1.113456	1.749195	0.995940
H68	H	-1.113543	1.637391	0.884043
C69	C	-0.567886	1.816314	1.130449
C70	C	-0.510591	1.750554	1.201205
H71	H	-0.601725	1.757769	1.081134
H72	H	-0.598296	1.875519	1.186395
H73	H	-0.542492	1.860235	1.075814
H74	H	-0.535985	1.706640	1.255847
H75	H	-0.480177	1.691326	1.145253
H76	H	-1.146408	2.017583	0.616140
C77	C	-1.091521	2.200762	0.597628
C78	C	-1.043634	2.113758	0.519808
H79	H	-1.124452	2.251554	0.546740
H80	H	-1.123585	2.156123	0.642293
H81	H	-1.058999	2.253630	0.656617
H82	H	-1.076157	2.060883	0.460825
H83	H	-1.011567	2.158400	0.475122
C84	C	-0.466081	1.515909	0.970076
C85	C	-0.510889	1.433368	0.882688
H86	H	-0.499960	1.565225	1.028470
H87	H	-0.427264	1.467958	1.014816
H88	H	-0.440640	1.570539	0.926205
H89	H	-0.536326	1.378731	0.926558
H90	H	-0.549720	1.481323	0.837943
H91	H	-0.839473	1.670320	0.962714
