data_functionalizedCrystal
_audit_creation_method	'MofGen! by Chris Wilmer'
_symmetry_space_group_name_H-M	'P1'
_symmetry_Int_Tables_number	1
_symmetry_cell_setting	triclinic
loop_
_symmetry_equiv_pos_as_xyz
  x,y,z
_cell_length_a	12.645331
_cell_length_b	16.625546
_cell_length_c	16.625539
_cell_angle_alpha	89.969603
_cell_angle_beta	89.979221
_cell_angle_gamma	90.021447
loop_
_atom_site_label
_atom_site_type_symbol
_atom_site_fract_x
_atom_site_fract_y
_atom_site_fract_z
Zn1	Zn	1.620676	-0.321022	-0.455902
Zn2	Zn	1.954010	0.012311	-0.122569
Zn3	Zn	2.287343	0.345645	0.210765
Zn4	Zn	1.620549	-0.455865	-0.321064
Zn5	Zn	1.953882	-0.122532	0.012269
Zn6	Zn	2.287216	0.210801	0.345602
Zn7	Zn	1.443397	-0.321048	-0.321082
Zn8	Zn	1.776730	0.012285	0.012251
Zn9	Zn	2.110063	0.345619	0.345585
Zn10	Zn	1.443358	-0.455814	-0.455854
Zn11	Zn	1.776691	-0.122481	-0.122520
Zn12	Zn	2.110024	0.210853	0.210813
O13	O	1.531995	-0.388437	-0.388476
O14	O	1.865328	-0.055104	-0.055142
O15	O	2.198662	0.278229	0.278191
O16	O	1.769007	-0.338920	-0.438028
O17	O	2.102340	-0.005587	-0.104695
O18	O	2.435673	0.327747	0.228638
O19	O	1.597012	-0.438014	-0.208234
O20	O	1.930346	-0.104680	0.125099
O21	O	2.263679	0.228653	0.458432
O22	O	1.466983	-0.208212	-0.338994
O23	O	1.800316	0.125121	-0.005661
O24	O	2.133649	0.458455	0.327673
O25	O	1.768913	-0.437989	-0.338964
O26	O	2.102246	-0.104655	-0.005630
O27	O	2.435580	0.228678	0.327703
O28	O	1.597229	-0.208193	-0.438046
O29	O	1.930563	0.125140	-0.104712
O30	O	2.263896	0.458474	0.228621
O31	O	1.466859	-0.338964	-0.208247
O32	O	1.800193	-0.005631	0.125086
O33	O	2.133526	0.327703	0.458419
O34	O	1.295044	-0.338914	-0.338947
O35	O	1.628378	-0.005581	-0.005614
O36	O	1.961711	0.327752	0.327720
O37	O	1.466916	-0.437901	-0.568693
O38	O	1.800250	-0.104568	-0.235359
O39	O	2.133583	0.228765	0.097974
O40	O	1.295016	-0.437926	-0.437963
O41	O	1.628349	-0.104593	-0.104630
O42	O	1.961682	0.228740	0.228703
O43	O	1.597192	-0.338870	-0.568728
O44	O	1.930525	-0.005537	-0.235395
O45	O	2.263858	0.327796	0.097938
O46	O	1.596975	-0.568691	-0.338917
O47	O	1.930308	-0.235358	-0.005584
O48	O	2.263641	0.097976	0.327750
O49	O	1.466793	-0.568653	-0.437946
O50	O	1.800126	-0.235320	-0.104613
O51	O	2.133460	0.098013	0.228721
C52	C	1.531895	-0.597928	-0.388442
C53	C	1.865228	-0.264595	-0.055109
C54	C	2.198561	0.068738	0.278225
C55	C	1.531949	-0.687549	-0.388454
C56	C	1.865282	-0.354216	-0.055121
C57	C	2.198615	-0.020883	0.278212
C58	C	1.256565	-0.388418	-0.388452
C59	C	1.589899	-0.055085	-0.055119
C60	C	1.923232	0.278248	0.278214
C61	C	1.138735	-0.388429	-0.388461
C62	C	1.472068	-0.055096	-0.055128
C63	C	1.805402	0.278237	0.278205
C64	C	1.532134	-1.015725	-0.388538
C65	C	1.865467	-0.682392	-0.055205
C66	C	2.198800	-0.349058	0.278128
C67	C	1.532079	-0.924416	-0.388517
C68	C	1.865412	-0.591083	-0.055184
C69	C	2.198745	-0.257750	0.278149
C70	C	1.532040	-0.851640	-0.388496
C71	C	1.865374	-0.518307	-0.055163
C72	C	2.198707	-0.184973	0.278171
C73	C	1.531987	-0.760326	-0.388476
C74	C	1.865320	-0.426992	-0.055142
C75	C	2.198654	-0.093659	0.278191
C76	C	0.971154	-0.325854	-0.326514
C77	C	1.304487	0.007479	0.006819
C78	C	1.637820	0.340812	0.340153
C79	C	1.093713	-0.326016	-0.326241
C80	C	1.427047	0.007317	0.007092
C81	C	1.760380	0.340650	0.340426
C82	C	1.094207	-0.473368	-0.365243
C83	C	1.427540	-0.140035	-0.031910
C84	C	1.760873	0.193299	0.301424
C85	C	0.971608	-0.473026	-0.364820
C86	C	1.304941	-0.139693	-0.031487
C87	C	1.638275	0.193640	0.301846
C88	C	0.971584	-0.366874	-0.473867
C89	C	1.304918	-0.033541	-0.140533
C90	C	1.638251	0.299792	0.192800
C91	C	1.094190	-0.364977	-0.473392
C92	C	1.427524	-0.031643	-0.140059
C93	C	1.760857	0.301690	0.193274
C94	C	1.808500	-0.388457	-0.388499
C95	C	2.141833	-0.055124	-0.055166
C96	C	2.475167	0.278209	0.278167
C97	C	1.926330	-0.388466	-0.388510
C98	C	2.259663	-0.055132	-0.055176
C99	C	2.592997	0.278201	0.278157
C100	C	1.532064	-0.388377	-0.598785
C101	C	1.865397	-0.055044	-0.265451
C102	C	2.198730	0.278289	0.067882
C103	C	1.532093	-0.388352	-0.688406
C104	C	1.865427	-0.055018	-0.355072
C105	C	2.198760	0.278315	-0.021739
C106	C	1.532124	-0.178128	-0.388527
C107	C	1.865458	0.155205	-0.055194
C108	C	2.198791	0.488538	0.278139
C109	C	1.532180	-0.088507	-0.388549
C110	C	1.865513	0.244826	-0.055216
C111	C	2.198846	0.578159	0.278118
C112	C	1.532142	-0.388261	-1.016582
C113	C	1.865475	-0.054928	-0.683248
C114	C	2.198809	0.278405	-0.349915
C115	C	1.532126	-0.388289	-0.925273
C116	C	1.865459	-0.054956	-0.591940
C117	C	2.198792	0.278378	-0.258606
C118	C	1.532118	-0.388307	-0.852497
C119	C	1.865452	-0.054974	-0.519163
C120	C	2.198785	0.278359	-0.185830
C121	C	1.532101	-0.388334	-0.761182
C122	C	1.865434	-0.055000	-0.427849
C123	C	2.198767	0.278333	-0.094516
C124	C	1.531987	-0.388439	-0.178985
C125	C	1.865321	-0.055106	0.154349
C126	C	2.198654	0.278228	0.487682
C127	C	1.532163	-0.388237	-0.089364
C128	C	1.865497	-0.054904	0.243969
C129	C	2.198830	0.278429	0.577303
H130	H	1.123820	-0.263031	-0.340795
H131	H	1.457154	0.070302	-0.007462
H132	H	1.790487	0.403636	0.325871
Cl133	Cl	1.139152	-0.268481	-0.500435
Cl134	Cl	1.472486	0.064852	-0.167102
Cl135	Cl	1.805819	0.398186	0.166231
Cl136	Cl	0.926832	-0.437280	-0.545185
Cl137	Cl	1.260165	-0.103947	-0.211851
Cl138	Cl	1.593499	0.229387	0.121482
Cl139	Cl	1.138926	-0.348045	-0.228582
Cl140	Cl	1.472259	-0.014712	0.104751
Cl141	Cl	1.805593	0.318621	0.438084
H142	H	0.940693	-0.306018	-0.494981
H143	H	1.274027	0.027315	-0.161648
H144	H	1.607360	0.360648	0.171686
Cl145	Cl	0.923509	-0.347626	-0.229433
Cl146	Cl	1.256843	-0.014293	0.103901
Cl147	Cl	1.590176	0.319041	0.437234
Cl148	Cl	1.139215	-0.547319	-0.432774
Cl149	Cl	1.472549	-0.213986	-0.099440
Cl150	Cl	1.805882	0.119348	0.233893
Cl151	Cl	0.925823	-0.547492	-0.431487
Cl152	Cl	1.259156	-0.214158	-0.098154
Cl153	Cl	1.592490	0.119175	0.235179
H154	H	0.942963	-0.491337	-0.302420
H155	H	1.276297	-0.158003	0.030914
H156	H	1.609630	0.175330	0.364247
H157	H	1.124841	-0.407253	-0.522055
H158	H	1.458175	-0.073920	-0.188722
H159	H	1.791508	0.259413	0.144612
Cl160	Cl	1.141530	-0.502126	-0.269934
Cl161	Cl	1.474863	-0.168792	0.063399
Cl162	Cl	1.808196	0.164541	0.396733
H163	H	0.941696	-0.262680	-0.340912
H164	H	1.275029	0.070654	-0.007579
H165	H	1.608363	0.403987	0.325755
