data_functionalizedCrystal
_audit_creation_method	'MofGen! by Chris Wilmer'
_symmetry_space_group_name_H-M	'P1'
_symmetry_Int_Tables_number	1
_symmetry_cell_setting	triclinic
loop_
_symmetry_equiv_pos_as_xyz
  x,y,z
_cell_length_a	17.699083
_cell_length_b	9.198806
_cell_length_c	17.699083
_cell_angle_alpha	89.995663
_cell_angle_beta	96.716985
_cell_angle_gamma	89.997927
loop_
_atom_site_label
_atom_site_type_symbol
_atom_site_fract_x
_atom_site_fract_y
_atom_site_fract_z
O1	O	1.004075	0.120692	-0.095710
O2	O	1.337409	0.454025	0.237624
O3	O	1.670742	0.787358	0.570957
O4	O	0.783697	0.120740	-0.108162
O5	O	1.117030	0.454073	0.225171
O6	O	1.450364	0.787406	0.558504
O7	O	0.900112	0.120701	0.008253
O8	O	1.233446	0.454035	0.341586
O9	O	1.566779	0.787368	0.674920
O10	O	0.887660	0.120730	-0.212125
O11	O	1.220993	0.454063	0.121208
O12	O	1.554327	0.787396	0.454541
O13	O	0.900103	-0.121084	0.008254
O14	O	1.233437	0.212250	0.341587
O15	O	1.566770	0.545583	0.674921
O16	O	0.783688	-0.121046	-0.108161
O17	O	1.117021	0.212288	0.225172
O18	O	1.450354	0.545621	0.558505
O19	O	1.004066	-0.121094	-0.095709
O20	O	1.337400	0.212240	0.237624
O21	O	1.670733	0.545573	0.570958
Cu22	Cu	0.893876	-0.143146	-0.101935
Cu23	Cu	1.227210	0.190187	0.231398
Cu24	Cu	1.560543	0.523520	0.564732
Cu25	Cu	0.893887	0.142792	-0.101936
Cu26	Cu	1.227220	0.476126	0.231397
Cu27	Cu	1.560554	0.809459	0.564731
O28	O	0.887651	-0.121055	-0.212124
O29	O	1.220984	0.212278	0.121209
O30	O	1.554317	0.545611	0.454542
C31	C	0.755495	-0.000147	-0.107716
C32	C	1.088829	0.333186	0.225618
C33	C	1.422162	0.666520	0.558951
C34	C	0.671477	-0.000129	-0.106377
C35	C	1.004811	0.333204	0.226956
C36	C	1.338144	0.666538	0.560290
N37	N	0.893874	-0.344260	-0.101934
N38	N	1.227207	-0.010927	0.231399
N39	N	1.560541	0.322406	0.564733
C40	C	0.622856	-0.000121	-0.174710
C41	C	0.956190	0.333213	0.158623
C42	C	1.289523	0.666546	0.491956
C43	C	0.543913	-0.000140	-0.173448
C44	C	0.877246	0.333194	0.159885
C45	C	1.210580	0.666527	0.493218
C46	C	0.513592	-0.000157	-0.103852
C47	C	0.846926	0.333177	0.229482
C48	C	1.180259	0.666510	0.562815
C49	C	0.562219	-0.000169	-0.035513
C50	C	0.895553	0.333164	0.297820
C51	C	1.228886	0.666497	0.631154
C52	C	0.641161	-0.000161	-0.036776
C53	C	0.974495	0.333173	0.296557
C54	C	1.307828	0.666506	0.629890
C55	C	0.243856	-0.000206	-0.030418
C56	C	0.577190	0.333127	0.302915
C57	C	0.910523	0.666461	0.636249
C58	C	0.164908	-0.000210	-0.029160
C59	C	0.498242	0.333123	0.304173
C60	C	0.831575	0.666457	0.637507
C61	C	0.146608	-0.000185	-0.167090
C62	C	0.479942	0.333148	0.166243
C63	C	0.813275	0.666482	0.499577
C64	C	0.225550	-0.000176	-0.168353
C65	C	0.558883	0.333157	0.164980
C66	C	0.892217	0.666490	0.498314
C67	C	0.274170	-0.000197	-0.100015
C68	C	0.607504	0.333137	0.233319
C69	C	0.940837	0.666470	0.566652
C70	C	0.359769	-0.000179	-0.101384
C71	C	0.693103	0.333155	0.231949
C72	C	1.026436	0.666488	0.565282
C73	C	0.427995	-0.000164	-0.102481
C74	C	0.761328	0.333169	0.230852
C75	C	1.094661	0.666503	0.564185
C76	C	0.937554	-0.416462	-0.145366
C77	C	1.270887	-0.083129	0.187967
C78	C	1.604220	0.250204	0.521300
C79	C	0.937565	-0.583875	-0.145365
C80	C	1.270899	-0.250541	0.187968
C81	C	1.604232	0.082792	0.521301
C82	C	1.032268	-0.000204	-0.096156
C83	C	1.365601	0.333130	0.237178
C84	C	1.698934	0.666463	0.570511
C85	C	1.116286	-0.000212	-0.097494
C86	C	1.449619	0.333121	0.235839
C87	C	1.782953	0.666454	0.569172
C88	C	0.899662	-0.000191	0.036451
C89	C	1.232995	0.333142	0.369784
C90	C	1.566328	0.666475	0.703117
C91	C	0.898323	-0.000192	0.120469
C92	C	1.231656	0.333142	0.453802
C93	C	1.564990	0.666475	0.787135
N94	N	0.893895	0.343906	-0.101931
N95	N	1.227228	0.677240	0.231402
N96	N	1.560562	1.010573	0.564735
C97	C	0.888102	-0.000160	-0.240322
C98	C	1.221435	0.333174	0.093011
C99	C	1.554768	0.666507	0.426345
C100	C	0.889440	-0.000150	-0.324340
C101	C	1.222773	0.333184	0.008993
C102	C	1.556107	0.666517	0.342327
C103	C	0.966656	-0.000209	0.169090
C104	C	1.299990	0.333125	0.502423
C105	C	1.633323	0.666458	0.835756
C106	C	0.965394	-0.000195	0.248033
C107	C	1.298727	0.333138	0.581366
C108	C	1.632061	0.666471	0.914700
C109	C	0.895798	-0.000176	0.278354
C110	C	1.229131	0.333158	0.611687
C111	C	1.562464	0.666491	0.945020
C112	C	0.827459	-0.000154	0.229727
C113	C	1.160792	0.333179	0.563060
C114	C	1.494126	0.666512	0.896393
C115	C	0.828722	-0.000157	0.150785
C116	C	1.162055	0.333176	0.484118
C117	C	1.495389	0.666510	0.817451
C118	C	0.822364	-0.000141	0.548090
C119	C	1.155697	0.333192	0.881423
C120	C	1.489030	0.666525	1.214756
C121	C	0.821106	-0.000143	0.627038
C122	C	1.154439	0.333190	0.960371
C123	C	1.487773	0.666524	1.293704
C124	C	0.959036	-0.000180	0.645338
C125	C	1.292369	0.333154	0.978671
C126	C	1.625703	0.666487	1.312004
C127	C	0.960299	-0.000182	0.566396
C128	C	1.293632	0.333151	0.899729
C129	C	1.626966	0.666484	1.233063
C130	C	0.891961	-0.000154	0.517776
C131	C	1.225294	0.333180	0.851109
C132	C	1.558627	0.666513	1.184442
C133	C	0.893330	-0.000165	0.432177
C134	C	1.226664	0.333168	0.765510
C135	C	1.559997	0.666502	1.098843
C136	C	0.894427	-0.000175	0.363951
C137	C	1.227761	0.333159	0.697285
C138	C	1.561094	0.666492	1.030618
H139	H	0.647537	-0.000106	-0.231384
H140	H	0.980870	0.333227	0.101949
H141	H	1.314204	0.666561	0.435283
H142	H	0.283434	-0.000224	0.025228
H143	H	0.616767	0.333110	0.358561
H144	H	0.950101	0.666443	0.691894
H145	H	0.974957	-0.645967	-0.182553
H146	H	1.308290	-0.312634	0.150780
H147	H	1.641624	0.020700	0.484113
Cl148	Cl	0.482792	-0.000120	-0.259357
Cl149	Cl	0.816126	0.333213	0.073976
Cl150	Cl	1.149459	0.666547	0.407309
Cl151	Cl	0.739966	-0.000112	0.267844
Cl152	Cl	1.073299	0.333222	0.601178
Cl153	Cl	1.406632	0.666555	0.934511
Cl154	Cl	0.836150	-0.560246	-0.044521
Cl155	Cl	1.169483	-0.226913	0.288812
Cl156	Cl	1.502816	0.106421	0.622145
Cl157	Cl	0.836153	-0.440165	-0.044516
Cl158	Cl	1.169486	-0.106831	0.288817
Cl159	Cl	1.502819	0.226502	0.622151
H160	H	0.537526	-0.000204	0.021154
H161	H	0.870859	0.333129	0.354487
H162	H	1.204193	0.666463	0.687820
H163	H	1.023330	-0.000233	0.144409
H164	H	1.356663	0.333100	0.477742
H165	H	1.689997	0.666433	0.811076
Cl166	Cl	0.702285	-0.000178	0.049132
Cl167	Cl	1.035619	0.333156	0.382466
Cl168	Cl	1.368952	0.666489	0.715799
Cl169	Cl	1.051303	-0.000221	0.309154
Cl170	Cl	1.384637	0.333112	0.642487
Cl171	Cl	1.717970	0.666446	0.975820
H172	H	1.016971	-0.000206	0.541714
H173	H	1.350305	0.333128	0.875047
H174	H	1.683638	0.666461	1.208380
H175	H	0.250232	-0.000156	-0.225025
H176	H	0.583566	0.333177	0.108308
H177	H	0.916899	0.666511	0.441641
Cl178	Cl	0.085481	-0.000166	-0.253002
Cl179	Cl	0.418814	0.333167	0.080331
Cl180	Cl	0.752147	0.666501	0.413664
H181	H	0.773078	-0.000143	0.111198
H182	H	1.106411	0.333190	0.444531
H183	H	1.439745	0.666524	0.777864
Cl184	Cl	0.126793	-0.000232	0.058340
Cl185	Cl	0.460126	0.333101	0.391673
Cl186	Cl	0.793459	0.666434	0.725006
H187	H	0.974944	-0.354337	-0.182548
H188	H	1.308277	-0.021004	0.150786
H189	H	1.641610	0.312329	0.484119
Cl190	Cl	0.733606	-0.000115	0.665153
Cl191	Cl	1.066940	0.333218	0.998487
Cl192	Cl	1.400273	0.666552	1.331820
Cl193	Cl	0.736452	-0.000101	0.486977
Cl194	Cl	1.069786	0.333232	0.820311
Cl195	Cl	1.403119	0.666565	1.153644
H196	H	1.014680	-0.000196	0.684934
H197	H	1.348013	0.333137	1.018268
H198	H	1.681347	0.666471	1.351601
