data_functionalizedCrystal
_audit_creation_method	'MofGen! by Chris Wilmer'
_symmetry_space_group_name_H-M	'P1'
_symmetry_Int_Tables_number	1
_symmetry_cell_setting	triclinic
loop_
_symmetry_equiv_pos_as_xyz
  x,y,z
_cell_length_a	10.654550
_cell_length_b	10.654551
_cell_length_c	9.198806
_cell_angle_alpha	89.999648
_cell_angle_beta	89.992525
_cell_angle_gamma	84.485132
loop_
_atom_site_label
_atom_site_type_symbol
_atom_site_fract_x
_atom_site_fract_y
_atom_site_fract_z
O1	O	1.667841	0.176396	-0.121002
O2	O	1.302363	0.193202	-0.120978
O3	O	1.493504	0.002060	-0.120991
O4	O	1.476700	0.367538	-0.120989
O5	O	1.493489	0.002059	0.120794
O6	O	1.302348	0.193201	0.120807
O7	O	1.667826	0.176395	0.120783
Cu8	Cu	1.485085	0.184798	0.142872
Cu9	Cu	1.485103	0.184799	-0.143067
O10	O	1.476684	0.367537	0.120796
C11	C	1.255557	0.191968	-0.000082
C12	C	1.116114	0.188276	-0.000073
C13	C	1.036629	0.300817	-0.000094
C14	C	0.905608	0.297341	-0.000119
C15	C	0.933570	0.068771	-0.000109
C16	C	1.064589	0.072249	-0.000074
C17	C	1.088154	0.416844	-0.000093
C18	C	1.008667	0.529395	-0.000115
C19	C	0.877647	0.525918	-0.000141
C20	C	0.826112	0.409891	-0.000144
C21	C	1.492263	-0.044739	-0.000102
C22	C	1.488570	-0.184182	-0.000112
C23	C	1.486846	-0.249693	-0.131906
C24	C	1.483366	-0.380714	-0.131899
C25	C	1.483339	-0.380700	0.131708
C26	C	1.486810	-0.249681	0.131700
C27	C	1.488606	-0.184194	-0.263717
C28	C	1.486884	-0.249706	-0.395522
C29	C	1.483403	-0.380727	-0.395516
C30	C	1.481646	-0.446235	-0.263704
C31	C	1.714632	0.177629	-0.000116
C32	C	1.854075	0.181321	-0.000134
C33	C	1.477926	0.414336	-0.000096
C34	C	1.481619	0.553779	-0.000096
N35	N	1.485082	0.184797	0.343986
N36	N	1.485117	0.184790	-0.344181
C37	C	1.565337	0.104188	0.416177
C38	C	1.565356	0.104184	0.583590
H39	H	1.194836	0.419687	-0.000080
H40	H	1.488187	-0.196337	0.239018
C41	C	1.601347	-0.009690	-0.191966
C42	C	1.492427	-0.040175	-0.263727
H43	H	1.603708	0.079221	-0.191979
H44	H	1.600536	-0.039320	-0.094618
H45	H	1.673668	-0.048281	-0.240653
H46	H	1.420105	-0.001592	-0.215034
H47	H	1.493227	-0.010531	-0.361093
C48	C	1.492198	-0.048866	-0.512584
C49	C	1.488786	-0.177701	-0.540405
H50	H	1.493371	-0.004418	-0.602032
H51	H	1.419667	-0.018465	-0.458419
H52	H	1.565885	-0.036342	-0.458451
H53	H	1.415093	-0.190226	-0.594529
H54	H	1.561324	-0.208112	-0.594592
C55	C	0.630849	0.467121	-0.124476
C56	C	0.682092	0.406062	-0.000172
H57	H	0.541940	0.464748	-0.124501
H58	H	0.650154	0.552317	-0.124456
H59	H	0.665688	0.425690	-0.208775
H60	H	0.647260	0.447499	0.084127
H61	H	0.662776	0.320850	-0.000179
H62	H	1.481909	-0.434047	0.239023
H63	H	0.891600	-0.025693	-0.000136
H64	H	1.129308	-0.019392	-0.000061
H65	H	1.634028	0.035173	0.354046
H66	H	1.481988	-0.434061	-0.502837
C67	C	1.459935	0.355353	0.484493
C68	C	1.392354	0.277966	0.572030
H69	H	1.402666	0.412870	0.432753
H70	H	1.512689	0.400900	0.543861
H71	H	1.510269	0.304770	0.417482
H72	H	1.342028	0.328548	0.639049
H73	H	1.339579	0.232415	0.512658
C74	C	1.197094	0.636217	-0.000099
C75	C	1.065309	0.656927	-0.000116
H76	H	1.232057	0.714953	-0.000109
H77	H	1.224282	0.589845	0.084219
H78	H	1.224317	0.589823	-0.084413
H79	H	1.038085	0.703313	0.084204
H80	H	1.038110	0.703318	-0.084443
C81	C	0.863174	0.752196	-0.000159
C82	C	0.790273	0.649629	-0.000163
H83	H	0.809232	0.828571	-0.000187
H84	H	0.914829	0.748804	0.084165
H85	H	0.914886	0.748781	-0.084468
H86	H	0.738567	0.653039	0.084152
H87	H	0.738597	0.653022	-0.084495
H88	H	1.478793	-0.552918	-0.263709
H89	H	1.634070	0.035175	0.645671
H90	H	1.416382	0.253802	0.406119
