data_functionalizedCrystal
_audit_creation_method	'MofGen! by Chris Wilmer'
_symmetry_space_group_name_H-M	'P1'
_symmetry_Int_Tables_number	1
_symmetry_cell_setting	triclinic
loop_
_symmetry_equiv_pos_as_xyz
  x,y,z
_cell_length_a	17.699077
_cell_length_b	10.654545
_cell_length_c	16.776229
_cell_angle_alpha	89.995723
_cell_angle_beta	89.993415
_cell_angle_gamma	83.883002
loop_
_atom_site_label
_atom_site_type_symbol
_atom_site_fract_x
_atom_site_fract_y
_atom_site_fract_z
O1	O	1.005091	0.158773	-0.066274
O2	O	0.784844	0.179442	-0.066277
O3	O	0.900031	-0.013721	-0.066275
O4	O	0.889904	0.351936	-0.066276
O5	O	0.900015	-0.013732	0.066302
O6	O	0.784828	0.179430	0.066300
O7	O	1.005076	0.158761	0.066303
Zn8	Zn	0.894949	0.169094	0.087351
Zn9	Zn	0.894970	0.169109	-0.087325
O10	O	0.889888	0.351924	0.066301
C11	C	0.756634	0.178697	0.000011
C12	C	0.672602	0.176479	0.000009
C13	C	0.633119	0.175427	0.072278
C14	C	0.554163	0.173323	0.072279
C15	C	0.514691	0.172280	0.000010
C16	C	0.554179	0.173328	-0.072264
C17	C	0.633134	0.175423	-0.072264
C18	C	0.235762	0.164877	-0.072265
C19	C	0.156801	0.162785	-0.072260
C20	C	0.156791	0.162777	0.072277
C21	C	0.235746	0.164872	0.072277
C22	C	0.275228	0.165913	0.000004
C23	C	0.360841	0.168192	0.000004
C24	C	0.429078	0.170009	0.000009
C25	C	0.899279	-0.060511	0.000012
C26	C	0.897054	-0.199916	0.000007
C27	C	0.897080	-0.199911	-0.144532
C28	C	0.896050	-0.265401	-0.216801
C29	C	0.893960	-0.396383	-0.216802
C30	C	0.892897	-0.461878	-0.144526
C31	C	0.893926	-0.396389	-0.072257
C32	C	0.896019	-0.265404	-0.072263
C33	C	0.893895	-0.396392	0.072281
C34	C	0.895991	-0.265411	0.072283
C35	C	0.892831	-0.461887	0.144557
C36	C	0.893867	-0.396398	0.216828
C37	C	0.895958	-0.265409	0.216826
C38	C	0.897020	-0.199921	0.144553
C39	C	1.033285	0.159506	0.000013
C40	C	1.117318	0.161724	0.000010
C41	C	0.890640	0.398715	0.000012
C42	C	0.892865	0.538119	0.000012
N43	N	0.894941	0.169082	0.206562
N44	N	0.894984	0.169111	-0.206536
C45	C	0.945962	0.083585	0.248280
C46	C	0.945966	0.083584	0.331732
C47	C	0.894953	0.169087	0.373465
C48	C	0.843926	0.254589	0.331741
C49	C	0.843919	0.254583	0.248290
C50	C	0.843954	0.254613	0.668288
C51	C	0.843967	0.254615	0.751745
C52	C	0.946001	0.083615	0.751730
C53	C	0.945994	0.083609	0.668279
C54	C	0.894965	0.169105	0.626563
C55	C	0.894960	0.169104	0.536074
C56	C	0.894960	0.169096	0.463952
H57	H	0.267899	0.165720	-0.131115
H58	H	0.802386	0.324203	0.365724
H59	H	0.802372	0.324202	0.214324
F60	F	0.890600	-0.601288	0.144554
H61	H	0.124665	0.161934	-0.131113
H62	H	0.987549	0.013994	0.785705
F63	F	0.114766	0.161663	0.149198
H64	H	0.987506	0.013964	0.214307
H65	H	0.522035	0.172469	-0.131106
H66	H	0.987536	0.013988	0.634303
H67	H	0.892995	-0.449734	0.275669
F68	F	1.000267	-0.007413	0.376132
F69	F	0.897049	-0.195718	0.293746
H70	H	0.802422	0.324245	0.785722
H71	H	0.665251	0.176287	0.131127
F72	F	0.512145	0.172221	0.149197
H73	H	0.665279	0.176281	-0.131112
H74	H	0.802406	0.324230	0.634329
F75	F	0.277751	0.165990	0.149195
F76	F	0.897198	-0.195692	-0.293718
F77	F	0.899318	-0.060511	-0.144537
H78	H	0.898727	-0.093270	0.144544
F79	F	0.892858	-0.466082	-0.293718
H80	H	0.891185	-0.568529	-0.144533
