data_functionalizedCrystal
_audit_creation_method	'MofGen! by Chris Wilmer'
_symmetry_space_group_name_H-M	'P1'
_symmetry_Int_Tables_number	1
_symmetry_cell_setting	triclinic
loop_
_symmetry_equiv_pos_as_xyz
  x,y,z
_cell_length_a	15.944499
_cell_length_b	10.723024
_cell_length_c	9.798715
_cell_angle_alpha	90.002215
_cell_angle_beta	89.993958
_cell_angle_gamma	96.027261
loop_
_atom_site_label
_atom_site_type_symbol
_atom_site_fract_x
_atom_site_fract_y
_atom_site_fract_z
O1	O	1.115470	-0.160625	-0.113569
O2	O	1.448803	0.172709	0.219764
O3	O	1.782136	0.506042	0.553097
O4	O	0.871028	-0.180534	-0.113554
O5	O	1.204361	0.152800	0.219780
O6	O	1.537695	0.486133	0.553113
O7	O	0.998887	0.011070	-0.113557
O8	O	1.332221	0.344403	0.219776
O9	O	1.665554	0.677736	0.553110
O10	O	0.987610	-0.352228	-0.113566
O11	O	1.320944	-0.018895	0.219767
O12	O	1.654277	0.314439	0.553100
O13	O	0.998878	0.011071	0.113425
O14	O	1.332212	0.344404	0.446759
O15	O	1.665545	0.677738	0.780092
O16	O	0.871019	-0.180532	0.113428
O17	O	1.204352	0.152801	0.446762
O18	O	1.537686	0.486134	0.780095
O19	O	1.115461	-0.160623	0.113413
O20	O	1.448794	0.172710	0.446746
O21	O	1.782127	0.506043	0.780079
Zn22	Zn	0.993238	-0.170578	0.149459
Zn23	Zn	1.326572	0.162756	0.482792
Zn24	Zn	1.659905	0.496089	0.816126
Zn25	Zn	0.993250	-0.170579	-0.149600
Zn26	Zn	1.326584	0.162754	0.183733
Zn27	Zn	1.659917	0.496087	0.517067
O28	O	0.987601	-0.352227	0.113416
O29	O	1.320935	-0.018893	0.446749
O30	O	1.654268	0.314440	0.780083
C31	C	0.839724	-0.179718	-0.000061
C32	C	1.173057	0.153615	0.333273
C33	C	1.506391	0.486949	0.666606
C34	C	0.746462	-0.177274	-0.000055
C35	C	1.079795	0.156059	0.333279
C36	C	1.413129	0.489393	0.666612
C37	C	0.455563	-0.288591	-0.000078
C38	C	0.788896	0.044742	0.333255
C39	C	1.122230	0.378076	0.666589
C40	C	0.516265	-0.230726	-0.111993
C41	C	0.849599	0.102607	0.221340
C42	C	1.182932	0.435940	0.554674
C43	C	0.410774	-0.168396	-0.000086
C44	C	0.744108	0.164937	0.333247
C45	C	1.077441	0.498270	0.666581
C46	C	0.516242	-0.230693	0.111794
C47	C	0.849576	0.102641	0.445127
C48	C	1.182909	0.435974	0.778460
C49	C	0.575708	-0.172765	-0.000068
C50	C	0.909042	0.160569	0.333265
C51	C	1.242375	0.493902	0.666598
C52	C	0.470249	-0.110498	-0.112094
C53	C	0.803582	0.222835	0.221240
C54	C	1.136915	0.556168	0.554573
C55	C	0.470219	-0.110481	0.111794
C56	C	0.803552	0.222852	0.445127
C57	C	1.136886	0.556185	0.778460
C58	C	0.530903	-0.052530	-0.000149
C59	C	0.864237	0.280804	0.333185
C60	C	1.197570	0.614137	0.666518
C61	C	0.315760	-0.165883	-0.000097
C62	C	0.649093	0.167450	0.333236
C63	C	0.982427	0.500784	0.666569
C64	C	0.670722	-0.175268	-0.000067
C65	C	1.004055	0.158065	0.333267
C66	C	1.337388	0.491398	0.666600
C67	C	1.146765	-0.161439	-0.000083
C68	C	1.480098	0.171894	0.333250
C69	C	1.813431	0.505228	0.666583
C70	C	1.240027	-0.163883	-0.000098
C71	C	1.573360	0.169450	0.333235
C72	C	1.906693	0.502784	0.666568
C73	C	0.998062	0.057560	-0.000067
C74	C	1.331395	0.390893	0.333266
C75	C	1.664729	0.724226	0.666599
C76	C	0.995607	0.196082	-0.000072
C77	C	1.328940	0.529415	0.333261
C78	C	1.662273	0.862749	0.666595
N79	N	0.993237	-0.170576	0.353559
N80	N	1.326570	0.162758	0.686892
N81	N	1.659903	0.496091	1.020225
C82	C	0.988427	-0.398716	-0.000077
C83	C	1.321760	-0.065383	0.333257
C84	C	1.655093	0.267950	0.666590
C85	C	0.990882	-0.537239	-0.000081
C86	C	1.324215	-0.203906	0.333252
C87	C	1.657549	0.129428	0.666586
C88	C	1.067150	0.271988	-0.000078
C89	C	1.400483	0.605322	0.333255
C90	C	1.733817	0.938655	0.666588
C91	C	1.064614	0.415159	-0.000083
C92	C	1.397947	0.748492	0.333250
C93	C	1.731281	1.081826	0.666583
N94	N	0.993259	-0.170571	-0.353700
N95	N	1.326592	0.162762	-0.020366
N96	N	1.659925	0.496095	0.312967
C97	C	1.047054	-0.089952	0.578489
C98	C	1.380387	0.243381	0.911822
C99	C	1.713721	0.576715	1.245156
C100	C	1.047043	-0.089954	0.421326
C101	C	1.380376	0.243380	0.754660
C102	C	1.713709	0.576713	1.087993
H103	H	0.449983	-0.059708	-0.206815
H104	H	0.783316	0.273625	0.126518
H105	H	1.116649	0.606958	0.459852
H106	H	0.947197	-0.239599	0.588006
H107	H	1.280530	0.093735	0.921339
H108	H	1.613864	0.427068	1.254672
Cl109	Cl	0.547741	-0.309213	-0.258079
Cl110	Cl	0.881074	0.024121	0.075254
Cl111	Cl	1.214408	0.357454	0.408588
H112	H	0.929632	0.397545	-0.000066
H113	H	1.262965	0.730878	0.333267
H114	H	1.596299	1.064212	0.666601
H115	H	1.093096	-0.020927	0.363012
H116	H	1.426429	0.312406	0.696345
H117	H	1.759763	0.645739	1.029678
H118	H	1.130278	0.230981	-0.000074
H119	H	1.463612	0.564314	0.333259
H120	H	1.796945	0.897648	0.666593
Cl121	Cl	0.581255	0.101607	-0.000237
Cl122	Cl	0.914588	0.434941	0.333096
Cl123	Cl	1.247922	0.768274	0.666429
H124	H	1.093123	-0.020933	0.636782
H125	H	1.426456	0.312400	0.970115
H126	H	1.759789	0.645734	1.303449
H127	H	0.422804	-0.388340	-0.000189
H128	H	0.756137	-0.055007	0.333145
H129	H	1.089471	0.278326	0.666478
Cl130	Cl	1.159180	0.515852	-0.000081
Cl131	Cl	1.492513	0.849186	0.333252
Cl132	Cl	1.825846	1.182519	0.666585
Cl133	Cl	0.922119	-0.277142	0.443578
Cl134	Cl	1.255452	0.056191	0.776911
Cl135	Cl	1.588785	0.389525	1.110244
Cl136	Cl	0.438701	-0.032055	0.257882
Cl137	Cl	0.772034	0.301278	0.591215
Cl138	Cl	1.105368	0.634611	0.924549
Cl139	Cl	0.547684	-0.309210	0.257864
Cl140	Cl	0.881018	0.024123	0.591198
Cl141	Cl	1.214351	0.357457	0.924531
H142	H	0.932479	0.237089	-0.000077
H143	H	1.265812	0.570423	0.333256
H144	H	1.599145	0.903756	0.666590
