data_functionalizedCrystal
_audit_creation_method	'MofGen! by Chris Wilmer'
_symmetry_space_group_name_H-M	'P1'
_symmetry_Int_Tables_number	1
_symmetry_cell_setting	triclinic
loop_
_symmetry_equiv_pos_as_xyz
  x,y,z
_cell_length_a	21.295419
_cell_length_b	29.839132
_cell_length_c	21.295411
_cell_angle_alpha	89.977422
_cell_angle_beta	90.024539
_cell_angle_gamma	89.939935
loop_
_atom_site_label
_atom_site_type_symbol
_atom_site_fract_x
_atom_site_fract_y
_atom_site_fract_z
Zn1	Zn	0.962291	0.178727	0.355907
Zn2	Zn	1.462291	0.678727	0.855907
Zn3	Zn	0.962166	0.253843	0.250631
Zn4	Zn	1.462166	0.753843	0.750631
Zn5	Zn	0.857014	0.178747	0.250652
Zn6	Zn	1.357014	0.678747	0.750652
Zn7	Zn	0.856956	0.253850	0.355862
Zn8	Zn	1.356956	0.753850	0.855862
O9	O	0.909607	0.216292	0.303263
O10	O	1.409607	0.716292	0.803263
O11	O	1.050364	0.188680	0.341952
O12	O	1.550364	0.688680	0.841952
O13	O	0.948190	0.243886	0.162544
O14	O	1.448190	0.743886	0.662544
O15	O	0.871056	0.115877	0.264642
O16	O	1.371056	0.615877	0.764642
O17	O	1.050272	0.243867	0.264606
O18	O	1.550272	0.743867	0.764606
O19	O	0.948402	0.115863	0.341972
O20	O	1.448402	0.615863	0.841972
O21	O	0.870935	0.188714	0.162560
O22	O	1.370935	0.688714	0.662560
O23	O	0.768917	0.188721	0.264599
O24	O	1.268917	0.688721	0.764599
O25	O	0.870957	0.243880	0.443958
O26	O	1.370957	0.743880	0.943958
O27	O	0.768875	0.243899	0.341896
O28	O	1.268875	0.743899	0.841896
O29	O	0.948346	0.188687	0.443991
O30	O	1.448346	0.688687	0.943991
O31	O	0.948134	0.316711	0.264562
O32	O	1.448134	0.816711	0.764562
O33	O	0.870836	0.316716	0.341876
O34	O	1.370836	0.816716	0.841876
C35	C	0.746055	0.216313	0.303245
C36	C	1.246055	0.716313	0.803245
C37	C	0.676087	0.216333	0.303253
C38	C	1.176087	0.716333	0.803253
C39	C	0.643291	0.187644	0.343589
C40	C	1.143291	0.687644	0.843589
C41	C	0.577548	0.187632	0.343592
C42	C	1.077548	0.687632	0.843592
C43	C	0.544605	0.216317	0.303264
C44	C	1.044605	0.716317	0.803264
C45	C	0.577409	0.245008	0.262920
C46	C	1.077409	0.745008	0.762920
C47	C	0.643150	0.245016	0.262914
C48	C	1.143150	0.745016	0.762914
N49	N	0.441315	0.255624	0.298344
N50	N	0.941315	0.755624	0.798344
N51	N	0.378864	0.255616	0.298353
N52	N	0.878864	0.755616	0.798353
C53	C	0.346530	0.216294	0.303278
C54	C	0.846530	0.716294	0.803278
N55	N	0.379007	0.176981	0.308206
N56	N	0.879007	0.676981	0.808206
N57	N	0.441464	0.176990	0.308201
N58	N	0.941464	0.676990	0.808201
C59	C	0.473319	0.216311	0.303266
C60	C	0.973319	0.716311	0.803266
C61	C	0.242448	0.187590	0.343619
C62	C	0.742448	0.687590	0.843619
C63	C	0.176704	0.187577	0.343617
C64	C	0.676704	0.687577	0.843617
C65	C	0.176567	0.244957	0.262949
C66	C	0.676567	0.744957	0.762949
C67	C	0.242309	0.244965	0.262948
C68	C	0.742309	0.744965	0.762948
C69	C	0.275246	0.216282	0.303286
C70	C	0.775246	0.716282	0.803286
C71	C	0.909482	0.333014	0.303226
C72	C	1.409482	0.833014	0.803226
C73	C	0.909487	0.382949	0.303231
C74	C	1.409487	0.882949	0.803231
C75	C	0.949884	0.692577	0.263039
C76	C	1.449884	1.192577	0.763039
C77	C	0.949944	0.880250	0.263053
C78	C	1.449944	1.380250	0.763053
O79	O	0.984224	0.904501	0.228870
O80	O	1.484224	1.404501	0.728870
N81	N	0.909673	0.903734	0.303273
N82	N	1.409673	1.403734	0.803273
C83	C	0.869387	0.880297	0.343495
C84	C	1.369387	1.380297	0.843495
O85	O	0.835140	0.904578	0.377710
O86	O	1.335140	1.404578	0.877710
C87	C	0.869330	0.692625	0.343484
C88	C	1.369330	1.192625	0.843484
C89	C	0.909600	0.669143	0.303257
C90	C	1.409600	1.169143	0.803257
C91	C	0.990151	0.669095	0.222816
C92	C	1.490151	1.169095	0.722816
C93	C	0.990133	0.622179	0.222810
C94	C	1.490133	1.122179	0.722810
C95	C	0.949848	0.598746	0.263028
C96	C	1.449848	1.098746	0.763028
C97	C	0.909582	0.622227	0.303251
C98	C	1.409582	1.122227	0.803251
C99	C	0.829048	0.669189	0.383709
C100	C	1.329048	1.169189	0.883709
C101	C	0.829038	0.622268	0.383704
C102	C	1.329038	1.122268	0.883704
C103	C	0.869308	0.598786	0.343476
C104	C	1.369308	1.098786	0.843476
C105	C	0.869280	0.551878	0.343463
C106	C	1.369280	1.051878	0.843463
N107	N	0.909551	0.528394	0.303243
N108	N	1.409551	1.028394	0.803243
C109	C	0.949835	0.551828	0.263026
C110	C	1.449835	1.051828	0.763026
C111	C	0.869418	0.978827	0.343498
C112	C	1.369418	1.478827	0.843498
C113	C	0.869432	1.025745	0.343500
C114	C	1.369432	1.525745	0.843500
C115	C	0.949990	1.025695	0.263059
C116	C	1.449990	1.525695	0.763059
C117	C	0.949973	0.978776	0.263054
C118	C	1.449973	1.478776	0.763054
C119	C	0.909690	0.955343	0.303278
C120	C	1.409690	1.455343	0.803278
C121	C	0.949794	0.453302	0.263017
C122	C	1.449794	0.953302	0.763017
C123	C	0.949771	0.406382	0.263013
C124	C	1.449771	0.906382	0.763013
C125	C	0.869215	0.406437	0.343456
C126	C	1.369215	0.906437	0.843456
C127	C	0.869236	0.453352	0.343458
C128	C	1.369236	0.953352	0.843458
C129	C	0.909531	0.476784	0.303236
C130	C	1.409531	0.976784	0.803236
O131	O	0.835023	0.527598	0.377634
O132	O	1.335023	1.027598	0.877634
O133	O	0.984087	0.527539	0.228826
O134	O	1.484087	1.027539	0.728826
C135	C	0.949902	0.739492	0.263045
C136	C	1.449902	1.239492	0.763045
C137	C	0.909635	0.762974	0.303268
C138	C	1.409635	1.262974	0.803268
C139	C	0.869351	0.739540	0.343486
C140	C	1.369351	1.239540	0.843486
C141	C	0.909649	0.809892	0.303270
C142	C	1.409649	1.309892	0.803270
C143	C	0.949933	0.833325	0.263052
C144	C	1.449933	1.333325	0.763052
C145	C	0.990204	0.809841	0.222832
C146	C	1.490204	1.309841	0.722832
C147	C	0.990186	0.762926	0.222827
C148	C	1.490186	1.262926	0.722827
C149	C	0.829080	0.763024	0.383706
C150	C	1.329080	1.263024	0.883706
C151	C	0.829100	0.809940	0.383708
C152	C	1.329100	1.309940	0.883708
C153	C	0.869385	0.833373	0.343490
C154	C	1.369385	1.333373	0.843490
C155	C	1.073797	0.216270	0.303281
C156	C	1.573797	0.716270	0.803281
C157	C	1.143765	0.216261	0.303289
C158	C	1.643765	0.716261	0.803289
C159	C	0.909726	1.099113	0.303301
C160	C	1.409726	1.599113	0.803301
C161	C	0.909716	1.049179	0.303282
C162	C	1.409716	1.549179	0.803282
C163	C	0.909659	0.216282	0.467453
C164	C	1.409659	0.716282	0.967453
C165	C	0.909682	0.216278	0.537422
C166	C	1.409682	0.716278	1.037422
C167	C	0.909591	0.216269	0.139711
C168	C	1.409591	0.716269	0.639711
C169	C	0.909691	0.216146	0.069744
C170	C	1.409691	0.716146	0.569744
C171	C	0.949976	0.187538	0.570306
C172	C	1.449976	0.687538	1.070306
C173	C	0.949975	0.187519	0.636049
C174	C	1.449975	0.687519	1.136049
C175	C	0.909686	0.216247	0.668904
C176	C	1.409686	0.716247	1.168904
C177	C	0.869384	0.244989	0.636011
C178	C	1.369384	0.744989	1.136011
C179	C	0.869382	0.245005	0.570270
C180	C	1.369382	0.745005	1.070270
N181	N	0.904816	0.255549	0.772119
N182	N	1.404816	0.755549	1.272119
N183	N	0.904822	0.255533	0.834570
N184	N	1.404822	0.755533	1.334570
C185	C	0.909690	0.216202	0.866979
C186	C	1.409690	0.716202	1.366979
N187	N	0.914565	0.176886	0.834577
N188	N	1.414565	0.676886	1.334577
N189	N	0.914563	0.176903	0.772120
N190	N	1.414563	0.676903	1.272120
C191	C	0.909684	0.216233	0.740190
C192	C	1.409684	0.716233	1.240190
C193	C	0.949986	0.187438	0.971149
C194	C	1.449986	0.687438	1.471149
C195	C	0.949981	0.187418	1.036893
C196	C	1.449981	0.687418	1.536893
C197	C	0.869393	0.244893	1.036854
C198	C	1.369393	0.744893	1.536854
C199	C	0.869395	0.244909	0.971112
C200	C	1.369395	0.744909	1.471112
C201	C	0.909695	0.216182	0.938263
C202	C	1.409695	0.716182	1.438263
H203	H	0.982563	0.387265	0.230253
H204	H	1.482563	0.887265	0.730253
H205	H	0.150003	0.164212	0.376463
H206	H	0.650003	0.664212	0.876463
Br207	Br	0.814569	0.485222	0.398037
Br208	Br	1.314569	0.985222	0.898037
Br209	Br	1.004666	0.148550	0.525729
Br210	Br	1.504666	0.648550	1.025729
H211	H	0.982793	0.164012	1.063667
H212	H	1.482793	0.664012	1.563667
Br213	Br	0.131865	0.283882	0.208211
Br214	Br	0.631865	0.783882	0.708211
H215	H	0.982787	0.164113	0.662829
H216	H	1.482787	0.664113	1.162829
Br217	Br	0.533029	0.148693	0.398335
Br218	Br	1.033029	0.648693	0.898335
Br219	Br	0.286822	0.283899	0.208198
Br220	Br	0.786822	0.783899	0.708198
Br221	Br	1.044796	0.590319	0.168222
Br222	Br	1.544796	1.090319	0.668222
Br223	Br	1.004675	0.148452	0.926565
Br224	Br	1.504675	0.648452	1.426565
Br225	Br	1.004480	0.485094	0.208429
Br226	Br	1.504480	0.985094	0.708429
Br227	Br	1.044831	0.700889	0.168228
Br228	Br	1.544831	1.200889	0.668228
Br229	Br	0.814769	1.057608	0.398087
Br230	Br	1.314769	1.557608	0.898087
Br231	Br	1.004626	0.946913	0.208457
Br232	Br	1.504626	1.446913	0.708457
Br233	Br	0.532702	0.283935	0.208185
Br234	Br	1.032702	0.783935	0.708185
Br235	Br	0.814691	0.284012	0.525638
Br236	Br	1.314691	0.784012	1.025638
Br237	Br	0.814706	0.283877	1.081437
Br238	Br	1.314706	0.783877	1.581437
Br239	Br	0.814742	0.947032	0.398093
Br240	Br	1.314742	1.447032	0.898093
Br241	Br	0.774400	0.701045	0.438313
Br242	Br	1.274400	1.201045	0.938313
Br243	Br	0.814707	0.283916	0.926479
Br244	Br	1.314707	0.783916	1.426479
H245	H	0.982791	1.044782	0.230312
H246	H	1.482791	1.544782	0.730312
H247	H	0.796303	0.829055	0.416465
H248	H	1.296303	1.329055	0.916465
H249	H	0.669853	0.268379	0.230067
H250	H	1.169853	0.768379	0.730067
H251	H	0.796235	0.603191	0.416461
H252	H	1.296235	1.103191	0.916461
H253	H	0.836414	0.387350	0.376199
H254	H	1.336414	0.887350	0.876199
H255	H	1.022978	0.743810	0.190070
H256	H	1.522978	1.243810	0.690070
Br257	Br	0.287152	0.148661	0.398359
Br258	Br	0.787152	0.648661	0.898359
H259	H	0.670104	0.164288	0.376435
H260	H	1.170104	0.664288	0.876435
Br261	Br	1.044873	0.841653	0.168249
Br262	Br	1.544873	1.341653	0.668249
H263	H	0.796276	0.743948	0.416457
H264	H	1.296276	1.243948	0.916457
H265	H	0.836579	0.268379	0.662766
H266	H	1.336579	0.768379	1.162766
