data_functionalizedCrystal
_audit_creation_method	'MofGen! by Chris Wilmer'
_symmetry_space_group_name_H-M	'P1'
_symmetry_Int_Tables_number	1
_symmetry_cell_setting	triclinic
loop_
_symmetry_equiv_pos_as_xyz
  x,y,z
_cell_length_a	17.666332
_cell_length_b	8.559649
_cell_length_c	8.559649
_cell_angle_alpha	69.778664
_cell_angle_beta	89.994648
_cell_angle_gamma	89.990774
loop_
_atom_site_label
_atom_site_type_symbol
_atom_site_fract_x
_atom_site_fract_y
_atom_site_fract_z
O1	O	0.062936	-2.126892	0.055034
O2	O	0.062939	-1.651407	-0.028748
O3	O	0.062937	-1.931040	0.250885
O4	O	0.062939	-1.847259	-0.224599
O5	O	-0.062960	-1.930998	0.250893
O6	O	-0.062957	-1.651365	-0.028740
O7	O	-0.062960	-2.126850	0.055042
Cu8	Cu	-0.074454	-1.889104	0.013152
Cu9	Cu	0.074433	-1.889154	0.013142
O10	O	-0.062958	-1.847217	-0.224592
C11	C	-0.000009	-1.591077	-0.035093
C12	C	-0.000007	-1.411378	-0.053992
C13	C	-0.000010	-1.937369	0.311198
C14	C	-0.000006	-1.956268	0.490898
N15	N	-0.179174	-1.889081	0.013161
C16	C	-0.218784	-2.012932	0.136933
C17	C	-0.298032	-2.012942	0.136942
C18	C	-0.337666	-1.889114	0.013153
C19	C	-0.298045	-1.765241	-0.110630
C20	C	-0.218799	-1.765225	-0.110626
N21	N	-0.462084	-1.850848	-0.132928
N22	N	-0.537364	-1.850874	-0.132926
C23	C	-0.576430	-1.889154	0.013135
N24	N	-0.537371	-1.927439	0.159202
N25	N	-0.462084	-1.927421	0.159199
C26	C	-0.423595	-1.889117	0.013135
C27	C	-0.701970	-2.013023	0.136927
C28	C	-0.781219	-2.013022	0.136936
C29	C	-0.781231	-1.765328	-0.110649
C30	C	-0.701983	-1.765322	-0.110645
C31	C	-0.662358	-1.889178	0.013142
N32	N	0.179153	-1.889191	0.013148
C33	C	-0.000011	-2.187180	0.061387
C34	C	-0.000007	-2.366879	0.080286
C35	C	-0.000009	-1.840889	-0.284904
C36	C	-0.000008	-1.821990	-0.464604
H37	H	-0.330289	-2.113799	0.237735
H38	H	-0.186524	-2.113779	0.237730
H39	H	-0.330319	-1.664416	-0.211419
H40	H	-0.186547	-1.664369	-0.211418
H41	H	-0.000013	-2.085696	0.590286
H42	H	-0.669705	-2.113870	0.237726
C43	C	-0.824796	-2.149265	0.273094
C44	C	-0.781208	-2.285527	0.409219
C45	C	-0.824787	-2.421771	0.545377
C46	C	-0.911955	-2.421753	0.545411
C47	C	-0.955548	-2.285486	0.409281
C48	C	-0.911969	-2.149242	0.273123
H49	H	-0.716677	-2.285544	0.409198
H50	H	-0.792516	-2.522644	0.646149
H51	H	-0.944215	-2.522609	0.646203
H52	H	-1.020079	-2.285469	0.409302
H53	H	-0.944240	-2.048368	0.172351
H54	H	-0.000003	-1.311990	-0.183420
H55	H	-0.000004	-1.466258	0.209705
H56	H	-0.669730	-1.664477	-0.211438
H57	H	-0.813500	-1.664499	-0.211434
H58	H	-0.000010	-1.692570	0.436018
