data_functionalizedCrystal
_audit_creation_method	'MofGen! by Chris Wilmer'
_symmetry_space_group_name_H-M	'P1'
_symmetry_Int_Tables_number	1
_symmetry_cell_setting	triclinic
loop_
_symmetry_equiv_pos_as_xyz
  x,y,z
_cell_length_a	10.654550
_cell_length_b	10.654551
_cell_length_c	9.730223
_cell_angle_alpha	90.000061
_cell_angle_beta	89.993488
_cell_angle_gamma	84.485132
loop_
_atom_site_label
_atom_site_type_symbol
_atom_site_fract_x
_atom_site_fract_y
_atom_site_fract_z
O1	O	1.667840	0.176395	-0.114394
O2	O	1.302361	0.193201	-0.114371
O3	O	1.493503	0.002059	-0.114383
O4	O	1.476698	0.367537	-0.114381
O5	O	1.493491	0.002060	0.114197
O6	O	1.302349	0.193202	0.114209
O7	O	1.667828	0.176396	0.114186
Zn8	Zn	1.485087	0.184799	0.150490
Zn9	Zn	1.485102	0.184798	-0.150674
O10	O	1.476686	0.367538	0.114199
C11	C	1.255557	0.191968	-0.000078
C12	C	1.116114	0.188276	-0.000069
C13	C	1.492263	-0.044739	-0.000096
C14	C	1.488570	-0.184182	-0.000105
C15	C	1.036629	0.300817	-0.000089
C16	C	0.905608	0.297341	-0.000113
C17	C	0.933570	0.068771	-0.000104
C18	C	1.064589	0.072249	-0.000070
C19	C	1.088154	0.416844	-0.000088
C20	C	1.008667	0.529395	-0.000109
C21	C	0.877647	0.525918	-0.000133
C22	C	0.826112	0.409891	-0.000136
C23	C	1.486844	-0.249694	-0.124702
C24	C	1.483364	-0.380714	-0.124695
C25	C	1.483341	-0.380699	0.124515
C26	C	1.486812	-0.249680	0.124507
C27	C	1.488602	-0.184196	-0.249314
C28	C	1.486878	-0.249708	-0.373921
C29	C	1.483398	-0.380729	-0.373914
C30	C	1.481642	-0.446236	-0.249301
C31	C	1.714632	0.177629	-0.000109
C32	C	1.854075	0.181321	-0.000127
C33	C	1.477926	0.414336	-0.000091
C34	C	1.481619	0.553779	-0.000091
N35	N	1.485085	0.184799	0.356026
N36	N	1.485114	0.184788	-0.356211
C37	C	1.569760	0.100182	0.571831
C38	C	1.569749	0.100189	0.427948
C39	C	1.400435	0.269415	0.427995
C40	C	1.400453	0.269412	0.571875
C41	C	1.654421	0.015558	0.643745
C42	C	1.739073	-0.069057	0.571786
C43	C	1.739062	-0.069049	0.427903
C44	C	1.654399	0.015574	0.355979
H45	H	1.194836	0.419687	-0.000075
Cl46	Cl	1.492984	-0.019486	-0.249331
H47	H	0.719425	0.407069	-0.000134
Cl48	Cl	1.294005	0.375785	0.337577
Cl49	Cl	1.481137	-0.463053	0.281160
Cl50	Cl	0.777724	0.667407	-0.000146
Cl51	Cl	1.845489	-0.175408	0.337441
Cl52	Cl	1.481217	-0.463082	-0.530559
Cl53	Cl	1.845512	-0.175422	0.662200
Cl54	Cl	1.654434	0.015539	0.824625
H55	H	1.478790	-0.552920	-0.249306
Cl56	Cl	1.488989	-0.167316	0.281146
Cl57	Cl	1.654403	0.015588	0.175095
H58	H	1.488296	-0.196362	-0.475376
Cl59	Cl	0.868782	-0.077081	-0.000115
H60	H	1.050636	0.623860	-0.000095
Cl61	Cl	1.164520	-0.069234	-0.000043
Cl62	Cl	1.294040	0.375782	0.662340
