data_functionalizedCrystal
_audit_creation_method	'MofGen! by Chris Wilmer'
_symmetry_space_group_name_H-M	'P1'
_symmetry_Int_Tables_number	1
_symmetry_cell_setting	triclinic
loop_
_symmetry_equiv_pos_as_xyz
  x,y,z
_cell_length_a	13.262522
_cell_length_b	17.019294
_cell_length_c	11.804365
_cell_angle_alpha	98.044273
_cell_angle_beta	62.659257
_cell_angle_gamma	82.862487
loop_
_atom_site_label
_atom_site_type_symbol
_atom_site_fract_x
_atom_site_fract_y
_atom_site_fract_z
O1	O	1.519489	0.011393	-0.592292
O2	O	1.191751	0.039484	-0.489034
O3	O	1.362104	-0.087842	-0.531141
O4	O	1.349136	0.138718	-0.550185
O5	O	1.317256	-0.054353	-0.321996
O6	O	1.146903	0.072972	-0.279889
O7	O	1.474641	0.044881	-0.383147
Cu8	Cu	1.306677	0.061984	-0.312422
Cu9	Cu	1.359715	0.022381	-0.559759
O10	O	1.304288	0.172207	-0.341040
C11	C	1.127342	0.057733	-0.371019
C12	C	1.002240	0.062210	-0.330964
C13	C	0.919026	0.082570	-0.198134
C14	C	0.801486	0.086770	-0.160489
C15	C	0.767147	0.070616	-0.255671
C16	C	0.850361	0.050262	-0.388503
C17	C	0.967914	0.046055	-0.426152
C18	C	0.816034	0.034102	-0.483688
C19	C	0.899248	0.013747	-0.616521
C20	C	1.016788	0.009542	-0.654163
C21	C	1.051128	0.025695	-0.558981
C22	C	0.698481	0.038308	-0.446040
C23	C	0.747368	0.001794	-0.674058
C24	C	0.864909	-0.002406	-0.711702
C25	C	1.338304	-0.099944	-0.423166
C26	C	1.334190	-0.185897	-0.413023
C27	C	1.356707	-0.244527	-0.522263
C28	C	1.352833	-0.325287	-0.512726
C29	C	1.326451	-0.347416	-0.393951
C30	C	1.303930	-0.288778	-0.284703
C31	C	1.307795	-0.208018	-0.294238
C32	C	1.313549	-0.590343	-0.359455
C33	C	1.309688	-0.671110	-0.349929
C34	C	1.358590	-0.707613	-0.577953
C35	C	1.362460	-0.626852	-0.587480
C36	C	1.339932	-0.568220	-0.478230
C37	C	1.322495	-0.429965	-0.384202
C38	C	1.343881	-0.485671	-0.487978
C39	C	1.539051	0.026631	-0.501165
C40	C	1.664154	0.022154	-0.541228
C41	C	1.328089	0.184309	-0.449018
C42	C	1.332204	0.270260	-0.459169
N43	N	1.269381	0.089839	-0.138460
N44	N	1.397020	-0.005480	-0.733723
C45	C	1.486581	-0.072384	0.181790
C46	C	1.514794	-0.093459	0.050154
C47	C	1.453443	-0.047636	0.002994
C48	C	1.363874	0.019265	0.087483
C49	C	1.335665	0.040346	0.219130
C50	C	1.302527	0.065093	0.040334
C51	C	1.212959	0.131995	0.124823
C52	C	1.184753	0.153072	0.256457
C53	C	1.246104	0.107249	0.303617
C54	C	1.330736	0.044012	-0.091313
C55	C	1.179820	0.156742	-0.053973
C56	C	1.151607	0.177817	0.077663
H57	H	0.671438	0.074039	-0.225012
H58	H	1.371173	-0.373023	-0.601682
H59	H	1.403663	-0.010458	-0.160094
N60	N	1.390918	-0.602986	-0.715588
H61	H	1.404594	-0.652384	-0.783346
H62	H	1.323929	-0.560637	-0.702941
N63	N	1.483866	-0.070364	-0.138983
H64	H	1.549914	-0.119699	-0.185350
H65	H	1.413807	-0.083034	-0.144910
H66	H	0.630738	0.054888	-0.337887
H67	H	1.084542	-0.007043	-0.762323
N68	N	1.611391	-0.165611	-0.040965
H69	H	1.619957	-0.172010	-0.131516
H70	H	1.686574	-0.156770	-0.044439
N71	N	1.281250	-0.694978	-0.221820
H72	H	1.282237	-0.755039	-0.232367
H73	H	1.340919	-0.682520	-0.195292
H74	H	1.146836	0.022279	-0.589625
H75	H	1.536530	-0.109683	0.220196
N76	N	1.289266	-0.527113	-0.241631
H77	H	1.271976	-0.553390	-0.164947
H78	H	1.359467	-0.502448	-0.262197
H79	H	1.223130	0.124406	0.410807
H80	H	1.282442	-0.306800	-0.187991
H81	H	0.733743	0.103332	-0.052337
N82	N	1.283505	-0.144776	-0.176415
H83	H	1.266207	-0.171047	-0.099724
H84	H	1.353700	-0.120106	-0.196972
N85	N	0.954660	-0.024366	-0.854970
H86	H	0.996443	0.021538	-0.878028
H87	H	1.012520	-0.075406	-0.873212
N88	N	1.113634	0.206175	-0.104810
H89	H	1.169140	0.229702	-0.176937
H90	H	1.074805	0.170137	-0.140179
H91	H	1.376928	-0.755359	-0.666898
N92	N	1.372258	-0.461765	-0.616035
H93	H	1.444590	-0.438685	-0.646655
H94	H	1.385865	-0.511170	-0.683737
N95	N	1.294062	-0.453840	-0.256105
H96	H	1.280389	-0.404446	-0.188343
H97	H	1.221733	-0.476917	-0.225610
H98	H	0.719411	-0.011358	-0.751563
H99	H	0.946999	0.095713	-0.120652
H100	H	1.378196	-0.226519	-0.618984
N101	N	1.088147	0.225226	0.347589
H102	H	1.053554	0.251053	0.297746
H103	H	1.025997	0.206651	0.421351
N104	N	1.055006	0.249972	0.168803
H105	H	1.087105	0.290990	0.205915
H106	H	1.020448	0.275740	0.118886
