data_functionalizedCrystal
_audit_creation_method	'MofGen! by Chris Wilmer'
_symmetry_space_group_name_H-M	'P1'
_symmetry_Int_Tables_number	1
_symmetry_cell_setting	triclinic
loop_
_symmetry_equiv_pos_as_xyz
  x,y,z
_cell_length_a	14.908571
_cell_length_b	18.101397
_cell_length_c	14.909241
_cell_angle_alpha	93.329944
_cell_angle_beta	96.789245
_cell_angle_gamma	86.716412
loop_
_atom_site_label
_atom_site_type_symbol
_atom_site_fract_x
_atom_site_fract_y
_atom_site_fract_z
Zn1	Zn	1.413360	-0.333842	0.591492
Zn2	Zn	1.404522	-0.464448	0.440111
Zn3	Zn	1.253256	-0.333860	0.431423
Zn4	Zn	1.261959	-0.450880	0.582714
O5	O	1.333274	-0.395758	0.511435
O6	O	1.538855	-0.356838	0.578720
O7	O	1.377115	-0.452811	0.312289
O8	O	1.274551	-0.230226	0.452694
O9	O	1.532361	-0.452794	0.467501
O10	O	1.392179	-0.230213	0.570296
O11	O	1.265981	-0.356869	0.305906
O12	O	1.127744	-0.343712	0.444183
O13	O	1.289383	-0.429669	0.710548
O14	O	1.134137	-0.429686	0.555336
O15	O	1.400617	-0.343682	0.716996
O16	O	1.385553	-0.566280	0.458990
O17	O	1.280813	-0.556312	0.563760
C18	C	1.098097	-0.385229	0.497864
C19	C	0.997488	-0.380742	0.492080
C20	C	0.815131	-0.461989	0.596799
C21	C	0.720601	-0.457775	0.591368
C22	C	0.713895	-0.368097	0.475791
C23	C	0.808426	-0.372311	0.481222
C24	C	0.859041	-0.419259	0.541728
C25	C	0.953573	-0.423477	0.547154
C26	C	0.946866	-0.333795	0.431582
C27	C	0.852335	-0.329582	0.426151
C28	C	1.333194	-0.588167	0.511387
C29	C	1.333245	-0.670482	0.511401
C30	C	1.333365	-0.969575	0.511490
C31	C	1.399059	-0.944490	0.445373
C32	C	1.399311	-0.858874	0.445569
C33	C	1.333305	-0.821192	0.511445
C34	C	1.364672	-0.849092	0.608346
C35	C	1.365189	-0.934778	0.607995
C36	C	1.236166	-0.934894	0.481522
C37	C	1.236516	-0.849360	0.479419
C38	C	1.333270	-0.737331	0.511425
C39	C	1.333402	-1.053435	0.511516
C40	C	1.569370	-0.406327	0.525059
C41	C	1.669980	-0.410832	0.530865
C42	C	1.346957	-0.385160	0.747534
C43	C	1.352788	-0.380644	0.848146
C44	C	1.333380	-0.202597	0.511505
C45	C	1.333425	-0.120284	0.511534
C46	C	1.319697	-0.406263	0.276257
C47	C	1.314041	-0.410579	0.175656
C48	C	1.247919	-0.461713	1.030492
C49	C	1.253394	-0.457472	1.125025
C50	C	1.369218	-0.367925	1.131748
C51	C	1.363743	-0.372166	1.037214
C52	C	1.303090	-0.419061	0.986590
C53	C	1.297611	-0.423297	0.892054
C54	C	1.413439	-0.333755	0.898779
C55	C	1.418914	-0.329514	0.993312
H56	H	1.379049	-0.840351	0.373891
N57	N	0.659293	-0.317466	0.410536
H58	H	0.701452	-0.291035	0.376469
H59	H	0.622233	-0.279835	0.445209
N60	N	0.797734	-0.278964	0.360880
H61	H	0.760656	-0.241285	0.395472
H62	H	0.756124	-0.309218	0.316640
N63	N	0.994223	-0.287710	0.372172
H64	H	1.061789	-0.297504	0.384789
H65	H	0.978542	-0.233462	0.385423
H66	H	1.458359	-0.299021	0.863023
N67	N	1.459519	-0.964089	0.640752
H68	H	1.457924	-0.992400	0.696907
H69	H	1.500316	-0.921298	0.655232
N70	N	0.869730	-0.512626	0.662049
H71	H	0.906794	-0.550299	0.627433
H72	H	0.827511	-0.539008	0.696094
H73	H	1.435120	-0.829739	0.633396
N74	N	0.673239	-0.503863	0.650764
H75	H	0.719651	-0.534242	0.689915
H76	H	0.631863	-0.537997	0.611586
H77	H	1.378980	-0.967589	0.373495
H78	H	1.468298	-0.291336	1.034543
H79	H	1.470548	-0.968399	0.465430
H80	H	1.471199	-0.840781	0.465834
H81	H	1.198516	-0.499882	0.989272
H82	H	1.208695	-0.958557	0.411799
H83	H	1.319737	-0.950918	0.659253
H84	H	1.208469	-0.492204	1.160767
H85	H	1.318525	-0.824133	0.659170
N86	N	1.434640	-0.317357	1.186357
H87	H	1.429737	-0.321147	1.252905
H88	H	1.419622	-0.264575	1.169049
N89	N	1.205310	-0.825530	0.384925
H90	H	1.253660	-0.796606	0.362946
H91	H	1.147768	-0.793307	0.385475
N92	N	1.232194	-0.473878	0.837460
H93	H	1.266689	-0.511602	0.800347
H94	H	1.187999	-0.443616	0.795883
H95	H	1.184491	-0.823411	0.523606
H96	H	0.994782	-0.461706	0.596419
H97	H	1.187151	-0.950554	0.529610
