data_functionalizedCrystal
_audit_creation_method	'MofGen! by Chris Wilmer'
_symmetry_space_group_name_H-M	'P1'
_symmetry_Int_Tables_number	1
_symmetry_cell_setting	triclinic
loop_
_symmetry_equiv_pos_as_xyz
  x,y,z
_cell_length_a	14.908558
_cell_length_b	14.908579
_cell_length_c	14.908308
_cell_angle_alpha	96.363296
_cell_angle_beta	89.824401
_cell_angle_gamma	89.793522
loop_
_atom_site_label
_atom_site_type_symbol
_atom_site_fract_x
_atom_site_fract_y
_atom_site_fract_z
Zn1	Zn	1.316639	0.470634	0.613076
Zn2	Zn	1.316534	0.613274	0.470447
Zn3	Zn	1.176009	0.453311	0.453136
Zn4	Zn	1.157627	0.612200	0.612041
O5	O	1.241702	0.537355	0.537175
O6	O	1.441983	0.497255	0.601833
O7	O	1.305542	0.585254	0.341957
O8	O	1.202401	0.329419	0.467541
O9	O	1.441905	0.602052	0.497044
O10	O	1.305722	0.342146	0.585048
O11	O	1.202299	0.467730	0.329239
O12	O	1.048213	0.466689	0.466538
O13	O	1.171071	0.600221	0.738372
O14	O	1.034708	0.583423	0.583285
O15	O	1.287897	0.496214	0.739132
O16	O	1.287717	0.739322	0.496041
O17	O	1.170969	0.738533	0.600070
C18	C	1.008957	0.523060	0.522921
C19	C	0.909385	0.516968	0.516846
C20	C	0.776047	0.447524	0.447590
C21	C	0.869604	0.453244	0.453294
C22	C	0.855600	0.574975	0.574700
C23	C	0.762043	0.569255	0.568996
C24	C	0.722270	0.505529	0.505437
C25	C	0.628710	0.499814	0.499729
C26	C	0.614708	0.621540	0.621139
C27	C	0.708266	0.627260	0.626843
C28	C	1.227360	0.771649	0.549843
C29	C	1.221304	0.871888	0.555297
C30	C	1.331608	1.061021	0.457321
C31	C	1.325921	1.155204	0.462443
C32	C	1.204250	1.154441	0.570668
C33	C	1.209936	1.060257	0.565546
C34	C	1.273616	1.013551	0.508869
C35	C	1.279298	0.919365	0.503743
C36	C	1.157631	0.918604	0.611972
C37	C	1.151945	1.012787	0.617094
C38	C	1.475357	0.551706	0.551485
C39	C	1.574926	0.557821	0.557583
C40	C	1.256117	1.302148	0.524491
C41	C	1.262243	1.201917	0.519114
C42	C	1.227445	0.550030	0.772387
C43	C	1.221370	0.555432	0.872621
C44	C	1.255959	0.524667	0.302878
C45	C	1.262224	0.519022	0.202641
C46	C	1.331603	0.457258	1.061762
C47	C	1.325897	0.462330	1.155941
C48	C	1.204250	0.570643	1.155157
C49	C	1.209955	0.565571	1.060979
C50	C	1.273635	0.508877	1.014285
C51	C	1.279344	0.503810	0.920105
C52	C	1.157693	0.612118	0.919323
C53	C	1.151987	0.617190	1.013501
H54	H	0.743663	0.395637	0.395836
H55	H	1.331196	0.457649	0.882089
O56	O	1.388421	0.406643	1.207137
H57	H	1.348532	0.360607	1.245099
H58	H	0.913387	0.406007	0.406191
H59	H	1.110493	0.654153	0.880657
O60	O	1.135557	0.631772	1.205524
H61	H	1.141329	0.626621	1.278987
H62	H	0.888000	0.626854	0.626450
H63	H	0.570912	0.668772	0.668243
H64	H	1.383453	1.022991	0.411166
O65	O	1.083263	1.063163	0.678222
H66	H	1.015001	1.039997	0.657407
O67	O	1.095079	0.867407	0.667580
H68	H	1.109733	0.794068	0.654502
O69	O	0.751164	0.695973	0.695412
H70	H	0.825256	0.690203	0.689666
H71	H	1.383457	0.411100	1.023744
O72	O	1.388483	1.206403	0.406856
H73	H	1.373842	1.279743	0.419948
O74	O	1.083302	0.678330	1.063866
H75	H	1.117983	0.728984	1.111705
H76	H	0.596329	0.447924	0.447978
O77	O	1.347991	0.868994	0.442625
H78	H	1.393669	0.831001	0.483489
H79	H	1.152410	1.192487	0.616817
