data_functionalizedCrystal
_audit_creation_method	'MofGen! by Chris Wilmer'
_symmetry_space_group_name_H-M	'P1'
_symmetry_Int_Tables_number	1
_symmetry_cell_setting	triclinic
loop_
_symmetry_equiv_pos_as_xyz
  x,y,z
_cell_length_a	13.635800
_cell_length_b	17.078472
_cell_length_c	17.982968
_cell_angle_alpha	83.515206
_cell_angle_beta	77.548040
_cell_angle_gamma	99.306020
loop_
_atom_site_label
_atom_site_type_symbol
_atom_site_fract_x
_atom_site_fract_y
_atom_site_fract_z
V1	V	-1.997059	-0.110510	0.237471
O2	O	-2.001842	0.004546	0.233030
O3	O	-1.962623	-0.218388	0.235772
O4	O	-1.970442	-0.109146	0.341075
O5	O	-1.993969	-0.105452	0.126997
V6	V	-2.240512	-0.096709	0.224267
O7	O	-2.123976	-0.140785	0.266436
O8	O	-2.338693	-0.066433	0.195302
O9	O	-2.163345	0.011169	0.225967
O10	O	-2.294427	-0.211764	0.228709
O11	O	-2.302301	-0.101766	0.334742
O12	O	-2.155526	-0.098073	0.120663
V13	V	-1.497059	-0.110510	0.237471
O14	O	-1.501842	0.004546	0.233030
O15	O	-1.462623	-0.218388	0.235772
O16	O	-1.470442	-0.109146	0.341075
O17	O	-1.493969	-0.105452	0.126997
V18	V	-1.740512	-0.096709	0.224267
O19	O	-1.623976	-0.140785	0.266436
O20	O	-1.838693	-0.066433	0.195302
O21	O	-1.663345	0.011169	0.225967
O22	O	-1.794427	-0.211764	0.228709
O23	O	-1.802301	-0.101766	0.334742
O24	O	-1.655526	-0.098073	0.120663
C25	C	-1.882711	-0.244675	0.232006
C26	C	-1.895183	-0.332869	0.231307
C27	C	-1.892685	-0.105326	0.366330
C28	C	-1.911497	-0.104924	0.451027
C29	C	-1.991618	-0.378355	0.234776
C30	C	-2.003332	-0.461222	0.234123
C31	C	-1.918608	-0.498601	0.229996
C32	C	-1.822165	-0.453110	0.226529
C33	C	-1.810454	-0.370244	0.227187
C34	C	-1.943921	-0.745998	0.227626
C35	C	-1.955640	-0.828869	0.226966
C36	C	-2.136806	-0.836976	0.234561
C37	C	-2.125085	-0.754108	0.235214
C38	C	-2.028645	-0.708624	0.231751
N39	N	-1.930578	-0.583305	0.229327
N40	N	-2.016677	-0.623923	0.232426
C41	C	-2.074927	0.037452	0.229730
C42	C	-2.052075	0.125645	0.230435
C43	C	-2.064954	-0.101896	0.095404
C44	C	-2.035762	-0.102293	0.010707
C45	C	-1.382711	-0.244675	0.232006
C46	C	-1.395183	-0.332869	0.231307
C47	C	-1.392685	-0.105326	0.366330
C48	C	-1.411497	-0.104924	0.451027
C49	C	-2.010917	-0.108711	0.494696
C50	C	-2.028587	-0.108333	0.574277
C51	C	-1.946836	-0.104174	0.610188
C52	C	-1.847406	-0.100384	0.566513
C53	C	-1.829737	-0.100756	0.486932
C54	C	-1.918663	-0.098882	0.887451
C55	C	-1.936341	-0.098512	0.967037
C56	C	-2.117513	-0.106458	0.974795
C57	C	-2.099843	-0.106830	0.895215
C58	C	-2.000415	-0.103037	0.851546
C59	C	-1.981257	-0.103445	0.765255
C60	C	-1.965994	-0.103771	0.696478
C61	C	-1.574927	0.037452	0.229730
C62	C	-1.552075	0.125645	0.230435
C63	C	-1.564954	-0.101896	0.095404
C64	C	-1.535762	-0.102293	0.010707
C65	C	-1.491627	-0.378342	0.234782
C66	C	-1.503363	-0.461212	0.234137
C67	C	-1.418651	-0.498605	0.230010
C68	C	-1.322199	-0.453126	0.226537
C69	C	-1.310466	-0.370259	0.227188
C70	C	-1.510923	-0.108703	0.494682
C71	C	-1.528611	-0.108315	0.574262
C72	C	-1.446872	-0.104154	0.610186
C73	C	-1.347437	-0.100372	0.566525
C74	C	-1.329750	-0.100754	0.486946
C75	C	-1.628124	0.171118	0.226961
C76	C	-1.606660	0.253987	0.227610
C77	C	-1.509149	0.291380	0.231738
C78	C	-1.433094	0.245901	0.235210
C79	C	-1.454556	0.163035	0.234555
C80	C	-1.435271	-0.106446	-0.025198
C81	C	-1.407825	-0.106810	-0.104781
C82	C	-1.480873	-0.103027	-0.148456
C83	C	-1.581372	-0.098873	-0.112547
C84	C	-1.608815	-0.098503	-0.032966
H85	H	-2.060610	-0.347926	0.238129
H86	H	-1.428219	-0.566082	0.229481
Br87	Br	-1.709891	0.315691	0.222899
H88	H	-1.748776	-0.097653	0.451375
Br89	Br	-1.443613	-0.103532	-0.256459
H90	H	-1.325989	-0.110193	-0.134007
H91	H	-2.081858	-0.498254	0.236949
Br92	Br	-1.634268	-0.522916	0.238849
Br93	Br	-1.300758	0.296663	0.240805
H94	H	-1.560614	-0.347907	0.238137
Br95	Br	-1.783731	-0.093754	0.828199
H96	H	-1.640841	-0.095791	-0.148120
H97	H	-2.109543	-0.111412	0.609828
Br98	Br	-2.252454	-0.111606	1.034064
H99	H	-1.253231	-0.483584	0.223178
H100	H	-1.577492	-0.112094	0.465443
Br101	Br	-1.760470	0.120389	0.221360
Br102	Br	-1.351331	0.101331	0.239270
Br103	Br	-1.179564	-0.308553	0.222465
Br104	Br	-1.336113	-0.111580	0.034059
Br105	Br	-1.663564	-0.113452	0.633500
H106	H	-1.461289	-0.103844	0.674986
Br107	Br	-2.267682	-0.898708	0.239260
H108	H	-2.166416	-0.110221	0.865981
H109	H	-2.194080	-0.723681	0.238580
H110	H	-1.280891	-0.096985	0.595787
H111	H	-1.886646	-0.859303	0.223623
Br112	Br	-1.194805	-0.095634	0.427710
Br113	Br	-1.745209	-0.092878	0.015753
H114	H	-1.865395	-0.708974	0.224802
Br115	Br	-2.121876	-0.114364	0.445968
Br116	Br	-1.825384	-0.092869	1.015774
H117	H	-1.780843	-0.096993	0.595757
H118	H	-1.753184	-0.483551	0.223174
H119	H	-1.731928	-0.333211	0.224366
H120	H	-1.491686	0.358856	0.232270
