data_functionalizedCrystal
_audit_creation_method	'MofGen! by Chris Wilmer'
_symmetry_space_group_name_H-M	'P1'
_symmetry_Int_Tables_number	1
_symmetry_cell_setting	triclinic
loop_
_symmetry_equiv_pos_as_xyz
  x,y,z
_cell_length_a	17.639617
_cell_length_b	25.639240
_cell_length_c	25.639234
_cell_angle_alpha	89.967912
_cell_angle_beta	78.756709
_cell_angle_gamma	101.215675
loop_
_atom_site_label
_atom_site_type_symbol
_atom_site_fract_x
_atom_site_fract_y
_atom_site_fract_z
Zn1	Zn	1.208523	-0.046829	-0.457510
Zn2	Zn	1.541856	0.286505	-0.124177
Zn3	Zn	1.875189	0.619838	0.209156
Zn4	Zn	1.208404	-0.134273	-0.370048
Zn5	Zn	1.541738	0.199061	-0.036715
Zn6	Zn	1.875071	0.532394	0.296619
Zn7	Zn	1.076321	-0.064488	-0.352376
Zn8	Zn	1.409654	0.268845	-0.019042
Zn9	Zn	1.742988	0.602179	0.314291
Zn10	Zn	1.076268	-0.151893	-0.439748
Zn11	Zn	1.409602	0.181441	-0.106415
Zn12	Zn	1.742935	0.514774	0.226919
O13	O	1.142379	-0.099370	-0.404921
O14	O	1.475712	0.233963	-0.071587
O15	O	1.809046	0.567296	0.261746
O16	O	1.319133	-0.043664	-0.460738
O17	O	1.652467	0.289670	-0.127405
O18	O	1.985800	0.623003	0.205929
O19	O	1.190856	-0.125032	-0.294535
O20	O	1.524189	0.208301	0.038799
O21	O	1.857522	0.541635	0.372132
O22	O	1.093930	0.011029	-0.366360
O23	O	1.427263	0.344363	-0.033027
O24	O	1.760596	0.677696	0.300307
O25	O	1.319046	-0.107908	-0.396480
O26	O	1.652380	0.225425	-0.063146
O27	O	1.985713	0.558758	0.270187
O28	O	1.191058	0.024004	-0.443602
O29	O	1.524391	0.357337	-0.110269
O30	O	1.857724	0.690670	0.223065
O31	O	1.093815	-0.073761	-0.281551
O32	O	1.427148	0.259572	0.051782
O33	O	1.760481	0.592905	0.385116
O34	O	0.965688	-0.090847	-0.349136
O35	O	1.299021	0.242486	-0.015803
O36	O	1.632354	0.575820	0.317531
O37	O	1.093840	-0.137939	-0.515273
O38	O	1.427173	0.195394	-0.181940
O39	O	1.760506	0.528728	0.151394
O40	O	0.965649	-0.155063	-0.413328
O41	O	1.298982	0.178271	-0.079995
O42	O	1.632316	0.511604	0.253339
O43	O	1.191007	-0.060749	-0.528323
O44	O	1.524340	0.272584	-0.194990
O45	O	1.857673	0.605918	0.138344
O46	O	1.190804	-0.209785	-0.379256
O47	O	1.524138	0.123549	-0.045923
O48	O	1.857471	0.456882	0.287411
O49	O	1.093725	-0.222730	-0.430464
O50	O	1.427058	0.110603	-0.097131
O51	O	1.760391	0.443937	0.236202
C52	C	0.936984	-0.126783	-0.377387
C53	C	1.270317	0.206550	-0.044054
C54	C	1.603651	0.539883	0.289279
C55	C	0.849115	-0.138523	-0.365621
C56	C	1.182449	0.194810	-0.032287
C57	C	1.515782	0.528143	0.301046
C58	C	0.560324	-0.010172	-0.494438
C59	C	0.893657	0.323161	-0.161105
C60	C	1.226990	0.656495	0.172228
C61	C	0.477758	-0.021216	-0.483371
C62	C	0.811091	0.312117	-0.150038
C63	C	1.144424	0.645450	0.183295
C64	C	0.477689	-0.088004	-0.416363
C65	C	0.811022	0.245330	-0.083030
C66	C	1.144355	0.578663	0.250304
C67	C	0.560257	-0.076966	-0.427426
C68	C	0.893590	0.256367	-0.094093
C69	C	1.226923	0.589700	0.239241
C70	C	0.601568	-0.038050	-0.466464
C71	C	0.934901	0.295284	-0.133131
C72	C	1.268234	0.628617	0.200203
C73	C	0.601501	-0.104844	-0.399452
C74	C	0.934834	0.228489	-0.066118
C75	C	1.268167	0.561823	0.267215
C76	C	0.684061	-0.093806	-0.410512
C77	C	1.017394	0.239528	-0.077179
C78	C	1.350728	0.572861	0.256155
C79	C	0.725378	-0.054890	-0.449547
C80	C	1.058711	0.278444	-0.116214
C81	C	1.392045	0.611777	0.217120
C82	C	0.684128	-0.027011	-0.477524
C83	C	1.017462	0.306322	-0.144191
C84	C	1.350795	0.639655	0.189142
C85	C	0.560188	-0.143758	-0.360411
C86	C	0.893521	0.189575	-0.027078
C87	C	1.226855	0.522909	0.306255
C88	C	0.601432	-0.171636	-0.332437
C89	C	0.934765	0.161698	0.000896
C90	C	1.268099	0.495031	0.334230
C91	C	0.683994	-0.160600	-0.343500
C92	C	1.017327	0.172733	-0.010166
C93	C	1.350661	0.506066	0.323167
C94	C	0.725311	-0.121684	-0.382535
C95	C	1.058644	0.211649	-0.049201
C96	C	1.391977	0.544983	0.284132
C97	C	0.725244	-0.188479	-0.315522
C98	C	1.058577	0.144855	0.017811
C99	C	1.391910	0.478188	0.351144
C100	C	0.807804	-0.177440	-0.326583
C101	C	1.141138	0.155893	0.006750
C102	C	1.474471	0.489226	0.340084
C103	C	0.807871	-0.110646	-0.393595
C104	C	1.141205	0.222688	-0.060262
C105	C	1.474538	0.556021	0.273071
C106	C	1.142267	-0.235228	-0.404865
C107	C	1.475601	0.098105	-0.071531
C108	C	1.808934	0.431439	0.261802
C109	C	1.142292	-0.293339	-0.404868
C110	C	1.475625	0.039995	-0.071534
C111	C	1.808959	0.373328	0.261799
C112	C	1.192979	-0.646893	-0.445204
C113	C	1.526312	-0.313559	-0.111871
C114	C	1.859645	0.019774	0.221463
C115	C	1.193002	-0.701494	-0.445218
C116	C	1.526335	-0.368160	-0.111885
C117	C	1.859669	-0.034827	0.221449
O118	O	1.235965	-0.723959	-0.479453
O119	O	1.569298	-0.390626	-0.146120
O120	O	1.902632	-0.057292	0.187213
N121	N	1.142489	-0.735595	-0.404986
N122	N	1.475822	-0.402261	-0.071652
N123	N	1.809155	-0.068928	0.261681
C124	C	1.091943	-0.715093	-0.364740
C125	C	1.425276	-0.381760	-0.031407
C126	C	1.758610	-0.048426	0.301927
O127	O	1.048979	-0.749112	-0.330521
O128	O	1.382313	-0.415779	0.002812
O129	O	1.715646	-0.082446	0.336146
C130	C	1.091916	-0.660493	-0.364729
C131	C	1.425250	-0.327160	-0.031396
C132	C	1.758583	0.006173	0.301938
C133	C	1.142439	-0.626394	-0.404961
C134	C	1.475772	-0.293061	-0.071627
C135	C	1.809105	0.040273	0.261706
C136	C	1.243496	-0.612794	-0.485433
C137	C	1.576830	-0.279460	-0.152100
C138	C	1.910163	0.053873	0.181234
C139	C	1.243474	-0.558196	-0.485419
C140	C	1.576807	-0.224863	-0.152085
C141	C	1.910141	0.108470	0.181248
C142	C	1.192934	-0.537698	-0.445175
C143	C	1.526267	-0.204364	-0.111842
C144	C	1.859601	0.128969	0.221491
C145	C	1.142416	-0.571796	-0.404946
C146	C	1.475750	-0.238463	-0.071613
C147	C	1.809083	0.094870	0.261720
C148	C	1.041367	-0.639993	-0.324486
C149	C	1.374701	-0.306660	0.008847
C150	C	1.708034	0.026674	0.342181
C151	C	1.041345	-0.585389	-0.324479
C152	C	1.374678	-0.252056	0.008855
C153	C	1.708011	0.081278	0.342188
C154	C	1.091867	-0.551290	-0.364710
C155	C	1.425200	-0.217956	-0.031377
C156	C	1.758534	0.115377	0.301956
C157	C	1.091854	-0.496700	-0.364689
C158	C	1.425187	-0.163367	-0.031355
C159	C	1.758520	0.169967	0.301978
N160	N	1.142367	-0.462599	-0.404921
N161	N	1.475700	-0.129266	-0.071587
N162	N	1.809034	0.204068	0.261746
C163	C	1.192907	-0.483098	-0.445164
C164	C	1.526240	-0.149764	-0.111831
C165	C	1.859574	0.183569	0.221503
C166	C	1.092002	-0.829756	-0.364767
C167	C	1.425335	-0.496422	-0.031434
C168	C	1.758669	-0.163089	0.301899
C169	C	1.092032	-0.884354	-0.364776
C170	C	1.425366	-0.551021	-0.031442
C171	C	1.758699	-0.217687	0.301891
C172	C	1.193090	-0.870751	-0.445254
C173	C	1.526424	-0.537418	-0.111921
C174	C	1.859757	-0.204084	0.221412
C175	C	1.193064	-0.816151	-0.445243
C176	C	1.526397	-0.482818	-0.111910
C177	C	1.859730	-0.149485	0.221424
C178	C	1.142515	-0.795655	-0.404999
C179	C	1.475849	-0.462321	-0.071666
C180	C	1.809182	-0.128988	0.261667
C181	C	1.192857	-0.368439	-0.445130
C182	C	1.526190	-0.035106	-0.111797
C183	C	1.859523	0.298227	0.221536
C184	C	1.192832	-0.313837	-0.445111
C185	C	1.526165	0.019496	-0.111778
C186	C	1.859499	0.352829	0.221556
C187	C	1.091771	-0.327445	-0.364635
C188	C	1.425105	0.005888	-0.031301
C189	C	1.758438	0.339221	0.302032
C190	C	1.091798	-0.382042	-0.364652
C191	C	1.425132	-0.048709	-0.031319
C192	C	1.758465	0.284624	0.302015
C193	C	1.142344	-0.402538	-0.404904
C194	C	1.475677	-0.069204	-0.071571
C195	C	1.809010	0.264129	0.261762
O196	O	1.048910	-0.474198	-0.330472
O197	O	1.382244	-0.140864	0.002862
O198	O	1.715577	0.192469	0.336195
O199	O	1.235856	-0.449074	-0.479381
O200	O	1.569190	-0.115740	-0.146048
O201	O	1.902523	0.217593	0.187285
C202	C	1.348576	-0.071851	-0.432562
C203	C	1.681909	0.261483	-0.099228
C204	C	2.015243	0.594816	0.234105
C205	C	1.436445	-0.060124	-0.444341
C206	C	1.769778	0.273210	-0.111007
C207	C	2.103112	0.606543	0.222326
C208	C	1.142430	-0.099340	-0.541300
C209	C	1.475764	0.233994	-0.207967
C210	C	1.809097	0.567327	0.125366
C211	C	1.142452	-0.099327	-0.599417
C212	C	1.475786	0.234007	-0.266084
C213	C	1.809119	0.567340	0.067249
C214	C	1.142513	0.037020	-0.404991
C215	C	1.475846	0.370354	-0.071658
C216	C	1.809179	0.703687	0.261676
C217	C	1.142570	0.095142	-0.405021
C218	C	1.475903	0.428475	-0.071688
C219	C	1.809236	0.761809	0.261646
C220	C	1.091945	-0.072565	-0.953028
C221	C	1.425279	0.260768	-0.619695
C222	C	1.758612	0.594102	-0.286362
C223	C	1.091950	-0.072555	-1.007633
C224	C	1.425283	0.260779	-0.674300
C225	C	1.758616	0.594112	-0.340967
O226	O	1.048967	-0.049864	-1.030124
O227	O	1.382300	0.283469	-0.696791
O228	O	1.715633	0.616803	-0.363457
N229	N	1.142479	-0.099241	-1.041704
N230	N	1.475812	0.234092	-0.708370
N231	N	1.809145	0.567426	-0.375037
C232	C	1.193001	-0.125944	-1.021166
C233	C	1.526334	0.207390	-0.687833
C234	C	1.859668	0.540723	-0.354499
O235	O	1.235980	-0.148642	-1.055159
O236	O	1.569313	0.184691	-0.721826
O237	O	1.902646	0.518025	-0.388493
C238	C	1.192992	-0.125957	-0.966561
C239	C	1.526325	0.207377	-0.633228
C240	C	1.859659	0.540710	-0.299895
C241	C	1.142465	-0.099264	-0.932494
C242	C	1.475799	0.234069	-0.599161
C243	C	1.809132	0.567403	-0.265828
C244	C	1.041422	-0.045875	-0.918962
C245	C	1.374755	0.287458	-0.585628
C246	C	1.708089	0.620792	-0.252295
C247	C	1.041419	-0.045884	-0.864361
C248	C	1.374752	0.287449	-0.531027
C249	C	1.708086	0.620782	-0.197694
C250	C	1.091939	-0.072583	-0.843827
C251	C	1.425273	0.260750	-0.510493
C252	C	1.758606	0.594083	-0.177160
C253	C	1.142462	-0.099273	-0.877893
C254	C	1.475796	0.234060	-0.544560
C255	C	1.809129	0.567393	-0.211227
C256	C	1.243510	-0.152662	-0.946024
C257	C	1.576843	0.180671	-0.612691
C258	C	1.910177	0.514005	-0.279357
C259	C	1.243496	-0.152673	-0.891415
C260	C	1.576830	0.180660	-0.558082
C261	C	1.910163	0.513994	-0.224748
C262	C	1.192970	-0.125980	-0.857348
C263	C	1.526303	0.207353	-0.524015
C264	C	1.859636	0.540686	-0.190681
C265	C	1.192980	-0.125982	-0.802758
C266	C	1.526313	0.207351	-0.469425
C267	C	1.859646	0.540685	-0.136091
N268	N	1.142451	-0.099296	-0.768688
N269	N	1.475784	0.234038	-0.435354
N270	N	1.809117	0.567371	-0.102021
C271	C	1.091930	-0.072596	-0.789222
C272	C	1.425264	0.260737	-0.455889
C273	C	1.758597	0.594070	-0.122555
C274	C	1.193015	-0.125915	-1.135838
C275	C	1.526348	0.207418	-0.802505
C276	C	1.859681	0.540751	-0.469172
C277	C	1.193028	-0.125900	-1.190443
C278	C	1.526362	0.207434	-0.857109
C279	C	1.859695	0.540767	-0.523776
C280	C	1.091975	-0.072511	-1.176906
C281	C	1.425309	0.260822	-0.843573
C282	C	1.758642	0.594155	-0.510239
C283	C	1.091967	-0.072524	-1.122302
C284	C	1.425300	0.260809	-0.788968
C285	C	1.758633	0.594142	-0.455635
C286	C	1.142486	-0.099229	-1.101768
C287	C	1.475819	0.234104	-0.768435
C288	C	1.809152	0.567438	-0.435101
C289	C	1.091928	-0.072618	-0.674557
C290	C	1.425262	0.260716	-0.341223
C291	C	1.758595	0.594049	-0.007890
C292	C	1.091932	-0.072627	-0.619952
C293	C	1.425265	0.260706	-0.286618
C294	C	1.758599	0.594039	0.046715
C295	C	1.192982	-0.126018	-0.633492
C296	C	1.526315	0.207316	-0.300159
C297	C	1.859648	0.540649	0.033174
C298	C	1.192981	-0.126006	-0.688093
C299	C	1.526314	0.207328	-0.354760
C300	C	1.859648	0.540661	-0.021426
C301	C	1.142448	-0.099305	-0.708623
C302	C	1.475781	0.234029	-0.375290
C303	C	1.809115	0.567362	-0.041956
O304	O	1.235938	-0.148663	-0.780230
O305	O	1.569272	0.184670	-0.446896
O306	O	1.902605	0.518004	-0.113563
O307	O	1.048952	-0.049908	-0.755222
O308	O	1.382285	0.283426	-0.421889
O309	O	1.715618	0.616759	-0.088555
C310	C	1.142373	-0.099357	-0.269077
C311	C	1.475707	0.233976	0.064256
C312	C	1.809040	0.567309	0.397589
C313	C	1.142505	-0.099203	-0.210981
C314	C	1.475838	0.234131	0.122352
C315	C	1.809171	0.567464	0.455686
H316	H	0.593962	0.021516	-0.526229
H317	H	0.927295	0.354850	-0.192896
H318	H	1.260628	0.688183	0.140438
H319	H	1.050824	-0.050788	-1.094567
H320	H	1.384157	0.282545	-0.761234
H321	H	1.717490	0.615878	-0.427901
C322	C	1.248618	-0.155259	-1.227912
C323	C	1.581951	0.178075	-0.894578
C324	C	1.915284	0.511408	-0.561245
N325	N	1.290486	-0.177376	-1.256131
N326	N	1.623819	0.155957	-0.922798
N327	N	1.957152	0.489291	-0.589464
H328	H	0.444180	0.001491	-0.506152
H329	H	0.777513	0.334824	-0.172819
H330	H	1.110847	0.668157	0.160515
C331	C	1.299106	-0.635332	-0.529704
C332	C	1.632439	-0.301998	-0.196371
C333	C	1.965773	0.031335	0.136962
N334	N	1.341001	-0.652302	-0.563049
N335	N	1.674335	-0.318969	-0.229716
N336	N	2.007668	0.014364	0.103617
C337	C	1.248638	-0.778647	-0.489502
C338	C	1.581972	-0.445314	-0.156169
C339	C	1.915305	-0.111980	0.177164
N340	N	1.290498	-0.750401	-0.522841
N341	N	1.623832	-0.417068	-0.189508
N342	N	1.957165	-0.083735	0.143825
C343	C	0.816198	-0.042748	-0.461715
C344	C	1.149531	0.290586	-0.128381
C345	C	1.482864	0.623919	0.204952
N346	N	0.884603	-0.033603	-0.470880
N347	N	1.217937	0.299730	-0.137546
N348	N	1.551270	0.633063	0.195787
C349	C	1.248680	-0.893311	-0.489526
C350	C	1.582013	-0.559977	-0.156193
C351	C	1.915347	-0.226644	0.177140
N352	N	1.290547	-0.910305	-0.522870
N353	N	1.623880	-0.576971	-0.189537
N354	N	1.957213	-0.243638	0.143797
H355	H	0.717766	0.004677	-0.509315
H356	H	1.051099	0.338010	-0.175982
H357	H	1.384433	0.671344	0.157352
H358	H	1.050624	-0.310747	-0.331868
H359	H	1.383958	0.022587	0.001466
H360	H	1.717291	0.355920	0.334799
H361	H	1.234116	-0.147754	-0.616764
H362	H	1.567449	0.185580	-0.283430
H363	H	1.900783	0.518913	0.049903
H364	H	0.841509	-0.078958	-0.425386
H365	H	1.174843	0.254376	-0.092052
H366	H	1.508176	0.587709	0.241281
C367	C	0.432237	-0.130811	-0.373423
C368	C	0.765571	0.202522	-0.040090
C369	C	1.098904	0.535855	0.293244
N370	N	0.398004	-0.163056	-0.341081
N371	N	0.731337	0.170277	-0.007748
N372	N	1.064671	0.503610	0.325585
H373	H	0.492962	-0.152733	-0.351396
H374	H	0.826295	0.180601	-0.018062
H375	H	1.159628	0.513934	0.315271
C376	C	0.985828	-0.016526	-0.826893
C377	C	1.319161	0.316807	-0.493559
C378	C	1.652494	0.650141	-0.160226
N379	N	0.943951	0.005586	-0.798674
N380	N	1.277284	0.338919	-0.465341
N381	N	1.610617	0.672253	-0.132007
H382	H	1.234163	-0.147657	-1.119125
H383	H	1.567497	0.185676	-0.785792
H384	H	1.900830	0.519009	-0.452459
C385	C	1.299089	-0.182031	-0.983486
C386	C	1.632422	0.151302	-0.650152
C387	C	1.965756	0.484636	-0.316819
N388	N	1.340952	-0.204156	-1.011701
N389	N	1.674285	0.129178	-0.678367
N390	N	2.007618	0.462511	-0.345034
H391	H	1.284641	-0.174416	-0.874701
H392	H	1.617974	0.158917	-0.541368
H393	H	1.951308	0.492251	-0.208034
H394	H	0.567785	-0.203320	-0.300651
H395	H	0.901119	0.130013	0.032683
H396	H	1.234452	0.463346	0.366016
H397	H	1.234010	-0.385120	-0.477911
H398	H	1.567343	-0.051787	-0.144577
H399	H	1.900677	0.281546	0.188756
C400	C	1.036226	-0.419552	-0.320393
C401	C	1.369559	-0.086219	0.012940
C402	C	1.702893	0.247114	0.346274
N403	N	0.994362	-0.447802	-0.287059
N404	N	1.327695	-0.114469	0.046274
N405	N	1.661029	0.218865	0.379608
H406	H	0.691596	-0.220161	-0.283734
H407	H	1.024929	0.113173	0.049599
H408	H	1.358262	0.446506	0.382932
C409	C	0.985782	-0.677492	-0.280230
C410	C	1.319116	-0.344158	0.053104
C411	C	1.652449	-0.010825	0.386437
N412	N	0.943910	-0.705735	-0.246895
N413	N	1.277243	-0.372402	0.086439
N414	N	1.610576	-0.039069	0.419772
H415	H	1.050787	-0.050889	-0.592216
H416	H	1.384121	0.282445	-0.258883
H417	H	1.717454	0.615778	0.074451
C418	C	0.853175	-0.208109	-0.295811
C419	C	1.186508	0.125224	0.037522
C420	C	1.519842	0.458558	0.370855
N421	N	0.887349	-0.231209	-0.272633
N422	N	1.220682	0.102124	0.060700
N423	N	1.554015	0.435458	0.394034
C424	C	1.248415	-0.276330	-0.489370
C425	C	1.581748	0.057003	-0.156037
C426	C	1.915082	0.390337	0.177297
N427	N	1.290279	-0.248082	-0.522705
N428	N	1.623612	0.085252	-0.189372
N429	N	1.956946	0.418585	0.143962
H430	H	1.284611	-0.530435	-0.518180
H431	H	1.617944	-0.197102	-0.184847
H432	H	1.951278	0.136231	0.148487
C433	C	1.036460	-0.921857	-0.320514
C434	C	1.369793	-0.588524	0.012819
C435	C	1.703127	-0.255190	0.346152
N436	N	0.994597	-0.950103	-0.287177
N437	N	1.327930	-0.616770	0.046156
N438	N	1.661264	-0.283436	0.379490
H439	H	1.050839	-0.050772	-1.193635
H440	H	1.384172	0.282562	-0.860301
H441	H	1.717505	0.615895	-0.526968
H442	H	1.050842	-0.813071	-0.331992
H443	H	1.384175	-0.479737	0.001341
H444	H	1.717509	-0.146404	0.334675
H445	H	1.000180	-0.568704	-0.291707
H446	H	1.333513	-0.235371	0.041626
H447	H	1.666846	0.097962	0.374959
C448	C	1.036345	-0.043241	-0.697132
C449	C	1.369678	0.290092	-0.363799
C450	C	1.703011	0.623426	-0.030465
N451	N	0.994483	-0.021111	-0.714136
N452	N	1.327817	0.312222	-0.380803
N453	N	1.661150	0.645556	-0.047469
H454	H	1.000278	-0.024133	-0.935674
H455	H	1.333612	0.309200	-0.602340
H456	H	1.666945	0.642533	-0.269007
C457	C	1.248567	-0.155365	-0.725569
C458	C	1.581900	0.177968	-0.392235
C459	C	1.915234	0.511301	-0.058902
N460	N	1.290430	-0.177484	-0.753791
N461	N	1.623763	0.155849	-0.420458
N462	N	1.957097	0.489183	-0.087124
