data_functionalizedCrystal
_audit_creation_method	'MofGen! by Chris Wilmer'
_symmetry_space_group_name_H-M	'P1'
_symmetry_Int_Tables_number	1
_symmetry_cell_setting	triclinic
loop_
_symmetry_equiv_pos_as_xyz
  x,y,z
_cell_length_a	16.120297
_cell_length_b	13.897449
_cell_length_c	16.120484
_cell_angle_alpha	92.925700
_cell_angle_beta	84.385569
_cell_angle_gamma	87.125908
loop_
_atom_site_label
_atom_site_type_symbol
_atom_site_fract_x
_atom_site_fract_y
_atom_site_fract_z
Zn1	Zn	-0.489546	-1.424978	0.356754
Zn2	Zn	0.010454	-0.924978	0.856754
Zn3	Zn	-0.356856	-1.424857	0.489444
Zn4	Zn	0.143144	-0.924857	0.989444
Zn5	Zn	-0.349782	-1.272288	0.349690
Zn6	Zn	0.150218	-0.772288	0.849690
Zn7	Zn	-0.496568	-1.255017	0.496484
Zn8	Zn	0.003432	-0.755017	0.996484
O9	O	-0.423188	-1.344285	0.423093
O10	O	0.076812	-0.844285	0.923093
O11	O	-0.471966	-1.559942	0.374366
O12	O	0.028034	-1.059942	0.874366
O13	O	-0.238957	-1.411795	0.465002
O14	O	0.261043	-0.911795	0.965002
O15	O	-0.362423	-1.299821	0.233661
O16	O	0.137577	-0.799821	0.733661
O17	O	-0.374480	-1.559852	0.471853
O18	O	0.125520	-1.059852	0.971853
O19	O	-0.465107	-1.412002	0.238852
O20	O	0.034893	-0.912002	0.738852
O21	O	-0.233759	-1.299703	0.362325
O22	O	0.266241	-0.799703	0.862325
O23	O	-0.369232	-1.135017	0.369152
O24	O	0.130768	-0.635017	0.869152
O25	O	-0.612598	-1.270386	0.483852
O26	O	-0.112598	-0.770386	0.983852
O27	O	-0.477075	-1.122329	0.477001
O28	O	0.022925	-0.622329	0.977001
O29	O	-0.607439	-1.395256	0.381193
O30	O	-0.107439	-0.895256	0.881193
O31	O	-0.381289	-1.395048	0.607343
O32	O	0.118711	-0.895048	1.107343
O33	O	-0.483934	-1.270268	0.612516
O34	O	0.016066	-0.770268	1.112516
C35	C	-0.423148	-1.093674	0.423075
C36	C	0.076852	-0.593674	0.923075
C37	C	-0.423152	-0.986459	0.423088
C38	C	0.076848	-0.486459	0.923088
C39	C	-0.423162	-0.899389	0.423090
C40	C	0.076838	-0.399389	0.923090
C41	C	-0.423183	-0.790155	0.423096
C42	C	0.076817	-0.290155	0.923096
C43	C	-0.641193	-1.330908	0.434096
C44	C	-0.141193	-0.830908	0.934096
C45	C	-0.734094	-1.325208	0.438784
C46	C	-0.234094	-0.825208	0.938784
C47	C	-0.904183	-1.314766	0.447326
C48	C	-0.404183	-0.814766	0.947326
C49	C	-0.943032	-1.374010	0.398609
C50	C	-0.443032	-0.874010	0.898609
C51	C	-1.037676	-1.368200	0.403362
C52	C	-0.537676	-0.868200	0.903362
C53	C	-0.809531	-1.320574	0.442575
C54	C	-0.309531	-0.820574	0.942575
C55	C	-0.206028	-1.357669	0.412073
C56	C	0.293972	-0.857669	0.912073
C57	C	-0.113116	-1.363571	0.407149
C58	C	0.386884	-0.863571	0.907149
C59	C	-0.434159	-1.330796	0.640258
C60	C	0.065841	-0.830796	1.140258
C61	C	-0.438881	-1.325112	0.733164
C62	C	0.061119	-0.825112	1.233164
C63	C	-0.423219	-0.595875	0.423108
C64	C	0.076781	-0.095875	0.923108
C65	C	-0.423205	-0.703090	0.423104
C66	C	0.076795	-0.203090	0.923104
C67	C	-0.412192	-1.357852	0.205081
C68	C	0.087808	-0.857852	0.705081
C69	C	-0.407506	-1.363633	0.112177
C70	C	0.092494	-0.863633	0.612177
C71	C	-0.447518	-1.314739	0.903264
C72	C	0.052482	-0.814739	1.403264
C73	C	-0.398872	-1.374003	0.942083
C74	C	0.101128	-0.874003	1.442083
C75	C	-0.403678	-1.368231	1.036732
C76	C	0.096322	-0.868231	1.536732
C77	C	-0.442713	-1.320509	0.808606
C78	C	0.057287	-0.820509	1.308606
H79	H	-0.905212	-1.429093	0.353331
H80	H	-0.405212	-0.929093	0.853331
H81	H	-0.942001	-1.259687	0.492600
H82	H	-0.442001	-0.759687	0.992600
H83	H	-0.353614	-1.429074	0.904232
H84	H	0.146386	-0.929074	1.404232
H85	H	-0.492771	-1.259671	0.941111
H86	H	0.007229	-0.759671	1.441111
