data_functionalizedCrystal
_audit_creation_method	'MofGen! by Chris Wilmer'
_symmetry_space_group_name_H-M	'P1'
_symmetry_Int_Tables_number	1
_symmetry_cell_setting	triclinic
loop_
_symmetry_equiv_pos_as_xyz
  x,y,z
_cell_length_a	17.038272
_cell_length_b	17.019282
_cell_length_c	15.500227
_cell_angle_alpha	91.034464
_cell_angle_beta	93.033254
_cell_angle_gamma	87.241387
loop_
_atom_site_label
_atom_site_type_symbol
_atom_site_fract_x
_atom_site_fract_y
_atom_site_fract_z
O1	O	0.099876	1.053050	0.006537
O2	O	0.111730	0.825047	-0.010458
O3	O	-0.008016	0.937693	-0.002055
O4	O	0.219622	0.940404	-0.001866
O5	O	-0.000778	0.930855	0.141324
O6	O	0.118968	0.818209	0.132921
O7	O	0.107114	1.046212	0.149916
Cu8	Cu	0.113702	0.931587	0.154510
Cu9	Cu	0.105142	0.939673	-0.015052
O10	O	0.226860	0.933566	0.141512
C11	C	0.114759	0.792311	0.059047
C12	C	0.112990	0.704954	0.052535
C13	C	0.116103	0.660191	0.127634
C14	C	0.114429	0.578110	0.121519
C15	C	0.109648	0.540794	0.040304
C16	C	0.106532	0.585563	-0.034801
C17	C	0.108201	0.667643	-0.028684
C18	C	0.104407	0.293154	0.017927
C19	C	0.102741	0.211069	0.011816
C20	C	0.110636	0.203622	0.168136
C21	C	0.112309	0.285702	0.174245
C22	C	0.109189	0.330465	0.099141
C23	C	0.107939	0.456895	0.034051
C24	C	0.110893	0.414363	0.105395
C25	C	-0.033532	0.931809	0.069451
C26	C	-0.120346	0.924455	0.068903
C27	C	-0.170268	0.991975	0.073936
C28	C	-0.251838	0.985061	0.073413
C29	C	-0.283485	0.910625	0.067861
C30	C	-0.233557	0.843100	0.062825
C31	C	-0.151989	0.850016	0.063342
C32	C	-0.529314	0.886195	0.066029
C33	C	-0.610889	0.879284	0.065514
C34	C	-0.629164	1.021246	0.076100
C35	C	-0.547592	1.028155	0.076622
C36	C	-0.497672	0.960630	0.071581
C37	C	-0.366863	0.903556	0.067329
C38	C	-0.414296	0.967700	0.072108
C39	C	0.252376	0.939450	0.070005
C40	C	0.339190	0.946805	0.070548
C41	C	0.104085	1.078949	0.080409
C42	C	0.105854	1.166306	0.086915
N43	N	0.119722	0.925905	0.273771
N44	N	0.099116	0.945360	-0.134313
C45	C	0.069000	0.973656	0.322610
C46	C	0.073560	0.969367	0.412863
C47	C	0.128846	0.917330	0.454275
C48	C	0.179570	0.869573	0.405430
C49	C	0.175006	0.873859	0.315178
C50	C	0.145276	0.901890	0.726590
C51	C	0.149838	0.897609	0.816849
C52	C	0.043826	0.997402	0.824275
C53	C	0.039270	1.001686	0.734022
C54	C	0.089991	0.953927	0.685184
C55	C	0.133510	0.912946	0.546528
C56	C	0.085323	0.958307	0.592932
H57	H	0.098850	0.180689	-0.054322
C58	C	-0.645698	0.797396	0.059401
N59	N	-0.671917	0.735721	0.054796
H60	H	0.023983	1.016033	0.288898
C61	C	0.114059	0.154377	0.250745
N62	N	0.116633	0.117286	0.312970
H63	H	-0.292482	1.040043	0.077513
H64	H	-0.392639	0.842950	0.062811
C65	C	0.230810	0.821336	0.261457
N66	N	0.272845	0.781774	0.220994
H67	H	-0.111343	0.795033	0.059243
H68	H	0.032258	1.008249	0.452627
H69	H	-0.388526	1.028306	0.076608
H70	H	0.040306	1.000673	0.559211
C71	C	-0.268372	0.761219	0.056726
N72	N	-0.294593	0.699545	0.052138
H73	H	-0.488677	0.831211	0.061924
C74	C	0.121362	0.701231	0.216978
N75	N	0.125320	0.732140	0.284274
C76	C	0.194319	0.855701	0.592091
N77	N	0.240116	0.812581	0.626412
C78	C	-0.021553	1.058927	0.688474
N79	N	-0.067366	1.102041	0.654168
H80	H	0.101864	0.329590	-0.043229
C81	C	0.101271	0.544513	-0.124138
N82	N	0.097310	0.513594	-0.191429
C83	C	0.210657	0.840360	0.862400
N84	N	0.256465	0.797242	0.896710
C85	C	-0.011970	1.049927	0.878003
N86	N	-0.054000	1.089488	0.918471
C87	C	-0.512787	1.110039	0.082730
N88	N	-0.486572	1.171716	0.087334
C89	C	0.240379	0.812324	0.450987
N90	N	0.286180	0.769203	0.485299
H91	H	0.116950	0.541668	0.182672
H92	H	0.116199	0.316080	0.240379
H93	H	0.114782	0.444750	0.171520
C94	C	0.104778	0.716882	-0.111299
N95	N	0.102198	0.753968	-0.173528
H96	H	-0.669818	1.076221	0.080203
C97	C	0.102684	0.415838	-0.055284
N98	N	0.098724	0.384912	-0.122571
H99	H	-0.144507	1.052589	0.078462
H100	H	0.186577	0.863004	0.686834
