data_functionalizedCrystal
_audit_creation_method	'MofGen! by Chris Wilmer'
_symmetry_space_group_name_H-M	'P1'
_symmetry_Int_Tables_number	1
_symmetry_cell_setting	triclinic
loop_
_symmetry_equiv_pos_as_xyz
  x,y,z
_cell_length_a	17.699083
_cell_length_b	22.010155
_cell_length_c	17.699104
_cell_angle_alpha	89.990213
_cell_angle_beta	83.287266
_cell_angle_gamma	90.002416
loop_
_atom_site_label
_atom_site_type_symbol
_atom_site_fract_x
_atom_site_fract_y
_atom_site_fract_z
O1	O	1.004089	0.050433	0.095700
O2	O	0.783711	0.050451	0.108152
O3	O	0.900118	0.050446	-0.008262
O4	O	0.887682	0.050438	0.212114
O5	O	0.900097	-0.050604	-0.008245
O6	O	0.783690	-0.050599	0.108170
O7	O	1.004067	-0.050618	0.095717
Cu8	Cu	0.893877	-0.059835	0.101945
Cu9	Cu	0.893902	0.059669	0.101924
O10	O	0.887661	-0.050612	0.212131
C11	C	0.755503	-0.000071	0.107715
C12	C	0.671485	-0.000064	0.106376
N13	N	0.893865	-0.143888	0.101959
C14	C	0.622869	-0.000066	0.174709
C15	C	0.543926	-0.000074	0.173447
C16	C	0.513600	-0.000075	0.103851
C17	C	0.562222	-0.000074	0.035513
C18	C	0.641164	-0.000071	0.036776
C19	C	0.243859	-0.000089	0.030418
C20	C	0.164911	-0.000090	0.029160
C21	C	0.146621	-0.000092	0.167088
C22	C	0.225563	-0.000089	0.168351
C23	C	0.274178	-0.000091	0.100014
C24	C	0.359777	-0.000084	0.101383
C25	C	0.428002	-0.000078	0.102480
C26	C	0.945450	-0.563669	0.050383
C27	C	0.945453	-0.627277	0.050378
O28	O	0.989282	-0.660170	0.006537
N29	N	0.893901	-0.659095	0.101909
C30	C	0.842337	-0.627301	0.153442
O31	O	0.798488	-0.660206	0.197272
C32	C	0.842331	-0.563695	0.153443
C33	C	0.893891	-0.531881	0.101915
C34	C	0.997005	-0.531855	-0.001142
C35	C	0.997002	-0.468252	-0.001135
C36	C	0.945444	-0.436463	0.050396
C37	C	0.893888	-0.468277	0.101921
C38	C	0.790764	-0.531903	0.204973
C39	C	0.790762	-0.468292	0.204969
C40	C	0.842322	-0.436478	0.153440
C41	C	0.842327	-0.372885	0.153459
N42	N	0.893879	-0.341068	0.101928
C43	C	0.945438	-0.372856	0.050397
C44	C	0.842354	-0.760879	0.153435
C45	C	0.842364	-0.824485	0.153439
C46	C	0.945479	-0.824456	0.050373
C47	C	0.945472	-0.760849	0.050374
C48	C	0.893906	-0.729062	0.101905
C49	C	0.945428	-0.239285	0.050415
C50	C	0.945423	-0.175676	0.050428
C51	C	0.842306	-0.175711	0.153490
C52	C	0.842313	-0.239314	0.153480
C53	C	0.893877	-0.271100	0.101936
O54	O	0.798519	-0.339952	0.197276
O55	O	0.989273	-0.339945	0.006568
C56	C	1.032275	-0.000094	0.096155
C57	C	1.116293	-0.000097	0.097493
C58	C	0.899659	-0.000077	-0.036450
C59	C	0.898314	-0.000069	-0.120467
N60	N	0.893920	0.143721	0.101904
C61	C	0.888120	-0.000088	0.240319
C62	C	0.889464	-0.000092	0.324337
C63	C	0.828721	-0.000063	0.849208
C64	C	0.827461	-0.000070	0.770264
C65	C	0.895797	-0.000077	0.721646
C66	C	0.965395	-0.000085	0.751976
C67	C	0.966654	-0.000083	0.830919
C68	C	0.960322	-0.000093	0.433610
C69	C	0.959059	-0.000093	0.354663
C70	C	0.821130	-0.000080	0.372956
C71	C	0.822388	-0.000078	0.451898
C72	C	0.891987	-0.000089	0.482221
C73	C	0.893351	-0.000083	0.567821
C74	C	0.894433	-0.000079	0.636048
H75	H	0.647554	-0.000065	0.231382
H76	H	0.764460	-0.000074	0.348258
H77	H	0.987416	-0.265158	0.008442
H78	H	1.038985	-0.442352	-0.043096
H79	H	0.537525	-0.000083	-0.021153
Cl80	Cl	0.736478	-0.000064	0.513013
H81	H	0.800387	-0.850383	0.195406
Cl82	Cl	0.702282	-0.000070	-0.049132
Cl83	Cl	1.051303	-0.000102	0.690857
H84	H	0.987457	-0.734950	0.008415
H85	H	0.773074	-0.000054	0.888787
Cl86	Cl	1.010247	-0.135684	-0.014354
H87	H	0.800365	-0.735001	0.195404
Cl88	Cl	0.482812	-0.000074	0.259355
Cl89	Cl	1.044973	-0.000105	0.293544
Cl90	Cl	1.047817	-0.000086	0.471720
Cl91	Cl	0.725941	-0.571885	0.269752
H92	H	1.038990	-0.557732	-0.043108
Cl93	Cl	1.010293	-0.864432	-0.014410
Cl94	Cl	0.725930	-0.428335	0.269754
H95	H	0.800336	-0.265218	0.195446
H96	H	1.023324	-0.000089	0.855607
Cl97	Cl	0.777493	-0.135738	0.218270
H98	H	0.107028	-0.000094	0.222732
Cl99	Cl	0.263682	-0.000084	0.255846
H100	H	0.140223	-0.000092	-0.027517
Cl101	Cl	0.304965	-0.000091	-0.055493
Cl102	Cl	0.739968	-0.000061	0.732145
