data_functionalizedCrystal
_audit_creation_method	'MofGen! by Chris Wilmer'
_symmetry_space_group_name_H-M	'P1'
_symmetry_Int_Tables_number	1
_symmetry_cell_setting	triclinic
loop_
_symmetry_equiv_pos_as_xyz
  x,y,z
_cell_length_a	10.723024
_cell_length_b	14.421503
_cell_length_c	10.723024
_cell_angle_alpha	89.997356
_cell_angle_beta	84.467869
_cell_angle_gamma	89.992654
loop_
_atom_site_label
_atom_site_type_symbol
_atom_site_fract_x
_atom_site_fract_y
_atom_site_fract_z
O1	O	1.657169	0.077103	0.175018
O2	O	1.294016	0.077106	0.191771
O3	O	1.483969	0.077101	0.001818
O4	O	1.467216	0.077108	0.364971
O5	O	1.483992	-0.077122	0.001831
O6	O	1.294040	-0.077117	0.191784
O7	O	1.657192	-0.077120	0.175031
Cu8	Cu	1.475618	-0.091201	0.183408
Cu9	Cu	1.475590	0.091186	0.183393
O10	O	1.467239	-0.077115	0.364983
C11	C	1.247528	-0.000005	0.190558
C12	C	1.108974	-0.000004	0.186911
N13	N	1.475646	-0.219482	0.183418
C14	C	0.917217	-0.000005	0.073603
C15	C	1.060420	-0.000006	0.077371
C16	C	1.563499	-0.469113	0.095565
C17	C	1.450531	-0.530910	0.070364
C18	C	1.475618	-0.408643	0.183403
C19	C	1.588559	-0.530941	0.208531
C20	C	1.475602	-0.591365	0.183385
C21	C	1.362593	-0.469079	0.158146
C22	C	1.500695	-0.469105	0.296362
C23	C	1.387646	-0.530873	0.271208
C24	C	1.475630	-0.303382	0.183410
C25	C	1.475577	-0.696624	0.183379
C26	C	1.703680	-0.000007	0.176243
C27	C	1.842234	-0.000002	0.179891
C28	C	1.482762	-0.000010	-0.044675
C29	C	1.479114	-0.000006	-0.183229
N30	N	1.475571	0.219468	0.183374
C31	C	1.585401	-0.000006	-0.258212
C32	C	1.581634	-0.000002	-0.401415
C33	C	1.468447	-0.000003	0.411477
C34	C	1.472094	0.000000	0.550031
H35	H	0.875395	-0.000020	-0.020182
H36	H	1.267050	-0.442020	0.136776
H37	H	1.381099	-0.000007	-0.385544
F38	F	1.356524	0.000003	-0.237887
H39	H	1.124853	-0.000002	-0.013619
H40	H	1.044549	0.000002	0.277906
F41	F	1.528487	-0.433588	0.421193
F42	F	0.896892	-0.000007	0.302481
F43	F	1.700570	-0.000009	-0.485629
H44	H	1.637738	-0.441994	0.021240
F45	F	1.422777	-0.566388	-0.054507
H46	H	1.313239	-0.557820	0.345487
F47	F	1.713408	-0.566463	0.236319
F48	F	1.707991	-0.000001	-0.203554
