data_functionalizedCrystal
_audit_creation_method	'MofGen! by Chris Wilmer'
_symmetry_space_group_name_H-M	'P1'
_symmetry_Int_Tables_number	1
_symmetry_cell_setting	triclinic
loop_
_symmetry_equiv_pos_as_xyz
  x,y,z
_cell_length_a	13.635800
_cell_length_b	9.582889
_cell_length_c	9.652882
_cell_angle_alpha	89.497191
_cell_angle_beta	67.746527
_cell_angle_gamma	68.792702
loop_
_atom_site_label
_atom_site_type_symbol
_atom_site_fract_x
_atom_site_fract_y
_atom_site_fract_z
V1	V	-2.084652	0.206451	0.466333
V2	V	-1.584652	0.706451	0.966333
O3	O	-2.056531	-0.010543	0.457738
O4	O	-1.556531	0.489457	0.957738
O5	O	-2.079658	0.409957	0.462872
O6	O	-1.579658	0.909957	0.962872
O7	O	-2.082531	0.203002	0.669840
O8	O	-1.582531	0.703002	1.169840
O9	O	-2.053639	0.197844	0.249337
O10	O	-1.553639	0.697844	0.749337
V11	V	-2.321116	0.180528	0.440411
V12	V	-1.821116	0.680528	0.940411
O13	O	-2.226901	0.263315	0.523194
O14	O	-1.726901	0.763315	1.023194
O15	O	-2.403965	0.123665	0.383550
O16	O	-1.903965	0.623665	0.883550
O17	O	-2.214506	-0.022977	0.443872
O18	O	-1.714506	0.477023	0.943872
O19	O	-2.407935	0.397523	0.449006
O20	O	-1.907935	0.897523	0.949006
O21	O	-2.410827	0.189136	0.657407
O22	O	-1.910827	0.689136	1.157407
O23	O	-2.211633	0.183977	0.236904
O24	O	-1.711633	0.683977	0.736904
V25	V	-1.821109	0.180528	0.440411
V26	V	-1.321109	0.680528	0.940411
O27	O	-1.852122	0.189136	0.657407
O28	O	-1.352122	0.689136	1.157407
O29	O	-1.823229	0.183977	0.236904
O30	O	-1.323229	0.683977	0.736904
O31	O	-1.826102	-0.022977	0.443872
O32	O	-1.326102	0.477023	0.943872
O33	O	-1.849229	0.397523	0.449006
O34	O	-1.349229	0.897523	0.949006
V35	V	-1.584644	0.206451	0.466333
V36	V	-1.084644	0.706451	0.966333
O37	O	-1.678859	0.123665	0.383550
O38	O	-1.178859	0.623665	0.883550
O39	O	-1.501795	0.263315	0.523194
O40	O	-1.001795	0.763315	1.023194
O41	O	-1.694127	0.203002	0.669840
O42	O	-1.194127	0.703002	1.169840
O43	O	-1.494933	0.197844	0.249337
O44	O	-0.994933	0.697844	0.749337
O45	O	-1.497826	-0.010543	0.457738
O46	O	-0.997826	0.489457	0.957738
O47	O	-1.691254	0.409957	0.462872
O48	O	-1.191254	0.909957	0.962872
C49	C	-2.006117	0.459575	0.455445
C50	C	-1.506117	0.959575	0.955445
C51	C	-2.042825	0.625942	0.453973
C52	C	-1.542825	1.125942	0.953973
C53	C	-2.009780	0.195583	0.719452
C54	C	-1.509780	0.695583	1.219452
C55	C	-2.048815	0.194109	0.885819
C56	C	-1.548815	0.694109	1.385819
C57	C	-2.119719	-0.072588	0.451294
C58	C	-1.619719	0.427412	0.951294
C59	C	-2.072631	-0.238953	0.452777
C60	C	-1.572631	0.261047	0.952777
C61	C	-1.895979	0.191402	0.187284
C62	C	-1.395979	0.691402	0.687284
C63	C	-1.856942	0.192869	0.020916
C64	C	-1.356942	0.692869	0.520916
C65	C	-2.119540	0.191412	1.187286
C66	C	-1.619540	0.691412	1.687286
C67	C	-2.080511	0.192908	1.020922
C68	C	-1.580511	0.692908	1.520922
C69	C	-1.899645	-0.072588	0.451295
C70	C	-1.399645	0.427412	0.951295
C71	C	-1.862940	-0.238953	0.452781
C72	C	-1.362940	0.261047	0.952781
C73	C	-1.789706	0.195582	0.719452
C74	C	-1.289706	0.695582	1.219452
C75	C	-1.839122	0.194107	0.885818
C76	C	-1.339122	0.694107	1.385818
C77	C	-1.786042	0.459576	0.455448
C78	C	-1.286042	0.959576	0.955448
C79	C	-1.833132	0.625944	0.453981
C80	C	-1.333132	1.125944	0.953981
