data_functionalizedCrystal
_audit_creation_method	'MofGen! by Chris Wilmer'
_symmetry_space_group_name_H-M	'P1'
_symmetry_Int_Tables_number	1
_symmetry_cell_setting	triclinic
loop_
_symmetry_equiv_pos_as_xyz
  x,y,z
_cell_length_a	19.121368
_cell_length_b	16.120530
_cell_length_c	16.120297
_cell_angle_alpha	90.128140
_cell_angle_beta	89.678906
_cell_angle_gamma	90.586674
loop_
_atom_site_label
_atom_site_type_symbol
_atom_site_fract_x
_atom_site_fract_y
_atom_site_fract_z
Zn1	Zn	0.354309	1.230611	-0.515844
Zn2	Zn	0.465640	1.232273	-0.370904
Zn3	Zn	0.342492	1.099162	-0.370386
Zn4	Zn	0.464996	1.086260	-0.502907
O5	O	0.406859	1.162077	-0.440010
O6	O	0.374293	1.346950	-0.502248
O7	O	0.444628	1.220711	-0.254717
O8	O	0.246198	1.121303	-0.394879
O9	O	0.456087	1.348171	-0.395761
O10	O	0.254880	1.217878	-0.501746
O11	O	0.354151	1.122915	-0.254337
O12	O	0.353527	0.981332	-0.382335
O13	O	0.454990	1.099313	-0.620742
O14	O	0.443531	0.971853	-0.479697
O15	O	0.373668	1.205367	-0.630246
O16	O	0.563416	1.208200	-0.383217
O17	O	0.562943	1.100925	-0.480199
C18	C	0.397177	0.946484	-0.429557
C19	C	0.393052	0.854251	-0.425103
C20	C	0.224455	1.170844	-0.449698
C21	C	0.146726	1.174580	-0.453826
C22	C	0.385506	0.685380	-0.416981
C23	C	0.428267	0.639608	-0.463098
C24	C	0.424068	0.545642	-0.458578
C25	C	0.389704	0.779354	-0.421499
C26	C	0.105687	1.126058	-0.400128
C27	C	0.032652	1.129566	-0.404015
C28	C	0.000657	1.181603	-0.461597
C29	C	0.041701	1.230127	-0.515301
C30	C	0.114735	1.226613	-0.511418
C31	C	-0.219631	1.194723	-0.476111
C32	C	-0.292670	1.198235	-0.479989
C33	C	-0.301715	1.097672	-0.368703
C34	C	-0.228680	1.094167	-0.364821
C35	C	-0.187642	1.142688	-0.418528
C36	C	-0.073996	1.185192	-0.465570
C37	C	-0.112990	1.139094	-0.414559
C38	C	0.588556	1.153365	-0.430379
C39	C	0.666291	1.149712	-0.426291
C40	C	0.415575	1.150715	-0.656444
C41	C	0.419290	1.145874	-0.748675
C42	C	0.416580	1.378511	-0.450505
C43	C	0.420723	1.470742	-0.454978
C44	C	0.426054	1.137005	-0.917542
C45	C	0.387463	1.187322	-0.963349
C46	C	0.391226	1.182387	-1.057313
C47	C	0.422291	1.141939	-0.823570
C48	C	0.398129	1.173444	-0.224424
C49	C	0.394225	1.178455	-0.132211
H50	H	0.345748	0.653998	-0.374107
O51	O	0.344619	1.243164	-0.926086
C52	C	0.309492	1.288998	-0.987183
H53	H	0.307965	1.251944	-1.047472
H54	H	0.253806	1.301802	-0.965405
H55	H	0.338300	1.350310	-0.998076
O56	O	0.475686	0.677174	-0.514178
C57	C	0.469369	0.763992	-0.507386
H58	H	0.444314	0.780170	-0.445165
H59	H	0.523428	0.794208	-0.511688
H60	H	0.435258	0.787801	-0.559811
H61	H	0.131731	1.083687	-0.353235
O62	O	-0.007110	1.082411	-0.351760
C63	C	0.036791	1.035721	-0.300112
H64	H	0.090264	1.067355	-0.296126
H65	H	0.012657	1.031328	-0.235425
H66	H	0.042949	0.970727	-0.327019
H67	H	0.461918	1.090226	-0.948893
O68	O	-0.197641	1.043489	-0.308972
C69	C	-0.218492	0.960698	-0.324037
H70	H	-0.236081	0.953999	-0.391193
H71	H	-0.172596	0.917763	-0.312345
H72	H	-0.263657	0.943386	-0.280756
O73	O	-0.341683	1.050564	-0.316626
C74	C	-0.413006	1.064836	-0.332384
H75	H	-0.419179	1.089132	-0.398268
H76	H	-0.443781	1.004310	-0.325219
H77	H	-0.433730	1.112603	-0.286407
H78	H	0.148148	1.266119	-0.555151
H79	H	-0.318716	1.240612	-0.526882
O80	O	-0.179877	1.241955	-0.528299
C81	C	-0.223780	1.288630	-0.579957
H82	H	-0.277085	1.295772	-0.548878
H83	H	-0.199392	1.352537	-0.590836
H84	H	-0.230365	1.255326	-0.641928
O85	O	0.010542	1.280560	-0.571277
C86	C	-0.031655	1.232533	-0.624836
H87	H	-0.046601	1.171712	-0.593101
H88	H	-0.081046	1.268218	-0.640324
H89	H	-0.001441	1.218833	-0.684392
O90	O	-0.081834	1.088496	-0.358734
C91	C	-0.040107	1.030376	-0.401133
H92	H	-0.025322	1.055810	-0.464858
H93	H	0.009392	1.018566	-0.364068
H94	H	-0.070648	0.969756	-0.408756
O95	O	-0.105161	1.235629	-0.521538
C96	C	-0.147354	1.187598	-0.575098
H97	H	-0.162291	1.126772	-0.543366
H98	H	-0.196751	1.223276	-0.590580
H99	H	-0.117142	1.173907	-0.634657
