data_functionalizedCrystal
_audit_creation_method	'MofGen! by Chris Wilmer'
_symmetry_space_group_name_H-M	'P1'
_symmetry_Int_Tables_number	1
_symmetry_cell_setting	triclinic
loop_
_symmetry_equiv_pos_as_xyz
  x,y,z
_cell_length_a	6.394984
_cell_length_b	10.654550
_cell_length_c	9.130313
_cell_angle_alpha	90.003780
_cell_angle_beta	90.000204
_cell_angle_gamma	94.509872
loop_
_atom_site_label
_atom_site_type_symbol
_atom_site_fract_x
_atom_site_fract_y
_atom_site_fract_z
O1	O	0.293433	-1.670938	-0.121915
O2	O	0.321390	-1.305755	-0.121891
O3	O	0.003422	-1.493534	-0.121899
O4	O	0.611401	-1.483160	-0.121907
O5	O	0.003430	-1.493532	0.121700
O6	O	0.321399	-1.305753	0.121708
O7	O	0.293441	-1.670936	0.121684
Cu8	Cu	0.307421	-1.488344	0.143938
Cu9	Cu	0.307411	-1.488347	-0.144145
O10	O	0.611410	-1.483157	0.121692
C11	C	0.319342	-1.258935	-0.000089
C12	C	0.313200	-1.119426	-0.000079
C13	C	0.925577	-1.491470	-0.000095
C14	C	0.689249	-1.485218	-0.000097
C15	C	0.295490	-1.717757	-0.000122
C16	C	0.301631	-1.857265	-0.000140
N17	N	0.307427	-1.488352	0.346561
N18	N	0.307388	-1.488349	-0.346768
C19	C	0.500415	-1.041921	-0.000103
C20	C	0.494632	-0.910839	-0.000129
C21	C	0.114402	-0.934780	-0.000112
C22	C	0.120188	-1.065860	-0.000077
C23	C	0.719938	-1.028098	-0.000119
C24	C	0.714154	-0.897016	-0.000144
C25	C	0.166679	-1.571522	0.423209
C26	C	0.166654	-1.571519	0.576546
C27	C	0.448143	-1.405170	0.576573
C28	C	0.448157	-1.405168	0.423239
C29	C	0.004169	-1.667567	0.423195
C30	C	0.004143	-1.667563	0.576532
H31	H	-0.032261	-1.128961	-0.000036
H32	H	-0.156415	-1.644425	0.381579
N33	N	0.599949	-1.315463	0.340554
H34	H	0.519236	-1.258597	0.276939
H35	H	0.689068	-1.262854	0.412483
N36	N	0.823705	-0.842881	-0.135185
H37	H	0.876750	-0.913271	-0.195435
H38	H	0.721813	-0.796591	-0.195336
H39	H	0.789833	-1.064494	-0.105292
H40	H	0.780500	-0.852045	0.105023
H41	H	-0.042742	-0.891150	-0.000132
N42	N	0.833681	-1.068167	0.134909
H43	H	0.880255	-0.991503	0.195148
H44	H	0.736446	-1.126992	0.195076
N45	N	0.599919	-1.315451	0.659275
H46	H	0.578551	-1.328067	0.768043
H47	H	0.748365	-1.332294	0.632484
H48	H	0.055053	-1.759289	0.375630
H49	H	-0.147607	-1.635445	0.624083
N50	N	0.051577	-1.795892	0.631670
H51	H	-0.069504	-1.832650	0.693122
H52	H	0.072814	-1.853067	0.545601
