data_functionalizedCrystal
_audit_creation_method	'MofGen! by Chris Wilmer'
_symmetry_space_group_name_H-M	'P1'
_symmetry_Int_Tables_number	1
_symmetry_cell_setting	triclinic
loop_
_symmetry_equiv_pos_as_xyz
  x,y,z
_cell_length_a	11.169417
_cell_length_b	25.639239
_cell_length_c	25.639234
_cell_angle_alpha	90.024584
_cell_angle_beta	90.014881
_cell_angle_gamma	90.039565
loop_
_atom_site_label
_atom_site_type_symbol
_atom_site_fract_x
_atom_site_fract_y
_atom_site_fract_z
Zn1	Zn	1.834667	-0.208172	0.295573
Zn2	Zn	1.834475	-0.295600	0.208138
Zn3	Zn	1.633970	-0.208181	0.208156
Zn4	Zn	1.633861	-0.295580	0.295546
O5	O	1.734243	-0.251883	0.251853
O6	O	2.002591	-0.219774	0.283979
O7	O	1.807842	-0.284016	0.134975
O8	O	1.660720	-0.135015	0.219771
O9	O	2.002450	-0.284007	0.219740
O10	O	1.808171	-0.135008	0.283996
O11	O	1.660533	-0.219790	0.134988
O12	O	1.466006	-0.219771	0.219745
O13	O	1.660534	-0.283972	0.368715
O14	O	1.465926	-0.283982	0.283950
O15	O	1.808065	-0.219754	0.368735
O16	O	1.807737	-0.368762	0.219714
O17	O	1.660347	-0.368748	0.283932
C18	C	1.422419	-0.251875	0.251846
C19	C	1.289019	-0.251885	0.251856
C20	C	1.734042	-0.387726	0.251829
C21	C	1.734065	-0.445840	0.251837
C22	C	1.811190	-0.806198	0.218472
C23	C	1.811236	-0.860802	0.218479
O24	O	1.876601	-0.889035	0.190084
N25	N	1.734454	-0.888122	0.251888
C26	C	1.657630	-0.860835	0.285296
O27	O	1.592326	-0.889087	0.313714
C28	C	1.657590	-0.806232	0.285291
C29	C	1.734368	-0.778915	0.251876
C30	C	1.887962	-0.778881	0.185059
C31	C	1.887914	-0.724280	0.185052
C32	C	1.811093	-0.696997	0.218456
C33	C	1.734320	-0.724314	0.251869
C34	C	1.580773	-0.778946	0.318702
C35	C	1.580740	-0.724339	0.318694
C36	C	1.657518	-0.697021	0.285279
C37	C	1.657450	-0.642430	0.285266
N38	N	1.734232	-0.615110	0.251856
C39	C	1.811053	-0.642394	0.218452
C40	C	1.657720	-0.975506	0.285304
C41	C	1.657753	-1.030108	0.285307
C42	C	1.811361	-1.030071	0.218490
C43	C	1.811321	-0.975468	0.218485
C44	C	1.734502	-0.948186	0.251895
C45	C	1.810945	-0.527729	0.218438
C46	C	1.810886	-0.473123	0.218432
C47	C	1.657283	-0.473165	0.285251
C48	C	1.657337	-0.527765	0.285255
C49	C	1.734178	-0.555046	0.251847
O50	O	1.592123	-0.614163	0.313647
O51	O	1.876357	-0.614135	0.190043
C52	C	2.047286	-0.251892	0.251860
C53	C	2.180686	-0.251895	0.251863
C54	C	1.734309	-0.251860	0.388226
C55	C	1.734336	-0.251850	0.446340
C56	C	1.734479	-0.115510	0.251889
C57	C	1.734579	-0.057396	0.251904
C58	C	1.734248	-0.251868	0.116011
C59	C	1.734453	-0.251731	0.057897
C60	C	1.811072	-0.285250	0.697519
C61	C	1.811059	-0.285261	0.642915
O62	O	1.876247	-0.313716	0.614666
N63	N	1.734362	-0.251825	0.615614
C64	C	1.657664	-0.218380	0.642921
O65	O	1.592426	-0.189942	0.614685
C66	C	1.657672	-0.218372	0.697524
C67	C	1.734383	-0.251806	0.724822
C68	C	1.887775	-0.318682	0.724817
C69	C	1.887789	-0.318670	0.779418
C70	C	1.811100	-0.285226	0.806720
C71	C	1.734396	-0.251794	0.779423
C72	C	1.580969	-0.184930	0.724829
C73	C	1.580982	-0.184925	0.779437
C74	C	1.657693	-0.218359	0.806734
C75	C	1.657721	-0.218339	0.861326
N76	N	1.734418	-0.251775	0.888626
C77	C	1.811107	-0.285218	0.861324
C78	C	1.657653	-0.218400	0.528250
C79	C	1.657651	-0.218405	0.473648
C80	C	1.811044	-0.285286	0.473646
C81	C	1.811052	-0.285278	0.528249
C82	C	1.734350	-0.251835	0.555551
C83	C	1.811131	-0.285191	0.975989
C84	C	1.811142	-0.285175	1.030594
C85	C	1.657744	-0.218295	1.030592
C86	C	1.657738	-0.218309	0.975991
C87	C	1.734435	-0.251761	0.948691
O88	O	1.592563	-0.189900	0.889609
O89	O	1.876324	-0.313657	0.889566
H90	H	1.873408	-0.450883	0.191219
N91	N	1.889440	-0.555582	0.184309
N92	N	1.957972	-0.531176	0.154480
H93	H	2.013403	-0.550847	0.130373
N94	N	1.578838	-0.445288	0.319379
N95	N	1.586753	-0.451352	0.367628
H96	H	1.531358	-0.431662	0.391735
N97	N	1.579301	-0.184255	0.445759
N98	N	1.579285	-0.184266	0.397007
H99	H	1.523943	-0.160150	0.377311
H100	H	1.950437	-0.702042	0.157844
H101	H	1.950526	-0.801089	0.157857
H102	H	1.518246	-0.801178	0.345910
H103	H	1.518186	-0.702128	0.345903
H104	H	1.594822	-0.550008	0.312466
N105	N	1.579371	-0.184160	0.948107
N106	N	1.502838	-0.202559	0.917635
H107	H	1.447481	-0.178443	0.897946
N108	N	1.889735	-0.947560	0.184353
N109	N	1.847533	-0.917127	0.151016
H110	H	1.902915	-0.897418	0.126909
H111	H	1.595221	-1.052345	0.312512
N112	N	1.502601	-0.150787	0.696946
N113	N	1.502578	-0.150795	0.648194
H114	H	1.447224	-0.126681	0.628501
H115	H	1.950251	-0.345897	0.801639
N116	N	1.889824	-1.057955	0.184369
N117	N	1.889842	-1.106707	0.184383
H118	H	1.945252	-1.126402	0.160286
N119	N	1.579218	-0.947639	0.319422
N120	N	1.502735	-0.917216	0.300995
H121	H	1.447294	-0.897537	0.325090
N122	N	1.579391	-0.184144	1.058486
N123	N	1.468638	-0.187616	1.052381
H124	H	1.413292	-0.163499	1.072083
H125	H	1.873594	-0.312427	0.953768
N126	N	1.889388	-0.319441	0.556129
N127	N	1.847112	-0.352758	0.586580
H128	H	1.902439	-0.376889	0.606267
N129	N	1.889388	-0.319441	0.445743
N130	N	1.889365	-0.319437	0.396990
H131	H	1.944697	-0.343555	0.377282
N132	N	1.889520	-0.319328	1.058470
N133	N	1.957986	-0.349185	1.034081
H134	H	2.013340	-0.373305	1.053766
H135	H	1.595197	-0.191161	0.550476
N136	N	1.966121	-0.352852	0.696942
N137	N	2.034590	-0.382698	0.721332
H138	H	2.089932	-0.406831	0.701649
N139	N	1.502617	-0.150762	0.807315
N140	N	1.434137	-0.120917	0.782931
H141	H	1.378792	-0.096788	0.802619
