data_functionalizedCrystal
_audit_creation_method	'MofGen! by Chris Wilmer'
_symmetry_space_group_name_H-M	'P1'
_symmetry_Int_Tables_number	1
_symmetry_cell_setting	triclinic
loop_
_symmetry_equiv_pos_as_xyz
  x,y,z
_cell_length_a	21.606444
_cell_length_b	23.196402
_cell_length_c	23.196401
_cell_angle_alpha	59.999265
_cell_angle_beta	90.006526
_cell_angle_gamma	60.001110
loop_
_atom_site_label
_atom_site_type_symbol
_atom_site_fract_x
_atom_site_fract_y
_atom_site_fract_z
Zr1	Zr	0.596238	0.631010	-0.075625
O2	O	0.497398	0.751291	-0.167680
O3	O	0.626535	0.510740	-0.047408
O4	O	0.626515	0.631026	-0.167683
O5	O	0.497438	0.630989	0.047474
O6	O	0.728367	0.631026	-0.167682
O7	O	0.497419	0.631005	-0.047405
O8	O	0.728403	0.415856	0.047468
O9	O	0.497401	0.846159	-0.167676
O10	O	0.715470	0.560205	-0.035369
O11	O	0.639473	0.560193	0.035437
O12	O	0.639449	0.701814	-0.106171
O13	O	0.563453	0.701802	-0.035365
Zr14	Zr	0.758710	0.630984	0.075698
Zr15	Zr	0.758680	0.631010	-0.075622
Zr16	Zr	0.596268	0.630984	0.075696
Zr17	Zr	0.596242	0.782313	-0.075618
Zr18	Zr	0.758706	0.479682	0.075692
O19	O	0.728413	0.751254	0.047482
O20	O	0.728370	0.751291	-0.167676
O21	O	0.497441	0.751254	0.047479
O22	O	0.857550	0.510703	0.167753
O23	O	0.857507	0.510740	-0.047405
O24	O	0.626578	0.510703	0.167750
O25	O	0.857510	0.631005	-0.047400
O26	O	0.728433	0.630968	0.167757
O27	O	0.626581	0.630968	0.167755
O28	O	0.857529	0.630989	0.047479
O29	O	0.626521	0.846159	-0.167674
O30	O	0.728427	0.415836	0.167748
O31	O	0.857547	0.415836	0.167749
O32	O	0.857523	0.415856	0.047470
O33	O	0.497425	0.846138	-0.047396
O34	O	0.626545	0.846138	-0.047394
O35	O	0.715498	0.560180	0.106245
O36	O	0.791495	0.560192	0.035439
O37	O	0.715474	0.701802	-0.035363
O38	O	0.639478	0.701789	0.035443
C39	C	0.677468	0.441741	0.000029
C40	C	0.677466	0.377509	0.000026
C41	C	0.717131	0.347345	-0.036937
C42	C	0.717138	0.286984	-0.036931
C43	C	0.677466	0.256801	0.000028
C44	C	0.637800	0.286969	0.036999
C45	C	0.637800	0.347323	0.036998
C46	C	0.611005	0.194773	-0.005248
C47	C	0.611003	0.134423	-0.005252
C48	C	0.677467	0.070646	0.000035
C49	C	0.743933	0.067233	0.005312
C50	C	0.743933	0.127587	0.005311
C51	C	0.677462	0.191357	0.000033
C52	C	0.717143	-0.024969	-0.036923
C53	C	0.717153	-0.085335	-0.036912
C54	C	0.637807	-0.085343	0.037012
C55	C	0.637805	-0.024984	0.037006
C56	C	0.677471	0.005202	0.000035
C57	C	0.474284	0.630997	0.000034
C58	C	0.405323	0.630997	0.000033
C59	C	0.372914	0.631009	-0.052238
C60	C	0.308120	0.631005	-0.052236
C61	C	0.275733	0.630995	0.000036
C62	C	0.308147	0.630981	0.052312
C63	C	0.372943	0.630979	0.052312
C64	C	0.046834	0.630987	0.052315
C65	C	-0.017968	0.630991	0.052310
C66	C	-0.017990	0.631012	-0.052233
C67	C	0.046806	0.631011	-0.052233
C68	C	0.079217	0.630992	0.000045
C69	C	0.149475	0.630995	0.000042
C70	C	0.205473	0.630998	0.000036
C71	C	0.880664	0.630997	0.000040
C72	C	0.949625	0.630997	0.000041
C73	C	0.677436	0.631030	-0.189242
C74	C	0.677424	0.631041	-0.253482
C75	C	0.677480	0.820253	0.000045
C76	C	0.677481	0.884485	0.000048
C77	C	0.733536	0.631042	-0.283644
C78	C	0.733553	0.631026	-0.343991
C79	C	0.677446	0.631024	-0.374181
C80	C	0.621328	0.631018	-0.344009
C81	C	0.621317	0.631026	-0.283660
C82	C	0.608970	0.678519	-0.493562
C83	C	0.608981	0.678516	-0.553913
C84	C	0.677479	0.630995	-0.560317
C85	C	0.745971	0.583488	-0.506369
C86	C	0.745960	0.583497	-0.446019
C87	C	0.677451	0.631015	-0.439620
C88	C	0.733615	0.630978	-0.655914
C89	C	0.733632	0.630956	-0.716259
C90	C	0.621400	0.630957	-0.716280
C91	C	0.621389	0.630970	-0.655932
C92	C	0.677496	0.630985	-0.625754
C93	C	0.677512	0.630965	0.189316
C94	C	0.677524	0.630954	0.253556
C95	C	0.880659	0.441741	0.000032
C96	C	0.949618	0.377509	0.000030
C97	C	0.677506	0.441708	0.189308
C98	C	0.677517	0.377465	0.253545
C99	C	0.880696	0.441708	0.189311
C100	C	0.949668	0.377465	0.253549
C101	C	0.474252	0.820286	-0.189237
C102	C	0.405280	0.884529	-0.253475
C103	C	0.474289	0.820254	0.000042
C104	C	0.405330	0.884485	0.000044
C105	C	0.677442	0.820286	-0.189234
C106	C	0.677431	0.884529	-0.253471
C107	C	0.942317	0.347351	-0.036938
C108	C	1.007106	0.287007	-0.036954
C109	C	1.079193	0.256817	0.000003
C110	C	1.086492	0.286981	0.036972
C111	C	1.021705	0.347328	0.036983
C112	C	0.717206	0.347290	0.320679
C113	C	0.717213	0.286935	0.381042
C114	C	0.677535	0.256753	0.374270
C115	C	0.637841	0.286935	0.307129
C116	C	0.637830	0.347292	0.246767
C117	C	1.021734	0.347302	0.246756
C118	C	1.086547	0.286948	0.307108
C119	C	1.079292	0.256753	0.374253
C120	C	1.007218	0.286922	0.381045
C121	C	0.942407	0.347279	0.320693
C122	C	0.333213	0.914699	-0.246682
C123	C	0.268401	0.975073	-0.307034
C124	C	0.275656	1.005271	-0.374179
C125	C	0.347730	0.975098	-0.380971
C126	C	0.412541	0.914730	-0.320619
C127	C	0.412631	0.914649	0.037006
C128	C	0.347842	0.975010	0.037005
C129	C	0.275755	1.005202	0.000046
C130	C	0.268456	0.975036	-0.036921
C131	C	0.333243	0.914680	-0.036924
C132	C	0.717117	0.914692	-0.246676
C133	C	0.717122	0.975047	-0.307028
C134	C	0.677435	1.005242	-0.374174
C135	C	0.637748	0.975073	-0.380967
C136	C	0.637749	0.914715	-0.320616
H137	H	0.605506	-0.109918	0.067105
H138	H	0.353800	0.999562	0.067110
C139	C	0.677559	0.190356	0.440671
H140	H	0.706887	0.176706	0.481621
H141	H	0.627012	0.210130	0.440684
H142	H	0.698810	0.143260	0.440680
C143	C	0.863028	0.380554	-0.077596
H144	H	0.825481	0.420811	-0.072295
H145	H	0.857336	0.404110	-0.126221
H146	H	0.857347	0.337220	-0.059344
C147	C	0.355701	1.008315	-0.454832
H148	H	0.306777	1.048580	-0.489797
H149	H	0.382623	1.031862	-0.460139
H150	H	0.382611	0.964988	-0.460133
H151	H	0.605513	0.371853	0.192106
H152	H	1.001148	0.262455	-0.067059
C153	C	0.204362	1.071671	-0.440562
H154	H	0.218999	1.085342	-0.481528
H155	H	0.175050	1.051886	-0.440560
H156	H	0.175058	1.118757	-0.440556
H157	H	0.605536	0.262352	0.301625
C158	C	1.165789	0.253756	0.077635
H159	H	1.160866	0.280356	0.099657
H160	H	1.192706	0.196771	0.112600
H161	H	1.192714	0.263652	0.045733
C162	C	0.082433	0.631019	-0.109729
H163	H	0.125662	0.631022	-0.102245
H164	H	0.097195	0.583733	-0.107562
H165	H	0.046422	0.678317	-0.154853
H166	H	0.749517	0.371857	0.326206
C167	C	0.082475	0.630979	0.109811
H168	H	0.125708	0.630971	0.102333
H169	H	0.046473	0.678265	0.107643
H170	H	0.097247	0.583682	0.154935
H171	H	0.749540	0.262369	0.435705
C172	C	0.760795	-0.118528	-0.077563
H173	H	0.755125	-0.158805	-0.072259
H174	H	0.741195	-0.075200	-0.126190
H175	H	0.812999	-0.142073	-0.059304
H176	H	0.801728	0.544813	-0.402095
H177	H	0.471322	0.890072	0.067107
C178	C	0.677434	1.071640	-0.440553
H179	H	0.706749	1.085282	-0.426884
H180	H	0.698671	1.051873	-0.467866
H181	H	0.626877	1.118741	-0.467855
H182	H	0.471219	0.890166	-0.326159
C183	C	0.594090	1.008300	-0.454829
H184	H	0.599771	1.048573	-0.489793
H185	H	0.613670	0.964987	-0.460140
H186	H	0.541884	1.031859	-0.460126
C187	C	1.150588	0.190354	0.440634
H188	H	1.194545	0.176713	0.426965
H189	H	1.150609	0.210122	0.467946
H190	H	1.150602	0.143254	0.467935
H191	H	1.131941	0.207678	-0.000011
C192	C	1.029730	0.380508	0.172904
H193	H	1.081937	0.353900	0.177512
H194	H	1.006103	0.370619	0.147818
H195	H	1.006097	0.437495	0.147826
H196	H	1.001321	0.262328	0.435722
C197	C	0.863136	0.380449	0.328170
H198	H	0.825570	0.420725	0.282615
H199	H	0.857470	0.337109	0.353254
H200	H	0.857461	0.403991	0.353251
H201	H	1.145227	0.262390	0.301565
C202	C	0.189157	1.008247	-0.077566
H203	H	0.151624	1.048504	-0.072259
H204	H	0.183449	1.031803	-0.126194
H205	H	0.183472	0.964916	-0.059306
H206	H	0.605428	0.890163	-0.326158
H207	H	0.575645	0.631015	-0.368592
C208	C	0.272522	0.630972	0.109809
H209	H	0.229286	0.630984	0.102319
H210	H	0.308530	0.583681	0.154931
H211	H	0.257759	0.678264	0.107638
H212	H	0.327291	0.890115	-0.192014
H213	H	0.209722	0.999629	-0.301491
H214	H	0.798052	0.124804	0.009609
C215	C	0.204495	1.071590	0.000057
H216	H	0.219174	1.085221	0.027371
H217	H	0.175171	1.118691	-0.047029
H218	H	0.175186	1.051803	0.019853
C219	C	0.325203	0.881496	-0.077574
H220	H	0.272990	0.908119	-0.099576
H221	H	0.348820	0.891384	-0.112553
H222	H	0.348827	0.824510	-0.045665
C223	C	0.760778	0.881485	-0.172824
H224	H	0.784418	0.908094	-0.177431
H225	H	0.726540	0.891374	-0.147738
H226	H	0.798329	0.824498	-0.147746
H227	H	0.801749	0.544792	-0.511580
H228	H	1.027660	0.371875	0.067092
H229	H	0.749438	0.999604	-0.301483
H230	H	0.749432	0.371919	-0.067039
C231	C	-0.053635	0.631017	-0.109732
H232	H	-0.096859	0.631006	-0.102243
H233	H	-0.068408	0.678309	-0.154854
H234	H	-0.017628	0.583726	-0.107560
H235	H	0.749439	0.262420	-0.067031
H236	H	0.798057	0.015299	0.009626
H237	H	0.575719	0.630951	-0.740858
C238	C	0.760787	0.008225	-0.077576
H239	H	0.784423	-0.018398	-0.099579
H240	H	0.726539	0.065209	-0.112554
H241	H	0.798340	-0.001677	-0.045666
C242	C	0.594164	0.008207	0.077656
H243	H	0.570532	-0.018407	0.099664
H244	H	0.628414	-0.001685	0.112631
H245	H	0.556608	0.065194	0.045747
H246	H	0.556875	0.246710	-0.009568
C247	C	0.537897	0.138176	-0.011056
H248	H	0.547413	0.093104	-0.010307
H249	H	0.521785	0.136247	0.027590
H250	H	0.499393	0.187494	-0.054043
H251	H	0.605499	0.371883	0.067097
C252	C	0.594179	0.253756	0.077670
H253	H	0.570566	0.280358	0.099694
H254	H	0.556623	0.263640	0.045783
H255	H	0.628453	0.196769	0.112645
C256	C	0.408537	0.631015	-0.109736
H257	H	0.379958	0.631012	-0.140862
H258	H	0.408430	0.678301	-0.135555
H259	H	0.459200	0.583718	-0.088259
H260	H	0.281734	0.631013	-0.094799
H261	H	-0.044336	0.630982	0.094878
H262	H	0.575694	0.630974	-0.631375
C263	C	0.408588	0.630976	0.109806
H264	H	0.380016	0.630979	0.140933
H265	H	0.459252	0.583688	0.135624
H266	H	0.408474	0.678271	0.088329
H267	H	0.779223	0.631051	-0.259074
H268	H	0.779249	0.631027	-0.368554
C269	C	0.795335	0.630978	-0.622706
H270	H	0.787287	0.630992	-0.582448
H271	H	0.843778	0.583685	-0.608938
H272	H	0.793007	0.678268	-0.656244
C273	C	0.795358	0.630960	-0.749439
H274	H	0.828765	0.630978	-0.722825
H275	H	0.823087	0.583668	-0.749330
H276	H	0.772300	0.678252	-0.796635
C277	C	0.533645	0.730775	-0.613251
H278	H	0.492847	0.759067	-0.600790
H279	H	0.534425	0.768976	-0.655895
H280	H	0.527178	0.696516	-0.619667
C281	C	0.533618	0.730800	-0.486526
H282	H	0.492832	0.759101	-0.527302
H283	H	0.527135	0.696558	-0.445860
H284	H	0.534399	0.769007	-0.482090
H285	H	0.575622	0.631025	-0.259101
