data_functionalizedCrystal
_audit_creation_method	'MofGen! by Chris Wilmer'
_symmetry_space_group_name_H-M	'P1'
_symmetry_Int_Tables_number	1
_symmetry_cell_setting	triclinic
loop_
_symmetry_equiv_pos_as_xyz
  x,y,z
_cell_length_a	18.050590
_cell_length_b	18.050589
_cell_length_c	18.050582
_cell_angle_alpha	89.981795
_cell_angle_beta	90.000767
_cell_angle_gamma	90.017386
loop_
_atom_site_label
_atom_site_type_symbol
_atom_site_fract_x
_atom_site_fract_y
_atom_site_fract_z
Zn1	Zn	1.135292	-0.295921	-0.419624
Zn2	Zn	1.468626	0.037412	-0.086291
Zn3	Zn	1.801959	0.370745	0.247043
Zn4	Zn	1.135203	-0.420105	-0.295444
Zn5	Zn	1.468536	-0.086771	0.037890
Zn6	Zn	1.801870	0.246562	0.371223
Zn7	Zn	1.011112	-0.295910	-0.295482
Zn8	Zn	1.344445	0.037424	0.037851
Zn9	Zn	1.677778	0.370757	0.371184
Zn10	Zn	1.011060	-0.420051	-0.419626
Zn11	Zn	1.344393	-0.086717	-0.086293
Zn12	Zn	1.677726	0.246616	0.247041
O13	O	1.073167	-0.357997	-0.357544
O14	O	1.406500	-0.024663	-0.024211
O15	O	1.739833	0.308670	0.309123
O16	O	1.239205	-0.312422	-0.403134
O17	O	1.572538	0.020911	-0.069801
O18	O	1.905872	0.354244	0.263532
O19	O	1.118727	-0.403648	-0.191524
O20	O	1.452060	-0.070314	0.141809
O21	O	1.785393	0.263019	0.475143
O22	O	1.027644	-0.191987	-0.311965
O23	O	1.360977	0.141347	0.021368
O24	O	1.694310	0.474680	0.354701
O25	O	1.239140	-0.403659	-0.311899
O26	O	1.572473	-0.070326	0.021434
O27	O	1.905806	0.263008	0.354767
O28	O	1.118879	-0.191995	-0.403172
O29	O	1.452212	0.141338	-0.069838
O30	O	1.785545	0.474671	0.263495
O31	O	1.027557	-0.312402	-0.191553
O32	O	1.360890	0.020931	0.141781
O33	O	1.694224	0.354265	0.475114
O34	O	0.907180	-0.312350	-0.311967
O35	O	1.240514	0.020984	0.021366
O36	O	1.573847	0.354317	0.354699
O37	O	1.027555	-0.403567	-0.523550
O38	O	1.360888	-0.070234	-0.190217
O39	O	1.694222	0.263100	0.143116
O40	O	0.907142	-0.403555	-0.403175
O41	O	1.240475	-0.070222	-0.069842
O42	O	1.573809	0.263111	0.263491
O43	O	1.118828	-0.312370	-0.523549
O44	O	1.452162	0.020964	-0.190216
O45	O	1.785495	0.354297	0.143118
O46	O	1.118676	-0.524022	-0.311901
O47	O	1.452009	-0.190689	0.021432
O48	O	1.785343	0.142645	0.354765
O49	O	1.027468	-0.523982	-0.403138
O50	O	1.360802	-0.190649	-0.069804
O51	O	1.694135	0.142684	0.263529
C52	C	0.880215	-0.357946	-0.357576
C53	C	1.213548	-0.024613	-0.024243
C54	C	1.546881	0.308721	0.309091
C55	C	0.797669	-0.357942	-0.357607
C56	C	1.131002	-0.024609	-0.024274
C57	C	1.464335	0.308725	0.309059
C58	C	1.073077	-0.550949	-0.357532
C59	C	1.406410	-0.217615	-0.024198
C60	C	1.739744	0.115718	0.309135
C61	C	1.073107	-0.633494	-0.357551
C62	C	1.406440	-0.300161	-0.024218
C63	C	1.739773	0.033172	0.309115
C64	C	0.598219	-0.407682	-0.407088
C65	C	0.931552	-0.074348	-0.073755
C66	C	1.264886	0.258985	0.259578
C67	C	0.548826	-0.339967	-0.425358
C68	C	0.882159	-0.006634	-0.092025
C69	C	1.215492	0.326700	0.241308
C70	C	0.646538	-0.357984	-0.357571
C71	C	0.979872	-0.024650	-0.024238
C72	C	1.313205	0.308683	0.309096
C73	C	0.548850	-0.425737	-0.339300
C74	C	0.882183	-0.092404	-0.005967
C75	C	1.215517	0.240929	0.327366
C76	C	0.500553	-0.358030	-0.357537
C77	C	0.833887	-0.024696	-0.024204
C78	C	1.167220	0.308637	0.309129
C79	C	0.598233	-0.290233	-0.375876
C80	C	0.931566	0.043101	-0.042543
C81	C	1.264899	0.376434	0.290790
C82	C	0.598261	-0.376049	-0.289787
C83	C	0.931594	-0.042715	0.043547
C84	C	1.264928	0.290618	0.376880
C85	C	0.548890	-0.308287	-0.308031
C86	C	0.882224	0.025046	0.025302
C87	C	1.215557	0.358380	0.358636
C88	C	0.730637	-0.357958	-0.357592
C89	C	1.063970	-0.024625	-0.024259
C90	C	1.397303	0.308709	0.309074
C91	C	0.416457	-0.358047	-0.357516
C92	C	0.749790	-0.024714	-0.024183
C93	C	1.083123	0.308619	0.309151
C94	C	1.023557	-0.832950	-0.407148
C95	C	1.356890	-0.499617	-0.073815
C96	C	1.690223	-0.166284	0.259518
C97	C	1.005459	-0.882381	-0.339386
C98	C	1.338792	-0.549048	-0.006053
C99	C	1.672125	-0.215714	0.327281
C100	C	1.073180	-0.784625	-0.357561
C101	C	1.406513	-0.451291	-0.024228
C102	C	1.739846	-0.117958	0.309106
C103	C	1.091314	-0.882276	-0.425331
C104	C	1.424647	-0.548943	-0.091998
C105	C	1.757981	-0.215609	0.241336
C106	C	1.073249	-0.930610	-0.357576
C107	C	1.406582	-0.597277	-0.024243
C108	C	1.739915	-0.263943	0.309090
C109	C	1.055046	-0.832968	-0.289763
C110	C	1.388379	-0.499635	0.043571
C111	C	1.721713	-0.166302	0.376904
C112	C	1.140933	-0.832859	-0.375754
C113	C	1.474266	-0.499525	-0.042420
C114	C	1.807599	-0.166192	0.290913
C115	C	1.122861	-0.882267	-0.307945
C116	C	1.456194	-0.548934	0.025389
C117	C	1.789527	-0.215600	0.358722
C118	C	1.073138	-0.700527	-0.357553
C119	C	1.406471	-0.367193	-0.024220
C120	C	1.739805	-0.033860	0.309114
C121	C	1.073290	-1.014706	-0.357576
C122	C	1.406624	-0.681373	-0.024243
C123	C	1.739957	-0.348040	0.309090
C124	C	1.266872	-0.358048	-0.357512
C125	C	1.600206	-0.024715	-0.024179
C126	C	1.933539	0.308619	0.309154
C127	C	1.349418	-0.358070	-0.357499
C128	C	1.682751	-0.024737	-0.024166
C129	C	2.016085	0.308597	0.309168
C130	C	1.073196	-0.357964	-0.551250
C131	C	1.406529	-0.024630	-0.217916
C132	C	1.739862	0.308703	0.115417
C133	C	1.073208	-0.357950	-0.633796
C134	C	1.406542	-0.024616	-0.300462
C135	C	1.739875	0.308717	0.032871
C136	C	1.073277	-0.164291	-0.357573
C137	C	1.406610	0.169042	-0.024239
C138	C	1.739944	0.502376	0.309094
C139	C	1.073324	-0.081745	-0.357585
C140	C	1.406657	0.251588	-0.024251
C141	C	1.739991	0.584921	0.309082
C142	C	1.023612	-0.407475	-0.833247
C143	C	1.356945	-0.074142	-0.499914
C144	C	1.690278	0.259192	-0.166580
C145	C	1.091367	-0.425641	-0.882621
C146	C	1.424700	-0.092308	-0.549288
C147	C	1.758034	0.241025	-0.215955
C148	C	1.073245	-0.357893	-0.784926
C149	C	1.406578	-0.024560	-0.451593
C150	C	1.739912	0.308774	-0.118259
C151	C	1.005527	-0.339706	-0.882634
C152	C	1.338860	-0.006373	-0.549300
C153	C	1.672193	0.326961	-0.215967
C154	C	1.073274	-0.357840	-0.930911
C155	C	1.406608	-0.024506	-0.597578
C156	C	1.739941	0.308827	-0.264244
C157	C	1.141036	-0.376095	-0.833213
C158	C	1.474369	-0.042761	-0.499880
C159	C	1.807702	0.290572	-0.166546
C160	C	1.055150	-0.290128	-0.833221
C161	C	1.388483	0.043205	-0.499888
C162	C	1.721816	0.376539	-0.166554
C163	C	1.122952	-0.308269	-0.882573
C164	C	1.456285	0.025065	-0.549239
C165	C	1.789618	0.358398	-0.215906
C166	C	1.073227	-0.357926	-0.700828
C167	C	1.406560	-0.024592	-0.367494
C168	C	1.739894	0.308741	-0.034161
C169	C	1.073300	-0.357807	-1.015008
C170	C	1.406633	-0.024474	-0.681674
C171	C	1.739966	0.308860	-0.348341
C172	C	1.073180	-0.357976	-0.164592
C173	C	1.406514	-0.024642	0.168741
C174	C	1.739847	0.308691	0.502075
C175	C	1.073312	-0.357781	-0.082047
C176	C	1.406645	-0.024447	0.251287
C177	C	1.739979	0.308886	0.584620
H178	H	0.527112	-0.324702	-0.482668
H179	H	0.860445	0.008631	-0.149334
H180	H	1.193778	0.341965	0.183999
N181	N	0.520124	-0.501609	-0.318840
N182	N	0.853457	-0.168276	0.014494
N183	N	1.186790	0.165058	0.347827
H184	H	0.489347	-0.498019	-0.272251
H185	H	0.822681	-0.164685	0.061083
H186	H	1.156014	0.168648	0.394416
H187	H	0.488570	-0.521445	-0.360569
H188	H	0.821903	-0.188112	-0.027236
H189	H	1.155237	0.145222	0.306097
H190	H	0.948195	-0.904150	-0.324012
H191	H	1.281528	-0.570817	0.009321
H192	H	1.614861	-0.237484	0.342654
N193	N	1.216929	-0.396589	-0.804618
N194	N	1.550262	-0.063256	-0.471284
N195	N	1.883596	0.270077	-0.137951
H196	H	1.254498	-0.359394	-0.822980
H197	H	1.587831	-0.026061	-0.489647
H198	H	1.921165	0.307272	-0.156314
H199	H	1.216401	-0.396541	-0.748669
H200	H	1.549735	-0.063208	-0.415335
H201	H	1.883068	0.270126	-0.082002
H202	H	0.981530	-0.811296	-0.449023
H203	H	1.314864	-0.477962	-0.115690
H204	H	1.648197	-0.144629	0.217643
N205	N	1.034681	-0.804406	-0.213830
N206	N	1.368014	-0.471073	0.119503
N207	N	1.701348	-0.137740	0.452836
H208	H	1.034759	-0.748455	-0.214298
H209	H	1.368092	-0.415121	0.119035
H210	H	1.701425	-0.081788	0.452369
H211	H	0.983707	-0.822912	-0.200027
H212	H	1.317041	-0.489579	0.133306
H213	H	1.650374	-0.156246	0.466640
H214	H	1.164855	-0.903785	-0.265968
H215	H	1.498188	-0.570451	0.067365
H216	H	1.831521	-0.237118	0.400698
H217	H	1.164986	-0.266316	-0.904094
H218	H	1.498319	0.067017	-0.570761
H219	H	1.831653	0.400351	-0.237428
N220	N	1.111659	-0.501516	-0.911378
N221	N	1.444992	-0.168183	-0.578045
N222	N	1.778326	0.165151	-0.244711
H223	H	1.158254	-0.497967	-0.942156
H224	H	1.491587	-0.164634	-0.608823
H225	H	1.824920	0.168699	-0.275490
H226	H	1.120350	-0.536077	-0.868235
H227	H	1.453683	-0.202744	-0.534901
H228	H	1.787016	0.130590	-0.201568
N229	N	1.034829	-0.214274	-0.804444
N230	N	1.368162	0.119059	-0.471110
N231	N	1.701496	0.452393	-0.137777
H232	H	0.983627	-0.200601	-0.822386
H233	H	1.316960	0.132733	-0.489053
H234	H	1.650293	0.466066	-0.155719
H235	H	1.035492	-0.214806	-0.748498
H236	H	1.368826	0.118527	-0.415165
H237	H	1.702159	0.451860	-0.081832
N238	N	0.626915	-0.463253	-0.462618
N239	N	0.960248	-0.129919	-0.129285
N240	N	1.293582	0.203414	0.204048
H241	H	0.682864	-0.463176	-0.461906
H242	H	1.016198	-0.129843	-0.128573
H243	H	1.349531	0.203490	0.204761
H244	H	0.608127	-0.514261	-0.449325
H245	H	0.941460	-0.180928	-0.115992
H246	H	1.274794	0.152406	0.217342
H247	H	1.198184	-0.811091	-0.391160
H248	H	1.531517	-0.477758	-0.057826
H249	H	1.864851	-0.144425	0.275507
N250	N	1.111597	-0.910974	-0.501235
N251	N	1.444930	-0.577640	-0.167901
N252	N	1.778263	-0.244307	0.165432
H253	H	1.074050	-0.893035	-0.538642
H254	H	1.407383	-0.559701	-0.205308
H255	H	1.740716	-0.226368	0.128025
H256	H	1.162396	-0.892181	-0.515292
H257	H	1.495729	-0.558848	-0.181958
H258	H	1.829062	-0.225514	0.151375
H259	H	0.948246	-0.324346	-0.904342
H260	H	1.281580	0.008988	-0.571009
H261	H	1.614913	0.342321	-0.237675
N262	N	0.626836	-0.214335	-0.396413
N263	N	0.960170	0.118998	-0.063079
N264	N	1.293503	0.452331	0.270254
H265	H	0.682788	-0.214791	-0.396320
H266	H	1.016121	0.118542	-0.062986
H267	H	1.349455	0.451876	0.270347
H268	H	0.608364	-0.200638	-0.447423
H269	H	0.941697	0.132695	-0.114090
H270	H	1.275030	0.466029	0.219244
N271	N	0.520380	-0.252580	-0.252543
N272	N	0.853714	0.080754	0.080790
N273	N	1.187047	0.414087	0.414123
H274	H	0.488862	-0.214528	-0.278800
H275	H	0.822195	0.118806	0.054534
H276	H	1.155529	0.452139	0.387867
H277	H	0.489615	-0.278869	-0.213890
H278	H	0.822948	0.054465	0.119443
H279	H	1.156282	0.387798	0.452776
N280	N	0.627041	-0.396285	-0.213891
N281	N	0.960374	-0.062951	0.119442
N282	N	1.293707	0.270382	0.452776
H283	H	0.609107	-0.447482	-0.200144
H284	H	0.942440	-0.114149	0.133189
H285	H	1.275774	0.219184	0.466523
H286	H	0.682986	-0.395594	-0.214399
H287	H	1.016319	-0.062261	0.118935
H288	H	1.349653	0.271072	0.452268
N289	N	0.968066	-0.463081	-0.804550
N290	N	1.301399	-0.129748	-0.471217
N291	N	1.634732	0.203585	-0.137883
H292	H	0.981847	-0.514238	-0.822520
H293	H	1.315180	-0.180904	-0.489186
H294	H	1.648513	0.152429	-0.155853
H295	H	0.968139	-0.462309	-0.748604
H296	H	1.301472	-0.128976	-0.415271
H297	H	1.634806	0.204357	-0.081937
