data_functionalizedCrystal
_audit_creation_method	'MofGen! by Chris Wilmer'
_symmetry_space_group_name_H-M	'P1'
_symmetry_Int_Tables_number	1
_symmetry_cell_setting	triclinic
loop_
_symmetry_equiv_pos_as_xyz
  x,y,z
_cell_length_a	18.215407
_cell_length_b	13.897448
_cell_length_c	13.897449
_cell_angle_alpha	90.009266
_cell_angle_beta	90.005175
_cell_angle_gamma	90.018140
loop_
_atom_site_label
_atom_site_type_symbol
_atom_site_fract_x
_atom_site_fract_y
_atom_site_fract_z
Zn1	Zn	1.125002	-0.384176	0.545414
Zn2	Zn	1.375002	-0.134176	0.795414
Zn3	Zn	1.625002	0.115824	1.045414
Zn4	Zn	1.875002	0.365824	1.295414
Zn5	Zn	1.124958	-0.545437	0.384116
Zn6	Zn	1.374958	-0.295437	0.634116
Zn7	Zn	1.624958	-0.045437	0.884116
Zn8	Zn	1.874958	0.204563	1.134116
Zn9	Zn	1.001966	-0.384159	0.384129
Zn10	Zn	1.251966	-0.134159	0.634129
Zn11	Zn	1.501966	0.115841	0.884129
Zn12	Zn	1.751966	0.365841	1.134129
Zn13	Zn	1.001916	-0.545432	0.545365
Zn14	Zn	1.251916	-0.295432	0.795365
Zn15	Zn	1.501916	-0.045432	1.045365
Zn16	Zn	1.751916	0.204568	1.295365
O17	O	1.063461	-0.464801	0.464756
O18	O	1.313461	-0.214801	0.714756
O19	O	1.563461	0.035199	0.964756
O20	O	1.813461	0.285199	1.214756
O21	O	1.227981	-0.405577	0.524033
O22	O	1.477981	-0.155577	0.774033
O23	O	1.727981	0.094423	1.024033
O24	O	1.977981	0.344423	1.274033
O25	O	1.108645	-0.524039	0.249136
O26	O	1.358645	-0.274039	0.499136
O27	O	1.608645	-0.024039	0.749136
O28	O	1.858645	0.225961	0.999136
O29	O	1.018327	-0.249180	0.405550
O30	O	1.268327	0.000820	0.655550
O31	O	1.518327	0.250820	0.905550
O32	O	1.768327	0.500820	1.155550
O33	O	1.227948	-0.524055	0.405528
O34	O	1.477948	-0.274055	0.655528
O35	O	1.727948	-0.024055	0.905528
O36	O	1.977948	0.225945	1.155528
O37	O	1.108721	-0.249192	0.524046
O38	O	1.358721	0.000808	0.774046
O39	O	1.608721	0.250808	1.024046
O40	O	1.858721	0.500808	1.274046
O41	O	1.018284	-0.405549	0.249146
O42	O	1.268284	-0.155549	0.499146
O43	O	1.518284	0.094451	0.749146
O44	O	1.768284	0.344451	0.999146
O45	O	0.898975	-0.405543	0.405502
O46	O	1.148975	-0.155543	0.655502
O47	O	1.398975	0.094457	0.905502
O48	O	1.648975	0.344457	1.155502
O49	O	1.018241	-0.524045	0.680353
O50	O	1.268241	-0.274045	0.930353
O51	O	1.518241	-0.024045	1.180353
O52	O	1.768241	0.225955	1.430353
O53	O	0.898939	-0.524029	0.523961
O54	O	1.148939	-0.274029	0.773961
O55	O	1.398939	-0.024029	1.023961
O56	O	1.648939	0.225971	1.273961
O57	O	1.108672	-0.405571	0.680389
O58	O	1.358672	-0.155571	0.930389
O59	O	1.608672	0.094429	1.180389
O60	O	1.858672	0.344429	1.430389
O61	O	1.108596	-0.680418	0.405479
O62	O	1.358596	-0.430418	0.655479
O63	O	1.608596	-0.180418	0.905479
O64	O	1.858596	0.069582	1.155479
O65	O	1.018198	-0.680414	0.523948
O66	O	1.268198	-0.430414	0.773948
O67	O	1.518198	-0.180414	1.023948
O68	O	1.768198	0.069586	1.273948
C69	C	0.872254	-0.464784	0.464728
C70	C	1.122254	-0.214784	0.714728
C71	C	1.372254	0.035216	0.964728
C72	C	1.622254	0.285216	1.214728
C73	C	0.790455	-0.464801	0.464739
C74	C	1.040455	-0.214801	0.714739
C75	C	1.290455	0.035199	0.964739
C76	C	1.540455	0.285199	1.214739
C77	C	0.602262	-0.526593	0.526343
C78	C	0.852262	-0.276593	0.776343
C79	C	1.102262	-0.026593	1.026343
C80	C	1.352262	0.223407	1.276343
C81	C	0.525403	-0.526596	0.526355
C82	C	0.775403	-0.276596	0.776355
C83	C	1.025403	-0.026596	1.026355
C84	C	1.275403	0.223404	1.276355
C85	C	0.525412	-0.403026	0.403189
C86	C	0.775412	-0.153026	0.653189
C87	C	1.025412	0.096974	0.903189
C88	C	1.275412	0.346974	1.153189
C89	C	0.602269	-0.403019	0.403183
C90	C	0.852269	-0.153019	0.653183
C91	C	1.102269	0.096981	0.903183
C92	C	1.352269	0.346981	1.153183
C93	C	0.640692	-0.464808	0.464759
C94	C	0.890692	-0.214808	0.714759
C95	C	1.140692	0.035192	0.964759
C96	C	1.390692	0.285192	1.214759
C97	C	0.486976	-0.464818	0.464777
C98	C	0.736976	-0.214818	0.714777
C99	C	0.986976	0.035182	0.964777
C100	C	1.236976	0.285182	1.214777
C101	C	0.403642	-0.464821	0.464790
C102	C	0.653642	-0.214821	0.714790
C103	C	0.903642	0.035179	0.964790
C104	C	1.153642	0.285179	1.214790
C105	C	0.724031	-0.464804	0.464748
C106	C	0.974031	-0.214804	0.714748
C107	C	1.224031	0.035196	0.964748
C108	C	1.474031	0.285196	1.214748
C109	C	1.063407	-0.715415	0.464728
C110	C	1.313407	-0.465415	0.714728
C111	C	1.563407	-0.215415	0.964728
C112	C	1.813407	0.034585	1.214728
C113	C	1.063451	-0.822629	0.464748
C114	C	1.313451	-0.572629	0.714748
C115	C	1.563451	-0.322629	0.964748
C116	C	1.813451	-0.072629	1.214748
C117	C	1.063528	-1.018924	0.464809
C118	C	1.313528	-0.768924	0.714809
C119	C	1.563528	-0.518924	0.964809
C120	C	1.813528	-0.268924	1.214809
C121	C	1.063483	-0.909692	0.464778
C122	C	1.313483	-0.659692	0.714778
C123	C	1.563483	-0.409692	0.964778
C124	C	1.813483	-0.159692	1.214778
C125	C	1.255413	-0.464818	0.464784
C126	C	1.505413	-0.214818	0.714784
C127	C	1.755413	0.035182	0.964784
C128	C	2.005413	0.285182	1.214784
C129	C	1.337212	-0.464826	0.464796
C130	C	1.587212	-0.214826	0.714796
C131	C	1.837212	0.035174	0.964796
C132	C	2.087212	0.285174	1.214796
C133	C	1.063456	-0.464809	0.716349
C134	C	1.313456	-0.214809	0.966349
C135	C	1.563456	0.035191	1.216349
C136	C	1.813456	0.285191	1.466349
C137	C	1.063454	-0.464813	0.823563
C138	C	1.313454	-0.214813	1.073563
C139	C	1.563454	0.035187	1.323563
C140	C	1.813454	0.285187	1.573563
C141	C	1.063535	-0.213208	0.464805
C142	C	1.313535	0.036792	0.714805
C143	C	1.563535	0.286792	0.964805
C144	C	1.813535	0.536792	1.214805
C145	C	1.063566	-0.105994	0.464826
C146	C	1.313566	0.144006	0.714826
C147	C	1.563566	0.394006	0.964826
C148	C	1.813566	0.644006	1.214826
C149	C	1.063452	-0.464817	0.910633
C150	C	1.313452	-0.214817	1.160633
C151	C	1.563452	0.035183	1.410633
C152	C	1.813452	0.285183	1.660633
C153	C	1.063452	-0.464812	1.019865
C154	C	1.313452	-0.214812	1.269865
C155	C	1.563452	0.035188	1.519865
C156	C	1.813452	0.285188	1.769865
C157	C	1.063458	-0.464812	1.214142
C158	C	1.313458	-0.214812	1.464142
C159	C	1.563458	0.035188	1.714142
C160	C	1.813458	0.285188	1.964142
C161	C	1.063455	-0.464803	1.106928
C162	C	1.313455	-0.214803	1.356928
C163	C	1.563455	0.035197	1.606928
C164	C	1.813455	0.285197	1.856928
H165	H	0.633560	-0.352700	0.353033
H166	H	0.883560	-0.102700	0.603033
H167	H	1.133560	0.147300	0.853033
H168	H	1.383560	0.397300	1.103033
N169	N	0.643703	-0.593226	0.592764
N170	N	0.893703	-0.343226	0.842764
N171	N	1.143703	-0.093226	1.092764
N172	N	1.393703	0.156774	1.342764
H173	H	0.698223	-0.583851	0.583415
H174	H	0.948223	-0.333851	0.833415
H175	H	1.198223	-0.083851	1.083415
H176	H	1.448223	0.166149	1.333415
H177	H	0.630251	-0.662093	0.577634
H178	H	0.880251	-0.412093	0.827634
H179	H	1.130251	-0.162093	1.077634
H180	H	1.380251	0.087907	1.327634
N181	N	0.483951	-0.593242	0.592771
N182	N	0.733951	-0.343242	0.842771
N183	N	0.983951	-0.093242	1.092771
N184	N	1.233951	0.156758	1.342771
H185	H	0.497339	-0.578375	0.661716
H186	H	0.747339	-0.328375	0.911716
H187	H	0.997339	-0.078375	1.161716
H188	H	1.247339	0.171625	1.411716
H189	H	0.497329	-0.662108	0.577580
H190	H	0.747329	-0.412108	0.827580
H191	H	0.997329	-0.162108	1.077580
H192	H	1.247329	0.087892	1.327580
N193	N	0.483970	-0.336410	0.336753
N194	N	0.733970	-0.086410	0.586753
N195	N	0.983970	0.163590	0.836753
N196	N	1.233970	0.413590	1.086753
H197	H	0.429449	-0.345799	0.346091
H198	H	0.679449	-0.095799	0.596091
H199	H	0.929449	0.154201	0.846091
H200	H	1.179449	0.404201	1.096091
H201	H	0.497405	-0.351340	0.267846
H202	H	0.747405	-0.101340	0.517846
H203	H	0.997405	0.148660	0.767846
H204	H	1.247405	0.398660	1.017846
