data_functionalizedCrystal
_audit_creation_method	'MofGen! by Chris Wilmer'
_symmetry_space_group_name_H-M	'P1'
_symmetry_Int_Tables_number	1
_symmetry_cell_setting	triclinic
loop_
_symmetry_equiv_pos_as_xyz
  x,y,z
_cell_length_a	16.120484
_cell_length_b	17.077404
_cell_length_c	17.077396
_cell_angle_alpha	90.019016
_cell_angle_beta	92.867021
_cell_angle_gamma	87.075241
loop_
_atom_site_label
_atom_site_type_symbol
_atom_site_fract_x
_atom_site_fract_y
_atom_site_fract_z
Zn1	Zn	-0.331913	-1.184174	-0.459714
Zn2	Zn	-0.471341	-1.177424	-0.335098
Zn3	Zn	-0.331944	-1.052910	-0.328459
Zn4	Zn	-0.471285	-1.046214	-0.466314
O5	O	-0.401621	-1.115180	-0.397396
O6	O	-0.350420	-1.293125	-0.443199
O7	O	-0.452886	-1.160884	-0.224372
O8	O	-0.215274	-1.075950	-0.340329
O9	O	-0.452856	-1.288166	-0.351645
O10	O	-0.215252	-1.172389	-0.436762
O11	O	-0.350471	-1.069405	-0.219494
O12	O	-0.350417	-0.942175	-0.346729
O13	O	-0.452761	-1.064537	-0.575284
O14	O	-0.452790	-0.937256	-0.448011
O15	O	-0.350365	-1.165896	-0.570435
O16	O	-0.587999	-1.154391	-0.358045
O17	O	-0.587958	-1.057991	-0.454449
C18	C	-0.401601	-0.911234	-0.397367
C19	C	-0.401613	-0.823983	-0.397374
C20	C	-0.618228	-1.104753	-0.407700
C21	C	-0.710894	-1.100364	-0.412135
C22	C	-0.454999	-0.780448	-0.450033
C23	C	-0.454999	-0.698468	-0.450043
C24	C	-0.401617	-0.660024	-0.397389
C25	C	-0.348226	-0.703565	-0.344727
C26	C	-0.348222	-0.785544	-0.344722
C27	C	-0.348239	-0.532694	-0.344741
C28	C	-0.348243	-0.450709	-0.344745
C29	C	-0.455015	-0.445618	-0.450062
C30	C	-0.455011	-0.527597	-0.450056
C31	C	-0.401621	-0.571132	-0.397393
C32	C	-0.880555	-1.092356	-0.420247
C33	C	-0.921846	-1.138146	-0.374558
C34	C	-1.016251	-1.133690	-0.379072
C35	C	-0.786142	-1.096811	-0.415734
C36	C	-0.184167	-1.125670	-0.387069
C37	C	-0.091501	-1.130139	-0.382668
C38	C	-0.401553	-1.115222	-0.602137
C39	C	-0.401524	-1.115240	-0.689386
C40	C	-0.401636	-0.319924	-0.397417
C41	C	-0.401629	-0.407174	-0.397404
C42	C	-0.454755	-1.162950	-1.067738
C43	C	-0.454779	-1.162929	-0.985759
C44	C	-0.401466	-1.115294	-0.942232
C45	C	-0.348130	-1.067671	-0.980689
C46	C	-0.348111	-1.067688	-1.062667
C47	C	-0.348174	-1.067639	-0.809821
C48	C	-0.348192	-1.067623	-0.727837
C49	C	-0.454841	-1.162880	-0.732912
C50	C	-0.454822	-1.162897	-0.814890
C51	C	-0.401485	-1.115275	-0.853342
C52	C	-0.401628	-1.115187	-0.193449
C53	C	-0.401422	-1.115332	-0.106189
H54	H	-0.498471	-0.811743	-0.492907
H55	H	-0.498471	-0.663025	-0.492922
C56	C	-0.927801	-1.035598	-0.476996
C57	C	-0.871156	-0.994235	-0.518277
C58	C	-0.914659	-0.941950	-0.570565
H59	H	-0.961831	-0.999775	-0.448612
H60	H	-0.961698	-1.064018	-0.512858
H61	H	-0.837273	-0.965817	-0.482420
H62	H	-0.837125	-1.030037	-0.546676
H63	H	-0.948556	-0.970370	-0.606427
H64	H	-0.948687	-0.906132	-0.542175
H65	H	-0.876232	-0.913884	-0.598586
H66	H	-0.304758	-0.672257	-0.301858
C67	C	-0.874299	-1.194795	-0.317896
C68	C	-0.788758	-1.187986	-0.324603
C69	C	-0.744929	-1.240145	-0.272410
H70	H	-0.888356	-1.246914	-0.330035
H71	H	-0.888528	-1.182666	-0.265795
H72	H	-0.774535	-1.200120	-0.376692
H73	H	-0.774676	-1.135878	-0.312457
H74	H	-0.759158	-1.228016	-0.220310
H75	H	-0.758993	-1.292261	-0.284554
H76	H	-0.686885	-1.235527	-0.276949
C77	C	-0.290171	-0.580006	-0.287686
C78	C	-0.236773	-0.629643	-0.329665
C79	C	-0.183268	-0.673230	-0.277131
H80	H	-0.321921	-0.610508	-0.254928
H81	H	-0.258334	-0.545395	-0.256338
H82	H	-0.268606	-0.664251	-0.360999
H83	H	-0.205004	-0.599162	-0.362421
H84	H	-0.151431	-0.638619	-0.245783
H85	H	-0.215025	-0.703727	-0.244376
H86	H	-0.147026	-0.706908	-0.305606
C87	C	-0.512730	-1.214695	-1.114854
C88	C	-0.559458	-1.256376	-1.063630
C89	C	-0.612884	-1.304043	-1.107003
H90	H	-0.480930	-1.250510	-1.145334
H91	H	-0.549088	-1.182936	-1.148537
H92	H	-0.523104	-1.288133	-1.029961
H93	H	-0.591274	-1.220581	-1.033149
H94	H	-0.649243	-1.272283	-1.140686
H95	H	-0.581078	-1.339853	-1.137481
H96	H	-0.644601	-1.332323	-1.072255
H97	H	-0.304741	-1.028860	-0.841126
C98	C	-0.512786	-1.214498	-0.943979
C99	C	-0.566249	-1.167466	-0.899461
C100	C	-0.619707	-1.214945	-0.860974
H101	H	-0.481004	-1.250243	-0.910431
H102	H	-0.544577	-1.242855	-0.981623
H103	H	-0.534461	-1.139122	-0.861821
H104	H	-0.598049	-1.131723	-0.932991
H105	H	-0.651499	-1.243303	-0.898618
H106	H	-0.587919	-1.250688	-0.827430
H107	H	-0.655993	-1.183041	-0.830770
H108	H	-0.304746	-0.820990	-0.301845
H109	H	-0.304777	-1.028836	-0.692400
C110	C	-0.290328	-0.409051	-0.287472
C111	C	-0.308336	-0.428089	-0.210623
C112	C	-0.254993	-0.389729	-0.157849
H113	H	-0.297938	-0.353985	-0.294922
H114	H	-0.234313	-0.425194	-0.296345
H115	H	-0.364337	-0.411942	-0.201753
H116	H	-0.300721	-0.483148	-0.203147
H117	H	-0.198978	-0.405872	-0.166722
H118	H	-0.262607	-0.334666	-0.165306
H119	H	-0.267199	-0.402647	-0.105701
H120	H	-0.498484	-0.558895	-0.492928
H121	H	-0.498230	-1.201690	-0.850328
C122	C	-0.512724	-1.214497	-0.691027
C123	C	-0.501353	-1.204269	-0.609919
C124	C	-0.554662	-1.251798	-0.571305
H125	H	-0.500578	-1.267860	-0.703796
H126	H	-0.568752	-1.200300	-0.707075
H127	H	-0.445337	-1.218471	-0.593876
H128	H	-0.513504	-1.150917	-0.597126
H129	H	-0.610691	-1.237601	-0.587354
H130	H	-0.542512	-1.305158	-0.584081
H131	H	-0.546960	-1.244860	-0.516270
C132	C	-0.290383	-1.015900	-0.933339
C133	C	-0.337591	-0.963314	-0.888489
C134	C	-0.284419	-0.915619	-0.844853
H135	H	-0.258597	-0.987467	-0.967890
H136	H	-0.254082	-1.047654	-0.899598
H137	H	-0.373876	-0.931563	-0.922226
H138	H	-0.369374	-0.991726	-0.853923
H139	H	-0.248119	-0.947373	-0.811112
H140	H	-0.252636	-0.887191	-0.879409
H141	H	-0.316441	-0.879939	-0.814412
H142	H	-0.498485	-0.410167	-0.492944
H143	H	-0.304681	-1.028914	-1.093973
