data_functionalizedCrystal
_audit_creation_method	'MofGen! by Chris Wilmer'
_symmetry_space_group_name_H-M	'P1'
_symmetry_Int_Tables_number	1
_symmetry_cell_setting	triclinic
loop_
_symmetry_equiv_pos_as_xyz
  x,y,z
_cell_length_a	12.759401
_cell_length_b	18.050589
_cell_length_c	12.759401
_cell_angle_alpha	90.008602
_cell_angle_beta	90.003120
_cell_angle_gamma	90.028382
loop_
_atom_site_label
_atom_site_type_symbol
_atom_site_fract_x
_atom_site_fract_y
_atom_site_fract_z
Zn1	Zn	1.605997	-0.295774	0.593988
Zn2	Zn	2.105997	0.204226	1.093988
Zn3	Zn	1.605897	-0.419936	0.418311
Zn4	Zn	2.105897	0.080064	0.918311
Zn5	Zn	1.430346	-0.295765	0.418327
Zn6	Zn	1.930346	0.204235	0.918327
Zn7	Zn	1.430246	-0.419927	0.593952
Zn8	Zn	1.930246	0.080073	1.093952
O9	O	1.518122	-0.357851	0.506145
O10	O	2.018122	0.142149	1.006145
O11	O	1.753005	-0.312252	0.570692
O12	O	2.253005	0.187748	1.070692
O13	O	1.582610	-0.403465	0.271292
O14	O	2.082610	0.096535	0.771292
O15	O	1.453730	-0.191842	0.441651
O16	O	1.953730	0.308158	0.941651
O17	O	1.752931	-0.403474	0.441623
O18	O	2.252931	0.096526	0.941623
O19	O	1.582780	-0.191848	0.570708
O20	O	2.082780	0.308152	1.070708
O21	O	1.453634	-0.312237	0.271304
O22	O	1.953634	0.187763	0.771304
O23	O	1.283312	-0.312228	0.441616
O24	O	1.783312	0.187772	0.941616
O25	O	1.453560	-0.403457	0.740978
O26	O	1.953560	0.096543	1.240978
O27	O	1.283239	-0.403449	0.570647
O28	O	1.783239	0.096551	1.070647
O29	O	1.582683	-0.312243	0.741004
O30	O	2.082683	0.187757	1.241004
O31	O	1.582513	-0.523860	0.441588
O32	O	2.082513	-0.023860	0.941588
O33	O	1.453463	-0.523853	0.570631
O34	O	1.953463	-0.023853	1.070631
C35	C	1.245154	-0.357837	0.506130
C36	C	1.745154	0.142163	1.006130
C37	C	1.128378	-0.357849	0.506149
C38	C	1.628378	0.142151	1.006149
C39	C	1.073505	-0.405424	0.573224
C40	C	1.573505	0.094576	1.073224
C41	C	0.963781	-0.405433	0.573236
C42	C	1.463781	0.094567	1.073236
C43	C	0.963812	-0.310291	0.439088
C44	C	1.463812	0.189709	0.939088
C45	C	1.073534	-0.310278	0.439082
C46	C	1.573534	0.189722	0.939082
C47	C	1.128349	-0.452994	0.640291
C48	C	1.628349	0.047006	1.140291
C49	C	1.073476	-0.500574	0.707371
C50	C	1.573476	-0.000574	1.207371
C51	C	0.963752	-0.500583	0.707382
C52	C	1.463752	-0.000583	1.207382
C53	C	0.908901	-0.453013	0.640314
C54	C	1.408901	0.046987	1.140314
C55	C	1.517995	-0.550803	0.506127
C56	C	2.017995	-0.050803	1.006127
C57	C	1.518037	-0.633348	0.506155
C58	C	2.018037	-0.133348	1.006155
C59	C	1.447928	-0.832822	0.576304
C60	C	1.947928	-0.332822	1.076304
C61	C	1.422340	-0.882245	0.480436
C62	C	1.922340	-0.382245	0.980436
C63	C	1.518140	-0.784479	0.506168
C64	C	2.018140	-0.284479	1.006168
C65	C	1.543780	-0.882138	0.602048
C66	C	2.043780	-0.382138	1.102048
C67	C	1.518238	-0.930464	0.506190
C68	C	2.018238	-0.430464	1.006190
C69	C	1.492501	-0.832814	0.410249
C70	C	1.992501	-0.332814	0.910249
C71	C	1.613986	-0.832703	0.531926
C72	C	2.113986	-0.332703	1.031926
C73	C	1.588434	-0.882103	0.435992
C74	C	2.088434	-0.382103	0.935992
C75	C	1.518081	-0.700381	0.506157
C76	C	2.018081	-0.200381	1.006157
C77	C	1.518297	-1.014560	0.506190
C78	C	2.018297	-0.514560	1.006190
C79	C	1.792155	-0.357865	0.506159
C80	C	2.292155	0.142135	1.006159
C81	C	1.908932	-0.357871	0.506166
C82	C	2.408932	0.142129	1.006166
C83	C	1.518122	-0.357850	0.780178
C84	C	2.018122	0.142150	1.280178
C85	C	1.518122	-0.357850	0.896954
C86	C	2.018122	0.142150	1.396954
C87	C	1.518278	-0.164145	0.506185
C88	C	2.018278	0.335855	1.006185
C89	C	1.518344	-0.081599	0.506202
C90	C	2.018344	0.418401	1.006202
C91	C	1.585351	-0.310365	0.951832
C92	C	2.085351	0.189635	1.451832
C93	C	1.585346	-0.310368	1.061556
C94	C	2.085346	0.189632	1.561556
C95	C	1.450881	-0.405347	1.061516
C96	C	1.950881	0.094653	1.561516
C97	C	1.450881	-0.405340	0.951793
C98	C	1.950881	0.094660	1.451793
C99	C	1.652592	-0.262875	0.896993
C100	C	2.152592	0.237125	1.396993
C101	C	1.719827	-0.215386	0.951870
C102	C	2.219827	0.284614	1.451870
C103	C	1.719823	-0.215389	1.061594
C104	C	2.219823	0.284611	1.561594
C105	C	1.652583	-0.262881	1.116441
C106	C	2.152583	0.237119	1.616441
C107	C	1.518115	-0.357866	1.233177
C108	C	2.018115	0.142134	1.733177
C109	C	1.518117	-0.357860	1.116401
C110	C	2.018117	0.142140	1.616401
H111	H	0.819556	-0.453018	0.640338
H112	H	1.319556	0.046982	1.140338
H113	H	1.647851	-0.903606	0.376622
H114	H	2.147851	-0.403606	0.876622
C115	C	1.723393	-0.803278	0.561386
C116	C	2.223393	-0.303278	1.061386
H117	H	1.750304	-0.774320	0.505334
H118	H	2.250304	-0.274320	1.005334
H119	H	1.718312	-0.773566	0.622629
H120	H	2.218312	-0.273566	1.122629
H121	H	1.769068	-0.843800	0.574359
H122	H	2.269068	-0.343800	1.074359
H123	H	1.565428	-0.903803	0.683123
H124	H	2.065428	-0.403803	1.183123
H125	H	1.652605	-0.262868	0.807650
H126	H	2.152605	0.237132	1.307650
H127	H	1.396121	-0.443995	0.907111
H128	H	1.896121	0.056005	1.407111
H129	H	1.774565	-0.176716	0.907207
H130	H	2.274565	0.323284	1.407207
H131	H	1.217691	-0.452993	0.640287
H132	H	1.717691	0.047007	1.140287
C133	C	1.133903	-0.257950	0.365302
C134	C	1.633903	0.242050	0.865302
H135	H	1.207104	-0.264751	0.374914
H136	H	1.707104	0.235249	0.874914
H137	H	1.115913	-0.268738	0.294684
H138	H	1.615913	0.231262	0.794684
H139	H	1.115947	-0.208068	0.380809
H140	H	1.615947	0.291932	0.880809
H141	H	1.118143	-0.539299	0.761982
H142	H	1.618143	-0.039299	1.261982
H143	H	1.388465	-0.811182	0.635531
H144	H	1.888465	-0.311182	1.135531
H145	H	0.919077	-0.539319	0.762009
H146	H	1.419077	-0.039319	1.262009
H147	H	1.774561	-0.176717	1.106272
H148	H	2.274561	0.323283	1.606272
C149	C	0.903478	-0.257974	0.365313
C150	C	1.403478	0.242026	0.865313
H151	H	0.830273	-0.264800	0.374917
H152	H	1.330273	0.235200	0.874917
H153	H	0.921483	-0.208090	0.380806
H154	H	1.421483	0.291910	0.880806
H155	H	0.921448	-0.268768	0.294692
H156	H	1.421448	0.231232	0.794692
C157	C	1.312905	-0.911646	0.451008
C158	C	1.812905	-0.411646	0.951008
H159	H	1.263062	-0.894778	0.500899
H160	H	1.763062	-0.394778	1.000899
H161	H	1.294241	-0.894033	0.383386
H162	H	1.794241	-0.394033	0.883386
H163	H	1.313893	-0.964270	0.450607
H164	H	1.813893	-0.464270	0.950607
H165	H	1.470760	-0.811238	0.329152
H166	H	1.970760	-0.311238	0.829152
C167	C	1.652580	-0.262884	1.237135
C168	C	2.152580	0.237116	1.737135
H169	H	1.702254	-0.227804	1.261965
H170	H	2.202254	0.272196	1.761965
H171	H	1.584793	-0.250041	1.261960
H172	H	2.084793	0.249959	1.761960
H173	H	1.670717	-0.310815	1.261938
H174	H	2.170717	0.189185	1.761938
C175	C	1.376936	-0.457590	1.121844
C176	C	1.876936	0.042410	1.621844
H177	H	1.386573	-0.450799	1.195050
H178	H	1.886573	0.049201	1.695050
H179	H	1.306352	-0.446721	1.103867
H180	H	1.806352	0.053279	1.603867
H181	H	1.392282	-0.507490	1.103844
H182	H	1.892282	-0.007490	1.603844
