data_functionalizedCrystal
_audit_creation_method	'MofGen! by Chris Wilmer'
_symmetry_space_group_name_H-M	'P1'
_symmetry_Int_Tables_number	1
_symmetry_cell_setting	triclinic
loop_
_symmetry_equiv_pos_as_xyz
  x,y,z
_cell_length_a	15.186229
_cell_length_b	16.109301
_cell_length_c	16.109301
_cell_angle_alpha	83.461481
_cell_angle_beta	89.994833
_cell_angle_gamma	89.999362
loop_
_atom_site_label
_atom_site_type_symbol
_atom_site_fract_x
_atom_site_fract_y
_atom_site_fract_z
O1	O	0.073176	-1.103131	-0.106866
O2	O	0.323176	-0.853131	0.143134
O3	O	0.573176	-0.603131	0.393134
O4	O	0.823176	-0.353131	0.643134
O5	O	0.073190	-0.861069	-0.120165
O6	O	0.323190	-0.611069	0.129835
O7	O	0.573190	-0.361069	0.379835
O8	O	0.823190	-0.111069	0.629835
O9	O	0.073174	-0.988749	0.007515
O10	O	0.323174	-0.738749	0.257515
O11	O	0.573174	-0.488749	0.507515
O12	O	0.823174	-0.238749	0.757515
O13	O	0.073192	-0.975450	-0.234547
O14	O	0.323192	-0.725450	0.015453
O15	O	0.573192	-0.475450	0.265453
O16	O	0.823192	-0.225450	0.515453
O17	O	-0.073284	-0.988741	0.007517
O18	O	0.176716	-0.738741	0.257517
O19	O	0.426716	-0.488741	0.507517
O20	O	0.676716	-0.238741	0.757517
O21	O	-0.073267	-0.861060	-0.120164
O22	O	0.176733	-0.611060	0.129836
O23	O	0.426733	-0.361060	0.379836
O24	O	0.676733	-0.111060	0.629836
O25	O	-0.073282	-1.103122	-0.106864
O26	O	0.176718	-0.853122	0.143136
O27	O	0.426718	-0.603122	0.393136
O28	O	0.676718	-0.353122	0.643136
Zn29	Zn	-0.096528	-0.982090	-0.113514
Zn30	Zn	0.153472	-0.732090	0.136486
Zn31	Zn	0.403472	-0.482090	0.386486
Zn32	Zn	0.653472	-0.232090	0.636486
Zn33	Zn	0.096436	-0.982101	-0.113516
Zn34	Zn	0.346436	-0.732101	0.136484
Zn35	Zn	0.596436	-0.482101	0.386484
Zn36	Zn	0.846436	-0.232101	0.636484
O37	O	-0.073265	-0.975441	-0.234545
O38	O	0.176735	-0.725441	0.015455
O39	O	0.426735	-0.475441	0.265455
O40	O	0.676735	-0.225441	0.515455
C41	C	-0.000037	-0.830090	-0.119626
C42	C	0.249963	-0.580090	0.130374
C43	C	0.499963	-0.330090	0.380374
C44	C	0.749963	-0.080090	0.630374
C45	C	-0.000032	-0.737794	-0.118011
C46	C	0.249968	-0.487794	0.131989
C47	C	0.499968	-0.237794	0.381989
C48	C	0.749968	0.012206	0.631989
N49	N	-0.228220	-0.982088	-0.113511
N50	N	0.021780	-0.732088	0.136489
N51	N	0.271780	-0.482088	0.386489
N52	N	0.521780	-0.232088	0.636489
C53	C	-0.000056	-0.988206	0.038491
C54	C	0.249944	-0.738206	0.288491
C55	C	0.499944	-0.488206	0.538491
C56	C	0.749944	-0.238206	0.788491
C57	C	-0.000057	-0.986591	0.130786
C58	C	0.249943	-0.736591	0.380786
C59	C	0.499943	-0.486591	0.630786
C60	C	0.749943	-0.236591	0.880786
C61	C	-0.453950	-1.038644	-0.056994
C62	C	-0.203950	-0.788644	0.193006
C63	C	0.046050	-0.538644	0.443006
C64	C	0.296050	-0.288644	0.693006
C65	C	-0.546140	-1.038647	-0.056992
C66	C	-0.296140	-0.788647	0.193008
C67	C	-0.046140	-0.538647	0.443008
C68	C	0.203860	-0.288647	0.693008
C69	C	-0.546135	-0.925547	-0.170032
C70	C	-0.296135	-0.675547	0.079968
C71	C	-0.046135	-0.425547	0.329968
C72	C	0.203865	-0.175547	0.579968
C73	C	-0.453947	-0.925541	-0.170030
C74	C	-0.203947	-0.675541	0.079970
C75	C	0.046053	-0.425541	0.329970
C76	C	0.296053	-0.175541	0.579970
C77	C	-0.407857	-0.982094	-0.113511
C78	C	-0.157857	-0.732094	0.136489
C79	C	0.092143	-0.482094	0.386489
C80	C	0.342143	-0.232094	0.636489
C81	C	-0.592235	-0.982103	-0.113512
C82	C	-0.342235	-0.732103	0.136488
C83	C	-0.092235	-0.482103	0.386488
C84	C	0.157765	-0.232103	0.636488
C85	C	-0.692191	-0.982105	-0.113510
C86	C	-0.442191	-0.732105	0.136490
C87	C	-0.192191	-0.482105	0.386490
C88	C	0.057809	-0.232105	0.636490
C89	C	-0.307894	-0.982091	-0.113512
C90	C	-0.057894	-0.732091	0.136488
C91	C	0.192106	-0.482091	0.386488
C92	C	0.442106	-0.232091	0.636488
N93	N	0.228129	-0.982109	-0.113512
N94	N	0.478129	-0.732109	0.136488
N95	N	0.728129	-0.482109	0.386488
N96	N	0.978129	-0.232109	0.636488
C97	C	-0.000053	-1.134101	-0.107404
C98	C	0.249947	-0.884101	0.142596
C99	C	0.499947	-0.634101	0.392596
C100	C	0.749947	-0.384101	0.642596
C101	C	-0.000052	-1.226397	-0.109019
C102	C	0.249948	-0.976397	0.140981
C103	C	0.499948	-0.726397	0.390981
C104	C	0.749948	-0.476397	0.640981
C105	C	-0.000036	-0.515522	-0.190018
C106	C	0.249964	-0.265522	0.059982
C107	C	0.499964	-0.015522	0.309982
C108	C	0.749964	0.234478	0.559982
C109	C	-0.000042	-0.428801	-0.188494
C110	C	0.249958	-0.178801	0.061506
C111	C	0.499958	0.071199	0.311506
C112	C	0.749958	0.321199	0.561506
C113	C	-0.000050	-0.448676	-0.037006
C114	C	0.249950	-0.198676	0.212994
C115	C	0.499950	0.051324	0.462994
C116	C	0.749950	0.301324	0.712994
C117	C	-0.000051	-0.535394	-0.038530
C118	C	0.249949	-0.285394	0.211470
C119	C	0.499949	-0.035394	0.461470
C120	C	0.749949	0.214606	0.711470
C121	C	-0.000039	-0.568815	-0.115039
C122	C	0.249961	-0.318815	0.134961
C123	C	0.499961	-0.068815	0.384961
C124	C	0.749961	0.181185	0.634961
C125	C	-0.000045	-0.395376	-0.111990
C126	C	0.249955	-0.145376	0.138010
C127	C	0.499955	0.104624	0.388010
C128	C	0.749955	0.354624	0.638010
C129	C	-0.000051	-0.301350	-0.110337
C130	C	0.249949	-0.051350	0.139663
C131	C	0.499949	0.198650	0.389663
C132	C	0.749949	0.448650	0.639663
C133	C	-0.000035	-0.662847	-0.116693
C134	C	0.249965	-0.412847	0.133307
C135	C	0.499965	-0.162847	0.383307
C136	C	0.749965	0.087153	0.633307
C137	C	-0.000034	-0.975984	-0.265521
C138	C	0.249966	-0.725984	-0.015521
C139	C	0.499966	-0.475984	0.234479
C140	C	0.749966	-0.225984	0.484479
C141	C	-0.000027	-0.977600	-0.357816
C142	C	0.249973	-0.727600	-0.107816
C143	C	0.499973	-0.477600	0.142184
C144	C	0.749973	-0.227600	0.392184
C145	C	-0.000047	-1.058599	0.353059
C146	C	0.249953	-0.808599	0.603059
C147	C	0.499953	-0.558599	0.853059
C148	C	0.749953	-0.308599	1.103059
C149	C	-0.000040	-1.057075	0.439779
C150	C	0.249960	-0.807075	0.689779
C151	C	0.499960	-0.557075	0.939779
C152	C	0.749960	-0.307075	1.189779
C153	C	-0.000034	-0.905586	0.419905
C154	C	0.249966	-0.655586	0.669905
C155	C	0.499966	-0.405586	0.919905
C156	C	0.749966	-0.155586	1.169905
C157	C	-0.000035	-0.907111	0.333186
C158	C	0.249965	-0.657111	0.583186
C159	C	0.499965	-0.407111	0.833186
C160	C	0.749965	-0.157111	1.083186
C161	C	-0.000046	-0.983620	0.299766
C162	C	0.249954	-0.733620	0.549766
C163	C	0.499954	-0.483620	0.799766
C164	C	0.749954	-0.233620	1.049766
C165	C	-0.000038	-0.980571	0.473205
C166	C	0.249962	-0.730571	0.723205
C167	C	0.499962	-0.480571	0.973205
C168	C	0.749962	-0.230571	1.223205
C169	C	-0.000030	-0.978918	0.567231
C170	C	0.249970	-0.728918	0.817231
C171	C	0.499970	-0.478918	1.067231
C172	C	0.749970	-0.228918	1.317231
C173	C	-0.000052	-0.985273	0.205734
C174	C	0.249948	-0.735273	0.455734
C175	C	0.499948	-0.485273	0.705734
C176	C	0.749948	-0.235273	0.955734
H177	H	-0.416426	-1.084692	-0.010972
H178	H	-0.166426	-0.834692	0.239028
H179	H	0.083574	-0.584692	0.489028
H180	H	0.333574	-0.334692	0.739028
H181	H	-0.000054	-1.120897	0.325851
H182	H	0.249946	-0.870897	0.575851
H183	H	0.499946	-0.620897	0.825851
H184	H	0.749946	-0.370897	1.075851
O185	O	-0.404221	-0.864548	-0.230993
O186	O	-0.154221	-0.614548	0.019007
O187	O	0.095779	-0.364548	0.269007
O188	O	0.345779	-0.114548	0.519007
H189	H	-0.451756	-0.825233	-0.270303
H190	H	-0.201756	-0.575233	-0.020303
H191	H	0.048244	-0.325233	0.229697
H192	H	0.298244	-0.075233	0.479697
O193	O	-0.000042	-0.823071	0.455956
O194	O	0.249958	-0.573071	0.705956
O195	O	0.499958	-0.323071	0.955956
O196	O	0.749958	-0.073071	1.205956
H197	H	0.059644	-0.818752	0.494994
H198	H	0.309644	-0.568752	0.744994
H199	H	0.559644	-0.318752	0.994994
H200	H	0.809644	-0.068752	1.244994
H201	H	-0.000056	-0.578788	0.022530
H202	H	0.249944	-0.328788	0.272530
H203	H	0.499944	-0.078788	0.522530
H204	H	0.749944	0.171212	0.772530
H205	H	-0.000039	-1.118130	0.483168
H206	H	0.249961	-0.868130	0.733168
H207	H	0.499961	-0.618130	0.983168
H208	H	0.749961	-0.368130	1.233168
O209	O	-0.000031	-0.551571	-0.272535
O210	O	0.249969	-0.301571	-0.022535
O211	O	0.499969	-0.051571	0.227465
O212	O	0.749969	0.198429	0.477465
H213	H	-0.059722	-0.590610	-0.276844
H214	H	0.190278	-0.340610	-0.026844
H215	H	0.440278	-0.090610	0.223156
H216	H	0.690278	0.159390	0.473156
O217	O	-0.000045	-0.826234	0.275700
O218	O	0.249955	-0.576234	0.525700
O219	O	0.499955	-0.326234	0.775700
O220	O	0.749955	-0.076234	1.025700
H221	H	0.059644	-0.789616	0.287576
H222	H	0.309644	-0.539616	0.537576
H223	H	0.559644	-0.289616	0.787576
H224	H	0.809644	-0.039616	1.037576
O225	O	-0.595851	-1.099653	0.003959
O226	O	-0.345851	-0.849653	0.253959
O227	O	-0.095851	-0.599653	0.503959
O228	O	0.154149	-0.349653	0.753959
H229	H	-0.578159	-1.089091	0.068778
H230	H	-0.328159	-0.839091	0.318778
H231	H	-0.078159	-0.589091	0.568778
H232	H	0.171841	-0.339091	0.818778
O233	O	-0.595844	-0.864561	-0.231000
O234	O	-0.345844	-0.614561	0.019000
O235	O	-0.095844	-0.364561	0.269000
O236	O	0.154156	-0.114561	0.519000
H237	H	-0.667693	-0.874071	-0.221515
H238	H	-0.417693	-0.624071	0.028485
H239	H	-0.167693	-0.374071	0.278485
H240	H	0.082307	-0.124071	0.528485
O241	O	-0.000042	-0.371324	-0.269368
O242	O	0.249958	-0.121324	-0.019368
O243	O	0.499958	0.128676	0.230632
O244	O	0.749958	0.378676	0.480632
H245	H	-0.000055	-0.305407	-0.255458
H246	H	0.249945	-0.055407	-0.005458
H247	H	0.499945	0.194593	0.244542
H248	H	0.749945	0.444593	0.494542
H249	H	-0.000065	-0.421454	0.025285
H250	H	0.249935	-0.171454	0.275285
H251	H	0.499935	0.078546	0.525285
H252	H	0.749935	0.328546	0.775285
