data_functionalizedCrystal
_audit_creation_method	'MofGen! by Chris Wilmer'
_symmetry_space_group_name_H-M	'P1'
_symmetry_Int_Tables_number	1
_symmetry_cell_setting	triclinic
loop_
_symmetry_equiv_pos_as_xyz
  x,y,z
_cell_length_a	16.625547
_cell_length_b	16.120444
_cell_length_c	16.625539
_cell_angle_alpha	87.130642
_cell_angle_beta	90.024822
_cell_angle_gamma	92.926748
loop_
_atom_site_label
_atom_site_type_symbol
_atom_site_fract_x
_atom_site_fract_y
_atom_site_fract_z
Zn1	Zn	1.216381	-0.331909	0.472263
Zn2	Zn	1.466381	-0.081909	0.722263
Zn3	Zn	1.716381	0.168091	0.972263
Zn4	Zn	1.966381	0.418091	1.222263
Zn5	Zn	1.209437	-0.471333	0.344261
Zn6	Zn	1.459437	-0.221333	0.594261
Zn7	Zn	1.709437	0.028667	0.844261
Zn8	Zn	1.959437	0.278667	1.094261
Zn9	Zn	1.081541	-0.331938	0.337434
Zn10	Zn	1.331541	-0.081938	0.587434
Zn11	Zn	1.581541	0.168062	0.837434
Zn12	Zn	1.831541	0.418062	1.087434
Zn13	Zn	1.074669	-0.471283	0.479038
Zn14	Zn	1.324669	-0.221283	0.729038
Zn15	Zn	1.574669	0.028717	0.979038
Zn16	Zn	1.824669	0.278717	1.229038
O17	O	1.145507	-0.401616	0.408249
O18	O	1.395507	-0.151616	0.658249
O19	O	1.645507	0.098384	0.908249
O20	O	1.895507	0.348384	1.158249
O21	O	1.328292	-0.350413	0.455304
O22	O	1.578292	-0.100413	0.705304
O23	O	1.828292	0.149587	0.955304
O24	O	2.078292	0.399587	1.205304
O25	O	1.192442	-0.452876	0.230524
O26	O	1.442442	-0.202876	0.480524
O27	O	1.692442	0.047124	0.730524
O28	O	1.942442	0.297124	0.980524
O29	O	1.105210	-0.215267	0.349627
O30	O	1.355210	0.034733	0.599627
O31	O	1.605210	0.284733	0.849627
O32	O	1.855210	0.534733	1.099627
O33	O	1.323190	-0.452847	0.361262
O34	O	1.573190	-0.202847	0.611262
O35	O	1.823190	0.047153	0.861262
O36	O	2.073190	0.297153	1.111262
O37	O	1.204276	-0.215246	0.448685
O38	O	1.454276	0.034754	0.698685
O39	O	1.704276	0.284754	0.948685
O40	O	1.954276	0.534754	1.198685
O41	O	1.098477	-0.350462	0.225509
O42	O	1.348477	-0.100462	0.475509
O43	O	1.598477	0.149538	0.725509
O44	O	1.848477	0.399538	0.975509
O45	O	0.967798	-0.350413	0.356197
O46	O	1.217798	-0.100413	0.606197
O47	O	1.467798	0.149587	0.856197
O48	O	1.717798	0.399587	1.106197
O49	O	1.093497	-0.452761	0.590970
O50	O	1.343497	-0.202761	0.840970
O51	O	1.593497	0.047239	1.090970
O52	O	1.843497	0.297239	1.340970
O53	O	0.962748	-0.452789	0.460233
O54	O	1.212748	-0.202789	0.710233
O55	O	1.462748	0.047211	0.960233
O56	O	1.712748	0.297211	1.210233
O57	O	1.197612	-0.350364	0.585992
O58	O	1.447612	-0.100364	0.835992
O59	O	1.697612	0.149636	1.085992
O60	O	1.947612	0.399636	1.335992
O61	O	1.185778	-0.587993	0.367832
O62	O	1.435778	-0.337993	0.617832
O63	O	1.685778	-0.087993	0.867832
O64	O	1.935778	0.162007	1.117832
O65	O	1.086764	-0.587956	0.466852
O66	O	1.336764	-0.337956	0.716852
O67	O	1.586764	-0.087956	0.966852
O68	O	1.836764	0.162044	1.216852
C69	C	0.936017	-0.401599	0.408210
C70	C	1.186017	-0.151599	0.658210
C71	C	1.436017	0.098401	0.908210
C72	C	1.686017	0.348401	1.158210
C73	C	0.846395	-0.401613	0.408214
C74	C	1.096395	-0.151613	0.658214
C75	C	1.346395	0.098387	0.908214
C76	C	1.596395	0.348387	1.158214
C77	C	0.773613	-0.401614	0.408224
C78	C	1.023613	-0.151614	0.658224
C79	C	1.273613	0.098386	0.908224
C80	C	1.523613	0.348386	1.158224
C81	C	0.682304	-0.401619	0.408244
C82	C	0.932304	-0.151619	0.658244
C83	C	1.182304	0.098381	0.908244
C84	C	1.432304	0.348381	1.158244
C85	C	0.609527	-0.401626	0.408265
C86	C	0.859527	-0.151626	0.658265
C87	C	1.109527	0.098374	0.908265
C88	C	1.359527	0.348374	1.158265
C89	C	0.518213	-0.401632	0.408285
C90	C	0.768213	-0.151632	0.658285
C91	C	1.018213	0.098368	0.908285
C92	C	1.268213	0.348368	1.158285
C93	C	1.134793	-0.618225	0.418836
C94	C	1.384793	-0.368225	0.668836
C95	C	1.634793	-0.118225	0.918836
C96	C	1.884793	0.131775	1.168836
C97	C	1.130284	-0.710891	0.423391
C98	C	1.380284	-0.460891	0.673391
C99	C	1.630284	-0.210891	0.923391
C100	C	1.880284	0.039109	1.173391
C101	C	1.169098	-0.921832	0.384788
C102	C	1.419098	-0.671832	0.634788
C103	C	1.669098	-0.421832	0.884788
C104	C	1.919098	-0.171832	1.134788
C105	C	1.122065	-0.880548	0.431718
C106	C	1.372065	-0.630548	0.681718
C107	C	1.622065	-0.380548	0.931718
C108	C	1.872065	-0.130548	1.181718
C109	C	1.126640	-0.786142	0.427084
C110	C	1.376640	-0.536142	0.677084
C111	C	1.626640	-0.286142	0.927084
C112	C	1.876640	-0.036142	1.177084
C113	C	1.164525	-1.016247	0.389422
C114	C	1.414525	-0.766247	0.639422
C115	C	1.664525	-0.516247	0.889422
C116	C	1.914525	-0.266247	1.139422
C117	C	1.355815	-0.401632	0.408289
C118	C	1.605815	-0.151632	0.658289
C119	C	1.855815	0.098368	0.908289
C120	C	2.105815	0.348368	1.158289
C121	C	1.445436	-0.401640	0.408305
C122	C	1.695436	-0.151640	0.658305
C123	C	1.945436	0.098360	0.908305
C124	C	2.195436	0.348360	1.158305
C125	C	1.145563	-0.401554	0.618555
C126	C	1.395563	-0.151554	0.868555
C127	C	1.645563	0.098446	1.118555
C128	C	1.895563	0.348446	1.368555
C129	C	1.145586	-0.401527	0.708175
C130	C	1.395586	-0.151527	0.958175
C131	C	1.645586	0.098473	1.208175
C132	C	1.895586	0.348473	1.458175
C133	C	1.156285	-0.184161	0.397639
C134	C	1.406285	0.065839	0.647639
C135	C	1.656285	0.315839	0.897639
C136	C	1.906285	0.565839	1.147639
C137	C	1.160877	-0.091494	0.393117
C138	C	1.410877	0.158506	0.643117
C139	C	1.660877	0.408506	0.893117
C140	C	1.910877	0.658506	1.143117
C141	C	1.145501	-0.401617	0.198758
C142	C	1.395501	-0.151617	0.448758
C143	C	1.645501	0.098383	0.698758
C144	C	1.895501	0.348383	0.948758
C145	C	1.145645	-0.401409	0.109127
C146	C	1.395645	-0.151409	0.359127
C147	C	1.645645	0.098591	0.609127
C148	C	1.895645	0.348591	0.859127
C149	C	1.145628	-0.401434	1.036346
C150	C	1.395628	-0.151434	1.286346
C151	C	1.645628	0.098566	1.536346
C152	C	1.895628	0.348566	1.786346
C153	C	1.145614	-0.401462	0.945039
C154	C	1.395614	-0.151462	1.195039
C155	C	1.645614	0.098538	1.445039
C156	C	1.895614	0.348538	1.695039
C157	C	1.145607	-0.401481	0.872263
C158	C	1.395607	-0.151481	1.122263
C159	C	1.645607	0.098519	1.372263
C160	C	1.895607	0.348519	1.622263
C161	C	1.145593	-0.401508	0.780950
C162	C	1.395593	-0.151508	1.030950
C163	C	1.645593	0.098492	1.280950
C164	C	1.895593	0.348492	1.530950
H165	H	1.078364	-0.916104	0.475376
H166	H	1.328364	-0.666104	0.725376
H167	H	1.578364	-0.416104	0.975376
H168	H	1.828364	-0.166104	1.225376
C169	C	1.228130	-0.873805	0.325808
C170	C	1.478130	-0.623805	0.575808
C171	C	1.728130	-0.373805	0.825808
C172	C	1.978130	-0.123805	1.075808
C173	C	1.232673	-0.778033	0.321200
C174	C	1.482673	-0.528033	0.571200
C175	C	1.732673	-0.278033	0.821200
C176	C	1.982673	-0.028033	1.071200
C177	C	1.291702	-0.729994	0.262219
C178	C	1.541702	-0.479994	0.512219
C179	C	1.791702	-0.229994	0.762219
C180	C	2.041702	0.020006	1.012219
C181	C	1.346190	-0.777727	0.207847
C182	C	1.596190	-0.527727	0.457847
C183	C	1.846190	-0.277727	0.707847
C184	C	2.096190	-0.027727	0.957847
C185	C	1.341649	-0.873504	0.212453
C186	C	1.591649	-0.623504	0.462453
C187	C	1.841649	-0.373504	0.712453
C188	C	2.091649	-0.123504	0.962453
C189	C	1.282619	-0.921543	0.271434
C190	C	1.532619	-0.671543	0.521434
C191	C	1.782619	-0.421543	0.771434
C192	C	2.032619	-0.171543	1.021434
H193	H	1.192337	-0.742694	0.361451
H194	H	1.442337	-0.492694	0.611451
H195	H	1.692337	-0.242694	0.861451
H196	H	1.942337	0.007306	1.111451
H197	H	1.295063	-0.659094	0.258809
H198	H	1.545063	-0.409094	0.508809
H199	H	1.795063	-0.159094	0.758809
H200	H	2.045063	0.090906	1.008809
H201	H	1.389887	-0.742166	0.164186
H202	H	1.639887	-0.492166	0.414186
H203	H	1.889887	-0.242166	0.664186
H204	H	2.139887	0.007834	0.914186
H205	H	1.381985	-0.908843	0.172202
H206	H	1.631985	-0.658843	0.422202
H207	H	1.881985	-0.408843	0.672202
H208	H	2.131985	-0.158843	0.922202
H209	H	1.279258	-0.992443	0.274844
H210	H	1.529258	-0.742443	0.524844
H211	H	1.779258	-0.492443	0.774844
H212	H	2.029258	-0.242443	1.024844
