data_functionalizedCrystal
_audit_creation_method	'MofGen! by Chris Wilmer'
_symmetry_space_group_name_H-M	'P1'
_symmetry_Int_Tables_number	1
_symmetry_cell_setting	triclinic
loop_
_symmetry_equiv_pos_as_xyz
  x,y,z
_cell_length_a	19.805407
_cell_length_b	16.959453
_cell_length_c	19.805399
_cell_angle_alpha	89.973285
_cell_angle_beta	89.979591
_cell_angle_gamma	90.021928
loop_
_atom_site_label
_atom_site_type_symbol
_atom_site_fract_x
_atom_site_fract_y
_atom_site_fract_z
Zn1	Zn	1.034766	-0.314659	-0.382739
Zn2	Zn	1.034693	-0.446841	-0.269552
Zn3	Zn	0.921581	-0.314685	-0.269562
Zn4	Zn	0.921557	-0.446804	-0.382697
O5	O	0.978149	-0.380747	-0.326138
O6	O	1.129473	-0.332198	-0.367738
O7	O	1.019668	-0.429337	-0.174837
O8	O	0.936635	-0.204071	-0.284596
O9	O	1.129420	-0.429312	-0.284580
O10	O	1.019792	-0.204052	-0.367747
O11	O	0.936565	-0.332243	-0.174844
O12	O	0.826861	-0.332206	-0.284556
O13	O	0.936595	-0.429248	-0.477420
O14	O	0.826843	-0.429273	-0.367676
O15	O	1.019769	-0.332162	-0.477450
O16	O	1.019645	-0.557447	-0.284540
O17	O	0.936524	-0.557420	-0.367667
C18	C	0.802293	-0.380739	-0.326113
C19	C	0.727061	-0.380755	-0.326119
C20	C	0.265301	-0.330275	-0.369530
C21	C	0.335990	-0.330276	-0.369525
C22	C	0.371299	-0.380759	-0.326159
C23	C	0.335917	-0.431250	-0.282800
C24	C	0.265230	-0.431252	-0.282809
C25	C	0.620990	-0.431244	-0.282765
C26	C	0.691682	-0.431236	-0.282758
C27	C	0.691750	-0.330268	-0.369481
C28	C	0.621063	-0.330270	-0.369490
C29	C	0.585687	-0.380763	-0.326133
C30	C	0.509038	-0.380762	-0.326140
C31	C	0.447947	-0.380757	-0.326149
C32	C	0.978093	-0.586114	-0.326113
C33	C	0.978130	-0.673970	-0.326125
C34	C	1.021504	-1.045377	-0.369516
C35	C	0.934983	-1.045514	-0.282860
C36	C	0.934958	-0.962968	-0.282844
C37	C	0.978206	-0.921623	-0.326166
C38	C	1.021479	-0.962824	-0.369503
C39	C	0.891681	-0.921762	-0.239513
C40	C	0.891653	-0.839211	-0.239496
C41	C	0.934905	-0.797864	-0.282815
C42	C	0.978181	-0.839070	-0.326153
C43	C	1.021429	-0.797724	-0.369475
C44	C	1.064708	-0.838928	-0.412810
C45	C	1.064731	-0.921477	-0.412822
C46	C	0.934882	-0.715315	-0.282803
C47	C	1.021404	-0.715171	-0.369462
C48	C	1.154692	-0.380756	-0.326163
C49	C	1.229924	-0.380760	-0.326173
C50	C	0.978187	-0.380698	-0.502680
C51	C	0.978203	-0.380676	-0.577912
C52	C	0.978224	-0.174579	-0.326177
C53	C	0.978256	-0.086722	-0.326194
C54	C	1.021513	-0.330121	-0.613274
C55	C	1.021520	-0.330098	-0.683962
C56	C	0.978220	-0.380635	-0.719288
C57	C	0.934906	-0.431193	-0.683922
C58	C	0.934896	-0.431211	-0.613235
C59	C	0.934944	-0.431119	-0.968995
C60	C	0.934958	-0.431098	-1.039688
C61	C	1.021568	-0.330006	-1.039723
C62	C	1.021558	-0.330024	-0.969035
C63	C	0.978241	-0.380579	-0.933676
C64	C	0.978234	-0.380602	-0.857027
C65	C	0.978231	-0.380616	-0.795935
C66	C	0.978150	-0.380740	-0.150282
C67	C	0.978265	-0.380538	-0.075050
H68	H	0.364672	-0.472357	-0.247494
N69	N	0.374157	-0.275812	-0.416271
H70	H	0.403494	-0.307972	-0.447589
H71	H	0.341027	-0.243830	-0.443697
H72	H	1.056743	-1.078929	-0.404797
H73	H	0.899770	-1.079183	-0.247592
H74	H	0.236426	-0.472364	-0.247505
N75	N	0.582987	-0.275810	-0.416259
H76	H	0.595307	-0.288157	-0.464600
H77	H	0.532850	-0.283490	-0.409630
H78	H	0.856469	-0.955431	-0.204245
H79	H	1.056789	-0.288933	-0.712750
H80	H	0.720562	-0.289156	-0.404785
N81	N	0.888182	-0.485744	-0.575100
H82	H	0.915667	-0.522384	-0.545768
H83	H	0.856830	-0.453571	-0.545813
H84	H	0.899682	-0.472295	-0.940214
H85	H	1.056836	-0.288839	-1.068521
H86	H	1.056820	-0.288875	-0.940276
H87	H	0.592195	-0.472356	-0.247459
N88	N	0.729769	-0.485687	-0.235981
H89	H	0.696633	-0.517676	-0.208517
H90	H	0.759103	-0.522302	-0.263476
H91	H	0.899647	-0.472338	-0.712690
N92	N	0.844980	-0.794772	-0.192755
H93	H	0.817588	-0.833491	-0.165313
H94	H	0.872545	-0.760527	-0.161453
H95	H	0.236557	-0.289161	-0.404840
N96	N	0.888245	-0.485593	-1.077797
H97	H	0.915739	-0.522220	-1.107125
H98	H	0.860806	-0.517568	-1.044633
N99	N	1.068054	-0.670579	-0.416185
H100	H	1.095472	-0.709209	-0.443637
H101	H	1.040473	-0.636331	-0.447479
N102	N	0.888205	-0.670873	-0.236074
H103	H	0.860808	-0.709591	-0.208635
H104	H	0.915762	-0.636624	-0.204769
N105	N	1.068220	-0.275618	-0.575174
H106	H	1.095657	-0.243587	-0.608304
H107	H	1.040679	-0.239044	-0.545846
H108	H	1.099966	-0.955033	-0.448104
N109	N	1.111346	-0.794325	-0.459538
H110	H	1.142713	-0.760063	-0.432055
H111	H	1.138723	-0.832995	-0.486986
