data_functionalizedCrystal
_audit_creation_method	'MofGen! by Chris Wilmer'
_symmetry_space_group_name_H-M	'P1'
_symmetry_Int_Tables_number	1
_symmetry_cell_setting	triclinic
loop_
_symmetry_equiv_pos_as_xyz
  x,y,z
_cell_length_a	14.519709
_cell_length_b	10.654550
_cell_length_c	9.730223
_cell_angle_alpha	90.000073
_cell_angle_beta	89.997715
_cell_angle_gamma	84.082524
loop_
_atom_site_label
_atom_site_type_symbol
_atom_site_fract_x
_atom_site_fract_y
_atom_site_fract_z
O1	O	0.129528	1.666589	-0.114284
O2	O	0.141869	1.300991	-0.114289
O3	O	0.001510	1.493483	-0.114274
O4	O	0.269887	1.474097	-0.114299
O5	O	0.001514	1.493481	0.114306
O6	O	0.141873	1.300989	0.114291
O7	O	0.129532	1.666586	0.114296
Zn8	Zn	0.135703	1.483787	0.150585
Zn9	Zn	0.135698	1.483790	-0.150579
O10	O	0.269890	1.474094	0.114281
C11	C	-0.032852	1.492579	0.000016
C12	C	-0.135247	1.489871	0.000016
C13	C	0.130436	1.713377	0.000003
C14	C	0.133147	1.852794	-0.000004
C15	C	0.140965	1.254201	0.000000
C16	C	0.138254	1.114784	-0.000001
C17	C	-0.510195	1.479904	-0.000019
C18	C	-0.405873	1.482672	-0.000009
C19	C	-0.322725	1.484887	-0.000000
C20	C	-0.218396	1.487656	0.000008
C21	C	0.304253	1.474999	-0.000013
C22	C	0.406648	1.477707	-0.000022
N23	N	0.135705	1.483795	0.356121
C24	C	0.050506	1.933074	-0.000002
C25	C	0.053059	2.064070	0.000004
C26	C	0.220901	2.034493	0.000000
C27	C	0.218347	1.903500	0.000004
C28	C	-0.046396	1.950151	-0.000006
C29	C	-0.043843	2.081148	0.000001
N30	N	0.135688	1.483793	-0.356115
C31	C	0.073576	1.569052	0.428054
C32	C	0.073565	1.569048	0.571937
C33	C	0.197821	1.398527	0.571942
C34	C	0.197827	1.398525	0.428062
C35	C	0.001840	1.667505	0.428052
C36	C	0.001829	1.667502	0.571935
H37	H	0.285642	1.838139	0.000018
H38	H	-0.080349	2.123254	-0.095661
N39	N	0.021631	1.788381	0.620952
N40	N	-0.035810	1.852612	0.694793
H41	H	-0.021829	1.937982	0.729410
N42	N	-0.082193	1.630033	0.627949
N43	N	-0.092695	1.625341	0.755285
H44	H	-0.152031	1.598870	0.794849
N45	N	0.261286	1.311432	0.645409
N46	N	0.316756	1.235317	0.581161
H47	H	0.361581	1.173803	0.633043
N48	N	-0.087078	1.641453	0.379051
N49	N	-0.133816	1.720134	0.305197
H50	H	-0.196613	1.701731	0.270595
H51	H	0.290268	2.075794	0.000008
N52	N	0.030051	1.781607	0.372077
N53	N	0.051168	1.867058	0.450477
H54	H	0.071106	1.947637	0.410944
H55	H	-0.073123	2.127076	0.098700
H56	H	-0.084296	1.921162	0.095653
H57	H	-0.077255	1.914817	-0.098698
H58	H	0.248409	1.329091	0.369495
