data_functionalizedCrystal
_audit_creation_method	'MofGen! by Chris Wilmer'
_symmetry_space_group_name_H-M	'P1'
_symmetry_Int_Tables_number	1
_symmetry_cell_setting	triclinic
loop_
_symmetry_equiv_pos_as_xyz
  x,y,z
_cell_length_a	16.109318
_cell_length_b	27.732048
_cell_length_c	26.210047
_cell_angle_alpha	90.000479
_cell_angle_beta	90.005454
_cell_angle_gamma	83.055609
loop_
_atom_site_label
_atom_site_type_symbol
_atom_site_fract_x
_atom_site_fract_y
_atom_site_fract_z
O1	O	1.102360	0.062164	0.042392
O2	O	0.860204	0.069887	0.042403
O3	O	0.988803	-0.004340	0.042388
O4	O	0.973761	0.136390	0.042408
O5	O	0.988778	-0.004328	-0.042470
O6	O	0.860180	0.069898	-0.042455
O7	O	1.102335	0.062175	-0.042466
Cu8	Cu	0.981255	0.066038	-0.050209
Cu9	Cu	0.981284	0.066024	0.050146
O10	O	0.973737	0.136402	-0.042450
C11	C	0.829221	0.069578	-0.000025
C12	C	0.736938	0.068636	-0.000021
C13	C	0.988475	-0.022342	-0.000043
C14	C	0.987524	-0.076001	-0.000047
C15	C	0.437916	0.065586	0.046226
C16	C	0.524626	0.066468	0.046229
C17	C	0.524618	0.066474	-0.046288
C18	C	0.437910	0.065589	-0.046290
C19	C	0.394561	0.065147	-0.000032
C20	C	0.567979	0.066915	-0.000026
C21	C	0.661994	0.067871	-0.000023
C22	C	0.300540	0.064190	-0.000035
C23	C	1.057532	-0.414521	-0.000024
C24	C	1.054004	-0.616195	-0.000017
O25	O	1.118022	-0.647181	0.000003
N26	N	0.977751	-0.635641	-0.000014
C27	C	0.902374	-0.604664	-0.000009
O28	O	0.837434	-0.625832	-0.000001
C29	C	0.905902	-0.402991	-0.000013
C30	C	0.982161	-0.383548	-0.000021
C31	C	1.133784	-0.395078	-0.000031
C32	C	1.134665	-0.344662	-0.000036
C33	C	1.059294	-0.313689	-0.000033
C34	C	0.983042	-0.333133	-0.000025
C35	C	0.830526	-0.372015	-0.000005
C36	C	0.831415	-0.321594	-0.000004
C37	C	0.907673	-0.302152	-0.000012
C38	C	0.908551	-0.251744	-0.000027
N39	N	0.984805	-0.232299	-0.000030
C40	C	1.060176	-0.263271	-0.000033
C41	C	0.900526	-0.710546	-0.000008
C42	C	0.899644	-0.760964	-0.000008
C43	C	1.051275	-0.772492	-0.000015
C44	C	1.052157	-0.722073	-0.000018
C45	C	0.976780	-0.691101	-0.000011
C46	C	1.062021	-0.157394	-0.000043
C47	C	1.062895	-0.106974	-0.000050
C48	C	0.911265	-0.095451	-0.000041
C49	C	0.910390	-0.145867	-0.000037
C50	C	0.985775	-0.176838	-0.000036
O51	O	0.844569	-0.220730	-0.000041
O52	O	1.125106	-0.242095	-0.000030
C53	C	1.056651	-0.464936	-0.000019
C54	C	0.980398	-0.484380	-0.000012
C55	C	0.905027	-0.453407	-0.000009
C56	C	0.979516	-0.534798	-0.000012
C57	C	1.054887	-0.565770	-0.000015
C58	C	1.131141	-0.546325	-0.000018
C59	C	1.132022	-0.495909	-0.000022
C60	C	0.828773	-0.472853	-0.000006
C61	C	0.827899	-0.523269	-0.000002
C62	C	0.903270	-0.554241	-0.000005
C63	C	1.133318	0.062484	-0.000037
C64	C	1.225601	0.063426	-0.000037
C65	C	0.974065	0.154404	-0.000019
C66	C	0.975015	0.208063	-0.000011
N67	N	0.981241	0.066047	-0.120792
C68	C	1.038222	0.033164	-0.473313
C69	C	1.038240	0.033157	-0.686972
O70	O	1.086656	0.005201	-0.714600
N71	N	0.981289	0.066014	-0.713686
C72	C	0.924325	0.098872	-0.686983
O73	O	0.875879	0.126814	-0.714608
C74	C	0.924304	0.098876	-0.473325
C75	C	0.981264	0.066021	-0.446614
C76	C	1.095178	0.000311	-0.446602
C77	C	1.095175	0.000315	-0.393190
C78	C	1.038218	0.033172	-0.366490
C79	C	0.981262	0.066024	-0.393202
C80	C	0.867337	0.131731	-0.446623
C81	C	0.867335	0.131728	-0.393205
C82	C	0.924296	0.098873	-0.366493
C83	C	0.924302	0.098885	-0.313091
N84	N	0.981254	0.066028	-0.286377
C85	C	1.038212	0.033172	-0.313076
C86	C	0.924342	0.098868	-0.799156
C87	C	0.924348	0.098868	-0.852570
C88	C	1.038262	0.033152	-0.852556
C89	C	1.038259	0.033155	-0.799141
C90	C	0.981293	0.066012	-0.772442
C91	C	1.038203	0.033183	-0.200908
C92	C	1.038198	0.033191	-0.147492
C93	C	0.924281	0.098904	-0.147511
C94	C	0.924289	0.098898	-0.200923
C95	C	0.981253	0.066033	-0.227620
O96	O	0.875906	0.126823	-0.285430
O97	O	1.086638	0.005226	-0.285442
C98	C	1.038224	0.033160	-0.526725
C99	C	0.981269	0.066013	-0.553437
C100	C	0.924311	0.098870	-0.526737
C101	C	0.981275	0.066013	-0.606851
C102	C	1.038233	0.033156	-0.633550
C103	C	1.095184	0.000300	-0.606836
C104	C	1.095182	0.000304	-0.553425
C105	C	0.867360	0.131726	-0.553451
C106	C	0.867367	0.131720	-0.606863
C107	C	0.924325	0.098863	-0.633562
N108	N	0.981306	0.066011	0.120730
H109	H	0.402623	0.065226	0.083893
Cl110	Cl	1.146027	-0.811438	-0.000016
H111	H	0.837547	-0.776790	-0.000010
H112	H	1.192511	-0.571551	-0.000022
H113	H	0.877914	0.125656	-0.222672
H114	H	0.877909	0.125657	-0.125764
H115	H	0.839142	-0.685333	-0.000002
Cl116	Cl	0.383402	0.065035	-0.104448
H117	H	0.820954	0.158484	-0.468364
H118	H	1.124997	-0.091147	-0.000058
H119	H	0.820943	0.158483	-0.371469
Cl120	Cl	1.230539	-0.320228	-0.000032
H121	H	1.141565	-0.026450	-0.531680
Cl122	Cl	0.852723	0.140178	-0.765598
H123	H	1.123407	-0.182605	-0.000041
Cl124	Cl	1.166790	-0.041004	-0.640412
Cl125	Cl	0.734651	-0.396445	0.000009
H126	H	0.559922	0.066825	0.083897
Cl127	Cl	0.579119	0.067035	-0.104438
H128	H	1.084585	0.006436	-0.125745
H129	H	1.195164	-0.420291	-0.000032
H130	H	1.114253	-0.706246	-0.000025
H131	H	0.767396	-0.447639	-0.000002
H132	H	0.770032	-0.296379	0.000002
H133	H	0.848294	-0.161698	-0.000044
Cl134	Cl	0.816518	-0.056505	-0.000036
H135	H	0.820984	0.158478	-0.628608
H136	H	1.194120	-0.480084	-0.000029
Cl137	Cl	0.732020	-0.547704	0.000006
Cl138	Cl	0.795750	0.173036	-0.519892
H139	H	1.084588	0.006421	-0.222639
Cl140	Cl	1.166780	-0.040993	-0.359616
Cl141	Cl	1.166791	-0.040999	-0.480158
H142	H	1.084641	0.006402	-0.777395
H143	H	1.084641	0.006400	-0.874304
H144	H	0.877974	0.125626	-0.874315
