data_functionalizedCrystal
_audit_creation_method	'MofGen! by Chris Wilmer'
_symmetry_space_group_name_H-M	'P1'
_symmetry_Int_Tables_number	1
_symmetry_cell_setting	triclinic
loop_
_symmetry_equiv_pos_as_xyz
  x,y,z
_cell_length_a	16.992694
_cell_length_b	10.540535
_cell_length_c	16.053802
_cell_angle_alpha	92.590127
_cell_angle_beta	87.249047
_cell_angle_gamma	87.595933
loop_
_atom_site_label
_atom_site_type_symbol
_atom_site_fract_x
_atom_site_fract_y
_atom_site_fract_z
O1	O	1.045172	0.264305	-0.069329
O2	O	0.816871	0.261349	-0.069353
O3	O	0.936231	0.078573	-0.069332
O4	O	0.925811	0.447081	-0.069350
O5	O	0.929661	0.088589	0.069526
O6	O	0.810301	0.271365	0.069505
O7	O	1.038602	0.274322	0.069529
Zn8	Zn	0.923408	0.274434	0.091564
Zn9	Zn	0.932065	0.261237	-0.091388
O10	O	0.919241	0.457097	0.069508
C11	C	0.784352	0.262556	0.000073
C12	C	0.697245	0.251215	0.000064
C13	C	0.647617	0.360635	0.000059
C14	C	0.565770	0.349972	0.000071
C15	C	0.533554	0.229889	0.000082
C16	C	0.583188	0.120461	0.000089
C17	C	0.665033	0.131125	0.000083
C18	C	0.289708	0.185691	0.000106
C19	C	0.207856	0.175035	0.000110
C20	C	0.190443	0.404548	0.000093
C21	C	0.272291	0.415201	0.000082
C22	C	0.321918	0.305773	0.000094
N23	N	0.449893	0.218987	0.000091
N24	N	0.405577	0.316677	0.000090
C25	C	0.932166	0.036210	0.000097
C26	C	0.929830	-0.104941	0.000098
C27	C	0.842682	-0.149174	0.000083
C28	C	0.840240	-0.296012	-0.000247
C29	C	0.973357	-0.316523	-0.079057
C30	C	0.975214	-0.169601	-0.079108
C31	C	0.969010	-0.158238	0.078805
C32	C	0.964931	-0.304860	0.079830
C33	C	1.071120	0.273114	0.000102
C34	C	1.158228	0.284455	0.000105
C35	C	0.923307	0.499460	0.000077
C36	C	0.925643	0.640611	0.000071
N37	N	0.917506	0.283440	0.216423
N38	N	0.937973	0.252221	-0.216247
C39	C	0.968313	0.205700	0.260126
C40	C	0.964192	0.212013	0.347532
C41	C	0.909267	0.296073	0.391233
C42	C	0.858455	0.373816	0.347524
C43	C	0.862573	0.367496	0.260120
C44	C	0.891279	0.323644	0.652640
C45	C	0.887166	0.329961	0.740050
C46	C	0.992903	0.168155	0.740052
C47	C	0.997019	0.161848	0.652646
C48	C	0.946204	0.239586	0.608944
N49	N	0.905055	0.302531	0.480576
N50	N	0.950413	0.233121	0.519603
H51	H	0.181630	0.077244	0.000118
C52	C	1.057437	0.069369	0.604581
N53	N	1.102944	-0.000288	0.568378
C54	C	0.835483	0.409335	0.604579
N55	N	0.793491	0.473944	0.568378
C56	C	0.806687	0.453027	0.212047
N57	N	0.764593	0.517453	0.175840
C58	C	1.020065	0.126460	0.395601
N59	N	1.062144	0.062004	0.431806
H60	H	0.298515	0.512985	0.000064
H61	H	0.673840	0.458420	0.000050
C62	C	0.798029	0.466271	0.395599
N63	N	0.752515	0.535909	0.431808
C64	C	1.048789	0.082638	0.788130
N65	N	1.090882	0.018218	0.824344
C66	C	0.511181	0.470345	0.000081
N67	N	0.470064	0.561016	0.000094
C68	C	0.826739	0.422434	0.788120
N69	N	0.781229	0.492081	0.824326
H70	H	0.150028	0.493637	0.000086
H71	H	0.930164	-0.332028	0.138370
C72	C	1.048836	-0.363307	0.086618
N73	N	1.112036	-0.407332	0.091726
C74	C	1.055581	-0.120668	0.079854
N75	N	1.120784	-0.092363	0.080639
C76	C	0.344288	0.065315	0.000114
N77	N	0.385401	-0.025357	0.000118
H78	H	0.938976	-0.113819	0.138806
H79	H	0.705441	0.042023	0.000086
H80	H	1.039260	-0.141268	-0.082471
C81	C	0.547748	-0.011633	0.000102
N82	N	0.521055	-0.111129	0.000109
H83	H	0.945987	-0.354298	-0.138181
H84	H	1.013042	0.137255	0.224550
C85	C	0.797641	-0.344015	-0.077332
N86	N	0.765548	-0.380168	-0.135391
C87	C	0.790152	-0.334164	0.076361
N88	N	0.752419	-0.362893	0.134061
H89	H	0.812458	-0.112652	-0.056585
C90	C	0.793837	-0.090860	0.076726
N91	N	0.757044	-0.046920	0.134452
H92	H	0.948329	-0.136281	-0.138491
C93	C	1.058494	-0.373397	-0.082730
N94	N	1.122620	-0.416238	-0.085495
