data_functionalizedCrystal
_audit_creation_method	'MofGen! by Chris Wilmer'
_symmetry_space_group_name_H-M	'P1'
_symmetry_Int_Tables_number	1
_symmetry_cell_setting	triclinic
loop_
_symmetry_equiv_pos_as_xyz
  x,y,z
_cell_length_a	6.817900
_cell_length_b	9.514088
_cell_length_c	11.102188
_cell_angle_alpha	88.635877
_cell_angle_beta	108.603875
_cell_angle_gamma	118.843545
loop_
_atom_site_label
_atom_site_type_symbol
_atom_site_fract_x
_atom_site_fract_y
_atom_site_fract_z
V1	V	-4.243914	-0.500743	-0.178092
O2	O	-4.200436	-0.491211	0.006240
O3	O	-4.219776	-0.497319	-0.350896
O4	O	-4.278436	-0.719134	-0.176370
O5	O	-4.141370	-0.267859	-0.169495
V6	V	-4.713653	-0.472888	-0.155924
O7	O	-4.535408	-0.561845	-0.226720
O8	O	-4.872356	-0.411787	-0.107295
O9	O	-4.514584	-0.476313	0.016881
O10	O	-4.874527	-0.482421	-0.340255
O11	O	-4.933593	-0.705772	-0.164520
O12	O	-4.455924	-0.254497	-0.157646
C13	C	-4.067996	-0.489419	-0.392991
C14	C	-4.130100	-0.488075	-0.534267
C15	C	-4.060223	-0.340370	-0.581828
C16	C	-4.118602	-0.339114	-0.714574
C17	C	-4.316730	-0.633279	-0.752187
C18	C	-4.258366	-0.634535	-0.619444
C19	C	-4.142820	-0.772365	-0.170363
C20	C	-4.252490	-0.950901	-0.170098
C21	C	-4.329705	-0.484208	0.058969
C22	C	-4.246844	-0.485563	0.200244
C23	C	-4.254879	-0.201258	-0.163657
C24	C	-4.124446	-0.022720	-0.163915
H25	H	-4.061699	-0.218838	-0.753291
H26	H	-3.955783	-0.221113	-0.512480
C27	C	-4.457797	-0.794377	-0.845884
C28	C	-4.521989	-0.793005	-0.991897
C29	C	-4.663050	-0.954108	-1.085590
C30	C	-4.739918	-1.116582	-1.033271
C31	C	-4.675726	-1.117960	-0.887251
C32	C	-4.534666	-0.956858	-0.793557
H33	H	-4.465086	-0.672726	-1.030634
H34	H	-4.710568	-0.953086	-1.193685
H35	H	-4.844340	-1.235840	-1.102628
H36	H	-4.732630	-1.238239	-0.848514
H37	H	-4.487147	-0.957879	-0.685463
H38	H	-4.446031	-1.026009	-0.175193
H39	H	-4.315286	-0.754821	-0.580722
H40	H	-3.930928	-0.947624	-0.158835
