data_functionalizedCrystal
_audit_creation_method	'MofGen! by Chris Wilmer'
_symmetry_space_group_name_H-M	'P1'
_symmetry_Int_Tables_number	1
_symmetry_cell_setting	triclinic
loop_
_symmetry_equiv_pos_as_xyz
  x,y,z
_cell_length_a	14.519709
_cell_length_b	19.288865
_cell_length_c	12.996460
_cell_angle_alpha	90.005525
_cell_angle_beta	90.000602
_cell_angle_gamma	83.408197
loop_
_atom_site_label
_atom_site_type_symbol
_atom_site_fract_x
_atom_site_fract_y
_atom_site_fract_z
O1	O	-1.223293	-0.091045	-0.085445
O2	O	-0.723293	0.408955	0.414555
O3	O	-0.954748	-0.101767	-0.085478
O4	O	-0.454748	0.398233	0.414522
O5	O	-1.096780	0.004696	-0.085440
O6	O	-0.596780	0.504696	0.414560
O7	O	-1.081261	-0.197509	-0.085483
O8	O	-0.581261	0.302491	0.414517
O9	O	-1.096762	0.004690	0.085693
O10	O	-0.596762	0.504690	0.585693
O11	O	-0.954730	-0.101774	0.085656
O12	O	-0.454730	0.398226	0.585656
O13	O	-1.223275	-0.091051	0.085689
O14	O	-0.723275	0.408949	0.585689
Cu15	Cu	-1.089001	-0.096413	0.101298
Cu16	Cu	-0.589001	0.403587	0.601298
Cu17	Cu	-1.089022	-0.096406	-0.101088
Cu18	Cu	-0.589022	0.403594	0.398912
O19	O	-1.081243	-0.197515	0.085651
O20	O	-0.581243	0.302485	0.585651
C21	C	-0.920382	-0.101271	0.000085
C22	C	-0.420382	0.398729	0.500085
C23	C	-0.818010	-0.099773	0.000073
C24	C	-0.318010	0.400227	0.500073
C25	C	-1.096272	0.030571	0.000130
C26	C	-0.596272	0.530571	0.500130
C27	C	-1.094773	0.107680	0.000138
C28	C	-0.594773	0.607680	0.500138
C29	C	-1.257640	-0.091548	0.000123
C30	C	-0.757640	0.408452	0.500123
C31	C	-1.360012	-0.093045	0.000128
C32	C	-0.860012	0.406955	0.500128
C33	C	-0.443150	-0.094261	0.000121
C34	C	0.056850	0.405739	0.500121
C35	C	-0.547448	-0.095792	0.000108
C36	C	-0.047448	0.404208	0.500108
C37	C	-0.630577	-0.097017	0.000096
C38	C	-0.130577	0.402983	0.500096
C39	C	-0.734882	-0.098548	0.000084
C40	C	-0.234882	0.401452	0.500084
C41	C	-1.081751	-0.223390	0.000079
C42	C	-0.581751	0.276610	0.500079
C43	C	-1.083250	-0.300499	0.000063
C44	C	-0.583250	0.199501	0.500063
N45	N	-1.088992	-0.096418	0.243645
N46	N	-0.588992	0.403582	0.743645
C47	C	-1.178111	0.152077	0.000154
C48	C	-0.678111	0.652077	0.500154
C49	C	-1.176702	0.224529	0.000137
C50	C	-0.676702	0.724529	0.500137
C51	C	-1.091951	0.252581	0.000126
C52	C	-0.591951	0.752581	0.500126
C53	C	-1.008602	0.208175	0.000105
C54	C	-0.508602	0.708175	0.500105
C55	C	-1.010013	0.135725	0.000111
C56	C	-0.510013	0.635725	0.500111
C57	C	-1.025321	0.361106	0.060062
C58	C	-0.525321	0.861106	0.560062
C59	C	-1.023914	0.433556	0.060063
C60	C	-0.523914	0.933556	0.560063
C61	C	-1.087597	0.476043	0.000103
C62	C	-0.587597	0.976043	0.500103
C63	C	-1.152703	0.446072	-0.059844
C64	C	-0.652703	0.946072	0.440156
C65	C	-1.154114	0.373622	-0.059838
C66	C	-0.654114	0.873622	0.440162
C67	C	-1.090412	0.331141	0.000119
C68	C	-0.590412	0.831141	0.500119
C69	C	-1.169414	0.599000	0.000099
C70	C	-0.669414	1.099000	0.500099
C71	C	-1.168002	0.671454	0.000076
C72	C	-0.668002	1.171454	0.500076
C73	C	-0.999899	0.655098	0.000054
C74	C	-0.499899	1.155098	0.500054
C75	C	-1.001314	0.582647	0.000066
C76	C	-0.501314	1.082647	0.500066
C77	C	-1.086073	0.554602	0.000094
C78	C	-0.586073	1.054602	0.500094
N79	N	-1.089038	-0.096396	-0.243435
N80	N	-0.589038	0.403604	0.256565
C81	C	-1.088996	-0.096419	0.336751
C82	C	-0.588996	0.403581	0.836751
C83	C	-1.089005	-0.096415	0.453556
C84	C	-0.589005	0.403585	0.953556
C85	C	-1.089016	-0.096407	0.546654
C86	C	-0.589016	0.403593	1.046654
C87	C	-1.089026	-0.096403	0.663467
C88	C	-0.589026	0.403597	1.163467
H89	H	-1.247128	0.129248	0.000172
H90	H	-0.747128	0.629248	0.500172
Br91	Br	-0.884878	0.693161	0.000029
Br92	Br	-0.384878	1.193161	0.500029
H93	H	-0.973460	0.326519	0.108895
H94	H	-0.473460	0.826519	0.608895
Br95	Br	-0.896902	0.075468	0.000088
Br96	Br	-0.396902	0.575468	0.500088
Br97	Br	-0.888205	0.522390	0.000047
Br98	Br	-0.388205	1.022390	0.500047
H99	H	-0.939597	0.231020	0.000094
H100	H	-0.439597	0.731020	0.500094
Br101	Br	-1.289812	0.284793	0.000153
Br102	Br	-0.789812	0.784793	0.500153
H103	H	-1.207124	0.349223	-0.108651
H104	H	-0.707124	0.849223	0.391349
Br105	Br	-1.239138	0.503724	-0.141224
Br106	Br	-0.739138	1.003724	0.358776
Br107	Br	-1.284441	0.560936	0.000146
Br108	Br	-0.784441	1.060936	0.500146
Br109	Br	-1.281114	0.731709	0.000085
Br110	Br	-0.781114	1.231709	0.500085
Br111	Br	-0.935563	0.474223	0.141425
Br112	Br	-0.435563	0.974223	0.641425
