data_functionalizedCrystal
_audit_creation_method	'MofGen! by Chris Wilmer'
_symmetry_space_group_name_H-M	'P1'
_symmetry_Int_Tables_number	1
_symmetry_cell_setting	triclinic
loop_
_symmetry_equiv_pos_as_xyz
  x,y,z
_cell_length_a	15.995350
_cell_length_b	15.995343
_cell_length_c	14.750779
_cell_angle_alpha	77.353220
_cell_angle_beta	102.645612
_cell_angle_gamma	83.490780
loop_
_atom_site_label
_atom_site_type_symbol
_atom_site_fract_x
_atom_site_fract_y
_atom_site_fract_z
O1	O	1.092822	0.126078	-0.079758
O2	O	0.849041	0.139410	-0.079779
O3	O	0.977603	0.010852	-0.079750
O4	O	0.964260	0.254636	-0.079787
O5	O	1.013946	-0.025486	0.079908
O6	O	0.885384	0.103072	0.079879
O7	O	1.129165	0.089740	0.079900
Zn8	Zn	1.013045	0.090637	0.105239
Zn9	Zn	0.965161	0.138513	-0.105118
O10	O	1.000603	0.218298	0.079872
C11	C	0.836017	0.120691	0.000048
C12	C	0.743065	0.119041	0.000040
C13	C	0.405323	0.113104	0.000061
C14	C	0.452844	0.021467	0.000431
C15	C	0.549450	0.023203	0.000065
C16	C	0.572881	0.116048	0.000052
C17	C	0.511039	0.181956	-0.091124
C18	C	0.414387	0.179672	-0.091194
C19	C	0.455377	0.140241	0.090368
C20	C	0.552595	0.139946	0.091566
C21	C	0.667577	0.117718	0.000043
C22	C	0.310626	0.111438	0.000064
C23	C	0.995225	-0.038513	0.000082
C24	C	0.993577	-0.131465	0.000089
C25	C	0.990579	-0.301647	0.000067
C26	C	0.897779	-0.324990	0.000057
C27	C	0.895948	-0.421583	-0.000316
C28	C	0.987625	-0.469202	0.000046
C29	C	1.013575	-0.419395	-0.090939
C30	C	1.014660	-0.322587	-0.091005
C31	C	1.057349	-0.364016	0.090563
C32	C	1.054193	-0.460781	0.091748
C33	C	0.985961	-0.563896	0.000031
C34	C	0.992245	-0.206951	0.000075
C35	C	1.142188	0.108460	0.000071
C36	C	1.235139	0.110111	0.000072
C37	C	0.982981	0.267663	0.000038
C38	C	0.984627	0.360617	0.000024
N39	N	1.045730	0.057961	0.248802
N40	N	0.932483	0.171182	-0.248681
C41	C	0.841198	0.262402	0.600574
C42	C	0.864108	0.239511	0.701079
C43	C	0.977972	0.125714	0.701067
C44	C	0.955069	0.148593	0.600561
C45	C	0.886682	0.216938	0.550322
C46	C	1.000554	0.103129	0.550308
C47	C	0.977655	0.126010	0.449811
C48	C	0.909272	0.194354	0.399566
C49	C	0.863784	0.239818	0.449825
C50	C	1.068945	0.034789	0.600549
C51	C	1.114429	-0.010675	0.550297
C52	C	1.091527	0.012201	0.449797
C53	C	1.023144	0.080545	0.399552
C54	C	1.137015	-0.033264	0.399538
C55	C	1.114117	-0.010384	0.299041
C56	C	1.000245	0.103425	0.299054
H57	H	0.381193	0.247832	-0.095340
Br58	Br	0.532587	0.155423	-0.204209
H59	H	0.967182	-0.280256	-0.159283
H60	H	1.122343	-0.495043	0.097522
H61	H	0.966086	-0.424008	-0.158917
Br62	Br	1.126620	-0.296830	-0.097422
H63	H	0.827064	0.276540	0.741989
Br64	Br	1.023099	-0.517254	0.203945
Br65	Br	1.070785	0.032966	0.769253
Br66	Br	1.124747	-0.471281	-0.096150
Br67	Br	0.402670	0.252516	0.091380
Br68	Br	1.034725	-0.343080	0.205551
Br69	Br	1.207241	-0.103423	0.618483
H70	H	1.125853	-0.350198	0.091453
Br71	Br	1.175852	-0.072081	0.230838
Br72	Br	1.229835	-0.126004	0.467728
H73	H	0.592758	-0.027168	0.065424
H74	H	0.876660	-0.311835	0.065295
Br75	Br	0.859807	-0.478032	0.108367
Br76	Br	0.358014	0.150639	-0.204776
H77	H	0.449206	-0.030010	0.065818
H78	H	0.944552	0.159073	0.258148
H79	H	0.890632	0.212984	0.317734
H80	H	0.847565	-0.281171	-0.065099
H81	H	0.808090	0.295466	0.408919
H82	H	0.524388	0.250939	-0.094524
Br83	Br	0.748373	0.355147	0.532388
H84	H	0.450573	0.094581	0.159476
H85	H	1.087589	0.016165	0.682380
Br86	Br	0.395519	-0.014595	-0.107922
Br87	Br	0.570977	-0.011216	-0.109235
H88	H	0.595266	0.091630	0.159018
Br89	Br	0.580279	0.250710	0.100730
H90	H	0.844662	-0.425081	-0.065931
