data_functionalizedCrystal
_audit_creation_method	'MofGen! by Chris Wilmer'
_symmetry_space_group_name_H-M	'P1'
_symmetry_Int_Tables_number	1
_symmetry_cell_setting	triclinic
loop_
_symmetry_equiv_pos_as_xyz
  x,y,z
_cell_length_a	14.853567
_cell_length_b	14.519709
_cell_length_c	13.330367
_cell_angle_alpha	89.994415
_cell_angle_beta	89.995418
_cell_angle_gamma	83.657538
loop_
_atom_site_label
_atom_site_type_symbol
_atom_site_fract_x
_atom_site_fract_y
_atom_site_fract_z
O1	O	1.196416	0.120405	-0.083357
O2	O	0.933962	0.134748	-0.083374
O3	O	1.072147	-0.006665	-0.083356
O4	O	1.058230	0.261818	-0.083375
O5	O	1.072127	-0.006668	0.083491
O6	O	0.933942	0.134745	0.083473
O7	O	1.196395	0.120402	0.083491
Cu8	Cu	1.065167	0.127573	0.098716
Cu9	Cu	1.065190	0.127577	-0.098600
O10	O	1.058210	0.261814	0.083472
C11	C	0.900363	0.134096	0.000047
C12	C	0.800278	0.132149	0.000041
C13	C	1.071488	-0.041026	0.000068
C14	C	1.069545	-0.143407	0.000068
C15	C	0.387709	0.039914	0.000070
C16	C	0.366493	0.207916	0.000057
C17	C	0.460527	0.209747	0.000054
C18	C	0.518157	0.126660	0.000057
C19	C	0.481752	0.041743	0.000064
C20	C	0.496939	0.294663	0.000037
C21	C	0.590979	0.296498	0.000033
C22	C	0.648610	0.213410	0.000043
C23	C	0.612200	0.128489	0.000051
C24	C	0.669830	0.045403	0.000054
C25	C	0.633422	-0.039520	0.000069
C26	C	0.539383	-0.041345	0.000074
C27	C	0.742649	0.215235	0.000038
C28	C	0.763873	0.047231	0.000048
C29	C	1.062390	-0.518299	0.000042
C30	C	1.064377	-0.413992	0.000050
C31	C	1.065967	-0.330856	0.000056
C32	C	1.067955	-0.226543	0.000062
C33	C	1.229994	0.121053	0.000067
C34	C	1.330079	0.123001	0.000067
C35	C	1.058869	0.296175	0.000046
C36	C	1.060812	0.398556	0.000039
N37	N	1.065157	0.127570	0.237498
N38	N	1.065208	0.127572	-0.237381
C39	C	1.003999	0.190170	0.710113
C40	C	1.126406	0.064976	0.710097
C41	C	1.126396	0.064974	0.605078
C42	C	1.065187	0.127571	0.552572
C43	C	1.003989	0.190170	0.605085
C44	C	1.187599	0.002381	0.552558
C45	C	1.187592	0.002376	0.447534
C46	C	1.126378	0.064970	0.395026
C47	C	1.065177	0.127572	0.447544
C48	C	1.003968	0.190169	0.395038
C49	C	0.942762	0.252767	0.447555
C50	C	0.942775	0.252764	0.552577
C51	C	1.126365	0.064973	0.290004
C52	C	1.003958	0.190170	0.290010
H53	H	0.680356	-0.107168	0.000065
H54	H	1.176245	0.014016	0.752851
O55	O	0.876747	0.320272	0.390904
H56	H	0.888343	0.392193	0.411036
H57	H	1.237438	-0.048579	0.595312
H58	H	0.450011	0.362307	0.000024
H59	H	1.237428	-0.048595	0.404781
O60	O	1.192368	-0.002536	0.233357
H61	H	1.234930	-0.046066	0.287512
O62	O	0.500116	-0.132933	0.000089
H63	H	0.457788	-0.137787	-0.067917
O64	O	0.826032	-0.042385	0.000053
H65	H	0.784913	-0.101737	0.000058
O66	O	0.937997	0.257692	0.766753
H67	H	0.895436	0.301217	0.712594
H68	H	0.358060	-0.029228	0.000086
H69	H	0.319566	0.275561	0.000046
H70	H	0.892944	0.303730	0.595342
H71	H	0.620614	0.365646	0.000020
O72	O	0.781918	0.306819	0.000031
H73	H	0.758781	0.346751	-0.067973
O74	O	0.937942	0.257688	0.233378
H75	H	0.895392	0.301217	0.287542
