data_functionalizedCrystal
_audit_creation_method	'MofGen! by Chris Wilmer'
_symmetry_space_group_name_H-M	'P1'
_symmetry_Int_Tables_number	1
_symmetry_cell_setting	triclinic
loop_
_symmetry_equiv_pos_as_xyz
  x,y,z
_cell_length_a	12.759401
_cell_length_b	12.759400
_cell_length_c	12.759393
_cell_angle_alpha	89.970627
_cell_angle_beta	89.980324
_cell_angle_gamma	90.013592
loop_
_atom_site_label
_atom_site_type_symbol
_atom_site_fract_x
_atom_site_fract_y
_atom_site_fract_z
Zn1	Zn	1.606278	-0.418204	-0.593993
Zn2	Zn	1.606173	-0.593919	-0.418316
Zn3	Zn	1.430576	-0.418256	-0.418332
Zn4	Zn	1.430573	-0.593842	-0.593958
O5	O	1.518400	-0.506055	-0.506150
O6	O	1.753285	-0.441523	-0.570697
O7	O	1.582838	-0.570671	-0.271297
O8	O	1.453928	-0.271228	-0.441655
O9	O	1.753208	-0.570620	-0.441629
O10	O	1.583015	-0.271189	-0.570712
O11	O	1.453827	-0.441612	-0.271309
O12	O	1.283555	-0.441538	-0.441621
O13	O	1.453923	-0.570489	-0.740983
O14	O	1.283552	-0.570540	-0.570652
O15	O	1.583012	-0.441448	-0.741009
O16	O	1.582835	-0.740930	-0.441594
O17	O	1.453822	-0.740874	-0.570637
C18	C	1.245433	-0.506037	-0.506135
C19	C	1.128656	-0.506055	-0.506153
C20	C	1.073835	-0.438955	-0.573463
C21	C	0.964110	-0.438966	-0.573470
C22	C	0.964039	-0.573185	-0.438855
C23	C	1.073761	-0.573168	-0.438843
C24	C	1.518345	-0.779023	-0.506133
C25	C	1.518417	-0.895799	-0.506161
C26	C	1.585599	-0.950561	-0.573416
C27	C	1.585648	-1.060285	-0.573442
C28	C	1.451330	-1.060475	-0.438948
C29	C	1.451277	-0.950753	-0.438929
C30	C	1.652740	-0.895607	-0.640649
C31	C	1.719928	-0.950370	-0.707909
C32	C	1.719977	-1.060094	-0.707934
C33	C	1.652838	-1.115055	-0.640700
C34	C	1.792433	-0.506074	-0.506165
C35	C	1.909210	-0.506082	-0.506172
C36	C	1.518479	-0.505954	-0.780183
C37	C	1.518512	-0.505911	-0.896960
C38	C	1.518484	-0.232022	-0.506189
C39	C	1.518520	-0.115245	-0.506206
C40	C	1.585734	-0.438709	-0.951837
C41	C	1.585752	-0.438664	-1.061561
C42	C	1.451323	-0.573032	-1.061521
C43	C	1.451301	-0.573071	-0.951799
C44	C	1.518382	-0.506080	-0.233182
C45	C	1.518552	-0.505827	-0.116406
H46	H	1.118527	-0.384304	-0.628268
O47	O	1.785107	-0.896823	-0.773121
C48	C	1.770642	-0.788235	-0.758697
H49	H	1.736268	-0.773332	-0.677585
H50	H	1.849316	-0.746477	-0.765882
H51	H	1.714648	-0.757091	-0.820961
O52	O	1.651153	-0.373352	-1.114706
C53	C	1.710446	-0.314068	-1.042771
H54	H	1.714053	-0.357133	-0.964553
H55	H	1.793234	-0.302858	-1.074487
H56	H	1.671999	-0.234275	-1.031104
H57	H	1.118398	-0.627810	-0.384026
O58	O	0.911020	-0.373754	-0.638957
C59	C	0.983005	-0.314500	-0.698339
H60	H	1.061214	-0.357529	-0.701894
H61	H	0.951340	-0.303399	-0.781139
H62	H	0.994668	-0.234658	-0.660005
O63	O	1.652498	-0.789023	-0.640635
C64	C	1.551784	-0.752417	-0.667557
H65	H	1.491305	-0.815702	-0.649573
H66	H	1.533096	-0.679058	-0.620140
H67	H	1.549512	-0.732889	-0.754726
H68	H	1.640459	-0.384020	-0.907190
O69	O	1.785334	-1.113129	-0.773304
C70	C	1.844557	-1.041092	-0.832657
H71	H	1.848179	-0.962907	-0.789608
H72	H	1.927345	-1.072727	-0.843939
H73	H	1.806041	-1.029390	-0.912416
O74	O	1.385980	-0.897713	-0.373503
C75	C	1.326717	-0.969742	-0.314181
H76	H	1.369790	-1.047927	-0.310580
H77	H	1.315524	-0.938097	-0.231393
H78	H	1.246916	-0.981448	-0.352599
H79	H	1.396604	-0.627714	-1.106185
H80	H	1.396553	-0.627795	-0.907117
H81	H	0.919330	-0.627827	-0.384054
O82	O	1.653038	-1.221642	-0.640835
C83	C	1.726704	-1.258195	-0.714643
H84	H	1.788059	-1.194918	-0.729388
H85	H	1.766611	-1.331605	-0.683000
H86	H	1.685011	-1.277621	-0.791221
H87	H	1.396669	-1.105234	-0.384209
