data_functionalizedCrystal
_audit_creation_method	'MofGen! by Chris Wilmer'
_symmetry_space_group_name_H-M	'P1'
_symmetry_Int_Tables_number	1
_symmetry_cell_setting	triclinic
loop_
_symmetry_equiv_pos_as_xyz
  x,y,z
_cell_length_a	12.759401
_cell_length_b	16.625545
_cell_length_c	12.759393
_cell_angle_alpha	89.965969
_cell_angle_beta	90.019684
_cell_angle_gamma	89.976849
loop_
_atom_site_label
_atom_site_type_symbol
_atom_site_fract_x
_atom_site_fract_y
_atom_site_fract_z
Zn1	Zn	1.606187	0.320973	0.593997
Zn2	Zn	1.606053	0.455830	0.418309
Zn3	Zn	1.430489	0.321013	0.418332
Zn4	Zn	1.430449	0.455765	0.593947
O5	O	1.518295	0.388395	0.506146
O6	O	1.753190	0.338873	0.570702
O7	O	1.582725	0.437990	0.271291
O8	O	1.453869	0.208175	0.441665
O9	O	1.753092	0.437951	0.441626
O10	O	1.582953	0.208146	0.570725
O11	O	1.453739	0.338940	0.271308
O12	O	1.283463	0.338878	0.441617
O13	O	1.453801	0.437841	0.740975
O14	O	1.283434	0.437880	0.570640
O15	O	1.582915	0.338810	0.741011
O16	O	1.582686	0.568654	0.441577
O17	O	1.453670	0.568606	0.570618
C18	C	1.245327	0.388377	0.506126
C19	C	1.128551	0.388388	0.506143
C20	C	1.073673	0.336770	0.439084
C21	C	0.963949	0.336789	0.439097
C22	C	0.963990	0.440047	0.573238
C23	C	1.073712	0.440031	0.573218
C24	C	1.128512	0.285127	0.372009
C25	C	1.073634	0.233504	0.304945
C26	C	0.963910	0.233523	0.304959
C27	C	0.909064	0.285165	0.372035
C28	C	1.518188	0.597886	0.506113
C29	C	1.518238	0.687507	0.506133
C30	C	1.518410	1.015683	0.506259
C31	C	1.518359	0.924374	0.506227
C32	C	1.518323	0.851598	0.506196
C33	C	1.518274	0.760284	0.506165
C34	C	1.792328	0.388415	0.506167
C35	C	1.909105	0.388423	0.506176
C36	C	1.518368	0.388314	0.780180
C37	C	1.518400	0.388279	0.896956
C38	C	1.518422	1.178086	0.506215
C39	C	1.518453	1.088465	0.506276
C40	C	1.518282	0.388418	0.233179
C41	C	1.518454	0.388226	0.116403
C42	C	1.585638	0.336709	0.951839
C43	C	1.585663	0.336680	1.061563
C44	C	1.451208	0.439798	1.061512
C45	C	1.451178	0.439823	0.951790
C46	C	1.652860	0.285165	0.897005
C47	C	1.720105	0.233591	0.951888
C48	C	1.720130	0.233562	1.061612
C49	C	1.652910	0.285107	1.116454
H50	H	1.652849	0.285185	0.807663
H51	H	1.652923	0.285070	1.205799
N52	N	1.788746	0.180927	0.895875
N53	N	1.751798	0.129559	0.834666
H54	H	1.800274	0.092361	0.795107
N55	N	1.240591	0.285089	0.371990
N56	N	1.289545	0.238975	0.312104
H57	H	1.368701	0.238946	0.312094
N58	N	1.129669	0.180769	0.236427
N59	N	1.227634	0.180759	0.236420
H60	H	1.267209	0.143516	0.188026
N61	N	0.907869	0.180798	0.236441
N62	N	0.956849	0.134699	0.176557
H63	H	0.917273	0.097458	0.128166
H64	H	0.819719	0.285180	0.372036
N65	N	0.907953	0.492791	0.641741
N66	N	0.809988	0.492798	0.641748
H67	H	0.770410	0.530048	0.690131
H68	H	1.774877	0.191562	1.106295
N69	N	1.129759	0.492767	0.641715
N70	N	1.080786	0.538870	0.701601
H71	H	1.120369	0.576120	0.749976
N72	N	1.382554	0.492440	1.117544
N73	N	1.382590	0.492410	1.215509
H74	H	1.334104	0.529591	1.255083
H75	H	1.396410	0.481804	0.907104
