data_functionalizedCrystal
_audit_creation_method	'MofGen! by Chris Wilmer'
_symmetry_space_group_name_H-M	'P1'
_symmetry_Int_Tables_number	1
_symmetry_cell_setting	triclinic
loop_
_symmetry_equiv_pos_as_xyz
  x,y,z
_cell_length_a	14.044191
_cell_length_b	10.967961
_cell_length_c	9.482900
_cell_angle_alpha	87.495787
_cell_angle_beta	79.853279
_cell_angle_gamma	88.856741
loop_
_atom_site_label
_atom_site_type_symbol
_atom_site_fract_x
_atom_site_fract_y
_atom_site_fract_z
O1	O	1.282612	0.273068	-0.189221
O2	O	1.782612	0.773068	0.310779
O3	O	1.006255	0.262582	-0.186613
O4	O	1.506255	0.762582	0.313387
O5	O	1.145499	0.093360	-0.144207
O6	O	1.645499	0.593360	0.355793
O7	O	1.143368	0.442290	-0.231626
O8	O	1.643368	0.942290	0.268374
O9	O	1.117221	0.127884	0.088934
O10	O	1.617221	0.627884	0.588934
O11	O	0.977977	0.297105	0.046528
O12	O	1.477977	0.797105	0.546528
O13	O	1.254334	0.307592	0.043920
O14	O	1.754334	0.807592	0.543920
Cu15	Cu	1.113574	0.305501	0.066512
Cu16	Cu	1.613574	0.805501	0.566512
Cu17	Cu	1.147015	0.264673	-0.209205
Cu18	Cu	1.647015	0.764673	0.290795
O19	O	1.115090	0.476813	0.001515
O20	O	1.615090	0.976813	0.501515
C21	C	0.956632	0.275257	-0.068896
C22	C	1.456632	0.775257	0.431104
C23	C	0.850899	0.261575	-0.065476
C24	C	1.350899	0.761575	0.434524
C25	C	1.129068	0.065696	-0.016385
C26	C	1.629068	0.565696	0.483615
C27	C	1.122228	-0.068170	0.017144
C28	C	1.622228	0.431830	0.517144
C29	C	1.126762	-0.284092	-0.054028
C30	C	1.626762	0.215908	0.445972
C31	C	1.133830	-0.145736	-0.088692
C32	C	1.633830	0.354264	0.411308
C33	C	0.603285	0.333591	-0.083503
C34	C	1.103285	0.833591	0.416497
C35	C	0.657312	0.236586	-0.059203
C36	C	1.157312	0.736586	0.440797
C37	C	0.765033	0.250494	-0.062694
C38	C	1.265033	0.750494	0.437306
C39	C	0.495553	0.319685	-0.080013
C40	C	0.995553	0.819685	0.419987
C41	C	1.303958	0.294916	-0.073800
C42	C	1.803958	0.794916	0.426200
C43	C	1.409692	0.308596	-0.077229
C44	C	1.909692	0.808596	0.422771
C45	C	1.131521	0.504477	-0.126311
C46	C	1.631521	1.004477	0.373689
C47	C	1.138362	0.638341	-0.159849
C48	C	1.638362	1.138341	0.340151
N49	N	1.090059	0.334217	0.260436
N50	N	1.590059	0.834217	0.760436
N51	N	1.170537	0.235948	-0.403126
N52	N	1.670537	0.735948	0.096874
C53	C	1.140073	0.273136	0.347942
C54	C	1.640073	0.773136	0.847942
C55	C	1.120516	0.297038	0.509369
C56	C	1.620516	0.797038	1.009369
H57	H	1.111594	-0.320112	0.062230
H58	H	1.611594	0.179888	0.562230
O59	O	0.649167	0.457430	-0.114539
O60	O	1.149167	0.957430	0.385461
H61	H	0.705608	0.454305	-0.212317
H62	H	1.205608	0.954305	0.287683
O63	O	1.215944	0.180385	0.288906
O64	O	1.715944	0.680385	0.788906
H65	H	1.219388	0.176152	0.171382
H66	H	1.719388	0.676152	0.671382
H67	H	0.622676	0.143078	-0.035878
H68	H	1.122676	0.643078	0.464122
H69	H	1.227834	0.165949	0.552290
H70	H	1.727834	0.665949	1.052290
O71	O	1.102146	-0.115868	0.171153
O72	O	1.602146	0.384132	0.671153
H73	H	1.031554	-0.078982	0.225146
H74	H	1.531554	0.421018	0.725146
H75	H	1.153518	-0.325638	-0.276107
H76	H	1.653518	0.174362	0.223893
O77	O	1.153917	-0.098048	-0.242705
O78	O	1.653917	0.401952	0.257295
H79	H	1.156322	0.003138	-0.245763
H80	H	1.656322	0.503138	0.254237
O81	O	1.044616	0.389761	0.568407
O82	O	1.544616	0.889761	1.068407
H83	H	1.041171	0.393993	0.685931
H84	H	1.541171	0.893993	1.185931
O85	O	1.014163	0.426935	0.319480
O86	O	1.514163	0.926935	0.819480
H87	H	1.010718	0.431167	0.437005
H88	H	1.510718	0.931167	0.937005
