data_functionalizedCrystal
_audit_creation_method	'MofGen! by Chris Wilmer'
_symmetry_space_group_name_H-M	'P1'
_symmetry_Int_Tables_number	1
_symmetry_cell_setting	triclinic
loop_
_symmetry_equiv_pos_as_xyz
  x,y,z
_cell_length_a	16.959455
_cell_length_b	25.639239
_cell_length_c	16.959447
_cell_angle_alpha	90.033631
_cell_angle_beta	90.020374
_cell_angle_gamma	90.036304
loop_
_atom_site_label
_atom_site_type_symbol
_atom_site_fract_x
_atom_site_fract_y
_atom_site_fract_z
Zn1	Zn	1.208278	-0.208182	0.447018
Zn2	Zn	1.541612	0.125151	0.780351
Zn3	Zn	1.874945	0.458485	1.113685
Zn4	Zn	1.208156	-0.295623	0.314832
Zn5	Zn	1.541490	0.037711	0.648165
Zn6	Zn	1.874823	0.371044	0.981499
Zn7	Zn	1.076107	-0.208199	0.314842
Zn8	Zn	1.409440	0.125135	0.648175
Zn9	Zn	1.742773	0.458468	0.981508
Zn10	Zn	1.076027	-0.295584	0.446957
Zn11	Zn	1.409360	0.037750	0.780290
Zn12	Zn	1.742694	0.371083	1.113623
O13	O	1.142142	-0.251897	0.380912
O14	O	1.475475	0.081437	0.714245
O15	O	1.808809	0.414770	1.047579
O16	O	1.318873	-0.219791	0.429505
O17	O	1.652206	0.113543	0.762838
O18	O	1.985540	0.446876	1.096172
O19	O	1.190622	-0.284049	0.204222
O20	O	1.523955	0.049284	0.537556
O21	O	1.857289	0.382618	0.870889
O22	O	1.093724	-0.135031	0.332405
O23	O	1.427057	0.198302	0.665738
O24	O	1.760391	0.531636	0.999072
O25	O	1.318784	-0.284033	0.332388
O26	O	1.652117	0.049300	0.665722
O27	O	1.985450	0.382634	0.999055
O28	O	1.190830	-0.135019	0.429514
O29	O	1.524163	0.198314	0.762848
O30	O	1.857496	0.531648	1.096181
O31	O	1.093606	-0.219819	0.204229
O32	O	1.426939	0.113515	0.537563
O33	O	1.760272	0.446848	0.870896
O34	O	0.965485	-0.219781	0.332345
O35	O	1.298819	0.113552	0.665679
O36	O	1.632152	0.446886	0.999012
O37	O	1.093588	-0.283966	0.557576
O38	O	1.426922	0.049367	0.890909
O39	O	1.760255	0.382700	1.224242
O40	O	0.965427	-0.283982	0.429410
O41	O	1.298760	0.049351	0.762743
O42	O	1.632093	0.382684	1.096076
O43	O	1.190753	-0.219753	0.557621
O44	O	1.524086	0.113581	0.890954
O45	O	1.857419	0.446914	1.224288
O46	O	1.190545	-0.368783	0.332329
O47	O	1.523878	-0.035449	0.665662
O48	O	1.857212	0.297884	0.998995
O49	O	1.093470	-0.368754	0.429400
O50	O	1.426803	-0.035421	0.762733
O51	O	1.760137	0.297913	1.096067
C52	C	0.936776	-0.251880	0.380872
C53	C	1.270109	0.081454	0.714206
C54	C	1.603443	0.414787	1.047539
C55	C	0.848919	-0.251885	0.380874
C56	C	1.182253	0.081448	0.714207
C57	C	1.515586	0.414782	1.047541
C58	C	0.477386	-0.285315	0.330318
C59	C	0.810720	0.048019	0.663651
C60	C	1.144053	0.381352	0.996984
C61	C	0.477501	-0.218522	0.431603
C62	C	0.810834	0.114811	0.764936
C63	C	1.144168	0.448144	1.098269
C64	C	0.560047	-0.218514	0.431583
C65	C	0.893380	0.114820	0.764917
C66	C	1.226713	0.448153	1.098250
C67	C	0.601266	-0.251907	0.380931
C68	C	0.934600	0.081427	0.714265
C69	C	1.267933	0.414760	1.047598
C70	C	0.559940	-0.285308	0.330299
C71	C	0.893273	0.048025	0.663632
C72	C	1.226607	0.381359	0.996965
C73	C	0.601379	-0.185117	0.482221
C74	C	0.934713	0.148217	0.815554
C75	C	1.268046	0.481550	1.148888
C76	C	0.683930	-0.185107	0.482204
C77	C	1.017264	0.148226	0.815538
C78	C	1.350597	0.481560	1.148871
C79	C	0.725151	-0.218498	0.431548
C80	C	1.058485	0.114836	0.764881
C81	C	1.391818	0.448169	1.098214
C82	C	0.683820	-0.251900	0.380912
C83	C	1.017153	0.081433	0.714246
C84	C	1.350487	0.414767	1.047579
C85	C	0.725039	-0.285293	0.330260
C86	C	1.058373	0.048040	0.663594
C87	C	1.391706	0.381374	0.996927
C88	C	0.683709	-0.318693	0.279620
C89	C	1.017043	0.014640	0.612953
C90	C	1.350376	0.347974	0.946287
C91	C	0.601161	-0.318699	0.279642
C92	C	0.934494	0.014635	0.612975
C93	C	1.267828	0.347968	0.946308
C94	C	0.807700	-0.218492	0.431526
C95	C	1.141033	0.114841	0.764859
C96	C	1.474366	0.448175	1.098193
C97	C	0.807593	-0.285286	0.330241
C98	C	1.140926	0.048047	0.663574
C99	C	1.474260	0.381380	0.996908
C100	C	1.142007	-0.387739	0.380874
C101	C	1.475340	-0.054406	0.714207
C102	C	1.808674	0.278927	1.047541
C103	C	1.142022	-0.445853	0.380884
C104	C	1.475355	-0.112520	0.714217
C105	C	1.808688	0.220813	1.047551
C106	C	1.091586	-0.697044	0.431441
C107	C	1.424919	-0.363711	0.764774
C108	C	1.758252	-0.030378	1.098108
C109	C	1.091556	-0.642440	0.431432
C110	C	1.424890	-0.309107	0.764765
C111	C	1.758223	0.024227	1.098099
O112	O	1.048544	-0.614201	0.474391
O113	O	1.381878	-0.280868	0.807724
O114	O	1.715211	0.052465	1.141058
N115	N	1.142121	-0.615127	0.380925
N116	N	1.475454	-0.281794	0.714259
N117	N	1.808788	0.051539	1.047592
C118	C	1.192724	-0.642422	0.330430
C119	C	1.526057	-0.309088	0.663764
C120	C	1.859391	0.024245	0.997097
O121	O	1.235731	-0.614176	0.287470
O122	O	1.569064	-0.280843	0.620804
O123	O	1.902398	0.052491	0.954137
C124	C	1.192757	-0.697025	0.330444
C125	C	1.526090	-0.363692	0.663777
C126	C	1.859423	-0.030358	0.997111
C127	C	1.142183	-0.724335	0.380948
C128	C	1.475516	-0.391001	0.714282
C129	C	1.808850	-0.057668	1.047615
C130	C	1.041017	-0.724354	0.481942
C131	C	1.374350	-0.391021	0.815275
C132	C	1.707683	-0.057688	1.148608
C133	C	1.041045	-0.778955	0.481950
C134	C	1.374379	-0.445622	0.815283
C135	C	1.707712	-0.112288	1.148616
C136	C	1.091643	-0.806245	0.431457
C137	C	1.424976	-0.472912	0.764790
C138	C	1.758309	-0.139579	1.098124
C139	C	1.142211	-0.778935	0.380956
C140	C	1.475545	-0.445602	0.714290
C141	C	1.808878	-0.112269	1.047623
C142	C	1.243363	-0.724318	0.279954
C143	C	1.576696	-0.390985	0.613287
C144	C	1.910030	-0.057652	0.946620
C145	C	1.243392	-0.778925	0.279972
C146	C	1.576725	-0.445592	0.613305
C147	C	1.910058	-0.112259	0.946639
C148	C	1.192818	-0.806235	0.330476
C149	C	1.526151	-0.472902	0.663810
C150	C	1.859485	-0.139568	0.997143
C151	C	1.192837	-0.860826	0.330471
C152	C	1.526171	-0.527493	0.663805
C153	C	1.859504	-0.194160	0.997138
N154	N	1.142273	-0.888139	0.380978
N155	N	1.475606	-0.554806	0.714311
N156	N	1.808939	-0.221473	1.047645
C157	C	1.091675	-0.860849	0.431471
C158	C	1.425009	-0.527515	0.764804
C159	C	1.758342	-0.194182	1.098137
C160	C	1.192652	-0.527751	0.330406
C161	C	1.525986	-0.194418	0.663740
C162	C	1.859319	0.138916	0.997073
C163	C	1.192616	-0.473149	0.330388
C164	C	1.525950	-0.139815	0.663721
C165	C	1.859283	0.193518	0.997055
C166	C	1.091450	-0.473171	0.431391
C167	C	1.424783	-0.139838	0.764724
C168	C	1.758116	0.193496	1.098057
C169	C	1.091482	-0.527774	0.431404
C170	C	1.424816	-0.194441	0.764738
C171	C	1.758149	0.138892	1.098071
C172	C	1.142088	-0.555064	0.380913
C173	C	1.475421	-0.221730	0.714246
C174	C	1.808754	0.111603	1.047579
C175	C	1.091738	-0.975514	0.431483
C176	C	1.425072	-0.642180	0.764816
C177	C	1.758405	-0.308847	1.098150
C178	C	1.091769	-1.030119	0.431484
C179	C	1.425102	-0.696786	0.764818
C180	C	1.758436	-0.363452	1.098151
C181	C	1.192938	-1.030092	0.330485
C182	C	1.526272	-0.696759	0.663818
C183	C	1.859605	-0.363425	0.997151
C184	C	1.192905	-0.975492	0.330480
C185	C	1.526238	-0.642158	0.663814
C186	C	1.859572	-0.308825	0.997147
C187	C	1.142302	-0.948204	0.380986
C188	C	1.475636	-0.614870	0.714319
C189	C	1.808969	-0.281537	1.047652
O190	O	1.235830	-0.889100	0.287536
O191	O	1.569163	-0.555766	0.620870
O192	O	1.902496	-0.222433	0.954203
O193	O	1.048683	-0.889101	0.474431
O194	O	1.382016	-0.555768	0.807764
O195	O	1.715349	-0.222434	1.141098
C196	C	1.348310	-0.251914	0.380952
C197	C	1.681644	0.081419	0.714286
C198	C	2.014977	0.414752	1.047619
C199	C	1.436167	-0.251922	0.380970
C200	C	1.769500	0.081412	0.714303
C201	C	2.102834	0.414745	1.047636
C202	C	1.142175	-0.251853	0.587080
C203	C	1.475508	0.081480	0.920414
C204	C	1.808842	0.414813	1.253747
C205	C	1.142189	-0.251835	0.674937
C206	C	1.475522	0.081498	1.008270
C207	C	1.808856	0.414832	1.341604
C208	C	1.142299	-0.115524	0.380968
C209	C	1.475633	0.217810	0.714301
C210	C	1.808966	0.551143	1.047634
C211	C	1.142366	-0.057410	0.380991
C212	C	1.475700	0.275924	0.714325
C213	C	1.809033	0.609257	1.047658
C214	C	1.142155	-0.251902	0.175546
C215	C	1.475488	0.081431	0.508879
C216	C	1.808822	0.414765	0.842212
C217	C	1.142294	-0.251773	0.087690
C218	C	1.475627	0.081560	0.421023
C219	C	1.808961	0.414893	0.754356
C220	C	1.091694	-0.285213	1.046392
C221	C	1.425028	0.048120	1.379725
C222	C	1.758361	0.381454	1.713058
C223	C	1.192873	-0.218347	1.046434
C224	C	1.526206	0.114987	1.379767
C225	C	1.859539	0.448320	1.713101
C226	C	1.192852	-0.218358	0.963888
C227	C	1.526185	0.114975	1.297221
C228	C	1.859518	0.448309	1.630555
C229	C	1.142252	-0.251798	0.922590
C230	C	1.475585	0.081536	1.255923
C231	C	1.808919	0.414869	1.589257
C232	C	1.091674	-0.285226	0.963838
C233	C	1.425007	0.048107	1.297172
C234	C	1.758340	0.381441	1.630505
C235	C	1.243435	-0.184934	0.922634
C236	C	1.576768	0.148400	1.255967
C237	C	1.910102	0.481733	1.589300
C238	C	1.243416	-0.184944	0.840083
C239	C	1.576750	0.148390	1.173416
C240	C	1.910083	0.481723	1.506749
C241	C	1.192812	-0.218381	0.798783
C242	C	1.526146	0.114952	1.132117
C243	C	1.859479	0.448285	1.465450
C244	C	1.142231	-0.251811	0.840037
C245	C	1.475564	0.081523	1.173370
C246	C	1.808898	0.414856	1.506703
C247	C	1.091632	-0.285250	0.798739
C248	C	1.424965	0.048083	1.132072
C249	C	1.758298	0.381416	1.465405
C250	C	1.041046	-0.318678	0.839990
C251	C	1.374379	0.014656	1.173324
C252	C	1.707712	0.347989	1.506657
C253	C	1.041069	-0.318664	0.922539
C254	C	1.374403	0.014670	1.255872
C255	C	1.707736	0.348003	1.589205
C256	C	1.192789	-0.218395	0.716235
C257	C	1.526122	0.114938	1.049568
C258	C	1.859455	0.448271	1.382902
C259	C	1.091611	-0.285264	0.716185
C260	C	1.424944	0.048070	1.049518
C261	C	1.758277	0.381403	1.382852
H262	H	0.841148	-0.312478	0.288991
H263	H	1.174481	0.020856	0.622324
H264	H	1.507815	0.354189	0.955657
N265	N	1.247439	-0.946027	0.276005
N266	N	1.580773	-0.612694	0.609338
N267	N	1.914106	-0.279361	0.942672
H268	H	1.235203	-0.955561	0.219517
H269	H	1.568537	-0.622228	0.552851
H270	H	1.901870	-0.288894	0.886184
H271	H	1.303891	-0.955500	0.288404
H272	H	1.637225	-0.622166	0.621737
H273	H	1.970558	-0.288833	0.955070
H274	H	1.284606	-0.157725	0.806503
H275	H	1.617939	0.175608	1.139836
H276	H	1.951273	0.508942	1.473169
H277	H	1.234130	-1.052322	0.289372
H278	H	1.567464	-0.718989	0.622705
H279	H	1.900797	-0.385655	0.956039
H280	H	1.050305	-0.550006	0.472534
H281	H	1.383638	-0.216673	0.805867
H282	H	1.716972	0.116660	1.139200
H283	H	0.999888	-0.345880	0.956133
H284	H	1.333221	-0.012547	1.289467
H285	H	1.666554	0.320787	1.622800
H286	H	1.050399	-0.312490	0.682566
H287	H	1.383732	0.020843	1.015899
H288	H	1.717065	0.354177	1.349233
H289	H	0.717574	-0.157910	0.523438
H290	H	1.050907	0.175423	0.856772
H291	H	1.384241	0.508756	1.190105
H292	H	0.999862	-0.801186	0.523074
H293	H	1.333195	-0.467853	0.856408
H294	H	1.666528	-0.134519	1.189741
N295	N	1.298008	-0.148870	0.967174
N296	N	1.631341	0.184463	1.300508
N297	N	1.964675	0.517797	1.633841
H298	H	1.354471	-0.157001	0.952815
H299	H	1.687805	0.176332	1.286148
H300	H	2.021138	0.509666	1.619482
H301	H	1.290274	-0.153951	1.025713
H302	H	1.623607	0.179383	1.359046
H303	H	1.956940	0.512716	1.692380
H304	H	0.567812	-0.157933	0.523464
H305	H	0.901146	0.175400	0.856797
H306	H	1.234479	0.508733	1.190131
N307	N	0.852278	-0.182477	0.486143
N308	N	1.185611	0.150857	0.819476
N309	N	1.518945	0.484190	1.152810
H310	H	0.813639	-0.161326	0.518237
H311	H	1.146973	0.172007	0.851570
H312	H	1.480306	0.505341	1.184904
H313	H	0.886527	-0.158249	0.454030
H314	H	1.219860	0.175084	0.787363
H315	H	1.553194	0.508418	1.120697
N316	N	1.037143	-0.321269	1.090880
N317	N	1.370477	0.012065	1.424213
N318	N	1.703810	0.345398	1.757547
H319	H	1.005089	-0.342454	1.052189
H320	H	1.338422	-0.009121	1.385523
H321	H	1.671755	0.324213	1.718856
H322	H	1.000594	-0.299978	1.125136
H323	H	1.333928	0.033355	1.458469
H324	H	1.667261	0.366688	1.791802
N325	N	0.986437	-0.694922	0.536401
N326	N	1.319771	-0.361589	0.869735
N327	N	1.653104	-0.028256	1.203068
H328	H	0.998677	-0.704391	0.592892
H329	H	1.332011	-0.371058	0.926225
H330	H	1.665344	-0.037725	1.259559
H331	H	0.930001	-0.704487	0.523994
H332	H	1.263334	-0.371154	0.857328
H333	H	1.596667	-0.037821	1.190661
H334	H	0.567503	-0.345891	0.238413
H335	H	0.900836	-0.012558	0.571746
H336	H	1.234170	0.320776	0.905080
H337	H	0.443935	-0.191338	0.472846
H338	H	0.777268	0.141995	0.806179
H339	H	1.110602	0.475328	1.139512
N340	N	0.432817	-0.321333	0.275694
N341	N	0.766150	0.012000	0.609027
N342	N	1.099483	0.345333	0.942360
H343	H	0.374267	-0.316271	0.283385
H344	H	0.707600	0.017063	0.616719
H345	H	1.040934	0.350396	0.950052
H346	H	0.447221	-0.358684	0.287887
H347	H	0.780554	-0.025351	0.621220
H348	H	1.113888	0.307982	0.954553
N349	N	1.036875	-0.443731	0.485853
N350	N	1.370208	-0.110398	0.819186
N351	N	1.703541	0.222936	1.152520
H352	H	1.044534	-0.404997	0.478178
H353	H	1.377867	-0.071663	0.811512
H354	H	1.711201	0.261670	1.144845
H355	H	1.049147	-0.453238	0.542320
H356	H	1.382480	-0.119904	0.875653
H357	H	1.715813	0.213429	1.208987
H358	H	0.717281	-0.345884	0.238383
H359	H	1.050615	-0.012551	0.571717
H360	H	1.383948	0.320782	0.905050
H361	H	1.050584	-1.052352	0.472613
H362	H	1.383918	-0.719019	0.805946
H363	H	1.717251	-0.385686	1.139279
H364	H	1.284604	-0.801142	0.238857
H365	H	1.617938	-0.467808	0.572191
H366	H	1.951271	-0.134475	0.905524
H367	H	1.234073	-0.191125	1.080064
H368	H	1.567406	0.142209	1.413397
H369	H	1.900740	0.475542	1.746730
H370	H	0.999851	-0.345907	0.806355
H371	H	1.333185	-0.012573	1.139688
H372	H	1.666518	0.320760	1.473021
H373	H	1.050534	-0.953302	0.472610
H374	H	1.383867	-0.619969	0.805944
H375	H	1.717201	-0.286635	1.139277
H376	H	1.233789	-0.450917	0.289254
H377	H	1.567123	-0.117583	0.622587
H378	H	1.900456	0.215750	0.955921
H379	H	1.233860	-0.549967	0.289283
H380	H	1.567193	-0.216633	0.622616
H381	H	1.900527	0.116700	0.955950
N382	N	1.297920	-0.694871	0.225490
N383	N	1.631254	-0.361538	0.558823
N384	N	1.964587	-0.028205	0.892157
H385	H	1.329980	-0.720453	0.193517
H386	H	1.663313	-0.387120	0.526850
H387	H	1.996646	-0.053786	0.860184
H388	H	1.334464	-0.672181	0.257708
H389	H	1.667798	-0.338848	0.591041
H390	H	2.001131	-0.005515	0.924374
N391	N	1.247347	-0.182351	0.671741
N392	N	1.580680	0.150983	1.005075
N393	N	1.914014	0.484316	1.338408
H394	H	1.279408	-0.161167	0.710429
H395	H	1.612741	0.172166	1.043763
H396	H	1.946075	0.505499	1.377096
H397	H	1.215195	-0.158155	0.637501
H398	H	1.548528	0.175179	0.970835
H399	H	1.881861	0.508512	1.304168
