data_functionalizedCrystal
_audit_creation_method	'MofGen! by Chris Wilmer'
_symmetry_space_group_name_H-M	'P1'
_symmetry_Int_Tables_number	1
_symmetry_cell_setting	triclinic
loop_
_symmetry_equiv_pos_as_xyz
  x,y,z
_cell_length_a	16.625547
_cell_length_b	18.101396
_cell_length_c	16.625525
_cell_angle_alpha	90.091162
_cell_angle_beta	89.934616
_cell_angle_gamma	89.963039
loop_
_atom_site_label
_atom_site_type_symbol
_atom_site_fract_x
_atom_site_fract_y
_atom_site_fract_z
Zn1	Zn	1.232922	0.294360	-0.456009
Zn2	Zn	1.732922	0.794360	0.043991
Zn3	Zn	1.232696	0.418348	-0.321179
Zn4	Zn	1.732696	0.918348	0.178821
Zn5	Zn	1.097988	0.294525	-0.321179
Zn6	Zn	1.597988	0.794525	0.178821
Zn7	Zn	1.098020	0.418165	-0.455959
Zn8	Zn	1.598020	0.918165	0.044041
O9	O	1.165407	0.356349	-0.388582
O10	O	1.665407	0.856349	0.111418
O11	O	1.345724	0.310816	-0.438144
O12	O	1.845724	0.810816	0.061856
O13	O	1.214718	0.402068	-0.208346
O14	O	1.714718	0.902068	0.291654
O15	O	1.115969	0.190870	-0.339086
O16	O	1.615969	0.690870	0.160914
O17	O	1.345558	0.401909	-0.339085
O18	O	1.845558	0.901909	0.160915
O19	O	1.215104	0.190749	-0.438145
O20	O	1.715104	0.690749	0.061855
O21	O	1.115749	0.311096	-0.208347
O22	O	1.615749	0.811096	0.291653
O23	O	0.985160	0.310918	-0.339037
O24	O	1.485160	0.810918	0.160963
O25	O	1.116023	0.401596	-0.568799
O26	O	1.616023	0.901596	-0.068799
O27	O	0.985183	0.401755	-0.438060
O28	O	1.485183	0.901755	0.061940
O29	O	1.215135	0.310638	-0.568835
O30	O	1.715135	0.810638	-0.068835
O31	O	1.214749	0.521957	-0.339037
O32	O	1.714749	1.021957	0.160963
O33	O	1.115803	0.521822	-0.438059
O34	O	1.615803	1.021822	0.061941
C35	C	0.955916	0.356335	-0.388544
C36	C	1.455916	0.856335	0.111456
C37	C	0.866295	0.356347	-0.388547
C38	C	1.366295	0.856347	0.111453
C39	C	0.793512	0.356348	-0.388556
C40	C	1.293512	0.856348	0.111444
C41	C	0.702204	0.356352	-0.388577
C42	C	1.202204	0.856352	0.111423
C43	C	0.629427	0.356359	-0.388597
C44	C	1.129427	0.856359	0.111403
C45	C	0.538113	0.356364	-0.388616
C46	C	1.038113	0.856364	0.111384
C47	C	1.165277	0.548760	-0.388560
C48	C	1.665277	1.048760	0.111440
C49	C	1.165295	0.631074	-0.388578
C50	C	1.665295	1.131074	0.111422
C51	C	1.165439	0.930165	-0.388625
C52	C	1.665439	1.430165	0.111375
C53	C	1.103333	0.898786	-0.451082
C54	C	1.603333	1.398786	0.048918
C55	C	1.103047	0.813168	-0.450885
C56	C	1.603047	1.313168	0.049115
C57	C	1.165368	0.781783	-0.388603
C58	C	1.665368	1.281783	0.111397
C59	C	1.142297	0.813022	-0.303623
C60	C	1.642297	1.313022	0.196377
C61	C	1.141887	0.898667	-0.303998
C62	C	1.641887	1.398667	0.196002
C63	C	1.250754	0.898486	-0.410400
C64	C	1.750754	1.398486	0.089600
C65	C	1.250264	0.812833	-0.412262
C66	C	1.750264	1.312833	0.087738
C67	C	1.165329	0.697923	-0.388585
C68	C	1.665329	1.197923	0.111415
C69	C	1.165476	1.014024	-0.388637
C70	C	1.665476	1.514024	0.111363
C71	C	1.375715	0.356364	-0.388620
C72	C	1.875715	0.856364	0.111380
C73	C	1.465337	0.356371	-0.388637
C74	C	1.965337	0.856371	0.111363
C75	C	1.165608	0.356078	-0.598891
C76	C	1.665608	0.856078	-0.098891
C77	C	1.165694	0.355962	-0.688513
C78	C	1.665694	0.855962	-0.188513
C79	C	1.165530	1.163188	-0.388624
C80	C	1.665530	1.663188	0.111376
C81	C	1.165511	1.080873	-0.388650
C82	C	1.665511	1.580873	0.111350
C83	C	1.165252	0.356567	-0.179090
C84	C	1.665252	0.856567	0.320910
C85	C	1.165323	0.356474	-0.089469
C86	C	1.665323	0.856474	0.410531
C87	C	1.165393	0.356387	-0.016687
C88	C	1.665393	0.856387	0.483313
C89	C	1.165480	0.356271	0.074621
C90	C	1.665480	0.856271	0.574621
C91	C	1.165544	0.356174	0.147397
C92	C	1.665544	0.856174	0.647397
C93	C	1.165629	0.356059	0.238711
C94	C	1.665629	0.856059	0.738711
H95	H	1.117489	0.792039	-0.513897
H96	H	1.617489	1.292039	-0.013897
N97	N	1.196138	0.924733	-0.243612
N98	N	1.696138	1.424733	0.256388
N99	N	1.170709	0.964396	-0.187455
N100	N	1.670709	1.464396	0.312545
H101	H	1.209016	0.982806	-0.144803
H102	H	1.709016	1.482806	0.355197
N103	N	1.272081	0.787204	-0.490719
N104	N	1.772081	1.287204	0.009281
N105	N	1.225324	0.746220	-0.529111
N106	N	1.725324	1.246220	-0.029111
H107	H	1.240729	0.728116	-0.584523
H108	H	1.740729	1.228116	-0.084523
H109	H	1.039815	0.792760	-0.436461
H110	H	1.539815	1.292760	0.063539
N111	N	1.063648	0.923828	-0.280853
N112	N	1.563648	1.423828	0.219147
N113	N	1.009726	0.878136	-0.264538
N114	N	1.509726	1.378136	0.235462
H115	H	0.954468	0.895902	-0.248192
H116	H	1.454468	1.395902	0.251808
N117	N	1.121239	0.924481	-0.530392
N118	N	1.621239	1.424481	-0.030392
N119	N	1.078138	0.905198	-0.588281
N120	N	1.578138	1.405198	-0.088281
H121	H	1.090783	0.923350	-0.644297
H122	H	1.590783	1.423350	-0.144297
H123	H	1.186110	0.792701	-0.255818
H124	H	1.686110	1.292701	0.244182
N125	N	1.024489	0.925891	-0.433213
N126	N	1.524489	1.425891	0.066787
N127	N	1.013840	0.968218	-0.374680
N128	N	1.513840	1.468218	0.125320
H129	H	0.958158	0.987364	-0.362058
H130	H	1.458158	1.487364	0.137942
N131	N	1.064893	0.786215	-0.280074
N132	N	1.564893	1.286215	0.219926
N133	N	1.026587	0.744113	-0.325730
N134	N	1.526587	1.244113	0.174270
H135	H	0.971919	0.725179	-0.309103
H136	H	1.471919	1.225179	0.190897
N137	N	1.311398	0.786023	-0.359360
N138	N	1.811398	1.286023	0.140640
N139	N	1.323968	0.718148	-0.353618
N140	N	1.823968	1.218148	0.146382
H141	H	1.367142	0.699214	-0.316248
H142	H	1.867142	1.199214	0.183752
N143	N	1.277114	0.925447	-0.486811
N144	N	1.777114	1.425447	0.013189
N145	N	1.233335	0.968342	-0.526151
N146	N	1.733335	1.468342	-0.026151
H147	H	1.251944	0.987386	-0.580119
H148	H	1.751944	1.487386	-0.080119
N149	N	1.308795	0.923947	-0.353327
N150	N	1.808795	1.423947	0.146673
N151	N	1.287528	0.965242	-0.296838
N152	N	1.787528	1.465242	0.203162
H153	H	1.328513	0.983227	-0.256526
H154	H	1.828513	1.483227	0.243474
