data_functionalizedCrystal
_audit_creation_method	'MofGen! by Chris Wilmer'
_symmetry_space_group_name_H-M	'P1'
_symmetry_Int_Tables_number	1
_symmetry_cell_setting	triclinic
loop_
_symmetry_equiv_pos_as_xyz
  x,y,z
_cell_length_a	10.540514
_cell_length_b	15.500215
_cell_length_c	10.540539
_cell_angle_alpha	93.154995
_cell_angle_beta	84.520326
_cell_angle_gamma	93.158088
loop_
_atom_site_label
_atom_site_type_symbol
_atom_site_fract_x
_atom_site_fract_y
_atom_site_fract_z
O1	O	1.691218	0.071951	0.184059
O2	O	1.321801	0.071950	0.200948
O3	O	1.514938	0.071949	0.007796
O4	O	1.498082	0.071952	0.377211
O5	O	1.504297	-0.071940	-0.002831
O6	O	1.311160	-0.071939	0.190321
O7	O	1.680577	-0.071938	0.173431
Cu8	Cu	1.494897	-0.085077	0.180906
Cu9	Cu	1.507482	0.085089	0.193474
O10	O	1.487441	-0.071938	0.366583
C11	C	1.269177	0.000005	0.194375
C12	C	1.128228	0.000005	0.190605
N13	N	1.486055	-0.204762	0.172065
C14	C	1.057522	0.000007	0.328746
C15	C	0.910933	0.000338	0.324896
C16	C	0.941955	0.082018	0.121536
C17	C	1.088499	0.082082	0.126394
C18	C	1.076800	-0.081553	0.112264
C19	C	0.929742	-0.082626	0.110852
C20	C	1.560399	-0.250035	0.246454
C21	C	1.553729	-0.340608	0.239760
C22	C	1.472707	-0.385907	0.158683
C23	C	1.398361	-0.340629	0.084285
C24	C	1.405038	-0.250057	0.090973
C25	C	1.448665	-0.659376	0.134595
C26	C	1.441990	-0.749953	0.127915
C27	C	1.597360	-0.749927	0.283389
C28	C	1.604025	-0.659353	0.290076
C29	C	1.529684	-0.614083	0.215673
C30	C	1.465884	-0.478488	0.151842
C31	C	1.536514	-0.521504	0.222508
C32	C	1.733202	0.000008	0.180005
C33	C	1.874152	0.000014	0.183775
C34	C	1.508353	0.000006	-0.044820
C35	C	1.504572	0.000011	-0.185768
N36	N	1.516333	0.204774	0.202305
C37	C	1.359677	0.000334	-0.369158
C38	C	1.363487	0.000010	-0.222564
C39	C	1.566391	-0.082157	-0.253500
C40	C	1.561571	-0.082226	-0.400050
C41	C	1.576542	0.081403	-0.388483
C42	C	1.577922	0.082490	-0.241420
C43	C	1.494026	0.000007	0.419200
C44	C	1.497807	0.000008	0.560148
H45	H	0.863923	-0.058431	0.374272
H46	H	1.614270	-0.377465	0.300334
H47	H	1.532738	0.143275	-0.196068
C48	C	1.090197	-0.079427	0.398587
N49	N	1.114814	-0.139261	0.451191
H50	H	1.669774	-0.085211	-0.231381
C51	C	1.278849	-0.078842	-0.415767
N52	N	1.217979	-0.138485	-0.450863
C53	C	1.521072	0.165538	-0.424883
N54	N	1.479277	0.228905	-0.452297
C55	C	1.297187	0.079578	-0.159121
N56	N	1.247240	0.139510	-0.111341
H57	H	1.399916	-0.515380	0.085829
C58	C	1.352867	-0.799781	0.038709
N59	N	1.285746	-0.837311	-0.028480
C60	C	1.104217	0.079337	0.409203
N61	N	1.139389	0.139090	0.469800
H62	H	1.121274	0.143615	0.180820
H63	H	1.388131	-0.622527	0.074010
H64	H	1.305325	-0.058990	-0.185160
H65	H	1.678488	0.081956	-0.435677
H66	H	1.308303	0.059257	-0.393401
C67	C	1.717385	0.089191	-0.208227
N68	N	1.822435	0.094230	-0.183231
C69	C	1.323251	-0.200258	0.009142
N70	N	1.261648	-0.162750	-0.052498
H71	H	1.514705	-0.143303	-0.215413
H72	H	0.873575	0.059468	0.382751
H73	H	1.670005	-0.622477	0.356094
C74	C	1.679141	-0.799732	0.365216
N75	N	1.740746	-0.837245	0.426847
H76	H	1.332397	-0.377518	0.018264
H77	H	1.602486	-0.484617	0.288517
H78	H	1.506850	-0.143648	-0.432781
H79	H	0.884261	-0.143293	0.156282
H80	H	1.662762	-0.085953	-0.448303
H81	H	1.123998	-0.082345	0.010312
C82	C	0.890510	0.164779	0.190883
N83	N	0.851740	0.227114	0.243104
C84	C	1.113127	-0.165549	0.168188
N85	N	1.140487	-0.228811	0.210324
C86	C	0.912086	0.085829	-0.018184
N87	N	0.889583	0.088700	-0.123420
C88	C	0.896540	-0.089653	-0.028606
N89	N	0.871531	-0.094941	-0.133649
H90	H	1.626368	-0.213159	0.312484
H91	H	1.136764	0.085583	0.025180
