data_functionalizedCrystal
_audit_creation_method	'MofGen! by Chris Wilmer'
_symmetry_space_group_name_H-M	'P1'
_symmetry_Int_Tables_number	1
_symmetry_cell_setting	triclinic
loop_
_symmetry_equiv_pos_as_xyz
  x,y,z
_cell_length_a	27.440280
_cell_length_b	15.698487
_cell_length_c	27.440280
_cell_angle_alpha	90.004726
_cell_angle_beta	60.004534
_cell_angle_gamma	59.999769
loop_
_atom_site_label
_atom_site_type_symbol
_atom_site_fract_x
_atom_site_fract_y
_atom_site_fract_z
Zr1	Zr	0.533333	-0.111673	0.469570
O2	O	0.635002	-0.247702	0.391764
O3	O	0.431669	-0.069974	0.493413
O4	O	0.533329	-0.247682	0.493425
O5	O	0.533345	0.070187	0.391751
O6	O	0.533319	-0.247664	0.573628
O7	O	0.533343	-0.069994	0.391751
O8	O	0.351469	0.070223	0.573605
O9	O	0.715194	-0.247701	0.391774
O10	O	0.473476	-0.052175	0.563447
O11	O	0.473485	0.052428	0.503592
O12	O	0.593175	-0.156801	0.503607
O13	O	0.593184	-0.052198	0.443753
Zr14	Zr	0.533321	0.111928	0.597485
Zr15	Zr	0.533318	-0.111645	0.597484
Zr16	Zr	0.533336	0.111900	0.469570
Zr17	Zr	0.661231	-0.111670	0.469586
Zr18	Zr	0.405424	0.111926	0.597468
O19	O	0.634985	0.070229	0.573642
O20	O	0.634981	-0.247662	0.573641
O21	O	0.635006	0.070189	0.391764
O22	O	0.431652	0.247958	0.675291
O23	O	0.431648	-0.069934	0.675290
O24	O	0.431674	0.247918	0.493413
O25	O	0.533310	-0.069932	0.675303
O26	O	0.533326	0.247938	0.573629
O27	O	0.533335	0.247920	0.493426
O28	O	0.533312	0.070249	0.675304
O29	O	0.715183	-0.247678	0.493449
O30	O	0.351472	0.247934	0.573606
O31	O	0.351460	0.247956	0.675280
O32	O	0.351458	0.070246	0.675280
O33	O	0.715197	-0.069990	0.391774
O34	O	0.715185	-0.069968	0.493449
O35	O	0.473479	0.157057	0.563447
O36	O	0.473471	0.052454	0.623301
O37	O	0.593170	-0.052172	0.563462
O38	O	0.593178	0.052430	0.503608
C39	C	0.373347	0.000125	0.533507
C40	C	0.319051	0.000123	0.533500
C41	C	0.533346	0.000093	0.373526
C42	C	0.533352	0.000081	0.319223
C43	C	0.533331	0.279783	0.533528
C44	C	0.533332	0.374696	0.533528
C45	C	-0.017696	-0.054464	0.564787
C46	C	-0.068719	-0.054462	0.564793
O47	O	-0.095129	-0.100866	0.591382
N48	N	-0.094231	0.000138	0.533549
C49	C	-0.068721	0.054746	0.502302
O50	O	-0.095107	0.101188	0.475728
C51	C	-0.017702	0.054749	0.502301
C52	C	0.007812	0.000137	0.533542
C53	C	0.007818	-0.109071	0.596026
C54	C	0.058839	-0.109075	0.596020
C55	C	0.084347	-0.054473	0.564774
C56	C	0.058833	0.000133	0.533535
C57	C	0.007804	0.109363	0.471058
C58	C	0.058826	0.109362	0.471060
C59	C	0.084340	0.054750	0.502301
C60	C	0.135362	0.054731	0.502283
N61	N	0.160874	0.000132	0.533527
C62	C	0.135366	-0.054470	0.564773
C63	C	-0.175867	0.054738	0.502309
C64	C	-0.226882	0.054730	0.502307
C65	C	-0.226877	-0.054477	0.564798
C66	C	-0.175858	-0.054474	0.564796
C67	C	-0.150355	0.000139	0.533553
C68	C	0.242515	-0.054476	0.564756
C69	C	0.293543	-0.054479	0.564745
C70	C	0.293532	0.054732	0.502257
C71	C	0.242511	0.054731	0.502265
C72	C	0.217002	0.000125	0.533519
O73	O	0.161803	0.101115	0.475710
O74	O	0.161752	-0.100893	0.591349
C75	C	0.693308	0.000131	0.533548
C76	C	0.747604	0.000132	0.533555
C77	C	0.533323	-0.279528	0.533527
C78	C	0.533322	-0.374440	0.533526
C79	C	0.533320	0.548481	0.533528
C80	C	0.533324	0.451777	0.533529
C81	C	0.470834	0.054770	0.013761
C82	C	0.470830	0.054780	-0.037258
O83	O	0.417692	0.101258	-0.037081
N84	N	0.533311	0.000165	-0.094010
C85	C	0.595800	-0.054454	-0.099743
O86	O	0.648945	-0.100907	-0.152700
C87	C	0.595803	-0.054457	-0.048725
C88	C	0.533318	0.000153	0.008027
C89	C	0.408354	0.109377	0.070510
C90	C	0.408358	0.109366	0.121525
C91	C	0.470842	0.054748	0.115791
C92	C	0.533322	0.000142	0.059042
C93	C	0.658291	-0.109069	-0.054458
C94	C	0.658289	-0.109066	-0.003434
C95	C	0.595804	-0.054456	0.053317
C96	C	0.595810	-0.054486	0.104322
N97	N	0.533329	0.000128	0.161074
C98	C	0.470845	0.054746	0.166808
C99	C	0.595789	-0.054443	-0.206881
C100	C	0.595787	-0.054448	-0.257899
C101	C	0.470817	0.054788	-0.195410
C102	C	0.470820	0.054786	-0.144392
C103	C	0.533308	0.000172	-0.150129
C104	C	0.470859	0.054718	0.273941
C105	C	0.470868	0.054698	0.324957
C106	C	0.595838	-0.054533	0.262464
C107	C	0.595829	-0.054518	0.211452
C108	C	0.533334	0.000115	0.217194
O109	O	0.648921	-0.100938	0.104191
O110	O	0.417710	0.101202	0.219767
C111	C	0.533308	0.000163	0.693528
C112	C	0.533302	0.000175	0.747831
C113	C	0.373328	0.000160	0.693508
C114	C	0.319026	0.000170	0.747804
C115	C	0.373351	0.279780	0.533507
C116	C	0.319056	0.374691	0.533500
C117	C	0.373332	0.279815	0.693508
C118	C	0.319031	0.374738	0.747805
C119	C	0.693323	-0.279559	0.373546
C120	C	0.747624	-0.374483	0.319250
C121	C	0.693326	0.000096	0.373547
C122	C	0.747629	0.000085	0.319251
C123	C	0.693304	-0.279524	0.533547
C124	C	0.747598	-0.374436	0.533554
C125	C	0.293528	-0.054449	0.742058
C126	C	0.242512	-0.054460	0.793070
C127	C	0.216992	0.000156	0.849827
C128	C	0.242495	0.054777	0.855571
C129	C	0.293513	0.054781	0.804560
C130	C	0.293556	0.473887	0.564741
C131	C	0.242547	0.563075	0.564732
C132	C	0.217037	0.553065	0.533486
C133	C	0.242542	0.453858	0.502242
C134	C	0.293553	0.364673	0.502248
C135	C	0.293526	0.364714	0.804551
C136	C	0.242512	0.453896	0.855573
C137	C	0.216999	0.553101	0.849847
C138	C	0.242509	0.563123	0.793094
C139	C	0.293526	0.473942	0.742074
C140	C	0.773135	-0.364458	0.262503
C141	C	0.824165	-0.453640	0.211482
C142	C	0.849680	-0.552845	0.217208
C143	C	0.824167	-0.562868	0.273960
C144	C	0.773141	-0.473687	0.324981
C145	C	0.773132	0.054695	0.324996
C146	C	0.824162	0.054682	0.273985
C147	C	0.849684	0.000063	0.217228
C148	C	0.824178	-0.054554	0.211483
C149	C	0.773153	-0.054545	0.262495
C150	C	0.773093	-0.364392	0.564806
C151	C	0.824102	-0.453563	0.564824
C152	C	0.849619	-0.552776	0.533586
C153	C	0.824119	-0.562818	0.502334
C154	C	0.773108	-0.473648	0.502319
H155	H	0.221751	-0.098939	0.590207
H156	H	0.221747	0.445717	0.901779
H157	H	0.646709	-0.098999	0.165241
O158	O	0.663180	-0.113357	-0.319107
H159	H	0.706626	-0.151328	-0.314517
H160	H	0.314308	0.283906	0.476810
H161	H	0.314291	0.283944	0.809225
O162	O	0.745624	0.113594	0.386207
H163	H	0.722394	0.197525	0.391396
O164	O	0.321003	0.113712	0.810760
H165	H	0.294676	0.151696	0.858798
H166	H	0.844929	-0.445459	0.165276
H167	H	0.844903	-0.643609	0.476901
O168	O	0.745569	-0.257388	0.598508
H169	H	0.771866	-0.265402	0.620247
O170	O	0.745620	-0.484486	0.468602
H171	H	0.771943	-0.568458	0.446879
H172	H	0.221709	0.099242	0.901790
O173	O	0.161966	0.649287	0.904879
H174	H	0.148515	0.625639	0.945298
H175	H	0.752370	-0.481861	0.371185
O176	O	0.904711	0.000086	0.162217
H177	H	0.951211	-0.081228	0.135275
H178	H	0.314321	0.482058	0.590185
H179	H	0.844966	-0.099023	0.165265
H180	H	0.891156	-0.625375	0.533603
O181	O	0.321033	0.113664	0.468592
H182	H	0.377316	0.058557	0.434067
H183	H	0.314316	-0.098953	0.590185
H184	H	0.752363	-0.283688	0.257830
H185	H	0.079608	-0.153541	0.621461
H186	H	0.221754	-0.098939	0.788381
H187	H	0.752390	-0.099013	0.257808
O188	O	0.851691	-0.669874	0.280128
H189	H	0.825387	-0.661876	0.328158
O190	O	0.725687	-0.167969	-0.115662
H191	H	0.755640	-0.136397	-0.120840
O192	O	-0.148347	-0.113373	0.598496
H193	H	-0.092069	-0.173744	0.566957
O194	O	0.214981	0.670126	0.786921
H195	H	0.175213	0.730445	0.831936
O196	O	-0.019684	-0.167978	0.629723
H197	H	0.006641	-0.205951	0.651436
H198	H	0.314286	0.482119	0.695870
O199	O	0.663191	-0.113371	-0.213071
H200	H	0.706632	-0.151353	-0.261107
O201	O	0.851602	-0.442721	0.598532
H202	H	0.825294	-0.358750	0.620240
O203	O	-0.254397	-0.113365	0.598505
H204	H	-0.294165	-0.104178	0.593260
H205	H	0.844920	0.099161	0.278673
O206	O	0.725688	-0.167980	-0.009622
H207	H	0.769132	-0.205956	-0.057657
O208	O	0.215032	0.670069	0.598443
H209	H	0.241333	0.662037	0.620181
O210	O	0.215000	0.443085	0.468562
H211	H	0.224780	0.481110	0.434037
H212	H	0.419969	0.099206	0.278625
H213	H	-0.247643	0.099187	0.476860
H214	H	-0.012962	0.153835	0.445619
O215	O	-0.148349	0.113627	0.468598
H216	H	-0.174659	0.151579	0.446870
H217	H	0.079589	0.153833	0.445616
H218	H	0.221744	0.099186	0.476818
O219	O	0.162005	0.649262	0.533494
H220	H	0.148556	0.719917	0.560476
H221	H	0.419983	0.099171	0.371167
O222	O	0.663208	-0.113519	0.256323
H223	H	0.666226	-0.058444	0.278086
O224	O	0.340963	0.168270	0.182732
H225	H	0.311007	0.252205	0.187921
O226	O	0.340955	0.168277	0.076701
H227	H	0.297517	0.206232	0.124738
O228	O	0.403427	0.113687	-0.083182
H229	H	0.373467	0.197622	-0.077991
O230	O	0.403419	0.113711	-0.189227
H231	H	0.413920	0.104543	-0.234239
O232	O	0.321054	-0.113371	0.680845
H233	H	0.294754	-0.151360	0.685429
H234	H	0.891228	-0.625454	0.175659
O235	O	0.161959	0.000157	0.904845
H236	H	0.148515	-0.046993	0.891309
