data_functionalizedCrystal
_audit_creation_method	'MofGen! by Chris Wilmer'
_symmetry_space_group_name_H-M	'P1'
_symmetry_Int_Tables_number	1
_symmetry_cell_setting	triclinic
loop_
_symmetry_equiv_pos_as_xyz
  x,y,z
_cell_length_a	17.077404
_cell_length_b	18.215405
_cell_length_c	18.215399
_cell_angle_alpha	89.969449
_cell_angle_beta	89.980408
_cell_angle_gamma	90.025110
loop_
_atom_site_label
_atom_site_type_symbol
_atom_site_fract_x
_atom_site_fract_y
_atom_site_fract_z
Zn1	Zn	1.200044	-0.292987	-0.416098
Zn2	Zn	1.533378	0.040346	-0.082765
Zn3	Zn	1.866711	0.373679	0.250569
Zn4	Zn	1.199947	-0.416059	-0.293026
Zn5	Zn	1.533280	-0.082725	0.040307
Zn6	Zn	1.866613	0.250608	0.373641
Zn7	Zn	1.068776	-0.293011	-0.293046
Zn8	Zn	1.402109	0.040322	0.040288
Zn9	Zn	1.735443	0.373656	0.373621
Zn10	Zn	1.068740	-0.416017	-0.416051
Zn11	Zn	1.402073	-0.082684	-0.082718
Zn12	Zn	1.735406	0.250649	0.250615
O13	O	1.134377	-0.354519	-0.354555
O14	O	1.467710	-0.021185	-0.021222
O15	O	1.801043	0.312148	0.312111
O16	O	1.309878	-0.309321	-0.399783
O17	O	1.643212	0.024013	-0.066450
O18	O	1.976545	0.357346	0.266883
O19	O	1.182521	-0.399763	-0.190044
O20	O	1.515854	-0.066430	0.143289
O21	O	1.849188	0.266903	0.476622
O22	O	1.086245	-0.190024	-0.309397
O23	O	1.419579	0.143310	0.023937
O24	O	1.752912	0.476643	0.357270
O25	O	1.309807	-0.399740	-0.309363
O26	O	1.643140	-0.066407	0.023970
O27	O	1.976473	0.266926	0.357304
O28	O	1.182688	-0.190006	-0.399802
O29	O	1.516021	0.143327	-0.066469
O30	O	1.849354	0.476660	0.266864
O31	O	1.086150	-0.309361	-0.190059
O32	O	1.419484	0.023973	0.143275
O33	O	1.752817	0.357306	0.476608
O34	O	0.958924	-0.309321	-0.309352
O35	O	1.292258	0.024013	0.023982
O36	O	1.625591	0.357346	0.357315
O37	O	1.086183	-0.399670	-0.519042
O38	O	1.419516	-0.066337	-0.185709
O39	O	1.752850	0.266997	0.147625
O40	O	0.958898	-0.399693	-0.399723
O41	O	1.292231	-0.066359	-0.066390
O42	O	1.625564	0.266974	0.266943
O43	O	1.182652	-0.309280	-0.519076
O44	O	1.515986	0.024053	-0.185743
O45	O	1.849319	0.357386	0.147591
O46	O	1.182486	-0.519037	-0.309318
O47	O	1.515819	-0.185704	0.024015
O48	O	1.849152	0.147629	0.357349
O49	O	1.086088	-0.519007	-0.399704
O50	O	1.419422	-0.185674	-0.066371
O51	O	1.752755	0.147660	0.266963
C52	C	0.930429	-0.354505	-0.354535
C53	C	1.263762	-0.021172	-0.021202
C54	C	1.597096	0.312161	0.312132
C55	C	0.843179	-0.354517	-0.354544
C56	C	1.176512	-0.021184	-0.021210
C57	C	1.509846	0.312149	0.312123
C58	C	0.802196	-0.401645	-0.401525
C59	C	1.135529	-0.068312	-0.068191
C60	C	1.468862	0.265022	0.265142
C61	C	0.720215	-0.401647	-0.401537
C62	C	1.053548	-0.068313	-0.068203
C63	C	1.386882	0.265020	0.265130
C64	C	0.679220	-0.354524	-0.354563
C65	C	1.012553	-0.021190	-0.021230
C66	C	1.345886	0.312143	0.312104
C67	C	0.720209	-0.307391	-0.307580
C68	C	1.053542	0.025943	0.025754
C69	C	1.386876	0.359276	0.359087
C70	C	0.802188	-0.307386	-0.307572
C71	C	1.135521	0.025947	0.025761
C72	C	1.468855	0.359281	0.359094
C73	C	0.549339	-0.307405	-0.307598
C74	C	0.882672	0.025928	0.025736
C75	C	1.216006	0.359262	0.359069
C76	C	0.467354	-0.307411	-0.307604
C77	C	0.800688	0.025923	0.025729
C78	C	1.134021	0.359256	0.359063
C79	C	0.467366	-0.401666	-0.401562
C80	C	0.800699	-0.068333	-0.068228
C81	C	1.134033	0.265001	0.265105
C82	C	0.549345	-0.401661	-0.401554
C83	C	0.882678	-0.068328	-0.068221
C84	C	1.216012	0.265006	0.265112
C85	C	0.590329	-0.354529	-0.354570
C86	C	0.923662	-0.021196	-0.021237
C87	C	1.256995	0.312138	0.312097
C88	C	1.134294	-0.545725	-0.354520
C89	C	1.467627	-0.212392	-0.021186
C90	C	1.800960	0.120942	0.312147
C91	C	1.134330	-0.627524	-0.354529
C92	C	1.467663	-0.294190	-0.021196
C93	C	1.800997	0.039143	0.312137
C94	C	1.184642	-0.815709	-0.307552
C95	C	1.517975	-0.482376	0.025782
C96	C	1.851309	-0.149042	0.359115
C97	C	1.184677	-0.892568	-0.307570
C98	C	1.518011	-0.559234	0.025764
C99	C	1.851344	-0.225901	0.359097
C100	C	1.084212	-0.892576	-0.401612
C101	C	1.417545	-0.559243	-0.068278
C102	C	1.750878	-0.225909	0.265055
C103	C	1.084181	-0.815719	-0.401597
C104	C	1.417515	-0.482385	-0.068264
C105	C	1.750848	-0.149052	0.265070
C106	C	1.134395	-0.777287	-0.354563
C107	C	1.467729	-0.443954	-0.021230
C108	C	1.801062	-0.110621	0.312104
C109	C	1.134461	-0.931003	-0.354595
C110	C	1.467794	-0.597670	-0.021262
C111	C	1.801128	-0.264337	0.312071
C112	C	1.134499	-1.014337	-0.354615
C113	C	1.467832	-0.681004	-0.021282
C114	C	1.801165	-0.347670	0.312052
C115	C	1.134359	-0.693948	-0.354544
C116	C	1.467692	-0.360615	-0.021211
C117	C	1.801025	-0.027282	0.312123
C118	C	1.339121	-0.354533	-0.354576
C119	C	1.672454	-0.021199	-0.021243
C120	C	2.005788	0.312134	0.312091
C121	C	1.426371	-0.354538	-0.354585
C122	C	1.759704	-0.021205	-0.021252
C123	C	2.093037	0.312128	0.312082
C124	C	1.134425	-0.354468	-0.546508
C125	C	1.467758	-0.021135	-0.213175
C126	C	1.801091	0.312199	0.120158
C127	C	1.134445	-0.354446	-0.628307
C128	C	1.467778	-0.021113	-0.294974
C129	C	1.801112	0.312220	0.038359
C130	C	1.134481	-0.162566	-0.354607
C131	C	1.467815	0.170768	-0.021274
C132	C	1.801148	0.504101	0.312060
C133	C	1.134526	-0.080767	-0.354629
C134	C	1.467859	0.252567	-0.021296
C135	C	1.801193	0.585900	0.312038
C136	C	1.184694	-0.307336	-0.816520
C137	C	1.518028	0.025997	-0.483187
C138	C	1.851361	0.359330	-0.149853
C139	C	1.184704	-0.307315	-0.893379
C140	C	1.518037	0.026018	-0.560046
C141	C	1.851370	0.359352	-0.226712
C142	C	1.084251	-0.401442	-0.893332
C143	C	1.417584	-0.068109	-0.559999
C144	C	1.750918	0.265224	-0.226665
C145	C	1.084238	-0.401459	-0.816475
C146	C	1.417572	-0.068126	-0.483141
C147	C	1.750905	0.265207	-0.149808
C148	C	1.134464	-0.354408	-0.778071
C149	C	1.467798	-0.021074	-0.444737
C150	C	1.801131	0.312259	-0.111404
C151	C	1.134486	-0.354369	-0.931787
C152	C	1.467820	-0.021036	-0.598454
C153	C	1.801153	0.312298	-0.265120
C154	C	1.134496	-0.354346	-1.015121
C155	C	1.467830	-0.021013	-0.681787
C156	C	1.801163	0.312321	-0.348454
C157	C	1.134454	-0.354429	-0.694732
C158	C	1.467787	-0.021096	-0.361398
C159	C	1.801120	0.312237	-0.028065
C160	C	1.134374	-0.354516	-0.163349
C161	C	1.467708	-0.021183	0.169984
C162	C	1.801041	0.312151	0.503318
C163	C	1.134506	-0.354330	-0.081551
C164	C	1.467839	-0.020997	0.251783
C165	C	1.801173	0.312336	0.585116
H166	H	0.686850	-0.440023	-0.439793
H167	H	1.020183	-0.106690	-0.106459
H168	H	1.353517	0.226643	0.226874
O169	O	1.233461	-0.778296	-0.261971
O170	O	1.566794	-0.444962	0.071362
O171	O	1.900128	-0.111629	0.404695
C172	C	1.284128	-0.733783	-0.303908
C173	C	1.617462	-0.400449	0.029425
C174	C	1.950795	-0.067116	0.362759
H175	H	1.256400	-0.722247	-0.359651
H176	H	1.589734	-0.388913	-0.026318
H177	H	1.923067	-0.055580	0.307016
H178	H	1.294648	-0.679752	-0.273929
H179	H	1.627982	-0.346418	0.059404
H180	H	1.961315	-0.013085	0.392738
H181	H	1.342306	-0.763354	-0.312054
H182	H	1.675639	-0.430020	0.021279
H183	H	2.008972	-0.096687	0.354612
H184	H	1.043328	-0.923876	-0.439904
H185	H	1.376661	-0.590543	-0.106571
H186	H	1.709995	-0.257210	0.226763
O187	O	1.233510	-0.929777	-0.261832
O188	O	1.566844	-0.596443	0.071502
O189	O	1.900177	-0.263110	0.404835
C190	C	1.277835	-0.879372	-0.220333
C191	C	1.611169	-0.546039	0.113001
C192	C	1.944502	-0.212705	0.446334
H193	H	1.245660	-0.824613	-0.217745
H194	H	1.578993	-0.491280	0.115588
H195	H	1.912327	-0.157946	0.448921
H196	H	1.286255	-0.901614	-0.162361
H197	H	1.619588	-0.568281	0.170972
H198	H	1.952922	-0.234948	0.504306
H199	H	1.337432	-0.871130	-0.247332
H200	H	1.670765	-0.537797	0.086001
H201	H	2.004099	-0.204463	0.419334
H202	H	0.433993	-0.440040	-0.439820
H203	H	0.767327	-0.106707	-0.106487
H204	H	1.100660	0.226626	0.226846
H205	H	1.043264	-0.784434	-0.439882
H206	H	1.376597	-0.451100	-0.106549
H207	H	1.709931	-0.117767	0.226784
O208	O	1.233502	-0.261558	-0.779328
O209	O	1.566835	0.071775	-0.445994
O210	O	1.900168	0.405109	-0.112661
C211	C	1.277850	-0.220020	-0.829749
C212	C	1.611184	0.113313	-0.496416
C213	C	1.944517	0.446647	-0.163083
H214	H	1.245707	-0.217461	-0.884531
H215	H	1.579041	0.115873	-0.551197
H216	H	1.912374	0.449206	-0.217864
H217	H	1.286247	-0.162041	-0.807563
H218	H	1.619581	0.171292	-0.474230
H219	H	1.952914	0.504626	-0.140897
H220	H	1.337456	-0.246968	-0.837926
H221	H	1.670790	0.086366	-0.504593
H222	H	2.004123	0.419699	-0.171259
H223	H	0.582721	-0.440037	-0.439800
H224	H	0.916055	-0.106704	-0.106467
H225	H	1.249388	0.226630	0.226866
O226	O	1.035552	-0.447224	-0.779039
O227	O	1.368885	-0.113891	-0.445706
O228	O	1.702219	0.219442	-0.112372
C229	C	1.080214	-0.494778	-0.734587
C230	C	1.413547	-0.161445	-0.401254
C231	C	1.746880	0.171889	-0.067920
H232	H	1.139714	-0.468827	-0.723095
H233	H	1.473047	-0.135494	-0.389762
H234	H	1.806380	0.197840	-0.056428
H235	H	1.048228	-0.504648	-0.680530
H236	H	1.381561	-0.171314	-0.347197
H237	H	1.714895	0.162019	-0.013864
H238	H	1.088814	-0.549311	-0.764189
H239	H	1.422147	-0.215978	-0.430855
H240	H	1.755481	0.117355	-0.097522
H241	H	0.433978	-0.269030	-0.269363
H242	H	0.767311	0.064303	0.063971
H243	H	1.100645	0.397636	0.397304
H244	H	1.225605	-0.268984	-0.924681
H245	H	1.558938	0.064350	-0.591348
H246	H	1.892271	0.397683	-0.258014
O247	O	0.842102	-0.447319	-0.447192
O248	O	1.175435	-0.113985	-0.113859
O249	O	1.508768	0.219348	0.219474
C250	C	0.889545	-0.405476	-0.494808
C251	C	1.222879	-0.072143	-0.161475
C252	C	1.556212	0.261190	0.171858
H253	H	0.901838	-0.349672	-0.468952
H254	H	1.235172	-0.016339	-0.135618
H255	H	1.568505	0.316995	0.197715
H256	H	0.947185	-0.435462	-0.504613
H257	H	1.280518	-0.102129	-0.171280
H258	H	1.613852	0.231204	0.162054
H259	H	0.857979	-0.397460	-0.549363
H260	H	1.191312	-0.064127	-0.216029
H261	H	1.524646	0.269206	0.117304
O262	O	1.035541	-0.447126	-0.930753
O263	O	1.368875	-0.113792	-0.597420
O264	O	1.702208	0.219541	-0.264086
C265	C	1.046309	-0.437006	-1.006835
C266	C	1.379643	-0.103673	-0.673501
C267	C	1.712976	0.229660	-0.340168
H268	H	1.106903	-0.412904	-1.017350
H269	H	1.440236	-0.079571	-0.684017
H270	H	1.773569	0.253762	-0.350683
H271	H	1.040962	-0.492124	-1.036026
H272	H	1.374295	-0.158791	-0.702693
H273	H	1.707628	0.174542	-0.369359
H274	H	0.999773	-0.397809	-1.028650
H275	H	1.333106	-0.064476	-0.695317
H276	H	1.666439	0.268857	-0.361983
H277	H	0.582705	-0.269019	-0.269344
H278	H	0.916039	0.064315	0.063989
H279	H	1.249372	0.397648	0.397322
O280	O	0.680473	-0.261651	-0.261849
O281	O	1.013806	0.071683	0.071485
O282	O	1.347139	0.405016	0.404818
C283	C	0.700449	-0.277648	-0.188468
C284	C	1.033782	0.055685	0.144865
C285	C	1.367115	0.389019	0.478199
H286	H	0.759960	-0.305930	-0.186884
H287	H	1.093293	0.027403	0.146449
H288	H	1.426627	0.360736	0.479783
H289	H	0.703256	-0.224492	-0.155567
H290	H	1.036589	0.108842	0.177767
H291	H	1.369923	0.442175	0.511100
H292	H	0.654284	-0.315456	-0.163616
H293	H	0.987618	0.017877	0.169717
H294	H	1.320951	0.351210	0.503051
H295	H	0.835556	-0.269006	-0.269319
H296	H	1.168889	0.064328	0.064014
H297	H	1.502222	0.397661	0.397347
