data_functionalizedCrystal
_audit_creation_method	'MofGen! by Chris Wilmer'
_symmetry_space_group_name_H-M	'P1'
_symmetry_Int_Tables_number	1
_symmetry_cell_setting	triclinic
loop_
_symmetry_equiv_pos_as_xyz
  x,y,z
_cell_length_a	6.817900
_cell_length_b	15.866870
_cell_length_c	16.015572
_cell_angle_alpha	95.305972
_cell_angle_beta	104.485554
_cell_angle_gamma	102.655915
loop_
_atom_site_label
_atom_site_type_symbol
_atom_site_fract_x
_atom_site_fract_y
_atom_site_fract_z
V1	V	-3.996844	-0.034800	-0.280476
O2	O	-3.966447	0.088700	-0.236015
O3	O	-3.966340	-0.152703	-0.316185
O4	O	-3.927287	0.003921	-0.385636
O5	O	-4.005770	-0.069009	-0.166083
V6	V	-4.480895	-0.024540	-0.262223
O7	O	-4.256945	-0.057306	-0.320516
O8	O	-4.670991	-0.002034	-0.222183
O9	O	-4.288193	0.093362	-0.226515
O10	O	-4.628689	-0.148040	-0.306685
O11	O	-4.589366	0.009668	-0.376616
O12	O	-4.327246	-0.063262	-0.157064
C13	C	-3.816378	-0.182638	-0.321469
C14	C	-3.872583	-0.278779	-0.351366
C15	C	-3.766562	0.017152	-0.410059
C16	C	-3.791093	0.048031	-0.496274
C17	C	-3.917279	-0.657597	-0.074048
C18	C	-3.970096	-0.747931	-0.102166
C19	C	-4.026156	-0.722870	-0.252428
C20	C	-3.973333	-0.632531	-0.224321
C21	C	-3.918899	-0.599902	-0.135131
C22	C	-3.974953	-0.574837	-0.285404
C23	C	-3.922145	-0.484506	-0.257300
C24	C	-3.867716	-0.451870	-0.168113
C25	C	-3.866091	-0.509571	-0.107027
C26	C	-4.029402	-0.607468	-0.374595
C27	C	-4.031022	-0.549773	-0.435678
C28	C	-3.978199	-0.459441	-0.407574
C29	C	-3.923770	-0.426804	-0.318387
C30	C	-3.979824	-0.401739	-0.468660
C31	C	-3.927016	-0.311408	-0.440556
C32	C	-3.870962	-0.336474	-0.290283
C33	C	-4.121327	-0.226050	-0.961199
C34	C	-4.144378	-0.197007	-1.042199
C35	C	-4.044584	-0.046745	-0.969635
C36	C	-4.021514	-0.075776	-0.888628
C37	C	-4.059892	-0.165429	-0.884418
C38	C	-3.960078	-0.015155	-0.811846
C39	C	-3.937021	-0.044184	-0.730846
C40	C	-3.975400	-0.133834	-0.726628
C41	C	-4.036835	-0.194459	-0.803418
C42	C	-3.921715	0.074498	-0.816058
C43	C	-3.860280	0.135118	-0.739276
C44	C	-3.837207	0.106090	-0.658274
C45	C	-3.875586	0.016440	-0.654056
C46	C	-3.775772	0.166714	-0.581484
C47	C	-3.752715	0.137685	-0.500484
C48	C	-3.852529	-0.012589	-0.573056
C49	C	-4.101498	0.123292	-0.221230
C50	C	-4.024530	0.219434	-0.191339
C51	C	-4.151314	-0.076497	-0.132637
C52	C	-4.106021	-0.107372	-0.046420
H53	H	-3.824726	-0.378316	-0.145233
C54	C	-3.858438	-0.622039	0.022752
C55	C	-3.998242	-0.573765	0.038280
C56	C	-3.944093	-0.540983	0.127434
H57	H	-3.865040	-0.669245	0.055214
H58	H	-3.720266	-0.585324	0.040232
H59	H	-4.136379	-0.610478	0.020811
H60	H	-3.991661	-0.526546	0.005840
H61	H	-3.805920	-0.504268	0.144913
H62	H	-3.950695	-0.588195	0.159888
H63	H	-4.038928	-0.508219	0.137980
C64	C	-3.968104	-0.810430	-0.035703
C65	C	-3.909083	-0.762515	0.048419
C66	C	-3.907206	-0.820058	0.109665
H67	H	-4.103904	-0.848157	-0.046805
H68	H	-3.871025	-0.844231	-0.040110
H69	H	-4.006158	-0.728729	0.052823
H70	H	-3.773280	-0.724790	0.059549
H71	H	-3.810128	-0.853859	0.105258
H72	H	-4.043011	-0.857782	0.098555
H73	H	-3.867143	-0.787556	0.166749
H74	H	-4.070490	-0.749450	-0.325048
H75	H	-4.075357	-0.576353	-0.508298
H76	H	-3.826605	-0.309905	-0.217654
H77	H	-4.068059	-0.267463	-0.799991
C78	C	-3.928791	-0.248901	-0.507004
C79	C	-3.987707	-0.296809	-0.591126
C80	C	-3.989350	-0.239257	-0.652360
H81	H	-4.025807	-0.215066	-0.502657
H82	H	-3.792899	-0.211206	-0.495832
H83	H	-4.123580	-0.334489	-0.602295
H84	H	-3.890712	-0.330641	-0.595501
H85	H	-3.853457	-0.201561	-0.641188
H86	H	-4.086365	-0.205425	-0.648005
H87	H	-4.029305	-0.271753	-0.709443
C88	C	-3.807250	-0.474014	-0.010226
C89	C	-3.947055	-0.425740	0.005302
C90	C	-3.892905	-0.392958	0.094456
H91	H	-3.813852	-0.521220	0.022235
H92	H	-3.669078	-0.437299	0.007253
H93	H	-4.085192	-0.462452	-0.012168
H94	H	-3.940473	-0.378521	-0.027138
H95	H	-3.754733	-0.356243	0.111935
H96	H	-3.899508	-0.440169	0.126909
H97	H	-3.987741	-0.360194	0.105002
H98	H	-4.072401	-0.681022	-0.397475
H99	H	-3.829045	0.208115	-0.742717
C100	C	-4.162781	-0.323352	-0.956435
C101	C	-4.129389	-0.335793	-0.869062
C102	C	-4.167526	-0.425410	-0.864635
H103	H	-4.303460	-0.351438	-0.987960
H104	H	-4.070583	-0.347615	-0.981165
H105	H	-4.221585	-0.311540	-0.844343
H106	H	-3.988720	-0.307727	-0.837519
H107	H	-4.075328	-0.449673	-0.889366
H108	H	-4.308206	-0.453488	-0.896164
H109	H	-4.144857	-0.433862	-0.805353
C110	C	-4.211156	-0.262695	-1.125667
C111	C	-4.223185	-0.218088	-1.197508
C112	C	-4.284723	-0.278569	-1.274412
H113	H	-4.111564	-0.296481	-1.124018
H114	H	-4.344364	-0.300187	-1.130757
H115	H	-4.089996	-0.180611	-1.192419
H116	H	-4.322783	-0.184305	-1.199185
H117	H	-4.417932	-0.316061	-1.279502
H118	H	-4.185124	-0.312352	-1.272755
H119	H	-4.292912	-0.248312	-1.323166
C120	C	-4.038895	-0.437340	-0.565452
C121	C	-4.084760	-0.528797	-0.576989
C122	C	-4.139158	-0.561621	-0.666141
H123	H	-4.158243	-0.419423	-0.595189
H124	H	-3.925305	-0.415495	-0.588363
H125	H	-4.198340	-0.550634	-0.554089
H126	H	-3.965440	-0.546738	-0.547273
H127	H	-4.025568	-0.539775	-0.689052
H128	H	-4.258502	-0.543698	-0.695870
H129	H	-4.170266	-0.623676	-0.673980
C130	C	-3.734118	0.264014	-0.586242
C131	C	-3.767426	0.276461	-0.673612
C132	C	-3.729048	0.366083	-0.678026
H133	H	-3.826204	0.288351	-0.561524
H134	H	-3.593377	0.292027	-0.554697
H135	H	-3.908145	0.248460	-0.705145
H136	H	-3.675348	0.252144	-0.698347
H137	H	-3.588308	0.394096	-0.646480
H138	H	-3.821138	0.390412	-0.653305
H139	H	-3.751623	0.374540	-0.737304
H140	H	-3.883753	-0.085593	-0.569629
H141	H	-4.013349	0.026251	-0.973076
H142	H	-3.702689	0.187049	-0.437965
H143	H	-3.956629	-0.157468	-0.660671
H144	H	-3.940461	0.098131	-0.882015
