data_functionalizedCrystal
_audit_creation_method	'MofGen! by Chris Wilmer'
_symmetry_space_group_name_H-M	'P1'
_symmetry_Int_Tables_number	1
_symmetry_cell_setting	triclinic
loop_
_symmetry_equiv_pos_as_xyz
  x,y,z
_cell_length_a	16.109301
_cell_length_b	15.944551
_cell_length_c	15.186229
_cell_angle_alpha	89.995303
_cell_angle_beta	89.999362
_cell_angle_gamma	83.480109
loop_
_atom_site_label
_atom_site_type_symbol
_atom_site_fract_x
_atom_site_fract_y
_atom_site_fract_z
O1	O	1.103166	0.107966	-0.073175
O2	O	0.861108	0.121402	-0.073189
O3	O	0.988747	-0.007593	-0.073174
O4	O	0.975527	0.236961	-0.073190
O5	O	0.988738	-0.007594	0.073284
O6	O	0.861099	0.121401	0.073268
O7	O	1.103157	0.107964	0.073282
Zn8	Zn	0.982127	0.114682	0.096529
Zn9	Zn	0.982138	0.114685	-0.096435
O10	O	0.975518	0.236960	0.073267
C11	C	0.830129	0.120857	0.000038
C12	C	0.737833	0.119226	0.000033
C13	C	0.988194	-0.038887	0.000055
C14	C	0.986548	-0.132133	0.000056
C15	C	0.515584	0.191975	0.000038
C16	C	0.428863	0.190435	0.000044
C17	C	0.448688	0.037387	0.000050
C18	C	0.535407	0.038927	0.000051
C19	C	0.568853	0.116224	0.000040
C20	C	0.395412	0.113143	0.000045
C21	C	0.301386	0.111473	0.000052
C22	C	0.662885	0.117894	0.000036
C23	C	0.903499	-0.346962	0.000039
C24	C	0.942060	-0.407993	0.072253
C25	C	0.983572	-0.302858	0.000049
C26	C	0.942087	-0.407975	-0.072142
C27	C	0.980691	-0.467769	0.000038
C28	C	1.022155	-0.362660	0.072323
C29	C	1.022171	-0.362636	-0.072137
C30	C	1.060790	-0.423649	0.000095
C31	C	0.985229	-0.207856	0.000055
C32	C	0.979039	-0.562770	0.000038
C33	C	1.134136	0.108510	0.000054
C34	C	1.226432	0.110141	0.000053
C35	C	0.976071	0.268254	0.000036
C36	C	0.977717	0.361500	0.000030
N37	N	0.982125	0.114680	0.228221
N38	N	0.982146	0.114680	-0.228128
C39	C	1.038663	0.057580	0.453951
C40	C	1.038666	0.057578	0.546141
C41	C	0.925603	0.171783	0.546136
C42	C	0.925597	0.171780	0.453948
C43	C	0.982132	0.114680	0.407858
C44	C	0.982140	0.114680	0.592236
C45	C	0.982143	0.114679	0.692192
C46	C	0.982128	0.114680	0.307895
H47	H	0.542812	0.254914	0.000036
H48	H	0.385495	0.252119	0.000044
C49	C	1.099912	-0.004511	0.596231
C50	C	1.055630	-0.055961	0.649145
C51	C	1.112023	-0.113178	0.695291
H52	H	1.134544	0.025616	0.632261
H53	H	1.133567	-0.038565	0.555603
H54	H	1.021990	-0.021911	0.689769
H55	H	1.021001	-0.086107	0.613137
H56	H	1.145678	-0.147232	0.654663
H57	H	1.146652	-0.083044	0.731317
H58	H	1.081986	-0.148098	0.731193
H59	H	0.421446	-0.025546	0.000064
H60	H	1.055990	-0.342682	0.133442
C61	C	0.593346	-0.043258	-0.000086
C62	C	0.643728	-0.046829	-0.075422
C63	C	0.697118	-0.122516	-0.075570
H64	H	0.561113	-0.089583	-0.000131
H65	H	0.627635	-0.045845	0.050961
H66	H	0.609443	-0.044250	-0.126457
H67	H	0.675979	-0.000522	-0.075393
H68	H	0.731407	-0.125103	-0.024522
H69	H	0.664878	-0.168834	-0.075612
H70	H	0.731314	-0.124945	-0.126680
C71	C	0.864312	0.233915	0.403945
C72	C	0.877813	0.316462	0.426338
C73	C	0.821382	0.373718	0.380285
H74	H	0.808791	0.224892	0.419021
H75	H	0.872407	0.225791	0.342432
H76	H	0.869710	0.324583	0.487838
H77	H	0.933323	0.325512	0.411260
H78	H	0.829477	0.365593	0.318772
H79	H	0.765864	0.364687	0.395365
H80	H	0.830539	0.429732	0.395466
C81	C	1.099959	-0.004364	0.403750
C82	C	1.087854	0.007848	0.313149
C83	C	1.144294	-0.049213	0.266880
H84	H	1.090940	-0.060446	0.418784
H85	H	1.155480	0.004738	0.418779
H86	H	1.032346	-0.001260	0.298127
H87	H	1.096880	0.063919	0.298089
H88	H	1.199815	-0.040111	0.281908
H89	H	1.135271	-0.105291	0.281921
H90	H	1.136094	-0.040930	0.205403
H91	H	0.837035	-0.313632	0.000107
C92	C	0.896995	-0.434697	0.153759
C93	C	0.938272	-0.410599	0.229197
C94	C	0.896770	-0.435171	0.304292
H95	H	0.896709	-0.494237	0.153561
H96	H	0.841126	-0.408155	0.153731
H97	H	0.994125	-0.437143	0.229226
H98	H	0.938558	-0.351062	0.229424
H99	H	0.840902	-0.408629	0.304264
H100	H	0.896488	-0.494712	0.304085
H101	H	0.924766	-0.418818	0.355486
C102	C	1.149504	-0.467857	0.000332
C103	C	1.191025	-0.444886	0.076075
C104	C	1.272743	-0.485604	0.076334
H105	H	1.178263	-0.451674	-0.050417
H106	H	1.148010	-0.527250	-0.000107
H107	H	1.192523	-0.385505	0.076506
H108	H	1.162291	-0.461070	0.126837
H109	H	1.271249	-0.544997	0.075895
H110	H	1.301494	-0.469417	0.025582
H111	H	1.300922	-0.470030	0.127728
H112	H	1.056013	-0.342516	-0.133188
H113	H	0.908213	-0.428040	-0.133198
C114	C	0.864324	0.233744	0.596338
C115	C	0.876443	0.221543	0.686939
C116	C	0.820017	0.278617	0.733210
H117	H	0.808799	0.224663	0.581345
H118	H	0.873363	0.289823	0.581271
H119	H	0.867398	0.165478	0.702000
H120	H	0.931956	0.230631	0.701959
H121	H	0.829056	0.334696	0.718142
H122	H	0.764496	0.269531	0.718209
H123	H	0.828238	0.270352	0.794687
