data_functionalizedCrystal
_audit_creation_method	'MofGen! by Chris Wilmer'
_symmetry_space_group_name_H-M	'P1'
_symmetry_Int_Tables_number	1
_symmetry_cell_setting	triclinic
loop_
_symmetry_equiv_pos_as_xyz
  x,y,z
_cell_length_a	9.798715
_cell_length_b	10.723024
_cell_length_c	14.519709
_cell_angle_alpha	95.925993
_cell_angle_beta	90.007495
_cell_angle_gamma	90.000034
loop_
_atom_site_label
_atom_site_type_symbol
_atom_site_fract_x
_atom_site_fract_y
_atom_site_fract_z
O1	O	0.113485	-1.655971	0.129352
O2	O	0.113490	-1.292703	0.141734
O3	O	0.113475	-1.483968	0.001354
O4	O	0.113500	-1.464705	0.269732
O5	O	-0.113507	-1.483968	0.001343
O6	O	-0.113492	-1.292702	0.141723
O7	O	-0.113497	-1.655970	0.129342
Zn8	Zn	-0.149533	-1.474336	0.135531
Zn9	Zn	0.149526	-1.474337	0.135545
O10	O	-0.113482	-1.464705	0.269722
C11	C	-0.000000	-1.246211	0.140827
C12	C	0.000001	-1.107682	0.138132
N13	N	0.353626	-1.474338	0.135547
C14	C	-0.000016	-1.483070	-0.033016
C15	C	-0.000017	-1.480380	-0.135411
N16	N	-0.353632	-1.474345	0.135521
C17	C	0.421396	-1.554820	0.076474
C18	C	0.578559	-1.554825	0.076459
C19	C	-0.000003	-1.702462	0.130248
C20	C	0.000004	-1.840991	0.132944
C21	C	0.000009	-1.031965	0.216681
C22	C	0.000011	-0.888788	0.213896
C23	C	0.000019	-1.470476	-0.510357
C24	C	0.000009	-1.473227	-0.406035
C25	C	-0.000000	-1.475428	-0.322887
C26	C	-0.000008	-1.478179	-0.218559
C27	C	0.000012	-1.465603	0.304091
C28	C	0.000022	-1.468293	0.406486
H29	H	0.636839	-1.623724	0.025881
H30	H	0.411956	-1.405442	0.186115
C31	C	0.342609	-1.647901	0.008163
H32	H	0.247314	-1.635680	0.017130
H33	H	0.365962	-1.731227	0.018702
H34	H	0.365934	-1.634200	-0.053495
H35	H	0.588097	-1.405433	0.186095
H36	H	0.000008	-1.073139	0.285991
H37	H	0.000030	-1.066508	0.068822
C38	C	0.000020	-0.800905	0.304741
H39	H	0.000010	-0.716203	0.290952
H40	H	0.079174	-0.816140	0.339663
H41	H	-0.079144	-0.816139	0.339650
C42	C	0.000002	-0.928861	0.042093
H43	H	0.000009	-0.880300	-0.009057
H44	H	-0.079148	-0.980251	0.039633
H45	H	0.079169	-0.980238	0.039647
