data_functionalizedCrystal
_audit_creation_method	'MofGen! by Chris Wilmer'
_symmetry_space_group_name_H-M	'P1'
_symmetry_Int_Tables_number	1
_symmetry_cell_setting	triclinic
loop_
_symmetry_equiv_pos_as_xyz
  x,y,z
_cell_length_a	10.654544
_cell_length_b	11.792254
_cell_length_c	10.868271
_cell_angle_alpha	89.998414
_cell_angle_beta	89.994573
_cell_angle_gamma	84.341725
loop_
_atom_site_label
_atom_site_type_symbol
_atom_site_fract_x
_atom_site_fract_y
_atom_site_fract_z
O1	O	1.667400	0.159413	-0.102354
O2	O	2.167400	0.659413	0.397646
O3	O	1.301879	0.174601	-0.102350
O4	O	1.801879	0.674601	0.397650
O5	O	1.493501	0.001858	-0.102343
O6	O	1.993501	0.501858	0.397657
O7	O	1.475777	0.332156	-0.102360
O8	O	1.975777	0.832156	0.397640
O9	O	1.493484	0.001863	0.102302
O10	O	1.993484	0.501863	0.602302
O11	O	1.301861	0.174607	0.102295
O12	O	1.801861	0.674607	0.602295
O13	O	1.667382	0.159418	0.102291
O14	O	2.167382	0.659418	0.602291
Zn15	Zn	1.484619	0.167013	0.134785
Zn16	Zn	1.984619	0.667013	0.634785
Zn17	Zn	1.484642	0.167006	-0.134843
Zn18	Zn	1.984642	0.667006	0.365157
O19	O	1.475760	0.332162	0.102284
O20	O	1.975760	0.832162	0.602284
C21	C	1.255075	0.173489	-0.000027
C22	C	1.755075	0.673489	0.499973
C23	C	1.115641	0.170152	-0.000025
C24	C	1.615641	0.670152	0.499975
C25	C	1.115597	0.170172	0.223085
C26	C	1.615597	0.670172	0.723085
C27	C	1.050070	0.168617	0.334636
C28	C	1.550070	0.668617	0.834636
C29	C	0.919060	0.165480	0.334631
C30	C	1.419060	0.665480	0.834631
C31	C	0.853575	0.163894	0.223063
C32	C	1.353575	0.663894	0.723063
C33	C	0.919102	0.165449	0.111512
C34	C	1.419102	0.665449	0.611512
C35	C	1.050115	0.168589	0.111529
C36	C	1.550115	0.668589	0.611529
C37	C	0.919147	0.165422	-0.111596
C38	C	1.419147	0.665422	0.388404
C39	C	1.050156	0.168567	-0.111593
C40	C	1.550156	0.668567	0.388407
C41	C	0.853662	0.163836	-0.223164
C42	C	1.353662	0.663836	0.276836
C43	C	0.919189	0.165399	-0.334718
C44	C	1.419189	0.665399	0.165282
C45	C	1.050206	0.168537	-0.334708
C46	C	1.550206	0.668537	0.165292
C47	C	1.115684	0.170121	-0.223144
C48	C	1.615684	0.670121	0.276856
C49	C	1.492376	-0.040433	-0.000021
C50	C	1.992376	0.459567	0.499979
C51	C	1.489034	-0.166453	-0.000022
C52	C	1.989034	0.333547	0.499978
C53	C	1.486319	-0.268796	-0.000027
C54	C	1.986319	0.231204	0.499973
C55	C	1.482924	-0.397191	-0.000038
C56	C	1.982924	0.102809	0.499962
C57	C	1.714186	0.160531	-0.000035
C58	C	2.214186	0.660531	0.499965
C59	C	1.853620	0.163867	-0.000045
C60	C	2.353620	0.663867	0.499955
C61	C	1.476885	0.374452	-0.000040
C62	C	1.976885	0.874452	0.499960
C63	C	1.480227	0.500473	-0.000047
C64	C	1.980227	1.000473	0.499953
N65	N	1.484613	0.167018	0.318799
N66	N	1.984613	0.667018	0.818799
N67	N	1.484658	0.166993	-0.318858
N68	N	1.984658	0.666993	0.181142
C69	C	1.484622	0.167018	0.430136
C70	C	1.984622	0.667018	0.930136
C71	C	1.484639	0.167008	0.569814
C72	C	1.984639	0.667008	1.069814
H73	H	0.865862	0.164101	-0.425548
H74	H	1.365862	0.664101	0.074452
H75	H	0.865706	0.164223	0.425465
H76	H	1.365706	0.664223	0.925465
H77	H	1.103402	0.169905	0.425473
H78	H	1.603402	0.669905	0.925473
H79	H	1.222270	0.172741	0.223101
H80	H	1.722270	0.672741	0.723101
H81	H	0.746902	0.161326	0.223068
H82	H	1.246902	0.661326	0.723068
O83	O	1.113938	0.169848	-0.443040
O84	O	1.613938	0.669848	0.056960
C85	C	1.275480	0.075260	-0.572477
C86	C	1.775480	0.575260	-0.072477
C87	C	1.203390	0.073620	-0.449758
C88	C	1.703390	0.573620	0.050242
H89	H	1.347836	-0.002520	-0.577937
H90	H	1.847836	0.497480	-0.077937
H91	H	1.206233	0.073514	-0.652257
H92	H	1.706233	0.573514	-0.152257
H93	H	1.325801	0.156057	-0.578052
H94	H	1.825801	0.656057	-0.078052
H95	H	1.153065	-0.007164	-0.444063
H96	H	1.653065	0.492836	0.055937
H97	H	1.272696	0.075426	-0.370036
H98	H	1.772696	0.575426	0.129964
H99	H	0.746988	0.161274	-0.223161
H100	H	1.246988	0.661274	0.276839
H101	H	1.222358	0.172684	-0.223125
H102	H	1.722358	0.672684	0.276875
