data_functionalizedCrystal
_audit_creation_method	'MofGen! by Chris Wilmer'
_symmetry_space_group_name_H-M	'P1'
_symmetry_Int_Tables_number	1
_symmetry_cell_setting	triclinic
loop_
_symmetry_equiv_pos_as_xyz
  x,y,z
_cell_length_a	10.723024
_cell_length_b	16.109301
_cell_length_c	15.186229
_cell_angle_alpha	90.000638
_cell_angle_beta	89.997422
_cell_angle_gamma	96.035325
loop_
_atom_site_label
_atom_site_type_symbol
_atom_site_fract_x
_atom_site_fract_y
_atom_site_fract_z
O1	O	0.160391	-1.104074	-0.073171
O2	O	0.180351	-0.862130	-0.073184
O3	O	-0.011279	-0.988683	-0.073174
O4	O	0.352021	-0.977521	-0.073181
O5	O	-0.011282	-0.988674	0.073283
O6	O	0.180348	-0.862121	0.073273
O7	O	0.160388	-1.104066	0.073287
Zn8	Zn	0.170368	-0.983092	0.096533
Zn9	Zn	0.170371	-0.983103	-0.096431
O10	O	0.352018	-0.977513	0.073276
C11	C	-0.057770	-0.987866	0.000054
C12	C	-0.196292	-0.985436	0.000050
C13	C	0.179541	-0.831146	0.000043
C14	C	0.177117	-0.738836	0.000037
C15	C	0.161198	-1.135050	0.000058
C16	C	0.163622	-1.227359	0.000057
C17	C	-0.272213	-1.056249	0.000053
C18	C	-0.415383	-1.053739	0.000050
C19	C	0.398508	-0.978329	0.000047
C20	C	0.537031	-0.980760	0.000044
N21	N	0.170364	-0.983091	0.228226
C22	C	0.285190	-0.517200	0.000045
C23	C	0.282903	-0.430466	0.000051
C24	C	0.055540	-0.449003	0.000052
C25	C	0.057829	-0.535735	0.000052
C26	C	0.172657	-0.569831	0.000045
C27	C	0.168081	-0.396365	0.000050
C28	C	0.165600	-0.302324	0.000056
C29	C	0.175139	-0.663877	0.000040
N30	N	0.170365	-0.983112	-0.228123
C31	C	0.085539	-1.039148	0.453953
C32	C	0.085536	-1.039150	0.546143
C33	C	0.255194	-0.927049	0.546143
C34	C	0.255190	-0.927043	0.453955
C35	C	0.170364	-0.983097	0.407862
C36	C	0.170365	-0.983105	0.592240
C37	C	0.170362	-0.983108	0.692196
C38	C	0.170365	-0.983094	0.307900
H39	H	-0.231219	-1.118732	0.000062
C40	C	-0.503502	-1.135640	0.000053
C41	C	-0.498031	-1.198377	0.076108
C42	C	-0.586154	-1.280281	0.076112
C43	C	-0.679748	-1.299448	0.000059
C44	C	-0.685222	-1.236708	-0.076002
C45	C	-0.597100	-1.154804	-0.076005
H46	H	-0.428744	-1.184191	0.132412
H47	H	-0.582101	-1.326725	0.132417
H48	H	-0.744981	-1.360078	0.000062
H49	H	-0.754509	-1.250895	-0.132305
H50	H	-0.601153	-1.108361	-0.132311
H51	H	0.324259	-0.881411	0.583680
H52	H	-0.237286	-0.922953	0.000041
C53	C	-0.070765	-0.411492	0.000053
C54	C	-0.164239	-0.431058	0.076106
C55	C	-0.290547	-0.393549	0.076105
C56	C	-0.323381	-0.336475	0.000051
C57	C	-0.229905	-0.316906	-0.076007
C58	C	-0.103597	-0.354415	-0.076006
H59	H	-0.139936	-0.473310	0.132410
H60	H	-0.359744	-0.408036	0.132409
H61	H	-0.416882	-0.308709	0.000050
H62	H	-0.254208	-0.274654	-0.132312
H63	H	-0.034400	-0.339929	-0.132310
H64	H	-0.397741	-0.920135	0.000048
C65	C	-0.065966	-0.593636	0.000050
C66	C	-0.160073	-0.589356	0.076100
C67	C	-0.283861	-0.647256	0.076102
C68	C	-0.313544	-0.709436	0.000053
C69	C	-0.219435	-0.713718	-0.076002
C70	C	-0.095647	-0.655818	-0.076004
H71	H	-0.138102	-0.543325	0.132401
H72	H	-0.353526	-0.644086	0.132404
H73	H	-0.405180	-0.752297	0.000055
H74	H	-0.241406	-0.759749	-0.132303
H75	H	-0.025982	-0.658988	-0.132306
C76	C	0.411497	-0.554708	0.000046
C77	C	0.504956	-0.535138	0.076102
C78	C	0.631267	-0.572643	0.076106
C79	C	0.664118	-0.629719	0.000055
C80	C	0.570657	-0.649292	-0.076006
C81	C	0.444347	-0.611786	-0.076010
H82	H	0.480640	-0.492884	0.132405
H83	H	0.700453	-0.558153	0.132412
H84	H	0.757621	-0.657482	0.000058
H85	H	0.594974	-0.691545	-0.132309
H86	H	0.375161	-0.626276	-0.132316
C87	C	0.406692	-0.372573	0.000048
C88	C	0.436388	-0.310395	-0.076001
C89	C	0.560184	-0.252502	-0.076003
C90	C	0.654283	-0.256786	0.000044
C91	C	0.624590	-0.318967	0.076099
C92	C	0.500794	-0.376860	0.076101
H93	H	0.366727	-0.307221	-0.132301
H94	H	0.582164	-0.206472	-0.132304
H95	H	0.745924	-0.213931	0.000043
H96	H	0.694251	-0.322141	0.132399
H97	H	0.478814	-0.422890	0.132402
C98	C	-0.007776	-1.100799	0.403251
C99	C	-0.101087	-1.162450	0.453955
C100	C	-0.194409	-1.224102	0.403257
C101	C	-0.194420	-1.224102	0.301853
C102	C	-0.101106	-1.162449	0.251143
C103	C	-0.007784	-1.100798	0.301842
H104	H	-0.101082	-1.162452	0.529025
H105	H	-0.263486	-1.269741	0.440796
H106	H	-0.263502	-1.269741	0.264323
H107	H	-0.101111	-1.162448	0.176074
H108	H	0.061293	-1.055158	0.264303
C109	C	0.348504	-0.865383	0.403247
C110	C	0.441857	-0.803756	0.453941
C111	C	0.535162	-0.742098	0.403231
C112	C	0.535114	-0.742067	0.301828
C113	C	0.441757	-0.803697	0.251129
C114	C	0.348452	-0.865355	0.301838
H115	H	0.441896	-0.803777	0.529010
H116	H	0.604270	-0.696476	0.440763
H117	H	0.604183	-0.696424	0.264290
H118	H	0.441718	-0.803676	0.176059
H119	H	0.279344	-0.910977	0.264306
H120	H	0.016463	-1.084791	0.583668
