data_functionalizedCrystal
_audit_creation_method	'MofGen! by Chris Wilmer'
_symmetry_space_group_name_H-M	'P1'
_symmetry_Int_Tables_number	1
_symmetry_cell_setting	triclinic
loop_
_symmetry_equiv_pos_as_xyz
  x,y,z
_cell_length_a	17.639054
_cell_length_b	17.637651
_cell_length_c	17.640968
_cell_angle_alpha	70.334811
_cell_angle_beta	70.330395
_cell_angle_gamma	109.615240
loop_
_atom_site_label
_atom_site_type_symbol
_atom_site_fract_x
_atom_site_fract_y
_atom_site_fract_z
Zn1	Zn	1.384043	0.116641	-0.750962
Zn2	Zn	1.309281	-0.068035	-0.566255
Zn3	Zn	1.199401	0.041970	-0.566270
Zn4	Zn	1.199381	-0.067959	-0.676147
O5	O	1.273027	0.005654	-0.639909
O6	O	1.497393	0.123362	-0.757764
O7	O	1.263425	-0.084725	-0.442973
O8	O	1.255190	0.175169	-0.622087
O9	O	1.442465	-0.012319	-0.622061
O10	O	1.390847	0.230030	-0.757778
O11	O	1.182696	-0.003904	-0.442984
O12	O	1.076131	-0.003830	-0.549542
O13	O	1.255157	-0.012190	-0.809356
O14	O	1.076117	-0.084595	-0.630268
O15	O	1.390828	0.123435	-0.864322
O16	O	1.263406	-0.191319	-0.549516
O17	O	1.182663	-0.191263	-0.630253
C18	C	1.044162	-0.052308	-0.581789
C19	C	0.946253	-0.077120	-0.556941
C20	C	0.779658	-0.182662	-0.451207
C21	C	0.871662	-0.159339	-0.474563
C22	C	0.928863	-0.018194	-0.615996
C23	C	0.836862	-0.041507	-0.592653
C24	C	0.762265	-0.123742	-0.510257
C25	C	0.819469	0.017413	-0.651704
C26	C	0.727476	-0.005897	-0.628360
C27	C	0.652876	-0.088127	-0.545966
C28	C	0.670272	-0.147052	-0.486913
C29	C	0.894067	0.099650	-0.734097
C30	C	0.876674	0.158570	-0.793147
C31	C	0.784680	0.135257	-0.769807
C32	C	0.710079	0.053028	-0.687413
C33	C	0.767283	0.194183	-0.828860
C34	C	0.675290	0.170873	-0.805516
C35	C	0.618086	0.029718	-0.664069
C36	C	1.214949	-0.223249	-0.581790
C37	C	1.190191	-0.321147	-0.556977
C38	C	1.461753	-0.499997	-0.828837
C39	C	1.438457	-0.591998	-0.805498
C40	C	1.297245	-0.649239	-0.664112
C41	C	1.320532	-0.557242	-0.687437
C42	C	1.402786	-0.482626	-0.769801
C43	C	1.261565	-0.539871	-0.628401
C44	C	1.284847	-0.447881	-0.651726
C45	C	1.367096	-0.373262	-0.734087
C46	C	1.426068	-0.390636	-0.793126
C47	C	1.179308	-0.614488	-0.546041
C48	C	1.120341	-0.597118	-0.487005
C49	C	1.143626	-0.505126	-0.510326
C50	C	1.225875	-0.430507	-0.592687
C51	C	1.084654	-0.487752	-0.451288
C52	C	1.107936	-0.395762	-0.474613
C53	C	1.249157	-0.338517	-0.616013
C54	C	1.502785	0.063842	-0.698256
C55	C	1.600694	0.088638	-0.723120
C56	C	1.331330	0.063961	-0.869699
C57	C	1.356175	0.088807	-0.967622
C58	C	1.331360	0.235462	-0.698280
C59	C	1.356218	0.333392	-0.723154
C60	C	1.084738	-0.182538	-1.146595
C61	C	1.108106	-0.159175	-1.238616
C62	C	1.249367	-0.017961	-1.295837
C63	C	1.226010	-0.041310	-1.203819
C64	C	1.143694	-0.123600	-1.129204
C65	C	1.284966	0.017628	-1.186428
C66	C	1.261612	-0.005721	-1.094418
C67	C	1.179302	-0.088010	-1.019799
C68	C	1.120341	-0.146950	-1.037194
C69	C	1.367284	0.099915	-1.261044
C70	C	1.426240	0.158853	-1.243653
C71	C	1.402883	0.135507	-1.151642
C72	C	1.320573	0.053219	-1.077023
C73	C	1.461844	0.194448	-1.134246
C74	C	1.438490	0.171098	-1.042236
C75	C	1.297219	0.029869	-0.985013
C76	C	1.215017	-0.052349	-0.411042
C77	C	1.190405	-0.076904	-0.313226
H78	H	0.989610	0.048764	-0.683082
H79	H	0.968972	0.118629	-0.753098
H80	H	0.885814	-0.207325	-0.426471
C81	C	0.958739	0.249027	-0.883780
N82	N	1.020549	0.317159	-0.952048
H83	H	0.718916	-0.249632	-0.384117
C84	C	1.043076	-0.376653	-0.409664
N85	N	0.994222	-0.362261	-0.360742
H86	H	1.386297	0.118922	-1.335963
C87	C	1.206667	-0.060654	-0.902930
N88	N	1.138468	-0.128835	-0.841106
H89	H	1.493263	0.225852	-1.304415
C90	C	1.029789	-0.237473	-0.955111
N91	N	0.961590	-0.305655	-0.893288
H92	H	1.528870	0.261444	-1.195010
H93	H	1.160291	-0.107022	-0.944880
C94	C	1.503344	0.235934	-1.023105
N95	N	1.552195	0.284769	-1.008696
H96	H	0.828032	0.261142	-0.895942
H97	H	0.661131	0.218854	-0.853598
C98	C	1.339641	-0.256433	-0.706618
N99	N	1.407787	-0.194609	-0.774862
C100	C	1.516551	-0.308553	-0.883732
N101	N	1.584698	-0.246729	-0.951975
H102	H	1.060091	-0.207176	-1.252768
H103	H	1.386051	-0.298359	-0.753077
H104	H	1.017693	-0.249532	-1.085838
H105	H	0.557344	-0.037251	-0.596980
C106	C	1.552236	-0.417913	-0.919442
N107	N	1.620382	-0.356089	-0.987686
H108	H	0.577970	-0.107094	-0.526951
H109	H	1.486472	-0.606132	-0.853588
H110	H	1.230273	-0.710003	-0.597053
H111	H	1.160348	-0.689390	-0.527058
H112	H	1.053368	-0.657881	-0.419946
C113	C	0.994211	-0.569839	-0.360657
N114	N	0.926102	-0.631667	-0.292379
C115	C	0.588210	-0.237520	-0.396277
N116	N	0.526401	-0.305656	-0.328012
H117	H	1.316390	0.049038	-1.356599
