data_functionalizedCrystal
_audit_creation_method	'MofGen! by Chris Wilmer'
_symmetry_space_group_name_H-M	'P1'
_symmetry_Int_Tables_number	1
_symmetry_cell_setting	triclinic
loop_
_symmetry_equiv_pos_as_xyz
  x,y,z
_cell_length_a	12.759401
_cell_length_b	19.076919
_cell_length_c	19.076919
_cell_angle_alpha	90.123570
_cell_angle_beta	92.281660
_cell_angle_gamma	87.669627
loop_
_atom_site_label
_atom_site_type_symbol
_atom_site_fract_x
_atom_site_fract_y
_atom_site_fract_z
Zn1	Zn	1.565190	0.295737	-0.386035
Zn2	Zn	1.565613	0.408532	-0.263801
Zn3	Zn	1.396835	0.291037	-0.268544
Zn4	Zn	1.382668	0.413214	-0.381269
O5	O	1.477576	0.352130	-0.324912
O6	O	1.712266	0.310707	-0.369829
O7	O	1.549330	0.389019	-0.166099
O8	O	1.424920	0.193324	-0.288109
O9	O	1.712577	0.393577	-0.280025
O10	O	1.548609	0.196777	-0.374429
O11	O	1.425330	0.302696	-0.169584
O12	O	1.247936	0.307236	-0.283488
O13	O	1.400774	0.401557	-0.480232
O14	O	1.237527	0.396999	-0.366307
O15	O	1.534872	0.315247	-0.483734
O16	O	1.535593	0.507489	-0.275404
O17	O	1.401184	0.510929	-0.361707
C18	C	1.204611	0.352116	-0.324895
C19	C	1.087833	0.352128	-0.324904
C20	C	1.466925	0.534707	-0.317539
C21	C	1.462462	0.612816	-0.314408
C22	C	1.033137	0.395205	-0.278088
C23	C	0.923411	0.395217	-0.278106
C24	C	0.923087	0.309072	-0.371758
C25	C	1.032811	0.309063	-0.371743
C26	C	0.770191	0.477057	-0.249538
C27	C	0.715492	0.520127	-0.202711
C28	C	0.754709	0.528067	-0.133693
C29	C	0.848624	0.492926	-0.111488
C30	C	0.903318	0.449851	-0.158312
C31	C	0.864102	0.441925	-0.227339
C32	C	1.186033	0.227222	-0.400304
C33	C	1.240729	0.184143	-0.447124
C34	C	1.201515	0.176196	-0.516144
C35	C	1.107597	0.211324	-0.538346
C36	C	1.052901	0.254403	-0.491526
C37	C	1.092123	0.262351	-0.422507
C38	C	1.524712	0.651250	-0.357916
C39	C	1.520515	0.724641	-0.354975
C40	C	1.454073	0.759597	-0.308523
C41	C	1.391817	0.721157	-0.265014
C42	C	1.396009	0.647768	-0.267958
C43	C	1.434630	0.978902	-0.294897
C44	C	1.430445	1.052297	-0.291954
C45	C	1.559142	1.055776	-0.381917
C46	C	1.563333	0.982385	-0.384854
C47	C	1.501073	0.943952	-0.341347
N48	N	1.449784	0.834614	-0.305515
N49	N	1.505357	0.868936	-0.344360
C50	C	1.751608	0.352144	-0.324930
C51	C	1.868384	0.352150	-0.324937
C52	C	1.488254	1.168840	-0.332322
C53	C	1.492694	1.090731	-0.335461
C54	C	1.466195	0.359449	-0.508192
C55	C	1.461345	0.362568	-0.586295
C56	C	1.528881	0.319098	-0.624812
C57	C	1.524311	0.322026	-0.698198
C58	C	1.452210	0.368427	-0.733066
C59	C	1.384667	0.411899	-0.694543
C60	C	1.389233	0.408967	-0.621159
C61	C	1.431065	0.382011	-0.952346
C62	C	1.426506	0.384941	-1.025736
C63	C	1.566149	0.295067	-1.029386
C64	C	1.570713	0.292142	-0.955999
C65	C	1.503166	0.335611	-0.917484
N66	N	1.447540	0.371423	-0.808078
N67	N	1.507832	0.332612	-0.842473
C68	C	1.488977	0.344789	-0.142348
C69	C	1.494042	0.341472	-0.064253
H70	H	1.077932	0.430273	-0.239950
C71	C	1.229173	0.235966	-0.324379
C72	C	1.169017	0.283355	-0.272880
C73	C	1.212158	0.292096	-0.196956
C74	C	1.315455	0.253449	-0.172531
C75	C	1.375618	0.206058	-0.224031
C76	C	1.332477	0.197316	-0.299955
H77	H	1.092544	0.311966	-0.290960
H78	H	1.167621	0.327178	-0.158832
H79	H	1.347391	0.259920	-0.116328
H80	H	1.452091	0.177446	-0.205951
H81	H	1.377014	0.162234	-0.338079
H82	H	0.976420	0.282999	-0.509606
C83	C	1.608194	0.268055	-0.586460
C84	C	1.603661	0.188572	-0.599783
C85	C	1.682974	0.137525	-0.561434
C86	C	1.766818	0.165962	-0.509762
C87	C	1.771354	0.245449	-0.496437
C88	C	1.692042	0.296496	-0.534786
H89	H	1.541591	0.167517	-0.638036
H90	H	1.679616	0.078683	-0.571298
H91	H	1.825530	0.128174	-0.481374
H92	H	1.833424	0.266503	-0.458184
H93	H	1.695400	0.355338	-0.524921
H94	H	1.571213	0.755931	-0.390398
H95	H	0.878275	0.274008	-0.409892
H96	H	1.617435	0.953926	-0.422679
C97	C	1.347203	0.435985	-1.064106
C98	C	1.386393	0.493164	-1.112325
C99	C	1.307104	0.544206	-1.150701
C100	C	1.188624	0.538069	-1.140858
C101	C	1.149428	0.480887	-1.092636
C102	C	1.228717	0.429845	-1.054260
H103	H	1.474104	0.497710	-1.119613
H104	H	1.336121	0.586536	-1.186397
H105	H	1.129930	0.575853	-1.169266
H106	H	1.061717	0.476342	-1.085348
H107	H	1.199700	0.387515	-1.018564
C108	C	1.318733	0.759607	-0.213914
C109	C	1.332942	0.746347	-0.134442
C110	C	1.259862	0.784796	-0.083338
C111	C	1.172573	0.836506	-0.111706
C112	C	1.158360	0.849769	-0.191182
C113	C	1.231441	0.811320	-0.242286
H114	H	1.397562	0.708066	-0.113439
H115	H	1.270383	0.774977	-0.024505
H116	H	1.118475	0.864968	-0.073876
H117	H	1.093741	0.888050	-0.212185
H118	H	1.220919	0.821138	-0.301119
C119	C	0.727050	0.468324	-0.325461
C120	C	0.623742	0.506965	-0.349875
C121	C	0.580592	0.498228	-0.425798
C122	C	0.640750	0.450851	-0.477306
C123	C	0.744064	0.412207	-0.452892
C124	C	0.787214	0.420944	-0.376970
H125	H	0.579204	0.542039	-0.311745
H126	H	0.504112	0.526835	-0.443870
H127	H	0.608807	0.444383	-0.533508
H128	H	0.788601	0.377132	-0.491023
H129	H	0.863694	0.392337	-0.358898
H130	H	1.345317	0.616475	-0.232531
H131	H	1.578820	0.622794	-0.395739
H132	H	0.880541	0.499388	-0.055284
H133	H	0.710167	0.563138	-0.095567
H134	H	1.317198	0.155535	-0.429039
C135	C	1.064454	0.202586	-0.614270
C136	C	1.124617	0.155206	-0.665772
C137	C	1.081475	0.146464	-0.741696
C138	C	0.978170	0.185103	-0.766117
C139	C	0.918000	0.232487	-0.714614
C140	C	0.961142	0.241229	-0.638690
H141	H	1.201096	0.126600	-0.647694
H142	H	1.126017	0.111387	-0.779821
H143	H	0.946234	0.178632	-0.822320
H144	H	0.841522	0.261093	-0.732691
H145	H	0.916600	0.276305	-0.600564
H146	H	1.334228	0.444357	-0.589799
C147	C	1.357360	1.090754	-0.240853
C148	C	1.371564	1.077497	-0.161380
C149	C	1.298490	1.115956	-0.110279
C150	C	1.211212	1.167672	-0.138651
C151	C	1.197004	1.180931	-0.218128
C152	C	1.270078	1.142472	-0.269228
H153	H	1.436176	1.039212	-0.140374
H154	H	1.309008	1.106140	-0.051445
H155	H	1.157118	1.196141	-0.100823
H156	H	1.132392	1.219216	-0.239134
H157	H	1.259559	1.152288	-0.328062
H158	H	1.579308	0.286630	-0.729555
C159	C	1.640439	0.247249	-1.071754
C160	C	1.760167	0.252586	-1.061446
C161	C	1.834457	0.204764	-1.103815
C162	C	1.789020	0.151605	-1.156492
C163	C	1.669287	0.146266	-1.166802
C164	C	1.594996	0.194088	-1.124434
H165	H	1.793807	0.291939	-1.022450
H166	H	1.923092	0.208717	-1.096182
H167	H	1.844015	0.116205	-1.187856
H168	H	1.635646	0.106913	-1.205799
H169	H	1.506361	0.190136	-1.132066
C170	C	1.261679	0.128807	-0.567649
C171	C	1.374879	0.144971	-0.585387
C172	C	1.435038	0.097586	-0.636894
C173	C	1.381995	0.034037	-0.670663
C174	C	1.268788	0.017870	-0.652925
C175	C	1.208630	0.065255	-0.601419
H176	H	1.414150	0.192016	-0.560389
H177	H	1.518841	0.109554	-0.650024
H178	H	1.426528	-0.001040	-0.708791
H179	H	1.229518	-0.029175	-0.677924
H180	H	1.124826	0.053287	-0.588289
H181	H	1.609830	1.087076	-0.417338
C182	C	1.650024	0.241096	-0.917651
C183	C	1.645495	0.161612	-0.930976
C184	C	1.724811	0.110567	-0.892630
C185	C	1.808657	0.139004	-0.840959
C186	C	1.813190	0.218491	-0.827632
C187	C	1.733873	0.269537	-0.865978
H188	H	1.583424	0.140558	-0.969228
H189	H	1.721456	0.051725	-0.902496
H190	H	1.867372	0.101217	-0.812573
H191	H	1.875261	0.239546	-0.789380
H192	H	1.737229	0.328379	-0.856112
C193	C	1.356753	0.429831	-0.910000
C194	C	1.237031	0.424485	-0.920338
C195	C	1.162708	0.472309	-0.877996
C196	C	1.208106	0.525479	-0.825316
C197	C	1.327834	0.530828	-0.814976
C198	C	1.402158	0.483004	-0.857318
H199	H	1.203419	0.385123	-0.959337
H200	H	1.074077	0.468349	-0.885650
H201	H	1.153087	0.560881	-0.793972
H202	H	1.361446	0.570190	-0.775977
H203	H	1.490788	0.486964	-0.849664
H204	H	0.979780	0.421239	-0.140233
H205	H	1.383937	0.947616	-0.259470
H206	H	0.639025	0.548738	-0.220796
H207	H	1.325957	0.449677	-0.722939
