data_functionalizedCrystal
_audit_creation_method	'MofGen! by Chris Wilmer'
_symmetry_space_group_name_H-M	'P1'
_symmetry_Int_Tables_number	1
_symmetry_cell_setting	triclinic
loop_
_symmetry_equiv_pos_as_xyz
  x,y,z
_cell_length_a	19.077212
_cell_length_b	19.076808
_cell_length_c	19.805399
_cell_angle_alpha	87.672943
_cell_angle_beta	87.677406
_cell_angle_gamma	94.518968
loop_
_atom_site_label
_atom_site_type_symbol
_atom_site_fract_x
_atom_site_fract_y
_atom_site_fract_z
Zn1	Zn	1.066461	-0.237489	-0.414838
Zn2	Zn	1.061638	-0.355388	-0.296905
Zn3	Zn	0.948572	-0.242234	-0.296914
Zn4	Zn	0.943802	-0.360073	-0.405307
O5	O	1.005118	-0.298796	-0.353491
O6	O	1.164474	-0.249182	-0.403179
O7	O	1.046618	-0.340402	-0.202188
O8	O	0.968225	-0.142947	-0.316549
O9	O	1.160930	-0.335802	-0.316534
O10	O	1.054838	-0.139461	-0.403187
O11	O	0.963548	-0.257268	-0.202194
O12	O	0.849287	-0.261812	-0.307307
O13	O	0.960095	-0.343788	-0.501290
O14	O	0.845782	-0.348388	-0.386944
O15	O	1.050213	-0.253726	-0.508292
O16	O	1.041992	-0.454667	-0.307292
O17	O	0.955418	-0.458109	-0.386935
C18	C	0.821955	-0.306124	-0.346093
C19	C	0.743597	-0.309275	-0.342943
C20	C	0.302322	-0.331851	-0.320386
C21	C	0.375949	-0.328885	-0.323340
C22	C	0.414606	-0.282378	-0.369996
C23	C	0.379633	-0.238829	-0.413696
C24	C	0.306008	-0.241791	-0.410738
C25	C	0.634999	-0.268688	-0.383685
C26	C	0.708629	-0.265730	-0.386641
C27	C	0.704939	-0.355787	-0.296284
C28	C	0.631313	-0.358748	-0.293332
C29	C	0.596347	-0.315195	-0.337030
N30	N	0.489864	-0.279348	-0.373019
N31	N	0.521090	-0.318223	-0.334004
C32	C	0.997683	-0.481968	-0.346094
C33	C	0.994567	-0.560327	-0.342955
C34	C	1.038164	-0.595266	-0.386622
C35	C	1.035233	-0.668893	-0.383673
C36	C	0.988708	-0.707579	-0.337054
C37	C	0.945107	-0.672635	-0.293385
C38	C	0.948035	-0.599009	-0.296338
C39	C	0.975117	-0.927976	-0.323387
C40	C	0.972194	-1.001607	-0.320436
C41	C	1.062320	-0.997860	-0.410726
C42	C	1.065246	-0.924233	-0.413671
C43	C	1.021642	-0.889295	-0.370005
N44	N	0.985713	-0.782837	-0.334038
N45	N	1.024634	-0.814039	-0.373025
C46	C	1.188997	-0.291440	-0.360918
C47	C	1.267355	-0.288306	-0.364084
C48	C	1.005160	-0.298750	-0.530037
C49	C	1.005177	-0.298730	-0.605271
C50	C	1.012602	-0.114908	-0.360932
C51	C	1.015791	-0.036546	-0.364103
C52	C	1.052103	-0.251833	-0.644262
C53	C	1.052111	-0.251812	-0.714952
C54	C	1.005196	-0.298693	-0.746648
C55	C	0.958266	-0.345593	-0.707652
C56	C	0.958255	-0.345609	-0.636963
C57	C	0.958308	-0.345525	-0.992729
C58	C	0.958324	-0.345506	-1.063423
C59	C	1.052164	-0.251728	-1.070717
C60	C	1.052153	-0.251745	-1.000029
C61	C	1.005221	-0.298642	-0.961039
C62	C	1.005212	-0.298663	-0.884389
C63	C	1.005208	-0.298676	-0.823297
C64	C	1.005120	-0.298789	-0.177635
C65	C	1.005247	-0.298605	-0.102416
H66	H	0.740102	-0.227854	-0.424633
C67	C	0.894477	-0.714603	-0.242850
C68	C	0.825425	-0.699557	-0.255443
C69	C	0.778766	-0.738210	-0.208908
H70	H	0.905206	-0.702175	-0.198253
H71	H	0.898931	-0.763465	-0.247348
H72	H	0.820974	-0.650706	-0.250940
H73	H	0.814673	-0.711988	-0.300032
H74	H	0.783220	-0.787072	-0.213405
H75	H	0.789502	-0.725779	-0.164313
H76	H	0.731909	-0.728012	-0.217450
C77	C	0.597079	-0.221493	-0.431243
C78	C	0.614383	-0.236234	-0.498282
C79	C	0.579456	-0.192777	-0.542114
H80	H	0.611033	-0.173602	-0.423902
H81	H	0.547686	-0.229917	-0.422849
H82	H	0.663765	-0.227805	-0.506673
H83	H	0.600427	-0.284117	-0.505644
H84	H	0.530063	-0.201200	-0.533719
H85	H	0.593413	-0.144888	-0.534767
H86	H	0.591187	-0.202777	-0.587604
C87	C	0.421478	-0.188266	-0.464380
C88	C	0.375094	-0.150753	-0.502004
C89	C	0.413613	-0.104164	-0.548698
H90	H	0.449122	-0.214046	-0.493953
H91	H	0.451421	-0.156318	-0.440953
H92	H	0.345163	-0.182696	-0.525430
H93	H	0.347448	-0.124959	-0.472449
H94	H	0.443556	-0.072216	-0.525271
H95	H	0.441256	-0.129949	-0.578267
H96	H	0.382148	-0.078701	-0.574228
C97	C	1.103070	-0.200854	-0.609978
C98	C	1.144153	-0.159766	-0.659259
C99	C	1.191104	-0.112787	-0.627704
H100	H	1.132751	-0.226518	-0.582557
H101	H	1.077365	-0.171182	-0.582572
H102	H	1.169856	-0.189433	-0.686653
H103	H	1.114490	-0.134086	-0.686683
H104	H	1.165399	-0.083115	-0.600298
H105	H	1.220781	-0.138457	-0.600284
H106	H	1.218980	-0.084899	-0.661136
H107	H	1.090324	-0.213625	-0.746696
C108	C	0.267912	-0.194546	-0.458104
C109	C	0.195162	-0.207079	-0.445515
C110	C	0.160047	-0.163561	-0.489128
H111	H	0.279495	-0.204400	-0.503657
H112	H	0.281852	-0.146665	-0.450664
H113	H	0.181227	-0.254950	-0.452960
H114	H	0.183559	-0.197221	-0.399970
H115	H	0.173987	-0.115679	-0.481688
H116	H	0.171635	-0.173418	-0.534678
H117	H	0.110683	-0.172054	-0.480588
H118	H	1.076053	-0.563772	-0.424581
C119	C	1.103229	-0.200886	-1.113018
C120	C	1.172352	-0.213466	-1.098037
C121	C	1.219412	-0.166654	-1.136995
H122	H	1.094934	-0.153903	-1.102964
H123	H	1.096564	-0.207589	-1.159665
H124	H	1.179014	-0.206757	-1.051401
H125	H	1.180670	-0.260440	-1.108094
H126	H	1.212747	-0.173357	-1.183643
H127	H	1.211110	-0.119674	-1.126939
H128	H	1.266317	-0.175187	-1.126841
C129	C	0.742773	-0.403148	-0.248806
C130	C	0.693160	-0.444522	-0.207325
C131	C	0.727985	-0.488168	-0.163583
H132	H	0.772574	-0.375062	-0.221539
H133	H	0.770244	-0.432787	-0.274543
H134	H	0.665701	-0.414887	-0.181590
H135	H	0.663357	-0.472623	-0.234574
H136	H	0.755456	-0.517806	-0.189321
H137	H	0.757785	-0.460076	-0.136321
H138	H	0.694328	-0.516250	-0.135438
H139	H	0.912532	-0.570563	-0.260780
C140	C	1.102970	-0.200797	-0.965533
C141	C	1.064875	-0.157231	-0.925159
C142	C	1.111660	-0.110288	-0.893368
H143	H	1.130931	-0.172794	-0.998810
H144	H	1.132581	-0.226513	-0.938066
H145	H	1.035277	-0.131517	-0.952624
H146	H	1.036916	-0.185214	-0.891870
H147	H	1.141270	-0.136004	-0.865900
H148	H	1.139619	-0.082290	-0.926649
H149	H	1.085819	-0.080727	-0.865965
C150	C	0.927755	-0.890178	-0.275889
C151	C	0.886404	-0.939818	-0.234416
C152	C	0.842774	-0.905021	-0.190642
H153	H	0.898097	-0.862697	-0.301581
H154	H	0.955871	-0.860388	-0.248625
H155	H	0.858290	-0.969596	-0.261677
H156	H	0.916043	-0.967301	-0.208709
H157	H	0.870890	-0.875231	-0.163377
H158	H	0.813121	-0.877541	-0.216339
H159	H	0.814717	-0.938696	-0.162493
H160	H	0.920118	-0.383684	-1.089228
H161	H	1.070740	-0.697337	-0.419226
C162	C	0.921635	-1.043706	-0.269923
C163	C	0.874764	-1.087821	-0.304691
C164	C	0.828192	-1.126620	-0.258181
H165	H	0.896013	-1.012440	-0.244316
H166	H	0.947464	-1.071378	-0.240401
H167	H	0.848937	-1.060151	-0.334201
H168	H	0.900366	-1.119100	-0.330295
H169	H	0.854021	-1.154292	-0.228660
H170	H	0.802575	-1.095350	-0.232577
H171	H	0.796388	-1.156561	-0.281764
H172	H	0.920103	-0.383722	-0.960992
C173	C	1.115648	-0.882152	-0.464329
C174	C	1.077389	-0.841478	-0.507752
C175	C	1.123798	-0.802699	-0.554420
H176	H	1.141211	-0.913428	-0.489981
H177	H	1.147515	-0.852149	-0.440875
H178	H	1.045534	-0.871479	-0.531204
H179	H	1.051828	-0.810189	-0.482120
H180	H	1.155666	-0.772696	-0.530967
H181	H	1.149358	-0.833980	-0.580067
H182	H	1.097847	-0.775093	-0.583885
C183	C	0.907406	-0.396462	-0.742189
C184	C	0.917471	-0.386424	-0.812441
C185	C	0.870638	-0.433280	-0.844277
H186	H	0.860427	-0.388086	-0.729185
H187	H	0.915799	-0.443436	-0.729142
H188	H	0.909073	-0.339461	-0.825483
H189	H	0.964440	-0.394805	-0.825465
H190	H	0.879031	-0.480255	-0.831230
H191	H	0.823662	-0.424901	-0.831268
H192	H	0.877465	-0.426481	-0.891946
C193	C	0.260481	-0.382368	-0.269660
C194	C	0.306867	-0.419854	-0.232012
C195	C	0.268351	-0.466390	-0.185268
H196	H	0.230522	-0.414341	-0.293027
H197	H	0.232853	-0.356529	-0.240112
H198	H	0.334483	-0.445692	-0.261555
H199	H	0.336826	-0.387899	-0.208629
H200	H	0.240723	-0.440550	-0.155720
H201	H	0.238394	-0.498358	-0.208642
H202	H	0.299818	-0.491825	-0.159714
C203	C	0.413999	-0.376206	-0.276009
C204	C	0.454469	-0.419732	-0.314134
C205	C	0.489536	-0.463328	-0.270554
H206	H	0.380507	-0.404394	-0.247789
H207	H	0.443838	-0.348062	-0.248813
H208	H	0.424633	-0.447873	-0.341319
H209	H	0.487973	-0.391563	-0.342353
H210	H	0.519375	-0.435185	-0.243357
H211	H	0.456040	-0.491512	-0.242335
H212	H	0.517004	-0.492861	-0.296415
C213	C	0.907287	-0.396616	-0.594745
C214	C	0.866220	-0.437686	-0.637631
C215	C	0.819268	-0.484690	-0.598765
H216	H	0.877595	-0.370971	-0.567006
H217	H	0.932991	-0.426297	-0.567034
H218	H	0.840518	-0.408009	-0.665331
H219	H	0.895893	-0.463346	-0.665371
H220	H	0.844972	-0.514371	-0.571054
H221	H	0.789581	-0.459039	-0.571027
H222	H	0.791403	-0.512566	-0.627857
C223	C	1.109609	-1.035709	-0.458252
C224	C	1.094932	-1.018372	-0.525303
C225	C	1.138484	-1.053219	-0.569109
H226	H	1.101243	-1.085107	-0.449912
H227	H	1.157478	-1.021699	-0.450831
H228	H	1.047074	-1.032386	-0.532721
H229	H	1.103302	-0.968981	-0.533665
H230	H	1.186354	-1.039209	-0.561688
H231	H	1.130115	-1.102615	-0.560762
H232	H	1.128537	-1.041456	-0.614607
H233	H	0.599843	-0.396618	-0.255339
