data_functionalizedCrystal
_audit_creation_method	'MofGen! by Chris Wilmer'
_symmetry_space_group_name_H-M	'P1'
_symmetry_Int_Tables_number	1
_symmetry_cell_setting	triclinic
loop_
_symmetry_equiv_pos_as_xyz
  x,y,z
_cell_length_a	19.805407
_cell_length_b	10.686285
_cell_length_c	19.805399
_cell_angle_alpha	85.610534
_cell_angle_beta	89.980427
_cell_angle_gamma	85.631507
loop_
_atom_site_label
_atom_site_type_symbol
_atom_site_fract_x
_atom_site_fract_y
_atom_site_fract_z
Zn1	Zn	1.055500	-0.502374	-0.362110
Zn2	Zn	1.064136	-0.713385	-0.240266
Zn3	Zn	0.942316	-0.502409	-0.248934
Zn4	Zn	0.950997	-0.713318	-0.353415
O5	O	1.003237	-0.607872	-0.301181
O6	O	1.151363	-0.530379	-0.345959
O7	O	1.047958	-0.685441	-0.146697
O8	O	0.950083	-0.325830	-0.271213
O9	O	1.157708	-0.685408	-0.256440
O10	O	1.033239	-0.325804	-0.354364
O11	O	0.958457	-0.530438	-0.153065
O12	O	0.848750	-0.530373	-0.262782
O13	O	0.964878	-0.685293	-0.449287
O14	O	0.855128	-0.685327	-0.339544
O15	O	1.041656	-0.530314	-0.455675
O16	O	1.056375	-0.889951	-0.248009
O17	O	0.973252	-0.889902	-0.331139
C18	C	0.827380	-0.607847	-0.301160
C19	C	0.752149	-0.607868	-0.301166
C20	C	0.720149	-0.688673	-0.341061
C21	C	0.649460	-0.688676	-0.341071
C22	C	0.610774	-0.607877	-0.301181
C23	C	0.642779	-0.527063	-0.261284
C24	C	0.713466	-0.527055	-0.261279
C25	C	0.357707	-0.527090	-0.261306
C26	C	0.287015	-0.527107	-0.261312
C27	C	0.293701	-0.688711	-0.341097
C28	C	0.364388	-0.688704	-0.341092
C29	C	0.396387	-0.607885	-0.301198
C30	C	0.473035	-0.607882	-0.301190
C31	C	0.534127	-0.607886	-0.301186
C32	C	1.016711	-0.935710	-0.287705
C33	C	1.022538	-1.075961	-0.281962
C34	C	1.179781	-0.607897	-0.301203
C35	C	1.255013	-0.607907	-0.301212
C36	C	1.003272	-0.607792	-0.477727
C37	C	1.003287	-0.607758	-0.552961
C38	C	0.989729	-0.278753	-0.314725
C39	C	0.983973	-0.138502	-0.320497
C40	C	1.043266	-0.527056	-0.591633
C41	C	1.043271	-0.527020	-0.662323
C42	C	1.003301	-0.607692	-0.694339
C43	C	0.963317	-0.688398	-0.655662
C44	C	0.963308	-0.688427	-0.584974
C45	C	0.963350	-0.688280	-0.940740
C46	C	0.963364	-0.688247	-1.011434
C47	C	1.043313	-0.526873	-1.018089
C48	C	1.043305	-0.526902	-0.947401
C49	C	1.003318	-0.607602	-0.908730
C50	C	1.003312	-0.607639	-0.832080
C51	C	1.003310	-0.607663	-0.770988
C52	C	1.003238	-0.607860	-0.125326
C53	C	1.003340	-0.607538	-0.050107
H54	H	0.739519	-0.461248	-0.228796
C55	C	1.086640	-0.439598	-0.556748
C56	C	1.078090	-0.456914	-0.486563
C57	C	1.118041	-0.376374	-0.454407
H58	H	1.073293	-0.354762	-0.571743
H59	H	1.132893	-0.458073	-0.567541
H60	H	1.031848	-0.438430	-0.475775
H61	H	1.091441	-0.541733	-0.471549
H62	H	1.164294	-0.394849	-0.465201
H63	H	1.104690	-0.291543	-0.469408
H64	H	1.112250	-0.388120	-0.406784
H65	H	1.075869	-0.461159	-1.049584
H66	H	0.751642	-0.754473	-0.373542
C67	C	0.934117	-1.066771	-0.370439
C68	C	0.969310	-0.991030	-0.416935
C69	C	0.923407	-0.924937	-0.462958
H70	H	0.902517	-1.015326	-0.346682
H71	H	0.910714	-1.124770	-0.393887
H72	H	0.992703	-0.933038	-0.393490
H73	H	1.000907	-1.042443	-0.440708
H74	H	0.900004	-0.982936	-0.486405
H75	H	0.891809	-0.873500	-0.439195
H76	H	0.947279	-0.873548	-0.494515
C77	C	1.072514	-1.147856	-0.232193
C78	C	1.068581	-1.277338	-0.236225
C79	C	1.114625	-1.343606	-0.190406
H80	H	1.061829	-1.126556	-0.187533
H81	H	1.117106	-1.126290	-0.243046
H82	H	1.023999	-1.298896	-0.225367
H83	H	1.079273	-1.298676	-0.280874
H84	H	1.159218	-1.322040	-0.201259
H85	H	1.103936	-1.322295	-0.145749
H86	H	1.111968	-1.431466	-0.193140
C87	C	0.259039	-0.776371	-0.384533
C88	C	0.275158	-0.749078	-0.452644
C89	C	0.243248	-0.829812	-0.492674
H90	H	0.211393	-0.764882	-0.378916
H91	H	0.274118	-0.861149	-0.371108
H92	H	0.260076	-0.664321	-0.466066
H93	H	0.322798	-0.760575	-0.458283
H94	H	0.258327	-0.914590	-0.479248
H95	H	0.195604	-0.818316	-0.487051
H96	H	0.254185	-0.811313	-0.538891
H97	H	1.075828	-0.461307	-0.693806
C98	C	1.086721	-0.439174	-0.912768
C99	C	1.121721	-0.368464	-0.961768
C100	C	1.161713	-0.287619	-0.929892
H101	H	1.118244	-0.487316	-0.883214
H102	H	1.058579	-0.384137	-0.887469
H103	H	1.149860	-0.423494	-0.987056
H104	H	1.090214	-0.320297	-0.991324
H105	H	1.133571	-0.232582	-0.904592
H106	H	1.193232	-0.335771	-0.900338
H107	H	1.185461	-0.239624	-0.963133
C108	C	0.614677	-0.776209	-0.384476
C109	C	0.571197	-0.704887	-0.430877
C110	C	0.539153	-0.785484	-0.470881
H111	H	0.589294	-0.831151	-0.356359
H112	H	0.647823	-0.824308	-0.408267
H113	H	0.538056	-0.656810	-0.407088
H114	H	0.596563	-0.649948	-0.459009
H115	H	0.572298	-0.833582	-0.494672
H116	H	0.513773	-0.840422	-0.442758
H117	H	0.509652	-0.737103	-0.502373
H118	H	0.930746	-0.754130	-0.553488
C119	C	0.919888	-0.775881	-1.046073
C120	C	0.884853	-0.846536	-0.997079
C121	C	0.844794	-0.927261	-1.028963
H122	H	0.947968	-0.830967	-1.071387
H123	H	0.888389	-0.727616	-1.075615
H124	H	0.916349	-0.894798	-0.967548
H125	H	0.856761	-0.791483	-0.971762
H126	H	0.813294	-0.878996	-1.058506
H127	H	0.872879	-0.982339	-1.054277
H128	H	0.821013	-0.975202	-0.995727
H129	H	0.930802	-0.754010	-0.909262
C130	C	0.920038	-0.776141	-0.690451
C131	C	0.961689	-0.857029	-0.727696
C132	C	0.921846	-0.937890	-0.759744
H133	H	0.888563	-0.728003	-0.720058
H134	H	0.896240	-0.824282	-0.657312
H135	H	0.985476	-0.808894	-0.760831
H136	H	0.993163	-0.905195	-0.698105
H137	H	0.898048	-0.986031	-0.726605
H138	H	0.890372	-0.889742	-0.789347
H139	H	0.950100	-0.992790	-0.785013
C140	C	0.245127	-0.439232	-0.217985
C141	C	0.288278	-0.368426	-0.183061
C142	C	0.249714	-0.287458	-0.143151
H143	H	0.219514	-0.487289	-0.186417
H144	H	0.215316	-0.384261	-0.246177
H145	H	0.318077	-0.423390	-0.154872
H146	H	0.313891	-0.320344	-0.214613
H147	H	0.219903	-0.232487	-0.171343
H148	H	0.224103	-0.335524	-0.111587
H149	H	0.278986	-0.239398	-0.119455
H150	H	0.383752	-0.461292	-0.228816
C151	C	0.600662	-0.439467	-0.217999
C152	C	0.531909	-0.456789	-0.226528
C153	C	0.493093	-0.376128	-0.186656
H154	H	0.608683	-0.354660	-0.231425
H155	H	0.612943	-0.457827	-0.171734
H156	H	0.519632	-0.438420	-0.272783
H157	H	0.523867	-0.541580	-0.213097
H158	H	0.505374	-0.394489	-0.140391
H159	H	0.501120	-0.291326	-0.200086
H160	H	0.446440	-0.387879	-0.192433
H161	H	0.395884	-0.754502	-0.373572
