data_functionalizedCrystal
_audit_creation_method	'MofGen! by Chris Wilmer'
_symmetry_space_group_name_H-M	'P1'
_symmetry_Int_Tables_number	1
_symmetry_cell_setting	triclinic
loop_
_symmetry_equiv_pos_as_xyz
  x,y,z
_cell_length_a	9.065218
_cell_length_b	16.053789
_cell_length_c	9.065218
_cell_angle_alpha	87.148238
_cell_angle_beta	94.984115
_cell_angle_gamma	92.853856
loop_
_atom_site_label
_atom_site_type_symbol
_atom_site_fract_x
_atom_site_fract_y
_atom_site_fract_z
O1	O	1.966025	0.069428	-0.221979
O2	O	1.536740	0.069429	-0.239726
O3	O	1.760256	0.069427	-0.016210
O4	O	1.742509	0.069430	-0.445495
O5	O	1.748989	-0.069433	-0.004958
O6	O	1.525474	-0.069430	-0.228474
O7	O	1.954758	-0.069431	-0.210727
Zn8	Zn	1.738327	-0.091478	-0.217814
Zn9	Zn	1.753171	0.091475	-0.232639
O10	O	1.731243	-0.069429	-0.434243
C11	C	1.476120	-0.000001	-0.232394
C12	C	1.312277	-0.000000	-0.227294
N13	N	1.728207	-0.216339	-0.207695
C14	C	1.815351	-0.260029	-0.294900
C15	C	1.808291	-0.347436	-0.287813
C16	C	1.714079	-0.391151	-0.193527
C17	C	1.626932	-0.347455	-0.106312
C18	C	1.634001	-0.260050	-0.113392
C19	C	1.683224	-0.652562	-0.162612
C20	C	1.676159	-0.739974	-0.155541
C21	C	1.857521	-0.739948	-0.337041
C22	C	1.864574	-0.652541	-0.344120
C23	C	1.777433	-0.608853	-0.256899
N24	N	1.706858	-0.480495	-0.186283
N25	N	1.784663	-0.519510	-0.264136
C26	C	2.015378	0.000000	-0.218059
C27	C	2.179222	0.000005	-0.223159
C28	C	1.752917	-0.000002	0.044403
C29	C	1.747818	0.000002	0.208245
N30	N	1.763303	0.216336	-0.242746
C31	C	1.738582	0.000001	-0.494856
C32	C	1.743681	0.000002	-0.658699
H33	H	1.892059	-0.224442	-0.371687
C34	C	1.904144	-0.395491	-0.383744
H35	H	1.961250	-0.356937	-0.440925
H36	H	1.968494	-0.429583	-0.321469
H37	H	1.841814	-0.429591	-0.448050
H38	H	1.941296	-0.616954	-0.420893
H39	H	1.928467	-0.775529	-0.408049
H40	H	1.599433	-0.775565	-0.078762
C41	C	1.587358	-0.604516	-0.066688
H42	H	1.530226	-0.643072	-0.009537
H43	H	1.649667	-0.570415	-0.002378
H44	H	1.523007	-0.570425	-0.128980
H45	H	1.550230	-0.383055	-0.029535
C46	C	1.538137	-0.211991	-0.017473
H47	H	1.481004	-0.250543	0.039685
H48	H	1.600454	-0.177890	0.046830
H49	H	1.473786	-0.177900	-0.079765
