data_functionalizedCrystal
_audit_creation_method	'MofGen! by Chris Wilmer'
_symmetry_space_group_name_H-M	'P1'
_symmetry_Int_Tables_number	1
_symmetry_cell_setting	triclinic
loop_
_symmetry_equiv_pos_as_xyz
  x,y,z
_cell_length_a	9.065218
_cell_length_b	19.188930
_cell_length_c	7.540329
_cell_angle_alpha	89.991297
_cell_angle_beta	89.996962
_cell_angle_gamma	84.080333
loop_
_atom_site_label
_atom_site_type_symbol
_atom_site_fract_x
_atom_site_fract_y
_atom_site_fract_z
O1	O	1.956847	0.102369	-0.147510
O2	O	2.456847	0.602369	0.352490
O3	O	1.527271	0.110766	-0.147515
O4	O	2.027271	0.610766	0.352485
O5	O	1.754456	0.005009	-0.147478
O6	O	2.254456	0.505009	0.352522
O7	O	1.729662	0.208127	-0.147547
O8	O	2.229662	0.708127	0.352453
O9	O	1.754442	0.005007	0.147487
O10	O	2.254442	0.505007	0.647487
O11	O	1.527257	0.110765	0.147450
O12	O	2.027257	0.610765	0.647450
O13	O	1.956833	0.102368	0.147455
O14	O	2.456833	0.602368	0.647455
Cu15	Cu	1.742044	0.106566	0.174385
Cu16	Cu	2.242044	0.606566	0.674385
Cu17	Cu	1.742060	0.106568	-0.174445
Cu18	Cu	2.242060	0.606568	0.325555
O19	O	1.729649	0.208126	0.147418
O20	O	2.229649	0.708126	0.647418
C21	C	1.472305	0.109959	-0.000032
C22	C	1.972305	0.609959	0.499968
C23	C	1.308546	0.107546	-0.000033
C24	C	1.808546	0.607546	0.499967
C25	C	1.753646	-0.021009	0.000010
C26	C	2.253646	0.478991	0.500010
C27	C	1.751236	-0.098533	0.000025
C28	C	2.251236	0.401467	0.500025
C29	C	1.884540	-0.142421	0.000035
C30	C	2.384540	0.357579	0.500035
C31	C	1.882276	-0.215262	0.000006
C32	C	2.382276	0.284738	0.500006
C33	C	1.746699	-0.244212	0.000004
C34	C	2.246699	0.255788	0.500004
C35	C	1.613377	-0.200314	-0.000016
C36	C	2.113377	0.299686	0.499984
C37	C	1.615646	-0.127474	-0.000006
C38	C	2.115646	0.372526	0.499994
N39	N	1.643063	-0.353023	0.100385
N40	N	2.143063	0.146977	0.600385
N41	N	1.640917	-0.422218	0.100379
N42	N	2.140917	0.077782	0.600379
C43	C	1.739858	-0.463674	-0.000032
C44	C	2.239858	0.036326	0.499968
N45	N	1.841047	-0.433322	-0.100414
N46	N	2.341047	0.066678	0.399586
N47	N	1.843197	-0.364120	-0.100400
N48	N	2.343197	0.135880	0.399600
C49	C	1.744225	-0.323194	-0.000009
C50	C	2.244225	0.176806	0.499991
C51	C	1.870716	-0.586546	-0.000056
C52	C	2.370716	-0.086546	0.499944
C53	C	1.868446	-0.659388	-0.000095
C54	C	2.368446	-0.159388	0.499905
C55	C	1.599544	-0.644438	-0.000100
C56	C	2.099544	-0.144438	0.499900
C57	C	1.601818	-0.571598	-0.000078
C58	C	2.101818	-0.071598	0.499922
C59	C	1.737408	-0.542656	-0.000048
C60	C	2.237408	-0.042656	0.499952
C61	C	2.011799	0.103176	-0.000032
C62	C	2.511799	0.603176	0.499968
C63	C	2.175558	0.105589	-0.000043
C64	C	2.675558	0.605589	0.499957
C65	C	1.730458	0.234144	-0.000074
C66	C	2.230458	0.734144	0.499926
C67	C	1.732869	0.311667	-0.000101
C68	C	2.232869	0.811667	0.499899
N69	N	1.742044	0.106565	0.419734
N70	N	2.242044	0.606565	0.919734
N71	N	1.742072	0.106564	-0.419794
N72	N	2.242072	0.606564	0.080206
H73	H	1.990832	-0.251003	0.000007
H74	H	2.490832	0.248997	0.500007
C75	C	2.029277	-0.513323	0.151599
C76	C	2.529277	-0.013323	0.651599
C77	C	2.019756	-0.554730	-0.000045
C78	C	2.519756	-0.054730	0.499955
H79	H	2.121293	-0.493688	0.151605
H80	H	2.621293	0.006312	0.651605
H81	H	1.950221	-0.476759	0.151597
H82	H	2.450221	0.023241	0.651597
H83	H	2.022797	-0.541446	0.254439
H84	H	2.522797	-0.041446	0.754439
H85	H	2.026224	-0.526606	-0.102886
H86	H	2.526224	-0.026606	0.397114
H87	H	2.098833	-0.591299	-0.000060
H88	H	2.598833	-0.091299	0.499940
H89	H	1.507089	-0.091740	-0.000013
H90	H	2.007089	0.408260	0.499987
C91	C	2.150108	-0.164520	0.000046
C92	C	2.650108	0.335480	0.500046
C93	C	2.033579	-0.110609	0.000049
C94	C	2.533579	0.389391	0.500049
H95	H	2.242116	-0.144878	0.000043
H96	H	2.742116	0.355122	0.500043
H97	H	2.143622	-0.192624	0.102898
H98	H	2.643622	0.307376	0.602898
H99	H	2.143625	-0.192613	-0.102825
H100	H	2.643625	0.307387	0.397175
H101	H	2.040056	-0.082519	0.102927
H102	H	2.540056	0.417481	0.602927
H103	H	2.040069	-0.082493	-0.102813
H104	H	2.540069	0.417507	0.397187
C105	C	1.490507	-0.305336	-0.000007
C106	C	1.990507	0.194664	0.499993
C107	C	1.464349	-0.232133	-0.000012
C108	C	1.964349	0.267867	0.499988
H109	H	1.398497	-0.324977	0.000001
H110	H	1.898497	0.175023	0.500001
H111	H	1.545372	-0.320333	-0.102860
H112	H	2.045372	0.179667	0.397140
H113	H	1.545373	-0.320343	0.102863
H114	H	2.045373	0.179657	0.602863
H115	H	1.409492	-0.217126	-0.102888
H116	H	1.909492	0.282874	0.397112
H117	H	1.409460	-0.217130	0.102852
H118	H	1.909460	0.282870	0.602852
C119	C	2.134468	-0.666844	-0.000040
C120	C	2.634468	-0.166844	0.499960
C121	C	2.014987	-0.707634	-0.000080
C122	C	2.514987	-0.207634	0.499920
H123	H	2.224936	-0.696631	-0.000018
H124	H	2.724936	-0.196631	0.499982
H125	H	2.129778	-0.638116	-0.102889
H126	H	2.629778	-0.138116	0.397111
H127	H	2.129733	-0.638130	0.102834
H128	H	2.629733	-0.138130	0.602834
H129	H	2.019717	-0.736344	-0.102961
H130	H	2.519717	-0.236344	0.397039
H131	H	2.019680	-0.736374	0.102779
H132	H	2.519680	-0.236374	0.602779
H133	H	1.489155	-0.668009	-0.000111
H134	H	1.989155	-0.168009	0.499889
H135	H	1.493266	-0.535863	-0.000076
H136	H	1.993266	-0.035863	0.499924
