data_functionalizedCrystal
_audit_creation_method	'MofGen! by Chris Wilmer'
_symmetry_space_group_name_H-M	'P1'
_symmetry_Int_Tables_number	1
_symmetry_cell_setting	triclinic
loop_
_symmetry_equiv_pos_as_xyz
  x,y,z
_cell_length_a	17.019282
_cell_length_b	17.038278
_cell_length_c	9.130313
_cell_angle_alpha	89.988283
_cell_angle_beta	93.877700
_cell_angle_gamma	87.241329
loop_
_atom_site_label
_atom_site_type_symbol
_atom_site_fract_x
_atom_site_fract_y
_atom_site_fract_z
O1	O	1.053360	0.099546	0.011084
O2	O	0.824548	0.112259	-0.017793
O3	O	0.937595	-0.007912	-0.003489
O4	O	0.940313	0.219716	-0.003220
O5	O	0.937587	-0.007915	0.240109
O6	O	0.824539	0.112255	0.225805
O7	O	1.053352	0.099542	0.254681
Cu8	Cu	0.938945	0.105898	0.262486
Cu9	Cu	0.938955	0.105902	-0.025597
O10	O	0.940304	0.219713	0.240377
C11	C	0.795122	0.111777	0.100294
C12	C	0.707455	0.110337	0.089232
C13	C	0.935118	-0.037040	0.118004
C14	C	0.927738	-0.123826	0.117092
C15	C	0.666269	0.109657	0.216824
C16	C	0.583897	0.108291	0.206434
C17	C	0.542713	0.107612	0.068451
C18	C	0.583905	0.108290	-0.059150
C19	C	0.666275	0.109650	-0.048759
C20	C	0.294007	0.103502	0.030434
C21	C	0.211631	0.102144	0.020052
C22	C	0.211629	0.102144	0.285637
C23	C	0.294001	0.103509	0.296016
C24	C	0.335186	0.104182	0.168415
C25	C	0.458516	0.106219	0.057828
C26	C	0.419382	0.105570	0.179040
C27	C	0.882402	-0.614196	0.111237
C28	C	0.889342	-0.532652	0.112127
C29	C	0.964042	-0.501287	0.121574
C30	C	1.031807	-0.551470	0.130117
C31	C	1.024866	-0.633013	0.129216
C32	C	0.988562	-0.255552	0.124734
C33	C	0.995498	-0.174003	0.125639
C34	C	0.853032	-0.155190	0.107646
C35	C	0.846098	-0.236735	0.106755
C36	C	0.913863	-0.286912	0.115290
C37	C	0.971138	-0.417936	0.122489
C38	C	0.906766	-0.370261	0.114365
C39	C	1.082778	0.100024	0.136592
C40	C	1.170445	0.101464	0.147644
C41	C	0.942782	0.248841	0.118881
C42	C	0.950162	0.335627	0.119784
N43	N	0.938944	0.105895	0.465108
N44	N	0.938962	0.105900	-0.228219
C45	C	0.989020	0.052706	0.548096
C46	C	0.989028	0.052706	0.701434
C47	C	0.888880	0.159092	0.688782
C48	C	0.888869	0.159087	0.535446
H49	H	0.550368	0.107725	0.310333
H50	H	0.327530	0.104048	-0.073468
O51	O	1.043017	-0.004671	0.472222
H52	H	1.077833	-0.041662	0.555696
H53	H	0.797862	-0.114329	0.100696
O54	O	0.539490	0.107560	-0.207980
H55	H	0.475292	0.106510	-0.193773
H56	H	1.043741	-0.296396	0.131693
H57	H	0.327528	0.104058	0.408376
O58	O	0.167204	0.101413	0.423253
H59	H	0.209681	0.102120	0.520945
H60	H	1.029804	0.009393	0.768999
H61	H	1.092630	-0.525926	0.137812
H62	H	1.056331	-0.148469	0.133333
O63	O	0.710704	0.110388	-0.186373
H64	H	0.668228	0.109695	-0.284068
O65	O	0.765528	-0.270566	0.096571
H66	H	0.719575	-0.221974	0.090770
H67	H	0.178101	0.101593	-0.092316
O68	O	0.801832	-0.648026	0.101047
H69	H	0.755881	-0.599431	0.095239
O70	O	0.463795	0.106313	0.327864
H71	H	0.504791	0.053679	0.339415
H72	H	0.424974	0.105665	-0.054518
O73	O	0.834881	0.216471	0.764645
H74	H	0.843308	0.207546	0.885213
O75	O	0.816259	-0.478530	0.102938
H76	H	0.763150	-0.514039	0.096245
O77	O	0.834858	0.216460	0.445920
H78	H	0.800049	0.253457	0.520590
H79	H	0.699795	0.110217	0.329184
O80	O	1.097949	-0.687138	0.138449
H81	H	1.151059	-0.651630	0.145186
O82	O	0.826199	-0.404089	0.104194
H83	H	0.819636	-0.440778	0.004077
H84	H	1.031959	-0.392389	0.130230
