data_functionalizedCrystal
_audit_creation_method	'MofGen! by Chris Wilmer'
_symmetry_space_group_name_H-M	'P1'
_symmetry_Int_Tables_number	1
_symmetry_cell_setting	triclinic
loop_
_symmetry_equiv_pos_as_xyz
  x,y,z
_cell_length_a	29.839134
_cell_length_b	29.839131
_cell_length_c	29.839125
_cell_angle_alpha	90.017709
_cell_angle_beta	90.024313
_cell_angle_gamma	90.034165
loop_
_atom_site_label
_atom_site_type_symbol
_atom_site_fract_x
_atom_site_fract_y
_atom_site_fract_z
Zn1	Zn	0.686720	-0.179003	0.254153
Zn2	Zn	1.020053	0.154330	0.587486
Zn3	Zn	1.353386	0.487663	0.920820
Zn4	Zn	0.686652	-0.254115	0.179023
Zn5	Zn	1.019985	0.079218	0.512356
Zn6	Zn	1.353318	0.412551	0.845690
Zn7	Zn	0.611602	-0.178991	0.179019
Zn8	Zn	0.944936	0.154343	0.512353
Zn9	Zn	1.278269	0.487676	0.845686
Zn10	Zn	0.611550	-0.254097	0.254108
Zn11	Zn	0.944883	0.079236	0.587442
Zn12	Zn	1.278217	0.412569	0.920775
O13	O	0.649131	-0.216552	0.216576
O14	O	0.982464	0.116782	0.549909
O15	O	1.315798	0.450115	0.883243
O16	O	0.749578	-0.188980	0.244207
O17	O	1.082911	0.144354	0.577540
O18	O	1.416244	0.477687	0.910874
O19	O	0.676690	-0.244152	0.116155
O20	O	1.010023	0.089181	0.449489
O21	O	1.343356	0.422515	0.782822
O22	O	0.621617	-0.116125	0.189003
O23	O	0.954950	0.217208	0.522337
O24	O	1.288284	0.550542	0.855670
O25	O	0.749528	-0.244164	0.189009
O26	O	1.082861	0.089169	0.522343
O27	O	1.416195	0.422502	0.855676
O28	O	0.676805	-0.116134	0.244204
O29	O	1.010139	0.217199	0.577537
O30	O	1.343472	0.550532	0.910870
O31	O	0.621551	-0.188958	0.116153
O32	O	0.954885	0.144375	0.449486
O33	O	1.288218	0.477708	0.782819
O34	O	0.548728	-0.188941	0.188960
O35	O	0.882062	0.144392	0.522293
O36	O	1.215395	0.477726	0.855627
O37	O	0.621528	-0.244134	0.316981
O38	O	0.954861	0.089199	0.650315
O39	O	1.288195	0.422533	0.983648
O40	O	0.548690	-0.244122	0.244127
O41	O	0.882023	0.089212	0.577461
O42	O	1.215357	0.422545	0.910794
O43	O	0.676755	-0.188962	0.317014
O44	O	1.010088	0.144371	0.650348
O45	O	1.343421	0.477704	0.983681
O46	O	0.676639	-0.316980	0.188966
O47	O	1.009972	0.016353	0.522299
O48	O	1.343306	0.349687	0.855633
O49	O	0.621462	-0.316967	0.244131
O50	O	0.954796	0.016366	0.577464
O51	O	1.288129	0.349700	0.910797
C52	C	0.532408	-0.216528	0.216539
C53	C	0.865742	0.116805	0.549872
C54	C	1.199075	0.450138	0.883205
C55	C	0.482474	-0.216529	0.216534
C56	C	0.815807	0.116804	0.549867
C57	C	1.149141	0.450138	0.883200
C58	C	0.125894	-0.187777	0.187909
C59	C	0.459228	0.145557	0.521242
C60	C	0.792561	0.478890	0.854576
C61	C	0.313567	-0.187764	0.187882
C62	C	0.646901	0.145569	0.521215
C63	C	0.980234	0.478903	0.854548
O64	O	0.337838	-0.163279	0.163502
O65	O	0.671172	0.170054	0.496835
O66	O	1.004505	0.503387	0.830169
N67	N	0.337029	-0.216536	0.216556
N68	N	0.670362	0.116797	0.549889
N69	N	1.003695	0.450130	0.883223
C70	C	0.313569	-0.245312	0.245242
C71	C	0.646902	0.088021	0.578575
C72	C	0.980236	0.421355	0.911908
O73	O	0.337831	-0.269781	0.269634
O74	O	0.671164	0.063552	0.602967
O75	O	1.004498	0.396885	0.936300
C76	C	0.125897	-0.245322	0.245271
C77	C	0.459230	0.088011	0.578604
C78	C	0.792564	0.421345	0.911937
C79	C	0.102438	-0.216551	0.216591
C80	C	0.435771	0.116782	0.549924
C81	C	0.769105	0.450116	0.883258
C82	C	0.102435	-0.159007	0.159232
C83	C	0.435769	0.174326	0.492565
C84	C	0.769102	0.507659	0.825899
C85	C	0.055520	-0.159013	0.159237
C86	C	0.388853	0.174321	0.492571
C87	C	0.722186	0.507654	0.825904
C88	C	0.032063	-0.187787	0.187920
C89	C	0.365397	0.145546	0.521253
C90	C	0.698730	0.478880	0.854586
C91	C	0.055522	-0.216556	0.216597
C92	C	0.388856	0.116777	0.549930
C93	C	0.722189	0.450111	0.883263
C94	C	0.102438	-0.274095	0.273958
C95	C	0.435771	0.059238	0.607291
C96	C	0.769105	0.392572	0.940625
C97	C	0.055517	-0.274094	0.273964
C98	C	0.388850	0.059239	0.607297
C99	C	0.722184	0.392572	0.940630
C100	C	0.032058	-0.245323	0.245284
C101	C	0.365391	0.088010	0.578617
C102	C	0.698725	0.421344	0.911951
C103	C	-0.014849	-0.245336	0.245284
C104	C	0.318484	0.087998	0.578618
C105	C	0.651817	0.421331	0.911951
N106	N	-0.038311	-0.216563	0.216610
N107	N	0.295022	0.116770	0.549943
N108	N	0.628356	0.450103	0.883276
C109	C	-0.014854	-0.187789	0.187927
C110	C	0.318479	0.145544	0.521261
C111	C	0.651812	0.478878	0.854594
C112	C	0.412100	-0.245305	0.245224
C113	C	0.745433	0.088028	0.578557
C114	C	1.078766	0.421361	0.911890
C115	C	0.459018	-0.245303	0.245216
C116	C	0.792351	0.088030	0.578549
C117	C	1.125684	0.421363	0.911882
C118	C	0.459013	-0.187755	0.187856
C119	C	0.792346	0.145579	0.521190
C120	C	1.125679	0.478912	0.854523
C121	C	0.412094	-0.187759	0.187862
C122	C	0.745427	0.145574	0.521196
C123	C	1.078761	0.478908	0.854529
C124	C	0.388638	-0.216533	0.216549
C125	C	0.721972	0.116801	0.549882
C126	C	1.055305	0.450134	0.883216
C127	C	-0.113380	-0.187802	0.187941
C128	C	0.219953	0.145531	0.521274
C129	C	0.553286	0.478864	0.854607
C130	C	-0.160300	-0.187811	0.187947
C131	C	0.173033	0.145522	0.521281
C132	C	0.506367	0.478855	0.854614
C133	C	-0.160291	-0.245358	0.245308
C134	C	0.173043	0.087975	0.578641
C135	C	0.506376	0.421309	0.911975
C136	C	-0.113375	-0.245351	0.245300
C137	C	0.219958	0.087982	0.578633
C138	C	0.553291	0.421316	0.911967
C139	C	-0.089921	-0.216569	0.216615
C140	C	0.243412	0.116764	0.549948
C141	C	0.576745	0.450097	0.883281
O142	O	-0.039149	-0.269804	0.269654
O143	O	0.294184	0.063530	0.602988
O144	O	0.627517	0.396863	0.936321
O145	O	-0.039124	-0.163316	0.163546
O146	O	0.294209	0.170017	0.496879
O147	O	0.627542	0.503350	0.830213
C148	C	0.172810	-0.187771	0.187904
C149	C	0.506143	0.145562	0.521237
C150	C	0.839476	0.478895	0.854570
C151	C	0.196269	-0.216541	0.216580
C152	C	0.529602	0.116793	0.549914
C153	C	0.862936	0.450126	0.883247
C154	C	0.172812	-0.245315	0.245263
C155	C	0.506146	0.088018	0.578596
C156	C	0.839479	0.421352	0.911929
C157	C	0.243187	-0.216539	0.216573
C158	C	0.576520	0.116795	0.549906
C159	C	0.909853	0.450128	0.883239
C160	C	0.266643	-0.187764	0.187890
C161	C	0.599976	0.145569	0.521224
C162	C	0.933310	0.478902	0.854557
C163	C	0.243182	-0.158992	0.159216
C164	C	0.576515	0.174341	0.492549
C165	C	0.909848	0.507675	0.825883
C166	C	0.196266	-0.158997	0.159221
C167	C	0.529599	0.174336	0.492555
C168	C	0.862933	0.507670	0.825888
C169	C	0.196274	-0.274087	0.273937
C170	C	0.529607	0.059246	0.607270
C171	C	0.862941	0.392579	0.940604
C172	C	0.243189	-0.274080	0.273929
C173	C	0.576523	0.059253	0.607262
C174	C	0.909856	0.392586	0.940596
C175	C	0.266646	-0.245306	0.245247
C176	C	0.599979	0.088027	0.578580
C177	C	0.933312	0.421361	0.911913
C178	C	0.649050	-0.333274	0.216554
C179	C	0.982383	0.000059	0.549887
C180	C	1.315717	0.333392	0.883220
C181	C	0.649056	-0.383209	0.216559
C182	C	0.982390	-0.049875	0.549892
C183	C	1.315723	0.283458	0.883226
C184	C	0.677914	-0.692846	0.187894
C185	C	1.011247	-0.359513	0.521227
C186	C	1.344580	-0.026180	0.854560
C187	C	0.677969	-0.880519	0.187911
C188	C	1.011303	-0.547186	0.521244
C189	C	1.344636	-0.213853	0.854578
O190	O	0.702441	-0.904779	0.163521
O191	O	1.035774	-0.571446	0.496855
O192	O	1.369107	-0.238112	0.830188
N193	N	0.649224	-0.903994	0.216610
N194	N	0.982557	-0.570660	0.549943
N195	N	1.315891	-0.237327	0.883276
C196	C	0.620465	-0.880547	0.245308
C197	C	0.953799	-0.547214	0.578642
C198	C	1.287132	-0.213880	0.911975
O199	O	0.596020	-0.904820	0.269722
O200	O	0.929354	-0.571486	0.603055
O201	O	1.262687	-0.238153	0.936389
C202	C	0.620412	-0.692875	0.245293
C203	C	0.953746	-0.359541	0.578626
C204	C	1.287079	-0.026208	0.911960
C205	C	0.649156	-0.669403	0.216589
C206	C	0.982489	-0.336069	0.549922
C207	C	1.315823	-0.002736	0.883256
C208	C	0.706656	-0.669374	0.159192
C209	C	1.039989	-0.336041	0.492526
C210	C	1.373322	-0.002707	0.825859
C211	C	0.706640	-0.622459	0.159187
C212	C	1.039973	-0.289125	0.492520
C213	C	1.373306	0.044208	0.825853
C214	C	0.677882	-0.599015	0.187882
C215	C	1.011215	-0.265682	0.521215
C216	C	1.344549	0.067651	0.854549
C217	C	0.649140	-0.622487	0.216583
C218	C	0.982474	-0.289154	0.549916
C219	C	1.315807	0.044179	0.883250
C220	C	0.591656	-0.669429	0.273993
C221	C	0.924989	-0.336096	0.607327
C222	C	1.258323	-0.002762	0.940660
C223	C	0.591646	-0.622508	0.273988
C224	C	0.924979	-0.289175	0.607321
C225	C	1.258313	0.044159	0.940654
C226	C	0.620390	-0.599036	0.245284
C227	C	0.953723	-0.265703	0.578617
C228	C	1.287057	0.067631	0.911951
C229	C	0.620367	-0.552128	0.245273
C230	C	0.953700	-0.218795	0.578606
C231	C	1.287033	0.114538	0.911939
N232	N	0.649112	-0.528654	0.216574
N233	N	0.982445	-0.195321	0.549907
N234	N	1.315778	0.138013	0.883241
C235	C	0.677869	-0.552097	0.187879
C236	C	1.011203	-0.218764	0.521212
C237	C	1.344536	0.114569	0.854545
C238	C	0.620494	-0.979078	0.245314
C239	C	0.953828	-0.645744	0.578647
C240	C	1.287161	-0.312411	0.911981
C241	C	0.620507	-1.025995	0.245317
C242	C	0.953840	-0.692662	0.578651
C243	C	1.287174	-0.359329	0.911984
C244	C	0.678012	-1.025964	0.187920
C245	C	1.011345	-0.692631	0.521254
C246	C	1.344678	-0.359298	0.854587
C247	C	0.677996	-0.979046	0.187915
C248	C	1.011330	-0.645712	0.521248
C249	C	1.344663	-0.312379	0.854582
C250	C	0.649239	-0.955603	0.216615
C251	C	0.982573	-0.622270	0.549948
C252	C	1.315906	-0.288936	0.883282
C253	C	0.677834	-0.453572	0.187868
C254	C	1.011167	-0.120238	0.521202
C255	C	1.344500	0.213095	0.854535
C256	C	0.677814	-0.406652	0.187864
C257	C	1.011147	-0.073319	0.521197
C258	C	1.344481	0.260015	0.854530
C259	C	0.620311	-0.406687	0.245262
C260	C	0.953644	-0.073354	0.578595
C261	C	1.286978	0.259980	0.911929
C262	C	0.620329	-0.453603	0.245265
C263	C	0.953662	-0.120269	0.578599
C264	C	1.286996	0.213064	0.911932
C265	C	0.649094	-0.477044	0.216567
C266	C	0.982427	-0.143710	0.549900
C267	C	1.315761	0.189623	0.883233
O268	O	0.595912	-0.527840	0.269653
O269	O	0.929245	-0.194506	0.602987
O270	O	1.262578	0.138827	0.936320
O271	O	0.702318	-0.527817	0.163475
O272	O	1.035651	-0.194483	0.496809
O273	O	1.368984	0.138850	0.830142
C274	C	0.677930	-0.739762	0.187899
C275	C	1.011263	-0.406428	0.521233
C276	C	1.344596	-0.073095	0.854566
C277	C	0.649188	-0.763234	0.216601
C278	C	0.982521	-0.429900	0.549934
C279	C	1.315855	-0.096567	0.883267
C280	C	0.620430	-0.739790	0.245296
C281	C	0.953764	-0.406457	0.578629
C282	C	1.287097	-0.073124	0.911963
C283	C	0.649200	-0.810152	0.216604
C284	C	0.982534	-0.476818	0.549937
C285	C	1.315867	-0.143485	0.883271
C286	C	0.677958	-0.833595	0.187909
C287	C	1.011291	-0.500262	0.521242
C288	C	1.344625	-0.166928	0.854575
C289	C	0.706703	-0.810120	0.159210
C290	C	1.040037	-0.476787	0.492543
C291	C	1.373370	-0.143454	0.825876
C292	C	0.706687	-0.763205	0.159204
C293	C	1.040021	-0.429872	0.492537
C294	C	1.373354	-0.096538	0.825871
C295	C	0.591685	-0.763265	0.273995
C296	C	0.925018	-0.429931	0.607328
C297	C	1.258352	-0.096598	0.940661
C298	C	0.591703	-0.810180	0.273998
C299	C	0.925036	-0.476847	0.607331
C300	C	1.258370	-0.143514	0.940665
C301	C	0.620461	-0.833624	0.245302
C302	C	0.953794	-0.500290	0.578636
C303	C	1.287127	-0.166957	0.911969
C304	C	0.766309	-0.216575	0.216613
C305	C	1.099643	0.116758	0.549947
C306	C	1.432976	0.450091	0.883280
C307	C	0.816244	-0.216586	0.216629
C308	C	1.149577	0.116748	0.549963
C309	C	1.482910	0.450081	0.883296
C310	C	0.649143	-0.216548	0.333754
C311	C	0.982476	0.116786	0.667088
C312	C	1.315810	0.450119	1.000421
C313	C	0.649148	-0.216546	0.383689
C314	C	0.982482	0.116787	0.717022
C315	C	1.315815	0.450121	1.050355
C316	C	0.649225	-0.099373	0.216608
C317	C	0.982558	0.233960	0.549941
C318	C	1.315891	0.567293	0.883275
C319	C	0.649265	-0.049439	0.216622
C320	C	0.982598	0.283895	0.549955
C321	C	1.315931	0.617228	0.883289
C322	C	0.649145	-0.216523	0.099853
C323	C	0.982478	0.116810	0.433187
C324	C	1.315811	0.450143	0.766520
C325	C	0.649227	-0.216398	0.049919
C326	C	0.982560	0.116935	0.383253
C327	C	1.315893	0.450268	0.716586
C328	C	0.677935	-0.187743	0.693352
C329	C	1.011268	0.145590	1.026686
C330	C	1.344602	0.478924	1.360019
C331	C	0.677957	-0.187705	0.881026
C332	C	1.011291	0.145629	1.214359
C333	C	1.344624	0.478962	1.547692
O334	O	0.702399	-0.163258	0.905307
O335	O	1.035733	0.170076	1.238641
O336	O	1.369066	0.503409	1.571974
N337	N	0.649208	-0.216426	0.904474
N338	N	0.982541	0.116908	1.237807
N339	N	1.315875	0.450241	1.571141
C340	C	0.620449	-0.245156	0.881001
C341	C	0.953782	0.088177	1.214335
C342	C	1.287115	0.421511	1.547668
O343	O	0.595993	-0.269581	0.905252
O344	O	0.929326	0.063752	1.238585
O345	O	1.262659	0.397086	1.571919
C346	C	0.620424	-0.245192	0.693329
C347	C	0.953758	0.088142	1.026662
C348	C	1.287091	0.421475	1.359996
C349	C	0.649179	-0.216472	0.669883
C350	C	0.982512	0.116861	1.003216
C351	C	1.315846	0.450195	1.336550
C352	C	0.706687	-0.159025	0.669906
C353	C	1.040020	0.174308	1.003240
C354	C	1.373354	0.507641	1.336573
C355	C	0.706683	-0.159037	0.622991
C356	C	1.040016	0.174296	0.956324
C357	C	1.373349	0.507630	1.289657
C358	C	0.677927	-0.187766	0.599521
C359	C	1.011260	0.145567	0.932855
C360	C	1.344593	0.478901	1.266188
C361	C	0.649175	-0.216484	0.622968
C362	C	0.982508	0.116850	0.956301
C363	C	1.315842	0.450183	1.289634
C364	C	0.591663	-0.273920	0.669857
C365	C	0.924997	0.059414	1.003191
C366	C	1.258330	0.392747	1.336524
C367	C	0.591659	-0.273925	0.622936
C368	C	0.924992	0.059408	0.956270
C369	C	1.258326	0.392741	1.289603
C370	C	0.620414	-0.245206	0.599490
C371	C	0.953747	0.088128	0.932824
C372	C	1.287080	0.421461	1.266157
C373	C	0.620415	-0.245225	0.552583
C374	C	0.953748	0.088109	0.885916
C375	C	1.287081	0.421442	1.219249
N376	N	0.649164	-0.216504	0.529134
N377	N	0.982498	0.116830	0.862468
N378	N	1.315831	0.450163	1.195801
C379	C	0.677920	-0.187774	0.552604
C380	C	1.011254	0.145559	0.885937
C381	C	1.344587	0.478892	1.219270
C382	C	0.620464	-0.245136	0.979532
C383	C	0.953797	0.088197	1.312865
C384	C	1.287131	0.421531	1.646199
C385	C	0.620471	-0.245128	1.026450
C386	C	0.953804	0.088206	1.359783
C387	C	1.287137	0.421539	1.693117
C388	C	0.677979	-0.187675	1.026471
C389	C	1.011312	0.145658	1.359804
C390	C	1.344645	0.478991	1.693137
C391	C	0.677974	-0.187686	0.979552
C392	C	1.011308	0.145647	1.312885
C393	C	1.344641	0.478980	1.646219
C394	C	0.649214	-0.216415	0.956084
C395	C	0.982547	0.116918	1.289417
C396	C	1.315880	0.450252	1.622750
C397	C	0.677910	-0.187801	0.454078
C398	C	1.011243	0.145532	0.787411
C399	C	1.344576	0.478865	1.120744
C400	C	0.677904	-0.187817	0.407158
C401	C	1.011238	0.145517	0.740491
C402	C	1.344571	0.478850	1.073825
C403	C	0.620395	-0.245267	0.407141
C404	C	0.953728	0.088066	0.740475
C405	C	1.287061	0.421400	1.073808
C406	C	0.620401	-0.245253	0.454057
C407	C	0.953735	0.088080	0.787390
C408	C	1.287068	0.421413	1.120724
C409	C	0.649161	-0.216517	0.477524
C410	C	0.982494	0.116817	0.810857
C411	C	1.315827	0.450150	1.144191
O412	O	0.595982	-0.269655	0.528272
O413	O	0.929315	0.063678	0.861605
O414	O	1.262649	0.397012	1.194939
O415	O	0.702366	-0.163346	0.528345
O416	O	1.035699	0.169987	0.861678
O417	O	1.369032	0.503320	1.195011
C418	C	0.677939	-0.187731	0.740268
C419	C	1.011273	0.145602	1.073601
C420	C	1.344606	0.478935	1.406935
C421	C	0.649187	-0.216449	0.763714
C422	C	0.982521	0.116884	1.097047
C423	C	1.315854	0.450218	1.430381
C424	C	0.620431	-0.245178	0.740245
C425	C	0.953765	0.088155	1.073578
C426	C	1.287098	0.421488	1.406911
C427	C	0.649194	-0.216441	0.810632
C428	C	0.982527	0.116893	1.143965
C429	C	1.315861	0.450226	1.477299
C430	C	0.677950	-0.187711	0.834101
C431	C	1.011283	0.145622	1.167435
C432	C	1.344617	0.478955	1.500768
C433	C	0.706699	-0.158990	0.810653
C434	C	1.040033	0.174343	1.143986
C435	C	1.373366	0.507676	1.477319
C436	C	0.706695	-0.159002	0.763737
C437	C	1.040029	0.174331	1.097071
C438	C	1.373362	0.507665	1.430404
C439	C	0.591682	-0.273899	0.763693
C440	C	0.925015	0.059434	1.097027
C441	C	1.258349	0.392767	1.430360
C442	C	0.591689	-0.273886	0.810609
C443	C	0.925022	0.059448	1.143942
C444	C	1.258355	0.392781	1.477275
C445	C	0.620445	-0.245156	0.834078
C446	C	0.953778	0.088177	1.167411
C447	C	1.287111	0.421510	1.500745
H448	H	-0.094274	-0.268782	0.268650
H449	H	0.239059	0.064551	0.601983
H450	H	0.572393	0.397885	0.935317
H451	H	0.392997	-0.164329	0.164510
H452	H	0.726330	0.169004	0.497844
H453	H	1.059663	0.502337	0.831177
N454	N	0.562332	-0.834153	0.303314
N455	N	0.895666	-0.500820	0.636647
N456	N	1.228999	-0.167486	0.969980
N457	N	0.520878	-0.828951	0.300288
N458	N	0.854212	-0.495618	0.633621
N459	N	1.187545	-0.162284	0.966954
H460	H	0.500137	-0.845881	0.320993
H461	H	0.833471	-0.512547	0.654326
H462	H	1.166804	-0.179214	0.987660
N463	N	0.591115	-0.955142	0.274636
N464	N	0.924449	-0.621809	0.607969
N465	N	1.257782	-0.288475	0.941302
N466	N	0.565454	-0.976112	0.300255
N467	N	0.898788	-0.642779	0.633588
N468	N	1.232121	-0.309446	0.966922
H469	H	0.544704	-0.959210	0.320963
H470	H	0.878037	-0.625877	0.654296
H471	H	1.211371	-0.292543	0.987630
H472	H	0.730104	-0.135628	0.689010
H473	H	1.063437	0.197705	1.022343
H474	H	1.396770	0.531039	1.355677
N475	N	0.707177	-0.382684	0.158537
N476	N	1.040510	-0.049350	0.491870
N477	N	1.373844	0.283983	0.825203
N478	N	0.732851	-0.403624	0.132919
N479	N	1.066184	-0.070291	0.466252
N480	N	1.399517	0.263042	0.799585
H481	H	0.753588	-0.386699	0.112207
H482	H	1.086921	-0.053365	0.445540
H483	H	1.420255	0.279968	0.778874
H484	H	0.701427	-1.045060	0.164556
H485	H	1.034761	-0.711727	0.497889
H486	H	1.368094	-0.378393	0.831222
H487	H	0.597097	-1.045102	0.268687
H488	H	0.930430	-0.711769	0.602020
H489	H	1.263763	-0.378436	0.935353
H490	H	0.568274	-0.297277	0.829695
H491	H	0.901607	0.036056	1.163028
H492	H	1.234941	0.369390	1.496361
H493	H	0.121528	-0.135573	0.135875
H494	H	0.454862	0.197760	0.469209
H495	H	0.788195	0.531093	0.802542
H496	H	0.262286	-0.297513	0.297283
H497	H	0.595619	0.035820	0.630616
H498	H	0.928952	0.369153	0.963949
H499	H	-0.179397	-0.268787	0.268659
H500	H	0.153936	0.064546	0.601992
H501	H	0.487269	0.397880	0.935326
H502	H	0.730115	-0.135600	0.829770
H503	H	1.063448	0.197734	1.163103
H504	H	1.396782	0.531067	1.496436
N505	N	0.172325	-0.303482	0.303242
N506	N	0.505658	0.029851	0.636575
N507	N	0.838992	0.363184	0.969908
N508	N	0.193283	-0.329166	0.328841
N509	N	0.526616	0.004167	0.662174
N510	N	0.859950	0.337500	0.995507
H511	H	0.176371	-0.349930	0.349538
H512	H	0.509704	-0.016597	0.682871
H513	H	0.843038	0.316737	1.016205
H514	H	0.701258	-0.472652	0.164500
H515	H	1.034591	-0.139319	0.497834
H516	H	1.367924	0.194015	0.831167
N517	N	0.172314	-0.129606	0.129921
N518	N	0.505647	0.203727	0.463255
N519	N	0.838981	0.537061	0.796588
N520	N	0.193270	-0.103920	0.104316
N521	N	0.526604	0.229414	0.437650
N522	N	0.859937	0.562747	0.770983
H523	H	0.176357	-0.083160	0.083622
H524	H	0.509691	0.250173	0.416955
H525	H	0.843024	0.583507	0.750288
H526	H	0.568229	-0.603423	0.297360
H527	H	0.901562	-0.270090	0.630694
H528	H	1.234896	0.063243	0.964027
H529	H	0.596925	-0.472715	0.268640
H530	H	0.930258	-0.139381	0.601973
H531	H	1.263591	0.193952	0.935306
H532	H	0.596895	-0.387592	0.268624
H533	H	0.930229	-0.054259	0.601958
H534	H	1.263562	0.279074	0.935291
N535	N	0.707353	-0.955073	0.158590
N536	N	1.040686	-0.621739	0.491923
N537	N	1.374020	-0.288406	0.825257
N538	N	0.704401	-0.960334	0.117133
N539	N	1.037734	-0.627001	0.450466
N540	N	1.371067	-0.293667	0.783800
H541	H	0.725135	-0.943405	0.096421
H542	H	1.058468	-0.610072	0.429754
H543	H	1.391801	-0.276738	0.763087
H544	H	0.597044	-0.268533	0.960428
H545	H	0.930377	0.064800	1.293762
H546	H	1.263711	0.398133	1.627095
H547	H	0.568248	-0.688532	0.297365
H548	H	0.901581	-0.355199	0.630698
H549	H	1.234914	-0.021865	0.964032
N550	N	0.562302	-0.303248	0.739731
N551	N	0.895636	0.030085	1.073064
N552	N	1.228969	0.363418	1.406398
N553	N	0.536637	-0.328887	0.760677
N554	N	0.869970	0.004446	1.094011
N555	N	1.203303	0.337780	1.427344
H556	H	0.515886	-0.349618	0.743756
H557	H	0.849220	-0.016285	1.077089
H558	H	1.182553	0.317048	1.410423
N559	N	0.736058	-0.129698	0.599052
N560	N	1.069392	0.203636	0.932385
N561	N	1.402725	0.536969	1.265718
N562	N	0.761729	-0.104051	0.620020
N563	N	1.095062	0.229282	0.953353
N564	N	1.428395	0.562616	1.286686
H565	H	0.782477	-0.083328	0.603116
H566	H	1.115810	0.250006	0.936449
H567	H	1.449143	0.583339	1.269783
H568	H	0.701321	-0.164429	0.388070
H569	H	1.034655	0.168904	0.721404
H570	H	1.367988	0.502237	1.054737
N571	N	0.736005	-0.598493	0.129864
N572	N	1.069338	-0.265160	0.463197
N573	N	1.402671	0.068173	0.796530
N574	N	0.761677	-0.619438	0.104248
N575	N	1.095011	-0.286105	0.437581
N576	N	1.428344	0.047228	0.770915
H577	H	0.782419	-0.602516	0.083538
H578	H	1.115753	-0.269182	0.416871
H579	H	1.449086	0.064151	0.750205
H580	H	0.701388	-0.164300	0.960465
H581	H	1.034721	0.169034	1.293799
H582	H	1.368055	0.502367	1.627132
H583	H	0.478119	-0.164326	0.164502
H584	H	0.811452	0.169007	0.497835
H585	H	1.144785	0.502341	0.831168
H586	H	0.262288	-0.135564	0.135860
H587	H	0.595621	0.197769	0.469194
H588	H	0.928955	0.531102	0.802527
N589	N	0.736039	-0.693309	0.129877
N590	N	1.069372	-0.359976	0.463211
N591	N	1.402705	-0.026643	0.796544
N592	N	0.761697	-0.672338	0.104257
N593	N	1.095031	-0.339004	0.437591
N594	N	1.428364	-0.005671	0.770924
H595	H	0.782449	-0.689238	0.083550
H596	H	1.115783	-0.355905	0.416883
H597	H	1.449116	-0.022572	0.750216
H598	H	0.730093	-0.744097	0.135831
H599	H	1.063427	-0.410764	0.469164
H600	H	1.396760	-0.077431	0.802497
N601	N	0.591095	-0.274467	1.050390
N602	N	0.924429	0.058867	1.383723
N603	N	1.257762	0.392200	1.717056
N604	N	0.549643	-0.271477	1.045132
N605	N	0.882977	0.061857	1.378466
N606	N	1.216310	0.395190	1.711799
H607	H	0.528894	-0.292197	1.062038
H608	H	0.862227	0.041137	1.395371
H609	H	1.195560	0.374470	1.728705
N610	N	-0.184255	-0.158420	0.158645
N611	N	0.149078	0.174913	0.491979
N612	N	0.482412	0.508246	0.825312
N613	N	-0.163303	-0.132731	0.133039
N614	N	0.170031	0.200602	0.466373
N615	N	0.503364	0.533935	0.799706
H616	H	-0.180219	-0.111974	0.112345
H617	H	0.153114	0.221359	0.445678
H618	H	0.486447	0.554693	0.779012
H619	H	-0.094290	-0.164363	0.164584
H620	H	0.239044	0.168970	0.497918
H621	H	0.572377	0.502303	0.831251
H622	H	0.478114	-0.268737	0.268565
H623	H	0.811447	0.064597	0.601898
H624	H	1.144781	0.397930	0.935231
H625	H	0.393007	-0.268738	0.268585
H626	H	0.726340	0.064595	0.601918
H627	H	1.059673	0.397929	0.935251
H628	H	0.568248	-0.297306	0.688939
H629	H	0.901582	0.036027	1.022273
H630	H	1.234915	0.369360	1.355606
N631	N	0.736073	-0.834079	0.129897
N632	N	1.069406	-0.500746	0.463231
N633	N	1.402740	-0.167413	0.796564
N634	N	0.736077	-0.875970	0.129910
N635	N	1.069411	-0.542636	0.463244
N636	N	1.402744	-0.209303	0.796577
H637	H	0.756819	-0.892893	0.109211
H638	H	1.090153	-0.559560	0.442544
H639	H	1.423486	-0.226227	0.775878
H640	H	0.701327	-0.164400	0.473179
H641	H	1.034660	0.168934	0.806512
H642	H	1.367993	0.502267	1.139846
N643	N	0.031568	-0.129621	0.129939
N644	N	0.364901	0.203713	0.463272
N645	N	0.698234	0.537046	0.796605
N646	N	0.052524	-0.103933	0.104334
N647	N	0.385857	0.229400	0.437667
N648	N	0.719191	0.562733	0.771001
H649	H	0.035611	-0.083173	0.083640
H650	H	0.368944	0.250160	0.416974
H651	H	0.702278	0.583494	0.750307
N652	N	0.562307	-0.739329	0.303313
N653	N	0.895640	-0.405996	0.636646
N654	N	1.228973	-0.072662	0.969979
N655	N	0.536647	-0.760299	0.328933
N656	N	0.869980	-0.426965	0.662266
N657	N	1.203314	-0.093632	0.995600
H658	H	0.515895	-0.743396	0.349640
H659	H	0.849228	-0.410063	0.682973
H660	H	1.182562	-0.076729	1.016306
H661	H	0.701393	-0.164283	1.045587
H662	H	1.034727	0.169050	1.378921
H663	H	1.368060	0.502383	1.712254
H664	H	0.568233	-0.297315	0.603831
H665	H	0.901567	0.036018	0.937164
H666	H	1.234900	0.369351	1.270497
H667	H	0.596991	-0.268643	0.473148
H668	H	0.930325	0.064690	0.806481
H669	H	1.263658	0.398023	1.139814
N670	N	0.126386	-0.303488	0.303256
N671	N	0.459720	0.029845	0.636590
N672	N	0.793053	0.363179	0.969923
N673	N	0.105428	-0.329172	0.328863
N674	N	0.438762	0.004161	0.662196
N675	N	0.772095	0.337495	0.995530
H676	H	0.122341	-0.349932	0.349558
H677	H	0.455674	-0.016599	0.682891
H678	H	0.789007	0.316734	1.016224
N679	N	0.736065	-0.129669	0.739784
N680	N	1.069398	0.203665	1.073117
N681	N	1.402731	0.536998	1.406450
N682	N	0.764679	-0.145482	0.713610
N683	N	1.098012	0.187851	1.046944
N684	N	1.431346	0.521184	1.380277
H685	H	0.785422	-0.124764	0.696695
H686	H	1.118755	0.208569	1.030028
H687	H	1.452089	0.541903	1.363361
H688	H	0.596984	-0.268659	0.388024
H689	H	0.930317	0.064674	0.721357
H690	H	1.263650	0.398008	1.054691
N691	N	0.031566	-0.303488	0.303273
N692	N	0.364899	0.029846	0.636606
N693	N	0.698232	0.363179	0.969939
N694	N	0.052521	-0.329171	0.328875
N695	N	0.385854	0.004163	0.662209
N696	N	0.719187	0.337496	0.995542
H697	H	0.035606	-0.349930	0.349574
H698	H	0.368939	-0.016597	0.682908
H699	H	0.702273	0.316736	1.016241
