data_functionalizedCrystal
_audit_creation_method	'MofGen! by Chris Wilmer'
_symmetry_space_group_name_H-M	'P1'
_symmetry_Int_Tables_number	1
_symmetry_cell_setting	triclinic
loop_
_symmetry_equiv_pos_as_xyz
  x,y,z
_cell_length_a	19.188930
_cell_length_b	19.188940
_cell_length_c	15.021413
_cell_angle_alpha	90.003568
_cell_angle_beta	89.978833
_cell_angle_gamma	83.146747
loop_
_atom_site_label
_atom_site_type_symbol
_atom_site_fract_x
_atom_site_fract_y
_atom_site_fract_z
O1	O	0.926152	0.087158	-0.074319
O2	O	0.722841	0.098892	-0.074258
O3	O	0.830360	-0.008630	-0.074284
O4	O	0.818633	0.194680	-0.074294
O5	O	0.830343	-0.008615	0.073781
O6	O	0.722824	0.098907	0.073806
O7	O	0.926135	0.087173	0.073745
Zn8	Zn	0.824477	0.093043	0.097284
Zn9	Zn	0.824499	0.093023	-0.097797
O10	O	0.818616	0.194695	0.073771
C11	C	0.696821	0.098520	-0.000218
C12	C	0.619317	0.097379	-0.000195
C13	C	0.574395	0.160470	-0.000212
C14	C	0.501571	0.159398	-0.000222
C15	C	0.473672	0.095232	-0.000232
C16	C	0.518604	0.032133	-0.000210
C17	C	0.591426	0.033207	-0.000191
N18	N	0.365696	0.046180	-0.050658
N19	N	0.296518	0.045165	-0.050678
C20	C	0.254264	0.091994	-0.000286
N21	N	0.283800	0.139888	0.050114
N22	N	0.352985	0.140905	0.050130
C23	C	0.394710	0.094061	-0.000252
C24	C	0.130377	0.153927	-0.000313
C25	C	0.057553	0.152853	-0.000317
C26	C	0.074587	0.025586	-0.000314
C27	C	0.147410	0.026662	-0.000301
C28	C	0.175301	0.090835	-0.000305
C29	C	0.829970	-0.034633	-0.000251
C30	C	0.828827	-0.112138	-0.000252
C31	C	0.820683	-0.665389	0.080440
C32	C	0.821750	-0.592564	0.080444
C33	C	0.822296	-0.556153	-0.000265
C34	C	0.821757	-0.592570	-0.080984
C35	C	0.820683	-0.665392	-0.080987
N36	N	0.863719	-0.447135	-0.060350
N37	N	0.864741	-0.377957	-0.060343
C38	C	0.825530	-0.336744	-0.000263
N39	N	0.785267	-0.367322	0.059823
N40	N	0.784249	-0.436507	0.059818
C41	C	0.823460	-0.477189	-0.000271
C42	C	0.827220	-0.221370	0.080457
C43	C	0.828282	-0.148544	0.080458
C44	C	0.828297	-0.148552	-0.080973
C45	C	0.827227	-0.221376	-0.080972
C46	C	0.826692	-0.257781	-0.000254
C47	C	0.952154	0.087546	-0.000297
C48	C	1.029659	0.088686	-0.000326
C49	C	0.819005	0.220699	-0.000263
C50	C	0.820148	0.298203	-0.000269
N51	N	0.824466	0.093056	0.230422
N52	N	0.824515	0.093004	-0.230935
C53	C	0.774742	0.142751	0.470117
C54	C	0.837791	0.156110	0.529431
C55	C	0.824484	0.093039	0.412028
C56	C	0.761452	0.079696	0.529456
C57	C	0.824496	0.093023	0.587453
C58	C	0.887565	0.106428	0.470037
C59	C	0.811185	0.029987	0.470056
C60	C	0.874279	0.043319	0.529344
C61	C	0.824476	0.093049	0.310971
C62	C	0.824511	0.093012	0.688508
H63	H	0.628002	-0.018171	-0.000178
N64	N	0.828864	-0.109270	0.167512
H65	H	0.786036	-0.073267	0.171134
H66	H	0.828391	-0.143433	0.218591
N67	N	0.160462	0.223139	-0.000311
H68	H	0.144044	0.250775	0.054575
H69	H	0.213407	0.214189	-0.000337
N70	N	0.453111	0.227450	-0.000243
H71	H	0.462088	0.255444	-0.055134
H72	H	0.402767	0.216974	-0.000223
H73	H	0.708143	0.068417	0.555558
N74	N	0.820085	-0.704649	0.167497
H75	H	0.819321	-0.756307	0.155252
H76	H	0.863541	-0.697713	0.202734
H77	H	0.020977	0.204231	-0.000326
H78	H	0.916396	0.001269	0.555186
H79	H	0.822172	-0.562913	0.146169
N80	N	0.796252	-0.040614	0.435481
H81	H	0.748598	-0.050644	0.457058
H82	H	0.796856	-0.040172	0.368254
N83	N	0.044504	-0.043622	-0.000329
H84	H	0.084016	-0.083428	-0.000319
H85	H	0.014637	-0.046833	0.054554
H86	H	0.849050	0.209424	0.555511
N87	N	0.826667	-0.260651	-0.168024
H88	H	0.825904	-0.312308	-0.155780
H89	H	0.783586	-0.242133	-0.203258
N90	N	0.958198	0.121450	0.435621
H91	H	0.957752	0.121383	0.368387
H92	H	0.968322	0.168898	0.457808
H93	H	0.183987	-0.024713	-0.000292
N94	N	0.828890	-0.109289	-0.168024
H95	H	0.828392	-0.143408	-0.219155
H96	H	0.786063	-0.073284	-0.171525
H97	H	0.822199	-0.562919	-0.146698
H98	H	0.820247	-0.695035	-0.146712
H99	H	0.826778	-0.251012	0.146182
N100	N	0.719071	0.198475	0.435671
H101	H	0.729216	0.246080	0.457273
H102	H	0.719182	0.197734	0.368443
H103	H	0.597098	0.212724	-0.000216
H104	H	0.495884	-0.020111	-0.000231
