data_functionalizedCrystal
_audit_creation_method	'MofGen! by Chris Wilmer'
_symmetry_space_group_name_H-M	'P1'
_symmetry_Int_Tables_number	1
_symmetry_cell_setting	triclinic
loop_
_symmetry_equiv_pos_as_xyz
  x,y,z
_cell_length_a	17.019383
_cell_length_b	17.038272
_cell_length_c	14.048226
_cell_angle_alpha	89.993466
_cell_angle_beta	86.117564
_cell_angle_gamma	87.246883
loop_
_atom_site_label
_atom_site_type_symbol
_atom_site_fract_x
_atom_site_fract_y
_atom_site_fract_z
O1	O	1.053359	0.099662	-0.165425
O2	O	0.824548	0.112350	-0.146689
O3	O	0.937593	-0.007808	-0.155938
O4	O	0.940313	0.219821	-0.156175
O5	O	0.937578	-0.007815	0.002385
O6	O	0.824532	0.112343	0.011634
O7	O	1.053344	0.099655	-0.007102
Zn8	Zn	0.938936	0.105998	0.027403
Zn9	Zn	0.938956	0.106008	-0.181194
O10	O	0.940298	0.219814	0.002147
C11	C	0.795119	0.111864	-0.065118
C12	C	0.707452	0.110414	-0.057939
C13	C	0.666267	0.109739	-0.140861
C14	C	0.583894	0.108390	-0.134102
C15	C	0.542708	0.107710	-0.044420
C16	C	0.583899	0.108388	0.038508
C17	C	0.666270	0.109743	0.031748
C18	C	0.294001	0.103624	-0.019691
C19	C	0.211624	0.102267	-0.012938
C20	C	0.211625	0.102270	-0.185549
C21	C	0.293998	0.103621	-0.192301
C22	C	0.335181	0.104302	-0.109373
C23	C	0.458510	0.106328	-0.037509
C24	C	0.419377	0.105690	-0.116285
C25	C	0.935112	-0.036938	-0.076574
C26	C	0.927732	-0.123725	-0.075970
C27	C	0.995491	-0.173893	-0.081517
C28	C	0.988552	-0.255438	-0.080958
C29	C	0.913852	-0.286813	-0.074845
C30	C	0.846088	-0.236638	-0.069300
C31	C	0.853028	-0.155095	-0.069866
C32	C	0.889335	-0.532551	-0.072850
C33	C	0.882400	-0.614101	-0.072282
C34	C	1.024865	-0.632896	-0.083942
C35	C	1.031798	-0.551350	-0.084502
C36	C	0.964034	-0.501182	-0.078962
C37	C	0.906758	-0.370165	-0.074270
C38	C	0.971129	-0.417832	-0.079543
C39	C	1.082772	0.100142	-0.088675
C40	C	1.170439	0.101592	-0.095860
C41	C	0.942779	0.248943	-0.077219
C42	C	0.950159	0.335730	-0.077829
N43	N	0.938928	0.105991	0.169764
N44	N	0.938969	0.106008	-0.323556
C45	C	0.989003	0.052807	0.215485
C46	C	0.989008	0.052807	0.315143
C47	C	0.938942	0.105995	0.369077
C48	C	0.888861	0.159182	0.323349
C49	C	0.888853	0.159178	0.223694
C50	C	0.888885	0.159187	0.531062
C51	C	0.888894	0.159192	0.630723
C52	C	0.989040	0.052816	0.622510
C53	C	0.989031	0.052812	0.522855
C54	C	0.938952	0.106000	0.477134
H55	H	0.178091	0.101735	0.060096
H56	H	0.327522	0.104174	0.047835
C57	C	1.044104	-0.005692	0.463522
C58	C	1.036813	-0.094721	0.477831
C59	C	1.091884	-0.153227	0.418497
C60	C	1.154245	-0.122705	0.344854
C61	C	1.161537	-0.033672	0.330542
C62	C	1.106467	0.024834	0.389876
H63	H	0.990648	-0.117319	0.532349
H64	H	1.086485	-0.219135	0.429092
H65	H	1.195011	-0.166015	0.300932
H66	H	1.207703	-0.011074	0.276025
H67	H	1.111866	0.090742	0.379281
H68	H	0.848102	0.202496	0.493840
C69	C	0.538587	0.107643	-0.225315
C70	C	0.477563	0.174567	-0.244054
C71	C	0.432254	0.173821	-0.335269
C72	C	0.447969	0.106150	-0.407747
C73	C	0.508996	0.039220	-0.389010
C74	C	0.554305	0.039966	-0.297794
H75	H	0.465928	0.224666	-0.190400
H76	H	0.387078	0.223367	-0.349139
H77	H	0.414429	0.105597	-0.475270
H78	H	0.520631	-0.010879	-0.442664
H79	H	0.599481	-0.009580	-0.283925
H80	H	1.029782	0.009500	0.352368
C81	C	0.413200	0.105573	0.061138
C82	C	0.352172	0.172494	0.089870
C83	C	0.306858	0.171741	0.188516
C84	C	0.322573	0.104067	0.258430
C85	C	0.383603	0.037141	0.229700
C86	C	0.428917	0.037894	0.131054
H87	H	0.340537	0.222595	0.038115
H88	H	0.261679	0.221284	0.209784
H89	H	0.289028	0.103509	0.331454
H90	H	0.395238	-0.012960	0.281456
H91	H	0.474097	-0.011649	0.109786
C92	C	0.778492	-0.099905	-0.063762
C93	C	0.718782	-0.103356	-0.141087
C94	C	0.644244	-0.048167	-0.134989
C95	C	0.629415	0.010473	-0.051566
C96	C	0.689126	0.013926	0.025765
C97	C	0.763664	-0.041263	0.019667
H98	H	0.729758	-0.146767	-0.202847
H99	H	0.600042	-0.050723	-0.192234
H100	H	0.574237	0.051328	-0.047051
H101	H	0.678150	0.057337	0.087525
H102	H	0.807866	-0.038706	0.076913
C103	C	0.814792	-0.477378	-0.066739
C104	C	0.755074	-0.480834	-0.144053
C105	C	0.680526	-0.425658	-0.137936
C106	C	0.665697	-0.367025	-0.054505
C107	C	0.725417	-0.363567	0.022815
C108	C	0.799965	-0.418743	0.016698
H109	H	0.766050	-0.524239	-0.205818
H110	H	0.636318	-0.428218	-0.195173
H111	H	0.610512	-0.326180	-0.049977
H112	H	0.714441	-0.320161	0.084581
H113	H	0.844173	-0.416182	0.073936
H114	H	0.821567	-0.639643	-0.067288
C115	C	1.053297	-0.383322	-0.086266
C116	C	1.077638	-0.329853	-0.006043
C117	C	1.159806	-0.295334	-0.012761
C118	C	1.217633	-0.314284	-0.099703
C119	C	1.193293	-0.367755	-0.179932
C120	C	1.111125	-0.402274	-0.173214
H121	H	1.034830	-0.315823	0.058322
H122	H	1.177823	-0.255751	0.046630
H123	H	1.278459	-0.288731	-0.104676
H124	H	1.236101	-0.381786	-0.244297
H125	H	1.093108	-0.441857	-0.232605
H126	H	0.848092	0.202486	0.367268
C127	C	1.044125	-0.005694	0.672801
C128	C	1.044132	-0.005695	0.782418
C129	C	1.099217	-0.064199	0.832716
C130	C	1.154295	-0.122701	0.773396
C131	C	1.154291	-0.122703	0.663773
C132	C	1.099205	-0.064199	0.613476
H133	H	1.003358	0.037614	0.826336
H134	H	1.099220	-0.064198	0.913866
H135	H	1.195073	-0.166010	0.810629
H136	H	1.195065	-0.166012	0.619855
H137	H	1.099202	-0.064200	0.532325
H138	H	0.327526	0.104168	-0.265329
C139	C	0.711567	0.110488	-0.239515
C140	C	0.763797	0.179275	-0.267542
C141	C	0.809094	0.180027	-0.366199
C142	C	0.802161	0.111993	-0.436828
C143	C	0.749929	0.043201	-0.408802
C144	C	0.704632	0.042448	-0.310146
H145	H	0.768932	0.229642	-0.215257
H146	H	0.847760	0.230952	-0.386945
H147	H	0.835693	0.112550	-0.509859
H148	H	0.744795	-0.007167	-0.461088
H149	H	0.665966	-0.008476	-0.289400
H150	H	0.550358	0.107839	0.111529
C151	C	0.166321	0.101529	-0.276765
C152	C	0.114088	0.032747	-0.296213
C153	C	0.068784	0.032010	-0.387433
C154	C	0.075714	0.100054	-0.459205
C155	C	0.127949	0.168841	-0.439758
C156	C	0.173253	0.169579	-0.348538
H157	H	0.108957	-0.017628	-0.243082
H158	H	0.030116	-0.018912	-0.401829
H159	H	0.042177	0.099508	-0.526731
H160	H	0.133080	0.219217	-0.492890
H161	H	0.211921	0.220500	-0.334143
C162	C	1.044078	-0.005702	0.156163
C163	C	1.036784	-0.094729	0.170483
C164	C	1.091858	-0.153242	0.111164
C165	C	1.154227	-0.122728	0.037525
C166	C	1.161523	-0.033697	0.023202
C167	C	1.106449	0.024816	0.082521
H168	H	0.990613	-0.117321	0.224998
H169	H	1.086456	-0.219149	0.121767
H170	H	1.194996	-0.166043	-0.006386
H171	H	1.207694	-0.011105	-0.031313
H172	H	1.111850	0.090723	0.071918
H173	H	0.848076	0.202485	0.186469
H174	H	0.699801	0.110296	0.099272
C175	C	0.833815	0.217695	0.690049
C176	C	0.778724	0.276190	0.639755
C177	C	0.723642	0.334694	0.699079
C178	C	0.723652	0.334704	0.808695
C179	C	0.778745	0.276207	0.858995
C180	C	0.833826	0.217703	0.799672
H181	H	0.778715	0.276185	0.558605
H182	H	0.682859	0.377997	0.661843
H183	H	0.682877	0.378012	0.852610
H184	H	0.778754	0.276212	0.940145
H185	H	0.874610	0.174400	0.836907
H186	H	0.452914	0.106247	-0.189303
C187	C	1.113972	-0.516845	-0.091233
C188	C	1.138331	-0.463384	-0.011013
C189	C	1.220507	-0.428882	-0.017740
C190	C	1.278324	-0.447842	-0.104688
C191	C	1.253967	-0.501306	-0.184914
C192	C	1.171791	-0.535808	-0.178187
H193	H	1.095530	-0.449346	0.053357
H194	H	1.238537	-0.389304	0.041649
H195	H	1.339155	-0.422301	-0.109668
H196	H	1.296767	-0.515344	-0.249283
H197	H	1.153760	-0.575386	-0.237576
H198	H	1.043730	-0.296283	-0.085473
C199	C	1.099402	-0.688081	-0.090047
C200	C	1.114218	-0.746737	-0.009053
C201	C	1.188758	-0.801923	-0.015163
C202	C	1.248484	-0.798453	-0.102267
C203	C	1.233670	-0.739795	-0.183267
C204	C	1.159129	-0.684609	-0.177157
H205	H	1.070004	-0.749308	0.055432
H206	H	1.199724	-0.845346	0.044799
H207	H	1.303663	-0.839305	-0.106790
H208	H	1.277883	-0.737224	-0.247752
H209	H	1.148163	-0.641186	-0.237119
H210	H	1.056320	-0.148355	-0.086490
H211	H	0.785266	-0.262190	-0.064328
H212	H	0.845937	-0.395719	-0.069290
