data_functionalizedCrystal
_audit_creation_method	'MofGen! by Chris Wilmer'
_symmetry_space_group_name_H-M	'P1'
_symmetry_Int_Tables_number	1
_symmetry_cell_setting	triclinic
loop_
_symmetry_equiv_pos_as_xyz
  x,y,z
_cell_length_a	10.685741
_cell_length_b	10.686220
_cell_length_c	21.395356
_cell_angle_alpha	94.347109
_cell_angle_beta	85.646801
_cell_angle_gamma	90.318765
loop_
_atom_site_label
_atom_site_type_symbol
_atom_site_fract_x
_atom_site_fract_y
_atom_site_fract_z
Zn1	Zn	0.352106	1.956208	-0.293276
Zn2	Zn	0.561889	1.972202	-0.195897
Zn3	Zn	0.368255	1.746429	-0.197110
Zn4	Zn	0.577928	1.762541	-0.309226
O5	O	0.465045	1.859345	-0.248877
O6	O	0.366464	2.133866	-0.273176
O7	O	0.536249	1.942203	-0.108384
O8	O	0.190570	1.760820	-0.203700
O9	O	0.520590	2.145617	-0.201632
O10	O	0.178705	1.914943	-0.274353
O11	O	0.393987	1.776328	-0.109275
O12	O	0.409540	1.573029	-0.219165
O13	O	0.547927	1.788281	-0.394784
O14	O	0.563586	1.584867	-0.301536
O15	O	0.382016	1.930567	-0.383066
O16	O	0.739560	1.957827	-0.217097
O17	O	0.751344	1.803790	-0.300359
C18	C	0.490057	1.533434	-0.262214
C19	C	0.500787	1.394010	-0.267935
C20	C	0.137848	1.834300	-0.237383
C21	C	-0.001583	1.823628	-0.232484
C22	C	0.790966	1.884326	-0.260340
C23	C	0.930388	1.895128	-0.265259
C24	C	0.464959	1.859438	-0.412294
C25	C	0.464923	1.859477	-0.481932
C26	C	0.439936	2.186529	-0.235489
C27	C	0.429236	2.325955	-0.229784
C28	C	0.390837	1.773127	-0.515099
C29	C	0.390814	1.773121	-0.580533
C30	C	0.464862	1.859486	-0.612798
C31	C	0.538964	1.945843	-0.579624
C32	C	0.538994	1.945839	-0.514191
C33	C	0.466042	1.973267	-0.712201
C34	C	0.466003	1.973273	-0.777632
C35	C	0.464776	1.859501	-0.814615
C36	C	0.463562	1.745716	-0.786158
C37	C	0.463593	1.745712	-0.720725
C38	C	0.464838	1.859501	-0.683749
C39	C	0.390661	1.773137	-0.918733
C40	C	0.390647	1.773129	-0.984170
C41	C	0.538790	1.945862	-0.983259
C42	C	0.538811	1.945859	-0.917824
C43	C	0.464740	1.859498	-0.885565
C44	C	0.465034	1.859318	-0.086090
C45	C	0.464698	1.859494	-0.016430
H46	H	0.359771	1.374354	-0.192745
C47	C	0.620471	2.040859	-0.477705
N48	N	0.681829	2.112439	-0.450222
C49	C	-0.004192	1.988862	-0.308230
N50	N	0.045091	2.059462	-0.340597
C51	C	0.620601	2.040688	-0.615129
N52	N	0.682162	2.112068	-0.641877
C53	C	0.594646	1.328622	-0.317975
N54	N	0.665338	1.279371	-0.355665
C55	C	-0.067009	1.729889	-0.189511
N56	N	-0.116288	1.659284	-0.157146
H57	H	0.330477	1.702806	-0.607542
H58	H	0.330527	1.702800	-0.488838
H59	H	0.462607	1.653065	-0.697559
H60	H	0.599079	2.016185	-1.009528
H61	H	0.462555	1.653072	-0.816268
C62	C	0.309196	1.678127	-0.883247
N63	N	0.247838	1.606562	-0.856521
H64	H	0.330322	1.702804	-1.011173
C65	C	0.620266	2.040892	-0.881336
N66	N	0.681611	2.112486	-0.853853
H67	H	0.466985	2.065923	-0.800796
C68	C	0.467399	2.098434	-0.671525
N69	N	0.468423	2.192707	-0.640890
