data_functionalizedCrystal
_audit_creation_method	'MofGen! by Chris Wilmer'
_symmetry_space_group_name_H-M	'P1'
_symmetry_Int_Tables_number	1
_symmetry_cell_setting	triclinic
loop_
_symmetry_equiv_pos_as_xyz
  x,y,z
_cell_length_a	17.077404
_cell_length_b	16.120484
_cell_length_c	16.120297
_cell_angle_alpha	95.614431
_cell_angle_beta	92.878347
_cell_angle_gamma	92.925780
loop_
_atom_site_label
_atom_site_type_symbol
_atom_site_fract_x
_atom_site_fract_y
_atom_site_fract_z
Zn1	Zn	1.159640	-0.356743	-0.489453
Zn2	Zn	1.159541	-0.489433	-0.356764
Zn3	Zn	1.035382	-0.349680	-0.349700
Zn4	Zn	1.021327	-0.496475	-0.496486
O5	O	1.093973	-0.423083	-0.423101
O6	O	1.269473	-0.374354	-0.471865
O7	O	1.148912	-0.464991	-0.238865
O8	O	1.057788	-0.233651	-0.362338
O9	O	1.269400	-0.471840	-0.374379
O10	O	1.149080	-0.238841	-0.465015
O11	O	1.057692	-0.362315	-0.233675
O12	O	0.923671	-0.369143	-0.369158
O13	O	1.033834	-0.483842	-0.612515
O14	O	0.913346	-0.476993	-0.477002
O15	O	1.135452	-0.381182	-0.607348
O16	O	1.135284	-0.607332	-0.381198
O17	O	1.033738	-0.612506	-0.483852
C18	C	0.890027	-0.423066	-0.423077
C19	C	0.802776	-0.423080	-0.423088
C20	C	0.756430	-0.479314	-0.479160
C21	C	0.674448	-0.479316	-0.479174
C22	C	0.638815	-0.423089	-0.423110
C23	C	0.685167	-0.366849	-0.367035
C24	C	0.767147	-0.366843	-0.367026
C25	C	0.514295	-0.366867	-0.367056
C26	C	0.432310	-0.366873	-0.367063
C27	C	0.421597	-0.479340	-0.479203
C28	C	0.503577	-0.479334	-0.479195
C29	C	0.549923	-0.423095	-0.423118
C30	C	1.082995	-0.640248	-0.434073
C31	C	1.078370	-0.733153	-0.438795
C32	C	1.069928	-0.903253	-0.447433
C33	C	1.118157	-0.942072	-0.398782
C34	C	1.113460	-1.036721	-0.403589
C35	C	1.074624	-0.808595	-0.442628
C36	C	1.298715	-0.423100	-0.423125
C37	C	1.385964	-0.423107	-0.423136
C38	C	1.083086	-0.434085	-0.641107
C39	C	1.078447	-0.438774	-0.734008
C40	C	1.105013	-0.205070	-0.412104
C41	C	1.109718	-0.112167	-0.407418
C42	C	1.069950	-0.447316	-0.904098
C43	C	1.118162	-0.398599	-0.942943
C44	C	1.113434	-0.403352	-1.037587
C45	C	1.074677	-0.442564	-0.809445
C46	C	1.104865	-0.412062	-0.205940
C47	C	1.109667	-0.407138	-0.113028
H48	H	0.552028	-0.321064	-0.321399
H49	H	1.162973	-0.904221	-0.353521
H50	H	0.383857	-0.525129	-0.524865
N51	N	0.646735	-0.306209	-0.306561
H52	H	0.688537	-0.270583	-0.271038
H53	H	0.612975	-0.269303	-0.338696
N54	N	1.177547	-0.338632	-0.892842
H55	H	1.232230	-0.352371	-0.908655
H56	H	1.167578	-0.279676	-0.904970
N57	N	1.010576	-0.507299	-0.954181
H58	H	0.955889	-0.493571	-0.938371
H59	H	1.015639	-0.502214	-1.015655
N60	N	0.393861	-0.306256	-0.306581
H61	H	0.360091	-0.269300	-0.338648
H62	H	0.360119	-0.338304	-0.269540
N63	N	0.817138	-0.306186	-0.306554
H64	H	0.782126	-0.270567	-0.271038
H65	H	0.851367	-0.338187	-0.269529
H66	H	1.025114	-0.941101	-0.492689
N67	N	0.794856	-0.539967	-0.539627
H68	H	0.778270	-0.530094	-0.598717
H69	H	0.853813	-0.531405	-0.531041
H70	H	0.636717	-0.525108	-0.524833
H71	H	0.532587	-0.525124	-0.524842
