data_functionalizedCrystal
_audit_creation_method	'MofGen! by Chris Wilmer'
_symmetry_space_group_name_H-M	'P1'
_symmetry_Int_Tables_number	1
_symmetry_cell_setting	triclinic
loop_
_symmetry_equiv_pos_as_xyz
  x,y,z
_cell_length_a	18.426585
_cell_length_b	21.606444
_cell_length_c	21.606444
_cell_angle_alpha	59.998382
_cell_angle_beta	90.000908
_cell_angle_gamma	59.994711
loop_
_atom_site_label
_atom_site_type_symbol
_atom_site_fract_x
_atom_site_fract_y
_atom_site_fract_z
Zr1	Zr	0.698971	0.677582	-0.081325
O2	O	0.583068	0.806713	-0.180162
O3	O	0.734520	0.548445	-0.051014
O4	O	0.734493	0.677579	-0.180148
O5	O	0.583094	0.677583	0.050822
O6	O	0.853919	0.677583	-0.180151
O7	O	0.583094	0.677579	-0.051028
O8	O	0.853966	0.446586	0.050847
O9	O	0.583047	0.908581	-0.180176
O10	O	0.838785	0.601566	-0.038103
O11	O	0.749658	0.601566	0.037908
O12	O	0.749627	0.753605	-0.114131
O13	O	0.660501	0.753605	-0.038120
Zr14	Zr	0.889441	0.677596	0.081110
Zr15	Zr	0.889441	0.677589	-0.081329
Zr16	Zr	0.698970	0.677589	0.081114
Zr17	Zr	0.698937	0.840049	-0.081347
Zr18	Zr	0.889474	0.515128	0.081131
O19	O	0.853892	0.806733	0.050799
O20	O	0.853892	0.806723	-0.180168
O21	O	0.583067	0.806723	0.050805
O22	O	1.005344	0.548464	0.179947
O23	O	1.005344	0.548454	-0.051020
O24	O	0.734519	0.548455	0.179953
O25	O	1.005317	0.677594	-0.051037
O26	O	0.853918	0.677599	0.179933
O27	O	0.734492	0.677594	0.179935
O28	O	1.005317	0.677599	0.050813
O29	O	0.734445	0.908586	-0.180179
O30	O	0.853966	0.446591	0.179964
O31	O	1.005365	0.446597	0.179960
O32	O	1.005365	0.446591	0.050843
O33	O	0.583046	0.908586	-0.051059
O34	O	0.734445	0.908592	-0.051062
O35	O	0.838784	0.601572	0.113915
O36	O	0.927911	0.601572	0.037904
O37	O	0.838753	0.753611	-0.038123
O38	O	0.749627	0.753611	0.037888
C39	C	0.555956	0.677580	-0.000103
C40	C	0.475096	0.677577	-0.000101
C41	C	0.794205	0.677597	0.203078
C42	C	0.794205	0.677600	0.272038
C43	C	0.794164	0.880810	-0.000135
C44	C	0.794149	0.949782	-0.000144
C45	C	0.178982	0.677603	-0.000114
C46	C	0.261368	0.677600	-0.000112
C47	C	0.327036	0.677590	-0.000108
C48	C	0.409428	0.677587	-0.000105
C49	C	1.032455	0.677597	-0.000113
C50	C	1.113315	0.677600	-0.000115
C51	C	0.794248	0.474367	-0.000081
C52	C	0.794262	0.405395	-0.000071
C53	C	0.747632	0.982177	0.039537
C54	C	0.747651	1.046958	0.039551
C55	C	0.794183	1.079347	-0.000121
C56	C	0.840706	1.046946	-0.039803
C57	C	0.840692	0.982162	-0.039812
C58	C	0.840767	1.308213	-0.039767
C59	C	0.840775	1.373004	-0.039757
C60	C	0.747725	1.373009	0.039596
C61	C	0.747711	1.308225	0.039587
C62	C	0.794238	1.275826	-0.000092
C63	C	0.794218	1.205582	-0.000105
C64	C	0.794198	1.149595	-0.000113
C65	C	0.794206	0.677580	-0.203294
C66	C	0.794206	0.677577	-0.272253
C67	C	0.747668	0.756963	0.264751
C68	C	0.747664	0.756960	0.329549
C69	C	0.794203	0.677595	0.401632
C70	C	0.840742	0.598226	0.408916
C71	C	0.840740	0.598230	0.344120
C72	C	0.840749	0.598211	0.670235
C73	C	0.840750	0.598214	0.735033
C74	C	0.747672	0.756942	0.655663
C75	C	0.747671	0.756945	0.590867
C76	C	0.794206	0.677577	0.598157
C77	C	0.794208	0.677581	0.527896
C78	C	0.794206	0.677590	0.471892
C79	C	1.032497	0.474376	-0.000086
C80	C	1.113371	0.405407	-0.000078
C81	C	0.794247	0.474376	0.203105
C82	C	0.794262	0.405407	0.272074
C83	C	1.032497	0.474384	0.203100
C84	C	1.113371	0.405419	0.272067
C85	C	0.555914	0.880793	-0.203316
C86	C	0.475041	0.949759	-0.272282
C87	C	0.555914	0.880802	-0.000130
C88	C	0.475040	0.949771	-0.000137
C89	C	0.794164	0.880802	-0.203321
C90	C	0.794150	0.949770	-0.272289
C91	C	1.104828	0.373015	-0.039757
C92	C	1.180810	0.308221	-0.039765
C93	C	1.265335	0.275815	-0.000090
C94	C	1.273877	0.308213	0.039590
C95	C	1.197896	0.373011	0.039593
C96	C	0.840791	0.373022	0.344144
C97	C	0.840801	0.308228	0.408954
C98	C	0.794286	0.275815	0.401691
C99	C	0.747751	0.308207	0.329614
C100	C	0.747736	0.373004	0.264806
C101	C	1.197881	0.373032	0.264778
C102	C	1.273878	0.308240	0.329573
C103	C	1.265363	0.275832	0.401657
C104	C	1.180844	0.308226	0.408945
C105	C	1.104849	0.373020	0.344151
C106	C	0.390530	0.982154	-0.264993
C107	C	0.314533	1.046965	-0.329788
C108	C	0.323049	1.079377	-0.401873
C109	C	0.407568	1.046979	-0.409161
C110	C	0.483563	0.982173	-0.344366
C111	C	0.483584	0.982169	0.039534
C112	C	0.407601	1.046981	0.039525
C113	C	0.323076	1.079390	-0.000153
C114	C	0.314534	1.046988	-0.039829
C115	C	0.390516	0.982182	-0.039823
C116	C	0.840674	0.982162	-0.265003
C117	C	0.840678	1.046957	-0.329800
C118	C	0.794152	1.079363	-0.401883
C119	C	0.747627	1.046965	-0.409168
C120	C	0.747628	0.982167	-0.344372
H121	H	0.709735	0.955814	0.071838
H122	H	0.878561	0.955787	-0.206315
H123	H	1.036039	0.399382	0.350096
H124	H	0.245722	1.073333	-0.323840
H125	H	0.709849	0.399364	0.206125
N126	N	1.013669	0.407956	-0.082552
H127	H	0.966822	0.453919	-0.076533
H128	H	1.006651	0.358457	-0.061712
H129	H	0.552373	0.955798	-0.350310
H130	H	1.204831	0.399408	0.206089
H131	H	1.173838	0.281850	-0.072076
H132	H	0.709747	1.073360	-0.467867
N133	N	0.574744	0.947223	0.082332
H134	H	0.568613	0.977593	0.107455
H135	H	0.608289	0.958500	0.045896
H136	H	0.261214	1.132159	-0.000151
N137	N	0.890945	0.512625	0.486662
H138	H	0.920426	0.462349	0.481444
H139	H	0.848231	0.509163	0.515278
N140	N	1.171661	0.273266	0.486694
H141	H	1.201111	0.284543	0.515343
H142	H	1.201121	0.208225	0.515283
N143	N	0.890890	1.081881	-0.082599
H144	H	0.937720	1.070594	-0.046206
H145	H	0.848152	1.146923	-0.122526
H146	H	0.414574	1.073352	0.071837
H147	H	0.414491	1.073377	-0.467859
N148	N	1.365030	0.273308	0.321703
H149	H	1.358886	0.303667	0.266204
H150	H	1.398598	0.208255	0.346867
N151	N	0.223366	1.081932	-0.082608
H152	H	0.176535	1.127894	-0.076579
H153	H	0.216347	1.032433	-0.061752
N154	N	0.381294	0.947240	-0.082614
H155	H	0.316217	0.977608	-0.107746
H156	H	0.410794	0.882190	-0.046176
N157	N	0.891008	0.273285	0.486689
H158	H	0.848346	0.284567	0.515347
H159	H	0.920478	0.303660	0.481389
N160	N	0.794164	1.149244	-0.471767
H161	H	0.830701	1.164841	-0.456206
H162	H	0.731124	1.202978	-0.502938
N163	N	0.697445	0.947234	-0.352236
H164	H	0.667973	0.977602	-0.407734
H165	H	0.650663	0.958519	-0.327090
N166	N	1.347333	0.205946	0.471540
H167	H	1.402159	0.190350	0.455977
H168	H	1.347307	0.152214	0.502706
H169	H	0.261161	1.132146	-0.454627
N170	N	0.890868	0.947215	-0.082607
H171	H	0.920348	0.977564	-0.107739
H172	H	0.848139	0.958508	-0.122504
H173	H	0.709844	1.399393	0.071907
H174	H	0.878634	0.533605	0.350057
N175	N	0.890863	1.081887	-0.321924
H176	H	0.866443	1.108776	-0.293307
H177	H	0.883801	1.127816	-0.373930
N178	N	0.697487	1.081892	0.082356
H179	H	0.668005	1.051545	0.107485
H180	H	0.650715	1.146948	0.045929
N181	N	0.697592	0.273238	0.321784
H182	H	0.650775	0.284510	0.346901
H183	H	0.740350	0.208197	0.346905
N184	N	0.697526	1.273288	0.082378
H185	H	0.668063	1.303637	0.107522
H186	H	0.740254	1.208233	0.122265
H187	H	0.709769	0.821585	0.323609
N188	N	0.381324	0.947208	-0.187253
H189	H	0.347758	0.996652	-0.181191
H190	H	0.442312	0.901222	-0.147349
N191	N	0.890964	1.407941	-0.082549
H192	H	0.920439	1.377586	-0.107686
H193	H	0.937744	1.396649	-0.046108
N194	N	0.890941	1.273278	-0.082566
H195	H	0.920414	1.303633	-0.107700
H196	H	0.848208	1.284575	-0.122462
H197	H	0.709773	0.821591	0.206061
N198	N	1.365051	0.273242	0.082386
H199	H	1.372180	0.246347	0.137896
H200	H	1.372123	0.322710	0.061518
H201	H	0.709777	0.821573	0.532176
H202	H	0.878648	0.533581	0.793728
N203	N	0.697478	0.842549	0.647798
H204	H	0.704536	0.830509	0.699782
H205	H	0.632410	0.877210	0.619139
H206	H	1.327197	0.223052	-0.000098
H207	H	0.878644	0.533585	0.676181
N208	N	0.794322	0.205914	0.471597
H209	H	0.757798	0.190288	0.456066
H210	H	0.767867	0.228522	0.502751
N211	N	1.207115	0.407945	0.082392
H212	H	1.240692	0.358498	0.137900
H213	H	1.146129	0.453923	0.076316
N214	N	0.890967	0.407971	0.351988
H215	H	0.920438	0.377618	0.407483
H216	H	0.848235	0.473024	0.326822
