data_functionalizedCrystal
_audit_creation_method	'MofGen! by Chris Wilmer'
_symmetry_space_group_name_H-M	'P1'
_symmetry_Int_Tables_number	1
_symmetry_cell_setting	triclinic
loop_
_symmetry_equiv_pos_as_xyz
  x,y,z
_cell_length_a	15.995350
_cell_length_b	14.971486
_cell_length_c	14.048226
_cell_angle_alpha	89.997111
_cell_angle_beta	90.001046
_cell_angle_gamma	96.446748
loop_
_atom_site_label
_atom_site_type_symbol
_atom_site_fract_x
_atom_site_fract_y
_atom_site_fract_z
O1	O	1.111101	-0.115291	0.079080
O2	O	0.867340	-0.129528	0.079100
O3	O	0.995754	0.007798	0.079083
O4	O	0.982688	-0.252617	0.079098
O5	O	0.995742	0.007797	-0.079238
O6	O	0.867328	-0.129529	-0.079221
O7	O	1.111089	-0.115292	-0.079241
Zn8	Zn	0.989207	-0.122411	-0.104368
Zn9	Zn	0.989223	-0.122409	0.104227
O10	O	0.982675	-0.252618	-0.079224
C11	C	0.836139	-0.128940	-0.000058
C12	C	0.743187	-0.127175	-0.000051
N13	N	0.989202	-0.122411	-0.246729
C14	C	0.995164	0.041122	-0.000077
C15	C	0.993413	0.140417	-0.000076
C16	C	0.405433	-0.120838	-0.000071
C17	C	0.452769	-0.023037	-0.000430
C18	C	0.549461	-0.024802	-0.000066
C19	C	0.572997	-0.123982	-0.000062
C20	C	0.531965	-0.172220	0.090347
C21	C	0.435327	-0.169763	0.090416
C22	C	0.434976	-0.171785	-0.089625
C23	C	0.531921	-0.171762	-0.090814
C24	C	0.667696	-0.125763	-0.000053
C25	C	0.310733	-0.119060	-0.000073
C26	C	1.142291	-0.115880	-0.000081
C27	C	1.235243	-0.117645	-0.000082
C28	C	0.983266	-0.285942	-0.000061
C29	C	0.985017	-0.385237	-0.000056
C30	C	1.068852	0.197728	-0.000083
C31	C	1.067202	0.291026	-0.000073
C32	C	0.990111	0.327010	-0.000064
C33	C	0.914666	0.269691	-0.000054
C34	C	0.916317	0.176395	-0.000057
C35	C	0.911229	0.464150	-0.000050
C36	C	0.909577	0.557452	-0.000049
C37	C	1.062114	0.578780	-0.000067
C38	C	1.063766	0.485484	-0.000070
C39	C	0.988320	0.428172	-0.000062
C40	C	0.938402	-0.068119	-0.703595
C41	C	0.938399	-0.068116	-0.603937
C42	C	0.989224	-0.122402	-0.554099
C43	C	1.040062	-0.176686	-0.603923
C44	C	1.040070	-0.176683	-0.703579
C45	C	1.040043	-0.176690	-0.396209
C46	C	1.040035	-0.176694	-0.296546
C47	C	0.938372	-0.068123	-0.296567
C48	C	0.938379	-0.068120	-0.396223
C49	C	0.989216	-0.122406	-0.446040
N50	N	0.989234	-0.122402	0.246588
H51	H	0.434203	0.016056	-0.065265
C52	C	0.882492	-0.008403	-0.758413
C53	C	0.826581	0.051311	-0.703610
C54	C	0.770672	0.111031	-0.758425
C55	C	0.770674	0.111037	-0.868042
C56	C	0.826586	0.051321	-0.922851
C57	C	0.882496	-0.008399	-0.868037
H58	H	0.826578	0.051308	-0.622459
H59	H	0.729282	0.155237	-0.717851
H60	H	0.729287	0.155246	-0.908620
H61	H	0.826589	0.051324	-1.004002
H62	H	0.923886	-0.052605	-0.908610
C63	C	1.150190	0.354065	-0.000084
C64	C	1.213324	0.350041	-0.082307
C65	C	1.296316	0.413079	-0.082316
C66	C	1.316175	0.480140	-0.000100
C67	C	1.253039	0.484167	0.082129
C68	C	1.170046	0.421129	0.082138
H69	H	1.198625	0.300396	-0.143174
H70	H	1.343053	0.410098	-0.143188
H71	H	1.377611	0.526805	-0.000107
H72	H	1.267738	0.533812	0.142995
H73	H	1.123309	0.424110	0.143010
C74	C	0.882473	-0.008411	-0.549143
C75	C	0.894706	0.094277	-0.562855
C76	C	0.838775	0.153985	-0.508064
C77	C	0.770611	0.111005	-0.439560
C78	C	0.758375	0.008311	-0.425845
C79	C	0.814306	-0.051397	-0.480636
H80	H	0.945168	0.126099	-0.613569
H81	H	0.847834	0.230006	-0.518217
H82	H	0.729208	0.155204	-0.399000
H83	H	0.707913	-0.023510	-0.375131
H84	H	0.805247	-0.127417	-0.470483
H85	H	0.896976	-0.023923	-0.256001
H86	H	0.846803	0.586747	-0.000057
C87	C	1.095957	-0.236415	-0.451005
C88	C	1.055749	-0.309247	-0.519510
C89	C	1.111656	-0.368979	-0.574304
C90	C	1.207770	-0.355879	-0.560592
C91	C	1.247983	-0.283044	-0.492084
C92	C	1.192076	-0.223312	-0.437290
H93	H	0.984595	-0.318947	-0.529663
H94	H	1.081887	-0.422896	-0.625019
H95	H	1.249155	-0.400096	-0.601154
H96	H	1.319137	-0.273344	-0.481930
H97	H	1.221845	-0.169395	-0.386575
H98	H	1.123545	0.625449	-0.000070
H99	H	1.081418	-0.220901	-0.255970
C100	C	0.828240	0.401102	-0.000042
C101	C	0.765097	0.405123	0.082173
C102	C	0.682111	0.342075	0.082176
C103	C	0.662268	0.275006	-0.000035
C104	C	0.725412	0.270983	-0.082256
C105	C	0.808398	0.334031	-0.082260
H106	H	0.779784	0.454774	0.143036
H107	H	0.635367	0.345053	0.143043
H108	H	0.600836	0.228334	-0.000033
H109	H	0.710725	0.221332	-0.143120
H110	H	0.855142	0.331052	-0.143126
C111	C	0.410546	-0.122233	0.181704
C112	C	0.317660	-0.110159	0.200662
C113	C	0.292884	-0.062626	0.291951
C114	C	0.360995	-0.027166	0.364282
C115	C	0.453888	-0.039239	0.345326
C116	C	0.478663	-0.086772	0.254037
H117	H	0.267234	-0.136409	0.147117
H118	H	0.224119	-0.053689	0.305984
H119	H	0.342655	0.008021	0.431860
H120	H	0.504313	-0.012989	0.398871
H121	H	0.547428	-0.095709	0.240004
H122	H	0.433141	0.015877	0.064044
C123	C	1.095980	-0.236402	-0.758382
C124	C	1.095991	-0.236401	-0.867999
C125	C	1.151904	-0.296120	-0.922801
C126	C	1.207807	-0.355839	-0.867985
C127	C	1.207799	-0.355842	-0.758361
C128	C	1.151885	-0.296123	-0.703560
H129	H	1.054606	-0.192192	-0.908583
H130	H	1.151910	-0.296118	-1.003952
H131	H	1.249198	-0.400046	-0.908553
H132	H	1.249183	-0.400051	-0.717778
H133	H	1.151879	-0.296125	-0.622409
C134	C	0.551143	-0.270656	0.094903
C135	C	0.604413	-0.308472	0.016395
C136	C	0.623592	-0.406908	0.020948
C137	C	0.589501	-0.467527	0.104010
C138	C	0.536228	-0.429712	0.182525
C139	C	0.517050	-0.331276	0.177971
H140	H	0.629652	-0.263598	-0.045098
H141	H	0.663028	-0.434902	-0.037174
H142	H	0.603698	-0.540396	0.107381
H143	H	0.510990	-0.474586	0.244018
H144	H	0.477613	-0.303282	0.236093
H145	H	0.577286	0.013373	0.064851
C146	C	0.552768	-0.269472	-0.098185
C147	C	0.600522	-0.299684	-0.185532
C148	C	0.621368	-0.397398	-0.192893
C149	C	0.594461	-0.464901	-0.112907
C150	C	0.546705	-0.434690	-0.025555
C151	C	0.525859	-0.336976	-0.018194
H152	H	0.620442	-0.249714	-0.244747
H153	H	0.656721	-0.419762	-0.257557
H154	H	0.609893	-0.537235	-0.118356
H155	H	0.526785	-0.484660	0.033661
H156	H	0.490506	-0.314612	0.046471
H157	H	0.896988	-0.023921	-0.436799
C158	C	1.153655	0.158150	-0.000094
C159	C	1.216343	0.179786	-0.082309
C160	C	1.301148	0.140210	-0.082317
C161	C	1.323265	0.078998	-0.000111
C162	C	1.260576	0.057359	0.082110
C163	C	1.175771	0.096934	0.082118
H164	H	1.199972	0.225101	-0.143169
H165	H	1.347554	0.156230	-0.143183
H166	H	1.386043	0.049702	-0.000117
H167	H	1.276947	0.012043	0.142970
H168	H	1.129364	0.080915	0.142984
H169	H	0.577847	0.013116	-0.064875
H170	H	1.126540	0.456189	-0.000084
H171	H	0.403150	-0.241567	0.094522
H172	H	0.414403	-0.139812	-0.158152
C173	C	0.570239	-0.126949	0.181243
C174	C	0.638670	-0.046278	0.173622
C175	C	0.676939	-0.000998	0.264516
C176	C	0.646776	-0.036388	0.363031
C177	C	0.578341	-0.117063	0.370656
C178	C	0.540072	-0.162344	0.279762
H179	H	0.661002	-0.020076	0.100692
H180	H	0.727599	0.058724	0.258871
H181	H	0.675105	-0.002868	0.430316
H182	H	0.556009	-0.143265	0.443586
H183	H	0.489412	-0.222065	0.285407
C184	C	0.568757	-0.124188	-0.181174
C185	C	0.635817	-0.042340	-0.172639
C186	C	0.672659	0.005234	-0.262998
C187	C	0.642441	-0.029039	-0.361892
C188	C	0.575376	-0.110891	-0.370431
C189	C	0.538534	-0.158466	-0.280072
H190	H	0.658190	-0.016965	-0.099428
H191	H	0.722305	0.065827	-0.256676
H192	H	0.669713	0.006179	-0.428781
H193	H	0.553003	-0.136266	-0.443642
H194	H	0.488889	-0.219059	-0.286394
H195	H	0.403287	-0.243893	-0.090233
H196	H	0.851897	0.298997	-0.000040
H197	H	0.854886	0.129732	-0.000051
H198	H	1.081450	-0.220882	-0.563336
