data_functionalizedCrystal
_audit_creation_method	'MofGen! by Chris Wilmer'
_symmetry_space_group_name_H-M	'P1'
_symmetry_Int_Tables_number	1
_symmetry_cell_setting	triclinic
loop_
_symmetry_equiv_pos_as_xyz
  x,y,z
_cell_length_a	14.908783
_cell_length_b	16.625546
_cell_length_c	14.908308
_cell_angle_alpha	93.264070
_cell_angle_beta	89.788727
_cell_angle_gamma	93.313227
loop_
_atom_site_label
_atom_site_type_symbol
_atom_site_fract_x
_atom_site_fract_y
_atom_site_fract_z
Zn1	Zn	1.345304	-0.282015	-0.587817
Zn2	Zn	1.845304	0.217985	-0.087817
Zn3	Zn	1.353880	-0.408665	-0.437451
Zn4	Zn	1.853880	0.091335	0.062549
Zn5	Zn	1.203617	-0.281142	-0.428788
Zn6	Zn	1.703617	0.218858	0.071212
Zn7	Zn	1.194905	-0.424105	-0.579072
Zn8	Zn	1.694905	0.075895	-0.079072
O9	O	1.274427	-0.348982	-0.508282
O10	O	1.774427	0.151018	-0.008282
O11	O	1.472270	-0.292719	-0.575156
O12	O	1.972270	0.207281	-0.075156
O13	O	1.341183	-0.384922	-0.310479
O14	O	1.841183	0.115078	0.189521
O15	O	1.222470	-0.168425	-0.449918
O16	O	1.722470	0.331575	0.050082
O17	O	1.478570	-0.385768	-0.464683
O18	O	1.978570	0.114232	0.035317
O19	O	1.326566	-0.169066	-0.566756
O20	O	1.826566	0.330934	-0.066756
O21	O	1.230785	-0.291232	-0.304114
O22	O	1.730785	0.208768	0.195886
O23	O	1.076634	-0.306203	-0.441438
O24	O	1.576634	0.193797	0.058562
O25	O	1.207620	-0.412083	-0.706055
O26	O	1.707620	0.087917	-0.206055
O27	O	1.070233	-0.411237	-0.551851
O28	O	1.570233	0.088763	-0.051851
O29	O	1.318118	-0.307690	-0.712480
O30	O	1.818118	0.192310	-0.212480
O31	O	1.332734	-0.523547	-0.456203
O32	O	1.832734	-0.023547	0.043797
O33	O	1.215936	-0.534890	-0.560251
O34	O	1.715936	-0.034890	-0.060251
C35	C	1.040807	-0.360301	-0.494756
C36	C	1.540807	0.139699	0.005244
C37	C	0.940863	-0.365164	-0.488991
C38	C	1.440863	0.134836	0.011009
C39	C	0.746483	-0.277561	-0.593370
C40	C	1.246483	0.222439	-0.093370
C41	C	0.652576	-0.282128	-0.587956
C42	C	1.152576	0.217872	-0.087956
C43	C	0.659140	-0.378860	-0.472746
C44	C	1.159140	0.121140	0.027254
C45	C	0.753047	-0.374293	-0.478160
C46	C	1.253047	0.125707	0.021840
C47	C	0.796715	-0.323643	-0.538475
C48	C	1.296715	0.176357	-0.038475
C49	C	0.890624	-0.319081	-0.543893
C50	C	1.390624	0.180919	-0.043893
C51	C	0.897186	-0.415808	-0.428679
C52	C	1.397186	0.084192	0.071321
C53	C	0.803279	-0.420375	-0.423265
C54	C	1.303279	0.079625	0.076735
C55	C	1.274344	-0.558475	-0.508239
C56	C	1.774344	-0.058475	-0.008239
C57	C	1.274389	-0.648094	-0.508256
C58	C	1.774389	-0.148094	-0.008256
C59	C	1.274540	-0.976267	-0.508359
C60	C	1.774540	-0.476267	-0.008359
C61	C	1.274495	-0.884960	-0.508333
C62	C	1.774495	-0.384960	-0.008333
C63	C	1.274464	-0.812184	-0.508307
C64	C	1.774464	-0.312184	-0.008307
C65	C	1.274420	-0.720870	-0.508282
C66	C	1.774420	-0.220870	-0.008282
C67	C	1.508958	-0.337619	-0.521861
C68	C	2.008958	0.162381	-0.021861
C69	C	1.608901	-0.332776	-0.527647
C70	C	2.108901	0.167224	-0.027647
C71	C	1.260941	-0.361706	-0.742804
C72	C	1.760941	0.138294	-0.242804
C73	C	1.255194	-0.367128	-0.842743
C74	C	1.755194	0.132872	-0.342743
C75	C	1.274533	-0.138671	-0.508346
C76	C	1.774533	0.361329	-0.008346
C77	C	1.274579	-0.049049	-0.508373
C78	C	1.774579	0.450951	-0.008373
C79	C	1.359454	-0.268595	-1.037231
C80	C	1.859454	0.231405	-0.537231
C81	C	1.354057	-0.273687	-1.131134
C82	C	1.854057	0.226313	-0.631134
C83	C	1.238999	-0.382400	-1.124451
C84	C	1.738999	0.117600	-0.624451
C85	C	1.244396	-0.377308	-1.030549
C86	C	1.744396	0.122692	-0.530549
C87	C	1.304626	-0.320404	-0.986943
C88	C	1.804626	0.179596	-0.486943
C89	C	1.310027	-0.315317	-0.893039
C90	C	1.810027	0.184683	-0.393039
C91	C	1.194966	-0.424025	-0.886358
C92	C	1.694966	0.075975	-0.386358
C93	C	1.189569	-0.429117	-0.980260
C94	C	1.689569	0.070883	-0.480260
C95	C	1.287912	-0.336246	-0.274675
C96	C	1.787912	0.163754	0.225325
C97	C	1.293833	-0.330588	-0.174747
C98	C	1.793833	0.169412	0.325253
H99	H	0.767712	-0.461609	-0.374156
H100	H	1.267712	0.038391	0.125844
H101	H	1.408500	-0.222266	-1.001727
H102	H	1.908500	0.277734	-0.501727
H103	H	0.782038	-0.236324	-0.642484
H104	H	1.282038	0.263676	-0.142484
H105	H	1.398700	-0.231496	-1.172075
H106	H	1.898700	0.268504	-0.672075
H107	H	0.926177	-0.277840	-0.593005
H108	H	1.426177	0.222160	-0.093005
H109	H	0.938095	-0.453338	-0.383986
H110	H	1.438095	0.046662	0.116014
C111	C	1.188487	-0.527371	-0.780011
C112	C	1.688487	-0.027371	-0.280011
C113	C	1.134691	-0.480979	-0.831080
C114	C	1.634691	0.019021	-0.331080
H115	H	1.151276	-0.562528	-0.745883
H116	H	1.651276	-0.062528	-0.245883
H117	H	1.225536	-0.558295	-0.818905
H118	H	1.725536	-0.058295	-0.318905
H119	H	1.225123	-0.492748	-0.740600
H120	H	1.725123	0.007252	-0.240600
H121	H	1.098060	-0.515602	-0.870497
H122	H	1.598060	-0.015602	-0.370497
H123	H	1.097627	-0.450052	-0.792183
H124	H	1.597627	0.049948	-0.292183
H125	H	0.611681	-0.244601	-0.632655
H126	H	1.111681	0.255399	-0.132655
C127	C	1.125805	-0.489343	-1.108425
C128	C	1.625805	0.010657	-0.608425
C129	C	1.172794	-0.444940	-1.172392
C130	C	1.672794	0.055060	-0.672392
H131	H	1.084929	-0.527949	-1.138024
H132	H	1.584929	-0.027949	-0.638024
H133	H	1.167071	-0.516304	-1.074065
H134	H	1.667071	-0.016304	-0.574065
H135	H	1.093534	-0.453888	-1.069812
H136	H	1.593534	0.046112	-0.569812
H137	H	1.205070	-0.480395	-1.211001
H138	H	1.705070	0.019605	-0.711001
H139	H	1.131522	-0.417979	-1.206767
H140	H	1.631522	0.082021	-0.706767
H141	H	0.623570	-0.420087	-0.423631
H142	H	1.123570	0.079913	0.076369
H143	H	1.359071	-0.268984	-0.857537
H144	H	1.859071	0.231016	-0.357537
H145	H	1.140530	-0.475445	-1.015777
H146	H	1.640530	0.024555	-0.515777
