data_functionalizedCrystal
_audit_creation_method	'MofGen! by Chris Wilmer'
_symmetry_space_group_name_H-M	'P1'
_symmetry_Int_Tables_number	1
_symmetry_cell_setting	triclinic
loop_
_symmetry_equiv_pos_as_xyz
  x,y,z
_cell_length_a	17.019311
_cell_length_b	15.500227
_cell_length_c	11.026607
_cell_angle_alpha	86.545431
_cell_angle_beta	95.962670
_cell_angle_gamma	96.714751
loop_
_atom_site_label
_atom_site_type_symbol
_atom_site_fract_x
_atom_site_fract_y
_atom_site_fract_z
O1	O	1.074695	0.152006	0.142699
O2	O	0.847151	0.135055	0.163727
O3	O	0.942064	0.142123	-0.023298
O4	O	0.979782	0.144939	0.329724
O5	O	0.936299	-0.002195	-0.011993
O6	O	0.841386	-0.009263	0.175031
O7	O	1.068929	0.007688	0.154004
Cu8	Cu	0.954631	-0.013965	0.165550
Cu9	Cu	0.961450	0.156708	0.152181
O10	O	0.974016	0.000621	0.341029
C11	C	0.814685	0.060693	0.168803
C12	C	0.726534	0.054126	0.167072
N13	N	0.949840	-0.134006	0.174952
C14	C	0.227815	0.013042	0.157633
C15	C	0.310642	0.019214	0.159259
C16	C	0.355199	0.100969	0.153900
C17	C	0.316924	0.176557	0.146928
C18	C	0.234099	0.170385	0.145311
C19	C	0.605435	0.123542	0.158483
C20	C	0.688265	0.129709	0.160097
C21	C	0.681978	-0.027635	0.172430
C22	C	0.599151	-0.033801	0.170805
C23	C	0.560884	0.041787	0.163839
C24	C	0.439861	0.107279	0.155558
C25	C	0.476224	0.035476	0.162190
C26	C	0.990080	-0.176287	0.095732
C27	C	0.986466	-0.267129	0.102854
C28	C	0.942617	-0.315688	0.189203
C29	C	0.902372	-0.273402	0.268427
C30	C	0.905982	-0.182562	0.261298
C31	C	0.929610	-0.590124	0.214863
C32	C	0.926005	-0.680970	0.221989
C33	C	1.010099	-0.674690	0.056414
C34	C	1.013709	-0.583849	0.049298
C35	C	0.973460	-0.541570	0.128517
C36	C	0.938924	-0.408543	0.196487
C37	C	0.977149	-0.448717	0.121226
C38	C	1.101395	0.082052	0.148927
C39	C	1.189546	0.088625	0.150657
C40	C	0.932223	0.069446	-0.062804
C41	C	0.911481	0.067904	-0.197363
N42	N	0.966245	0.276750	0.142768
C43	C	0.968755	0.072172	-0.271599
C44	C	0.947318	0.070578	-0.410672
C45	C	0.983857	0.073299	0.380535
C46	C	1.004600	0.074847	0.515092
H47	H	0.191543	-0.053532	0.162002
C48	C	0.724074	-0.110774	0.180108
H49	H	0.779783	-0.095393	0.180315
H50	H	0.705168	-0.144419	0.111692
H51	H	0.713250	-0.143799	0.253080
H52	H	1.042866	-0.709122	-0.008084
H53	H	0.890296	-0.720503	0.292309
H54	H	0.873213	-0.148139	0.325806
C55	C	1.056436	0.078700	-0.218381
H56	H	1.059341	0.078909	-0.131889
H57	H	1.084043	0.130933	-0.249145
H58	H	1.080015	0.030272	-0.241266
C59	C	0.890659	-0.461960	0.291429
H60	H	0.867195	-0.423774	0.337578
H61	H	0.924871	-0.494753	0.344495
H62	H	0.850109	-0.500304	0.250761
C63	C	0.859631	0.064052	-0.463879
H64	H	0.826478	0.061588	-0.399270
H65	H	0.847144	0.012949	-0.508657
H66	H	0.851174	0.113609	-0.516524
C67	C	1.092287	0.081379	-0.431705
H68	H	1.125439	0.083856	-0.496317
H69	H	1.100752	0.031834	-0.379052
H70	H	1.104770	0.132494	-0.386937
C71	C	0.352736	-0.063927	0.166951
H72	H	0.314337	-0.113501	0.169902
H73	H	0.388951	-0.064479	0.238536
H74	H	0.380879	-0.065102	0.097148
C75	C	0.550145	-0.123731	0.176709
H76	H	0.584801	-0.167863	0.181108
H77	H	0.513661	-0.129716	0.105646
H78	H	0.521749	-0.129100	0.247036
C79	C	1.030740	-0.313633	0.015723
H80	H	1.057382	-0.271702	-0.036711
H81	H	0.993691	-0.351739	-0.031777
H82	H	1.068477	-0.346138	0.061910
H83	H	0.846577	0.063075	-0.236766
C84	C	0.365931	0.266488	0.141039
H85	H	0.331275	0.310618	0.136665
H86	H	0.394330	0.271864	0.070723
H87	H	0.402412	0.272468	0.212113
H88	H	0.896840	-0.555708	0.279369
C89	C	0.737277	0.219643	0.154216
H90	H	0.702626	0.263777	0.149848
H91	H	0.765677	0.225021	0.083900
H92	H	0.773759	0.225615	0.225291
C93	C	0.563349	0.206685	0.150781
H94	H	0.601749	0.256257	0.147800
H95	H	0.535206	0.207870	0.220575
H96	H	0.527134	0.207231	0.079188
C97	C	0.192004	0.253525	0.137647
H98	H	0.230401	0.303100	0.134680
H99	H	0.163869	0.254687	0.207454
H100	H	0.155780	0.254088	0.066064
H101	H	0.439943	-0.031088	0.166559
H102	H	0.476148	0.173845	0.151192
C103	C	1.038314	-0.122879	0.000746
H104	H	1.061755	-0.161074	-0.045422
H105	H	1.078867	-0.084512	0.041348
H106	H	1.004067	-0.090113	-0.052311
H107	H	1.049415	-0.544313	-0.021014
H108	H	0.866664	-0.312945	0.338730
H109	H	1.012848	-0.409178	0.050916
