data_functionalizedCrystal
_audit_creation_method	'MofGen! by Chris Wilmer'
_symmetry_space_group_name_H-M	'P1'
_symmetry_Int_Tables_number	1
_symmetry_cell_setting	triclinic
loop_
_symmetry_equiv_pos_as_xyz
  x,y,z
_cell_length_a	14.971482
_cell_length_b	14.971506
_cell_length_c	14.048226
_cell_angle_alpha	89.995147
_cell_angle_beta	89.994098
_cell_angle_gamma	83.617498
loop_
_atom_site_label
_atom_site_type_symbol
_atom_site_fract_x
_atom_site_fract_y
_atom_site_fract_z
O1	O	1.186958	0.116548	-0.079145
O2	O	1.686958	0.616548	0.420855
O3	O	0.926558	0.130510	-0.079149
O4	O	1.426558	0.630510	0.420851
O5	O	1.063728	-0.006670	-0.079144
O6	O	1.563728	0.493330	0.420856
O7	O	1.049788	0.253728	-0.079150
O8	O	1.549788	0.753728	0.420850
O9	O	1.063711	-0.006678	0.079177
O10	O	1.563711	0.493322	0.579177
O11	O	0.926541	0.130502	0.079172
O12	O	1.426541	0.630502	0.579172
O13	O	1.186941	0.116540	0.079176
O14	O	1.686941	0.616540	0.579176
Zn15	Zn	1.056739	0.123519	0.104311
Zn16	Zn	1.556739	0.623519	0.604311
Zn17	Zn	1.056760	0.123530	-0.104284
Zn18	Zn	1.556760	0.623530	0.395716
O19	O	1.049771	0.253720	0.079172
O20	O	1.549771	0.753720	0.579172
C21	C	0.893225	0.129882	0.000011
C22	C	1.393225	0.629882	0.500011
C23	C	0.793927	0.128013	0.000009
C24	C	1.293927	0.628013	0.500009
C25	C	0.747274	0.127128	0.086311
C26	C	1.247274	0.627128	0.586311
C27	C	0.653975	0.125357	0.086312
C28	C	1.153975	0.625357	0.586312
C29	C	0.607331	0.124477	0.000010
C30	C	1.107331	0.624477	0.500010
C31	C	0.653992	0.125360	-0.086298
C32	C	1.153992	0.625360	0.413702
C33	C	0.747289	0.127124	-0.086298
C34	C	1.247289	0.627124	0.413702
C35	C	0.459530	0.121684	-0.086292
C36	C	0.959530	0.621684	0.413708
C37	C	0.366225	0.119922	-0.086292
C38	C	0.866225	0.619922	0.413708
C39	C	0.366215	0.119917	0.086319
C40	C	0.866215	0.619917	0.586319
C41	C	0.459513	0.121682	0.086319
C42	C	0.959513	0.621682	0.586319
C43	C	0.506167	0.122565	0.000010
C44	C	1.006167	0.622565	0.500010
C45	C	1.063093	-0.039999	0.000015
C46	C	1.563093	0.460001	0.500015
C47	C	1.061215	-0.139295	0.000011
C48	C	1.561215	0.360705	0.500011
C49	C	1.134633	-0.577578	0.000012
C50	C	1.634633	-0.077578	0.500012
C51	C	1.136391	-0.484278	0.000019
C52	C	1.636391	0.015722	0.500019
C53	C	1.055798	-0.427057	0.000014
C54	C	1.555798	0.072943	0.500014
C55	C	0.973443	-0.463140	0.000013
C56	C	1.473443	0.036860	0.500013
C57	C	0.971686	-0.556439	0.000013
C58	C	1.471686	-0.056439	0.500013
C59	C	0.977110	-0.268677	0.000009
C60	C	1.477110	0.231323	0.500009
C61	C	0.978866	-0.175372	0.000007
C62	C	1.478866	0.324628	0.500007
C63	C	1.141814	-0.196516	0.000014
C64	C	1.641814	0.303484	0.500014
C65	C	1.140057	-0.289815	0.000015
C66	C	1.640057	0.210185	0.500015
C67	C	1.057702	-0.325892	0.000012
C68	C	1.557702	0.174108	0.500012
C69	C	1.220274	0.117167	0.000014
C70	C	1.720274	0.617167	0.500014
C71	C	1.319571	0.119037	0.000010
C72	C	1.819571	0.619037	0.500010
C73	C	1.050406	0.287048	0.000010
C74	C	1.550406	0.787048	0.500010
C75	C	1.052284	0.386344	0.000008
C76	C	1.552284	0.886344	0.500008
N77	N	1.056730	0.123512	0.246672
N78	N	1.556730	0.623512	0.746672
N79	N	1.056776	0.123531	-0.246645
N80	N	1.556776	0.623531	0.253355
C81	C	1.117488	0.062793	0.296492
C82	C	1.617488	0.562793	0.796492
C83	C	1.117494	0.062793	0.396150
C84	C	1.617494	0.562793	0.896150
C85	C	1.056746	0.123515	0.445985
C86	C	1.556746	0.623515	0.945985
C87	C	0.995982	0.184237	0.396158
C88	C	1.495982	0.684237	0.896158
C89	C	0.995972	0.184232	0.296502
C90	C	1.495972	0.684232	0.796502
C91	C	0.996007	0.184243	0.603873
C92	C	1.496007	0.684243	1.103873
C93	C	0.996018	0.184249	0.703535
C94	C	1.496018	0.684249	1.203535
C95	C	1.117530	0.062804	0.703520
C96	C	1.617530	0.562804	1.203520
C97	C	1.117520	0.062799	0.603864
C98	C	1.617520	0.562799	1.103864
C99	C	1.056757	0.123522	0.554044
C100	C	1.556757	0.623522	1.054044
H101	H	0.785244	0.127851	0.156589
H102	H	1.285244	0.627851	0.656589
Cl103	Cl	0.307588	0.118814	-0.194788
Cl104	Cl	0.807588	0.618814	0.305212
Cl105	Cl	1.241375	-0.361749	0.000014
Cl106	Cl	1.741375	0.138251	0.500014
Cl107	Cl	0.919607	0.260571	0.458807
Cl108	Cl	1.419607	0.760571	0.958807
Cl109	Cl	0.595327	0.124261	0.194812
Cl110	Cl	1.095327	0.624261	0.694812
Cl111	Cl	0.877548	-0.103438	0.000012
Cl112	Cl	1.377548	0.396562	0.500012
H113	H	1.200261	-0.624162	0.000008
H114	H	1.700261	-0.124162	0.500008
H115	H	0.946524	0.233687	0.563312
H116	H	1.446524	0.733687	1.063312
Cl117	Cl	0.919643	0.260588	0.766178
Cl118	Cl	1.419643	0.760588	1.266178
Cl119	Cl	0.595358	0.124221	-0.194793
Cl120	Cl	1.095358	0.624221	0.305207
H121	H	0.946496	0.233674	0.255940
H122	H	1.446496	0.733674	0.755940
Cl123	Cl	0.518179	0.122793	-0.194797
Cl124	Cl	1.018179	0.622793	0.305203
H125	H	1.208871	-0.167139	-0.000071
H126	H	1.708871	0.332861	0.499929
Cl127	Cl	0.873575	-0.314030	0.000010
Cl128	Cl	1.373575	0.185970	0.500010
H129	H	0.904629	-0.585811	0.000018
H130	H	1.404629	-0.085811	0.500018
Cl131	Cl	0.518149	0.122797	0.194814
Cl132	Cl	1.018149	0.622797	0.694814
H133	H	0.328225	0.119198	0.156595
H134	H	0.828225	0.619198	0.656595
Cl135	Cl	0.872126	-0.391205	0.000011
Cl136	Cl	1.372126	0.108795	0.500011
H137	H	0.785273	0.127846	-0.156574
H138	H	1.285273	0.627846	0.343426
Cl139	Cl	1.239920	-0.438928	-0.000001
Cl140	Cl	1.739920	0.061072	0.499999
Cl141	Cl	1.193867	-0.013545	0.233852
Cl142	Cl	1.693867	0.486455	0.733852
Cl143	Cl	1.193876	-0.013541	0.458783
Cl144	Cl	1.693876	0.486459	0.958783
Cl145	Cl	1.193894	-0.013532	0.541211
Cl146	Cl	1.693894	0.486468	1.041211
Cl147	Cl	1.193918	-0.013530	0.766154
Cl148	Cl	1.693918	0.486470	1.266154
