data_functionalizedCrystal
_audit_creation_method	'MofGen! by Chris Wilmer'
_symmetry_space_group_name_H-M	'P1'
_symmetry_Int_Tables_number	1
_symmetry_cell_setting	triclinic
loop_
_symmetry_equiv_pos_as_xyz
  x,y,z
_cell_length_a	17.640112
_cell_length_b	18.101397
_cell_length_c	17.639306
_cell_angle_alpha	101.181650
_cell_angle_beta	87.804122
_cell_angle_gamma	101.246095
loop_
_atom_site_label
_atom_site_type_symbol
_atom_site_fract_x
_atom_site_fract_y
_atom_site_fract_z
Zn1	Zn	1.247743	-0.095188	-0.195061
Zn2	Zn	1.747743	0.404812	0.304939
Zn3	Zn	1.222001	-0.199865	-0.068079
Zn4	Zn	1.722001	0.300135	0.431921
Zn5	Zn	1.095095	-0.104960	-0.093713
Zn6	Zn	1.595095	0.395040	0.406287
Zn7	Zn	1.120713	-0.247925	-0.220648
Zn8	Zn	1.620713	0.252075	0.279352
O9	O	1.171388	-0.161985	-0.144375
O10	O	1.671388	0.338015	0.355625
O11	O	1.350601	-0.084870	-0.156780
O12	O	1.850601	0.415130	0.343220
O13	O	1.183672	-0.171252	0.034786
O14	O	1.683672	0.328748	0.534786
O15	O	1.115396	-0.000025	-0.107176
O16	O	1.615396	0.499975	0.392824
O17	O	1.331688	-0.161776	-0.063487
O18	O	1.831688	0.338224	0.436513
O19	O	1.227546	0.007155	-0.181636
O20	O	1.727546	0.507155	0.318364
O21	O	1.090435	-0.101526	0.015953
O22	O	1.590435	0.398474	0.515953
O23	O	0.992221	-0.148128	-0.131987
O24	O	1.492221	0.351872	0.368013
O25	O	1.159059	-0.243688	-0.323519
O26	O	1.659059	0.256312	0.176481
O27	O	1.011042	-0.253164	-0.225245
O28	O	1.511042	0.246836	0.274755
O29	O	1.252387	-0.131473	-0.304720
O30	O	1.752387	0.368527	0.195280
O31	O	1.208513	-0.309879	-0.088298
O32	O	1.708513	0.190121	0.411702
O33	O	1.134098	-0.345189	-0.200390
O34	O	1.634098	0.154811	0.299610
C35	C	0.974076	-0.206923	-0.184175
C36	C	1.474076	0.293077	0.315825
C37	C	0.889669	-0.226168	-0.201219
C38	C	1.389669	0.273832	0.298781
C39	C	1.171316	-0.354404	-0.144351
C40	C	1.671316	0.145596	0.355649
C41	C	1.171359	-0.436710	-0.144352
C42	C	1.671359	0.063290	0.355648
C43	C	0.563037	-0.015769	-0.014896
C44	C	1.063037	0.484231	0.485104
C45	C	0.483725	-0.033869	-0.030922
C46	C	0.983725	0.466131	0.469078
C47	C	0.503345	-0.143348	-0.127865
C48	C	1.003345	0.356652	0.372135
C49	C	0.582660	-0.125255	-0.111850
C50	C	1.082660	0.374745	0.388150
C51	C	0.612499	-0.061465	-0.055364
C52	C	1.112499	0.438535	0.444636
C53	C	0.632123	-0.170951	-0.152317
C54	C	1.132123	0.329049	0.347683
C55	C	0.711430	-0.152861	-0.136300
C56	C	1.211430	0.347139	0.363700
C57	C	0.741275	-0.089076	-0.079815
C58	C	1.241275	0.410924	0.420185
C59	C	0.691807	-0.043375	-0.039346
C60	C	1.191807	0.456625	0.460654
C61	C	0.602281	-0.234744	-0.208799
C62	C	1.102281	0.265256	0.291201
C63	C	0.651744	-0.280440	-0.249267
C64	C	1.151744	0.219560	0.250733
C65	C	0.731054	-0.262347	-0.233254
C66	C	1.231054	0.237653	0.266746
C67	C	0.760899	-0.198562	-0.176769
C68	C	1.260899	0.301438	0.323231
C69	C	0.780522	-0.308047	-0.273722
C70	C	1.280522	0.191953	0.226278
C71	C	0.859830	-0.289958	-0.257705
C72	C	1.359830	0.210042	0.242295
C73	C	0.840206	-0.180472	-0.160752
C74	C	1.340206	0.319528	0.339248
C75	C	1.171470	-0.735790	-0.144402
C76	C	1.671470	-0.235790	0.355598
C77	C	1.218095	-0.682231	-0.073753
C78	C	1.718095	-0.182231	0.426247
C79	C	1.218328	-0.596589	-0.073865
C80	C	1.718328	-0.096589	0.426135
C81	C	1.171415	-0.587413	-0.144377
C82	C	1.671415	-0.087413	0.355623
C83	C	1.209282	-0.625572	-0.220045
C84	C	1.709282	-0.125572	0.279955
C85	C	1.209670	-0.711065	-0.219634
C86	C	1.709670	-0.211065	0.280366
C87	C	1.086962	-0.719510	-0.140107
C88	C	1.586962	-0.219510	0.359893
C89	C	1.086998	-0.633500	-0.138240
C90	C	1.586998	-0.133500	0.361760
C91	C	1.171384	-0.503558	-0.144368
C92	C	1.671384	-0.003558	0.355632
C93	C	1.171505	-0.819645	-0.144416
C94	C	1.671505	-0.319645	0.355584
C95	C	1.369471	-0.116872	-0.104420
C96	C	1.869471	0.383128	0.395580
C97	C	1.453881	-0.097648	-0.087394
C98	C	1.953881	0.402352	0.412606
C99	C	1.211452	-0.191851	-0.342443
C100	C	1.711452	0.308149	0.157557
C101	C	1.228525	-0.204579	-0.426848
C102	C	1.728525	0.295421	0.073152
C103	C	1.171485	0.031189	-0.144411
C104	C	1.671485	0.531189	0.355589
C105	C	1.171526	0.113508	-0.144427
C106	C	1.671526	0.613508	0.355573
C107	C	1.041982	-0.064952	-0.753490
C108	C	1.541982	0.435048	-0.253490
C109	C	1.058042	-0.076923	-0.832797
C110	C	1.558042	0.423077	-0.332797
C111	C	1.155120	-0.149521	-0.813169
C112	C	1.655120	0.350479	-0.313169
C113	C	1.139071	-0.137553	-0.733857
C114	C	1.639071	0.362447	-0.233857
C115	C	1.082501	-0.095269	-0.704024
C116	C	1.582501	0.404731	-0.204024
C117	C	1.179589	-0.167870	-0.684392
C118	C	1.679589	0.332130	-0.184392
C119	C	1.163538	-0.155906	-0.605088
C120	C	1.663538	0.344094	-0.105088
C121	C	1.106969	-0.113625	-0.575249
C122	C	1.606969	0.386375	-0.075249
C123	C	1.066450	-0.083305	-0.624720
C124	C	1.566450	0.416695	-0.124720
C125	C	1.236155	-0.210159	-0.714227
C126	C	1.736155	0.289841	-0.214227
C127	C	1.276673	-0.240475	-0.664762
C128	C	1.776673	0.259525	-0.164762
C129	C	1.260627	-0.228507	-0.585456
C130	C	1.760627	0.271493	-0.085456
C131	C	1.204057	-0.186226	-0.555617
C132	C	1.704057	0.313774	-0.055617
C133	C	1.301146	-0.258827	-0.535985
C134	C	1.801146	0.241173	-0.035985
C135	C	1.285095	-0.246863	-0.456681
C136	C	1.785095	0.253137	0.043319
C137	C	1.188007	-0.174262	-0.476313
C138	C	1.688007	0.325738	0.023687
C139	C	1.131524	-0.132171	0.052931
C140	C	1.631524	0.367829	0.552931
C141	C	1.114598	-0.119201	0.137365
C142	C	1.614598	0.380799	0.637365
H143	H	0.864505	-0.128518	-0.114766
H144	H	1.364505	0.371482	0.385234
F145	F	1.046017	-0.742372	-0.070343
F146	F	1.546017	-0.242372	0.429657
H147	H	0.805853	-0.074349	-0.066773
H148	H	1.305853	0.425651	0.433227
H149	H	0.716105	0.008578	0.006639
H150	H	1.216105	0.508578	0.506639
F151	F	1.006248	-0.038292	-0.592965
F152	F	1.506248	0.461708	-0.092965
F153	F	1.184852	-0.701452	0.000524
F154	F	1.684852	-0.201452	0.500524
H155	H	0.900104	-0.327167	-0.290659
H156	H	1.400104	0.172833	0.209341
H157	H	0.627437	-0.332379	-0.295255
H158	H	1.127437	0.167621	0.204745
H159	H	0.479038	-0.195288	-0.173854
H160	H	0.979038	0.304712	0.326146
H161	H	1.347199	-0.293262	-0.560288
H162	H	1.847199	0.206738	-0.060288
H163	H	1.025046	-0.052229	-0.873070
H164	H	1.525046	0.447771	-0.373070
H165	H	1.249223	-0.219896	-0.778802
H166	H	1.749223	0.280104	-0.278802
H167	H	1.058738	-0.608068	-0.082634
H168	H	1.558738	-0.108068	0.417366
H169	H	1.322730	-0.274906	-0.689064
H170	H	1.822730	0.225094	-0.189064
F171	F	0.431084	0.014768	0.012158
F172	F	0.931084	0.514768	0.512158
F173	F	1.184876	-0.561520	0.000117
F174	F	1.684876	-0.061520	0.500117
H175	H	1.093896	-0.103891	-0.510676
H176	H	1.593896	0.396109	-0.010676
F177	F	0.981781	-0.019939	-0.721734
F178	F	1.481781	0.480061	-0.221734
F179	F	0.517872	-0.254002	-0.225837
F180	F	1.017872	0.245998	0.274163
F181	F	1.037435	-0.627074	-0.202273
F182	F	1.537435	-0.127074	0.297727
H183	H	0.756214	-0.359989	-0.319708
H184	H	1.256214	0.140011	0.180292
F185	F	1.299023	-0.695306	-0.075671
F186	F	1.799023	-0.195306	0.424329
H187	H	0.587335	0.036184	0.031089
H188	H	1.087335	0.536184	0.531089
F189	F	1.299721	-0.554687	-0.075906
F190	F	1.799721	-0.054687	0.424094
F191	F	1.041295	-0.767446	-0.207621
F192	F	1.541295	-0.267446	0.292379
H193	H	1.201176	-0.183952	-0.837470
H194	H	1.701176	0.316048	-0.337470
H195	H	1.318099	-0.271538	-0.416402
H196	H	1.818099	0.228462	0.083598
H197	H	1.271923	-0.720226	-0.225155
H198	H	1.771923	-0.220226	0.274845
F199	F	1.168349	-0.759253	-0.289639
F200	F	1.668349	-0.259253	0.210361
F201	F	1.167166	-0.620165	-0.289789
F202	F	1.667166	-0.120165	0.210211
H203	H	1.141950	-0.139821	-0.452020
H204	H	1.641950	0.360179	0.047980
H205	H	1.270937	-0.593500	-0.225993
H206	H	1.770937	-0.093500	0.274007
