data_functionalizedCrystal
_audit_creation_method	'MofGen! by Chris Wilmer'
_symmetry_space_group_name_H-M	'P1'
_symmetry_Int_Tables_number	1
_symmetry_cell_setting	triclinic
loop_
_symmetry_equiv_pos_as_xyz
  x,y,z
_cell_length_a	17.019284
_cell_length_b	17.000383
_cell_length_c	7.540329
_cell_angle_alpha	89.993891
_cell_angle_beta	86.120991
_cell_angle_gamma	100.495298
loop_
_atom_site_label
_atom_site_type_symbol
_atom_site_fract_x
_atom_site_fract_y
_atom_site_fract_z
O1	O	-0.028436	1.056065	-0.143258
O2	O	-0.057066	0.824299	-0.138859
O3	O	0.072530	0.946652	-0.158667
O4	O	-0.158033	0.933712	-0.123451
O5	O	0.072531	0.946645	0.136298
O6	O	-0.057065	0.824292	0.156106
O7	O	-0.028435	1.056058	0.151707
Cu8	Cu	-0.042750	0.940174	0.180839
Cu9	Cu	-0.042751	0.940183	-0.167991
O10	O	-0.158032	0.933704	0.171514
C11	C	-0.058603	0.794640	0.008861
C12	C	-0.063175	0.706276	0.009569
C13	C	-0.092699	0.206025	0.014012
C14	C	-0.088397	0.289053	0.013357
C15	C	-0.013720	0.340135	0.001964
C16	C	0.056658	0.308186	-0.008791
C17	C	0.052355	0.225160	-0.008148
C18	C	0.002900	0.591301	-0.000543
C19	C	0.007198	0.674332	-0.001180
C20	C	-0.137858	0.655193	0.020964
C21	C	-0.142154	0.572166	0.021617
C22	C	-0.071776	0.540224	0.010852
C23	C	-0.009321	0.425003	0.001299
C24	C	-0.076176	0.455357	0.011505
C25	C	-0.187387	0.934197	0.028515
C26	C	-0.274856	0.935664	0.041874
C27	C	-0.315947	0.936358	-0.112637
C28	C	-0.398131	0.937747	-0.100085
C29	C	-0.439224	0.938436	0.066979
C30	C	-0.398127	0.937745	0.221501
C31	C	-0.315943	0.936362	0.208948
C32	C	-0.687365	0.942618	0.112927
C33	C	-0.769555	0.943998	0.125469
C34	C	-0.769552	0.944002	-0.196119
C35	C	-0.687368	0.942614	-0.208658
C36	C	-0.646277	0.941927	-0.054136
C37	C	-0.523230	0.939853	0.079813
C38	C	-0.562272	0.940516	-0.066972
C39	C	0.101886	0.946160	-0.015671
C40	C	0.189355	0.944692	-0.029042
C41	C	-0.026898	1.085717	0.003982
C42	C	-0.022326	1.174081	0.003263
N43	N	-0.042748	0.940174	0.426187
N44	N	-0.042746	0.940189	-0.413341
H45	H	-0.145702	0.315057	0.022093
F46	F	0.077804	0.557316	-0.012034
H47	H	-0.653919	0.942059	0.238750
F48	F	-0.441863	0.938483	0.399305
H49	H	-0.803017	0.944563	-0.321922
F50	F	-0.643639	0.941883	-0.386471
F51	F	0.127257	0.191163	-0.019589
H52	H	-0.282489	0.935796	0.334767
F53	F	-0.518535	0.939788	-0.244768
H54	H	0.051481	0.466604	-0.007970
F55	F	-0.155649	0.400990	0.023618
F56	F	-0.272221	0.935619	-0.290451
H57	H	-0.803015	0.944536	0.261521
H58	H	-0.556697	0.940413	0.215838
F59	F	0.086683	0.728698	-0.013308
H60	H	-0.195156	0.681209	0.029726
H61	H	-0.202964	0.530579	0.030889
H62	H	-0.153509	0.164438	0.023303
F63	F	-0.441858	0.938488	-0.264538
F64	F	0.136135	0.362554	-0.020922
