data_functionalizedCrystal
_audit_creation_method	'MofGen! by Chris Wilmer'
_symmetry_space_group_name_H-M	'P1'
_symmetry_Int_Tables_number	1
_symmetry_cell_setting	triclinic
loop_
_symmetry_equiv_pos_as_xyz
  x,y,z
_cell_length_a	21.295418
_cell_length_b	14.908520
_cell_length_c	21.295412
_cell_angle_alpha	86.728936
_cell_angle_beta	90.042690
_cell_angle_gamma	93.337612
loop_
_atom_site_label
_atom_site_type_symbol
_atom_site_fract_x
_atom_site_fract_y
_atom_site_fract_z
Zn1	Zn	0.947938	-0.358808	0.370690
Zn2	Zn	0.941783	-0.509675	0.271494
Zn3	Zn	0.842661	-0.358874	0.265402
Zn4	Zn	0.836571	-0.509669	0.376690
O5	O	0.892238	-0.434256	0.321069
O6	O	1.035212	-0.378795	0.357570
O7	O	0.928607	-0.489701	0.182598
O8	O	0.861750	-0.232618	0.274309
O9	O	1.030690	-0.489637	0.284691
O10	O	0.939097	-0.232569	0.351663
O11	O	0.855782	-0.378908	0.178122
O12	O	0.753762	-0.378902	0.280127
O13	O	0.851372	-0.489627	0.463982
O14	O	0.749289	-0.489691	0.361889
O15	O	0.933193	-0.378790	0.459574
O16	O	0.922702	-0.635922	0.290509
O17	O	0.845404	-0.635917	0.367796
C18	C	0.882741	-0.668654	0.330478
C19	C	0.878736	-0.768930	0.334524
C20	C	0.728685	-0.434304	0.320999
C21	C	0.658715	-0.434346	0.320984
C22	C	0.951784	-0.957303	0.261714
C23	C	0.948022	-1.051522	0.265513
C24	C	0.867456	-1.051587	0.345927
C25	C	0.871217	-0.957369	0.342127
C26	C	0.913382	-0.910230	0.300018
C27	C	0.917139	-0.816010	0.296216
C28	C	0.836577	-0.816077	0.376632
C29	C	0.832816	-0.910296	0.380431
C30	C	0.623532	-0.492110	0.363501
C31	C	0.557791	-0.492088	0.363528
C32	C	0.527234	-0.434311	0.321028
C33	C	0.562425	-0.376536	0.278508
C34	C	0.628165	-0.376553	0.278486
N35	N	0.424242	-0.427262	0.265686
N36	N	0.361791	-0.427251	0.265709
C37	C	0.329161	-0.434253	0.321093
N38	N	0.361341	-0.441286	0.376454
N39	N	0.423798	-0.441302	0.376431
C40	C	0.455949	-0.434285	0.321047
C41	C	0.222694	-0.491997	0.363642
C42	C	0.156952	-0.491968	0.363671
C43	C	0.161587	-0.376420	0.278645
C44	C	0.227328	-0.376444	0.278622
C45	C	0.257878	-0.434237	0.321120
C46	C	1.056430	-0.434209	0.321140
C47	C	1.126399	-0.434189	0.321171
C48	C	0.892290	-0.434200	0.485257
C49	C	0.892312	-0.434176	0.555224
C50	C	0.901789	-0.198944	0.311637
C51	C	0.905860	-0.098667	0.307618
C52	C	0.892226	-0.434247	0.157517
C53	C	0.892336	-0.434017	0.087540
C54	C	0.854403	-0.376480	0.585751
C55	C	0.854401	-0.376463	0.651492
C56	C	0.892320	-0.434133	0.686705
C57	C	0.930231	-0.491841	0.656172
C58	C	0.930227	-0.491863	0.590431
N59	N	0.947149	-0.441002	0.790239
N60	N	0.947151	-0.440976	0.852689
C61	C	0.892334	-0.434073	0.884778
N62	N	0.837514	-0.427180	0.852056
N63	N	0.837513	-0.427201	0.789599
C64	C	0.892329	-0.434117	0.757990
C65	C	0.854420	-0.376355	0.986589
C66	C	0.854417	-0.376345	1.052332
C67	C	0.930254	-0.491718	1.057010
C68	C	0.930251	-0.491734	0.991268
C69	C	0.892335	-0.434047	0.956061
H70	H	0.951470	-0.777631	0.261927
H71	H	0.986111	-0.918922	0.227423
H72	H	0.529139	-0.539126	0.398153
Cl73	Cl	0.271560	-0.303824	0.225168
H74	H	0.823547	-0.329385	0.957922
Cl75	Cl	0.806734	-0.303965	0.541494
Cl76	Cl	0.261102	-0.564643	0.417071
Cl77	Cl	0.806755	-0.303905	0.689876
H78	H	0.979294	-1.089845	0.234323
H79	H	0.961105	-0.538797	0.684846
H80	H	0.833132	-1.089984	0.380213
Cl81	Cl	0.788289	-0.756894	0.424780
H82	H	0.798488	-0.948689	0.414717
Cl83	Cl	0.661934	-0.564760	0.416930
Cl84	Cl	0.977915	-0.564265	0.952889
H85	H	0.961100	-0.538845	0.565577
Cl86	Cl	0.524012	-0.303897	0.225082
Cl87	Cl	0.123179	-0.303780	0.225219
H88	H	0.823543	-0.329364	1.077185
Cl89	Cl	0.977919	-0.564225	1.101271
Cl90	Cl	0.672397	-0.303929	0.225032
Cl91	Cl	0.112721	-0.564588	0.417129
