data_functionalizedCrystal
_audit_creation_method	'MofGen! by Chris Wilmer'
_symmetry_space_group_name_H-M	'P1'
_symmetry_Int_Tables_number	1
_symmetry_cell_setting	triclinic
loop_
_symmetry_equiv_pos_as_xyz
  x,y,z
_cell_length_a	11.169417
_cell_length_b	13.031981
_cell_length_c	11.169409
_cell_angle_alpha	82.780373
_cell_angle_beta	89.979436
_cell_angle_gamma	97.192872
loop_
_atom_site_label
_atom_site_type_symbol
_atom_site_fract_x
_atom_site_fract_y
_atom_site_fract_z
Zn1	Zn	1.774268	-0.416012	-0.617790
Zn2	Zn	2.274268	0.083988	-0.117790
Zn3	Zn	1.748645	-0.590836	-0.391577
Zn4	Zn	2.248645	-0.090836	0.108423
Zn5	Zn	1.573542	-0.416075	-0.417115
Zn6	Zn	2.073542	0.083925	0.082885
Zn7	Zn	1.548064	-0.590751	-0.592234
Zn8	Zn	2.048064	-0.090751	-0.092234
O9	O	1.661130	-0.503418	-0.504679
O10	O	2.161130	-0.003418	-0.004679
O11	O	1.938817	-0.439211	-0.587790
O12	O	2.438817	0.060789	-0.087790
O13	O	1.725357	-0.567715	-0.227006
O14	O	2.225357	-0.067715	0.272994
O15	O	1.621555	-0.269800	-0.465119
O16	O	2.121555	0.230200	0.034881
O17	O	1.919992	-0.567654	-0.421592
O18	O	2.419992	-0.067654	0.078408
O19	O	1.769027	-0.269753	-0.612554
O20	O	2.269027	0.230247	-0.112554
O21	O	1.596709	-0.439320	-0.245769
O22	O	2.096709	0.060680	0.254231
O23	O	1.402214	-0.439237	-0.440338
O24	O	1.902214	0.060763	0.059662
O25	O	1.578131	-0.567509	-0.763583
O26	O	2.078131	-0.067509	-0.263583
O27	O	1.383495	-0.567571	-0.568997
O28	O	1.883495	-0.067571	-0.068997
O29	O	1.744322	-0.439129	-0.782359
O30	O	2.244322	0.060871	-0.282359
O31	O	1.700652	-0.737091	-0.396811
O32	O	2.200652	-0.237091	0.103189
O33	O	1.553286	-0.737029	-0.544233
O34	O	2.053286	-0.237029	-0.044233
C35	C	1.349307	-0.503402	-0.504666
C36	C	1.849307	-0.003402	-0.004666
C37	C	1.215905	-0.503421	-0.504685
C38	C	1.715905	-0.003421	-0.004685
C39	C	1.621456	-0.774985	-0.465004
C40	C	2.121456	-0.274985	0.034996
C41	C	1.604593	-0.891163	-0.448070
C42	C	2.104593	-0.391163	0.051930
C43	C	1.669994	-0.942852	-0.513541
C44	C	2.169994	-0.442852	-0.013541
C45	C	1.652567	-1.062927	-0.496041
C46	C	2.152567	-0.562927	0.003959
C47	C	1.974170	-0.503435	-0.504693
C48	C	2.474170	-0.003435	-0.004693
C49	C	2.107569	-0.503442	-0.504699
C50	C	2.607569	-0.003442	-0.004699
C51	C	1.661243	-0.503303	-0.817739
C52	C	2.161243	-0.003303	-0.317739
C53	C	1.661291	-0.503253	-0.951146
C54	C	2.161291	-0.003253	-0.451146
C55	C	1.700991	-0.230791	-0.544536
C56	C	2.200991	0.269209	-0.044536
C57	C	1.717978	-0.114614	-0.561520
C58	C	2.217978	0.385386	-0.061520
C59	C	1.661097	-0.503458	-0.192849
C60	C	2.161097	-0.003458	0.307151
C61	C	1.661324	-0.503213	-0.059485
C62	C	2.161324	-0.003213	0.440515
H63	H	1.738884	-0.898212	-0.582553
H64	H	2.238884	-0.398212	-0.082553
H65	H	1.786872	-1.069976	-0.630537
H66	H	2.286872	-0.569976	-0.130537
O67	O	1.570292	-1.116285	-0.413860
O68	O	2.070292	-0.616285	0.086140
C69	C	1.483621	-1.179421	-0.472991
C70	C	1.983621	-0.679421	0.027009
H71	H	1.523578	-1.195572	-0.561644
H72	H	2.023578	-0.695572	-0.061644
H73	H	1.400720	-1.137467	-0.492172
H74	H	1.900720	-0.637467	0.007828
C75	C	1.397882	-1.263408	-0.283032
C76	C	1.897882	-0.763408	0.216968
C77	C	1.446961	-1.283251	-0.391913
C78	C	1.946961	-0.783251	0.108087
H79	H	1.375263	-1.327453	-0.233018
H80	H	1.875263	-0.827453	0.266982
H81	H	1.456270	-1.220869	-0.243194
H82	H	1.956270	-0.720869	0.256806
H83	H	1.328804	-1.228443	-0.299032
H84	H	1.828804	-0.728443	0.200968
H85	H	1.516046	-1.318203	-0.375913
H86	H	2.016046	-0.818203	0.124087
H87	H	1.388583	-1.325799	-0.431747
H88	H	1.888583	-0.825799	0.068253
O89	O	1.522322	-0.944524	-0.365895
O90	O	2.022322	-0.444524	0.134105
C91	C	1.435652	-1.007661	-0.425026
C92	C	1.935652	-0.507661	0.074974
H93	H	1.475608	-1.023811	-0.513679
H94	H	1.975608	-0.523811	-0.013679
H95	H	1.352751	-0.965707	-0.444206
H96	H	1.852751	-0.465707	0.055794
C97	C	1.349913	-1.091647	-0.235067
C98	C	1.849913	-0.591647	0.264933
C99	C	1.398992	-1.111491	-0.343947
C100	C	1.898992	-0.611491	0.156053
H101	H	1.327294	-1.155693	-0.185053
H102	H	1.827294	-0.655693	0.314947
H103	H	1.408301	-1.049108	-0.195228
H104	H	1.908301	-0.549108	0.304772
H105	H	1.280835	-1.056683	-0.251067
H106	H	1.780835	-0.556683	0.248933
H107	H	1.468077	-1.146442	-0.327947
H108	H	1.968077	-0.646442	0.172053
H109	H	1.340614	-1.154038	-0.383781
H110	H	1.840614	-0.654038	0.116219
