data_functionalizedCrystal
_audit_creation_method	'MofGen! by Chris Wilmer'
_symmetry_space_group_name_H-M	'P1'
_symmetry_Int_Tables_number	1
_symmetry_cell_setting	triclinic
loop_
_symmetry_equiv_pos_as_xyz
  x,y,z
_cell_length_a	11.169417
_cell_length_b	11.169416
_cell_length_c	12.759401
_cell_angle_alpha	90.005089
_cell_angle_beta	90.000661
_cell_angle_gamma	90.011398
loop_
_atom_site_label
_atom_site_type_symbol
_atom_site_fract_x
_atom_site_fract_y
_atom_site_fract_z
Zn1	Zn	1.834741	-0.477981	0.593985
Zn2	Zn	1.834697	-0.678630	0.418313
Zn3	Zn	1.634093	-0.477964	0.418326
Zn4	Zn	1.634035	-0.678625	0.593956
O5	O	1.734391	-0.578300	0.506145
O6	O	2.002684	-0.504607	0.570689
O7	O	1.808092	-0.652005	0.271294
O8	O	1.660752	-0.310016	0.441646
O9	O	2.002652	-0.652022	0.441623
O10	O	1.808167	-0.310029	0.570702
O11	O	1.660709	-0.504577	0.271304
O12	O	1.466135	-0.504573	0.441617
O13	O	1.660653	-0.652015	0.740981
O14	O	1.466093	-0.651998	0.570652
O15	O	1.808111	-0.504603	0.741003
O16	O	1.808036	-0.846579	0.441595
O17	O	1.660610	-0.846576	0.570639
C18	C	1.422566	-0.578284	0.506133
C19	C	1.289166	-0.578306	0.506153
C20	C	1.734345	-0.890125	0.506135
C21	C	1.734434	-1.023525	0.506166
C22	C	2.047433	-0.578317	0.506158
C23	C	2.180833	-0.578324	0.506163
C24	C	1.734380	-0.578310	0.780179
C25	C	1.734376	-0.578315	0.896955
C26	C	1.734470	-0.265258	0.506179
C27	C	1.734504	-0.131858	0.506193
C28	C	1.811123	-0.655074	1.061533
C29	C	1.811113	-0.655074	0.951809
C30	C	1.657635	-0.501558	0.951831
C31	C	1.657639	-0.501564	1.061553
C32	C	1.899736	-0.743701	1.061519
C33	C	1.899726	-0.743702	0.951795
C34	C	1.734391	-0.578319	1.233178
C35	C	1.734390	-0.578320	1.116401
H36	H	1.595144	-0.439077	1.106223
Cl37	Cl	2.036081	-0.692337	1.114075
H38	H	1.595147	-0.439066	0.907161
Cl39	Cl	1.861272	-0.887211	1.107483
Cl40	Cl	2.043239	-0.705267	0.905811
H41	H	1.866437	-0.832011	0.917756
