data_functionalizedCrystal
_audit_creation_method	'MofGen! by Chris Wilmer'
_symmetry_space_group_name_H-M	'P1'
_symmetry_Int_Tables_number	1
_symmetry_cell_setting	triclinic
loop_
_symmetry_equiv_pos_as_xyz
  x,y,z
_cell_length_a	8.559649
_cell_length_b	19.188924
_cell_length_c	7.681481
_cell_angle_alpha	84.275467
_cell_angle_beta	94.913240
_cell_angle_gamma	76.460314
loop_
_atom_site_label
_atom_site_type_symbol
_atom_site_fract_x
_atom_site_fract_y
_atom_site_fract_z
O1	O	2.105138	-0.016273	-0.146399
O2	O	2.605138	0.483727	0.353601
O3	O	1.639678	0.019799	-0.146412
O4	O	2.139678	0.519799	0.353588
O5	O	1.885848	-0.100597	-0.146384
O6	O	2.385848	0.399403	0.353616
O7	O	1.858968	0.104122	-0.146426
O8	O	2.358968	0.604122	0.353574
O9	O	1.916148	-0.115446	0.146477
O10	O	2.416148	0.384554	0.646477
O11	O	1.669978	0.004950	0.146449
O12	O	2.169978	0.504950	0.646449
O13	O	2.135437	-0.031122	0.146463
O14	O	2.635437	0.468878	0.646463
Zn15	Zn	1.907519	-0.015443	0.192954
Zn16	Zn	2.407519	0.484557	0.692954
Zn17	Zn	1.867597	0.004120	-0.192903
Zn18	Zn	2.367597	0.504120	0.307097
O19	O	1.889268	0.089274	0.146435
O20	O	2.389268	0.589274	0.646435
C21	C	1.595279	0.015108	0.000017
C22	C	2.095279	0.515108	0.500017
C23	C	1.417841	0.023245	0.000013
C24	C	1.917841	0.523245	0.500013
C25	C	1.900130	-0.133987	0.000048
C26	C	2.400130	0.366013	0.500048
C27	C	1.897523	-0.211356	0.000053
C28	C	2.397523	0.288644	0.500053
C29	C	1.879790	-0.239597	-0.159586
C30	C	2.379790	0.260403	0.340414
C31	C	1.877316	-0.312290	-0.159600
C32	C	2.377316	0.187710	0.340400
C33	C	1.892609	-0.356743	0.000035
C34	C	2.392609	0.143257	0.500035
C35	C	1.910335	-0.328493	0.159695
C36	C	2.410335	0.171507	0.659695
C37	C	1.912792	-0.255799	0.159704
C38	C	2.412792	0.244201	0.659704
N39	N	1.992007	-0.486984	0.118850
N40	N	2.492007	0.013016	0.618850
N41	N	1.989675	-0.556040	0.118830
N42	N	2.489675	-0.056040	0.618830
C43	C	1.885203	-0.575764	0.000018
C44	C	2.385203	-0.075764	0.500018
N45	N	1.783168	-0.523824	-0.118802
N46	N	2.283168	-0.023824	0.381198
N47	N	1.785507	-0.454763	-0.118788
N48	N	2.285507	0.045237	0.381212
C49	C	1.889945	-0.435567	0.000043
C50	C	2.389945	0.064433	0.500043
C51	C	1.864784	-0.682826	-0.159647
C52	C	2.364784	-0.182826	0.340353
C53	C	1.862301	-0.755519	-0.159654
C54	C	2.362301	-0.255519	0.340346
C55	C	1.895337	-0.771723	0.159646
C56	C	2.395337	-0.271723	0.659646
C57	C	1.897803	-0.699029	0.159648
C58	C	2.397803	-0.199029	0.659648
C59	C	1.882534	-0.654585	-0.000003
C60	C	2.382534	-0.154585	0.499997
C61	C	2.179837	-0.026431	0.000030
C62	C	2.679837	0.473569	0.500030
C63	C	2.357273	-0.034568	0.000022
C64	C	2.857273	0.465432	0.500022
C65	C	1.874986	0.122664	-0.000001
C66	C	2.374986	0.622664	0.499999
C67	C	1.877591	0.200033	-0.000017
C68	C	2.377591	0.700033	0.499983
N69	N	1.934775	-0.028796	0.456291
N70	N	2.434775	0.471204	0.956291
N71	N	1.840353	0.017467	-0.456241
N72	N	2.340353	0.517467	0.043759
H73	H	1.441163	-0.090289	0.000025
H74	H	1.941163	0.409711	0.500025
O75	O	1.712650	0.080006	0.444136
O76	O	2.212650	0.580006	0.944136
H77	H	1.771163	0.114534	0.360098
H78	H	2.271163	0.614534	0.860098
O79	O	1.863281	-0.191661	-0.331781
O80	O	2.363281	0.308339	0.168219
H81	H	1.963800	-0.213795	-0.408345
H82	H	2.463800	0.286205	0.091655
O83	O	1.848288	-0.634885	-0.331838
O84	O	2.348288	-0.134885	0.168162
H85	H	1.852997	-0.579594	-0.305014
H86	H	2.352997	-0.079594	0.194986
O87	O	1.306729	0.097063	0.000010
O88	O	1.806729	0.597063	0.500010
H89	H	1.180123	0.092088	0.000024
H90	H	1.680123	0.592088	0.500024
O91	O	2.062469	-0.091345	0.555922
O92	O	2.562469	0.408655	1.055922
H93	H	2.183426	-0.087392	0.520622
H94	H	2.683426	0.412608	1.020622
H95	H	1.907776	-0.807914	0.289623
H96	H	2.407776	-0.307914	0.789623
H97	H	1.862865	-0.335287	-0.289601
H98	H	2.362865	0.164713	0.210399
H99	H	1.927227	-0.232806	0.289705
H100	H	2.427227	0.267194	0.789705
O101	O	1.926859	-0.376435	0.331879
O102	O	2.426859	0.123565	0.831879
H103	H	1.922198	-0.431732	0.305055
H104	H	2.422198	0.068268	0.805055
H105	H	1.847852	-0.778510	-0.289656
H106	H	2.347852	-0.278510	0.210344
H107	H	1.912257	-0.676037	0.289644
H108	H	2.412257	-0.176037	0.789644
