data_functionalizedCrystal
_audit_creation_method	'MofGen! by Chris Wilmer'
_symmetry_space_group_name_H-M	'P1'
_symmetry_Int_Tables_number	1
_symmetry_cell_setting	triclinic
loop_
_symmetry_equiv_pos_as_xyz
  x,y,z
_cell_length_a	17.038272
_cell_length_b	10.654550
_cell_length_c	9.730223
_cell_angle_alpha	90.003749
_cell_angle_beta	89.998176
_cell_angle_gamma	92.201771
loop_
_atom_site_label
_atom_site_type_symbol
_atom_site_fract_x
_atom_site_fract_y
_atom_site_fract_z
O1	O	0.109875	-1.678036	-0.114405
O2	O	0.120343	-1.313530	-0.114384
O3	O	0.001281	-1.493617	-0.114383
O4	O	0.228936	-1.497950	-0.114406
O5	O	0.001284	-1.493615	0.114196
O6	O	0.120346	-1.313528	0.114196
O7	O	0.109878	-1.678034	0.114175
Zn8	Zn	0.115112	-1.495781	0.150477
Zn9	Zn	0.115108	-1.495783	-0.150686
O10	O	0.228939	-1.497948	0.114174
C11	C	0.119576	-1.266660	-0.000091
C12	C	0.117276	-1.127003	-0.000082
C13	C	-0.027867	-1.489675	-0.000093
C14	C	-0.114726	-1.477918	-0.000093
C15	C	0.110645	-1.724905	-0.000121
C16	C	0.112944	-1.864562	-0.000139
C17	C	-0.164237	-1.585862	-0.000098
C18	C	-0.245850	-1.574808	-0.000111
C19	C	-0.277949	-1.455808	-0.000108
C20	C	-0.228431	-1.347856	-0.000107
C21	C	-0.146821	-1.358911	-0.000105
C22	C	-0.523925	-1.416750	-0.000125
C23	C	-0.605542	-1.405702	-0.000123
C24	C	-0.622955	-1.632656	-0.000129
C25	C	-0.541342	-1.643701	-0.000118
C26	C	-0.491831	-1.535749	-0.000124
C27	C	-0.361370	-1.444505	-0.000116
C28	C	-0.408412	-1.547052	-0.000126
C29	C	0.258088	-1.501889	-0.000119
C30	C	0.344947	-1.513646	-0.000128
N31	N	0.115115	-1.495788	0.356014
C32	C	0.187378	-1.054026	-0.000109
C33	C	0.185212	-0.922804	-0.000132
C34	C	0.042837	-0.937548	-0.000108
C35	C	0.045004	-1.068767	-0.000075
C36	C	0.259650	-1.112262	-0.000116
C37	C	0.329758	-1.039285	-0.000145
C38	C	0.327592	-0.908063	-0.000168
C39	C	0.255319	-0.849818	-0.000163
N40	N	0.115100	-1.495785	-0.356223
C41	C	0.062412	-1.575554	0.427940
C42	C	0.062402	-1.575550	0.571823
C43	C	0.167805	-1.416010	0.571841
C44	C	0.167810	-1.416009	0.427961
C45	C	0.009717	-1.655334	0.355993
C46	C	-0.042990	-1.735107	0.427919
C47	C	-0.042999	-1.735103	0.571802
C48	C	0.009697	-1.655325	0.643759
H49	H	-0.286159	-1.662708	-0.000112
H50	H	0.009721	-1.655347	0.238836
H51	H	-0.016004	-0.890114	-0.000127
H52	H	0.253562	-0.742968	-0.000161
C53	C	0.302806	-1.356665	0.616147
C54	C	0.225731	-1.328326	0.650927
H55	H	0.338567	-1.302526	0.664964
H56	H	0.311783	-1.441421	0.639728
H57	H	0.310341	-1.345245	0.520160
H58	H	0.218194	-1.339755	0.746913
H59	H	0.216750	-1.243550	0.627355
C60	C	-0.149327	-1.751013	0.733585
C61	C	-0.100936	-1.822781	0.650864
H62	H	-0.185096	-1.805149	0.782385
H63	H	-0.117946	-1.703519	0.797024
H64	H	-0.177766	-1.695713	0.677440
H65	H	-0.072492	-1.878075	0.707011
H66	H	-0.132320	-1.870296	0.587418
H67	H	-0.012079	-1.128187	-0.000056
C68	C	-0.089822	-1.805880	0.207351
C69	C	-0.100945	-1.822738	0.348830
H70	H	-0.125610	-1.859970	0.158531
H71	H	-0.098773	-1.721106	0.183812
H72	H	-0.037540	-1.825151	0.183762
H73	H	-0.153226	-1.803457	0.372422
H74	H	-0.092000	-1.907531	0.372379
H75	H	-0.515213	-1.740603	-0.000120
C76	C	0.067068	-1.568451	0.849882
C77	C	0.009685	-1.655312	0.801919
H78	H	0.067057	-1.568443	0.947520
H79	H	0.117164	-1.590992	0.817345
H80	H	0.055892	-1.487005	0.817323
H81	H	0.020865	-1.736761	0.834469
H82	H	-0.040422	-1.632778	0.834470
H83	H	0.210725	-1.351055	0.369398
H84	H	0.388600	-1.086717	-0.000137
C85	C	-0.189655	-1.809082	-0.000128
C86	C	-0.128958	-1.716672	-0.000110
H87	H	-0.167874	-1.889839	-0.000150
H88	H	-0.221122	-1.800054	0.079579
H89	H	-0.221123	-1.800033	-0.079843
H90	H	-0.097493	-1.725715	0.079610
H91	H	-0.097477	-1.725704	-0.079826
H92	H	0.384677	-0.848648	-0.000177
H93	H	-0.631674	-1.308794	-0.000099
C94	C	-0.514923	-1.191310	-0.000087
C95	C	-0.469510	-1.298089	-0.000105
H96	H	-0.481325	-1.118052	-0.000062
H97	H	-0.547110	-1.191715	-0.079796
H98	H	-0.547123	-1.191738	0.079627
H99	H	-0.437314	-1.297666	-0.079824
H100	H	-0.437309	-1.297684	0.079612
H101	H	0.261422	-1.219109	-0.000103
C102	C	-0.238718	-1.151019	-0.117617
C103	C	-0.263716	-1.217049	-0.000112
H104	H	-0.260505	-1.070267	-0.117619
H105	H	-0.183034	-1.142153	-0.117606
H106	H	-0.255674	-1.195850	-0.197318
H107	H	-0.246755	-1.172222	0.079590
H108	H	-0.319411	-1.225910	-0.000110
H109	H	-0.663275	-1.720544	-0.000126
H110	H	-0.382273	-1.643941	-0.000158
C111	C	-0.044935	-1.239680	0.117402
C112	C	-0.092393	-1.240257	-0.000097
H113	H	-0.011332	-1.166429	0.117394
H114	H	-0.077135	-1.240074	0.197099
H115	H	-0.014144	-1.312141	0.117385
H116	H	-0.123189	-1.167801	-0.000076
H117	H	-0.060189	-1.239852	-0.079815
H118	H	-0.387514	-1.347615	-0.000111
