data_functionalizedCrystal
_audit_creation_method	'MofGen! by Chris Wilmer'
_symmetry_space_group_name_H-M	'P1'
_symmetry_Int_Tables_number	1
_symmetry_cell_setting	triclinic
loop_
_symmetry_equiv_pos_as_xyz
  x,y,z
_cell_length_a	17.077404
_cell_length_b	17.077402
_cell_length_c	17.077396
_cell_angle_alpha	90.029784
_cell_angle_beta	90.019501
_cell_angle_gamma	90.023108
loop_
_atom_site_label
_atom_site_type_symbol
_atom_site_fract_x
_atom_site_fract_y
_atom_site_fract_z
Zn1	Zn	1.200055	-0.312503	0.443836
Zn2	Zn	1.700055	0.187497	0.943836
Zn3	Zn	1.199962	-0.443778	0.312567
Zn4	Zn	1.699962	0.056222	0.812567
Zn5	Zn	1.068786	-0.312531	0.312584
Zn6	Zn	1.568786	0.187469	0.812584
Zn7	Zn	1.068754	-0.443732	0.443790
Zn8	Zn	1.568754	0.056268	0.943790
O9	O	1.134389	-0.378136	0.378194
O10	O	1.634389	0.121864	0.878194
O11	O	1.309889	-0.329925	0.426434
O12	O	1.809889	0.170075	0.926434
O13	O	1.182536	-0.426399	0.202722
O14	O	1.682536	0.073601	0.702722
O15	O	1.086252	-0.202680	0.330021
O16	O	1.586252	0.297320	0.830021
O17	O	1.309821	-0.426372	0.329992
O18	O	1.809821	0.073628	0.829992
O19	O	1.182694	-0.202660	0.426451
O20	O	1.682694	0.297340	0.926451
O21	O	1.086162	-0.329972	0.202734
O22	O	1.586162	0.170028	0.702734
O23	O	0.958935	-0.329927	0.329976
O24	O	1.458935	0.170073	0.829976
O25	O	1.086197	-0.426293	0.553643
O26	O	1.586197	0.073707	1.053643
O27	O	0.958912	-0.426320	0.426373
O28	O	1.458912	0.073680	0.926373
O29	O	1.182663	-0.329880	0.553677
O30	O	1.682663	0.170120	1.053677
O31	O	1.182505	-0.553619	0.329948
O32	O	1.682505	-0.053619	0.829948
O33	O	1.086107	-0.553585	0.426357
O34	O	1.586107	-0.053585	0.926357
C35	C	0.930441	-0.378122	0.378172
C36	C	1.430441	0.121878	0.878172
C37	C	0.843192	-0.378135	0.378182
C38	C	1.343192	0.121865	0.878182
C39	C	0.802210	-0.428402	0.428295
C40	C	1.302210	0.071598	0.928295
C41	C	0.720229	-0.428404	0.428308
C42	C	1.220229	0.071596	0.928308
C43	C	0.679232	-0.378141	0.378202
C44	C	1.179232	0.121859	0.878202
C45	C	0.720220	-0.327869	0.328087
C46	C	1.220220	0.172131	0.828087
C47	C	0.802199	-0.327863	0.328079
C48	C	1.302199	0.172137	0.828079
C49	C	0.549350	-0.327884	0.328106
C50	C	1.049350	0.172116	0.828106
C51	C	0.467365	-0.327890	0.328112
C52	C	0.967365	0.172110	0.828112
C53	C	0.467380	-0.428424	0.428335
C54	C	0.967380	0.071576	0.928335
C55	C	0.549359	-0.428419	0.428327
C56	C	1.049359	0.071581	0.928327
C57	C	0.590341	-0.378147	0.378210
C58	C	1.090341	0.121853	0.878210
C59	C	1.134314	-0.582084	0.378163
C60	C	1.634314	-0.082084	0.878163
C61	C	1.134353	-0.669334	0.378176
C62	C	1.634353	-0.169334	0.878176
C63	C	1.184598	-0.710316	0.328029
C64	C	1.684598	-0.210316	0.828029
C65	C	1.184637	-0.792296	0.328049
C66	C	1.684637	-0.292296	0.828049
C67	C	1.134425	-0.833293	0.378212
C68	C	1.634425	-0.333293	0.878212
C69	C	1.084178	-0.792305	0.428364
C70	C	1.584178	-0.292305	0.928364
C71	C	1.084144	-0.710327	0.428348
C72	C	1.584144	-0.210327	0.928348
C73	C	1.084250	-0.963175	0.428394
C74	C	1.584250	-0.463175	0.928394
C75	C	1.084283	-1.045160	0.428410
C76	C	1.584283	-0.545160	0.928410
C77	C	1.184743	-1.045145	0.328096
C78	C	1.684743	-0.545145	0.828096
C79	C	1.184709	-0.963166	0.328079
C80	C	1.684709	-0.463166	0.828079
C81	C	1.134461	-0.922184	0.378230
C82	C	1.634461	-0.422184	0.878230
C83	C	1.339134	-0.378151	0.378216
C84	C	1.839134	0.121849	0.878216
C85	C	1.426383	-0.378157	0.378226
C86	C	1.926383	0.121843	0.878226
C87	C	1.134437	-0.378078	0.582938
C88	C	1.634437	0.121922	1.082938
C89	C	1.134457	-0.378054	0.670188
C90	C	1.634457	0.121946	1.170188
C91	C	1.134487	-0.173392	0.378243
C92	C	1.634487	0.326608	0.878243
C93	C	1.134528	-0.086142	0.378263
C94	C	1.634528	0.413858	0.878263
C95	C	1.134387	-0.378137	0.174246
C96	C	1.634387	0.121863	0.674246
C97	C	1.134519	-0.377941	0.086997
C98	C	1.634519	0.122059	0.586997
C99	C	1.184689	-0.327847	0.711197
C100	C	1.684689	0.172153	1.211197
C101	C	1.184698	-0.327821	0.793178
C102	C	1.684698	0.172179	1.293178
C103	C	1.134479	-0.378006	0.834148
C104	C	1.634479	0.121994	1.334148
C105	C	1.084242	-0.428214	0.793133
C106	C	1.584242	0.071786	1.293133
C107	C	1.084229	-0.428236	0.711154
C108	C	1.584229	0.071764	1.211154
C109	C	1.084274	-0.428167	0.964003
C110	C	1.584274	0.071833	1.464003
C111	C	1.084288	-0.428147	1.045988
C112	C	1.584288	0.071853	1.545988
C113	C	1.184742	-0.327752	1.046027
C114	C	1.684742	0.172248	1.546027
C115	C	1.184730	-0.327774	0.964048
C116	C	1.684730	0.172226	1.464048
C117	C	1.134493	-0.377984	0.923039
C118	C	1.634493	0.122016	1.423039
H119	H	0.686834	-0.286941	0.287293
H120	H	1.186834	0.213059	0.787293
N121	N	1.030125	-0.482273	1.090180
N122	N	1.530125	0.017727	1.590180
H123	H	0.998295	-0.514080	1.051764
H124	H	1.498295	-0.014080	1.551764
H125	H	0.993825	-0.450304	1.124198
H126	H	1.493825	0.049696	1.624198
H127	H	1.225551	-0.825660	0.287214
H128	H	1.725551	-0.325660	0.787214
N129	N	0.846397	-0.273646	0.274023
N130	N	1.346397	0.226354	0.774023
H131	H	0.880385	-0.305495	0.237585
H132	H	1.380385	0.194505	0.737585
H133	H	0.880389	-0.237316	0.306041
H134	H	1.380389	0.262684	0.806041
N135	N	0.423144	-0.273680	0.274072
N136	N	0.923144	0.226320	0.774072
H137	H	0.461544	-0.241827	0.242326
H138	H	0.961544	0.258173	0.742326
H139	H	0.389154	-0.237402	0.306099
H140	H	0.889154	0.262598	0.806099
H141	H	1.225645	-0.286868	1.079420
H142	H	1.725645	0.213132	1.579420
N143	N	1.238753	-0.666100	0.273921
N144	N	1.738753	-0.166100	0.773921
H145	H	1.270590	-0.704505	0.242159
H146	H	1.770590	-0.204505	0.742159
H147	H	1.275047	-0.632034	0.305902
H148	H	1.775047	-0.132034	0.805902
N149	N	0.593572	-0.482632	0.482371
N150	N	1.093572	0.017368	0.982371
H151	H	0.627612	-0.450773	0.518800
H152	H	1.127612	0.049227	1.018800
H153	H	0.627514	-0.518956	0.450347
H154	H	1.127514	-0.018956	0.950347
N155	N	0.423185	-0.482649	0.482389
N156	N	0.923185	0.017351	0.982389
H157	H	0.365030	-0.475025	0.474795
H158	H	0.865030	0.024975	0.974795
H159	H	0.437545	-0.470507	0.538471
H160	H	0.937545	0.029493	1.038471
H161	H	1.043411	-1.078538	0.469272
H162	H	1.543411	-0.578538	0.969272
N163	N	1.238866	-0.918945	0.273978
N164	N	1.738866	-0.418945	0.773978
H165	H	1.270707	-0.957345	0.242213
H166	H	1.770707	-0.457345	0.742213
H167	H	1.275156	-0.884882	0.305965
H168	H	1.775156	-0.384882	0.805965
N169	N	1.030088	-0.482317	0.919770
N170	N	1.530088	0.017683	1.419770
H171	H	0.998278	-0.514108	0.958162
H172	H	1.498278	-0.014108	1.458162
H173	H	1.062019	-0.518654	0.885752
H174	H	1.562019	-0.018654	1.385752
H175	H	1.225660	-1.078516	0.287263
H176	H	1.725660	-0.578516	0.787263
N177	N	1.029943	-0.666129	0.482432
N178	N	1.529943	-0.166129	0.982432
H179	H	0.993571	-0.632167	0.450492
H180	H	1.493571	-0.132167	0.950492
H181	H	1.061862	-0.632109	0.518824
H182	H	1.561862	-0.132109	1.018824
N183	N	1.238859	-0.273724	0.667010
N184	N	1.738859	0.226276	1.167010
H185	H	1.270680	-0.241914	0.705432
H186	H	1.770680	0.258086	1.205432
H187	H	1.206919	-0.237403	0.632999
H188	H	1.706919	0.262597	1.132999
H189	H	0.582715	-0.286940	0.287302
H190	H	1.082715	0.213060	0.787302
N191	N	1.030081	-0.482336	0.837332
N192	N	1.530081	0.017664	1.337332
H193	H	1.042238	-0.538429	0.823057
H194	H	1.542238	-0.038429	1.323057
H195	H	0.974019	-0.470076	0.823047
H196	H	1.474019	0.029924	1.323047
H197	H	1.043335	-0.929811	0.469235
H198	H	1.543335	-0.429811	0.969235
N199	N	1.030018	-0.836516	0.482471
N200	N	1.530018	-0.336516	0.982471
H201	H	1.061909	-0.870480	0.518883
H202	H	1.561909	-0.370480	1.018883
H203	H	0.993682	-0.870533	0.450487
H204	H	1.493682	-0.370533	0.950487
H205	H	1.225603	-0.286940	0.826563
H206	H	1.725603	0.213060	1.326563
H207	H	1.043318	-0.469111	0.677766
H208	H	1.543318	0.030889	1.177766
H209	H	0.835584	-0.469334	0.469094
H210	H	1.335584	0.030666	0.969094
N211	N	1.238893	-0.273642	0.919864
N212	N	1.738893	0.226358	1.419864
H213	H	1.207002	-0.237273	0.885856
H214	H	1.707002	0.262727	1.385856
H215	H	1.275241	-0.305607	0.885894
H216	H	1.775241	0.194393	1.385894
N217	N	0.676029	-0.482633	0.482348
N218	N	1.176029	0.017367	0.982348
H219	H	0.690326	-0.470526	0.538457
H220	H	1.190326	0.029474	1.038457
H221	H	0.690296	-0.538676	0.469972
H222	H	1.190296	-0.038676	0.969972
