data_functionalizedCrystal
_audit_creation_method	'MofGen! by Chris Wilmer'
_symmetry_space_group_name_H-M	'P1'
_symmetry_Int_Tables_number	1
_symmetry_cell_setting	triclinic
loop_
_symmetry_equiv_pos_as_xyz
  x,y,z
_cell_length_a	9.065218
_cell_length_b	10.654550
_cell_length_c	7.540329
_cell_angle_alpha	89.997570
_cell_angle_beta	89.996962
_cell_angle_gamma	84.750394
loop_
_atom_site_label
_atom_site_type_symbol
_atom_site_fract_x
_atom_site_fract_y
_atom_site_fract_z
O1	O	1.959392	0.184158	-0.147482
O2	O	1.530024	0.199263	-0.147484
O3	O	1.754580	0.009010	-0.147477
O4	O	1.734836	0.374410	-0.147490
O5	O	1.754567	0.009008	0.147489
O6	O	1.530011	0.199261	0.147481
O7	O	1.959378	0.184155	0.147483
Cu8	Cu	1.744693	0.191708	0.174415
Cu9	Cu	1.744709	0.191711	-0.174416
O10	O	1.734823	0.374408	0.147475
C11	C	1.475039	0.197810	-0.000002
C12	C	1.311220	0.193469	-0.000003
C13	C	1.753124	-0.037795	0.000004
C14	C	1.748786	-0.177255	-0.000002
C15	C	1.881001	-0.256217	0.000004
C16	C	1.876917	-0.387254	-0.000009
C17	C	1.608391	-0.360354	-0.000026
C18	C	1.612477	-0.229320	-0.000026
C19	C	2.017310	-0.204153	0.000027
C20	C	2.149536	-0.283116	0.000035
C21	C	2.145452	-0.414153	0.000023
C22	C	2.009142	-0.466226	0.000003
C23	C	2.014364	0.185608	-0.000003
C24	C	2.178183	0.189949	-0.000014
C25	C	1.736279	0.421213	-0.000009
C26	C	1.740616	0.560673	-0.000014
N27	N	1.744693	0.191705	0.419763
N28	N	1.744721	0.191703	-0.419764
H29	H	2.020651	-0.097457	0.000043
C30	C	2.290893	-0.501013	0.000023
C31	C	2.402200	-0.494098	0.153205
C32	C	2.547647	-0.580955	0.153214
C33	C	2.581788	-0.674727	0.000043
C34	C	2.470478	-0.681645	-0.153150
C35	C	2.325031	-0.594788	-0.153160
H36	H	2.376929	-0.424680	0.266602
H37	H	2.630046	-0.575833	0.266618
H38	H	2.689457	-0.739023	0.000050
H39	H	2.495749	-0.751063	-0.266547
H40	H	2.242633	-0.599910	-0.266564
C41	C	1.467044	-0.142449	-0.000026
C42	C	1.432948	-0.048664	-0.153199
C43	C	1.287513	0.038210	-0.153207
C44	C	1.176176	0.031299	-0.000043
C45	C	1.210270	-0.062489	0.153141
C46	C	1.355704	-0.149363	0.153150
H47	H	1.515369	-0.043545	-0.266590
H48	H	1.262275	0.107638	-0.266605
H49	H	1.068516	0.095608	-0.000049
H50	H	1.127848	-0.067608	0.266533
H51	H	1.380942	-0.218791	0.266548
H52	H	2.005827	-0.572927	-0.000026
H53	H	2.260515	-0.240708	0.000008
H54	H	1.497414	-0.402764	-0.000040
