data_functionalizedCrystal
_audit_creation_method	'MofGen! by Chris Wilmer'
_symmetry_space_group_name_H-M	'P1'
_symmetry_Int_Tables_number	1
_symmetry_cell_setting	triclinic
loop_
_symmetry_equiv_pos_as_xyz
  x,y,z
_cell_length_a	14.044220
_cell_length_b	15.944493
_cell_length_c	13.101039
_cell_angle_alpha	93.367629
_cell_angle_beta	86.340132
_cell_angle_gamma	88.331960
loop_
_atom_site_label
_atom_site_type_symbol
_atom_site_fract_x
_atom_site_fract_y
_atom_site_fract_z
O1	O	1.262879	0.198269	-0.085081
O2	O	1.762879	0.698269	0.414919
O3	O	0.986913	0.190960	-0.085107
O4	O	1.486913	0.690960	0.414893
O5	O	1.132461	0.072903	-0.085102
O6	O	1.632461	0.572903	0.414898
O7	O	1.117331	0.316327	-0.085086
O8	O	1.617331	0.816327	0.414914
O9	O	1.122018	0.081388	0.085328
O10	O	1.622018	0.581388	0.585328
O11	O	0.976470	0.199446	0.085322
O12	O	1.476470	0.699446	0.585322
O13	O	1.252436	0.206755	0.085349
O14	O	1.752436	0.706755	0.585349
Zn15	Zn	1.112795	0.204448	0.112395
Zn16	Zn	1.612795	0.704448	0.612395
Zn17	Zn	1.126554	0.193267	-0.112153
Zn18	Zn	1.626554	0.693267	0.387847
O19	O	1.106888	0.324813	0.085343
O20	O	1.606888	0.824813	0.585343
C21	C	0.946377	0.192004	0.000104
C22	C	1.446377	0.692004	0.500104
C23	C	0.841154	0.182462	0.000093
C24	C	1.341154	0.682462	0.500093
C25	C	0.648494	0.165020	0.000112
C26	C	1.148494	0.665020	0.500112
C27	C	0.590849	0.232692	0.000121
C28	C	1.090849	0.732692	0.500121
C29	C	0.483647	0.222986	0.000131
C30	C	0.983647	0.722986	0.500131
C31	C	0.755707	0.174724	0.000101
C32	C	1.255707	0.674724	0.500101
C33	C	1.126621	0.045804	0.000109
C34	C	1.626621	0.545804	0.500109
C35	C	1.124768	-0.047584	0.000095
C36	C	1.624768	0.452416	0.500095
C37	C	1.210440	-0.276927	0.000123
C38	C	1.710440	0.223073	0.500123
C39	C	1.169389	-0.335139	-0.083912
C40	C	1.669389	0.164861	0.416088
C41	C	1.121332	-0.218561	0.000108
C42	C	1.621332	0.281439	0.500108
C43	C	1.159072	-0.326750	0.084119
C44	C	1.659072	0.173250	0.584119
C45	C	1.118020	-0.383718	0.000124
C46	C	1.618020	0.116282	0.500124
C47	C	1.080309	-0.275546	-0.083996
C48	C	1.580309	0.224454	0.416004
C49	C	1.070001	-0.267150	0.084109
C50	C	1.570001	0.232850	0.584109
C51	C	1.028886	-0.325334	0.000054
C52	C	1.528886	0.174666	0.500054
C53	C	1.123243	-0.123419	0.000097
C54	C	1.623243	0.376581	0.500097
C55	C	1.116103	-0.478859	0.000127
C56	C	1.616103	0.021141	0.500127
C57	C	1.292971	0.205711	0.000136
C58	C	1.792971	0.705711	0.500136
C59	C	1.398195	0.215253	0.000140
C60	C	1.898195	0.715253	0.500140
C61	C	1.112727	0.351911	0.000131
C62	C	1.612727	0.851911	0.500131
C63	C	1.114581	0.445299	0.000137
C64	C	1.614581	0.945299	0.500137
N65	N	1.103412	0.212078	0.265643
N66	N	1.603412	0.712078	0.765643
N67	N	1.135945	0.185631	-0.265402
N68	N	1.635945	0.685631	0.234598
C69	C	1.090645	0.222467	0.474685
C70	C	1.590645	0.722467	0.974685
C71	C	1.148708	0.175245	0.525563
C72	C	1.648708	0.675245	1.025563
C73	C	1.141604	0.181025	0.641881
C74	C	1.641604	0.681025	1.141881
C75	C	1.097747	0.216688	0.358356
C76	C	1.597747	0.716688	0.858356
H77	H	0.622009	0.297916	0.000120
H78	H	1.122009	0.797916	0.500120
H79	H	1.028049	-0.237467	0.155150
H80	H	1.528049	0.262533	0.655150
H81	H	1.035606	0.267235	0.518480
H82	H	1.535606	0.767235	1.018480
H83	H	0.617336	0.099800	0.000113
H84	H	1.117336	0.599800	0.500113
H85	H	1.211373	-0.364804	-0.154950
H86	H	1.711373	0.135196	0.345050
Cl87	Cl	1.328949	-0.243926	0.000009
Cl88	Cl	1.828949	0.256074	0.500009
Cl89	Cl	1.028975	-0.240872	-0.193805
Cl90	Cl	1.528975	0.259128	0.306195
H91	H	1.203752	0.130475	0.481763
H92	H	1.703752	0.630475	0.981763
H93	H	0.952074	-0.346555	0.000001
H94	H	1.452074	0.153445	0.500001
H95	H	1.192369	-0.349325	0.155159
H96	H	1.692369	0.150675	0.655159
