data_functionalizedCrystal
_audit_creation_method	'MofGen! by Chris Wilmer'
_symmetry_space_group_name_H-M	'P1'
_symmetry_Int_Tables_number	1
_symmetry_cell_setting	triclinic
loop_
_symmetry_equiv_pos_as_xyz
  x,y,z
_cell_length_a	15.944551
_cell_length_b	8.965430
_cell_length_c	10.489741
_cell_angle_alpha	90.000707
_cell_angle_beta	84.018956
_cell_angle_gamma	90.000682
loop_
_atom_site_label
_atom_site_type_symbol
_atom_site_fract_x
_atom_site_fract_y
_atom_site_fract_z
O1	O	1.115513	-0.123883	0.164493
O2	O	0.871085	-0.123920	0.184775
O3	O	0.998861	-0.123892	-0.011041
O4	O	0.987737	-0.123911	0.360309
O5	O	0.998850	0.124187	-0.011028
O6	O	0.871074	0.124159	0.184788
O7	O	1.115502	0.124196	0.164506
Cu8	Cu	0.993287	0.146829	0.174648
Cu9	Cu	0.993300	-0.146553	0.174633
O10	O	0.987726	0.124168	0.360322
C11	C	0.839781	0.000115	0.183939
C12	C	0.746520	0.000101	0.181415
N13	N	0.993284	0.353178	0.174658
N14	N	0.993310	-0.352902	0.174613
C15	C	0.530897	0.000137	0.054006
C16	C	0.470238	-0.122183	0.113164
C17	C	0.575766	0.000119	0.176849
C18	C	0.470250	0.122404	0.113206
C19	C	0.410827	0.000143	0.172428
C20	C	0.516336	-0.122301	0.236040
C21	C	0.516354	0.122395	0.236065
C22	C	0.455713	0.000046	0.295313
C23	C	0.670784	0.000104	0.179391
C24	C	0.315811	0.000147	0.169895
C25	C	1.146807	0.000158	0.165342
C26	C	1.240068	0.000162	0.167866
C27	C	0.998015	0.000147	-0.058554
C28	C	0.995502	0.000144	-0.200149
C29	C	0.934174	0.450471	0.265187
C30	C	1.010227	0.549895	0.289943
C31	C	0.917264	0.549882	0.149913
C32	C	1.069376	0.450413	0.199472
C33	C	0.976362	0.450391	0.059391
C34	C	1.052470	0.549770	0.084099
C35	C	0.914202	0.000121	-0.267162
C36	C	0.952602	0.122442	-0.359811
C37	C	0.952632	-0.122144	-0.359798
C38	C	1.033935	0.122566	-0.290933
C39	C	1.033954	-0.122130	-0.290911
C40	C	1.072413	0.000221	-0.383533
C41	C	0.988572	0.000126	0.407835
C42	C	0.991086	0.000119	0.549430
H43	H	0.449820	-0.225589	0.061201
H44	H	0.918198	0.225846	-0.390340
O45	O	1.027464	0.602131	0.406110
C46	C	1.101687	0.688620	0.390884
H47	H	1.141286	0.654641	0.298684
H48	H	1.084399	0.811698	0.385681
C49	C	1.103992	0.704472	0.619069
C50	C	1.152631	0.662730	0.505832
H51	H	1.135415	0.688509	0.689976
H52	H	1.053985	0.646208	0.629328
H53	H	1.089588	0.807035	0.614715
H54	H	1.167025	0.560165	0.510181
H55	H	1.202642	0.720977	0.495577
H56	H	0.423168	-0.000028	0.397367
H57	H	0.536640	-0.225825	0.287953
H58	H	0.962009	0.406651	-0.038036
H59	H	0.918226	-0.225568	-0.390291
O60	O	0.540724	0.245912	0.297817
C61	C	0.517476	0.374631	0.232741
H62	H	0.510085	0.345330	0.128752
H63	H	0.455126	0.419260	0.280987
C64	C	0.595367	0.530517	0.364677
C65	C	0.586296	0.494532	0.236952
H66	H	0.637816	0.604482	0.367279
H67	H	0.611028	0.443798	0.408524
H68	H	0.543404	0.567699	0.404868
H69	H	0.638256	0.457334	0.196769
H70	H	0.570646	0.581249	0.193099
O71	O	1.152175	0.000200	-0.443799
C72	C	1.148954	-0.001010	-0.577607
H73	H	1.085856	-0.048642	-0.600087
H74	H	1.156040	0.117710	-0.616161
C75	C	1.298594	-0.039856	-0.613716
C76	C	1.221099	-0.098371	-0.641326
H77	H	1.343098	-0.099906	-0.653023
H78	H	1.300765	-0.039035	-0.523567
H79	H	1.304487	0.059076	-0.645845
H80	H	1.215201	-0.197293	-0.609183
H81	H	1.218928	-0.099210	-0.731472
O82	O	0.840518	0.601752	0.124881
C83	C	0.786442	0.480355	0.108582
H84	H	0.825665	0.377107	0.079846
H85	H	0.745571	0.457902	0.202382
C86	C	0.681421	0.644361	0.038181
C87	C	0.729596	0.517553	0.002876
H88	H	0.646352	0.667307	-0.027019
H89	H	0.717851	0.726150	0.049166
H90	H	0.647369	0.625634	0.116349
H91	H	0.763654	0.536288	-0.075281
H92	H	0.693169	0.435768	-0.008124
H93	H	0.563617	-0.000009	-0.047944
H94	H	1.102523	0.593097	0.007517
O95	O	0.446020	0.245728	0.051037
C96	C	0.484647	0.245241	-0.076144
H97	H	0.544014	0.173639	-0.082261
H98	H	0.439000	0.197497	-0.142295
C99	C	0.435396	0.493871	-0.109934
C100	C	0.508315	0.405938	-0.117445
H101	H	0.449992	0.592996	-0.135415
H102	H	0.409368	0.494198	-0.024252
H103	H	0.397363	0.454067	-0.165060
H104	H	0.546341	0.445732	-0.062308
H105	H	0.534349	0.405622	-0.203120
O106	O	0.874699	0.398258	0.356664
C107	C	0.913658	0.309643	0.444627
H108	H	0.976412	0.265986	0.397027
H109	H	0.925159	0.379681	0.531835
C110	C	0.778833	0.230827	0.545670
C111	C	0.855906	0.177197	0.487204
H112	H	0.743208	0.149131	0.571939
H113	H	0.752585	0.290533	0.486412
H114	H	0.788429	0.289193	0.618336
H115	H	0.846311	0.118849	0.414531
H116	H	0.882151	0.117478	0.546451
O117	O	0.834445	0.000510	-0.206871
C118	C	0.791883	0.129694	-0.241787
H119	H	0.839897	0.219392	-0.275175
H120	H	0.752142	0.101778	-0.322861
C121	C	0.675244	0.077183	-0.084300
C122	C	0.734216	0.187356	-0.125298
H123	H	0.639669	0.112749	-0.012447
H124	H	0.703917	-0.009854	-0.060779
H125	H	0.642135	0.053929	-0.151872
H126	H	0.767330	0.210594	-0.057732
H127	H	0.705547	0.274399	-0.148805
O128	O	1.074975	-0.245377	-0.254225
C129	C	1.077416	-0.242920	-0.120267
H130	H	1.070113	-0.123213	-0.084167
H131	H	1.023789	-0.313938	-0.072341
C132	C	1.171363	-0.453030	-0.131785
C133	C	1.162399	-0.306002	-0.087447
H134	H	1.223782	-0.491948	-0.111537
H135	H	1.169716	-0.454690	-0.222034
H136	H	1.126668	-0.512193	-0.091842
H137	H	1.207087	-0.246838	-0.127402
H138	H	1.164056	-0.304334	0.002796
H139	H	1.133691	0.406904	0.220499
H140	H	1.068301	0.226096	-0.260572
