data_functionalizedCrystal
_audit_creation_method	'MofGen! by Chris Wilmer'
_symmetry_space_group_name_H-M	'P1'
_symmetry_Int_Tables_number	1
_symmetry_cell_setting	triclinic
loop_
_symmetry_equiv_pos_as_xyz
  x,y,z
_cell_length_a	12.837943
_cell_length_b	10.654550
_cell_length_c	11.892095
_cell_angle_alpha	93.927085
_cell_angle_beta	85.689438
_cell_angle_gamma	89.656935
loop_
_atom_site_label
_atom_site_type_symbol
_atom_site_fract_x
_atom_site_fract_y
_atom_site_fract_z
O1	O	-1.384378	-0.319511	0.093983
O2	O	-0.884378	0.180489	0.593983
O3	O	-1.082456	-0.303369	0.093989
O4	O	-0.582456	0.196631	0.593989
O5	O	-1.240358	-0.129459	0.093979
O6	O	-0.740358	0.370541	0.593979
O7	O	-1.226476	-0.493421	0.093993
O8	O	-0.726476	0.006579	0.593993
O9	O	-1.227192	-0.143935	-0.094028
O10	O	-0.727192	0.356065	0.405972
O11	O	-1.069291	-0.317845	-0.094017
O12	O	-0.569291	0.182155	0.405983
O13	O	-1.371212	-0.333986	-0.094024
O14	O	-0.871212	0.166014	0.405976
Zn15	Zn	-1.218161	-0.328214	-0.123871
Zn16	Zn	-0.718161	0.171786	0.376129
Zn17	Zn	-1.235507	-0.309142	0.123836
Zn18	Zn	-0.735507	0.190858	0.623836
O19	O	-1.213310	-0.507897	-0.094013
O20	O	-0.713310	-0.007897	0.405987
C21	C	-1.037214	-0.305154	-0.000013
C22	C	-0.537214	0.194846	0.499987
C23	C	-0.922020	-0.288892	-0.000011
C24	C	-0.422020	0.211108	0.499989
C25	C	-1.232756	-0.089788	-0.000024
C26	C	-0.732756	0.410212	0.499976
C27	C	-1.229706	0.049989	-0.000022
C28	C	-0.729706	0.549989	0.499978
C29	C	-1.416455	-0.332201	-0.000019
C30	C	-0.916455	0.167799	0.499981
C31	C	-1.531649	-0.348463	-0.000014
C32	C	-1.031649	0.151537	0.499986
C33	C	-0.682467	-0.484397	-0.000019
C34	C	-0.182467	0.015603	0.499981
C35	C	-0.574231	-0.469123	-0.000018
C36	C	-0.074231	0.030877	0.499982
C37	C	-0.597311	-0.243071	-0.000015
C38	C	-0.097311	0.256929	0.499985
C39	C	-0.705546	-0.258345	-0.000016
C40	C	-0.205546	0.241655	0.499984
C41	C	-0.748120	-0.379012	-0.000016
C42	C	-0.248120	0.120988	0.499984
C43	C	-0.856358	-0.394284	-0.000010
C44	C	-0.356358	0.105716	0.499990
C45	C	-0.879435	-0.168234	-0.000015
C46	C	-0.379435	0.331766	0.499985
C47	C	-0.771200	-0.152960	-0.000013
C48	C	-0.271200	0.347040	0.499987
C49	C	-1.220912	-0.547568	-0.000008
C50	C	-0.720912	-0.047568	0.499992
C51	C	-1.223963	-0.687344	-0.000002
C52	C	-0.723963	-0.187344	0.499998
N53	N	-1.206330	-0.341230	-0.292924
N54	N	-0.706330	0.158770	0.207076
C55	C	-1.322677	0.119329	-0.000024
C56	C	-0.822677	0.619329	0.499976
C57	C	-1.319806	0.250664	-0.000010
C58	C	-0.819806	0.750664	0.499990
C59	C	-1.130985	0.243307	0.000003
C60	C	-0.630985	0.743307	0.500003
C61	C	-1.133858	0.111975	-0.000003
C62	C	-0.633858	0.611975	0.499997
C63	C	-1.329671	-0.205471	-0.529580
C64	C	-0.829671	0.294529	-0.029580
C65	C	-1.321409	-0.214579	-0.647921
C66	C	-0.821409	0.285421	-0.147921
C67	C	-1.181539	-0.368548	-0.647950
C68	C	-0.681539	0.131452	-0.147950
C69	C	-1.189801	-0.359440	-0.529609
C70	C	-0.689801	0.140560	-0.029609
C71	C	-1.263871	-0.277900	-0.470428
C72	C	-0.763871	0.222100	0.029572
C73	C	-1.272137	-0.268799	-0.352084
C74	C	-0.772137	0.231201	0.147916
C75	C	-1.132263	-0.422761	-0.352115
C76	C	-0.632263	0.077239	0.147885
C77	C	-1.124001	-0.431869	-0.470456
C78	C	-0.624001	0.068131	0.029544
N79	N	-1.247346	-0.296116	0.292890
N80	N	-0.747346	0.203884	0.792890
H81	H	-0.891019	-0.492537	-0.000012
H82	H	-0.391019	0.007463	0.499988
H83	H	-0.562621	-0.144836	-0.000107
H84	H	-0.062621	0.355164	0.499893
H85	H	-1.332450	-0.202408	-0.303900
H86	H	-0.832450	0.297592	0.196100
H87	H	-0.736520	-0.054717	-0.000026
H88	H	-0.236520	0.445283	0.499974
H89	H	-1.400722	0.068864	-0.000037
H90	H	-0.900722	0.568864	0.499963
H91	H	-1.052949	0.293792	0.000016
H92	H	-0.552949	0.793792	0.500016
H93	H	-1.058146	0.055516	0.000002
H94	H	-0.558146	0.555516	0.500002
H95	H	-0.932903	-0.082421	-0.000005
H96	H	-0.432903	0.417579	0.499995
H97	H	-1.121227	-0.434927	-0.696150
H98	H	-0.621227	0.065073	-0.196150
H99	H	-0.520779	-0.554939	-0.000023
H100	H	-0.020779	-0.054939	0.499977
H101	H	-1.063693	-0.498254	-0.518655
H102	H	-0.563693	0.001746	-0.018655
H103	H	-1.078687	-0.481741	-0.303940
H104	H	-0.578687	0.018259	0.196060
H105	H	-1.395512	0.307116	-0.000009
H106	H	-0.895512	0.807116	0.499991
H107	H	-1.389988	-0.139086	-0.481394
H108	H	-0.889988	0.360914	0.018606
H109	H	-1.374988	-0.155598	-0.696080
H110	H	-0.874988	0.344402	-0.196080
H111	H	-0.717131	-0.582648	-0.000018
H112	H	-0.217131	-0.082648	0.499982
