data_functionalizedCrystal
_audit_creation_method	'MofGen! by Chris Wilmer'
_symmetry_space_group_name_H-M	'P1'
_symmetry_Int_Tables_number	1
_symmetry_cell_setting	triclinic
loop_
_symmetry_equiv_pos_as_xyz
  x,y,z
_cell_length_a	14.586319
_cell_length_b	19.288864
_cell_length_c	19.288865
_cell_angle_alpha	83.136245
_cell_angle_beta	89.990984
_cell_angle_gamma	89.982652
loop_
_atom_site_label
_atom_site_type_symbol
_atom_site_fract_x
_atom_site_fract_y
_atom_site_fract_z
O1	O	0.076545	-0.921347	-0.086647
O2	O	0.076483	-0.719087	-0.098336
O3	O	0.076498	-0.826061	0.008639
O4	O	0.076531	-0.814373	-0.193621
O5	O	-0.075983	-0.826054	0.008641
O6	O	-0.075997	-0.719079	-0.098334
O7	O	-0.075936	-0.921340	-0.086645
Cu8	Cu	-0.089889	-0.820209	-0.092489
Cu9	Cu	0.090437	-0.820218	-0.092491
O10	O	-0.075950	-0.814365	-0.193620
C11	C	0.000235	-0.693207	-0.097959
C12	C	0.000211	-0.616103	-0.096830
N13	N	-0.216721	-0.820208	-0.092488
C14	C	0.000255	-0.825682	0.034516
C15	C	0.000246	-0.824553	0.111620
C16	C	-0.451721	-0.867592	-0.045135
C17	C	-0.547702	-0.867594	-0.045133
C18	C	-0.547725	-0.772835	-0.139842
C19	C	-0.451745	-0.772831	-0.139840
C20	C	-0.403746	-0.820213	-0.092487
C21	C	-0.595707	-0.820220	-0.092488
C22	C	-0.699774	-0.820221	-0.092486
C23	C	-0.299672	-0.820210	-0.092488
N24	N	0.217269	-0.820224	-0.092488
C25	C	0.000315	-0.947220	-0.087022
C26	C	0.000345	-1.024324	-0.088151
C27	C	0.000235	-0.571407	-0.159598
C28	C	0.000245	-0.498960	-0.158537
C29	C	0.000249	-0.471212	-0.094705
C30	C	0.000219	-0.515918	-0.031929
C31	C	0.000200	-0.588364	-0.032991
C32	C	0.053693	-0.362953	-0.044526
C33	C	0.053717	-0.290508	-0.043466
C34	C	0.000304	-0.247767	-0.091425
C35	C	-0.053122	-0.277477	-0.140456
C36	C	-0.053141	-0.349922	-0.141518
C37	C	0.000269	-0.392658	-0.093546
C38	C	0.000338	-0.124514	-0.153047
C39	C	0.000342	-0.052066	-0.151984
C40	C	0.000326	-0.069026	-0.025374
C41	C	0.000312	-0.141473	-0.026439
C42	C	0.000323	-0.169212	-0.090278
C43	C	0.000295	-0.814745	-0.219497
C44	C	0.000309	-0.815874	-0.296601
C45	C	0.000261	-0.887321	0.156316
C46	C	0.000275	-0.886260	0.228763
C47	C	0.000256	-0.822428	0.256511
C48	C	0.000247	-0.759652	0.211805
C49	C	0.000242	-0.760714	0.139359
C50	C	-0.053170	-0.772246	0.364799
C51	C	-0.053171	-0.771186	0.437243
C52	C	0.000276	-0.819148	0.479956
C53	C	0.053711	-0.868182	0.450218
C54	C	0.053706	-0.869245	0.377772
C55	C	0.000262	-0.821269	0.335065
C56	C	0.000307	-0.880770	0.603209
C57	C	0.000327	-0.879707	0.675657
C58	C	0.000289	-0.753097	0.658697
C59	C	0.000279	-0.754162	0.586250
C60	C	0.000283	-0.818000	0.558511
H61	H	-0.412643	-0.906172	-0.006577
Br62	Br	-0.612869	-0.708535	-0.204106
Br63	Br	0.126249	-0.933280	0.508177
H64	H	-0.412681	-0.734245	-0.178400
Br65	Br	0.000273	-0.438288	-0.243728
H66	H	0.000357	-0.015674	-0.203099
Br67	Br	-0.612810	-0.931893	0.019136
Br68	Br	-0.125694	-0.704645	0.477596
H69	H	0.000246	-0.593987	-0.211580
H70	H	0.000315	-0.932751	0.580622
Br71	Br	-0.125647	-0.390242	-0.208054
Br72	Br	-0.125614	-0.219479	-0.205550
Br73	Br	0.000215	-0.478263	0.054702
Br74	Br	0.000165	-0.649027	0.052201
H75	H	0.000290	-0.937375	0.265162
H76	H	0.000333	-0.147101	-0.205028
H77	H	0.097216	-0.909168	0.353562
Br78	Br	0.000315	-0.031377	0.061257
Br79	Br	0.000281	-0.202136	0.058751
Br80	Br	0.126236	-0.250193	0.023065
H81	H	0.097194	-0.397748	-0.005471
Br82	Br	0.000292	-0.973958	0.118673
Br83	Br	0.000356	-0.964900	0.736319
Br84	Br	0.000273	-0.666466	0.696346
Br85	Br	0.000258	-0.668972	0.525587
Br86	Br	-0.125711	-0.707148	0.306838
Br87	Br	0.000233	-0.673021	0.249460
H88	H	0.000230	-0.709599	0.102967
