data_functionalizedCrystal
_audit_creation_method	'MofGen! by Chris Wilmer'
_symmetry_space_group_name_H-M	'P1'
_symmetry_Int_Tables_number	1
_symmetry_cell_setting	triclinic
loop_
_symmetry_equiv_pos_as_xyz
  x,y,z
_cell_length_a	19.805407
_cell_length_b	16.625546
_cell_length_c	19.805399
_cell_angle_alpha	89.972133
_cell_angle_beta	89.980427
_cell_angle_gamma	90.022468
loop_
_atom_site_label
_atom_site_type_symbol
_atom_site_fract_x
_atom_site_fract_y
_atom_site_fract_z
Zn1	Zn	1.034754	-0.321020	-0.382718
Zn2	Zn	1.034677	-0.455857	-0.269529
Zn3	Zn	0.921569	-0.321043	-0.269543
Zn4	Zn	0.921540	-0.455815	-0.382676
O5	O	0.978135	-0.388434	-0.326117
O6	O	1.129461	-0.338915	-0.367716
O7	O	1.019652	-0.438001	-0.174815
O8	O	0.936628	-0.208207	-0.284579
O9	O	1.129404	-0.437980	-0.284556
O10	O	1.019784	-0.208191	-0.367729
O11	O	0.936553	-0.338953	-0.174825
O12	O	0.826848	-0.338912	-0.284538
O13	O	0.936579	-0.437907	-0.477398
O14	O	0.826827	-0.437928	-0.367657
O15	O	1.019756	-0.338874	-0.477429
O16	O	1.019625	-0.568684	-0.284515
O17	O	0.936504	-0.568653	-0.367644
C18	C	0.802279	-0.388418	-0.326095
C19	C	0.727047	-0.388431	-0.326102
C20	C	0.691710	-0.440067	-0.369311
C21	C	0.621021	-0.440068	-0.369321
C22	C	0.585671	-0.388437	-0.326117
C23	C	0.621014	-0.336796	-0.282905
C24	C	0.691701	-0.336791	-0.282899
C25	C	0.335941	-0.336814	-0.282927
C26	C	0.265248	-0.336825	-0.282935
C27	C	0.265261	-0.440091	-0.369349
C28	C	0.335948	-0.440086	-0.369343
C29	C	0.371284	-0.388442	-0.326134
C30	C	0.447932	-0.388440	-0.326125
C31	C	0.509024	-0.388443	-0.326122
C32	C	0.978071	-0.597925	-0.326088
C33	C	0.978105	-0.687546	-0.326099
C34	C	0.978224	-1.015721	-0.326169
C35	C	0.978189	-0.924413	-0.326152
C36	C	0.978164	-0.851636	-0.326134
C37	C	0.978130	-0.760322	-0.326117
C38	C	1.154678	-0.388450	-0.326139
C39	C	1.229910	-0.388457	-0.326149
C40	C	0.978173	-0.388383	-0.502660
C41	C	0.978189	-0.388361	-0.577892
C42	C	0.978218	-0.178125	-0.326160
C43	C	0.978253	-0.088504	-0.326178
C44	C	1.021501	-0.336792	-0.613253
C45	C	1.021508	-0.336769	-0.683941
C46	C	0.978206	-0.388319	-0.719267
C47	C	0.934889	-0.439890	-0.683901
C48	C	0.934880	-0.439909	-0.613214
C49	C	0.934928	-0.439815	-0.968974
C50	C	0.934942	-0.439794	-1.039667
C51	C	1.021556	-0.336675	-1.039702
C52	C	1.021546	-0.336694	-0.969015
C53	C	0.978227	-0.388262	-0.933655
C54	C	0.978219	-0.388285	-0.857006
C55	C	0.978217	-0.388300	-0.795914
C56	C	0.978136	-0.388426	-0.150261
C57	C	0.978251	-0.388221	-0.075029
H58	H	0.364703	-0.294769	-0.247739
H59	H	0.364726	-0.482132	-0.404522
C60	C	0.887271	-0.496544	-0.930099
C61	C	0.810334	-0.489943	-0.939831
C62	C	0.762670	-0.546676	-0.900960
C63	C	0.791944	-0.610010	-0.852355
C64	C	0.868885	-0.616614	-0.842620
C65	C	0.916549	-0.559881	-0.881492
H66	H	0.788661	-0.443058	-0.975813
H67	H	0.705713	-0.541788	-0.908166
H68	H	0.756660	-0.652007	-0.823580
H69	H	0.890558	-0.663499	-0.806638
H70	H	0.973506	-0.564769	-0.874285
H71	H	1.056778	-0.294778	-0.712729
H72	H	0.592226	-0.294754	-0.247730
C73	C	0.730576	-0.279991	-0.235369
C74	C	0.720883	-0.188339	-0.241035
C75	C	0.759759	-0.131534	-0.193507
C76	C	0.808327	-0.166380	-0.140313
C77	C	0.818022	-0.258037	-0.134645
C78	C	0.779147	-0.314843	-0.182173
H79	H	0.684928	-0.162540	-0.280415
H80	H	0.752581	-0.063683	-0.197704
H81	H	0.837105	-0.124329	-0.105130
H82	H	0.853978	-0.283837	-0.095265
H83	H	0.786325	-0.382693	-0.177976
H84	H	0.720486	-0.482113	-0.404491
H85	H	1.056764	-0.294817	-0.584496
C86	C	0.582150	-0.496869	-0.416852
C87	C	0.621032	-0.553665	-0.464372
C88	C	0.582161	-0.610467	-0.511907
C89	C	0.504408	-0.610471	-0.511922
C90	C	0.465522	-0.553673	-0.464400
C91	C	0.504392	-0.496871	-0.416865
H92	H	0.678593	-0.553664	-0.464363
H93	H	0.610948	-0.652513	-0.547086
H94	H	0.475633	-0.652519	-0.547110
H95	H	0.407960	-0.553674	-0.464410
H96	H	0.475606	-0.454825	-0.381686
C97	C	0.887240	-0.496638	-0.574311
C98	C	0.810298	-0.490050	-0.584014
C99	C	0.762655	-0.546777	-0.545110
C100	C	0.791954	-0.610092	-0.496504
C101	C	0.868899	-0.616682	-0.486798
C102	C	0.916542	-0.559955	-0.525702
H103	H	0.788606	-0.443179	-0.619998
H104	H	0.705695	-0.541899	-0.552295
H105	H	0.756686	-0.652085	-0.467705
H106	H	0.890592	-0.663554	-0.450815
H107	H	0.973503	-0.564834	-0.518517
C108	C	1.069178	-0.279987	-0.930157
C109	C	1.116819	-0.223257	-0.969053
C110	C	1.164450	-0.166547	-0.930197
C111	C	1.164440	-0.166567	-0.852444
C112	C	1.116798	-0.223299	-0.813543
C113	C	1.069167	-0.280009	-0.852400
H114	H	1.116827	-0.223240	-1.026615
H115	H	1.199718	-0.124550	-0.958994
H116	H	1.199699	-0.124587	-0.823680
H117	H	1.116789	-0.223316	-0.755981
H118	H	1.033899	-0.322006	-0.823602
H119	H	0.899678	-0.481774	-1.068427
H120	H	0.236481	-0.482139	-0.404534
C121	C	0.226362	-0.280022	-0.235411
C122	C	0.177792	-0.216778	-0.264847
C123	C	0.138906	-0.159980	-0.217325
C124	C	0.148590	-0.166426	-0.140369
C125	C	0.197162	-0.229673	-0.110929
C126	C	0.236048	-0.286471	-0.158450
H127	H	0.170621	-0.212004	-0.321818
H128	H	0.102949	-0.113161	-0.239119
H129	H	0.119804	-0.124381	-0.105190
H130	H	0.204333	-0.234447	-0.053958
H131	H	0.272005	-0.333291	-0.136657
H132	H	1.056826	-0.294683	-1.068501
H133	H	0.899630	-0.481861	-0.712669
