data_functionalizedCrystal
_audit_creation_method	'MofGen! by Chris Wilmer'
_symmetry_space_group_name_H-M	'P1'
_symmetry_Int_Tables_number	1
_symmetry_cell_setting	triclinic
loop_
_symmetry_equiv_pos_as_xyz
  x,y,z
_cell_length_a	16.109301
_cell_length_b	7.540329
_cell_length_c	9.065218
_cell_angle_alpha	89.998628
_cell_angle_beta	95.761317
_cell_angle_gamma	89.998886
loop_
_atom_site_label
_atom_site_type_symbol
_atom_site_fract_x
_atom_site_fract_y
_atom_site_fract_z
O1	O	1.104585	0.147363	-0.189628
O2	O	1.604585	0.647363	0.310372
O3	O	0.862705	0.147390	-0.213227
O4	O	1.362705	0.647390	0.286773
O5	O	0.988645	0.147372	0.013336
O6	O	1.488645	0.647372	0.513336
O7	O	0.978646	0.147381	-0.416191
O8	O	1.478646	0.647381	0.083809
O9	O	0.988640	-0.147593	0.013338
O10	O	1.488640	0.352407	0.513338
O11	O	0.862700	-0.147575	-0.213225
O12	O	1.362700	0.352425	0.286775
O13	O	1.104581	-0.147602	-0.189626
O14	O	1.604581	0.352398	0.310374
Cu15	Cu	0.983640	-0.174521	-0.201425
Cu16	Cu	1.483640	0.325479	0.298575
Cu17	Cu	0.983646	0.174309	-0.201427
Cu18	Cu	1.483646	0.674309	0.298573
O19	O	0.978641	-0.147584	-0.416189
O20	O	1.478641	0.352416	0.083811
C21	C	0.831720	-0.000089	-0.212270
C22	C	1.331720	0.499911	0.287730
C23	C	0.739403	-0.000078	-0.209404
C24	C	1.239403	0.499922	0.290596
N25	N	0.983643	-0.419870	-0.201423
N26	N	1.483643	0.080130	0.298577
C27	C	0.518112	-0.000096	-0.337178
C28	C	1.018112	0.499904	0.162822
C29	C	0.431371	-0.000108	-0.334474
C30	C	0.931371	0.499892	0.165526
C31	C	0.449180	-0.000105	-0.065664
C32	C	0.949180	0.499895	0.434336
C33	C	0.535920	-0.000107	-0.068370
C34	C	1.035920	0.499893	0.431630
C35	C	0.570383	-0.000093	-0.204131
C36	C	1.070383	0.499907	0.295869
C37	C	0.396903	-0.000103	-0.198721
C38	C	0.896903	0.499897	0.301279
C39	C	0.302854	-0.000116	-0.195788
C40	C	0.802854	0.499884	0.304212
C41	C	0.664438	-0.000084	-0.207065
C42	C	1.164438	0.499916	0.292935
C43	C	1.135565	-0.000119	-0.190583
C44	C	1.635565	0.499881	0.309417
C45	C	1.227883	-0.000118	-0.193449
C46	C	1.727883	0.499882	0.306551
C47	C	0.987682	-0.000107	0.068300
C48	C	1.487682	0.499893	0.568300
C49	C	0.984808	-0.000098	0.232074
C50	C	1.484808	0.499902	0.732074
N51	N	0.983650	0.419658	-0.201418
N52	N	1.483650	0.919658	0.298582
C53	C	0.979604	-0.000101	-0.471153
C54	C	1.479604	0.499899	0.028847
C55	C	0.982478	-0.000098	-0.634926
C56	C	1.482478	0.499902	-0.134926
H57	H	0.546169	-0.000098	-0.447723
H58	H	1.046169	0.499902	0.052277
H59	H	0.388815	-0.000114	-0.442814
H60	H	0.888815	0.499886	0.057186
N61	N	0.592299	-0.000118	0.075144
N62	N	1.092299	0.499882	0.575144
H63	H	0.581100	0.109225	0.134376
H64	H	1.081100	0.609225	0.634376
H65	H	0.652455	-0.000195	0.052711
H66	H	1.152455	0.499805	0.552711
H67	H	0.421109	-0.000127	0.044868
H68	H	0.921109	0.499873	0.544868
