data_functionalizedCrystal
_audit_creation_method	'MofGen! by Chris Wilmer'
_symmetry_space_group_name_H-M	'P1'
_symmetry_Int_Tables_number	1
_symmetry_cell_setting	triclinic
loop_
_symmetry_equiv_pos_as_xyz
  x,y,z
_cell_length_a	19.077068
_cell_length_b	19.077300
_cell_length_c	19.077569
_cell_angle_alpha	90.109158
_cell_angle_beta	90.064237
_cell_angle_gamma	90.059760
loop_
_atom_site_label
_atom_site_type_symbol
_atom_site_fract_x
_atom_site_fract_y
_atom_site_fract_z
Zn1	Zn	-0.308738	-1.078249	-0.367027
Zn2	Zn	0.191262	-0.578249	0.132973
Zn3	Zn	-0.430572	-1.068750	-0.254598
Zn4	Zn	0.069428	-0.568750	0.245402
Zn5	Zn	-0.308385	-0.956044	-0.254238
Zn6	Zn	0.191615	-0.456044	0.245762
Zn7	Zn	-0.421133	-0.956379	-0.376392
Zn8	Zn	0.078867	-0.456379	0.123608
O9	O	-0.367207	-1.014855	-0.313064
O10	O	0.132793	-0.514855	0.186936
O11	O	-0.328997	-1.175159	-0.348344
O12	O	0.171003	-0.675159	0.151656
O13	O	-0.418166	-1.049684	-0.156377
O14	O	0.081834	-0.549684	0.343623
O15	O	-0.210258	-0.976090	-0.265130
O16	O	0.289742	-0.476090	0.234870
O17	O	-0.418508	-1.168180	-0.265744
O18	O	0.081492	-0.668180	0.234256
O19	O	-0.210517	-1.065874	-0.347995
O20	O	0.289483	-0.565874	0.152005
O21	O	-0.328395	-0.966879	-0.156112
O22	O	0.171605	-0.466879	0.343888
O23	O	-0.319243	-0.857918	-0.274211
O24	O	0.180757	-0.357918	0.225789
O25	O	-0.402422	-0.976660	-0.473324
O26	O	0.097578	-0.476660	0.026676
O27	O	-0.402079	-0.858164	-0.363957
O28	O	0.097921	-0.358164	0.136043
O29	O	-0.319845	-1.066198	-0.466443
O30	O	0.180155	-0.566198	0.033557
O31	O	-0.527494	-1.050008	-0.274825
O32	O	-0.027494	-0.550008	0.225175
O33	O	-0.520559	-0.967449	-0.364306
O34	O	-0.020559	-0.467449	0.135694
C35	C	-0.359599	-0.832586	-0.320062
C36	C	0.140401	-0.332586	0.179938
C37	C	-0.356361	-0.754611	-0.323073
C38	C	0.143639	-0.254611	0.176927
C39	C	-0.333079	-0.316085	-0.344677
C40	C	0.166921	0.183915	0.155323
C41	C	-0.336135	-0.389351	-0.341844
C42	C	0.163865	0.110649	0.158156
C43	C	-0.384196	-0.422341	-0.297346
C44	C	0.115804	0.077659	0.202654
C45	C	-0.429208	-0.382061	-0.255684
C46	C	0.070792	0.117939	0.244316
C47	C	-0.426155	-0.308797	-0.258520
C48	C	0.073845	0.191203	0.241480
C49	C	-0.398320	-0.641067	-0.284246
C50	C	0.101680	-0.141067	0.215754
C51	C	-0.401368	-0.714336	-0.281411
C52	C	0.098632	-0.214336	0.218589
C53	C	-0.308296	-0.721621	-0.367573
C54	C	0.191704	-0.221621	0.132427
C55	C	-0.305244	-0.648355	-0.370403
C56	C	0.194756	-0.148355	0.129597
C57	C	-0.350259	-0.608082	-0.328743
C58	C	0.149741	-0.108082	0.171257
N59	N	-0.387319	-0.497230	-0.294448
N60	N	0.112681	0.002770	0.205552
N61	N	-0.347138	-0.533194	-0.331645
N62	N	0.152862	-0.033194	0.168355
C63	C	-0.549482	-1.007754	-0.320636
C64	C	-0.049482	-0.507754	0.179364
C65	C	-0.627462	-1.004781	-0.323896
C66	C	-0.127462	-0.504781	0.176104
C67	C	-0.667684	-1.046405	-0.278875
C68	C	-0.167684	-0.546405	0.221125
C69	C	-0.740954	-1.043613	-0.281945
C70	C	-0.240954	-0.543613	0.218055
C71	C	-0.774001	-0.999193	-0.330034
C72	C	-0.274001	-0.499193	0.169966
C73	C	-0.733773	-0.957568	-0.375059
C74	C	-0.233773	-0.457568	0.124941
C75	C	-0.660504	-0.960364	-0.371992
C76	C	-0.160504	-0.460364	0.128008
C77	C	-0.992746	-0.986221	-0.344203
C78	C	-0.492746	-0.486221	0.155797
C79	C	-1.066020	-0.983427	-0.347265
C80	C	-0.566020	-0.483427	0.152735
C81	C	-1.073196	-1.069473	-0.254152
C82	C	-0.573196	-0.569473	0.245848
C83	C	-0.999926	-1.072262	-0.251086
C84	C	-0.499926	-0.572262	0.248914
C85	C	-0.959704	-1.030640	-0.296114
C86	C	-0.459704	-0.530640	0.203886
N87	N	-0.848895	-0.996337	-0.333172
N88	N	-0.348895	-0.496337	0.166828
N89	N	-0.884812	-1.033500	-0.292979
N90	N	-0.384812	-0.533500	0.207021
C91	C	-0.184220	-1.022004	-0.305477
C92	C	0.315780	-0.522004	0.194523
C93	C	-0.106242	-1.025051	-0.302244
C94	C	0.393758	-0.525051	0.197756
C95	C	-0.360120	-1.022526	-0.496051
C96	C	0.139880	-0.522526	0.003949
C97	C	-0.357100	-1.025795	-0.574029
C98	C	0.142900	-0.525795	-0.074029
C99	C	-0.374842	-0.197836	-0.306032
C100	C	0.125158	0.302164	0.193968
C101	C	-0.378087	-0.275811	-0.303015
C102	C	0.121913	0.224189	0.196985
C103	C	-0.398671	-0.980714	-0.614246
C104	C	0.101329	-0.480714	-0.114246
C105	C	-0.395833	-0.983791	-0.687515
C106	C	0.104167	-0.483791	-0.187515
C107	C	-0.351420	-1.031946	-0.720564
C108	C	0.148580	-0.531946	-0.220564
C109	C	-0.309848	-1.077032	-0.680341
C110	C	0.190152	-0.577032	-0.180341
C111	C	-0.312690	-1.073957	-0.607074
C112	C	0.187310	-0.573957	-0.107074
C113	C	-0.338315	-1.046143	-0.939304
C114	C	0.161685	-0.546143	-0.439304
C115	C	-0.335475	-1.049212	-1.012577
C116	C	0.164525	-0.549212	-0.512577
C117	C	-0.421461	-0.955972	-1.019746
C118	C	0.078539	-0.455972	-0.519746
C119	C	-0.424296	-0.952900	-0.946477
C120	C	0.075704	-0.452900	-0.446477
C121	C	-0.382726	-0.997987	-0.906260
C122	C	0.117274	-0.497987	-0.406260
N123	N	-0.348517	-1.035091	-0.795456
N124	N	0.151483	-0.535091	-0.295456
N125	N	-0.385634	-0.994845	-0.831370
N126	N	0.114366	-0.494845	-0.331370
C127	C	-0.374218	-1.007257	-0.130786
C128	C	0.125782	-0.507257	0.369214
C129	C	-0.377046	-1.004132	-0.052795
C130	C	0.122954	-0.504132	0.447205
H131	H	-0.271648	-0.754419	-0.401491
H132	H	0.228352	-0.254419	0.098509
O133	O	-0.475992	-0.414075	-0.212540
O134	O	0.024008	0.085925	0.287460
C135	C	-0.544602	-0.394077	-0.231344
C136	C	-0.044602	0.105923	0.268656
H137	H	-0.545224	-0.376161	-0.288313
H138	H	-0.045224	0.123839	0.211687
H139	H	-0.581495	-0.440651	-0.224818
H140	H	-0.081495	0.059349	0.275182
H141	H	-0.562568	-0.349248	-0.196106
H142	H	-0.062568	0.150752	0.303894
H143	H	-0.462806	-0.276006	-0.224597
H144	H	0.037194	0.223994	0.275403
H145	H	-0.434828	-0.941493	-0.587343
H146	H	0.065172	-0.441493	-0.087343
O147	O	-0.436117	-0.939982	-0.726663
O148	O	0.063883	-0.439982	-0.226663
C149	C	-0.392647	-0.898001	-0.769125
C150	C	0.107353	-0.398001	-0.269125
H151	H	-0.340085	-0.925275	-0.776939
H152	H	0.159915	-0.425275	-0.276939
H153	H	-0.418836	-0.889661	-0.822195
H154	H	0.081164	-0.389661	-0.322195
H155	H	-0.383871	-0.845122	-0.742578
H156	H	0.116129	-0.345122	-0.242578
O157	O	-0.461767	-0.912083	-1.058782
O158	O	0.038233	-0.412083	-0.558782
C159	C	-0.444226	-0.842010	-1.042916
C160	C	0.055774	-0.342010	-0.542916
H161	H	-0.388813	-0.839810	-1.020587
H162	H	0.111187	-0.339810	-0.520587
H163	H	-0.446957	-0.809137	-1.092682
H164	H	0.053043	-0.309137	-0.592682
H165	H	-0.482722	-0.820421	-1.002652
H166	H	0.017278	-0.320421	-0.502652
H167	H	-0.278838	-1.110667	-0.574329
H168	H	0.221162	-0.610667	-0.074329
H169	H	-0.640783	-1.082572	-0.239714
H170	H	-0.140783	-0.582572	0.260286
H171	H	-0.293939	-0.289230	-0.380907
H172	H	0.206061	0.210770	0.119093
H173	H	-0.973021	-1.108432	-0.211929
H174	H	-0.473021	-0.608432	0.288071
H175	H	-1.105952	-1.103361	-0.217494
H176	H	-0.605952	-0.603361	0.282506
O177	O	-0.765984	-0.914434	-0.421710
O178	O	-0.265984	-0.414434	0.078290
C179	C	-0.839279	-0.920902	-0.414775
C180	C	-0.339279	-0.420902	0.085225
H181	H	-0.852346	-0.941271	-0.360188
H182	H	-0.352346	-0.441271	0.139812
H183	H	-0.864792	-0.867483	-0.422675
H184	H	-0.364792	-0.367483	0.077325
H185	H	-0.859966	-0.959180	-0.455854
H186	H	-0.359966	-0.459180	0.044146
O187	O	-0.292338	-0.428368	-0.382333
O188	O	0.207662	0.071632	0.117667
C189	C	-0.249271	-0.383540	-0.422223
C190	C	0.250729	0.116460	0.077777
H191	H	-0.245738	-0.330197	-0.395410
H192	H	0.254262	0.169803	0.104590
H193	H	-0.194596	-0.407181	-0.426677
H194	H	0.305404	0.092819	0.073323
H195	H	-0.272654	-0.376993	-0.476836
H196	H	0.227346	0.123007	0.023164
O197	O	-0.467535	-0.906181	-0.914417
O198	O	0.032465	-0.406181	-0.414417
C199	C	-0.537405	-0.919503	-0.934644
C200	C	-0.037405	-0.419503	-0.434644
H201	H	-0.542524	-0.976257	-0.952764
H202	H	-0.042524	-0.476257	-0.452764
H203	H	-0.573678	-0.910060	-0.888135
H204	H	-0.073678	-0.410060	-0.388135
H205	H	-0.552510	-0.882966	-0.979389
H206	H	-0.052510	-0.382966	-0.479389
O207	O	-0.292316	-1.096056	-1.044570
O208	O	0.207684	-0.596056	-0.544570
C209	C	-0.256221	-1.135181	-0.993364
C210	C	0.243779	-0.635181	-0.493364
H211	H	-0.287083	-1.134301	-0.942236
H212	H	0.212917	-0.634301	-0.442236
H213	H	-0.250225	-1.191633	-1.012105
H214	H	0.249775	-0.691633	-0.512105
H215	H	-0.202168	-1.111249	-0.984344
H216	H	0.297832	-0.611249	-0.484344
O217	O	-0.297872	-1.089824	-0.900182
O218	O	0.202128	-0.589824	-0.400182
C219	C	-0.252523	-1.049858	-0.857485
C220	C	0.247477	-0.549858	-0.357485
H221	H	-0.275496	-0.995279	-0.849562
H222	H	0.224504	-0.495279	-0.349562
H223	H	-0.246274	-1.076641	-0.804481
H224	H	0.253726	-0.576641	-0.304481
H225	H	-0.199131	-1.045337	-0.883884
H226	H	0.300869	-0.545337	-0.383884
H227	H	-0.440508	-0.741194	-0.245175
H228	H	0.059492	-0.241194	0.254825
O229	O	-1.098011	-0.940265	-0.394048
O230	O	-0.598011	-0.440265	0.105952
C231	C	-1.046800	-0.904116	-0.433124
C232	C	-0.546800	-0.404116	0.066876
H233	H	-0.995648	-0.934943	-0.432286
H234	H	-0.495648	-0.434943	0.067714
H235	H	-1.065502	-0.898106	-0.489567
H236	H	-0.565502	-0.398106	0.010433
H237	H	-1.037840	-0.850069	-0.409118
H238	H	-0.537840	-0.350069	0.090882
H239	H	-0.434972	-0.608285	-0.250322
H240	H	0.065028	-0.108285	0.249678
O241	O	-0.779921	-1.084067	-0.238138
O242	O	-0.279921	-0.584067	0.261862
C243	C	-0.735042	-1.123881	-0.195046
C244	C	-0.235042	-0.623881	0.304954
H245	H	-0.681737	-1.097035	-0.191513
H246	H	-0.181737	-0.597035	0.308487
H247	H	-0.758684	-1.128281	-0.140374
H248	H	-0.258684	-0.628281	0.359626
H249	H	-0.728415	-1.178520	-0.218402
H250	H	-0.228415	-0.678520	0.281598
H251	H	-0.960004	-0.952330	-0.380865
H252	H	-0.460004	-0.452330	0.119135
H253	H	-0.627756	-0.926471	-0.408653
H254	H	-0.127756	-0.426471	0.091347
O255	O	-0.266609	-1.123776	-0.712364
O256	O	0.233391	-0.623776	-0.212364
C257	C	-0.196741	-1.110414	-0.692159
C258	C	0.303259	-0.610414	-0.192159
H259	H	-0.196225	-1.081272	-0.639937
H260	H	0.303775	-0.581272	-0.139937
H261	H	-0.167494	-1.162168	-0.686402
H262	H	0.332506	-0.662168	-0.186402
H263	H	-0.170006	-1.076998	-0.733798
H264	H	0.329994	-0.576998	-0.233798
H265	H	-0.266110	-0.621500	-0.406641
H266	H	0.233890	-0.121500	0.093359
