data_functionalizedCrystal
_audit_creation_method	'MofGen! by Chris Wilmer'
_symmetry_space_group_name_H-M	'P1'
_symmetry_Int_Tables_number	1
_symmetry_cell_setting	triclinic
loop_
_symmetry_equiv_pos_as_xyz
  x,y,z
_cell_length_a	19.077105
_cell_length_b	21.295418
_cell_length_c	19.076919
_cell_angle_alpha	87.731568
_cell_angle_beta	89.923776
_cell_angle_gamma	87.723635
loop_
_atom_site_label
_atom_site_type_symbol
_atom_site_fract_x
_atom_site_fract_y
_atom_site_fract_z
Zn1	Zn	1.058254	-0.304535	0.440398
Zn2	Zn	1.062888	-0.405749	0.322885
Zn3	Zn	0.945472	-0.296103	0.318192
Zn4	Zn	0.940710	-0.405369	0.435637
O5	O	1.001831	-0.352939	0.379278
O6	O	1.157200	-0.321650	0.428766
O7	O	1.051245	-0.387834	0.223931
O8	O	0.960486	-0.209135	0.334431
O9	O	1.160605	-0.396011	0.342429
O10	O	1.043346	-0.215330	0.424216
O11	O	0.964980	-0.307277	0.220483
O12	O	0.846509	-0.306909	0.329815
O13	O	0.952370	-0.395364	0.534600
O14	O	0.843010	-0.387187	0.416101
O15	O	1.038729	-0.321282	0.538097
O16	O	1.046627	-0.493785	0.337813
O17	O	0.956863	-0.493506	0.420652
C18	C	0.819263	-0.346092	0.371933
C19	C	0.741159	-0.343179	0.368807
C20	C	0.702665	-0.383665	0.412193
C21	C	0.629278	-0.380919	0.409259
C22	C	0.594386	-0.337690	0.362936
C23	C	0.632885	-0.297200	0.319549
C24	C	0.706271	-0.299943	0.322486
C25	C	0.375100	-0.324995	0.349344
C26	C	0.301709	-0.322257	0.346409
C27	C	0.298107	-0.405975	0.436121
C28	C	0.371494	-0.408717	0.439051
C29	C	0.409986	-0.368225	0.395666
N30	N	0.519373	-0.334884	0.359935
N31	N	0.484998	-0.371028	0.398671
C32	C	1.001750	-0.516486	0.379241
C33	C	1.001779	-0.586456	0.379251
C34	C	1.048735	-1.086051	0.336264
C35	C	1.048709	-1.020307	0.336246
C36	C	1.001928	-0.987304	0.379331
C37	C	0.955157	-1.020049	0.422424
C38	C	0.955180	-1.085791	0.422435
N39	N	0.993992	-0.885967	0.440598
N40	N	0.993974	-0.823515	0.440586
C41	C	1.001856	-0.789225	0.379299
N42	N	1.009769	-0.819748	0.318024
N43	N	1.009790	-0.882206	0.318037
C44	C	1.001898	-0.916017	0.379323
C45	C	1.048592	-0.685201	0.336186
C46	C	1.048561	-0.619455	0.336167
C47	C	0.955013	-0.619198	0.422351
C48	C	0.955040	-0.684942	0.422364
C49	C	1.001834	-0.717939	0.379282
C50	C	1.185112	-0.359813	0.386652
C51	C	1.263215	-0.362742	0.389794
C52	C	0.994501	-0.359221	0.562558
C53	C	0.991377	-0.361898	0.640661
C54	C	1.001931	-0.188754	0.379331
C55	C	1.001973	-0.118788	0.379354
C56	C	1.009173	-0.346638	0.196713
C57	C	1.012432	-0.343789	0.118616
C58	C	1.034870	-0.324587	0.679176
C59	C	1.031927	-0.327099	0.752561
C60	C	0.985494	-0.366927	0.787431
C61	C	0.941996	-0.404239	0.748910
C62	C	0.944937	-0.401723	0.675526
C63	C	0.971875	-0.378585	1.006711
C64	C	0.968939	-0.381100	1.080101
C65	C	1.058870	-0.303959	1.083747
C66	C	1.061809	-0.301449	1.010361
C67	C	1.018309	-0.338759	0.971847
N68	N	0.982485	-0.369497	0.862443
N69	N	1.021314	-0.336184	0.896836
H70	H	0.399898	-0.443920	0.476771
H71	H	1.099622	-0.269019	0.981975
H72	H	0.931126	-0.413534	1.108489
F73	F	0.925578	-0.418294	0.965731
F74	F	0.257135	-0.449068	0.482289
H75	H	1.086836	-1.112913	0.301181
H76	H	0.917066	-0.993174	0.457503
H77	H	0.917100	-1.112445	0.457526
H78	H	1.067345	-0.296718	0.783917
H79	H	0.916920	-0.592327	0.457429
F80	F	0.892575	-0.446624	0.786023
H81	H	1.094284	-0.273582	1.115112
H82	H	0.909513	-0.432099	0.644167
F83	F	1.098389	-0.720321	0.290332
F84	F	0.416057	-0.281898	0.303172
F85	F	0.739793	-0.429678	0.461493
H86	H	1.086789	-0.993647	0.301156
F87	F	0.747238	-0.256851	0.276310
H88	H	1.072683	-0.292157	0.650790
F89	F	0.905275	-0.719785	0.468233
F90	F	0.264576	-0.276248	0.297099
F91	F	0.588313	-0.424009	0.455437
F92	F	0.595749	-0.251189	0.270252
H93	H	1.086638	-0.592800	0.301074
