data_functionalizedCrystal
_audit_creation_method	'MofGen! by Chris Wilmer'
_symmetry_space_group_name_H-M	'P1'
_symmetry_Int_Tables_number	1
_symmetry_cell_setting	triclinic
loop_
_symmetry_equiv_pos_as_xyz
  x,y,z
_cell_length_a	15.944499
_cell_length_b	15.538191
_cell_length_c	14.185328
_cell_angle_alpha	71.747469
_cell_angle_beta	104.776147
_cell_angle_gamma	114.625148
loop_
_atom_site_label
_atom_site_type_symbol
_atom_site_fract_x
_atom_site_fract_y
_atom_site_fract_z
O1	O	-0.261638	-1.269021	0.083451
O2	O	-0.164645	-0.994746	0.083444
O3	O	-0.337711	-1.139399	0.083449
O4	O	-0.088573	-1.124368	0.083445
O5	O	-0.360084	-1.101261	-0.083394
O6	O	-0.187018	-0.956608	-0.083399
O7	O	-0.284011	-1.230883	-0.083392
Cu8	Cu	-0.237557	-1.090263	-0.098630
Cu9	Cu	-0.211099	-1.135366	0.098681
O10	O	-0.110945	-1.086230	-0.083398
C11	C	-0.165684	-0.940580	0.000021
C12	C	-0.135456	-0.836002	0.000019
C13	C	-0.380004	-1.119716	0.000030
C14	C	-0.472689	-1.117872	0.000038
C15	C	-0.282972	-1.285050	0.000032
C16	C	-0.313199	-1.389630	0.000041
C17	C	-0.789852	-1.201910	0.000034
C18	C	-0.726537	-1.139420	-0.082233
C19	C	-0.806283	-1.111167	0.000026
C20	C	-0.704478	-1.176997	0.082261
C21	C	-0.642379	-1.114467	0.000033
C22	C	-0.744197	-1.048636	-0.082309
C23	C	-0.722139	-1.086242	0.082259
C24	C	-0.658823	-1.023681	-0.000028
C25	C	-0.900705	-1.109269	0.000021
C26	C	-0.547957	-1.116357	0.000031
C27	C	-0.068652	-1.105914	0.000024
C28	C	0.024034	-1.107759	0.000023
N29	N	-0.256169	-1.058548	-0.237408
C30	C	-0.435760	-0.548259	0.000039
C31	C	-0.407335	-0.449989	0.000040
C32	C	-0.247452	-0.427523	0.000037
C33	C	-0.275864	-0.525791	0.000032
C34	C	-0.370019	-0.586153	0.000034
C35	C	-0.210123	-0.563685	0.000026
C36	C	-0.238533	-0.661946	0.000027
C37	C	-0.332683	-0.722314	0.000032
C38	C	-0.398428	-0.684414	0.000034
C39	C	-0.115967	-0.503324	0.000031
C40	C	-0.050227	-0.541217	0.000026
C41	C	-0.078637	-0.639479	0.000019
C42	C	-0.172787	-0.699847	0.000024
C43	C	-0.012891	-0.677379	0.000017
C44	C	-0.041301	-0.775640	0.000017
C45	C	-0.201197	-0.798108	0.000024
C46	C	-0.137767	-1.260194	-0.605013
C47	C	-0.151885	-1.236192	-0.710040
C48	C	-0.219001	-1.121958	-0.710026
C49	C	-0.204884	-1.145947	-0.604997
C50	C	-0.164268	-1.215067	-0.552499
C51	C	-0.231385	-1.100820	-0.552483
C52	C	-0.217274	-1.124812	-0.447463
C53	C	-0.176662	-1.193930	-0.394958
C54	C	-0.150157	-1.239058	-0.447479
C55	C	-0.272007	-1.031706	-0.604984
C56	C	-0.298508	-0.986579	-0.552470
C57	C	-0.284391	-1.010565	-0.447448
C58	C	-0.243779	-1.079684	-0.394942
C59	C	-0.310896	-0.965437	-0.394926
C60	C	-0.296785	-0.989428	-0.289906
C61	C	-0.229668	-1.103675	-0.289922
N62	N	-0.192496	-1.167089	0.237459
H63	H	-0.846156	-1.277199	-0.000043
H64	H	0.063771	-0.628221	0.000025
C65	C	-0.263670	-1.045928	-0.767780
H66	H	-0.268274	-1.038096	-0.837848
H67	H	-0.324158	-1.067369	-0.750547
H68	H	-0.226120	-0.985398	-0.750583
C69	C	-0.343178	-0.910548	-0.610223
H70	H	-0.347781	-0.902717	-0.680291
H71	H	-0.403665	-0.931990	-0.592990
H72	H	-0.305628	-0.850018	-0.593026
H73	H	-0.283502	-1.012180	-0.690498
C74	C	-0.122722	-1.285829	-0.767803
H75	H	-0.096506	-1.330423	-0.721492
H76	H	-0.175841	-1.319833	-0.808757
H77	H	-0.077811	-1.237848	-0.808784
H78	H	-0.170790	-0.378365	0.000039
C79	C	-0.105484	-1.315093	-0.389724
H80	H	-0.091725	-1.338540	-0.436039
H81	H	-0.049575	-1.285843	-0.348767
H82	H	-0.147611	-1.367817	-0.348745
C83	C	-0.727805	-1.169779	-0.176191
H84	H	-0.682515	-1.118937	-0.214928
H85	H	-0.713862	-1.227253	-0.156431
H86	H	-0.787828	-1.181863	-0.215192
C87	C	-0.084712	-0.395237	0.000030
H88	H	-0.019221	-0.364718	0.000041
H89	H	-0.115609	-0.363853	-0.058153
H90	H	-0.100011	-0.390459	0.058218
C91	C	-0.768001	-0.975334	-0.176367
H92	H	-0.827159	-0.974613	-0.175814
H93	H	-0.721835	-0.912163	-0.176607
H94	H	-0.769711	-0.994022	-0.234714
C95	C	-0.355574	-0.889414	-0.452682
H96	H	-0.360180	-0.881587	-0.522749
H97	H	-0.416061	-0.910861	-0.435446
H98	H	-0.318029	-0.828880	-0.435491
C99	C	-0.304767	-0.864513	0.000017
H100	H	-0.312267	-0.928458	0.000009
H101	H	-0.325167	-0.866330	0.058195
H102	H	-0.340757	-0.839723	-0.058176
H103	H	-0.686781	-1.231289	0.151805
C104	C	-0.582949	-0.921852	-0.000095
H105	H	-0.596516	-0.876406	-0.058584
H106	H	-0.581494	-0.902609	0.057786
H107	H	-0.524023	-0.923719	0.000449
H108	H	-0.721231	-1.063791	0.151809
H109	H	-0.104682	-1.316468	-0.562266
H110	H	-0.355811	-0.802328	0.000045
C111	C	-0.501997	-0.750819	0.000041
H112	H	-0.537085	-0.714181	0.000050
H113	H	-0.524207	-0.776324	-0.058136
H114	H	-0.508591	-0.802913	0.058235
C115	C	-0.325929	-0.939786	-0.232137
H116	H	-0.352130	-0.895178	-0.278444
H117	H	-0.370831	-0.987757	-0.191149
H118	H	-0.272797	-0.905780	-0.191188
C119	C	-0.539328	-0.614664	0.000047
H120	H	-0.574416	-0.578026	0.000055
H121	H	-0.561538	-0.640169	-0.058131
H122	H	-0.545922	-0.666758	0.058240
H123	H	0.026435	-0.492059	0.000028
C124	C	-0.479656	-0.408310	0.000043
H125	H	-0.539799	-0.458333	0.000039
H126	H	-0.464094	-0.383745	0.058225
H127	H	-0.479703	-0.357144	-0.058146
C128	C	0.031011	-0.817327	0.000011
H129	H	0.091153	-0.767304	0.000001
H130	H	0.031052	-0.868493	0.058194
H131	H	0.015446	-0.841890	-0.058177
H132	H	-0.196582	-1.159948	-0.247175
C133	C	-0.161146	-1.220334	-0.279438
H134	H	-0.133171	-1.267968	-0.255695
H135	H	-0.121337	-1.163682	-0.255684
H136	H	-0.219370	-1.245661	-0.255667
