data_functionalizedCrystal
_audit_creation_method	'MofGen! by Chris Wilmer'
_symmetry_space_group_name_H-M	'P1'
_symmetry_Int_Tables_number	1
_symmetry_cell_setting	triclinic
loop_
_symmetry_equiv_pos_as_xyz
  x,y,z
_cell_length_a	10.654545
_cell_length_b	11.026607
_cell_length_c	9.130313
_cell_angle_alpha	89.997484
_cell_angle_beta	89.996934
_cell_angle_gamma	96.534548
loop_
_atom_site_label
_atom_site_type_symbol
_atom_site_fract_x
_atom_site_fract_y
_atom_site_fract_z
O1	O	1.704905	0.170741	-0.121780
O2	O	1.342959	0.187016	-0.121786
O3	O	1.493935	0.001973	-0.121778
O4	O	1.553930	0.355783	-0.121788
O5	O	1.493920	0.001968	0.121821
O6	O	1.342945	0.187011	0.121813
O7	O	1.704891	0.170735	0.121819
Cu8	Cu	1.523917	0.178872	0.144058
Cu9	Cu	1.523934	0.178879	-0.144025
O10	O	1.553916	0.355778	0.121811
C11	C	1.295895	0.185819	0.000013
C12	C	1.155676	0.182248	0.000011
C13	C	1.089798	0.180563	0.132797
C14	C	0.958046	0.177187	0.132797
C15	C	0.958061	0.177185	-0.132787
C16	C	1.089810	0.180552	-0.132786
C17	C	1.482859	-0.043333	0.000019
C18	C	1.449865	-0.178324	0.000014
C19	C	1.540968	-0.251365	0.000013
C20	C	1.506869	-0.390886	0.000007
C21	C	1.751955	0.171932	0.000017
C22	C	1.892174	0.175504	0.000010
C23	C	1.564991	0.401085	0.000010
C24	C	1.597985	0.536076	0.000006
N25	N	1.523914	0.178867	0.346681
N26	N	1.523944	0.178874	-0.346648
C27	C	1.590802	0.096965	0.423336
C28	C	1.590814	0.096965	0.576673
C29	C	1.457048	0.260780	0.576686
C30	C	1.457029	0.260773	0.423352
H31	H	1.143448	0.181920	-0.240923
O32	O	1.721098	-0.415119	0.000072
C33	C	1.867334	-0.231560	-0.000018
C34	C	1.727862	-0.286669	-0.000056
H35	H	1.872848	-0.127701	-0.000153
H36	H	1.916230	-0.263020	0.101951
H37	H	1.916182	-0.263174	-0.101941
H38	H	1.678906	-0.255081	0.101797
H39	H	1.679060	-0.255214	-0.102093
O40	O	1.392030	0.340456	0.349106
C41	C	1.259290	0.502889	0.365287
C42	C	1.332872	0.412744	0.449552
H43	H	1.211420	0.561339	0.446461
H44	H	1.327288	0.564195	0.293516
H45	H	1.184612	0.449799	0.293484
H46	H	1.407552	0.465735	0.521435
H47	H	1.264797	0.351438	0.521231
O48	O	1.383628	-0.439291	-0.000064
C49	C	1.165929	-0.399346	0.000021
C50	C	1.305442	-0.344364	0.000068
H51	H	1.102676	-0.322624	0.000159
H52	H	1.145856	-0.458015	-0.101953
H53	H	1.145976	-0.458119	0.101939
H54	H	1.325493	-0.285536	-0.101780
H55	H	1.325445	-0.285766	0.102110
H56	H	0.904415	0.175816	0.240926
H57	H	1.143423	0.181944	0.240929
H58	H	0.904417	0.175806	-0.240906
H59	H	1.644209	-0.210606	0.000024
H60	H	1.346624	-0.219083	0.000003
H61	H	1.645261	0.030270	0.360915
H62	H	1.645279	0.030272	0.639082
H63	H	1.402594	0.327469	0.639127
