data_functionalizedCrystal
_audit_creation_method	'MofGen! by Chris Wilmer'
_symmetry_space_group_name_H-M	'P1'
_symmetry_Int_Tables_number	1
_symmetry_cell_setting	triclinic
loop_
_symmetry_equiv_pos_as_xyz
  x,y,z
_cell_length_a	18.215407
_cell_length_b	18.050590
_cell_length_c	18.215399
_cell_angle_alpha	89.971265
_cell_angle_beta	89.982187
_cell_angle_gamma	90.013065
loop_
_atom_site_label
_atom_site_type_symbol
_atom_site_fract_x
_atom_site_fract_y
_atom_site_fract_z
Zn1	Zn	1.125104	-0.295776	-0.416072
Zn2	Zn	1.125026	-0.419971	-0.293004
Zn3	Zn	1.002037	-0.295787	-0.293024
Zn4	Zn	1.002016	-0.419917	-0.416033
O5	O	1.063546	-0.357863	-0.354533
O6	O	1.228078	-0.312268	-0.399755
O7	O	1.108687	-0.403525	-0.190022
O8	O	1.018403	-0.191861	-0.309371
O9	O	1.228021	-0.403514	-0.309337
O10	O	1.108820	-0.191853	-0.399774
O11	O	1.018328	-0.312288	-0.190037
O12	O	0.899050	-0.312235	-0.309333
O13	O	1.018368	-0.403422	-0.519023
O14	O	0.899035	-0.403433	-0.399708
O15	O	1.108800	-0.312216	-0.519051
O16	O	1.108668	-0.523888	-0.309300
O17	O	1.018293	-0.523848	-0.399689
C18	C	0.872340	-0.357830	-0.354519
C19	C	0.790541	-0.357834	-0.354530
C20	C	0.525507	-0.310443	-0.401689
C21	C	0.602366	-0.310431	-0.401686
C22	C	0.602326	-0.405307	-0.307394
C23	C	0.525468	-0.405322	-0.307401
C24	C	0.487061	-0.357886	-0.354547
C25	C	0.640777	-0.357858	-0.354538
C26	C	0.724111	-0.357846	-0.354535
C27	C	0.403722	-0.357899	-0.354551
C28	C	1.063489	-0.550815	-0.354504
C29	C	1.063532	-0.633360	-0.354516
C30	C	1.112781	-0.832806	-0.305431
C31	C	1.130758	-0.882140	-0.372597
C32	C	1.063574	-0.784491	-0.354545
C33	C	1.045672	-0.882239	-0.287409
C34	C	1.063616	-0.930476	-0.354568
C35	C	1.081586	-0.832738	-0.421747
C36	C	0.996469	-0.832832	-0.336514
C37	C	1.014421	-0.882144	-0.403726
C38	C	1.063552	-0.700393	-0.354532
C39	C	1.063638	-1.014572	-0.354589
C40	C	1.255499	-0.357896	-0.354548
C41	C	1.337298	-0.357910	-0.354555
C42	C	1.063591	-0.357811	-0.546486
C43	C	1.063610	-0.357790	-0.628285
C44	C	1.063623	-0.164157	-0.354579
C45	C	1.063656	-0.081611	-0.354598
C46	C	1.110715	-0.310254	-0.816495
C47	C	1.110724	-0.310233	-0.893354
C48	C	1.016557	-0.405210	-0.893313
C49	C	1.016545	-0.405227	-0.816456
C50	C	1.063628	-0.357751	-0.778049
C51	C	1.063649	-0.357712	-0.931765
C52	C	1.063658	-0.357689	-1.015099
C53	C	1.063618	-0.357773	-0.694710
C54	C	1.063544	-0.357860	-0.163327
C55	C	1.063667	-0.357673	-0.081529
H56	H	0.633666	-0.271798	-0.440075
N57	N	0.925282	-0.805632	-0.317324
N58	N	0.917502	-0.765156	-0.262209
H59	H	0.867226	-0.745945	-0.248647
N60	N	1.158801	-0.261764	-0.777252
N61	N	1.205682	-0.287907	-0.734364
H62	H	1.239643	-0.253659	-0.706648
N63	N	0.641548	-0.453750	-0.259220
N64	N	0.607209	-0.496104	-0.217129
H65	H	0.634908	-0.530317	-0.183102
N66	N	1.158813	-0.261717	-0.932637
N67	N	1.132943	-0.214379	-0.975531
H68	H	1.166907	-0.180111	-1.003276
H69	H	0.978225	-0.443865	-0.924594
N70	N	0.968434	-0.453746	-0.777190
N71	N	0.926403	-0.496134	-0.811488
H72	H	0.892423	-0.530397	-0.783757
H73	H	1.096688	-0.811087	-0.478581
H74	H	0.494239	-0.271817	-0.440078
H75	H	0.494165	-0.443960	-0.269011
H76	H	1.154407	-0.811142	-0.263940
H77	H	1.187525	-0.903800	-0.387863
H78	H	0.972826	-0.903671	-0.445318
H79	H	1.030513	-0.903981	-0.230624
