data_functionalizedCrystal
_audit_creation_method	'MofGen! by Chris Wilmer'
_symmetry_space_group_name_H-M	'P1'
_symmetry_Int_Tables_number	1
_symmetry_cell_setting	triclinic
loop_
_symmetry_equiv_pos_as_xyz
  x,y,z
_cell_length_a	12.759387
_cell_length_b	12.759401
_cell_length_c	12.759400
_cell_angle_alpha	90.014845
_cell_angle_beta	90.030602
_cell_angle_gamma	90.018269
loop_
_atom_site_label
_atom_site_type_symbol
_atom_site_fract_x
_atom_site_fract_y
_atom_site_fract_z
Zn1	Zn	-0.593982	-1.606253	0.418210
Zn2	Zn	-0.418302	-1.606148	0.593926
Zn3	Zn	-0.418321	-1.430556	0.418262
Zn4	Zn	-0.593943	-1.430544	0.593848
O5	O	-0.506137	-1.518375	0.506061
O6	O	-0.570685	-1.753260	0.441530
O7	O	-0.271283	-1.582817	0.570678
O8	O	-0.441647	-1.453911	0.271234
O9	O	-0.441614	-1.753183	0.570627
O10	O	-0.570704	-1.582995	0.271196
O11	O	-0.271297	-1.453810	0.441618
O12	O	-0.441610	-1.283533	0.441543
O13	O	-0.740970	-1.453891	0.570495
O14	O	-0.570639	-1.283524	0.570545
O15	O	-0.740998	-1.582984	0.441454
O16	O	-0.441577	-1.582805	0.740936
O17	O	-0.570620	-1.453789	0.740879
C18	C	-0.506123	-1.245408	0.506042
C19	C	-0.506141	-1.128631	0.506059
C20	C	-0.506115	-1.518313	0.779029
C21	C	-0.506141	-1.518382	0.895805
C22	C	-0.780170	-1.518448	0.505960
C23	C	-0.896947	-1.518479	0.505917
C24	C	-1.116420	-1.652970	0.371473
C25	C	-1.061573	-1.720168	0.304308
C26	C	-0.951851	-1.720139	0.304343
C27	C	-0.896974	-1.652905	0.371552
C28	C	-0.951822	-1.585707	0.438717
C29	C	-1.061546	-1.585742	0.438673
C30	C	-0.951795	-1.451280	0.573082
C31	C	-1.061516	-1.451303	0.573043
C32	C	-0.896918	-1.384047	0.640291
C33	C	-0.951765	-1.316841	0.707452
C34	C	-1.061493	-1.316873	0.707413
C35	C	-1.116364	-1.384104	0.640208
C36	C	-0.233169	-1.518363	0.506086
C37	C	-0.116393	-1.518536	0.505834
C38	C	-0.506152	-1.792408	0.506081
C39	C	-0.506158	-1.909185	0.506090
C40	C	-0.573216	-1.073792	0.573338
C41	C	-0.573227	-0.964068	0.573351
C42	C	-0.439081	-0.964032	0.438804
C43	C	-0.439076	-1.073754	0.438786
C44	C	-0.640281	-1.128669	0.640611
C45	C	-0.707360	-1.073830	0.707896
C46	C	-0.707372	-0.964106	0.707910
C47	C	-0.640304	-0.909221	0.640638
C48	C	-0.506182	-1.518466	0.232028
C49	C	-0.506201	-1.518505	0.115251
C50	C	-0.439022	-1.585635	0.950662
C51	C	-0.439055	-1.585700	1.060386
C52	C	-0.573327	-1.451249	1.060387
C53	C	-0.573299	-1.451191	0.950665
C54	C	-0.371864	-1.652827	0.895803
C55	C	-0.304739	-1.720085	0.950660
C56	C	-0.304772	-1.720149	1.060384
C57	C	-0.371929	-1.652956	1.115251
H58	H	-1.106266	-1.774910	0.249590
H59	H	-0.628002	-1.396543	1.105068
N60	N	-0.892686	-1.792621	0.231911
H61	H	-0.944095	-1.835220	0.189331
H62	H	-0.847170	-1.749858	0.183303
H63	H	-0.761971	-1.118525	0.762660
H64	H	-0.761998	-0.919459	0.762689
N65	N	-0.366736	-1.132911	0.366220
H66	H	-0.324245	-1.081500	0.323611
H67	H	-0.318041	-1.178416	0.408921
N68	N	-0.232377	-1.792681	1.119559
H69	H	-0.275122	-1.841375	1.165008
H70	H	-0.189843	-1.835164	1.068090
N71	N	-0.645694	-1.378660	0.891488
H72	H	-0.688237	-1.336099	0.942889
H73	H	-0.602876	-1.330040	0.846033
H74	H	-0.384477	-0.919336	0.384035
H75	H	-0.640328	-0.819876	0.640645
N76	N	-0.640261	-1.247013	0.640603
H77	H	-0.692922	-1.273458	0.693429
H78	H	-0.659667	-1.273382	0.568518
H79	H	-0.807633	-1.652896	0.371584
N80	N	-0.778576	-1.384007	0.640340
H81	H	-0.752140	-1.456063	0.659665
H82	H	-0.752242	-1.364663	0.568261
N83	N	-0.371823	-1.652750	0.777460
H84	H	-0.319095	-1.705518	0.751028
H85	H	-0.443938	-1.671980	0.751034
N86	N	-0.892580	-1.244340	0.779942
H87	H	-0.814750	-1.254524	0.769778
H88	H	-0.911751	-1.169315	0.763574
N89	N	-0.371977	-1.653033	1.233596
H90	H	-0.319270	-1.705838	1.260026
H91	H	-0.352644	-1.580952	1.260022
H92	H	-1.205761	-1.652987	0.371424
H93	H	-1.106144	-1.262155	0.762111
H94	H	-1.205705	-1.384130	0.640163
N95	N	-0.232320	-1.792565	0.891490
H96	H	-0.242481	-1.782321	0.813657
H97	H	-0.157276	-1.776266	0.910744
