data_functionalizedCrystal
_audit_creation_method	'MofGen! by Chris Wilmer'
_symmetry_space_group_name_H-M	'P1'
_symmetry_Int_Tables_number	1
_symmetry_cell_setting	triclinic
loop_
_symmetry_equiv_pos_as_xyz
  x,y,z
_cell_length_a	16.959455
_cell_length_b	18.101397
_cell_length_c	16.959447
_cell_angle_alpha	89.966326
_cell_angle_beta	89.985299
_cell_angle_gamma	90.019893
loop_
_atom_site_label
_atom_site_type_symbol
_atom_site_fract_x
_atom_site_fract_y
_atom_site_fract_z
Zn1	Zn	1.208382	-0.294826	-0.446898
Zn2	Zn	1.708382	0.205174	0.053102
Zn3	Zn	1.208303	-0.418679	-0.314712
Zn4	Zn	1.708303	0.081321	0.185288
Zn5	Zn	1.076210	-0.294855	-0.314735
Zn6	Zn	1.576210	0.205145	0.185265
Zn7	Zn	1.076174	-0.418629	-0.446850
Zn8	Zn	1.576174	0.081371	0.053150
O9	O	1.142267	-0.356747	-0.380799
O10	O	1.642267	0.143253	0.119201
O11	O	1.318982	-0.311265	-0.429374
O12	O	1.818982	0.188735	0.070626
O13	O	1.190763	-0.402287	-0.204104
O14	O	1.690763	0.097713	0.295896
O15	O	1.093791	-0.191218	-0.332297
O16	O	1.593791	0.308782	0.167703
O17	O	1.318924	-0.402259	-0.332258
O18	O	1.818924	0.097741	0.167742
O19	O	1.190897	-0.191197	-0.429396
O20	O	1.690897	0.308803	0.070604
O21	O	1.093715	-0.311313	-0.204121
O22	O	1.593715	0.188687	0.295879
O23	O	0.965594	-0.311265	-0.332249
O24	O	1.465594	0.188735	0.167751
O25	O	1.093729	-0.402174	-0.557467
O26	O	1.593729	0.097826	-0.057467
O27	O	0.965568	-0.402201	-0.429314
O28	O	1.465568	0.097799	0.070686
O29	O	1.190862	-0.311216	-0.557503
O30	O	1.690862	0.188784	-0.057503
O31	O	1.190728	-0.522306	-0.332210
O32	O	1.690728	-0.022306	0.167790
O33	O	1.093653	-0.522269	-0.429291
O34	O	1.593653	-0.022269	0.070709
C35	C	0.936901	-0.356731	-0.380779
C36	C	1.436901	0.143269	0.119221
C37	C	0.849044	-0.356742	-0.380790
C38	C	1.349044	0.143258	0.119210
C39	C	0.807738	-0.404051	-0.330154
C40	C	1.307738	0.095949	0.169846
C41	C	0.807797	-0.309439	-0.431432
C42	C	1.307797	0.190561	0.068568
C43	C	0.725251	-0.309445	-0.431441
C44	C	1.225251	0.190555	0.068559
C45	C	0.683945	-0.356754	-0.380805
C46	C	1.183945	0.143246	0.119195
C47	C	0.725185	-0.404057	-0.330160
C48	C	1.225185	0.095943	0.169840
C49	C	0.684005	-0.262137	-0.482080
C50	C	1.184005	0.237863	0.017920
C51	C	0.601454	-0.262141	-0.482091
C52	C	1.101454	0.237859	0.017909
C53	C	0.560146	-0.309454	-0.431459
C54	C	1.060146	0.190546	0.068541
C55	C	0.601391	-0.356760	-0.380812
C56	C	1.101391	0.143240	0.119188
C57	C	0.560086	-0.404069	-0.330175
C58	C	1.060086	0.095931	0.169825
C59	C	0.601329	-0.451379	-0.279532
C60	C	1.101329	0.048621	0.220468
C61	C	0.683878	-0.451370	-0.279527
C62	C	1.183878	0.048630	0.220473
C63	C	0.477598	-0.309462	-0.431463
C64	C	0.977598	0.190538	0.068537
C65	C	0.477532	-0.404074	-0.330182
C66	C	0.977532	0.095926	0.169818
C67	C	1.142200	-0.549158	-0.380760
C68	C	1.642200	-0.049158	0.119240
C69	C	1.142243	-0.631472	-0.380770
C70	C	1.642243	-0.131472	0.119230
C71	C	1.142344	-0.930563	-0.380843
C72	C	1.642344	-0.430563	0.119157
C73	C	1.203250	-0.899230	-0.319598
C74	C	1.703250	-0.399230	0.180402
C75	C	1.203461	-0.813611	-0.319757
C76	C	1.703461	-0.313611	0.180243
C77	C	1.142294	-0.782180	-0.380806
C78	C	1.642294	-0.282180	0.119194
C79	C	1.164869	-0.813184	-0.464123
C80	C	1.664869	-0.313184	0.035877
C81	C	1.165340	-0.898829	-0.463789
C82	C	1.665340	-0.398829	0.036211
C83	C	1.058699	-0.899072	-0.359492
C84	C	1.558699	-0.399072	0.140508
C85	C	1.059113	-0.813423	-0.357632
C86	C	1.559113	-0.313423	0.142368
C87	C	1.142264	-0.698321	-0.380791
C88	C	1.642264	-0.198321	0.119209
C89	C	1.142375	-1.014422	-0.380864
C90	C	1.642375	-0.514422	0.119136
C91	C	1.348435	-0.356764	-0.380819
C92	C	1.848435	0.143236	0.119181
C93	C	1.436292	-0.356771	-0.380827
C94	C	1.936292	0.143229	0.119173
C95	C	1.142300	-0.356686	-0.586967
C96	C	1.642300	0.143314	-0.086967
C97	C	1.142314	-0.356660	-0.674824
C98	C	1.642314	0.143340	-0.174824
C99	C	1.142357	-0.163585	-0.380854
C100	C	1.642357	0.336415	0.119146
C101	C	1.142395	-0.081271	-0.380878
C102	C	1.642395	0.418729	0.119122
C103	C	1.091836	-0.403939	-1.046283
C104	C	1.591836	0.096061	-0.546283
C105	C	1.192981	-0.309225	-1.046316
C106	C	1.692981	0.190775	-0.546316
C107	C	1.192960	-0.309240	-0.963770
C108	C	1.692960	0.190760	-0.463770
C109	C	1.142377	-0.356607	-0.922477
C110	C	1.642377	0.143393	-0.422477
C111	C	1.091815	-0.403958	-0.963730
C112	C	1.591815	0.096042	-0.463730
C113	C	1.243527	-0.261895	-0.922511
C114	C	1.743527	0.238105	-0.422511
C115	C	1.243508	-0.261910	-0.839959
C116	C	1.743508	0.238090	-0.339959
C117	C	1.192921	-0.309273	-0.798665
C118	C	1.692921	0.190727	-0.298665
C119	C	1.142356	-0.356626	-0.839923
C120	C	1.642356	0.143374	-0.339923
C121	C	1.091773	-0.403992	-0.798630
C122	C	1.591773	0.096008	-0.298630
C123	C	1.041204	-0.451342	-0.839887
C124	C	1.541204	0.048658	-0.339887
C125	C	1.041228	-0.451322	-0.922435
C126	C	1.541228	0.048678	-0.422435
C127	C	1.192897	-0.309293	-0.716117
C128	C	1.692897	0.190707	-0.216117
C129	C	1.091752	-0.404011	-0.716077
C130	C	1.591752	0.095989	-0.216077
C131	C	1.142280	-0.356755	-0.175432
C132	C	1.642280	0.143245	0.324568
C133	C	1.142419	-0.356573	-0.087576
C134	C	1.642419	0.143427	0.412424
H135	H	0.717466	-0.489886	-0.238294
H136	H	1.217466	0.010114	0.261706
Cl137	Cl	0.735935	-0.202667	-0.545733
Cl138	Cl	1.235935	0.297333	-0.045733
Cl139	Cl	0.859585	-0.463526	-0.266493
Cl140	Cl	1.359585	0.036474	0.233507
H141	H	1.050662	-0.442488	-1.079878
H142	H	1.550662	0.057512	-0.579878
H143	H	1.000023	-0.489911	-0.806255
H144	H	1.500023	0.010089	-0.306255
Cl145	Cl	1.256573	-0.249687	-1.098227
Cl146	Cl	1.756573	0.250313	-0.598227
H147	H	1.265421	-0.793068	-0.333884
H148	H	1.765421	-0.293068	0.166116
H149	H	0.841433	-0.270919	-0.472654
H150	H	1.341433	0.229081	0.027346
Cl151	Cl	1.181606	-0.781250	-0.224388
Cl152	Cl	1.681606	-0.281250	0.275612
Cl153	Cl	1.028154	-0.463557	-0.664172
Cl154	Cl	1.528154	0.036443	-0.164172
H155	H	1.284684	-0.223355	-0.806375
H156	H	1.784684	0.276645	-0.306375
Cl157	Cl	1.098468	-0.781757	-0.536471
Cl158	Cl	1.598468	-0.281757	-0.036471
Cl159	Cl	1.026988	-0.932518	-0.267318
Cl160	Cl	1.526988	-0.432518	0.232682
H161	H	1.226480	-0.918747	-0.481875
H162	H	1.726480	-0.418747	0.018125
H163	H	0.444021	-0.270938	-0.472691
H164	H	0.944021	0.229062	0.027309
Cl165	Cl	0.425611	-0.463556	-0.266525
Cl166	Cl	0.925611	0.036444	0.233475
Cl167	Cl	0.549392	-0.510845	-0.215872
Cl168	Cl	1.049392	-0.010845	0.284128
H169	H	1.225325	-0.791676	-0.482514
H170	H	1.725325	-0.291676	0.017486
Cl171	Cl	0.988635	-0.930358	-0.428358
Cl172	Cl	1.488635	-0.430358	0.071642
H173	H	1.042090	-0.793167	-0.296318
H174	H	1.542090	-0.293167	0.203682
Cl175	Cl	0.549612	-0.202671	-0.545760
Cl176	Cl	1.049612	0.297329	-0.045760
Cl177	Cl	0.985278	-0.780404	-0.421459
Cl178	Cl	1.485278	-0.280404	0.078541
Cl179	Cl	1.099817	-0.930829	-0.536636
Cl180	Cl	1.599817	-0.430829	-0.036636
Cl181	Cl	1.181717	-0.931110	-0.223929
Cl182	Cl	1.681717	-0.431110	0.276071
Cl183	Cl	1.298390	-0.932370	-0.341157
Cl184	Cl	1.798390	-0.432370	0.158843
Cl185	Cl	0.977666	-0.510844	-0.974305
Cl186	Cl	1.477666	-0.010844	-0.474305
Cl187	Cl	1.307118	-0.202358	-0.974424
Cl188	Cl	1.807118	0.297642	-0.474424
H189	H	1.234072	-0.270744	-0.682529
H190	H	1.734072	0.229256	-0.182529
