data_functionalizedCrystal
_audit_creation_method	'MofGen! by Chris Wilmer'
_symmetry_space_group_name_H-M	'P1'
_symmetry_Int_Tables_number	1
_symmetry_cell_setting	triclinic
loop_
_symmetry_equiv_pos_as_xyz
  x,y,z
_cell_length_a	13.185407
_cell_length_b	11.804365
_cell_length_c	13.339070
_cell_angle_alpha	74.887832
_cell_angle_beta	96.198611
_cell_angle_gamma	82.231268
loop_
_atom_site_label
_atom_site_type_symbol
_atom_site_fract_x
_atom_site_fract_y
_atom_site_fract_z
O1	O	1.387935	-0.098997	0.267892
O2	O	1.099104	-0.099004	0.173156
O3	O	1.210370	-0.098998	0.358762
O4	O	1.276668	-0.099003	0.082286
O5	O	1.181067	0.099056	0.309937
O6	O	1.069800	0.099050	0.124331
O7	O	1.358631	0.099057	0.219067
Cu8	Cu	1.211540	0.117137	0.167241
Cu9	Cu	1.246195	-0.117085	0.224982
O10	O	1.247365	0.099051	0.033461
C11	C	1.046730	0.000022	0.139140
C12	C	0.934325	0.000019	0.110534
C13	C	1.184520	0.000027	0.368990
C14	C	1.151139	0.000022	0.472206
C15	C	1.411006	0.000028	0.253084
C16	C	1.523411	0.000024	0.281692
N17	N	1.187173	0.281877	0.126632
C18	C	1.895274	0.000021	0.008679
C19	C	1.789663	0.000031	-0.018204
C20	C	1.723095	0.000029	0.056768
C21	C	1.762148	0.000018	0.158627
C22	C	1.867767	0.000017	0.185510
C23	C	1.695589	0.000025	0.233599
C24	C	1.734641	0.000014	0.335458
C25	C	1.840251	0.000013	0.362337
C26	C	1.906819	0.000015	0.287365
C27	C	1.589969	0.000025	0.206716
C28	C	1.562463	0.000021	0.383547
C29	C	1.668073	0.000012	0.410430
N30	N	1.270568	-0.281824	0.265601
C31	C	1.329077	0.655834	0.363137
C32	C	1.347509	0.531173	0.393862
C33	C	1.307426	0.468843	0.327057
C34	C	1.248909	0.531185	0.229522
C35	C	1.230483	0.655858	0.198791
C36	C	1.208831	0.468867	0.162711
C37	C	1.150315	0.531210	0.065176
C38	C	1.131890	0.655871	0.034450
C39	C	1.171973	0.718201	0.101255
C40	C	1.227258	0.344195	0.193442
C41	C	1.128663	0.344219	0.029096
C42	C	1.110232	0.468880	-0.001629
C43	C	1.273216	0.000023	0.023233
C44	C	1.306597	0.000021	-0.079980
C45	C	1.410693	0.000029	0.907661
C46	C	1.442058	0.000041	0.810685
C47	C	1.369331	0.000036	0.726061
C48	C	1.265234	0.000019	0.738421
C49	C	1.233865	0.000017	0.835405
C50	C	1.192503	0.000023	0.653804
C51	C	1.088405	0.000007	0.666165
C52	C	1.057042	0.000003	0.763140
C53	C	1.129769	0.000009	0.847764
C54	C	1.223872	0.000026	0.556821
C55	C	1.047043	0.000014	0.484565
C56	C	1.015679	0.000002	0.581541
H57	H	1.637103	0.000038	0.034873
H58	H	1.699885	0.000003	0.493365
H59	H	1.084253	0.706630	-0.044973
H60	H	1.558183	0.000036	0.123781
H61	H	1.757874	0.000039	-0.101138
C62	C	0.942531	0.000007	0.776727
C63	C	0.881435	0.102858	0.808099
C64	C	0.766923	0.102868	0.821679
C65	C	0.713508	0.000026	0.803889
C66	C	0.774604	-0.102833	0.772515
C67	C	0.889116	-0.102842	0.758934
H68	H	0.920976	0.178995	0.821270
H69	H	0.721696	0.179011	0.844904
H70	H	0.628739	0.000033	0.813942
H71	H	0.735063	-0.178969	0.759344
H72	H	0.934343	-0.178986	0.735709
H73	H	1.062586	0.519655	-0.081044
H74	H	1.104237	-0.000006	0.926734
H75	H	1.395154	0.480418	0.473273
C76	C	1.327690	0.331715	0.360855
C77	C	1.290383	0.263164	0.461135
C78	C	1.310645	0.126030	0.494940
C79	C	1.368213	0.057448	0.428465
C80	C	1.405524	0.125999	0.328178
C81	C	1.385263	0.263132	0.294373
H82	H	1.247764	0.313933	0.510349
H83	H	1.283025	0.075285	0.569179
H84	H	1.383212	-0.044067	0.453489
H85	H	1.448143	0.075229	0.278963
H86	H	1.412883	0.313878	0.220134
H87	H	1.949480	0.000032	-0.052354
H88	H	0.930921	-0.000011	0.591619
H89	H	0.987822	0.000015	0.415660
H90	H	1.992817	0.000011	0.309247
H91	H	1.096026	0.293471	-0.025304
H92	H	1.872041	0.000019	0.445273
H93	H	1.508271	-0.000035	0.444609
H94	H	1.361714	0.706591	0.417517
H95	H	1.274903	0.293446	0.272854
H96	H	1.156963	0.819710	0.076241
H97	H	1.308628	0.000040	0.546768
H98	H	1.394875	0.000046	0.647100
H99	H	1.526813	0.000056	0.800628
H100	H	1.469895	0.000043	0.976565
