data_functionalizedCrystal
_audit_creation_method	'MofGen! by Chris Wilmer'
_symmetry_space_group_name_H-M	'P1'
_symmetry_Int_Tables_number	1
_symmetry_cell_setting	triclinic
loop_
_symmetry_equiv_pos_as_xyz
  x,y,z
_cell_length_a	10.686220
_cell_length_b	18.101397
_cell_length_c	10.685884
_cell_angle_alpha	94.389329
_cell_angle_beta	80.951928
_cell_angle_gamma	94.402554
loop_
_atom_site_label
_atom_site_type_symbol
_atom_site_fract_x
_atom_site_fract_y
_atom_site_fract_z
Zn1	Zn	1.885308	-0.184320	0.569010
Zn2	Zn	2.385308	0.315680	1.069010
Zn3	Zn	1.901490	-0.316957	0.356746
Zn4	Zn	2.401490	0.183043	0.856746
Zn5	Zn	1.689370	-0.201966	0.373032
Zn6	Zn	2.189370	0.298034	0.873032
Zn7	Zn	1.673012	-0.316969	0.585195
Zn8	Zn	2.173012	0.183031	1.085195
O9	O	1.787295	-0.255053	0.470996
O10	O	2.287295	0.244947	0.970996
O11	O	2.065074	-0.194524	0.527263
O12	O	2.565074	0.305476	1.027263
O13	O	1.886970	-0.309083	0.181282
O14	O	2.386970	0.190917	0.681282
O15	O	1.715435	-0.095987	0.399071
O16	O	2.215435	0.404013	0.899071
O17	O	2.076963	-0.291972	0.371313
O18	O	2.576963	0.208028	0.871313
O19	O	1.859390	-0.083023	0.543055
O20	O	2.359390	0.416977	1.043055
O21	O	1.731126	-0.224600	0.193247
O22	O	2.231126	0.275400	0.693247
O23	O	1.509580	-0.224612	0.414766
O24	O	2.009580	0.275388	0.914766
O25	O	1.687556	-0.291993	0.760673
O26	O	2.187556	0.208007	1.260673
O27	O	1.497562	-0.309104	0.570641
O28	O	1.997562	0.190896	1.070641
O29	O	1.843529	-0.194536	0.748781
O30	O	2.343529	0.305464	1.248781
O31	O	1.871109	-0.420597	0.387008
O32	O	2.371109	0.079403	0.887008
O33	O	1.703247	-0.420606	0.554849
O34	O	2.203247	0.079394	1.054849
C35	C	1.457516	-0.268775	0.496228
C36	C	1.957516	0.231225	0.996228
C37	C	1.316433	-0.274662	0.507052
C38	C	1.816433	0.225338	1.007052
C39	C	1.787191	-0.447471	0.470943
C40	C	2.287191	0.052529	0.970943
C41	C	1.787260	-0.529781	0.470953
C42	C	2.287260	-0.029781	0.970953
C43	C	1.787413	-0.828861	0.471057
C44	C	2.287413	-0.328861	0.971057
C45	C	1.892773	-0.797521	0.365214
C46	C	2.392773	-0.297521	0.865214
C47	C	1.893093	-0.711878	0.365443
C48	C	2.393093	-0.211878	0.865443
C49	C	1.787337	-0.680484	0.471004
C50	C	2.287337	-0.180484	0.971004
C51	C	1.813310	-0.704444	0.602022
C52	C	2.313310	-0.204444	1.102022
C53	C	1.814108	-0.790079	0.601429
C54	C	2.314108	-0.290079	1.101429
C55	C	1.655729	-0.804383	0.447059
C56	C	2.155729	-0.304383	0.947059
C57	C	1.656622	-0.718829	0.444022
C58	C	2.156622	-0.218829	0.944022
C59	C	1.787291	-0.596627	0.470983
C60	C	2.287291	-0.096627	0.970983
C61	C	1.787461	-0.912717	0.471087
C62	C	2.287461	-0.412717	0.971087
C63	C	2.118361	-0.241278	0.445666
C64	C	2.618361	0.258722	0.945666
C65	C	2.259442	-0.235408	0.434872
C66	C	2.759442	0.264592	0.934872
C67	C	1.761913	-0.241298	0.802071
C68	C	2.261913	0.258702	1.302071
C69	C	1.751096	-0.235436	0.943155
C70	C	2.251096	0.264564	1.443155
C71	C	1.787432	-0.061881	0.471074
C72	C	2.287432	0.438119	0.971074
C73	C	1.787490	0.020437	0.471108
C74	C	2.287490	0.520437	0.971108
C75	C	1.812569	-0.268770	1.141209
C76	C	2.312569	0.231230	1.641209
C77	C	1.823386	-0.274626	1.000125
C78	C	2.323386	0.225374	1.500125
H79	H	1.878035	-0.695967	0.267973
H80	H	2.378035	-0.195967	0.767973
H81	H	1.908121	-0.677671	0.624120
H82	H	2.408121	-0.177671	1.124120
Cl83	Cl	1.962245	-0.812667	0.634654
Cl84	Cl	2.462245	-0.312667	1.134654
Cl85	Cl	1.642771	-0.176708	1.034489
Cl86	Cl	2.142771	0.323292	1.534489
H87	H	1.318582	-0.197298	0.364793
H88	H	1.818582	0.302702	0.864793
H89	H	1.893559	-0.312659	0.940958
H90	H	2.393559	0.187341	1.440958
Cl91	Cl	1.616178	-0.846071	0.302942
Cl92	Cl	2.116178	-0.346071	0.802942
Cl93	Cl	1.699901	-0.821624	0.726471
Cl94	Cl	2.199901	-0.321624	1.226471
Cl95	Cl	1.869997	-0.837195	0.214231
Cl96	Cl	2.369997	-0.337195	0.714231
Cl97	Cl	2.042891	-0.822865	0.388130
Cl98	Cl	2.542891	-0.322865	0.888130
Cl99	Cl	1.225124	-0.333514	0.615244
Cl100	Cl	1.725124	0.166486	1.115244
H101	H	1.636851	-0.703784	0.347653
H102	H	2.136851	-0.203784	0.847653
H103	H	1.990845	-0.686252	0.380506
H104	H	2.490845	-0.186252	0.880506
Cl105	Cl	1.697756	-0.672654	0.726373
Cl106	Cl	2.197756	-0.172654	1.226373
H107	H	1.574731	-0.697894	0.516292
H108	H	2.074731	-0.197894	1.016292
H109	H	1.577354	-0.824719	0.524275
H110	H	2.077354	-0.324719	1.024275
