data_functionalizedCrystal
_audit_creation_method	'MofGen! by Chris Wilmer'
_symmetry_space_group_name_H-M	'P1'
_symmetry_Int_Tables_number	1
_symmetry_cell_setting	triclinic
loop_
_symmetry_equiv_pos_as_xyz
  x,y,z
_cell_length_a	29.839134
_cell_length_b	13.897448
_cell_length_c	13.897441
_cell_angle_alpha	90.028012
_cell_angle_beta	89.968382
_cell_angle_gamma	89.985569
loop_
_atom_site_label
_atom_site_type_symbol
_atom_site_fract_x
_atom_site_fract_y
_atom_site_fract_z
Zn1	Zn	0.686831	0.384116	-0.545679
Zn2	Zn	1.186831	0.884116	-0.045679
Zn3	Zn	0.686779	0.545438	-0.384387
Zn4	Zn	1.186779	1.045438	0.115613
Zn5	Zn	0.611701	0.384144	-0.384366
Zn6	Zn	1.111701	0.884144	0.115634
Zn7	Zn	0.611690	0.545357	-0.545609
Zn8	Zn	1.111690	1.045357	-0.045609
O9	O	0.649250	0.464764	-0.465010
O10	O	1.149250	0.964764	0.034990
O11	O	0.749691	0.405538	-0.524321
O12	O	1.249691	0.905538	-0.024321
O13	O	0.676802	0.524088	-0.249403
O14	O	1.176802	1.024088	0.250597
O15	O	0.621693	0.249159	-0.405785
O16	O	1.121693	0.749159	0.094215
O17	O	0.749653	0.524061	-0.405821
O18	O	1.249653	1.024061	0.094179
O19	O	0.676891	0.249138	-0.524300
O20	O	1.176891	0.749138	-0.024300
O21	O	0.621643	0.405586	-0.249387
O22	O	1.121643	0.905586	0.250613
O23	O	0.548832	0.405507	-0.405718
O24	O	1.048832	0.905507	0.094282
O25	O	0.621674	0.523922	-0.680600
O26	O	1.121674	1.023922	-0.180600
O27	O	0.548824	0.523949	-0.524182
O28	O	1.048824	1.023949	-0.024182
O29	O	0.676880	0.405459	-0.680651
O30	O	1.176880	0.905459	-0.180651
O31	O	0.676792	0.680409	-0.405753
O32	O	1.176792	1.180409	0.094247
O33	O	0.621624	0.680349	-0.524202
O34	O	1.121624	1.180349	-0.024202
C35	C	0.532527	0.464723	-0.464941
C36	C	1.032527	0.964723	0.035059
C37	C	0.482593	0.464729	-0.464934
C38	C	0.982593	0.964729	0.035066
C39	C	0.649213	0.715378	-0.464994
C40	C	1.149213	1.215378	0.035006
C41	C	0.649239	0.822592	-0.465019
C42	C	1.149239	1.322592	0.034981
C43	C	0.649282	0.464678	-0.716603
C44	C	1.149282	0.964678	-0.216603
C45	C	0.649295	0.464642	-0.823817
C46	C	1.149295	0.964642	-0.323817
C47	C	0.172955	0.526528	-0.526619
C48	C	0.672955	1.026528	-0.026619
C49	C	-0.014718	0.526555	-0.526662
C50	C	0.485282	1.026555	-0.026662
O51	O	-0.038978	0.579053	-0.579068
O52	O	0.461022	1.079053	-0.079068
N53	N	-0.038192	0.464799	-0.465083
N54	N	0.461808	0.964799	0.034917
C55	C	-0.014745	0.403028	-0.403493
C56	C	0.485255	0.903028	0.096507
O57	O	-0.039017	0.350494	-0.351124
O58	O	0.460983	0.850494	0.148876
C59	C	0.172927	0.402996	-0.403456
C60	C	0.672927	0.902996	0.096544
C61	C	0.196399	0.464763	-0.465032
C62	C	0.696399	0.964763	0.034968
C63	C	0.196426	0.588289	-0.588191
C64	C	0.696426	1.088289	-0.088191
C65	C	0.243342	0.588285	-0.588176
C66	C	0.743342	1.088285	-0.088176
C67	C	0.266786	0.526520	-0.526589
C68	C	0.766786	1.026520	-0.026589
C69	C	0.243314	0.464759	-0.465017
C70	C	0.743314	0.964759	0.034983
C71	C	0.196374	0.341221	-0.341872
C72	C	0.696374	0.841221	0.158128
C73	C	0.243295	0.341217	-0.341870
C74	C	0.743295	0.841217	0.158130
C75	C	0.266766	0.402983	-0.403446
C76	C	0.766766	0.902983	0.096554
C77	C	0.313674	0.402991	-0.403415
C78	C	0.813674	0.902991	0.096585
N79	N	0.337148	0.464747	-0.464994
N80	N	0.837148	0.964747	0.035006
C81	C	0.313704	0.526511	-0.526581
C82	C	0.813704	1.026511	-0.026581
C83	C	-0.113275	0.403050	-0.403516
C84	C	0.386725	0.903050	0.096484
C85	C	-0.160193	0.403059	-0.403524
C86	C	0.339807	0.903059	0.096476
C87	C	-0.160163	0.526585	-0.526694
C88	C	0.339837	1.026585	-0.026694
C89	C	-0.113245	0.526580	-0.526681
C90	C	0.386755	1.026580	-0.026681
C91	C	-0.089802	0.464806	-0.465095
C92	C	0.410198	0.964806	0.034905
C93	C	0.412229	0.526500	-0.526544
C94	C	0.912229	1.026500	-0.026544
C95	C	0.459149	0.526493	-0.526521
C96	C	0.959149	1.026493	-0.026521
C97	C	0.459115	0.402964	-0.403355
C98	C	0.959115	0.902964	0.096645
C99	C	0.412200	0.402973	-0.403374
C100	C	0.912200	0.902973	0.096626
C101	C	0.388758	0.464744	-0.464977
C102	C	0.888758	0.964744	0.035023
O103	O	0.337963	0.350512	-0.351044
O104	O	0.837963	0.850512	0.148956
O105	O	0.337984	0.579022	-0.578957
O106	O	0.837984	1.079022	-0.078957
C107	C	0.126039	0.526531	-0.526634
C108	C	0.626039	1.026531	-0.026634
C109	C	0.102568	0.464770	-0.465062
C110	C	0.602568	0.964770	0.034938
C111	C	0.126012	0.403006	-0.403475
C112	C	0.626012	0.903006	0.096525
C113	C	0.055650	0.464779	-0.465070
C114	C	0.555650	0.964779	0.034930
C115	C	0.032206	0.526544	-0.526657
C116	C	0.532206	1.026544	-0.026657
C117	C	0.055680	0.588300	-0.588236
C118	C	0.555680	1.088300	-0.088236
C119	C	0.102596	0.588296	-0.588221
C120	C	0.602596	1.088296	-0.088221
C121	C	0.102538	0.341250	-0.341896
C122	C	0.602538	0.841250	0.158104
C123	C	0.055622	0.341259	-0.341915
C124	C	0.555622	0.841259	0.158085
C125	C	0.032179	0.403024	-0.403502
C126	C	0.532179	0.903024	0.096498
C127	C	0.766428	0.464805	-0.465081
C128	C	1.266428	0.964805	0.034919
C129	C	0.816363	0.464823	-0.465111
C130	C	1.316363	0.964823	0.034889
C131	C	0.649283	1.018887	-0.465088
C132	C	1.149283	1.518887	0.034912
C133	C	0.649257	0.909655	-0.465053
C134	C	1.149257	1.409655	0.034947
C135	C	0.649295	1.213171	-0.465059
C136	C	1.149295	1.713171	0.034941
C137	C	0.649305	1.105957	-0.465109
C138	C	1.149305	1.605957	0.034891
C139	C	0.649308	0.464577	-1.020113
C140	C	1.149308	0.964577	-0.520113
C141	C	0.649299	0.464616	-0.910880
C142	C	1.149299	0.964616	-0.410880
C143	C	0.649244	0.464779	-0.214396
C144	C	1.149244	0.964779	0.285604
C145	C	0.649318	0.464544	-0.107183
C146	C	1.149318	0.964544	0.392817
H147	H	0.478257	0.576795	-0.576664
H148	H	0.978257	1.076795	-0.076664
F149	F	0.484074	0.337233	-0.337812
F150	F	0.984074	0.837233	0.162188
H151	H	0.177343	0.638585	-0.638348
H152	H	0.677343	1.138585	-0.138348
H153	H	-0.094137	0.576875	-0.576823
H154	H	0.405863	1.076875	-0.076823
F155	F	0.127570	0.654037	-0.653760
F156	F	0.627570	1.154037	-0.153760
H157	H	0.262448	0.638580	-0.638320
H158	H	0.762448	1.138580	-0.138320
H159	H	0.036584	0.638594	-0.638380
H160	H	0.536584	1.138594	-0.138380
H161	H	-0.179259	0.576876	-0.576841
H162	H	0.320741	1.076876	-0.076841
F163	F	-0.088331	0.337296	-0.337964
F164	F	0.411669	0.837296	0.162036
F165	F	0.171404	0.275474	-0.276338
F166	F	0.671404	0.775474	0.223662
H167	H	0.262380	0.290905	-0.291724
H168	H	0.762380	0.790905	0.208276
F169	F	-0.185168	0.337330	-0.337974
F170	F	0.314832	0.837330	0.162026
F171	F	0.387219	0.337249	-0.337824
F172	F	0.887219	0.837249	0.162176
F173	F	0.030647	0.275518	-0.276369
F174	F	0.530647	0.775518	0.223631
F175	F	0.127483	0.275505	-0.276345
F176	F	0.627483	0.775505	0.223655
H177	H	0.393149	0.576797	-0.576709
H178	H	0.893149	1.076797	-0.076709
