data_functionalizedCrystal
_audit_creation_method	'MofGen! by Chris Wilmer'
_symmetry_space_group_name_H-M	'P1'
_symmetry_Int_Tables_number	1
_symmetry_cell_setting	triclinic
loop_
_symmetry_equiv_pos_as_xyz
  x,y,z
_cell_length_a	13.033293
_cell_length_b	14.909042
_cell_length_c	13.032268
_cell_angle_alpha	85.718922
_cell_angle_beta	90.920818
_cell_angle_gamma	93.490169
loop_
_atom_site_label
_atom_site_type_symbol
_atom_site_fract_x
_atom_site_fract_y
_atom_site_fract_z
Zn1	Zn	1.518975	-0.276683	0.765617
Zn2	Zn	1.550193	-0.404484	0.586316
Zn3	Zn	1.368487	-0.271986	0.572062
Zn4	Zn	1.359193	-0.441557	0.734230
O5	O	1.449212	-0.348678	0.664556
O6	O	1.666031	-0.280086	0.760933
O7	O	1.543044	-0.369427	0.441519
O8	O	1.379275	-0.148158	0.604908
O9	O	1.688966	-0.373981	0.629202
O10	O	1.489838	-0.151608	0.747112
O11	O	1.409546	-0.272082	0.431047
O12	O	1.224340	-0.308030	0.574473
O13	O	1.363434	-0.437167	0.881300
O14	O	1.217512	-0.432613	0.693618
O15	O	1.480825	-0.316034	0.904360
O16	O	1.534032	-0.533854	0.598767
O17	O	1.393704	-0.561091	0.707439
C18	C	1.183870	-0.373836	0.629093
C19	C	1.070354	-0.384623	0.613945
C20	C	1.008391	-0.343070	0.672461
C21	C	0.891067	-0.354218	0.656806
C22	C	1.466272	-0.579742	0.651270
C23	C	1.473660	-0.678587	0.645632
C24	C	1.341307	-0.892753	0.748069
C25	C	1.348245	-0.985628	0.742775
C26	C	1.494468	-0.957213	0.629745
C27	C	1.487530	-0.864338	0.635039
C28	C	1.410948	-0.832112	0.694204
C29	C	1.404015	-0.739235	0.699503
C30	C	1.550233	-0.710823	0.586468
C31	C	1.557171	-0.803697	0.581174
C32	C	1.715591	-0.323422	0.700159
C33	C	1.829105	-0.312660	0.715330
C34	C	1.417610	-0.381260	0.930920
C35	C	1.404143	-0.395145	1.044428
C36	C	1.432111	-0.116712	0.677921
C37	C	1.424823	-0.017862	0.683616
C38	C	1.480745	-0.316152	0.399241
C39	C	1.494391	-0.301998	0.285774
C40	C	1.456222	-0.341401	1.106443
C41	C	1.442305	-0.355750	1.223760
H42	H	1.341661	-0.712998	0.747681
H43	H	1.291538	-1.034999	0.786640
H44	H	1.278957	-0.866514	0.796251
H45	H	1.556808	-0.983468	0.581565
H46	H	1.036543	-0.428449	0.552256
O47	O	1.338731	-0.462819	1.084578
C48	C	1.370664	-0.546185	1.056483
H49	H	1.419186	-0.534897	0.984143
H50	H	1.300316	-0.592623	1.040792
H51	H	1.418310	-0.578448	1.121794
O52	O	1.559756	-0.234309	1.245564
C53	C	1.527845	-0.150954	1.273717
H54	H	1.442464	-0.157776	1.292457
H55	H	1.541672	-0.097648	1.207231
H56	H	1.573595	-0.130033	1.344225
H57	H	1.619519	-0.829949	0.533001
H58	H	1.606942	-0.661437	0.542611
H59	H	1.387404	-0.412384	1.257515
O60	O	1.048884	-0.290846	0.746039
C61	C	1.157014	-0.291329	0.745277
H62	H	1.180531	-0.354445	0.709675
H63	H	1.188136	-0.290924	0.827505
H64	H	1.189811	-0.229009	0.698039
O65	O	0.850862	-0.406629	0.583265
C66	C	0.880768	-0.495558	0.603780
H67	H	0.953747	-0.494946	0.653191
H68	H	0.895988	-0.525981	0.528184
H69	H	0.816755	-0.537658	0.646552
O70	O	0.869464	-0.260505	0.789039
C71	C	0.927151	-0.313454	0.860149
H72	H	0.899389	-0.387301	0.858029
H73	H	0.916778	-0.290892	0.940820
H74	H	1.011931	-0.304986	0.839101
O75	O	1.521579	-0.273792	1.066048
C76	C	1.466466	-0.214357	0.999897
H77	H	1.393249	-0.251130	0.971872
H78	H	1.516025	-0.189386	0.931081
H79	H	1.445558	-0.154497	1.043243
