data_functionalizedCrystal
_audit_creation_method	'MofGen! by Chris Wilmer'
_symmetry_space_group_name_H-M	'P1'
_symmetry_Int_Tables_number	1
_symmetry_cell_setting	triclinic
loop_
_symmetry_equiv_pos_as_xyz
  x,y,z
_cell_length_a	27.440280
_cell_length_b	12.477989
_cell_length_c	12.477989
_cell_angle_alpha	60.281621
_cell_angle_beta	89.994677
_cell_angle_gamma	55.719733
loop_
_atom_site_label
_atom_site_type_symbol
_atom_site_fract_x
_atom_site_fract_y
_atom_site_fract_z
Zr1	Zr	0.432240	1.186900	-0.067900
O2	O	0.342158	1.433309	-0.234515
O3	O	0.464114	0.957077	-0.027651
O4	O	0.449975	1.210797	-0.250140
O5	O	0.362606	1.154956	0.175794
O6	O	0.530177	1.210780	-0.250148
O7	O	0.356297	1.179589	-0.012026
O8	O	0.555470	0.756922	0.147845
O9	O	0.337313	1.608814	-0.222199
O10	O	0.532416	1.045452	0.002591
O11	O	0.477269	1.027080	0.142765
O12	O	0.460622	1.325803	-0.119188
O13	O	0.405476	1.307431	0.020986
Zr14	Zr	0.570214	1.147587	0.231639
Zr15	Zr	0.560153	1.186875	-0.067912
Zr16	Zr	0.442300	1.147613	0.231652
Zr17	Zr	0.424512	1.466811	-0.048256
Zr18	Zr	0.577941	0.867677	0.211995
O19	O	0.538339	1.377411	0.191390
O20	O	0.524034	1.433272	-0.234534
O21	O	0.356463	1.377448	0.191408
O22	O	0.660295	0.901179	0.398255
O23	O	0.645990	0.957040	-0.027669
O24	O	0.478419	0.901216	0.398273
O25	O	0.639848	1.179532	-0.012055
O26	O	0.552479	1.123691	0.413879
O27	O	0.472276	1.123707	0.413887
O28	O	0.646156	1.154899	0.175765
O29	O	0.438987	1.608794	-0.222209
O30	O	0.563467	0.725694	0.385948
O31	O	0.665141	0.725673	0.385938
O32	O	0.657144	0.756901	0.147835
O33	O	0.345310	1.577586	0.015905
O34	O	0.446984	1.577566	0.015894
O35	O	0.541831	1.008685	0.282927
O36	O	0.596978	1.027056	0.142753
O37	O	0.525184	1.307407	0.020974
O38	O	0.470037	1.289036	0.161148
C39	C	0.510893	0.817118	0.057298
C40	C	0.514174	0.698289	0.048959
C41	C	0.341227	1.167276	0.081886
C42	C	0.286924	1.167287	0.081891
C43	C	-0.053247	1.180781	-0.021606
C44	C	-0.104265	1.180771	-0.021608
O45	O	-0.133593	1.192252	-0.109581
N46	N	-0.126308	1.167203	0.081862
C47	C	-0.097326	1.153629	0.185348
O48	O	-0.120759	1.142086	0.273358
C49	C	-0.046306	1.153628	0.185353
C50	C	-0.024270	1.167213	0.081869
C51	C	-0.031211	1.194363	-0.125081
C52	C	0.019803	1.194377	-0.125081
C53	C	0.048779	1.180808	-0.021605
C54	C	0.026743	1.167226	0.081870
C55	C	-0.017322	1.140042	0.288842
C56	C	0.033701	1.140041	0.288839
C57	C	0.055737	1.153626	0.185355
C58	C	0.106733	1.153672	0.185346
N59	N	0.128776	1.167239	0.081876
C60	C	0.099799	1.180808	-0.021600
C61	C	-0.204470	1.153628	0.185330
C62	C	-0.255492	1.153641	0.185321
C63	C	-0.262426	1.180780	-0.021634
C64	C	-0.211407	1.180779	-0.021629
C65	C	-0.182427	1.167196	0.081860
C66	C	0.206931	1.180837	-0.021591
C67	C	0.257947	1.180856	-0.021584
C68	C	0.264880	1.153708	0.185373
C69	C	0.213866	1.153698	0.185363
C70	C	0.184893	1.167257	0.081874
O71	O	0.136094	1.142190	0.273277
O72	O	0.123245	1.192327	-0.109586
C73	C	0.661227	1.167212	0.081854
C74	C	0.715529	1.167201	0.081848
C75	C	0.488642	1.216386	-0.292823
C76	C	0.484371	1.233065	-0.419991
C77	C	0.491560	1.517370	0.106441
C78	C	0.488280	1.636199	0.114780
C79	C	0.513811	1.118102	0.456563
C80	C	0.518082	1.101423	0.583730
C81	C	0.670893	0.817086	0.057282
C82	C	0.728476	0.698245	0.048938
C83	C	0.523477	0.767976	0.431991
C84	C	0.531029	0.632468	0.550819
C85	C	0.683477	0.767944	0.431975
C86	C	0.745331	0.632425	0.550798
C87	C	0.318976	1.566544	-0.268236
C88	C	0.257122	1.702063	-0.387059
C89	C	0.331560	1.517402	0.106457
C90	C	0.273977	1.636243	0.114802
C91	C	0.478976	1.566512	-0.268252
C92	C	0.471424	1.702020	-0.387080
C93	C	0.721817	0.652040	-0.028157
C94	C	0.775916	0.540396	-0.036025
C95	C	0.836675	0.474950	0.033211
C96	C	0.843332	0.521166	0.110308
C97	C	0.789233	0.632817	0.118167
C98	C	0.803170	0.578373	0.533429
C99	C	0.861293	0.451056	0.645065
C100	C	0.861576	0.377785	0.774068
C101	C	0.803731	0.431847	0.791435
C102	C	0.745609	0.559170	0.679801
C103	C	0.199283	1.756128	-0.369689
C104	C	0.141159	1.883480	-0.481322
C105	C	0.140876	1.956757	-0.610325
C106	C	0.198721	1.902687	-0.627693
C107	C	0.256843	1.775345	-0.516060
C108	C	0.280636	1.682461	0.191884
C109	C	0.226534	1.794140	0.199721
C110	C	0.165776	1.859590	0.130482
C111	C	0.159118	1.813369	0.053390
C112	C	0.213218	1.701700	0.045546
H113	H	0.538852	0.660538	-0.013781
H114	H	0.698517	0.603162	0.693962
H115	H	0.908387	0.407053	0.630900
H116	H	0.207788	1.664073	-0.017219
O117	O	0.435534	0.836947	0.557268
H118	H	0.437930	0.919813	0.469138
O119	O	0.796420	0.682623	0.201345
H120	H	0.847760	0.618333	0.248176
O121	O	0.802876	0.657402	0.394300
H122	H	0.829841	0.565270	0.375565
H123	H	0.303936	1.731329	-0.530219
H124	H	0.093545	2.060446	-0.701213
H125	H	-0.054798	1.205407	-0.209344
H126	H	0.452236	1.358536	-0.520472
O127	O	0.585363	0.459445	0.603801
H128	H	0.582972	0.376574	0.691938
O129	O	-0.173223	1.139001	0.296950
H130	H	-0.121790	1.028921	0.349451
H131	H	0.463597	0.673960	0.177504
O132	O	0.198414	1.981723	-0.766835
H133	H	0.175305	1.967889	-0.826258
O134	O	0.804045	0.352784	0.930580
H135	H	0.827158	0.366586	0.990028
O136	O	0.093582	1.883970	-0.021279
H137	H	0.098032	1.833089	-0.076212
H138	H	0.121729	1.950517	0.136880
O139	O	0.281717	1.195502	-0.133200
H140	H	0.252998	1.204917	-0.205142
H141	H	0.330104	1.629177	0.248278
H142	H	0.199501	1.696472	-0.264658
O143	O	-0.187636	1.195415	-0.133234
H144	H	-0.216360	1.204841	-0.205178
O145	O	-0.279256	1.138982	0.296937
H146	H	-0.250526	1.129531	0.368892
H147	H	0.231968	1.831753	0.262502
H148	H	0.037743	1.205432	-0.209343
H149	H	0.892809	0.467864	0.166676
H150	H	0.908906	0.274111	0.864957
H151	H	0.094066	1.927481	-0.467155
H152	H	0.057295	1.128975	0.373116
O153	O	0.175680	1.195483	-0.133217
H154	H	0.199576	1.204948	-0.205169
H155	H	0.550209	0.975960	-0.315798
O156	O	-0.293681	1.195404	-0.133242
H157	H	-0.332855	1.193104	-0.115844
H158	H	0.195918	1.142659	0.269619
O159	O	-0.041070	1.125340	0.400480
H160	H	-0.012332	1.115870	0.472437
H161	H	0.672348	0.705329	-0.084554
O162	O	0.296143	1.139052	0.296987
H163	H	0.335325	1.141319	0.279603
H164	H	0.880720	0.384037	0.026801
O165	O	0.768729	0.490548	-0.119170
H166	H	0.717392	0.554797	-0.165966
