data_functionalizedCrystal
_audit_creation_method	'MofGen! by Chris Wilmer'
_symmetry_space_group_name_H-M	'P1'
_symmetry_Int_Tables_number	1
_symmetry_cell_setting	triclinic
loop_
_symmetry_equiv_pos_as_xyz
  x,y,z
_cell_length_a	23.096457
_cell_length_b	23.196402
_cell_length_c	23.196401
_cell_angle_alpha	60.008822
_cell_angle_beta	90.011948
_cell_angle_gamma	59.999750
loop_
_atom_site_label
_atom_site_type_symbol
_atom_site_fract_x
_atom_site_fract_y
_atom_site_fract_z
Zr1	Zr	0.557770	0.630997	-0.075639
O2	O	0.465302	0.751264	-0.167683
O3	O	0.586114	0.510731	-0.047426
O4	O	0.586088	0.630998	-0.167691
O5	O	0.465350	0.630995	0.047453
O6	O	0.681370	0.630997	-0.167693
O7	O	0.465327	0.630997	-0.047418
O8	O	0.681416	0.415862	0.047439
O9	O	0.465304	0.846131	-0.167679
O10	O	0.669313	0.560197	-0.035391
O11	O	0.598222	0.560196	0.035412
O12	O	0.598192	0.701795	-0.106184
O13	O	0.527102	0.701794	-0.035382
Zr14	Zr	0.709769	0.630994	0.075667
Zr15	Zr	0.709733	0.630996	-0.075642
Zr16	Zr	0.557806	0.630994	0.075670
Zr17	Zr	0.557774	0.782299	-0.075632
Zr18	Zr	0.709765	0.479691	0.075660
O19	O	0.681425	0.751259	0.047454
O20	O	0.681373	0.751263	-0.167688
O21	O	0.465353	0.751260	0.047458
O22	O	0.802237	0.510726	0.167711
O23	O	0.802186	0.510730	-0.047430
O24	O	0.586166	0.510727	0.167716
O25	O	0.802189	0.630995	-0.047425
O26	O	0.681450	0.630992	0.167719
O27	O	0.586169	0.630993	0.167721
O28	O	0.802212	0.630994	0.047446
O29	O	0.586094	0.846130	-0.167682
O30	O	0.681444	0.415860	0.167710
O31	O	0.802235	0.415859	0.167707
O32	O	0.802206	0.415861	0.047437
O33	O	0.465333	0.846129	-0.047409
O34	O	0.586123	0.846129	-0.047411
O35	O	0.669347	0.560195	0.106212
O36	O	0.740437	0.560196	0.035409
O37	O	0.669317	0.701794	-0.035384
O38	O	0.598226	0.701793	0.035418
C39	C	0.633764	0.441739	0.000006
C40	C	0.633762	0.377507	0.000003
C41	C	0.670866	0.347337	-0.036958
C42	C	0.670873	0.286976	-0.036952
C43	C	0.633762	0.256799	0.000005
C44	C	0.596657	0.286973	0.036974
C45	C	0.596657	0.347327	0.036973
C46	C	0.571588	0.194770	-0.005268
C47	C	0.571586	0.134420	-0.005272
C48	C	0.633763	0.070644	0.000012
C49	C	0.695941	0.067232	0.005286
C50	C	0.695941	0.127586	0.005285
C51	C	0.633758	0.191354	0.000011
C52	C	0.670877	-0.024977	-0.036944
C53	C	0.670886	-0.085343	-0.036934
C54	C	0.596664	-0.085339	0.036988
C55	C	0.596662	-0.024980	0.036982
C56	C	0.633767	0.005200	0.000012
C57	C	0.443687	0.630996	0.000018
C58	C	0.379175	0.630996	0.000019
C59	C	-0.081328	0.631003	0.052269
C60	C	-0.020709	0.630997	0.052275
C61	C	0.009591	0.630999	0.000009
C62	C	-0.020723	0.630985	-0.052256
C63	C	-0.081336	0.630983	-0.052256
N64	N	0.081571	0.677155	-0.061970
N65	N	0.139150	0.677159	-0.061967
C66	C	0.192217	0.631005	0.000008
N67	N	0.185524	0.584856	0.061983
N68	N	0.127938	0.584856	0.061980
C69	C	0.075316	0.631001	0.000004
C70	C	0.288256	0.631006	0.052279
C71	C	0.348879	0.630996	0.052285
C72	C	0.348859	0.630992	-0.052252
C73	C	0.288242	0.630995	-0.052252
C74	C	0.257942	0.631006	0.000013
C75	C	0.823852	0.630994	0.000010
C76	C	0.888364	0.630994	0.000009
C77	C	0.633724	0.630998	-0.189250
C78	C	0.633708	0.630999	-0.253485
C79	C	0.633775	0.820251	0.000022
C80	C	0.633776	0.884483	0.000025
C81	C	0.596588	0.704910	-0.320612
C82	C	0.596606	0.704911	-0.380967
C83	C	0.633735	0.630997	-0.374191
C84	C	0.670864	0.557077	-0.307052
C85	C	0.670850	0.557078	-0.246699
C86	C	0.628461	0.574369	-0.441511
C87	C	0.628469	0.574371	-0.501864
C88	C	0.633780	0.630991	-0.560339
C89	C	0.639068	0.687622	-0.558460
C90	C	0.639055	0.687623	-0.498106
C91	C	0.633754	0.630988	-0.439630
C92	C	0.596677	0.704908	-0.692912
C93	C	0.596700	0.704906	-0.753267
C94	C	0.670953	0.557069	-0.679351
C95	C	0.670935	0.557074	-0.618998
C96	C	0.633793	0.630995	-0.625784
C97	C	0.633815	0.630992	0.189278
C98	C	0.633830	0.630991	0.253513
C99	C	0.823846	0.441738	0.000002
C100	C	0.888357	0.377506	-0.000002
C101	C	0.633810	0.441736	0.189270
C102	C	0.633823	0.377503	0.253502
C103	C	0.823892	0.441735	0.189266
C104	C	0.888418	0.377502	0.253497
C105	C	0.443647	0.820255	-0.189238
C106	C	0.379121	0.884488	-0.253469
C107	C	0.443692	0.820252	0.000026
C108	C	0.379182	0.884484	0.000030
C109	C	0.633729	0.820254	-0.189242
C110	C	0.633715	0.884487	-0.253474
C111	C	0.881525	0.347342	-0.036967
C112	C	0.942134	0.286998	-0.036985
C113	C	1.009573	0.256814	-0.000034
C114	C	1.016403	0.286983	0.036933
C115	C	0.955796	0.347331	0.036946
C116	C	0.670956	0.347338	0.320629
C117	C	0.670966	0.286993	0.380988
C118	C	0.633847	0.256810	0.374217
C119	C	0.596710	0.286981	0.307083
C120	C	0.596696	0.347329	0.246726
C121	C	0.955835	0.347338	0.246702
C122	C	1.016469	0.286992	0.307047
C123	C	1.009686	0.256808	0.374187
C124	C	0.942262	0.286978	0.380981
C125	C	0.881629	0.347327	0.320636
C126	C	0.311704	0.914660	-0.246674
C127	C	0.251069	0.975024	-0.307019
C128	C	0.257853	1.005211	-0.374159
C129	C	0.325277	0.975037	-0.380953
C130	C	0.385910	0.914678	-0.320608
C131	C	0.386013	0.914654	0.036989
C132	C	0.325405	0.975015	0.036990
C133	C	0.257965	1.005201	0.000036
C134	C	0.251135	0.975029	-0.036927
C135	C	0.311743	0.914673	-0.036932
C136	C	0.670841	0.914651	-0.246681
C137	C	0.670842	0.974997	-0.307028
C138	C	0.633713	1.005181	-0.374167
C139	C	0.596586	0.975011	-0.380959
C140	C	0.596589	0.914663	-0.320613
H141	H	0.701105	-0.109911	-0.067029
Br142	Br	1.107964	0.246058	0.297811
H143	H	0.440802	0.890113	-0.326149
H144	H	1.059063	0.207668	0.423318
Br145	Br	0.721301	0.456761	-0.527891
Br146	Br	0.487202	0.139060	-0.012437
H147	H	0.196176	0.999581	-0.301474
Br148	Br	0.790008	0.388296	-0.087124
Br149	Br	0.247135	0.631017	0.123211
Br150	Br	0.546192	1.015992	-0.472082
H151	H	0.003951	0.630985	-0.094811
Br152	Br	-0.122447	0.631014	0.123200
Br153	Br	0.175557	1.087128	-0.456050
H154	H	0.826737	0.371878	0.326179
Br155	Br	0.546300	0.388257	0.155627
H156	H	0.440920	0.890081	0.067086
Br157	Br	0.302459	0.873732	-0.087092
H158	H	0.566347	0.765102	-0.326143
H159	H	0.566474	0.765095	-0.807926
Br160	Br	0.933067	0.246005	0.472105
H161	H	0.701185	0.496887	-0.673832
H162	H	0.701075	0.999554	-0.301484
H163	H	1.058918	0.207674	-0.000050
H164	H	0.701183	0.371906	0.326155
Br165	Br	0.334471	1.016013	-0.472077
Br166	Br	0.175718	1.087114	0.000051
Br167	Br	-0.122472	0.630970	-0.123186
H168	H	0.961372	0.371905	0.192038
Br169	Br	0.302478	0.873702	-0.155563
H170	H	0.566489	0.262397	0.301581
Br171	Br	0.334691	1.015948	0.087160
H172	H	0.196218	0.999616	-0.067014
Br173	Br	0.932848	0.246065	-0.087156
Br174	Br	0.546301	0.246011	0.087140
Br175	Br	0.390021	0.630997	0.123221
H176	H	0.624159	0.528262	-0.503390
Br177	Br	0.546304	0.015968	0.087146
H178	H	0.566441	0.371892	0.067071
H179	H	1.071321	0.262398	0.067017
Br180	Br	0.020433	0.631008	0.123207
Br181	Br	0.721371	0.246058	0.472089
Br182	Br	0.389982	0.630982	-0.123178
Br183	Br	0.247102	0.630986	-0.123183
H184	H	0.566448	-0.109909	0.067079
H185	H	0.633716	1.054321	-0.423299
Br186	Br	0.721237	0.873700	-0.155571
H187	H	0.566354	0.890110	-0.326153
H188	H	0.566376	0.765099	-0.435632
H189	H	0.701081	0.371906	-0.067059
H190	H	0.701088	0.262407	-0.067051
H191	H	0.624131	0.528263	-0.393902
Br192	Br	0.487198	0.281321	-0.012439
Br193	Br	0.633873	0.174908	0.456139
Br194	Br	0.780329	-0.019313	0.012452
Br195	Br	0.721238	0.015981	-0.087112
Br196	Br	0.780322	0.122955	0.012446
Br197	Br	0.646274	0.764471	-0.637814
Br198	Br	0.646231	0.764476	-0.495555
H199	H	0.961368	0.371882	0.067052
Br200	Br	0.721259	0.456764	-0.297855
H201	H	0.566434	0.765099	-0.698438
Br202	Br	0.721229	0.456762	-0.155592
