data_functionalizedCrystal
_audit_creation_method	'MofGen! by Chris Wilmer'
_symmetry_space_group_name_H-M	'P1'
_symmetry_Int_Tables_number	1
_symmetry_cell_setting	triclinic
loop_
_symmetry_equiv_pos_as_xyz
  x,y,z
_cell_length_a	21.395364
_cell_length_b	19.077692
_cell_length_c	21.395355
_cell_angle_alpha	92.280661
_cell_angle_beta	89.975273
_cell_angle_gamma	87.729011
loop_
_atom_site_label
_atom_site_type_symbol
_atom_site_fract_x
_atom_site_fract_y
_atom_site_fract_z
Zn1	Zn	0.967894	-0.280297	-0.364295
Zn2	Zn	1.301227	0.053036	-0.030962
Zn3	Zn	1.634560	0.386370	0.302371
Zn4	Zn	0.972009	-0.397969	-0.263729
Zn5	Zn	1.305342	-0.064636	0.069604
Zn6	Zn	1.638675	0.268697	0.402938
Zn7	Zn	0.863109	-0.280294	-0.259532
Zn8	Zn	1.196442	0.053040	0.073802
Zn9	Zn	1.529775	0.386373	0.407135
Zn10	Zn	0.867290	-0.397948	-0.368468
Zn11	Zn	1.200623	-0.064614	-0.035135
Zn12	Zn	1.533956	0.268719	0.298199
O13	O	0.917575	-0.339127	-0.314006
O14	O	1.250909	-0.005794	0.019327
O15	O	1.584242	0.327540	0.352661
O16	O	1.056118	-0.295917	-0.350965
O17	O	1.389451	0.037417	-0.017632
O18	O	1.722784	0.370750	0.315701
O19	O	0.957535	-0.382367	-0.175495
O20	O	1.290869	-0.049034	0.157839
O21	O	1.624202	0.284300	0.491172
O22	O	0.873536	-0.181809	-0.269926
O23	O	1.206870	0.151524	0.063408
O24	O	1.540203	0.484858	0.396741
O25	O	1.059141	-0.382370	-0.277080
O26	O	1.392475	-0.049037	0.056254
O27	O	1.725808	0.284296	0.389587
O28	O	0.950522	-0.181811	-0.346895
O29	O	1.283855	0.151522	-0.013562
O30	O	1.617188	0.484855	0.319771
O31	O	0.877527	-0.295911	-0.172411
O32	O	1.210860	0.037422	0.160923
O33	O	1.544193	0.370755	0.494256
O34	O	0.775985	-0.295890	-0.273972
O35	O	1.109318	0.037443	0.059361
O36	O	1.442652	0.370776	0.392695
O37	O	0.880663	-0.382333	-0.455592
O38	O	1.213996	-0.049000	-0.122259
O39	O	1.547329	0.284333	0.211075
O40	O	0.779057	-0.382330	-0.354007
O41	O	1.112390	-0.048997	-0.020674
O42	O	1.445724	0.284336	0.312660
O43	O	0.954576	-0.295896	-0.452526
O44	O	1.287909	0.037437	-0.119193
O45	O	1.621243	0.370771	0.214140
O46	O	0.961590	-0.496451	-0.281126
O47	O	1.294923	-0.163118	0.052208
O48	O	1.628256	0.170215	0.385541
O49	O	0.884653	-0.496436	-0.358077
O50	O	1.217986	-0.163102	-0.024744
O51	O	1.551320	0.170231	0.308590
C52	C	0.754787	-0.339108	-0.313987
C53	C	1.088120	-0.005775	0.019346
C54	C	1.421454	0.327559	0.352679
C55	C	0.685146	-0.339117	-0.313995
C56	C	1.018479	-0.005784	0.019339
C57	C	1.351813	0.327550	0.352672
C58	C	0.184969	-0.384219	-0.355644
C59	C	0.518302	-0.050885	-0.022311
C60	C	0.851636	0.282448	0.311022
C61	C	0.250404	-0.384219	-0.355638
C62	C	0.583738	-0.050885	-0.022305
C63	C	0.917071	0.282448	0.311029
C64	C	0.281509	-0.339142	-0.314026
C65	C	0.614842	-0.005809	0.019307
C66	C	0.948175	0.327524	0.352640
C67	C	0.247172	-0.294075	-0.272407
C68	C	0.580506	0.039258	0.060926
C69	C	0.913839	0.372592	0.394259
C70	C	0.181738	-0.294081	-0.272411
C71	C	0.515072	0.039252	0.060922
C72	C	0.848405	0.372586	0.394256
C73	C	0.382927	-0.275717	-0.306905
C74	C	0.716260	0.057616	0.026428
C75	C	1.049593	0.390949	0.359761
C76	C	0.448359	-0.275710	-0.306906
C77	C	0.781693	0.057623	0.026427
C78	C	1.115026	0.390957	0.359761
C79	C	0.483329	-0.339124	-0.314012
C80	C	0.816662	-0.005790	0.019321
C81	C	1.149995	0.327543	0.352655
C82	C	0.452857	-0.402547	-0.321130
C83	C	0.786191	-0.069214	0.012203
C84	C	1.119524	0.264120	0.345537
C85	C	0.387423	-0.402553	-0.321134
C86	C	0.720757	-0.069220	0.012200
C87	C	1.054090	0.264114	0.345533
C88	C	0.352461	-0.339131	-0.314018
C89	C	0.685794	-0.005798	0.019316
C90	C	1.019127	0.327536	0.352649
C91	C	0.588610	-0.384192	-0.355618
C92	C	0.921943	-0.050858	-0.022285
C93	C	1.255276	0.282475	0.311048
C94	C	0.654046	-0.384193	-0.355607
C95	C	0.987380	-0.050860	-0.022274
C96	C	1.320713	0.282474	0.311059
C97	C	0.650813	-0.294043	-0.272380
C98	C	0.984146	0.039290	0.060953
C99	C	1.317479	0.372624	0.394287
C100	C	0.585377	-0.294048	-0.272388
C101	C	0.918711	0.039285	0.060946
C102	C	1.252044	0.372619	0.394279
C103	C	0.554280	-0.339121	-0.314010
C104	C	0.887613	-0.005788	0.019323
C105	C	1.220947	0.327545	0.352656
C106	C	0.924039	-0.521980	-0.320523
C107	C	1.257372	-0.188646	0.012810
C108	C	1.590705	0.144687	0.346143
C109	C	0.926861	-0.600205	-0.323332
C110	C	1.260194	-0.266871	0.010001
C111	C	1.593528	0.066462	0.343334
C112	C	0.888141	-0.637017	-0.284552
C113	C	1.221475	-0.303683	0.048781
C114	C	1.554808	0.029650	0.382114
C115	C	0.890800	-0.710517	-0.287194
C116	C	1.224133	-0.377184	0.046139
C117	C	1.557466	-0.043851	0.379472
C118	C	0.932175	-0.747205	-0.328620
C119	C	1.265508	-0.413872	0.004713
C120	C	1.598842	-0.080538	0.338046
C121	C	0.970899	-0.710388	-0.367402
C122	C	1.304232	-0.377055	-0.034069
C123	C	1.637566	-0.043721	0.299264
C124	C	0.968243	-0.636889	-0.364756
C125	C	1.301577	-0.303555	-0.031423
C126	C	1.634910	0.029778	0.301910
C127	C	0.944414	-0.967018	-0.340831
C128	C	1.277748	-0.633685	-0.007497
C129	C	1.611081	-0.300352	0.325836
C130	C	0.947066	-1.040523	-0.343475
C131	C	1.280399	-0.707190	-0.010141
C132	C	1.613732	-0.373856	0.323192
C133	C	0.866967	-1.040647	-0.263266
C134	C	1.200300	-0.707314	0.070068
C135	C	1.533633	-0.373981	0.403401
C136	C	0.864312	-0.967147	-0.260626
C137	C	1.197645	-0.633813	0.072707
C138	C	1.530979	-0.300480	0.406040
C139	C	0.903038	-0.930336	-0.299406
C140	C	1.236372	-0.597003	0.033928
C141	C	1.569705	-0.263669	0.367261
N142	N	0.934892	-0.822335	-0.331323
N143	N	1.268225	-0.489001	0.002010
N144	N	1.601558	-0.155668	0.335343
N145	N	0.900324	-0.855208	-0.296699
N146	N	1.233658	-0.521874	0.036634
N147	N	1.566991	-0.188541	0.369968
C148	C	1.080999	-0.339146	-0.314025
C149	C	1.414332	-0.005813	0.019308
C150	C	1.747666	0.327520	0.352642
C151	C	1.150641	-0.339155	-0.314033
C152	C	1.483974	-0.005821	0.019300
C153	C	1.817307	0.327512	0.352633
C154	C	0.917627	-0.339113	-0.477429
C155	C	1.250960	-0.005779	-0.144095
C156	C	1.584293	0.327554	0.189238
C157	C	0.917649	-0.339107	-0.547070
C158	C	1.250982	-0.005773	-0.213737
C159	C	1.584315	0.327560	0.119597
C160	C	0.911104	-0.155560	-0.307477
C161	C	1.244437	0.177773	0.025856
C162	C	1.577770	0.511106	0.359190
C163	C	0.908346	-0.077335	-0.304695
C164	C	1.241679	0.255998	0.028639
C165	C	1.575012	0.589332	0.361972
C166	C	0.956133	-0.294097	-0.578188
C167	C	1.289467	0.039237	-0.244854
C168	C	1.622800	0.372570	0.088479
C169	C	0.956132	-0.294066	-0.643622
C170	C	1.289465	0.039267	-0.310289
C171	C	1.622798	0.372600	0.023045
C172	C	0.917652	-0.339059	-0.677937
C173	C	1.250985	-0.005725	-0.344603
C174	C	1.584318	0.327608	-0.011270
C175	C	0.879159	-0.384072	-0.646811
C176	C	1.212493	-0.050738	-0.313478
C177	C	1.545826	0.282595	0.019856
C178	C	0.879158	-0.384096	-0.581378
C179	C	1.212491	-0.050762	-0.248044
C180	C	1.545824	0.282571	0.085289
C181	C	0.914944	-0.402427	-0.783870
C182	C	1.248278	-0.069094	-0.450536
C183	C	1.581611	0.264239	-0.117203
C184	C	0.914950	-0.402405	-0.849302
C185	C	1.248284	-0.069071	-0.515969
C186	C	1.581617	0.264262	-0.182635
C187	C	0.917653	-0.338984	-0.879755
C188	C	1.250986	-0.005651	-0.546421
C189	C	1.584320	0.327682	-0.213088
C190	C	0.920363	-0.275585	-0.844767
C191	C	1.253696	0.057749	-0.511434
C192	C	1.587029	0.391082	-0.178100
C193	C	0.920361	-0.275609	-0.779334
C194	C	1.253694	0.057725	-0.446000
C195	C	1.587028	0.391058	-0.112667
C196	C	0.917649	-0.339037	-0.748888
C197	C	1.250982	-0.005704	-0.415555
C198	C	1.584316	0.327629	-0.082221
C199	C	0.956138	-0.293938	-0.981824
C200	C	1.289471	0.039396	-0.648490
C201	C	1.622804	0.372729	-0.315157
C202	C	0.956131	-0.293906	-1.047259
C203	C	1.289465	0.039427	-0.713926
C204	C	1.622798	0.372760	-0.380593
C205	C	0.879163	-0.383918	-1.050447
C206	C	1.212496	-0.050585	-0.717114
C207	C	1.545829	0.282749	-0.383781
C208	C	0.879166	-0.383943	-0.985013
C209	C	1.212499	-0.050610	-0.651679
C210	C	1.545832	0.282724	-0.318346
C211	C	0.917656	-0.338954	-0.950705
C212	C	1.250990	-0.005621	-0.617372
C213	C	1.584323	0.327713	-0.284038
C214	C	0.917558	-0.339090	-0.151217
C215	C	1.250891	-0.005757	0.182116
C216	C	1.584225	0.327576	0.515450
C217	C	0.917651	-0.338898	-0.081569
C218	C	1.250984	-0.005565	0.251764
C219	C	1.584317	0.327769	0.585097
H220	H	0.159654	-0.420923	-0.389535
H221	H	0.492987	-0.087590	-0.056201
H222	H	0.826320	0.245743	0.277132
H223	H	0.999774	-0.606917	-0.396335
H224	H	1.333107	-0.273584	-0.063001
H225	H	1.666441	0.059750	0.270332
C226	C	0.353907	-0.472318	-0.328952
C227	C	0.687240	-0.138985	0.004382
C228	C	1.020574	0.194349	0.337715
N229	N	0.328663	-0.524866	-0.334835
N230	N	0.661996	-0.191533	-0.001502
N231	N	0.995329	0.141800	0.331831
C232	C	0.987022	-0.926536	-0.383482
C233	C	1.320355	-0.593203	-0.050149
C234	C	1.653689	-0.259870	0.283184
N235	N	1.019119	-0.896043	-0.415607
N236	N	1.352452	-0.562709	-0.082274
N237	N	1.685786	-0.229376	0.251060
C238	C	1.016413	-0.750747	-0.412971
C239	C	1.349746	-0.417414	-0.079637
C240	C	1.683080	-0.084080	0.253696
N241	N	1.050694	-0.781145	-0.447295
N242	N	1.384027	-0.447812	-0.113962
N243	N	1.717360	-0.114478	0.219371
C244	C	0.911970	-0.472145	-0.887782
C245	C	1.245303	-0.138812	-0.554449
C246	C	1.578636	0.194522	-0.221115
N247	N	0.909723	-0.524675	-0.916764
N248	N	1.243056	-0.191342	-0.583430
N249	N	1.576389	0.141991	-0.250097
H250	H	0.830621	-0.937277	-0.226894
H251	H	1.163954	-0.603944	0.106439
H252	H	1.497288	-0.270610	0.439773
H253	H	0.922564	-0.223942	-0.869560
H254	H	1.255898	0.109392	-0.536227
H255	H	1.589231	0.442725	-0.202893
H256	H	0.980750	-1.070392	-0.377221
H257	H	1.314083	-0.737059	-0.043887
H258	H	1.647417	-0.403726	0.289446
H259	H	0.987475	-0.257462	-0.550258
H260	H	1.320808	0.075871	-0.216925
H261	H	1.654142	0.409205	0.116409
H262	H	0.987469	-0.257410	-0.668963
H263	H	1.320802	0.075923	-0.335630
H264	H	1.654136	0.409257	-0.002296
C265	C	0.344467	-0.205952	-0.299088
C266	C	0.677800	0.127381	0.034245
C267	C	1.011134	0.460714	0.367579
N268	N	0.315500	-0.153407	-0.293200
N269	N	0.648833	0.179926	0.040133
N270	N	0.982167	0.513260	0.373466
H271	H	0.563289	-0.420894	-0.389509
H272	H	0.896622	-0.087561	-0.056176
H273	H	1.229955	0.245773	0.277158
H274	H	0.272501	-0.257375	-0.238526
H275	H	0.605835	0.075959	0.094807
H276	H	0.939168	0.409292	0.428141
H277	H	0.922566	-0.223987	-0.750850
H278	H	1.255899	0.109347	-0.417516
H279	H	1.589232	0.442680	-0.084183
H280	H	0.987469	-0.257250	-1.072594
H281	H	1.320803	0.076084	-0.739261
H282	H	1.654136	0.409417	-0.405927
C283	C	0.998472	-0.244443	-0.944083
C284	C	1.331806	0.088890	-0.610749
C285	C	1.665139	0.422224	-0.277416
N286	N	1.030358	-0.207162	-0.915658
N287	N	1.363691	0.126171	-0.582325
N288	N	1.697025	0.459505	-0.248991
C289	C	0.836835	-0.433411	-1.088190
C290	C	1.170168	-0.100077	-0.754856
C291	C	1.503501	0.233256	-0.421523
N292	N	0.804952	-0.470690	-1.116620
N293	N	1.138285	-0.137356	-0.783287
N294	N	1.471619	0.195977	-0.449954
C295	C	0.836829	-0.433560	-0.684558
C296	C	1.170162	-0.100227	-0.351225
C297	C	1.503495	0.233106	-0.017891
N298	N	0.804941	-0.470834	-0.712989
N299	N	1.138275	-0.137500	-0.379656
N300	N	1.471608	0.195833	-0.046323
H301	H	0.847831	-0.420599	-0.959677
H302	H	1.181164	-0.087266	-0.626343
H303	H	1.514497	0.246067	-0.293010
H304	H	0.153788	-0.257383	-0.238526
H305	H	0.487121	0.075951	0.094808
H306	H	0.820455	0.409284	0.428141
C307	C	0.848202	-0.751007	-0.244535
C308	C	1.181535	-0.417674	0.088798
C309	C	1.514869	-0.084341	0.422131
N310	N	0.816115	-0.781504	-0.212403
N311	N	1.149448	-0.448170	0.120931
N312	N	1.482782	-0.114837	0.454264
C313	C	0.911983	-0.472201	-0.750379
C314	C	1.245317	-0.138867	-0.417045
C315	C	1.578650	0.194466	-0.083712
N316	N	0.909758	-0.524753	-0.725154
N317	N	1.243091	-0.191420	-0.391821
N318	N	1.576424	0.141914	-0.058488
H319	H	0.847816	-0.420747	-0.556042
H320	H	1.181149	-0.087414	-0.222709
H321	H	1.514482	0.245919	0.110625
H322	H	0.835438	-1.070627	-0.231693
H323	H	1.168772	-0.737293	0.101640
H324	H	1.502105	-0.403960	0.434973
C325	C	0.491318	-0.472308	-0.328947
C326	C	0.824652	-0.138975	0.004387
C327	C	1.157985	0.194359	0.337720
N328	N	0.520290	-0.524850	-0.334835
N329	N	0.853624	-0.191517	-0.001502
N330	N	1.186957	0.141817	0.331832
H331	H	0.278360	-0.420915	-0.389525
H332	H	0.611693	-0.087582	-0.056191
H333	H	0.945027	0.245751	0.277142
H334	H	0.676137	-0.257343	-0.238497
H335	H	1.009470	0.075990	0.094836
H336	H	1.342804	0.409323	0.428170
C337	C	0.691808	-0.433773	-0.401382
C338	C	1.025141	-0.100440	-0.068049
C339	C	1.358475	0.232893	0.265284
N340	N	0.720250	-0.471118	-0.435861
N341	N	1.053584	-0.137785	-0.102528
N342	N	1.386917	0.195548	0.230806
H343	H	0.854446	-0.607150	-0.250821
H344	H	1.187780	-0.273817	0.082512
H345	H	1.521113	0.059516	0.415845
H346	H	0.557427	-0.257350	-0.238505
H347	H	0.890760	0.075984	0.094828
H348	H	1.224093	0.409317	0.428161
C349	C	0.481872	-0.205944	-0.299077
C350	C	0.815205	0.127390	0.034256
C351	C	1.148538	0.460723	0.367590
N352	N	0.507112	-0.153394	-0.293178
N353	N	0.840445	0.179940	0.040155
N354	N	1.173778	0.513273	0.373488
