data_functionalizedCrystal
_audit_creation_method	'MofGen! by Chris Wilmer'
_symmetry_space_group_name_H-M	'P1'
_symmetry_Int_Tables_number	1
_symmetry_cell_setting	triclinic
loop_
_symmetry_equiv_pos_as_xyz
  x,y,z
_cell_length_a	6.394984
_cell_length_b	10.654545
_cell_length_c	9.130313
_cell_angle_alpha	89.996934
_cell_angle_beta	89.997013
_cell_angle_gamma	85.489216
loop_
_atom_site_label
_atom_site_type_symbol
_atom_site_fract_x
_atom_site_fract_y
_atom_site_fract_z
O1	O	0.293397	1.670947	-0.121780
O2	O	0.321364	1.305763	-0.121785
O3	O	0.003391	1.493542	-0.121778
O4	O	0.611371	1.483168	-0.121787
O5	O	0.003381	1.493529	0.121821
O6	O	0.321355	1.305750	0.121814
O7	O	0.293388	1.670933	0.121819
Cu8	Cu	0.307371	1.488340	0.144059
Cu9	Cu	0.307382	1.488356	-0.144025
O10	O	0.611362	1.483154	0.121812
C11	C	0.319308	1.258937	0.000013
C12	C	0.313170	1.119428	0.000011
C13	C	0.310276	1.053886	0.132798
C14	C	0.304474	0.922805	0.132798
C15	C	0.304470	0.922820	-0.132787
C16	C	0.310257	1.053899	-0.132785
C17	C	0.925538	1.491472	0.000026
C18	C	0.689210	1.485221	0.000023
C19	C	0.295444	1.717760	0.000017
C20	C	0.301582	1.857268	0.000010
N21	N	0.307362	1.488338	0.346682
N22	N	0.307374	1.488368	-0.346648
C23	C	0.166623	1.571516	0.423337
C24	C	0.166623	1.571528	0.576673
C25	C	0.448120	1.405181	0.576687
C26	C	0.448108	1.405163	0.423353
H27	H	0.302118	0.869446	0.240926
C28	C	0.602939	1.313675	0.339019
H29	H	0.582759	1.325572	0.236719
H30	H	0.742588	1.329520	0.364133
H31	H	0.578951	1.229483	0.364163
H32	H	0.562715	1.337463	0.639128
C33	C	0.313419	1.125968	0.278867
H34	H	0.310834	1.068156	0.357948
H35	H	0.437282	1.169453	0.284408
H36	H	0.194030	1.184752	0.284371
C37	C	0.011819	1.663029	0.660988
H38	H	-0.071989	1.712565	0.593360
H39	H	-0.075855	1.616486	0.720820
H40	H	0.087806	1.716509	0.720785
H41	H	0.302101	0.869450	-0.240905
C42	C	0.313452	1.126006	-0.278854
H43	H	0.317295	1.213458	-0.259831
H44	H	0.434122	1.096871	-0.333421
H45	H	0.190871	1.112190	-0.333411
C46	C	0.011791	1.662993	0.339003
H47	H	-0.072040	1.712523	0.406623
H48	H	0.087742	1.716461	0.279167
H49	H	-0.075889	1.616420	0.279209
