data_functionalizedCrystal
_audit_creation_method	'MofGen! by Chris Wilmer'
_symmetry_space_group_name_H-M	'P1'
_symmetry_Int_Tables_number	1
_symmetry_cell_setting	triclinic
loop_
_symmetry_equiv_pos_as_xyz
  x,y,z
_cell_length_a	21.295418
_cell_length_b	18.101398
_cell_length_c	18.101395
_cell_angle_alpha	90.003361
_cell_angle_beta	90.046918
_cell_angle_gamma	90.023612
loop_
_atom_site_label
_atom_site_type_symbol
_atom_site_fract_x
_atom_site_fract_y
_atom_site_fract_z
Zn1	Zn	0.962228	0.419121	-0.294693
Zn2	Zn	0.962166	0.295283	-0.418490
Zn3	Zn	0.856988	0.295252	-0.294701
Zn4	Zn	0.856919	0.419041	-0.418532
O5	O	0.909575	0.357174	-0.356604
O6	O	1.050309	0.402740	-0.311095
O7	O	0.948217	0.191646	-0.402055
O8	O	0.871003	0.311704	-0.191067
O9	O	1.050264	0.311756	-0.402047
O10	O	0.948322	0.402710	-0.191061
O11	O	0.870943	0.191623	-0.311107
O12	O	0.768890	0.311627	-0.311148
O13	O	0.870886	0.522685	-0.402119
O14	O	0.768839	0.402574	-0.402126
O15	O	0.948256	0.522743	-0.311135
O16	O	0.948151	0.311679	-0.522128
O17	O	0.870826	0.402604	-0.522159
C18	C	0.746024	0.357089	-0.356643
C19	C	0.676056	0.357070	-0.356677
C20	C	0.909570	0.550336	-0.356631
C21	C	0.909568	0.632650	-0.356642
C22	C	0.909563	0.783359	-0.356630
C23	C	0.860886	0.814675	-0.413873
C24	C	0.860693	0.900294	-0.413698
C25	C	0.909558	0.931741	-0.356620
C26	C	0.891810	0.900650	-0.278522
C27	C	0.891460	0.815005	-0.278859
C28	C	0.976110	0.814953	-0.376802
C29	C	0.975751	0.900603	-0.378517
C30	C	0.909557	1.015601	-0.356609
C31	C	0.909563	0.699499	-0.356636
C32	C	0.643179	0.404356	-0.404112
C33	C	0.577437	0.404389	-0.404094
C34	C	0.544573	0.357123	-0.356649
C35	C	0.577458	0.309834	-0.309205
C36	C	0.643199	0.309808	-0.309219
N37	N	0.441317	0.292350	-0.350838
N38	N	0.378865	0.292378	-0.350829
C39	C	0.346499	0.357202	-0.356602
N40	N	0.378943	0.421999	-0.362398
N41	N	0.441400	0.421971	-0.362412
C42	C	0.473288	0.357147	-0.356628
C43	C	0.242337	0.404527	-0.404019
C44	C	0.176593	0.404562	-0.403996
C45	C	0.176615	0.310001	-0.309110
C46	C	0.242357	0.309973	-0.309130
C47	C	0.275214	0.357235	-0.356588
C48	C	1.073766	0.357260	-0.356565
C49	C	1.143734	0.357297	-0.356549
C50	C	0.909570	1.164764	-0.356600
C51	C	0.909554	1.082450	-0.356608
C52	C	0.909491	0.357152	-0.549015
C53	C	0.909513	0.357168	-0.631329
C54	C	0.909651	0.357208	-0.930420
C55	C	0.861113	0.414557	-0.899145
C56	C	0.860883	0.414378	-0.813527
C57	C	0.909582	0.357189	-0.782037
C58	C	0.891639	0.279132	-0.813162
C59	C	0.891326	0.279475	-0.898807
C60	C	0.976238	0.377228	-0.898750
C61	C	0.975846	0.378939	-0.813100
C62	C	0.909545	0.357173	-0.698178
C63	C	0.909687	0.357218	-1.014279
C64	C	0.909677	0.357212	-0.163442
C65	C	0.909721	0.357229	-0.081128
H66	H	0.871771	0.921315	-0.471602
C67	C	0.794193	0.396514	-0.785947
N68	N	0.743957	0.383077	-0.765174
H69	H	0.842652	0.262519	-0.918859
C70	C	0.993838	0.928055	-0.456165
N71	N	1.007460	0.948735	-0.514651
C72	C	1.025092	0.320803	-0.926072
N73	N	1.061885	0.278302	-0.946655
C74	C	0.541265	0.456406	-0.456281
N75	N	0.514023	0.495585	-0.495589
C76	C	0.140429	0.456576	-0.456187
N77	N	0.113190	0.495751	-0.495502
H78	H	0.812057	0.401461	-0.920742
C79	C	0.937289	0.787016	-0.219258
N80	N	0.971804	0.765938	-0.174364
C81	C	0.826575	0.255818	-0.784291
N82	N	0.777567	0.238262	-0.762548
C83	C	0.876044	0.492569	-0.785096
N84	N	0.887460	0.551466	-0.763686
C85	C	1.027341	0.929516	-0.326316
N86	N	1.066196	0.951290	-0.286989
H87	H	0.925146	0.235287	-0.919495
C88	C	0.541306	0.257842	-0.257015
N89	N	0.514077	0.218682	-0.217702
H90	H	1.012374	0.794708	-0.335107
H91	H	0.925880	0.235236	-0.792762
H92	H	0.992601	0.433178	-0.920316
C93	C	1.027285	0.326623	-0.784137
N94	N	1.066027	0.287212	-0.762324
C95	C	0.679318	0.456348	-0.456316
N96	N	0.706539	0.495510	-0.495635
C97	C	0.994143	0.456530	-0.785585
N98	N	1.007926	0.514967	-0.764848
H99	H	0.871835	0.794085	-0.471961
C100	C	0.140469	0.258009	-0.256919
N101	N	0.113240	0.218847	-0.217606
C102	C	0.794646	0.785581	-0.396027
N103	N	0.744754	0.763667	-0.382582
H104	H	0.811381	0.920762	-0.400326
C105	C	0.679364	0.257784	-0.257038
N106	N	0.706605	0.218597	-0.217737
H107	H	0.926177	0.921020	-0.234704
H108	H	0.842822	0.795008	-0.261791
C109	C	0.278481	0.456525	-0.456216
N110	N	0.305704	0.495691	-0.495529
C111	C	0.278523	0.257948	-0.256954
N112	N	0.305762	0.218760	-0.217651
H113	H	0.843706	0.922080	-0.261156
H114	H	0.992314	0.793359	-0.432787
H115	H	0.872226	0.472622	-0.919713
