data_functionalizedCrystal
_audit_creation_method	'MofGen! by Chris Wilmer'
_symmetry_space_group_name_H-M	'P1'
_symmetry_Int_Tables_number	1
_symmetry_cell_setting	triclinic
loop_
_symmetry_equiv_pos_as_xyz
  x,y,z
_cell_length_a	19.077236
_cell_length_b	19.121073
_cell_length_c	19.076919
_cell_angle_alpha	94.604058
_cell_angle_beta	89.887323
_cell_angle_gamma	94.857396
loop_
_atom_site_label
_atom_site_type_symbol
_atom_site_fract_x
_atom_site_fract_y
_atom_site_fract_z
Zn1	Zn	1.046913	-0.255828	-0.450992
Zn2	Zn	1.046530	-0.368770	-0.338098
Zn3	Zn	0.934145	-0.255458	-0.328757
Zn4	Zn	0.923931	-0.378172	-0.451221
O5	O	0.987880	-0.314557	-0.392267
O6	O	1.145364	-0.267030	-0.439830
O7	O	1.035736	-0.349649	-0.238361
O8	O	0.953539	-0.156885	-0.340966
O9	O	1.145082	-0.350007	-0.356888
O10	O	1.036389	-0.157156	-0.430772
O11	O	0.953167	-0.266400	-0.231498
O12	O	0.834288	-0.275517	-0.341188
O13	O	0.936130	-0.366032	-0.549688
O14	O	0.826784	-0.365674	-0.431162
O15	O	1.026485	-0.276147	-0.549520
O16	O	1.025832	-0.468640	-0.357110
O17	O	0.935759	-0.475547	-0.440220
C18	C	0.804996	-0.321576	-0.385186
C19	C	0.726756	-0.324596	-0.382175
C20	C	0.690139	-0.282888	-0.424015
C21	C	0.616625	-0.285722	-0.421179
C22	C	0.579728	-0.330269	-0.376506
C23	C	0.616349	-0.371980	-0.334661
C24	C	0.689863	-0.369141	-0.337494
C25	C	0.359851	-0.343380	-0.363392
C26	C	0.286333	-0.346217	-0.360564
C27	C	0.286614	-0.259958	-0.447082
C28	C	0.360128	-0.257127	-0.449914
C29	C	0.396743	-0.298834	-0.408066
N30	N	0.504584	-0.333169	-0.373608
N31	N	0.471886	-0.295930	-0.410961
C32	C	0.979664	-0.497665	-0.399720
C33	C	0.976212	-0.575998	-0.402934
C34	C	0.954359	-1.019217	-0.423339
C35	C	0.957602	-0.945614	-0.420311
C36	C	1.006152	-0.905196	-0.375560
C37	C	1.051467	-0.938383	-0.333839
C38	C	1.048227	-1.011984	-0.336871
C39	C	1.018287	-0.682787	-0.364245
C40	C	1.021522	-0.609181	-0.361214
C41	C	0.927658	-0.616417	-0.447688
C42	C	0.924419	-0.690019	-0.450713
C43	C	0.969736	-0.723200	-0.408995
C44	C	1.009467	-0.829962	-0.372462
C45	C	0.966424	-0.798432	-0.412097
C46	C	1.171478	-0.307511	-0.399375
C47	C	1.249716	-0.304508	-0.402405
C48	C	0.980211	-0.322179	-0.575858
C49	C	0.976943	-0.325428	-0.654093
C50	C	0.996146	-0.130734	-0.384801
C51	C	0.999669	-0.052399	-0.381620
C52	C	1.022448	-0.280157	-0.690762
C53	C	1.019369	-0.283207	-0.764272
C54	C	0.970788	-0.331531	-0.801112
C55	C	0.925278	-0.376803	-0.764438
C56	C	0.928354	-0.373750	-0.690929
C57	C	0.956541	-0.345679	-1.020969
C58	C	0.953469	-0.348730	-1.094483
C59	C	1.047560	-0.255132	-1.094312
C60	C	1.050634	-0.252086	-1.020802
C61	C	1.005122	-0.297356	-0.984134
N62	N	0.967641	-0.334651	-0.876251
N63	N	1.008266	-0.294232	-0.908996
C64	C	0.995561	-0.306912	-0.209390
C65	C	0.998974	-0.303460	-0.131152
H66	H	0.719675	-0.403104	-0.303422
H67	H	0.920708	-0.918598	-0.454283
H68	H	0.891292	-0.410607	-0.661074
H69	H	0.884877	-0.722923	-0.487146
H70	H	1.085125	-1.039000	-0.302900
Cl71	Cl	0.240579	-0.207528	-0.499685
H72	H	0.720176	-0.246614	-0.460395
H73	H	0.914825	-1.052121	-0.459782
H74	H	1.084613	-0.218275	-1.124175
H75	H	1.062010	-0.240808	-0.660772
Cl76	Cl	0.570596	-0.233288	-0.473783
H77	H	0.390165	-0.220854	-0.486294
Cl78	Cl	0.870696	-0.574699	-0.500136
H79	H	0.256293	-0.382496	-0.324186
H80	H	0.389654	-0.377342	-0.329318
H81	H	0.586302	-0.408248	-0.298284
H82	H	0.913906	-0.388083	-1.124477
H83	H	1.061060	-0.576274	-0.324770
Cl84	Cl	1.075256	-0.724490	-0.311797
Cl85	Cl	0.899325	-0.402590	-0.974882
H86	H	0.885720	-0.416147	-0.794439
Cl87	Cl	0.905395	-0.849245	-0.468357
Cl88	Cl	1.112506	-0.887571	-0.277583
H89	H	1.048996	-0.797047	-0.336023
Cl90	Cl	1.076608	-0.226322	-0.810369
H91	H	1.090196	-0.212737	-0.990812
