data_functionalizedCrystal
_audit_creation_method	'MofGen! by Chris Wilmer'
_symmetry_space_group_name_H-M	'P1'
_symmetry_Int_Tables_number	1
_symmetry_cell_setting	triclinic
loop_
_symmetry_equiv_pos_as_xyz
  x,y,z
_cell_length_a	12.759401
_cell_length_b	17.640280
_cell_length_c	12.759393
_cell_angle_alpha	78.769382
_cell_angle_beta	89.981287
_cell_angle_gamma	78.802151
loop_
_atom_site_label
_atom_site_type_symbol
_atom_site_fract_x
_atom_site_fract_y
_atom_site_fract_z
Zn1	Zn	1.690798	-0.314597	-0.509562
Zn2	Zn	1.726226	-0.446790	-0.298393
Zn3	Zn	1.515115	-0.314639	-0.333886
Zn4	Zn	1.550604	-0.446735	-0.474045
O5	O	1.620686	-0.380690	-0.403972
O6	O	1.842521	-0.332138	-0.481560
O7	O	1.698197	-0.429301	-0.156069
O8	O	1.508741	-0.204028	-0.386908
O9	O	1.868549	-0.429260	-0.326415
O10	O	1.637815	-0.203997	-0.515976
O11	O	1.543094	-0.332210	-0.182146
O12	O	1.372801	-0.332156	-0.352468
O13	O	1.569227	-0.429166	-0.625789
O14	O	1.398874	-0.429207	-0.455443
O15	O	1.672227	-0.332085	-0.651883
O16	O	1.732609	-0.557389	-0.291976
O17	O	1.603580	-0.557348	-0.421027
C18	C	1.347716	-0.380681	-0.403953
C19	C	1.230944	-0.380696	-0.403965
C20	C	1.189706	-0.431307	-0.457458
C21	C	1.079983	-0.431310	-0.457478
C22	C	1.052743	-0.330088	-0.350505
C23	C	1.162464	-0.330082	-0.350492
C24	C	0.937705	-0.459671	-0.573724
C25	C	0.896467	-0.510294	-0.627204
C26	C	0.952796	-0.587429	-0.622444
C27	C	1.050365	-0.613957	-0.564184
C28	C	1.091599	-0.563338	-0.510695
C29	C	1.035268	-0.486192	-0.515479
C30	C	1.304746	-0.301729	-0.234241
C31	C	1.345982	-0.251113	-0.180746
C32	C	1.289655	-0.173977	-0.185496
C33	C	1.192083	-0.147452	-0.243736
C34	C	1.150847	-0.198067	-0.297232
C35	C	1.207181	-0.275203	-0.292484
C36	C	1.675818	-0.586048	-0.348819
C37	C	1.699500	-0.673900	-0.325259
C38	C	1.441209	-0.962868	-0.583333
C39	C	1.463464	-1.045419	-0.561162
C40	C	1.597905	-1.045396	-0.426917
C41	C	1.575665	-0.962844	-0.449081
C42	C	1.497315	-0.921586	-0.527289
C43	C	1.631771	-0.921561	-0.393037
C44	C	1.609529	-0.839016	-0.415195
C45	C	1.531180	-0.797753	-0.493397
C46	C	1.475073	-0.839041	-0.549447
C47	C	1.710115	-0.962820	-0.314823
C48	C	1.766221	-0.921538	-0.258779
C49	C	1.743985	-0.838991	-0.280942
C50	C	1.665636	-0.797728	-0.359145
C51	C	1.800092	-0.797703	-0.224892
C52	C	1.777850	-0.715158	-0.247051
C53	C	1.643394	-0.715182	-0.381303
C54	C	1.894722	-0.380701	-0.403990
C55	C	2.011500	-0.380705	-0.403998
C56	C	1.620734	-0.380614	-0.678025
C57	C	1.620754	-0.380582	-0.794811
C58	C	1.565367	-0.174531	-0.459363
C59	C	1.541794	-0.086679	-0.482967
C60	C	1.567138	-0.431109	-0.836094
C61	C	1.567168	-0.431079	-0.945826
C62	C	1.674430	-0.329990	-0.972984
C63	C	1.674406	-0.330024	-0.863253
C64	C	1.554672	-0.524247	-1.070748
C65	C	1.501038	-0.574766	-1.112036
C66	C	1.401770	-0.586907	-1.073161
C67	C	1.356113	-0.548517	-0.993003
C68	C	1.409740	-0.497991	-0.951722
C69	C	1.509026	-0.485866	-0.990591
C70	C	1.686891	-0.236855	-0.738329
C71	C	1.740512	-0.186325	-0.697047
C72	C	1.839779	-0.174176	-0.735922
C73	C	1.885429	-0.212553	-0.816088
C74	C	1.831808	-0.263083	-0.857370
C75	C	1.732542	-0.275233	-0.818487
C76	C	1.620684	-0.380709	-0.130999
C77	C	1.620807	-0.380519	-0.014274
H78	H	0.996975	-0.288882	-0.306966
H79	H	1.372564	-0.466732	-0.886461
C80	C	1.366714	-0.386579	-0.229021
H81	H	1.430722	-0.395130	-0.186662
H82	H	1.383838	-0.394137	-0.299199
H83	H	1.323812	-0.422820	-0.197958
C84	C	1.734584	-1.053619	-0.290443
H85	H	1.789270	-1.072278	-0.235829
H86	H	1.757738	-1.072257	-0.353251
H87	H	1.671834	-1.072338	-0.267185
C88	C	1.388896	-0.793649	-0.635480
H89	H	1.383693	-0.738576	-0.640651
H90	H	1.321969	-0.807223	-0.616406
H91	H	1.407878	-0.807136	-0.702468
C92	C	1.551264	-0.617000	-1.200195
H93	H	1.618078	-0.602548	-1.217423
H94	H	1.504828	-0.602080	-1.262068
H95	H	1.561884	-0.672434	-1.175471
H96	H	1.096218	-0.676772	-0.560302
C97	C	1.355032	-0.917476	-0.669366
H98	H	1.349829	-0.862403	-0.674537
H99	H	1.288105	-0.931050	-0.650292
H100	H	1.374014	-0.930963	-0.736354
H101	H	1.823537	-0.681545	-0.201413
H102	H	1.579601	-0.681589	-0.444996
C103	C	1.898757	-0.118589	-0.690518
H104	H	1.857356	-0.097470	-0.637207
H105	H	1.909111	-0.076831	-0.746452
H106	H	1.966190	-0.147182	-0.659864
C107	C	1.342772	-0.642478	-1.118571
H108	H	1.277105	-0.644206	-1.083946
H109	H	1.385936	-0.693930	-1.106605
H110	H	1.328864	-0.623570	-1.193184
H111	H	0.817025	-0.488688	-0.674642
H112	H	0.919213	-0.628647	-0.665990
C113	C	1.198913	-0.592505	-0.446617
H114	H	1.215401	-0.551310	-0.415444
H115	H	1.253785	-0.607767	-0.493053
H116	H	1.193754	-0.636429	-0.391806
H117	H	1.513065	-0.730539	-0.511429
H118	H	0.891838	-0.396858	-0.577619
H119	H	1.323235	-0.132768	-0.141924
C120	C	1.246909	-0.561864	-0.950255
H121	H	1.221513	-0.597457	-0.986316
H122	H	1.197391	-0.513015	-0.962328
H123	H	1.254458	-0.583372	-0.875742
C124	C	1.663875	-0.510900	-1.113499
H125	H	1.689285	-0.475321	-1.077425
H126	H	1.656328	-0.489395	-1.188008
H127	H	1.713392	-0.559755	-1.101424
C128	C	1.453305	-0.280292	-0.116673
H129	H	1.480955	-0.333479	-0.121514
H130	H	1.442577	-0.277043	-0.043877
H131	H	1.502602	-0.248360	-0.145119
C132	C	1.882030	-0.305309	-0.945537
H133	H	1.948837	-0.290845	-0.962772
H134	H	1.835590	-0.290398	-1.007406
H135	H	1.892668	-0.360743	-0.920809
H136	H	1.417782	-1.079028	-0.606818
C137	C	1.852406	-0.966925	-0.172762
H138	H	1.857624	-1.021999	-0.167596
H139	H	1.833447	-0.953436	-0.105776
H140	H	1.919331	-0.953348	-0.191863
C141	C	1.690286	-0.144095	-0.608885
H142	H	1.623488	-0.158570	-0.591637
H143	H	1.679651	-0.088666	-0.633610
H144	H	1.736729	-0.159009	-0.547011
C145	C	1.043525	-0.168889	-0.361305
H146	H	1.015884	-0.115697	-0.356482
H147	H	0.994228	-0.200818	-0.332869
H148	H	1.054261	-0.172138	-0.434106
H149	H	1.863877	-0.831307	-0.161208
C150	C	1.577693	-0.250217	-0.695565
H151	H	1.558178	-0.220114	-0.641923
H152	H	1.582300	-0.304557	-0.665905
H153	H	1.525226	-0.234203	-0.752492
H154	H	1.966257	-0.202656	-0.847747
C155	C	1.265028	-0.486971	-0.516288
H156	H	1.224748	-0.517108	-0.548157
H157	H	1.317051	-0.521373	-0.466783
H158	H	1.299739	-0.456768	-0.570240
C159	C	1.130120	-0.062601	-0.248968
H160	H	1.168658	-0.036253	-0.208777
H161	H	1.061735	-0.063936	-0.220057
H162	H	1.121760	-0.035260	-0.321302
C163	C	1.508158	-0.486742	-0.760805
H164	H	1.476247	-0.516839	-0.801109
H165	H	1.454255	-0.456535	-0.726104
H166	H	1.557606	-0.521193	-0.708762
H167	H	1.661694	-1.078999	-0.363237
C168	C	1.733437	-0.274375	-1.048269
H169	H	1.765374	-0.244293	-1.007962
H170	H	1.684018	-0.239920	-1.100327
H171	H	1.787341	-0.304605	-1.082951
