data_functionalizedCrystal
_audit_creation_method	'MofGen! by Chris Wilmer'
_symmetry_space_group_name_H-M	'P1'
_symmetry_Int_Tables_number	1
_symmetry_cell_setting	triclinic
loop_
_symmetry_equiv_pos_as_xyz
  x,y,z
_cell_length_a	21.606444
_cell_length_b	23.196402
_cell_length_c	23.196401
_cell_angle_alpha	60.008520
_cell_angle_beta	90.012419
_cell_angle_gamma	59.999573
loop_
_atom_site_label
_atom_site_type_symbol
_atom_site_fract_x
_atom_site_fract_y
_atom_site_fract_z
Zr1	Zr	0.596188	0.631045	-0.075661
O2	O	0.497339	0.751312	-0.167707
O3	O	0.626492	0.510776	-0.047446
O4	O	0.626459	0.631048	-0.167714
O5	O	0.497397	0.631039	0.047432
O6	O	0.728308	0.631052	-0.167718
O7	O	0.497372	0.631041	-0.047439
O8	O	0.728368	0.415908	0.047420
O9	O	0.497337	0.846182	-0.167705
O10	O	0.715424	0.560248	-0.035413
O11	O	0.639433	0.560244	0.035391
O12	O	0.639393	0.701848	-0.106209
O13	O	0.563402	0.701844	-0.035405
Zr14	Zr	0.758665	0.631049	0.075642
Zr15	Zr	0.758626	0.631051	-0.075667
Zr16	Zr	0.596227	0.631043	0.075648
Zr17	Zr	0.596184	0.782353	-0.075658
Zr18	Zr	0.758669	0.479741	0.075639
O19	O	0.728361	0.751318	0.047427
O20	O	0.728306	0.751321	-0.167715
O21	O	0.497394	0.751309	0.047435
O22	O	0.857514	0.510782	0.167688
O23	O	0.857459	0.510785	-0.047454
O24	O	0.626547	0.510773	0.167696
O25	O	0.857456	0.631055	-0.047451
O26	O	0.728394	0.631046	0.167695
O27	O	0.626545	0.631042	0.167698
O28	O	0.857481	0.631053	0.047420
O29	O	0.626454	0.846188	-0.167710
O30	O	0.728399	0.415906	0.167690
O31	O	0.857516	0.415912	0.167686
O32	O	0.857485	0.415913	0.047415
O33	O	0.497368	0.846181	-0.047435
O34	O	0.626485	0.846186	-0.047439
O35	O	0.715460	0.560246	0.106190
O36	O	0.791451	0.560250	0.035386
O37	O	0.715421	0.701850	-0.035410
O38	O	0.639429	0.701846	0.035394
C39	C	0.677431	0.441784	-0.000014
C40	C	0.677432	0.377550	-0.000015
C41	C	0.717095	-0.085291	-0.036956
C42	C	0.717093	-0.024932	-0.036963
C43	C	0.677427	0.005248	-0.000003
C44	C	0.637745	-0.024921	0.036950
C45	C	0.637742	-0.085273	0.036950
C46	C	0.683112	0.067274	0.061902
C47	C	0.683121	0.127621	0.061904
C48	C	0.677433	0.191396	-0.000003
C49	C	0.671752	0.194808	-0.061912
C50	C	0.671748	0.134456	-0.061913
C51	C	0.677426	0.070690	0.000001
C52	C	0.717106	0.287010	-0.036965
C53	C	0.717099	0.347373	-0.036974
C54	C	0.637756	0.347377	0.036946
C55	C	0.637758	0.287021	0.036947
C56	C	0.677438	0.256838	-0.000006
C57	C	0.474241	0.631039	-0.000003
C58	C	0.405281	0.631036	-0.000001
C59	C	0.412569	0.557123	0.036952
C60	C	0.347772	0.557125	0.036952
C61	C	0.275687	0.631041	-0.000004
C62	C	0.268401	0.704960	-0.036957
C63	C	0.333197	0.704957	-0.036953
C64	C	0.007083	0.704974	-0.036973
C65	C	-0.057715	0.704972	-0.036976
C66	C	0.021657	0.557143	0.036933
C67	C	0.086454	0.557139	0.036937
C68	C	0.079162	0.631058	-0.000013
C69	C	0.149423	0.631054	-0.000013
C70	C	0.205427	0.631046	-0.000009
C71	C	0.880612	0.631055	-0.000017
C72	C	0.949572	0.631058	-0.000019
C73	C	0.677378	0.631050	-0.189274
C74	C	0.677361	0.631051	-0.253509
C75	C	0.677422	0.820310	-0.000006
C76	C	0.677421	0.884544	-0.000004
C77	C	0.637678	0.704962	-0.320636
C78	C	0.637697	0.704963	-0.380992
C79	C	0.677390	0.631049	-0.374215
C80	C	0.717082	0.557128	-0.307075
C81	C	0.717068	0.557129	-0.246722
C82	C	0.671755	0.574419	-0.441533
C83	C	0.671763	0.574421	-0.501887
C84	C	0.677438	0.631043	-0.560363
C85	C	0.683088	0.687676	-0.558485
C86	C	0.683074	0.687677	-0.498131
C87	C	0.677410	0.631040	-0.439654
C88	C	0.637773	0.704960	-0.692937
C89	C	0.637798	0.704958	-0.753292
C90	C	0.717177	0.557121	-0.679373
C91	C	0.717158	0.557125	-0.619020
C92	C	0.677451	0.631047	-0.625807
C93	C	0.677475	0.631044	0.189255
C94	C	0.677492	0.631043	0.253489
C95	C	0.880617	0.441792	-0.000020
C96	C	0.949577	0.377561	-0.000024
C97	C	0.677479	0.441781	0.189251
C98	C	0.677497	0.377546	0.253484
C99	C	0.880665	0.441789	0.189244
C100	C	0.949643	0.377557	0.253475
C101	C	0.474188	0.820305	-0.189263
C102	C	0.405211	0.884537	-0.253494
C103	C	0.474236	0.820302	0.000001
C104	C	0.405276	0.884533	0.000005
C105	C	0.677374	0.820313	-0.189270
C106	C	0.677356	0.884548	-0.253503
C107	C	0.942277	0.347396	-0.036989
C108	C	1.007066	0.287052	-0.037006
C109	C	1.079156	0.256870	-0.000055
C110	C	1.086456	0.287041	0.036911
C111	C	1.021667	0.347388	0.036924
C112	C	0.717191	0.347382	0.320611
C113	C	0.717205	0.287034	0.380971
C114	C	0.677529	0.256849	0.374202
C115	C	0.637830	0.287019	0.307068
C116	C	0.637812	0.347369	0.246709
C117	C	1.021708	0.347395	0.246679
C118	C	1.086526	0.287050	0.307025
C119	C	1.079276	0.256865	0.374166
C120	C	1.007203	0.287033	0.380960
C121	C	0.942387	0.347380	0.320615
C122	C	0.333145	0.914706	-0.246699
C123	C	0.268327	0.975070	-0.307045
C124	C	0.275577	1.005259	-0.374186
C125	C	0.347650	0.975087	-0.380980
C126	C	0.412466	0.914729	-0.320634
C127	C	0.412576	0.914704	0.036963
C128	C	0.347787	0.975065	0.036964
C129	C	0.275697	1.005249	0.000010
C130	C	0.268397	0.975075	-0.036952
C131	C	0.333186	0.914720	-0.036957
C132	C	0.717040	0.914715	-0.246712
C133	C	0.717038	0.975062	-0.307060
C134	C	0.677347	1.005246	-0.374199
C135	C	0.637662	0.975074	-0.380989
C136	C	0.637669	0.914723	-0.320642
H137	H	0.605456	0.262456	0.067041
H138	H	0.605350	0.890168	-0.326182
Cl139	Cl	1.160599	0.181003	-0.000077
Cl140	Cl	0.177730	1.012984	-0.298487
H141	H	0.883583	0.371970	-0.067087
H142	H	0.605349	0.765156	-0.326169
Cl143	Cl	0.997873	0.249133	-0.083477
H144	H	0.327227	0.890130	-0.192035
Cl145	Cl	0.587957	0.249060	0.298570
Cl146	Cl	0.587760	1.013036	-0.465399
Cl147	Cl	1.030842	0.385336	0.162281
H148	H	0.222947	1.054394	0.000020
Cl149	Cl	0.851792	0.385286	0.329170
H150	H	0.222793	1.054406	-0.423317
H151	H	0.209704	0.765144	-0.067043
Cl152	Cl	0.030821	0.464215	0.083389
H153	H	0.687740	0.015350	0.112316
H154	H	0.749401	0.496946	-0.301561
H155	H	0.327259	0.765145	-0.067035
H156	H	1.132060	0.207726	0.423297
H157	H	0.145146	0.496949	0.067028
Cl158	Cl	0.664653	0.503231	-0.504245
Cl159	Cl	0.356939	0.464201	0.083416
Cl160	Cl	0.767078	0.385315	0.329140
H161	H	1.027622	0.371940	0.067029
H162	H	1.145160	0.262458	0.066995
Cl163	Cl	0.998102	0.249075	0.465371
Cl164	Cl	0.677561	0.180977	0.450089
H165	H	0.749383	0.496939	-0.192061
H166	H	1.145206	0.262494	0.301481
H167	H	0.749497	0.496938	-0.673854
Cl168	Cl	0.356751	1.013044	-0.465391
H169	H	0.605442	0.765152	-0.698464
H170	H	0.471144	0.890165	-0.326176
H171	H	0.749535	0.262477	0.435629
Cl172	Cl	0.587911	0.385278	0.162323
Cl173	Cl	0.503196	0.876775	0.083421
Cl174	Cl	-0.148339	0.797902	-0.083437
Cl175	Cl	0.356980	1.012981	0.083438
H176	H	0.209693	0.999661	-0.067039
H177	H	0.667121	0.137239	-0.112321
Cl178	Cl	0.323995	0.876793	-0.083418
H179	H	0.749402	-0.109862	-0.067048
Cl180	Cl	0.766944	0.876781	-0.162315
Cl181	Cl	0.677343	1.081120	-0.450059
Cl182	Cl	0.766974	0.012996	-0.083418
Cl183	Cl	0.664609	0.274973	-0.139742
H184	H	0.001135	0.765163	-0.067073
H185	H	0.749413	0.262437	-0.067058
Cl186	Cl	0.766972	0.385302	-0.083438
H187	H	0.605380	0.765153	-0.435657
Cl188	Cl	0.766926	1.012986	-0.298507
H189	H	0.687704	0.733786	-0.606098
Cl190	Cl	0.587882	0.385319	0.083402
H191	H	0.687754	0.124833	0.112315
H192	H	0.605486	0.765148	-0.807952
Cl193	Cl	0.587876	0.013021	0.083410
H194	H	0.605433	-0.109833	0.067041
H195	H	0.471260	0.496932	0.067049
H196	H	0.749469	0.496938	-0.564361
Cl197	Cl	0.690178	0.758869	-0.495770
H198	H	0.667129	0.528311	-0.393924
