data_functionalizedCrystal
_audit_creation_method	'MofGen! by Chris Wilmer'
_symmetry_space_group_name_H-M	'P1'
_symmetry_Int_Tables_number	1
_symmetry_cell_setting	triclinic
loop_
_symmetry_equiv_pos_as_xyz
  x,y,z
_cell_length_a	13.897448
_cell_length_b	10.685969
_cell_length_c	10.686551
_cell_angle_alpha	89.648066
_cell_angle_beta	94.407384
_cell_angle_gamma	94.348258
loop_
_atom_site_label
_atom_site_type_symbol
_atom_site_fract_x
_atom_site_fract_y
_atom_site_fract_z
Zn1	Zn	-0.466497	-1.972184	0.561976
Zn2	Zn	0.033503	-1.472184	1.061976
Zn3	Zn	-0.639181	-1.955944	0.352214
Zn4	Zn	-0.139181	-1.455944	0.852214
Zn5	Zn	-0.464678	-1.746311	0.368339
Zn6	Zn	0.035322	-1.246311	0.868339
Zn7	Zn	-0.614522	-1.762383	0.578031
Zn8	Zn	-0.114522	-1.262383	1.078031
O9	O	-0.546219	-1.859205	0.465140
O10	O	-0.046219	-1.359205	0.965140
O11	O	-0.500485	-2.145564	0.520683
O12	O	-0.000485	-1.645564	1.020683
O13	O	-0.625591	-1.914613	0.178810
O14	O	-0.125591	-1.414613	0.678810
O15	O	-0.329940	-1.776343	0.394054
O16	O	0.170060	-1.276343	0.894054
O17	O	-0.627355	-2.133632	0.366572
O18	O	-0.127355	-1.633632	0.866572
O19	O	-0.331276	-1.942291	0.536319
O20	O	0.168724	-1.442291	1.036319
O21	O	-0.497385	-1.760596	0.190656
O22	O	0.002615	-1.260596	0.690656
O23	O	-0.473474	-1.572908	0.409622
O24	O	0.026526	-1.072908	0.909622
O25	O	-0.585327	-1.803736	0.751445
O26	O	-0.085327	-1.303736	1.251445
O27	O	-0.583564	-1.584716	0.563682
O28	O	-0.083564	-1.084716	1.063682
O29	O	-0.476574	-1.957876	0.739649
O30	O	0.023426	-1.457876	1.239649
O31	O	-0.770889	-1.930197	0.382140
O32	O	-0.270889	-1.430197	0.882140
O33	O	-0.752772	-1.787989	0.548047
O34	O	-0.252772	-1.287989	1.048047
C35	C	-0.525646	-1.533298	0.490145
C36	C	-0.025646	-1.033298	0.990145
C37	C	-0.516866	-1.393876	0.500872
C38	C	-0.016866	-0.893876	1.000872
C39	C	-0.796830	-1.859111	0.465111
C40	C	-0.296830	-1.359111	0.965111
C41	C	-0.904047	-1.859188	0.465131
C42	C	-0.404047	-1.359188	0.965131
C43	C	-1.100346	-1.859326	0.465200
C44	C	-0.600346	-1.359326	0.965200
C45	C	-0.991111	-1.859246	0.465166
C46	C	-0.491111	-1.359246	0.965166
C47	C	-0.294631	-1.859336	0.465194
C48	C	0.205369	-1.359336	0.965194
C49	C	-0.187419	-1.859392	0.465217
C50	C	0.312581	-1.359392	0.965217
C51	C	-0.528403	-1.884410	0.792336
C52	C	-0.028403	-1.384410	1.292336
C53	C	-0.520811	-1.895151	0.931767
C54	C	-0.020811	-1.395151	1.431767
C55	C	-0.566865	-1.186384	0.440024
C56	C	-0.066865	-0.686384	0.940024
C57	C	-0.575641	-1.325805	0.429285
C58	C	-0.075641	-0.825805	0.929285
C59	C	-0.563901	-1.834170	0.139211
C60	C	-0.063901	-1.334170	0.639211
C61	C	-0.571237	-1.823673	-0.000238
C62	C	-0.071237	-1.323673	0.499762
H63	H	-0.620220	-1.754263	0.951306
H64	H	-0.120220	-1.254263	1.451306
H65	H	-0.632688	-1.374196	0.359789
H66	H	-0.132688	-0.874196	0.859789
C67	C	-0.440667	-1.329526	0.593462
C68	C	0.059333	-0.829526	1.093462
C69	C	-0.348653	-1.359258	0.563965
C70	C	0.151347	-0.859258	1.063965
C71	C	-0.278435	-1.300008	0.649244
C72	C	0.221565	-0.800008	1.149244
H73	H	-0.444538	-1.241237	0.588684
H74	H	0.055462	-0.741237	1.088684
H75	H	-0.451574	-1.357476	0.676103
H76	H	0.048426	-0.857476	1.176103
H77	H	-0.337749	-1.331301	0.481345
H78	H	0.162251	-0.831301	0.981345
H79	H	-0.344750	-1.447537	0.568752
H80	H	0.155250	-0.947537	1.068752
H81	H	-0.289342	-1.327958	0.731885
H82	H	0.210658	-0.827958	1.231885
H83	H	-0.282315	-1.211721	0.644459
H84	H	0.217685	-0.711721	1.144459
H85	H	-0.215996	-1.320182	0.629249
H86	H	0.284004	-0.820182	1.129249
C87	C	-0.455508	-1.987592	0.996610
C88	C	0.044492	-1.487592	1.496610
C89	C	-0.460677	-1.980199	1.126656
C90	C	0.039323	-1.480199	1.626656
C91	C	-0.400524	-2.065321	1.186430
C92	C	0.099476	-1.565321	1.686430
H93	H	-0.476026	-2.070299	0.968874
H94	H	0.023974	-1.570299	1.468874
H95	H	-0.390668	-1.967624	0.976692
H96	H	0.109332	-1.467624	1.476692
H97	H	-0.525504	-2.000176	1.146564
H98	H	-0.025504	-1.500176	1.646564
H99	H	-0.440151	-1.897512	1.154428
H100	H	0.059849	-1.397512	1.654428
H101	H	-0.335684	-2.045353	1.166512
H102	H	0.164316	-1.545353	1.666512
H103	H	-0.421048	-2.148023	1.158684
H104	H	0.078952	-1.648023	1.658684
H105	H	-0.404017	-2.060309	1.274672
H106	H	0.095983	-1.560309	1.774672
