data_functionalizedCrystal
_audit_creation_method	'MofGen! by Chris Wilmer'
_symmetry_space_group_name_H-M	'P1'
_symmetry_Int_Tables_number	1
_symmetry_cell_setting	triclinic
loop_
_symmetry_equiv_pos_as_xyz
  x,y,z
_cell_length_a	14.853567
_cell_length_b	10.654550
_cell_length_c	13.330367
_cell_angle_alpha	89.995691
_cell_angle_beta	90.000844
_cell_angle_gamma	95.940070
loop_
_atom_site_label
_atom_site_type_symbol
_atom_site_fract_x
_atom_site_fract_y
_atom_site_fract_z
O1	O	0.126626	-1.666531	0.083339
O2	O	0.138690	-1.300928	0.083357
O3	O	0.001480	-1.493495	0.083351
O4	O	0.263835	-1.473964	0.083346
O5	O	0.001477	-1.493467	-0.083496
O6	O	0.138686	-1.300900	-0.083490
O7	O	0.126622	-1.666503	-0.083508
Cu8	Cu	0.132654	-1.483699	-0.098733
Cu9	Cu	0.132658	-1.483732	0.098583
O10	O	0.263832	-1.473936	-0.083502
C11	C	0.137802	-1.254125	-0.000064
C12	C	0.135152	-1.114709	-0.000057
C13	C	-0.032115	-1.492596	-0.000070
C14	C	-0.132213	-1.489944	-0.000061
C15	C	0.127510	-1.713306	-0.000084
C16	C	0.130160	-1.852722	-0.000085
C17	C	-0.545419	-1.364344	-0.000074
C18	C	-0.565475	-1.593119	-0.000085
C19	C	-0.471428	-1.595613	-0.000079
C20	C	-0.414372	-1.482470	-0.000072
C21	C	-0.451363	-1.366834	-0.000071
C22	C	-0.434430	-1.711247	-0.000090
C23	C	-0.340378	-1.713745	-0.000086
C24	C	-0.283320	-1.600601	-0.000072
C25	C	-0.320316	-1.484961	-0.000070
C26	C	-0.263260	-1.371818	-0.000063
C27	C	-0.300254	-1.256176	-0.000053
C28	C	-0.394305	-1.253691	-0.000057
C29	C	-0.189269	-1.603087	-0.000068
C30	C	-0.169204	-1.374308	-0.000060
C31	C	0.297427	-1.474835	-0.000079
C32	C	0.397525	-1.477487	-0.000081
N33	N	0.132651	-1.483685	-0.237515
C34	C	0.215939	-1.034384	-0.000062
C35	C	0.213443	-0.903389	-0.000079
C36	C	0.049367	-0.933057	-0.000083
C37	C	0.051864	-1.064049	-0.000073
C38	C	0.193390	-1.398459	-0.710135
C39	C	0.071919	-1.569038	-0.710109
C40	C	0.071916	-1.569024	-0.605090
C41	C	0.132652	-1.483728	-0.552589
C42	C	0.193391	-1.398445	-0.605107
C43	C	0.011184	-1.654314	-0.552565
C44	C	0.011180	-1.654304	-0.447540
C45	C	0.071912	-1.569000	-0.395037
C46	C	0.132653	-1.483713	-0.447561
C47	C	0.193389	-1.398417	-0.395061
C48	C	0.254126	-1.313122	-0.447583
C49	C	0.254124	-1.313141	-0.552604
C50	C	0.071915	-1.568982	-0.290016
C51	C	0.193390	-1.398402	-0.290032
N52	N	0.132654	-1.483756	0.237364
H53	H	-0.253787	-1.164056	-0.000055
H54	H	0.303582	-1.243678	-0.404824
O55	O	-0.430391	-1.141475	-0.000102
C56	C	-0.566396	-1.036257	-0.000059
C57	C	-0.525645	-1.163426	-0.000026
H58	H	-0.643414	-1.053961	0.000024
H59	H	-0.543019	-0.980312	-0.069899
H60	H	-0.542912	-0.980346	0.069752
H61	H	-0.549110	-1.219440	-0.069790
H62	H	-0.549017	-1.219276	0.069860
H63	H	-0.310265	-1.807907	-0.000092
H64	H	-0.575544	-1.270191	-0.000063
O65	O	0.252511	-1.315657	-0.761035
C66	C	0.408783	-1.242370	-0.793216
C67	C	0.341930	-1.336197	-0.735493
H68	H	0.481093	-1.258960	-0.772603
H69	H	0.396434	-1.141745	-0.772552
H70	H	0.398306	-1.257000	-0.877293
H71	H	0.352367	-1.321681	-0.651404
H72	H	0.354296	-1.436787	-0.756241
H73	H	0.303574	-1.243699	-0.595374
H74	H	0.242846	-1.328938	-0.247293
O75	O	-0.047775	-1.737047	-0.603717
C76	C	-0.101571	-1.812707	-0.765505
C77	C	-0.034762	-1.718923	-0.707695
H78	H	-0.091060	-1.798105	-0.849581
H79	H	-0.173912	-1.796228	-0.744934
H80	H	-0.089157	-1.913292	-0.744787
H81	H	-0.047093	-1.618302	-0.728382
H82	H	0.037557	-1.735512	-0.728270
H83	H	-0.013927	-1.129454	-0.000072
O84	O	-0.047909	-1.737194	-0.396681
C85	C	-0.168360	-1.906435	-0.407747
C86	C	-0.101503	-1.812615	-0.465471
H87	H	-0.211696	-1.967455	-0.463339
H88	H	-0.213824	-1.852196	-0.358620
H89	H	-0.129004	-1.969169	-0.358535
H90	H	-0.140785	-1.749857	-0.514738
H91	H	-0.056039	-1.866932	-0.514535
O92	O	-0.153373	-1.715436	0.000103
C93	C	-0.141787	-1.911782	0.086500
C94	C	-0.182482	-1.784572	0.086439
H95	H	-0.165321	-1.967726	0.156284
H96	H	-0.064762	-1.894200	0.086573
H97	H	-0.165203	-1.967634	0.016637
H98	H	-0.159136	-1.728654	0.156290
H99	H	-0.259502	-1.802243	0.086313
H100	H	-0.480891	-1.803361	-0.000105
O101	O	0.012837	-1.651873	-0.239152
C102	C	-0.107601	-1.821132	-0.250214
C103	C	-0.040754	-1.727302	-0.307941
H104	H	-0.150934	-1.882159	-0.305805
H105	H	-0.153069	-1.766903	-0.201085
H106	H	-0.068237	-1.883860	-0.201005
H107	H	-0.080044	-1.664551	-0.357204
H108	H	0.004713	-1.781609	-0.357007
H109	H	-0.122754	-1.282172	-0.000050
H110	H	0.279228	-0.837993	-0.000085
H111	H	0.283758	-1.075626	-0.000056
H112	H	-0.611935	-1.685234	-0.000099
H113	H	-0.018444	-0.891793	-0.000102
H114	H	0.022474	-1.638491	-0.752858
