data_functionalizedCrystal
_audit_creation_method	'MofGen! by Chris Wilmer'
_symmetry_space_group_name_H-M	'P1'
_symmetry_Int_Tables_number	1
_symmetry_cell_setting	triclinic
loop_
_symmetry_equiv_pos_as_xyz
  x,y,z
_cell_length_a	12.827893
_cell_length_b	12.827892
_cell_length_c	12.827879
_cell_angle_alpha	89.937748
_cell_angle_beta	89.958216
_cell_angle_gamma	90.015362
loop_
_atom_site_label
_atom_site_type_symbol
_atom_site_fract_x
_atom_site_fract_y
_atom_site_fract_z
Zn1	Zn	1.597902	-0.415648	-0.590849
Zn2	Zn	1.597727	-0.590525	-0.416109
Zn3	Zn	1.423075	-0.415798	-0.416123
Zn4	Zn	1.423128	-0.590348	-0.590810
O5	O	1.510458	-0.503080	-0.503473
O6	O	1.744115	-0.438857	-0.567681
O7	O	1.574464	-0.567484	-0.269875
O8	O	1.446316	-0.269542	-0.439323
O9	O	1.743986	-0.567338	-0.439300
O10	O	1.574761	-0.269432	-0.567694
O11	O	1.446147	-0.439113	-0.269885
O12	O	1.276846	-0.438941	-0.439284
O13	O	1.446408	-0.567037	-0.737051
O14	O	1.276885	-0.567182	-0.567626
O15	O	1.574813	-0.438686	-0.737080
O16	O	1.574516	-0.736737	-0.439262
O17	O	1.446239	-0.736608	-0.567613
C18	C	1.238948	-0.503060	-0.503453
C19	C	1.122795	-0.503076	-0.503469
C20	C	1.071057	-0.566633	-0.566879
C21	C	0.951007	-0.566652	-0.566897
C22	C	1.510393	-0.774590	-0.503454
C23	C	1.510460	-0.890743	-0.503481
C24	C	1.574011	-0.942557	-0.440040
C25	C	1.574083	-1.062608	-0.440066
C26	C	1.783028	-0.503101	-0.503493
C27	C	1.899181	-0.503110	-0.503502
C28	C	1.510636	-0.502825	-0.776043
C29	C	1.510712	-0.502716	-0.892197
C30	C	1.510552	-0.230510	-0.503514
C31	C	1.510592	-0.114357	-0.503532
C32	C	1.510341	-0.503258	-0.231963
C33	C	1.510467	-0.503073	-0.115810
C34	C	1.446708	-0.439747	0.055966
C35	C	1.446576	-0.439937	-0.064084
H36	H	1.078213	-0.448672	-0.449200
O37	O	0.897984	-0.631718	-0.631557
C38	C	0.924567	-0.735877	-0.608585
H39	H	0.954563	-0.741129	-0.525115
H40	H	0.852743	-0.787457	-0.617451
H41	H	0.987889	-0.763270	-0.664613
H42	H	0.943668	-0.448697	-0.449208
O43	O	1.124350	-0.631390	-0.631682
C44	C	1.187531	-0.571866	-0.699229
H45	H	1.203750	-0.492631	-0.662492
H46	H	1.264336	-0.614357	-0.713079
H47	H	1.145600	-0.560479	-0.776736
H48	H	1.392005	-0.385699	0.100462
O49	O	1.638710	-0.889411	-0.375104
C50	C	1.579129	-0.826393	-0.307620
H51	H	1.496875	-0.859432	-0.301069
H52	H	1.616934	-0.825116	-0.227232
H53	H	1.575399	-0.743676	-0.339987
H54	H	1.628488	-1.107167	-0.385748
O55	O	1.445828	-1.061166	-0.568448
C56	C	1.505333	-0.997869	-0.635904
H57	H	1.587627	-1.030748	-0.642469
H58	H	1.467526	-0.996449	-0.716292
H59	H	1.508963	-0.915230	-0.603502
H60	H	1.391783	-0.386022	-0.108663
H61	H	1.565410	-0.556769	0.063307
O62	O	1.445467	-0.943726	-0.568256
C63	C	1.341275	-0.917274	-0.545326
H64	H	1.338994	-0.838055	-0.505205
H65	H	1.294400	-0.913593	-0.620707
H66	H	1.306180	-0.978783	-0.491527
O67	O	1.575794	-0.567541	-0.062757
C68	C	1.553650	-0.671922	-0.089011
H69	H	1.513480	-0.674573	-0.168205
H70	H	1.629390	-0.718250	-0.092648
H71	H	1.500178	-0.707349	-0.027412
