data_functionalizedCrystal
_audit_creation_method	'MofGen! by Chris Wilmer'
_symmetry_space_group_name_H-M	'P1'
_symmetry_Int_Tables_number	1
_symmetry_cell_setting	triclinic
loop_
_symmetry_equiv_pos_as_xyz
  x,y,z
_cell_length_a	19.121424
_cell_length_b	19.120786
_cell_length_c	17.077396
_cell_angle_alpha	87.527059
_cell_angle_beta	92.416339
_cell_angle_gamma	95.008527
loop_
_atom_site_label
_atom_site_type_symbol
_atom_site_fract_x
_atom_site_fract_y
_atom_site_fract_z
Zn1	Zn	1.063704	-0.234202	-0.382121
Zn2	Zn	1.058601	-0.351887	-0.245479
Zn3	Zn	0.946044	-0.239253	-0.256218
Zn4	Zn	0.940988	-0.356863	-0.382054
O5	O	1.002334	-0.295551	-0.316468
O6	O	1.161489	-0.245616	-0.359529
O7	O	1.043650	-0.336977	-0.137056
O8	O	0.965904	-0.140111	-0.277442
O9	O	1.157740	-0.332079	-0.259139
O10	O	1.052348	-0.136400	-0.369942
O11	O	0.960955	-0.254225	-0.144946
O12	O	0.846911	-0.259051	-0.277377
O13	O	0.957287	-0.340561	-0.491910
O14	O	0.843197	-0.345459	-0.369828
O15	O	1.047446	-0.250442	-0.491960
O16	O	1.038748	-0.451019	-0.259074
O17	O	0.952338	-0.454675	-0.359414
C18	C	0.819524	-0.303343	-0.324761
C19	C	0.741316	-0.306694	-0.328326
C20	C	0.298893	-0.327881	-0.350965
C21	C	0.372377	-0.324738	-0.347600
C22	C	0.411033	-0.278106	-0.297870
C23	C	0.376201	-0.234620	-0.251496
C24	C	0.302718	-0.237766	-0.254857
C25	C	0.633001	-0.266354	-0.285313
C26	C	0.706489	-0.263209	-0.281957
C27	C	0.702660	-0.353329	-0.378061
C28	C	0.629176	-0.356468	-0.381421
C29	C	0.594350	-0.312984	-0.335044
C30	C	0.486146	-0.274891	-0.294431
C31	C	0.519238	-0.316203	-0.338479
C32	C	0.994460	-0.478379	-0.308088
C33	C	0.991155	-0.556591	-0.304526
C34	C	1.034576	-0.591344	-0.351055
C35	C	1.031468	-0.664832	-0.347710
C36	C	0.984943	-0.703566	-0.297831
C37	C	0.941517	-0.668808	-0.251300
C38	C	0.944622	-0.595321	-0.254650
C39	C	0.973315	-0.925549	-0.285309
C40	C	0.970215	-0.999041	-0.281961
C41	C	1.060166	-0.995059	-0.378372
C42	C	1.063270	-0.921571	-0.381713
C43	C	1.019841	-0.886820	-0.335186
C44	C	0.981766	-0.778683	-0.294409
C45	C	1.023015	-0.811704	-0.338613
C46	C	1.185859	-0.287729	-0.308144
C47	C	1.264066	-0.284396	-0.304596
C48	C	1.002372	-0.295493	-0.521214
C49	C	1.002387	-0.295468	-0.608464
C50	C	1.010259	-0.112009	-0.324897
C51	C	1.013636	-0.033794	-0.328490
C52	C	1.045514	-0.338472	-0.980173
C53	C	1.045495	-0.338493	-0.898193
C54	C	1.002435	-0.295416	-0.861313
C55	C	0.959385	-0.252320	-0.906419
C56	C	0.959400	-0.252303	-0.988398
C57	C	0.959357	-0.252358	-0.735548
C58	C	0.959342	-0.252374	-0.653563
C59	C	1.045452	-0.338548	-0.645343
C60	C	1.045468	-0.338531	-0.727322
C61	C	1.002418	-0.295434	-0.772422
C62	C	1.002340	-0.295557	-0.112520
C63	C	1.002469	-0.295378	-0.025273
H64	H	0.267424	-0.365849	-0.391465
H65	H	1.060893	-0.780165	-0.379227
H66	H	0.932325	-1.030576	-0.241343
F67	F	0.913564	-0.206467	-0.867166
F68	F	1.091266	-0.384417	-0.597344
F69	F	1.091350	-0.384317	-1.019416
H70	H	0.517628	-0.236922	-0.253942
H71	H	1.101154	-0.890035	-0.422329
F72	F	0.913589	-0.206433	-1.036396
F73	F	0.898406	-0.558335	-0.205129
F74	F	0.932249	-0.819913	-0.241329
H75	H	1.066832	-0.693124	-0.385592
H76	H	0.400730	-0.360149	-0.385357
H77	H	1.080538	-0.373594	-0.861476
F78	F	1.091299	-0.384376	-0.766571
F79	F	0.913511	-0.206528	-0.614315
H80	H	0.487761	-0.354173	-0.378967
F81	F	0.927089	-0.888574	-0.235796
H82	H	0.597706	-0.394442	-0.421915
H83	H	0.924302	-0.217264	-0.772266
H84	H	1.072465	-0.559811	-0.391668
H85	H	0.903632	-0.700352	-0.210691
F86	F	0.747629	-0.213577	-0.229023
F87	F	0.739729	-0.399609	-0.427409
H88	H	0.604655	-0.230949	-0.247547
H89	H	0.407681	-0.196654	-0.211001
F90	F	0.265653	-0.191486	-0.205502
F91	F	1.106380	-1.032050	-0.427888
