data_functionalizedCrystal
_audit_creation_method	'MofGen! by Chris Wilmer'
_symmetry_space_group_name_H-M	'P1'
_symmetry_Int_Tables_number	1
_symmetry_cell_setting	triclinic
loop_
_symmetry_equiv_pos_as_xyz
  x,y,z
_cell_length_a	23.532407
_cell_length_b	23.532407
_cell_length_c	10.868271
_cell_angle_alpha	89.990218
_cell_angle_beta	90.001021
_cell_angle_gamma	82.848678
loop_
_atom_site_label
_atom_site_type_symbol
_atom_site_fract_x
_atom_site_fract_y
_atom_site_fract_z
O1	O	0.755259	0.069135	-0.102181
O2	O	1.005259	0.319135	0.147819
O3	O	1.255259	0.569135	0.397819
O4	O	1.505259	0.819135	0.647819
O5	O	0.589396	0.079138	-0.102219
O6	O	0.839396	0.329138	0.147781
O7	O	1.089396	0.579138	0.397781
O8	O	1.339396	0.829138	0.647781
O9	O	0.677329	-0.008795	-0.102176
O10	O	0.927329	0.241205	0.147824
O11	O	1.177329	0.491205	0.397824
O12	O	1.427329	0.741205	0.647824
O13	O	0.667326	0.157068	-0.102224
O14	O	0.917326	0.407068	0.147776
O15	O	1.167326	0.657068	0.397776
O16	O	1.417326	0.907068	0.647776
O17	O	0.677322	-0.008798	0.102468
O18	O	0.927322	0.241202	0.352468
O19	O	1.177322	0.491202	0.602468
O20	O	1.427322	0.741202	0.852468
O21	O	0.589389	0.079135	0.102426
O22	O	0.839389	0.329135	0.352426
O23	O	1.089389	0.579135	0.602426
O24	O	1.339389	0.829135	0.852426
O25	O	0.755252	0.069132	0.102464
O26	O	1.005252	0.319132	0.352464
O27	O	1.255252	0.569132	0.602464
O28	O	1.505252	0.819132	0.852464
Zn29	Zn	0.672319	0.074133	0.134936
Zn30	Zn	0.922319	0.324133	0.384936
Zn31	Zn	1.172319	0.574133	0.634936
Zn32	Zn	1.422319	0.824133	0.884936
Zn33	Zn	0.672329	0.074137	-0.134692
Zn34	Zn	0.922329	0.324137	0.115308
Zn35	Zn	1.172329	0.574137	0.365308
Zn36	Zn	1.422329	0.824137	0.615308
O37	O	0.667319	0.157065	0.102421
O38	O	0.917319	0.407065	0.352421
O39	O	1.167319	0.657065	0.602421
O40	O	1.417319	0.907065	0.852421
C41	C	0.568176	0.078882	0.000099
C42	C	0.818176	0.328882	0.250099
C43	C	1.068176	0.578882	0.500099
C44	C	1.318176	0.828882	0.750099
C45	C	0.504959	0.078116	0.000085
C46	C	0.754959	0.328116	0.250085
C47	C	1.004959	0.578116	0.500085
C48	C	1.254959	0.828116	0.750085
C49	C	0.105856	0.125350	0.000128
C50	C	0.355856	0.375350	0.250128
C51	C	0.605856	0.625350	0.500128
C52	C	0.855856	0.875350	0.750128
C53	C	0.046456	0.124638	0.000135
C54	C	0.296456	0.374638	0.250135
C55	C	0.546456	0.624638	0.500135
C56	C	0.796456	0.874638	0.750135
O57	O	0.009711	0.168424	0.000168
O58	O	0.259711	0.418424	0.250168
O59	O	0.509711	0.668424	0.500168
O60	O	0.759711	0.918424	0.750168
N61	N	0.023830	0.072362	0.000148
N62	N	0.273830	0.322362	0.250148
N63	N	0.523830	0.572362	0.500148
N64	N	0.773830	0.822362	0.750148
C65	C	0.060607	0.020794	0.000166
C66	C	0.310607	0.270794	0.250166
C67	C	0.560607	0.520794	0.500166
C68	C	0.810607	0.770794	0.750166
O69	O	0.035908	-0.023737	0.000179
O70	O	0.285908	0.226263	0.250179
O71	O	0.535908	0.476263	0.500179
O72	O	0.785908	0.726263	0.750179
C73	C	0.120006	0.021506	0.000167
C74	C	0.370006	0.271506	0.250167
C75	C	0.620006	0.521506	0.500167
C76	C	0.870006	0.771506	0.750167
C77	C	0.142629	0.073785	0.000142
C78	C	0.392629	0.323785	0.250142
C79	C	0.642629	0.573785	0.500142
C80	C	0.892629	0.823785	0.750142
C81	C	0.128479	0.177625	0.000104
C82	C	0.378479	0.427625	0.250104
C83	C	0.628479	0.677625	0.500104
C84	C	0.878479	0.927625	0.750104
C85	C	0.187876	0.178336	0.000094
C86	C	0.437876	0.428336	0.250094
C87	C	0.687876	0.678336	0.500094
C88	C	0.937876	0.928336	0.750094
C89	C	0.224649	0.126772	0.000108
C90	C	0.474649	0.376772	0.250108
C91	C	0.724649	0.626772	0.500108
C92	C	0.974649	0.876772	0.750108
C93	C	0.202025	0.074496	0.000132
C94	C	0.452025	0.324496	0.250132
C95	C	0.702025	0.574496	0.500132
C96	C	0.952025	0.824496	0.750132
C97	C	0.156783	-0.030062	0.000193
C98	C	0.406783	0.219938	0.250193
C99	C	0.656783	0.469938	0.500193
C100	C	0.906783	0.719938	0.750193
C101	C	0.216185	-0.029345	0.000195
C102	C	0.466185	0.220655	0.250195
C103	C	0.716185	0.470655	0.500195
C104	C	0.966185	0.720655	0.750195
C105	C	0.238808	0.022934	0.000170
C106	C	0.488808	0.272934	0.250170
C107	C	0.738808	0.522934	0.500170
C108	C	0.988808	0.772934	0.750170
C109	C	0.298194	0.023643	0.000136
C110	C	0.548194	0.273643	0.250136
C111	C	0.798194	0.523643	0.500136
C112	C	1.048194	0.773643	0.750136
N113	N	0.320820	0.075920	0.000123
N114	N	0.570820	0.325920	0.250123
N115	N	0.820820	0.575920	0.500123
N116	N	1.070820	0.825920	0.750123
C117	C	0.284048	0.127484	0.000109
C118	C	0.534048	0.377484	0.250109
C119	C	0.784048	0.627484	0.500109
C120	C	1.034048	0.877484	0.750109
C121	C	-0.064135	0.019302	0.000166
C122	C	0.185865	0.269302	0.250166
C123	C	0.435865	0.519302	0.500166
C124	C	0.685865	0.769302	0.750166
C125	C	-0.123533	0.018589	0.000156
C126	C	0.126467	0.268589	0.250156
C127	C	0.376467	0.518589	0.500156
C128	C	0.626467	0.768589	0.750156
C129	C	-0.137680	0.122434	0.000128
C130	C	0.112320	0.372434	0.250128
C131	C	0.362320	0.622434	0.500128
C132	C	0.612320	0.872434	0.750128
C133	C	-0.078281	0.123146	0.000129
C134	C	0.171719	0.373146	0.250129
C135	C	0.421719	0.623146	0.500129
C136	C	0.671719	0.873146	0.750129
C137	C	-0.041509	0.071578	0.000153
C138	C	0.208491	0.321578	0.250153
C139	C	0.458491	0.571578	0.500153
C140	C	0.708491	0.821578	0.750153
C141	C	0.408784	0.128974	0.000087
C142	C	0.658784	0.378974	0.250087
C143	C	0.908784	0.628974	0.500087
C144	C	1.158784	0.878974	0.750087
C145	C	0.468186	0.129680	0.000071
C146	C	0.718186	0.379680	0.250071
C147	C	0.968186	0.629680	0.500071
C148	C	1.218186	0.879680	0.750071
C149	C	0.482329	0.025836	0.000106
C150	C	0.732329	0.275836	0.250106
C151	C	0.982329	0.525836	0.500106
C152	C	1.232329	0.775836	0.750106
C153	C	0.422932	0.025129	0.000115
C154	C	0.672932	0.275129	0.250115
C155	C	0.922932	0.525129	0.500115
C156	C	1.172932	0.775129	0.750115
C157	C	0.386160	0.076702	0.000109
C158	C	0.636160	0.326702	0.250109
C159	C	0.886160	0.576702	0.500109
C160	C	1.136160	0.826702	0.750109
O161	O	0.334974	-0.020119	0.000108
O162	O	0.584974	0.229881	0.250108
O163	O	0.834974	0.479881	0.500108
O164	O	1.084974	0.729881	0.750108
O165	O	0.308755	0.172007	0.000112
O166	O	0.558755	0.422007	0.250112
O167	O	0.808755	0.672007	0.500112
O168	O	1.058755	0.922007	0.750112
C169	C	0.677071	-0.030013	0.000149
C170	C	0.927071	0.219987	0.250149
C171	C	1.177071	0.469987	0.500149
C172	C	1.427071	0.719987	0.750149
C173	C	0.676305	-0.093230	0.000158
C174	C	0.926305	0.156770	0.250158
C175	C	1.176305	0.406770	0.500158
C176	C	1.426305	0.656770	0.750158
C177	C	0.723539	-0.492333	0.000102
C178	C	0.973539	-0.242333	0.250102
C179	C	1.223539	0.007667	0.500102
C180	C	1.473539	0.257667	0.750102
C181	C	0.722827	-0.551733	0.000092
C182	C	0.972827	-0.301733	0.250092
C183	C	1.222827	-0.051733	0.500092
C184	C	1.472827	0.198267	0.750092
O185	O	0.766613	-0.588478	0.000057
O186	O	1.016613	-0.338478	0.250057
O187	O	1.266613	-0.088478	0.500057
O188	O	1.516613	0.161522	0.750057
N189	N	0.670551	-0.574359	0.000081
N190	N	0.920551	-0.324359	0.250081
N191	N	1.170551	-0.074359	0.500081
N192	N	1.420551	0.175641	0.750081
C193	C	0.618983	-0.537582	0.000067
C194	C	0.868983	-0.287582	0.250067
C195	C	1.118983	-0.037582	0.500067
C196	C	1.368983	0.212418	0.750067
O197	O	0.574452	-0.562281	0.000056
O198	O	0.824452	-0.312281	0.250056
O199	O	1.074452	-0.062281	0.500056
O200	O	1.324452	0.187719	0.750056
C201	C	0.619695	-0.478182	0.000068
C202	C	0.869695	-0.228182	0.250068
C203	C	1.119695	0.021818	0.500068
C204	C	1.369695	0.271818	0.750068
C205	C	0.671974	-0.455560	0.000091
C206	C	0.921974	-0.205560	0.250091
C207	C	1.171974	0.044440	0.500091
C208	C	1.421974	0.294440	0.750091
C209	C	0.775814	-0.469710	0.000124
C210	C	1.025814	-0.219710	0.250124
C211	C	1.275814	0.030290	0.500124
C212	C	1.525814	0.280290	0.750124
C213	C	0.776525	-0.410313	0.000136
C214	C	1.026525	-0.160313	0.250136
C215	C	1.276525	0.089687	0.500136
C216	C	1.526525	0.339687	0.750136
C217	C	0.724961	-0.373540	0.000125
C218	C	0.974961	-0.123540	0.250125
C219	C	1.224961	0.126460	0.500125
C220	C	1.474961	0.376460	0.750125
C221	C	0.672685	-0.396164	0.000103
C222	C	0.922685	-0.146164	0.250103
C223	C	1.172685	0.103836	0.500103
C224	C	1.422685	0.353836	0.750103
C225	C	0.568127	-0.441406	0.000045
C226	C	0.818127	-0.191406	0.250045
C227	C	1.068127	0.058594	0.500045
C228	C	1.318127	0.308594	0.750045
C229	C	0.568844	-0.382004	0.000045
C230	C	0.818844	-0.132004	0.250045
C231	C	1.068844	0.117996	0.500045
C232	C	1.318844	0.367996	0.750045
C233	C	0.621123	-0.359381	0.000068
C234	C	0.871123	-0.109381	0.250068
C235	C	1.121123	0.140619	0.500068
C236	C	1.371123	0.390619	0.750068
C237	C	0.621832	-0.299995	0.000105
C238	C	0.871832	-0.049995	0.250105
C239	C	1.121832	0.200005	0.500105
C240	C	1.371832	0.450005	0.750105
N241	N	0.674109	-0.277368	0.000116
N242	N	0.924109	-0.027368	0.250116
N243	N	1.174109	0.222632	0.500116
N244	N	1.424109	0.472632	0.750116
C245	C	0.725673	-0.314141	0.000126
C246	C	0.975673	-0.064141	0.250126
C247	C	1.225673	0.185859	0.500126
C248	C	1.475673	0.435859	0.750126
C249	C	0.617491	-0.662324	0.000063
C250	C	0.867491	-0.412324	0.250063
C251	C	1.117491	-0.162324	0.500063
C252	C	1.367491	0.087676	0.750063
C253	C	0.616778	-0.721722	0.000072
C254	C	0.866778	-0.471722	0.250072
C255	C	1.116778	-0.221722	0.500072
C256	C	1.366778	0.028278	0.750072
C257	C	0.720623	-0.735869	0.000094
C258	C	0.970623	-0.485869	0.250094
C259	C	1.220623	-0.235869	0.500094
C260	C	1.470623	0.014131	0.750094
C261	C	0.721335	-0.676470	0.000095
C262	C	0.971335	-0.426470	0.250095
C263	C	1.221335	-0.176470	0.500095
C264	C	1.471335	0.073530	0.750095
C265	C	0.669767	-0.639698	0.000075
C266	C	0.919767	-0.389698	0.250075
C267	C	1.169767	-0.139698	0.500075
C268	C	1.419767	0.110302	0.750075
C269	C	0.727163	-0.189405	0.000152
C270	C	0.977163	0.060595	0.250152
C271	C	1.227163	0.310595	0.500152
C272	C	1.477163	0.560595	0.750152
C273	C	0.727869	-0.130003	0.000169
C274	C	0.977869	0.119997	0.250169
C275	C	1.227869	0.369997	0.500169
C276	C	1.477869	0.619997	0.750169
C277	C	0.624025	-0.115860	0.000139
C278	C	0.874025	0.134140	0.250139
C279	C	1.124025	0.384140	0.500139
C280	C	1.374025	0.634140	0.750139
C281	C	0.623318	-0.175257	0.000129
C282	C	0.873318	0.074743	0.250129
C283	C	1.123318	0.324743	0.500129
C284	C	1.373318	0.574743	0.750129
C285	C	0.674891	-0.212029	0.000131
C286	C	0.924891	0.037971	0.250131
C287	C	1.174891	0.287971	0.500131
C288	C	1.424891	0.537971	0.750131
O289	O	0.578070	-0.263215	0.000135
O290	O	0.828070	-0.013215	0.250135
O291	O	1.078070	0.236785	0.500135
O292	O	1.328070	0.486785	0.750135
O293	O	0.770196	-0.289433	0.000121
O294	O	1.020196	-0.039433	0.250121
O295	O	1.270196	0.210567	0.500121
O296	O	1.520196	0.460567	0.750121
C297	C	0.776472	0.069388	0.000143
C298	C	1.026472	0.319388	0.250143
C299	C	1.276472	0.569388	0.500143
C300	C	1.526472	0.819388	0.750143
C301	C	0.839689	0.070154	0.000148
C302	C	1.089689	0.320154	0.250148
C303	C	1.339689	0.570154	0.500148
C304	C	1.589689	0.820154	0.750148
N305	N	0.672317	0.074129	0.318950
N306	N	0.922317	0.324129	0.568950
N307	N	1.172317	0.574129	0.818950
N308	N	1.422317	0.824129	1.068950
C309	C	0.667577	0.178283	0.000093
C310	C	0.917577	0.428283	0.250093
C311	C	1.167577	0.678283	0.500093
C312	C	1.417577	0.928283	0.750093
C313	C	0.668343	0.241500	0.000075
C314	C	0.918343	0.491500	0.250075
C315	C	1.168343	0.741500	0.500075
C316	C	1.418343	0.991500	0.750075
N317	N	0.672336	0.074136	-0.318706
N318	N	0.922336	0.324136	-0.068706
N319	N	1.172336	0.574136	0.181294
N320	N	1.422336	0.824136	0.431294
C321	C	0.672326	0.074136	0.569956
C322	C	0.922326	0.324136	0.819956
C323	C	1.172326	0.574136	1.069956
C324	C	1.422326	0.824136	1.319956
C325	C	0.672319	0.074134	0.430279
C326	C	0.922319	0.324134	0.680279
C327	C	1.172319	0.574134	0.930279
C328	C	1.422319	0.824134	1.180279
H329	H	-0.034198	-0.022693	0.000175
H330	H	0.215802	0.227307	0.250175
H331	H	0.465802	0.477307	0.500175
H332	H	0.715802	0.727307	0.750175
O333	O	0.398530	-0.031258	0.000134
O334	O	0.648530	0.218742	0.250134
O335	O	0.898530	0.468742	0.500134
O336	O	1.148530	0.718742	0.750134
H337	H	0.371811	-0.034064	0.083552
H338	H	0.621811	0.215936	0.333552
H339	H	0.871811	0.465936	0.583552
H340	H	1.121811	0.715936	0.833552
H341	H	-0.167632	0.164421	0.000122
H342	H	0.082368	0.414421	0.250122
H343	H	0.332368	0.664421	0.500122
H344	H	0.582368	0.914421	0.750122
O345	O	0.561868	-0.622662	0.000074
O346	O	0.811868	-0.372662	0.250074
O347	O	1.061868	-0.122662	0.500074
O348	O	1.311868	0.127338	0.750074
H349	H	0.525402	-0.648380	0.000082
H350	H	0.775402	-0.398380	0.250082
H351	H	1.025402	-0.148380	0.500082
H352	H	1.275402	0.101620	0.750082
H353	H	0.512280	-0.016146	0.000113
H354	H	0.762280	0.233854	0.250113
H355	H	1.012280	0.483854	0.500113
H356	H	1.262280	0.733854	0.750113
O357	O	0.566933	-0.199664	0.000108
O358	O	0.816933	0.050336	0.250108
O359	O	1.066933	0.300336	0.500108
O360	O	1.316933	0.550336	0.750108
H361	H	0.531197	-0.164111	0.000097
H362	H	0.781197	0.085889	0.250097
H363	H	1.031197	0.335889	0.500097
H364	H	1.281197	0.585889	0.750097
H365	H	-0.141947	-0.023982	0.000157
H366	H	0.108053	0.226018	0.250157
H367	H	0.358053	0.476018	0.500157
H368	H	0.608053	0.726018	0.750157
O369	O	0.560392	-0.746121	0.000062
O370	O	0.810392	-0.496121	0.250062
O371	O	1.060392	-0.246121	0.500062
O372	O	1.310392	0.003879	0.750062
H373	H	0.524659	-0.710565	0.000050
H374	H	0.774659	-0.460565	0.250050
H375	H	1.024659	-0.210565	0.500050
H376	H	1.274659	0.039435	0.750050
H377	H	0.526850	-0.352066	0.000026
H378	H	0.776850	-0.102066	0.250026
H379	H	1.026850	0.147934	0.500026
H380	H	1.276850	0.397934	0.750026
H381	H	0.138375	-0.072634	0.000215
H382	H	0.388375	0.177366	0.250215
H383	H	0.638375	0.427366	0.500215
H384	H	0.888375	0.677366	0.750215
O385	O	0.831437	-0.509363	0.000149
O386	O	1.081437	-0.259363	0.250149
O387	O	1.331437	-0.009363	0.500149
O388	O	1.581437	0.240637	0.750149
H389	H	0.833615	-0.536758	-0.083260
H390	H	1.083615	-0.286758	0.166740
H391	H	1.333615	-0.036758	0.416740
H392	H	1.583615	0.213242	0.666740
O393	O	0.784258	-0.105601	0.000175
O394	O	1.034258	0.144399	0.250175
O395	O	1.284258	0.394399	0.500175
O396	O	1.534258	0.644399	0.750175
H397	H	0.819993	-0.141155	0.000162
H398	H	1.069993	0.108845	0.250162
H399	H	1.319993	0.358845	0.500162
H400	H	1.569993	0.608845	0.750162
H401	H	0.582043	-0.085909	0.000135
H402	H	0.832043	0.164091	0.250135
H403	H	1.082043	0.414091	0.500135
H404	H	1.332043	0.664091	0.750135
O405	O	0.255849	-0.084966	0.000216
O406	O	0.505849	0.165034	0.250216
O407	O	0.755849	0.415034	0.500216
O408	O	1.005849	0.665034	0.750216
H409	H	0.230134	-0.121435	0.000225
H410	H	0.480134	0.128565	0.250225
H411	H	0.730134	0.378565	0.500225
H412	H	0.980134	0.628565	0.750225
H413	H	0.769159	-0.219337	0.000149
H414	H	1.019159	0.030663	0.250149
H415	H	1.269159	0.280663	0.500149
H416	H	1.519159	0.530663	0.750149
H417	H	-0.059867	0.165717	0.000115
H418	H	0.190133	0.415717	0.250115
H419	H	0.440133	0.665717	0.500115
H420	H	0.690133	0.915717	0.750115
H421	H	0.486602	0.172255	0.000050
H422	H	0.736602	0.422255	0.250050
H423	H	0.986602	0.672255	0.500050
H424	H	1.236602	0.922255	0.750050
H425	H	0.378851	0.170970	0.000086
H426	H	0.628851	0.420970	0.250086
H427	H	0.878851	0.670970	0.500086
H428	H	1.128851	0.920970	0.750086
O429	O	0.832912	-0.385916	0.000125
O430	O	1.082912	-0.135916	0.250125
O431	O	1.332912	0.114084	0.500125
O432	O	1.582912	0.364084	0.750125
H433	H	0.868644	-0.421473	0.000111
H434	H	1.118644	-0.171473	0.250111
H435	H	1.368644	0.078527	0.500111
H436	H	1.618644	0.328527	0.750111
O437	O	0.212273	0.234723	0.000103
O438	O	0.462273	0.484723	0.250103
O439	O	0.712273	0.734723	0.500103
O440	O	0.962273	0.984723	0.750103
H441	H	0.176716	0.270455	0.000115
H442	H	0.426716	0.520455	0.250115
H443	H	0.676716	0.770455	0.500115
H444	H	0.926716	1.020455	0.750115
H445	H	0.098544	0.219617	0.000097
H446	H	0.348544	0.469617	0.250097
H447	H	0.598544	0.719617	0.500097
H448	H	0.848544	0.969617	0.750097
H449	H	0.763906	-0.658056	0.000113
H450	H	1.013906	-0.408056	0.250113
H451	H	1.263906	-0.158056	0.500113
H452	H	1.513906	0.091944	0.750113
O453	O	0.776242	-0.775537	0.000093
O454	O	1.026242	-0.525537	0.250093
O455	O	1.276242	-0.275537	0.500093
O456	O	1.526242	-0.025537	0.750093
H457	H	0.766960	-0.820640	0.000074
H458	H	1.016960	-0.570640	0.250074
H459	H	1.266960	-0.320640	0.500074
H460	H	1.516960	-0.070640	0.750074
O461	O	0.511739	-0.465798	0.000015
O462	O	0.761739	-0.215798	0.250015
O463	O	1.011739	0.034202	0.500015
O464	O	1.261739	0.284202	0.750015
H465	H	0.476009	-0.430240	-0.000007
H466	H	0.726009	-0.180240	0.249993
H467	H	0.976009	0.069760	0.499993
H468	H	1.226009	0.319760	0.749993
