data_functionalizedCrystal
_audit_creation_method	'MofGen! by Chris Wilmer'
_symmetry_space_group_name_H-M	'P1'
_symmetry_Int_Tables_number	1
_symmetry_cell_setting	triclinic
loop_
_symmetry_equiv_pos_as_xyz
  x,y,z
_cell_length_a	10.540539
_cell_length_b	16.974885
_cell_length_c	16.053802
_cell_angle_alpha	91.069328
_cell_angle_beta	92.593658
_cell_angle_gamma	83.957898
loop_
_atom_site_label
_atom_site_type_symbol
_atom_site_fract_x
_atom_site_fract_y
_atom_site_fract_z
O1	O	0.161849	1.049979	0.001454
O2	O	0.661849	1.549979	0.501454
O3	O	0.181272	0.820628	-0.014030
O4	O	0.681272	1.320628	0.485970
O5	O	-0.013204	0.940536	-0.005934
O6	O	0.486796	1.440536	0.494066
O7	O	0.356326	0.930071	-0.006642
O8	O	0.856326	1.430071	0.493358
O9	O	-0.002544	0.933936	0.132479
O10	O	0.497456	1.433936	0.632479
O11	O	0.191933	0.814028	0.124383
O12	O	0.691933	1.314028	0.624383
O13	O	0.172509	1.043378	0.139867
O14	O	0.672509	1.543378	0.639867
Zn15	Zn	0.183914	0.927655	0.154101
Zn16	Zn	0.683914	1.427655	0.654101
Zn17	Zn	0.169868	0.936351	-0.028264
Zn18	Zn	0.669868	1.436351	0.471736
O19	O	0.366986	0.923471	0.131771
O20	O	0.866986	1.423471	0.631771
C21	C	0.185667	0.787960	0.053194
C22	C	0.685667	1.287960	0.553194
C23	C	0.182865	0.700452	0.047286
C24	C	0.682865	1.200452	0.547286
C25	C	0.166422	0.208270	0.005875
C26	C	0.666422	0.708270	0.505875
C27	C	0.169056	0.290492	0.011438
C28	C	0.669056	0.790492	0.511438
C29	C	0.176193	0.327997	0.089669
C30	C	0.676193	0.827997	0.589669
C31	C	0.180684	0.283275	0.162342
C32	C	0.680684	0.783275	0.662342
C33	C	0.178041	0.201055	0.156779
C34	C	0.678041	0.701055	0.656779
C35	C	0.184713	0.573511	0.114397
C36	C	0.684713	1.073511	0.614397
C37	C	0.187359	0.655737	0.119954
C38	C	0.687359	1.155737	0.619954
C39	C	0.175729	0.662948	-0.030951
C40	C	0.675729	1.162948	0.469049
C41	C	0.173094	0.580726	-0.036507
C42	C	0.673094	1.080726	0.463493
C43	C	0.177578	0.536012	0.036166
C44	C	0.677578	1.036012	0.536166
N45	N	0.178889	0.412040	0.095356
N46	N	0.678889	0.912040	0.595356
N47	N	0.174873	0.451971	0.030478
N48	N	0.674873	0.951971	0.530478
C49	C	-0.055169	0.936451	0.063218
C50	C	0.444831	1.436451	0.563218
C51	C	-0.196091	0.934103	0.063055
C52	C	0.303909	1.434103	0.563055
C53	C	-0.378534	0.844146	0.056671
C54	C	0.121466	1.344146	0.556671
C55	C	-0.231919	0.846511	0.057143
C56	C	0.268081	1.346511	0.557143
C57	C	-0.252133	0.972487	0.144942
C58	C	0.247867	1.472487	0.644942
C59	C	-0.398639	0.969495	0.144807
C60	C	0.101361	1.469495	0.644807
C61	C	-0.411300	0.978782	-0.012475
C62	C	0.088700	1.478782	0.487525
C63	C	-0.264407	0.979638	-0.013465
C64	C	0.235593	1.479638	0.486535
C65	C	0.408950	0.927556	0.062617
C66	C	0.908950	1.427556	0.562617
C67	C	0.549872	0.929904	0.062774
C68	C	1.049872	1.429904	0.562774
C69	C	0.168114	1.076047	0.072641
C70	C	0.668114	1.576047	0.572641
C71	C	0.170916	1.163554	0.078543
C72	C	0.670916	1.663554	0.578543
N73	N	0.193498	0.921726	0.278561
N74	N	0.693498	1.421726	0.778561
N75	N	0.160273	0.942287	-0.152724
N76	N	0.660273	1.442287	0.347276
C77	C	0.110778	0.972766	0.325701
C78	C	0.610778	1.472766	0.825701
C79	C	0.117495	0.968626	0.412828
C80	C	0.617495	1.468626	0.912828
C81	C	0.206939	0.913449	0.452814
C82	C	0.706939	1.413449	0.952814
C83	C	0.289663	0.862404	0.405668
C84	C	0.789663	1.362404	0.905668
C85	C	0.282940	0.866541	0.318542
C86	C	0.782940	1.366541	0.818542
C87	C	0.236274	0.895378	0.713004
C88	C	0.736274	1.395378	1.213004
C89	C	0.242994	0.891247	0.800136
C90	C	0.742994	1.391247	1.300136
C91	C	0.070823	0.997468	0.807291
C92	C	0.570823	1.497468	1.307291
C93	C	0.064112	1.001603	0.720163
C94	C	0.564112	1.501603	1.220163
C95	C	0.146832	0.950555	0.673024
C96	C	0.646832	1.450555	1.173024
N97	N	0.213810	0.909218	0.541872
N98	N	0.713810	1.409218	1.041872
N99	N	0.139954	0.954784	0.583967
N100	N	0.639954	1.454784	1.083967
H101	H	0.172076	0.699363	-0.090117
H102	H	0.672076	1.199363	0.409883
H103	H	-0.447149	0.953289	-0.074297
H104	H	0.052851	1.453289	0.425703
C105	C	0.026503	1.024767	0.464683
C106	C	0.526503	1.524767	0.964683
H107	H	0.043303	1.014395	0.522298
H108	H	0.543303	1.514395	1.022298
H109	H	0.039415	1.078121	0.453950
H110	H	0.539415	1.578121	0.953950
H111	H	-0.059358	1.016407	0.449799
H112	H	0.440642	1.516407	0.949799
H113	H	0.167280	0.550196	-0.100211
H114	H	0.667280	1.050196	0.399789
H115	H	-0.227707	0.951584	-0.074020
H116	H	0.272293	1.451584	0.425980
H117	H	0.315836	0.846313	0.832688
H118	H	0.815836	1.346313	1.332688
C119	C	-0.412954	0.793954	0.129662
C120	C	0.087046	1.293954	0.629662
H121	H	-0.369306	0.742231	0.125496
H122	H	0.130694	1.242231	0.625496
H123	H	-0.388351	0.818014	0.180948
H124	H	0.111649	1.318014	0.680948
H125	H	-0.502455	0.790640	0.127559
H126	H	-0.002455	1.290640	0.627559
H127	H	-0.185418	0.810404	0.111642
H128	H	0.314582	1.310404	0.611642
C129	C	-0.020175	1.053610	0.859141
C130	C	0.479825	1.553610	1.359141
H131	H	-0.074402	1.087065	0.822848
H132	H	0.425598	1.587065	1.322848
H133	H	-0.070515	1.023349	0.891205
H134	H	0.429485	1.523349	1.391205
H135	H	0.028256	1.085065	0.895349
H136	H	0.528256	1.585065	1.395349
C137	C	0.158574	0.167018	-0.080177
C138	C	0.658574	0.667018	0.419823
H139	H	0.157655	0.111645	-0.073086
H140	H	0.657655	0.611645	0.426914
H141	H	0.082661	0.187571	-0.109887
H142	H	0.582661	0.687571	0.390113
H143	H	0.230583	0.176380	-0.110646
H144	H	0.730583	0.676380	0.389354
C145	C	0.327273	0.839234	0.661162
C146	C	0.827273	1.339234	1.161162
H147	H	0.381513	0.805789	0.697458
H148	H	0.881513	1.305789	1.197458
H149	H	0.278851	0.807782	0.624954
H150	H	0.778851	1.307782	1.124954
H151	H	0.377619	0.869499	0.629099
H152	H	0.877619	1.369499	1.129099
H153	H	0.181714	0.164648	0.215953
H154	H	0.681714	0.664648	0.715953
C155	C	0.388052	0.801712	0.449650
C156	C	0.888052	1.301712	0.949650
H157	H	0.380220	0.806563	0.508291
H158	H	0.880220	1.306563	1.008291
H159	H	0.372940	0.749713	0.431831
H160	H	0.872940	1.249713	0.931831
H161	H	0.471709	0.811430	0.435969
H162	H	0.971709	1.311430	0.935969
H163	H	-0.411112	0.812248	-0.002347
H164	H	0.088888	1.312248	0.497653
H165	H	-0.459275	1.042074	-0.008735
H166	H	0.040725	1.542074	0.491265
C167	C	0.164119	0.339675	-0.068497
C168	C	0.664119	0.839675	0.431503
H169	H	0.159507	0.305562	-0.115885
H170	H	0.659507	0.805562	0.384115
H171	H	0.090951	0.377495	-0.069089
H172	H	0.590951	0.877495	0.430911
H173	H	0.238874	0.366302	-0.069841
H174	H	0.738874	0.866302	0.430159
C175	C	0.195147	0.696996	0.206012
C176	C	0.695147	1.196996	0.706012
H177	H	0.197410	0.658593	0.248498
H178	H	0.697410	1.158593	0.748498
H179	H	0.270362	0.723335	0.210964
H180	H	0.770362	1.223335	0.710964
H181	H	0.122435	0.734507	0.211668
H182	H	0.622435	1.234507	0.711668
H183	H	-0.241268	1.043727	-0.013927
H184	H	0.258732	1.543727	0.486073
C185	C	-0.188039	0.929144	0.221736
C186	C	0.311961	1.429144	0.721736
H187	H	-0.222591	0.952809	0.270987
H188	H	0.277409	1.452809	0.770987
H189	H	-0.203284	0.874975	0.218791
H190	H	0.296716	1.374975	0.718791
H191	H	-0.098693	0.932920	0.222812
H192	H	0.401307	1.432920	0.722812
C193	C	-0.179749	0.805344	-0.022415
C194	C	0.320251	1.305344	0.477585
H195	H	-0.248176	0.787017	-0.055314
H196	H	0.251824	1.287017	0.444686
H197	H	-0.139316	0.841908	-0.053498
H198	H	0.360684	1.341908	0.446502
H199	H	-0.119584	0.761689	-0.007511
H200	H	0.380416	1.261689	0.492489
H201	H	-0.421939	0.935524	0.201788
H202	H	0.078061	1.435524	0.701788
C203	C	-0.034284	1.062293	0.676184
C204	C	0.465716	1.562293	1.176184
H205	H	-0.082597	1.092094	0.716738
H206	H	0.417403	1.592094	1.216738
H207	H	0.008896	1.096969	0.644415
H208	H	0.508896	1.596969	1.144415
H209	H	-0.089874	1.035253	0.640276
H210	H	0.410126	1.535253	1.140276
C211	C	-0.464025	1.054358	0.155412
C212	C	0.035975	1.554358	0.655412
H213	H	-0.401014	1.090507	0.159790
H214	H	0.098986	1.590507	0.659790
H215	H	-0.519990	1.067210	0.108467
H216	H	-0.019990	1.567210	0.608467
H217	H	-0.511390	1.057712	0.204539
H218	H	-0.011390	1.557712	0.704539
H219	H	0.037948	1.017700	0.293151
H220	H	0.537948	1.517700	0.793151
C221	C	0.373937	0.810400	0.266688
C222	C	0.873937	1.310400	0.766688
H223	H	0.428179	0.776951	0.302979
H224	H	0.928179	1.276951	0.802979
H225	H	0.325509	0.778952	0.230479
H226	H	0.825509	1.278952	0.730479
H227	H	0.424283	0.840666	0.234624
H228	H	0.924283	1.340666	0.734624
H229	H	0.188346	0.537117	0.173573
H230	H	0.688346	1.037117	0.673573
C231	C	-0.222597	1.059192	0.154788
C232	C	0.277403	1.559192	0.654788
H233	H	-0.175707	1.072784	0.108938
H234	H	0.324293	1.572784	0.608938
H235	H	-0.300290	1.092964	0.156334
H236	H	0.199710	1.592964	0.656334
H237	H	-0.173544	1.065314	0.205164
H238	H	0.326456	1.565314	0.705164
H239	H	0.186487	0.313819	0.226039
H240	H	0.686487	0.813819	0.726039
