data_functionalizedCrystal
_audit_creation_method	'MofGen! by Chris Wilmer'
_symmetry_space_group_name_H-M	'P1'
_symmetry_Int_Tables_number	1
_symmetry_cell_setting	triclinic
loop_
_symmetry_equiv_pos_as_xyz
  x,y,z
_cell_length_a	14.853569
_cell_length_b	14.853567
_cell_length_c	13.330367
_cell_angle_alpha	90.004582
_cell_angle_beta	89.994190
_cell_angle_gamma	96.364752
loop_
_atom_site_label
_atom_site_type_symbol
_atom_site_fract_x
_atom_site_fract_y
_atom_site_fract_z
O1	O	0.117704	-1.196369	-0.083357
O2	O	0.617704	-0.696369	0.416643
O3	O	0.131725	-0.933910	-0.083375
O4	O	0.631725	-0.433910	0.416625
O5	O	-0.006515	-1.072150	-0.083356
O6	O	0.493485	-0.572150	0.416644
O7	O	0.255944	-1.058130	-0.083376
O8	O	0.755944	-0.558130	0.416624
O9	O	-0.006519	-1.072130	0.083491
O10	O	0.493481	-0.572130	0.583491
O11	O	0.131722	-0.933890	0.083473
O12	O	0.631722	-0.433890	0.583473
O13	O	0.117700	-1.196349	0.083490
O14	O	0.617700	-0.696349	0.583490
Cu15	Cu	0.124711	-1.065118	0.098716
Cu16	Cu	0.624711	-0.565118	0.598716
Cu17	Cu	0.124714	-1.065142	-0.098600
Cu18	Cu	0.624714	-0.565142	0.401400
O19	O	0.255941	-1.058110	0.083471
O20	O	0.755941	-0.558110	0.583471
C21	C	0.131088	-0.900311	0.000047
C22	C	0.631088	-0.400311	0.500047
C23	C	0.129184	-0.800228	0.000041
C24	C	0.629184	-0.300228	0.500041
C25	C	-0.040106	-1.071504	0.000068
C26	C	0.459894	-0.571504	0.500068
C27	C	-0.140189	-1.069600	0.000069
C28	C	0.359811	-0.569600	0.500069
C29	C	0.118337	-1.229948	0.000066
C30	C	0.618337	-0.729948	0.500066
C31	C	0.120241	-1.330032	0.000066
C32	C	0.620241	-0.830032	0.500066
C33	C	-0.176566	-0.986589	0.000065
C34	C	0.323434	-0.486589	0.500065
C35	C	-0.197855	-1.150822	0.000065
C36	C	0.302145	-0.650822	0.500065
C37	C	-0.291889	-1.149035	0.000061
C38	C	0.208111	-0.649035	0.500061
C39	C	-0.328266	-1.066024	0.000057
C40	C	0.171734	-0.566024	0.500057
C41	C	-0.270608	-0.984800	0.000058
C42	C	0.229392	-0.484800	0.500058
C43	C	-0.349554	-1.230258	0.000050
C44	C	0.150446	-0.730258	0.500050
C45	C	-0.443594	-1.228475	0.000044
C46	C	0.056406	-0.728475	0.500044
C47	C	-0.479972	-1.145463	0.000048
C48	C	0.020028	-0.645463	0.500048
C49	C	-0.422309	-1.064235	0.000050
C50	C	0.077691	-0.564235	0.500050
C51	C	-0.458685	-0.981224	0.000046
C52	C	0.041315	-0.481224	0.500046
C53	C	-0.401023	-0.899996	0.000055
C54	C	0.098977	-0.399996	0.500055
C55	C	-0.306987	-0.901788	0.000061
C56	C	0.193013	-0.401788	0.500061
C57	C	-0.574009	-1.143670	0.000042
C58	C	-0.074009	-0.643670	0.500042
C59	C	-0.552728	-0.979435	0.000038
C60	C	-0.052728	-0.479435	0.500038
C61	C	0.289531	-1.058755	0.000045
C62	C	0.789531	-0.558755	0.500045
C63	C	0.389615	-1.060660	0.000038
C64	C	0.889615	-0.560660	0.500038
N65	N	0.124708	-1.065108	0.237497
N66	N	0.624708	-0.565108	0.737497
C67	C	0.039019	-0.387693	0.000070
C68	C	0.539019	0.112307	0.500070
C69	C	0.203251	-0.366413	0.000056
C70	C	0.703251	0.133587	0.500056
C71	C	0.205041	-0.460447	0.000053
C72	C	0.705041	0.039553	0.500053
C73	C	0.123819	-0.518108	0.000057
C74	C	0.623819	-0.018108	0.500057
C75	C	0.040806	-0.481736	0.000064
C76	C	0.540806	0.018264	0.500064
C77	C	0.288053	-0.496826	0.000036
C78	C	0.788053	0.003174	0.500036
C79	C	0.289846	-0.590866	0.000031
C80	C	0.789846	-0.090866	0.500031
C81	C	0.208622	-0.648529	0.000042
C82	C	0.708622	-0.148529	0.500042
C83	C	0.125606	-0.612151	0.000050
C84	C	0.625606	-0.112151	0.500050
C85	C	0.044384	-0.669813	0.000054
C86	C	0.544384	-0.169813	0.500054
C87	C	-0.038633	-0.633437	0.000069
C88	C	0.461367	-0.133437	0.500069
C89	C	-0.040417	-0.539399	0.000074
C90	C	0.459583	-0.039399	0.500074
C91	C	0.210407	-0.742566	0.000037
C92	C	0.710407	-0.242566	0.500037
C93	C	0.046172	-0.763855	0.000047
C94	C	0.546172	-0.263855	0.500047
N95	N	0.124710	-1.065159	-0.237382
N96	N	0.624710	-0.565159	0.262618
C97	C	0.185903	-1.003926	0.710112
C98	C	0.685903	-0.503926	1.210112
C99	C	0.063519	-1.126381	0.710097
C100	C	0.563519	-0.626381	1.210097
C101	C	0.063516	-1.126371	0.605078
C102	C	0.563516	-0.626371	1.105078
C103	C	0.124709	-1.065138	0.552572
C104	C	0.624709	-0.565138	1.052572
C105	C	0.185904	-1.003916	0.605084
C106	C	0.685904	-0.503916	1.105084
C107	C	0.002328	-1.187598	0.552558
C108	C	0.502328	-0.687598	1.052558
C109	C	0.002323	-1.187591	0.447534
C110	C	0.502323	-0.687591	0.947534
C111	C	0.063512	-1.126354	0.395025
C112	C	0.563512	-0.626354	0.895025
C113	C	0.124710	-1.065128	0.447544
C114	C	0.624710	-0.565128	0.947544
C115	C	0.185902	-1.003896	0.395037
C116	C	0.685902	-0.503896	0.895037
C117	C	0.247096	-0.942665	0.447554
C118	C	0.747096	-0.442665	0.947554
C119	C	0.247093	-0.942679	0.552576
C120	C	0.747093	-0.442679	1.052576
C121	C	0.063515	-1.126340	0.290004
C122	C	0.563515	-0.626340	0.790004
C123	C	0.185903	-1.003885	0.290009
C124	C	0.685903	-0.503885	0.790009
H125	H	-0.582338	-0.911837	0.000045
H126	H	-0.082338	-0.411837	0.500045
Br127	Br	-0.073642	-0.338330	0.000099
Br128	Br	0.426358	0.161670	0.500099
Br129	Br	0.402508	-0.640225	0.000011
Br130	Br	0.902508	-0.140225	0.500011
H131	H	-0.430653	-0.832408	0.000046
H132	H	0.069347	-0.332408	0.500046
H133	H	-0.129613	-0.920455	0.000076
H134	H	0.370387	-0.420455	0.500076
Br135	Br	0.268948	-0.920772	0.218758
Br136	Br	0.768948	-0.420772	0.718758
H137	H	0.296924	-0.892813	0.404791
H138	H	0.796924	-0.392813	0.904791
Br139	Br	-0.148486	-1.263474	0.000055
Br140	Br	0.351514	-0.763474	0.500055
H141	H	0.296916	-0.892828	0.595341
H142	H	0.796916	-0.392828	1.095341
Br143	Br	0.398276	-0.418570	0.000009
Br144	Br	0.898276	0.081430	0.500009
Br145	Br	-0.521842	-1.338711	0.000037
Br146	Br	-0.021842	-0.838711	0.500037
H147	H	0.013702	-1.176239	0.752851
H148	H	0.513702	-0.676239	1.252851
Br149	Br	-0.064065	-0.842104	0.000064
Br150	Br	0.435935	-0.342104	0.500064
H151	H	-0.260030	-0.835656	0.000066
H152	H	0.239970	-0.335656	0.500066
H153	H	-0.319929	-1.297841	0.000115
H154	H	0.180071	-0.797841	0.500115
Br155	Br	-0.019519	-1.209440	0.218738
Br156	Br	0.480481	-0.709440	0.718738
Br157	Br	-0.652260	-1.253899	0.000014
Br158	Br	-0.152260	-0.753899	0.500014
H159	H	-0.047504	-1.237447	0.404781
H160	H	0.452496	-0.737447	0.904781
Br161	Br	0.268943	-0.920825	0.781377
Br162	Br	0.768943	-0.420825	1.281377
Br163	Br	-0.080709	-1.270705	0.623813
Br164	Br	0.419291	-0.770705	1.123813
H165	H	-0.108005	-0.509773	0.000111
H166	H	0.391995	-0.009773	0.500111
Br167	Br	0.323062	-0.791931	0.000005
Br168	Br	0.823062	-0.291931	0.500005
Br169	Br	-0.148859	-0.711702	0.000062
Br170	Br	0.351141	-0.211702	0.500062
H171	H	0.269379	-0.319460	0.000045
H172	H	0.769379	0.180540	0.500045
