data_functionalizedCrystal
_audit_creation_method	'MofGen! by Chris Wilmer'
_symmetry_space_group_name_H-M	'P1'
_symmetry_Int_Tables_number	1
_symmetry_cell_setting	triclinic
loop_
_symmetry_equiv_pos_as_xyz
  x,y,z
_cell_length_a	18.101398
_cell_length_b	18.050589
_cell_length_c	18.101389
_cell_angle_alpha	90.014016
_cell_angle_beta	90.024327
_cell_angle_gamma	90.023488
loop_
_atom_site_label
_atom_site_type_symbol
_atom_site_fract_x
_atom_site_fract_y
_atom_site_fract_z
Zn1	Zn	1.132136	-0.295831	0.418861
Zn2	Zn	1.382136	-0.045831	0.668861
Zn3	Zn	1.632136	0.204169	0.918861
Zn4	Zn	1.882136	0.454169	1.168861
Zn5	Zn	1.132038	-0.420005	0.295029
Zn6	Zn	1.382038	-0.170005	0.545029
Zn7	Zn	1.632038	0.079995	0.795029
Zn8	Zn	1.882038	0.329995	1.045029
Zn9	Zn	1.008295	-0.295823	0.295023
Zn10	Zn	1.258295	-0.045823	0.545023
Zn11	Zn	1.508295	0.204177	0.795023
Zn12	Zn	1.758295	0.454177	1.045023
Zn13	Zn	1.008252	-0.419974	0.418818
Zn14	Zn	1.258252	-0.169974	0.668818
Zn15	Zn	1.508252	0.080026	0.918818
Zn16	Zn	1.758252	0.330026	1.168818
O17	O	1.070180	-0.357908	0.356933
O18	O	1.320180	-0.107908	0.606933
O19	O	1.570180	0.142092	0.856933
O20	O	1.820180	0.392092	1.106933
O21	O	1.235756	-0.312320	0.402456
O22	O	1.485756	-0.062320	0.652456
O23	O	1.735756	0.187680	0.902456
O24	O	1.985756	0.437680	1.152456
O25	O	1.115600	-0.403542	0.191396
O26	O	1.365600	-0.153542	0.441396
O27	O	1.615600	0.096458	0.691396
O28	O	1.865600	0.346458	0.941396
O29	O	1.024782	-0.191900	0.311465
O30	O	1.274782	0.058100	0.561465
O31	O	1.524782	0.308100	0.811465
O32	O	1.774782	0.558100	1.061465
O33	O	1.235684	-0.403550	0.311477
O34	O	1.485684	-0.153550	0.561477
O35	O	1.735684	0.096450	0.811477
O36	O	1.985684	0.346450	1.061477
O37	O	1.115767	-0.191905	0.402449
O38	O	1.365767	0.058095	0.652449
O39	O	1.615767	0.308095	0.902449
O40	O	1.865767	0.558095	1.152449
O41	O	1.024687	-0.312306	0.191391
O42	O	1.274687	-0.062306	0.441391
O43	O	1.524687	0.187694	0.691391
O44	O	1.774687	0.437694	0.941391
O45	O	0.904656	-0.312276	0.311423
O46	O	1.154656	-0.062276	0.561423
O47	O	1.404656	0.187724	0.811423
O48	O	1.654656	0.437724	1.061423
O49	O	1.024708	-0.403496	0.522457
O50	O	1.274708	-0.153496	0.772457
O51	O	1.524708	0.096504	1.022457
O52	O	1.774708	0.346504	1.272457
O53	O	0.904625	-0.403488	0.402375
O54	O	1.154625	-0.153488	0.652375
O55	O	1.404625	0.096512	0.902375
O56	O	1.654625	0.346512	1.152375
O57	O	1.115725	-0.312289	0.522489
O58	O	1.365725	-0.062289	0.772489
O59	O	1.615725	0.187711	1.022489
O60	O	1.865725	0.437711	1.272489
O61	O	1.115558	-0.523926	0.311435
O62	O	1.365558	-0.273926	0.561435
O63	O	1.615558	-0.023926	0.811435
O64	O	1.865558	0.226074	1.061435
O65	O	1.024613	-0.523902	0.402382
O66	O	1.274613	-0.273902	0.652382
O67	O	1.524613	-0.023902	0.902382
O68	O	1.774613	0.226098	1.152382
C69	C	0.877770	-0.357878	0.356894
C70	C	1.127770	-0.107878	0.606894
C71	C	1.377770	0.142122	0.856894
C72	C	1.627770	0.392122	1.106894
C73	C	0.795455	-0.357883	0.356895
C74	C	1.045455	-0.107883	0.606895
C75	C	1.295455	0.142117	0.856895
C76	C	1.545455	0.392117	1.106895
C77	C	0.496364	-0.357930	0.356957
C78	C	0.746364	-0.107930	0.606957
C79	C	0.996364	0.142070	0.856957
C80	C	1.246364	0.392070	1.106957
C81	C	0.527685	-0.300254	0.300012
C82	C	0.777685	-0.050254	0.550012
C83	C	1.027685	0.199746	0.800012
C84	C	1.277685	0.449746	1.050012
C85	C	0.613303	-0.300409	0.299769
C86	C	0.863303	-0.050409	0.549769
C87	C	1.113303	0.199591	0.799769
C88	C	1.363303	0.449591	1.049769
C89	C	0.644747	-0.357906	0.356927
C90	C	0.894747	-0.107906	0.606927
C91	C	1.144747	0.142094	0.856927
C92	C	1.394747	0.392094	1.106927
C93	C	0.613633	-0.436133	0.335608
C94	C	0.863633	-0.186133	0.585608
C95	C	1.113633	0.063867	0.835608
C96	C	1.363633	0.313867	1.085608
C97	C	0.527988	-0.435813	0.335212
C98	C	0.777988	-0.185813	0.585212
C99	C	1.027988	0.064187	0.835212
C100	C	1.277988	0.314187	1.085212
C101	C	0.527978	-0.338057	0.435355
C102	C	0.777978	-0.088057	0.685355
C103	C	1.027978	0.161943	0.935355
C104	C	1.277978	0.411943	1.185355
C105	C	0.613629	-0.336315	0.434927
C106	C	0.863629	-0.086315	0.684927
C107	C	1.113629	0.163685	0.934927
C108	C	1.363629	0.413685	1.184927
C109	C	0.728606	-0.357897	0.356910
C110	C	0.978606	-0.107897	0.606910
C111	C	1.228606	0.142103	0.856910
C112	C	1.478606	0.392103	1.106910
C113	C	0.412505	-0.357943	0.356972
C114	C	0.662505	-0.107943	0.606972
C115	C	0.912505	0.142057	0.856972
C116	C	1.162505	0.392057	1.106972
C117	C	1.070091	-0.550860	0.356921
C118	C	1.320091	-0.300860	0.606921
C119	C	1.570091	-0.050860	0.856921
C120	C	1.820091	0.199140	1.106921
C121	C	1.070120	-0.633406	0.356940
C122	C	1.320120	-0.383406	0.606940
C123	C	1.570120	-0.133406	0.856940
C124	C	1.820120	0.116594	1.106940
C125	C	1.020713	-0.832871	0.406380
C126	C	1.270713	-0.582871	0.656380
C127	C	1.520713	-0.332871	0.906380
C128	C	1.770713	-0.082871	1.156380
C129	C	1.002661	-0.882299	0.338801
C130	C	1.252661	-0.632299	0.588801
C131	C	1.502661	-0.382299	0.838801
C132	C	1.752661	-0.132299	1.088801
C133	C	1.070193	-0.784537	0.356950
C134	C	1.320193	-0.534537	0.606950
C135	C	1.570193	-0.284537	0.856950
C136	C	1.820193	-0.034537	1.106950
C137	C	1.088281	-0.882191	0.424536
C138	C	1.338281	-0.632191	0.674536
C139	C	1.588281	-0.382191	0.924536
C140	C	1.838281	-0.132191	1.174536
C141	C	1.070262	-0.930522	0.356965
C142	C	1.320262	-0.680522	0.606965
C143	C	1.570262	-0.430522	0.856965
C144	C	1.820262	-0.180522	1.106965
C145	C	1.052106	-0.832877	0.289335
C146	C	1.302106	-0.582877	0.539335
C147	C	1.552106	-0.332877	0.789335
C148	C	1.802106	-0.082877	1.039335
C149	C	1.137757	-0.832765	0.375116
C150	C	1.387757	-0.582765	0.625116
C151	C	1.637757	-0.332765	0.875116
C152	C	1.887757	-0.082765	1.125116
C153	C	1.119731	-0.882170	0.307491
C154	C	1.369731	-0.632170	0.557491
C155	C	1.619731	-0.382170	0.807491
C156	C	1.869731	-0.132170	1.057491
C157	C	1.070151	-0.700438	0.356942
C158	C	1.320151	-0.450438	0.606942
C159	C	1.570151	-0.200438	0.856942
C160	C	1.820151	0.049562	1.106942
C161	C	1.070304	-1.014618	0.356965
C162	C	1.320304	-0.764618	0.606965
C163	C	1.570304	-0.514618	0.856965
C164	C	1.820304	-0.264618	1.106965
C165	C	1.263342	-0.357939	0.356972
C166	C	1.513342	-0.107939	0.606972
C167	C	1.763342	0.142061	0.856972
C168	C	2.013342	0.392061	1.106972
C169	C	1.345656	-0.357952	0.356989
C170	C	1.595656	-0.107952	0.606989
C171	C	1.845656	0.142048	0.856989
C172	C	2.095656	0.392048	1.106989
C173	C	1.070223	-0.357890	0.550095
C174	C	1.320223	-0.107890	0.800095
C175	C	1.570223	0.142110	1.050095
C176	C	1.820223	0.392110	1.300095
C177	C	1.070241	-0.357882	0.632409
C178	C	1.320241	-0.107882	0.882409
C179	C	1.570241	0.142118	1.132409
C180	C	1.820241	0.392118	1.382409
C181	C	1.070290	-0.164203	0.356961
C182	C	1.320290	0.085797	0.606961
C183	C	1.570290	0.335797	0.856961
C184	C	1.820290	0.585797	1.106961
C185	C	1.070337	-0.081657	0.356974
C186	C	1.320337	0.168343	0.606974
C187	C	1.570337	0.418343	0.856974
C188	C	1.820337	0.668343	1.106974
C189	C	1.070180	-0.357873	0.164522
C190	C	1.320180	-0.107873	0.414522
C191	C	1.570180	0.142127	0.664522
C192	C	1.820180	0.392127	0.914522
C193	C	1.070305	-0.357672	0.082209
C194	C	1.320305	-0.107672	0.332209
C195	C	1.570305	0.142328	0.582209
C196	C	1.820305	0.392328	0.832209
C197	C	1.070284	-0.357742	0.931500
C198	C	1.320284	-0.107742	1.181500
C199	C	1.570284	0.142258	1.431500
C200	C	1.820284	0.392258	1.681500
C201	C	1.012822	-0.414945	0.900155
C202	C	1.262822	-0.164945	1.150155
C203	C	1.512822	0.085055	1.400155
C204	C	1.762822	0.335055	1.650155
C205	C	1.012977	-0.415210	0.814536
C206	C	1.262977	-0.165210	1.064536
C207	C	1.512977	0.084790	1.314536
C208	C	1.762977	0.334790	1.564536
C209	C	1.070262	-0.357811	0.783117
C210	C	1.320262	-0.107811	1.033117
C211	C	1.570262	0.142189	1.283117
C212	C	1.820262	0.392189	1.533117
C213	C	1.148289	-0.379062	0.814225
C214	C	1.398289	-0.129062	1.064225
C215	C	1.648289	0.120938	1.314225
C216	C	1.898289	0.370938	1.564225
C217	C	1.147969	-0.379437	0.899870
C218	C	1.397969	-0.129437	1.149870
C219	C	1.647969	0.120563	1.399870
C220	C	1.897969	0.370563	1.649870
C221	C	1.050399	-0.279163	0.899918
C222	C	1.300399	-0.029163	1.149918
C223	C	1.550399	0.220837	1.399918
C224	C	1.800399	0.470837	1.649918
C225	C	1.048663	-0.279616	0.814267
C226	C	1.298663	-0.029616	1.064267
C227	C	1.548663	0.220384	1.314267
C228	C	1.798663	0.470384	1.564267
C229	C	1.070255	-0.357849	0.699258
C230	C	1.320255	-0.107849	0.949258
C231	C	1.570255	0.142151	1.199258
C232	C	1.820255	0.392151	1.449258
C233	C	1.070297	-0.357706	1.015360
C234	C	1.320297	-0.107706	1.265360
C235	C	1.570297	0.142294	1.515360
C236	C	1.820297	0.392294	1.765360
H237	H	0.506403	-0.282008	0.454739
H238	H	0.756403	-0.032008	0.704739
H239	H	1.006403	0.217992	0.954739
H240	H	1.256403	0.467992	1.204739
H241	H	0.633757	-0.313545	0.241677
H242	H	0.883757	-0.063545	0.491677
H243	H	1.133757	0.186455	0.741677
H244	H	1.383757	0.436455	0.991677
O245	O	0.640606	-0.494584	0.388826
O246	O	0.890606	-0.244584	0.638826
O247	O	1.140606	0.005416	0.888826
O248	O	1.390606	0.255416	1.138826
H249	H	0.672508	-0.537124	0.358144
H250	H	0.922508	-0.287124	0.608144
H251	H	1.172508	-0.037124	0.858144
H252	H	1.422508	0.212876	1.108144
O253	O	1.213407	-0.803919	0.395394
O254	O	1.463407	-0.553919	0.645394
O255	O	1.713407	-0.303919	0.895394
O256	O	1.963407	-0.053919	1.145394
H257	H	1.254536	-0.824564	0.354863
H258	H	1.504536	-0.574564	0.604863
H259	H	1.754536	-0.324564	0.854863
H260	H	2.004536	-0.074564	1.104863
H261	H	0.633970	-0.278749	0.451002
H262	H	0.883970	-0.028749	0.701002
H263	H	1.133970	0.221251	0.951002
H264	H	1.383970	0.471251	1.201002
H265	H	0.955117	-0.401912	0.793503
H266	H	1.205117	-0.151912	1.043503
H267	H	1.455117	0.098088	1.293503
H268	H	1.705117	0.348088	1.543503
O269	O	0.641955	-0.387920	0.494143
O270	O	0.891955	-0.137920	0.744143
O271	O	1.141955	0.112080	0.994143
O272	O	1.391955	0.362080	1.244143
H273	H	0.678818	-0.429951	0.468790
H274	H	0.928818	-0.179951	0.718790
H275	H	1.178818	0.070049	0.968790
H276	H	1.428818	0.320049	1.218790
H277	H	1.161604	-0.903680	0.265648
H278	H	1.411604	-0.653680	0.515648
H279	H	1.661604	-0.403680	0.765648
H280	H	1.911604	-0.153680	1.015648
H281	H	1.092252	-0.236544	0.920191
H282	H	1.342252	0.013456	1.170191
H283	H	1.592252	0.263456	1.420191
H284	H	1.842252	0.513456	1.670191
H285	H	1.103553	-0.903852	0.481687
H286	H	1.353553	-0.653852	0.731687
H287	H	1.603553	-0.403852	0.981687
H288	H	1.853553	-0.153852	1.231687
O289	O	1.100065	-0.220160	0.785962
O290	O	1.350065	0.029840	1.035962
O291	O	1.600065	0.279840	1.285962
O292	O	1.850065	0.529840	1.535962
H293	H	1.067808	-0.178315	0.754700
H294	H	1.317808	0.071685	1.004700
H295	H	1.567808	0.321685	1.254700
H296	H	1.817808	0.571685	1.504700
O297	O	0.641987	-0.458851	0.260508
O298	O	0.891987	-0.208851	0.510508
O299	O	1.141987	0.041149	0.760508
O300	O	1.391987	0.291149	1.010508
H301	H	0.678229	-0.414557	0.238245
H302	H	0.928229	-0.164557	0.488245
H303	H	1.178229	0.085443	0.738245
H304	H	1.428229	0.335443	0.988245
H305	H	0.954788	-0.401782	0.920740
H306	H	1.204788	-0.151782	1.170740
H307	H	1.454788	0.098218	1.420740
H308	H	1.704788	0.348218	1.670740
O309	O	0.501146	-0.393692	0.491566
O310	O	0.751146	-0.143692	0.741566
O311	O	1.001146	0.106308	0.991566
O312	O	1.251146	0.356308	1.241566
H313	H	0.465468	-0.435298	0.463849
H314	H	0.715468	-0.185298	0.713849
H315	H	0.965468	0.064702	0.963849
H316	H	1.215468	0.314702	1.213849
O317	O	0.500528	-0.494657	0.387753
O318	O	0.750528	-0.244657	0.637753
O319	O	1.000528	0.005343	0.887753
O320	O	1.250528	0.255343	1.137753
H321	H	0.521106	-0.482615	0.444266
H322	H	0.771106	-0.232615	0.694266
H323	H	1.021106	0.017385	0.944266
H324	H	1.271106	0.267385	1.194266
H325	H	0.978808	-0.811224	0.448122
H326	H	1.228808	-0.561224	0.698122
H327	H	1.478808	-0.311224	0.948122
H328	H	1.728808	-0.061224	1.198122
O329	O	0.501471	-0.458127	0.259295
O330	O	0.751471	-0.208127	0.509295
O331	O	1.001471	0.041873	0.759295
O332	O	1.251471	0.291873	1.009295
H333	H	0.549819	-0.469041	0.223210
H334	H	0.799819	-0.219041	0.473210
H335	H	1.049819	0.030959	0.723210
H336	H	1.299819	0.280959	0.973210
H337	H	1.025820	-0.472835	0.921685
H338	H	1.275820	-0.222835	1.171685
H339	H	1.525820	0.027165	1.421685
H340	H	1.775820	0.277165	1.671685
O341	O	0.927019	-0.911121	0.318442
O342	O	1.177019	-0.661121	0.568442
O343	O	1.427019	-0.411121	0.818442
O344	O	1.677019	-0.161121	1.068442
H345	H	0.886014	-0.891382	0.359544
H346	H	1.136014	-0.641382	0.609544
H347	H	1.386014	-0.391382	0.859544
H348	H	1.636014	-0.141382	1.109544
O349	O	1.031783	-0.804313	0.213609
O350	O	1.281783	-0.554313	0.463609
O351	O	1.531783	-0.304313	0.713609
O352	O	1.781783	-0.054313	0.963609
H353	H	1.031884	-0.742825	0.214206
H354	H	1.281884	-0.492825	0.464206
H355	H	1.531884	-0.242825	0.714206
H356	H	1.781884	0.007175	0.964206
O357	O	1.030271	-0.492382	0.787400
O358	O	1.280271	-0.242382	1.037400
O359	O	1.530271	0.007618	1.287400
O360	O	1.780271	0.257618	1.537400
H361	H	1.038580	-0.529653	0.835450
H362	H	1.288580	-0.279653	1.085450
H363	H	1.538580	-0.029653	1.335450
H364	H	1.788580	0.220347	1.585450
O365	O	1.170285	-0.455527	0.926356
O366	O	1.420285	-0.205527	1.176356
O367	O	1.670285	0.044473	1.426356
O368	O	1.920285	0.294473	1.676356
H369	H	1.181200	-0.491710	0.877993
H370	H	1.431200	-0.241710	1.127993
H371	H	1.681200	0.008290	1.377993
H372	H	1.931200	0.258290	1.627993
O373	O	1.206532	-0.325616	0.787273
O374	O	1.456532	-0.075616	1.037273
O375	O	1.706532	0.174384	1.287273
O376	O	1.956532	0.424384	1.537273
H377	H	1.248977	-0.356334	0.755361
H378	H	1.498977	-0.106334	1.005361
H379	H	1.748977	0.143666	1.255361
H380	H	1.998977	0.393666	1.505361
O381	O	1.206612	-0.326662	0.927349
O382	O	1.456612	-0.076662	1.177349
O383	O	1.706612	0.173338	1.427349
O384	O	1.956612	0.423338	1.677349
H385	H	1.235078	-0.300989	0.879463
H386	H	1.485078	-0.050989	1.129463
H387	H	1.735078	0.199011	1.379463
H388	H	1.985078	0.449011	1.629463
O389	O	1.171010	-0.454345	0.785840
O390	O	1.421010	-0.204345	1.035840
O391	O	1.671010	0.045655	1.285840
O392	O	1.921010	0.295655	1.535840
H393	H	1.126860	-0.476747	0.749587
H394	H	1.376860	-0.226747	0.999587
H395	H	1.626860	0.023253	1.249587
H396	H	1.876860	0.273253	1.499587
O397	O	0.976335	-0.253519	0.928490
O398	O	1.226335	-0.003519	1.178490
O399	O	1.476335	0.246481	1.428490
O400	O	1.726335	0.496481	1.678490
H401	H	0.952870	-0.296501	0.965524
H402	H	1.202870	-0.046501	1.215524
H403	H	1.452870	0.203499	1.465524
H404	H	1.702870	0.453499	1.715524
O405	O	0.972609	-0.258381	0.787321
O406	O	1.222609	-0.008381	1.037321
O407	O	1.472609	0.241619	1.287321
O408	O	1.722609	0.491619	1.537321
H409	H	0.931831	-0.300044	0.806590
H410	H	1.181831	-0.050044	1.056590
H411	H	1.431831	0.199956	1.306590
H412	H	1.681831	0.449956	1.556590
O413	O	0.641180	-0.223566	0.317444
O414	O	0.891180	0.026434	0.567444
O415	O	1.141180	0.276434	0.817444
O416	O	1.391180	0.526434	1.067444
H417	H	0.593488	-0.185959	0.326241
H418	H	0.843488	0.064041	0.576241
H419	H	1.093488	0.314041	0.826241
H420	H	1.343488	0.564041	1.076241
H421	H	0.506136	-0.313242	0.242258
H422	H	0.756136	-0.063242	0.492258
H423	H	1.006136	0.186758	0.742258
H424	H	1.256136	0.436758	0.992258
O425	O	0.500388	-0.223184	0.317471
O426	O	0.750388	0.026816	0.567471
O427	O	1.000388	0.276816	0.817471
O428	O	1.250388	0.526816	1.067471
H429	H	0.464208	-0.225158	0.366923
H430	H	0.714208	0.024842	0.616923
H431	H	0.964208	0.274842	0.866923
H432	H	1.214208	0.524842	1.116923
