data_functionalizedCrystal
_audit_creation_method	'MofGen! by Chris Wilmer'
_symmetry_space_group_name_H-M	'P1'
_symmetry_Int_Tables_number	1
_symmetry_cell_setting	triclinic
loop_
_symmetry_equiv_pos_as_xyz
  x,y,z
_cell_length_a	12.759395
_cell_length_b	12.759394
_cell_length_c	19.077271
_cell_angle_alpha	92.322795
_cell_angle_beta	87.714169
_cell_angle_gamma	90.013701
loop_
_atom_site_label
_atom_site_type_symbol
_atom_site_fract_x
_atom_site_fract_y
_atom_site_fract_z
Zn1	Zn	1.582350	-0.394419	0.397914
Zn2	Zn	1.589319	-0.577174	0.280226
Zn3	Zn	1.413724	-0.401509	0.280238
Zn4	Zn	1.406644	-0.570058	0.397891
O5	O	1.498009	-0.485790	0.339067
O6	O	1.730295	-0.418673	0.382307
O7	O	1.571905	-0.559817	0.181737
O8	O	1.436138	-0.253546	0.295862
O9	O	1.735416	-0.552943	0.295843
O10	O	1.560027	-0.248338	0.382318
O11	O	1.442896	-0.430756	0.181745
O12	O	1.265764	-0.423856	0.295840
O13	O	1.424073	-0.540814	0.496385
O14	O	1.260563	-0.547688	0.382279
O15	O	1.553163	-0.411773	0.496402
O16	O	1.565041	-0.723252	0.295820
O17	O	1.430831	-0.718024	0.382268
C18	C	1.225042	-0.485770	0.339058
C19	C	1.108265	-0.485785	0.339071
C20	C	1.102905	-0.346179	0.429253
C21	C	1.045364	-0.276388	0.474349
C22	C	0.935642	-0.276407	0.474358
C23	C	0.883459	-0.346221	0.429264
C24	C	0.941000	-0.416011	0.384168
C25	C	1.050724	-0.415988	0.384165
C26	C	0.946360	-0.555611	0.293984
C27	C	1.056082	-0.555599	0.293978
C28	C	0.894176	-0.625425	0.248890
C29	C	0.951717	-0.695222	0.203796
C30	C	1.061446	-0.695202	0.203790
C31	C	1.113623	-0.625390	0.248881
C32	C	1.497952	-0.758758	0.339055
C33	C	1.498022	-0.875534	0.339074
C34	C	1.626923	-0.869948	0.429168
C35	C	1.691406	-0.922015	0.474221
C36	C	1.691468	-1.031736	0.474236
C37	C	1.627036	-1.089392	0.429195
C38	C	1.562553	-1.037324	0.384143
C39	C	1.562501	-0.927601	0.384131
C40	C	1.433648	-1.042910	0.294053
C41	C	1.433591	-0.933190	0.294033
C42	C	1.369217	-1.100566	0.249012
C43	C	1.304738	-1.048499	0.203955
C44	C	1.304680	-0.938771	0.203941
C45	C	1.369107	-0.881122	0.248981
C46	C	1.772042	-0.485811	0.339076
C47	C	1.888819	-0.485820	0.339080
C48	C	1.487051	-0.474709	0.522645
C49	C	1.482381	-0.469986	0.600875
C50	C	1.498095	-0.211755	0.339094
C51	C	1.498131	-0.094977	0.339106
C52	C	1.508986	-0.496752	0.156203
C53	C	1.513859	-0.501179	0.077974
C54	C	1.448888	-0.436201	1.041228
C55	C	1.453281	-0.440634	0.967722
C56	C	1.522640	-0.510051	0.930964
C57	C	1.587618	-0.575031	0.967716
C58	C	1.583230	-0.570592	1.041220
C59	C	1.542971	-0.530528	0.711130
C60	C	1.547352	-0.534964	0.637621
C61	C	1.413016	-0.400565	0.637633
C62	C	1.408629	-0.396136	0.711138
C63	C	1.473611	-0.461113	0.747883
N64	N	1.527129	-0.514586	0.855830
N65	N	1.469126	-0.456571	0.823016
H66	H	1.087864	-0.219545	0.511062
H67	H	1.369267	-1.189906	0.249031
H68	H	1.595881	-0.583439	0.741039
H69	H	1.202964	-0.625362	0.248877
H70	H	1.252278	-1.095450	0.167290
H71	H	1.627083	-1.178732	0.429218
Br72	Br	1.314425	-0.301995	0.761019
H73	H	0.888792	-0.219571	0.511075
H74	H	1.636138	-0.623502	1.071137
H75	H	1.743863	-0.875062	0.510894
H76	H	1.252165	-0.896384	0.167257
Br77	Br	1.369017	-0.732213	0.248976
H78	H	1.392406	-0.379676	1.071151
H79	H	1.400373	-0.387723	0.937807
Br80	Br	1.324845	-0.312373	0.587761
Br81	Br	1.778975	-1.102403	0.535382
Br82	Br	1.626830	-0.721039	0.429160
Br83	Br	1.251814	-0.346166	0.429255
Br84	Br	1.641480	-0.629188	0.587735
Br85	Br	0.734550	-0.346228	0.429265
Br86	Br	0.880894	-0.789950	0.142598
Br87	Br	0.745267	-0.625444	0.248896
Br88	Br	1.139529	-0.789917	0.142580
Br89	Br	1.681761	-0.669230	0.917831
