data_functionalizedCrystal
_audit_creation_method	'MofGen! by Chris Wilmer'
_symmetry_space_group_name_H-M	'P1'
_symmetry_Int_Tables_number	1
_symmetry_cell_setting	triclinic
loop_
_symmetry_equiv_pos_as_xyz
  x,y,z
_cell_length_a	6.817900
_cell_length_b	9.514072
_cell_length_c	15.185107
_cell_angle_alpha	90.919934
_cell_angle_beta	104.257894
_cell_angle_gamma	118.843421
loop_
_atom_site_label
_atom_site_type_symbol
_atom_site_fract_x
_atom_site_fract_y
_atom_site_fract_z
V1	V	-4.120484	-0.223323	-0.284112
O2	O	-4.019023	0.009583	-0.277971
O3	O	-4.155216	-0.441708	-0.282874
O4	O	-4.074701	-0.220392	-0.407701
O5	O	-4.100095	-0.213265	-0.152279
V6	V	-4.593001	-0.195406	-0.268258
O7	O	-4.405885	-0.284564	-0.318889
O8	O	-4.757797	-0.134166	-0.233481
O9	O	-4.335062	0.022979	-0.269496
O10	O	-4.811859	-0.428312	-0.274399
O11	O	-4.730786	-0.205464	-0.400091
O12	O	-4.415577	-0.198337	-0.144669
C13	C	-4.020356	-0.494930	-0.278573
C14	C	-4.130058	-0.673465	-0.278385
C15	C	-3.917649	-0.212617	-0.437803
C16	C	-3.962051	-0.211666	-0.538842
C17	C	-4.246639	-0.354654	-0.979523
C18	C	-4.053225	-0.060389	-0.952582
C19	C	-4.011471	-0.061307	-0.857651
C20	C	-4.087303	-0.208901	-0.823652
C21	C	-4.204890	-0.355577	-0.884584
C22	C	-3.893903	0.085365	-0.796712
C23	C	-3.852145	0.084452	-0.701775
C24	C	-3.927963	-0.063143	-0.667774
C25	C	-4.045554	-0.209825	-0.728713
C26	C	-4.121387	-0.357419	-0.694714
C27	C	-4.238964	-0.504101	-0.755650
C28	C	-4.280709	-0.503173	-0.850583
C29	C	-3.886218	-0.064072	-0.572841
C30	C	-4.079638	-0.358342	-0.599774
C31	C	-4.133267	0.076192	-0.273794
C32	C	-4.002804	0.254726	-0.273989
C33	C	-4.235973	-0.206117	-0.114563
C34	C	-4.170807	-0.207060	-0.013522
H35	H	-4.322965	-0.748589	-0.282036
O36	O	-3.772566	-0.655695	-0.269457
C37	C	-3.635843	-0.669596	-0.187504
H38	H	-3.738391	-0.705219	-0.134812
H39	H	-3.467621	-0.548081	-0.158952
H40	H	-3.590956	-0.766725	-0.202480
O41	O	-4.394888	-0.645792	-0.909646
C42	C	-4.452928	-0.776267	-0.859287
H43	H	-4.330444	-0.731014	-0.786058
H44	H	-4.433961	-0.874634	-0.893677
H45	H	-4.641307	-0.828661	-0.857403
H46	H	-4.141383	-0.478532	-0.572101
H47	H	-3.756409	0.203890	-0.652167
H48	H	-3.832182	0.205527	-0.824402
O49	O	-4.312092	-0.647361	-0.722511
C50	C	-4.117533	-0.648872	-0.663973
H51	H	-3.952273	-0.559775	-0.681925
H52	H	-4.143361	-0.776422	-0.673251
H53	H	-4.099640	-0.611643	-0.589411
H54	H	-4.342362	-0.474079	-1.029141
H55	H	-3.991503	0.059775	-0.980270
H56	H	-3.790501	0.055354	-0.523231
