data_functionalizedCrystal
_audit_creation_method	'MofGen! by Chris Wilmer'
_symmetry_space_group_name_H-M	'P1'
_symmetry_Int_Tables_number	1
_symmetry_cell_setting	triclinic
loop_
_symmetry_equiv_pos_as_xyz
  x,y,z
_cell_length_a	11.026607
_cell_length_b	17.699092
_cell_length_c	16.176319
_cell_angle_alpha	90.001079
_cell_angle_beta	89.992425
_cell_angle_gamma	95.936192
loop_
_atom_site_label
_atom_site_type_symbol
_atom_site_fract_x
_atom_site_fract_y
_atom_site_fract_z
O1	O	1.609250	0.316806	-0.068742
O2	O	1.256049	0.280731	-0.068743
O3	O	1.442623	0.189950	-0.068741
O4	O	1.422676	0.407587	-0.068744
O5	O	1.442595	0.189952	0.068753
O6	O	1.256021	0.280733	0.068750
O7	O	1.609222	0.316808	0.068751
Cu8	Cu	1.432619	0.298771	0.081305
Cu9	Cu	1.432652	0.298768	-0.081297
O10	O	1.422648	0.407589	0.068749
C11	C	1.210843	0.274077	0.000003
C12	C	1.076187	0.254237	0.000002
C13	C	1.441893	0.161656	0.000005
C14	C	1.439743	0.077343	0.000001
C15	C	1.438752	0.037736	-0.074948
C16	C	1.436724	-0.041486	-0.074949
C17	C	1.435697	-0.081098	-0.000000
C18	C	1.436685	-0.041486	0.074954
C19	C	1.438704	0.037734	0.074954
C20	C	1.428543	-0.360970	0.074955
C21	C	1.426528	-0.440194	0.074949
C22	C	1.426563	-0.440189	-0.074948
C23	C	1.428582	-0.360970	-0.074947
C24	C	1.429563	-0.321364	0.000006
C25	C	1.431759	-0.235464	0.000006
C26	C	1.433510	-0.166997	0.000000
C27	C	1.002222	0.309017	0.000001
C28	C	0.863047	0.288514	0.000000
C29	C	1.654428	0.323462	0.000003
C30	C	1.789084	0.343302	-0.000001
C31	C	1.423378	0.435883	0.000002
C32	C	1.425528	0.520196	-0.000000
N33	N	1.432604	0.298774	0.195670
N34	N	1.432676	0.298761	-0.195662
C35	C	1.515302	0.258583	0.761054
C36	C	1.515296	0.258587	0.674507
C37	C	1.432659	0.298766	0.631245
C38	C	1.350029	0.338948	0.674536
C39	C	1.350042	0.338948	0.761081
C40	C	1.349980	0.338952	0.325507
C41	C	1.349972	0.338948	0.238956
C42	C	1.515235	0.258592	0.238933
C43	C	1.515247	0.258591	0.325479
C44	C	1.432622	0.298777	0.368761
C45	C	1.432631	0.298773	0.462605
C46	C	1.432644	0.298766	0.537403
H47	H	1.439594	0.069983	-0.135979
H48	H	1.439494	0.069980	0.135985
H49	H	0.828788	0.405385	0.000003
H50	H	1.036475	0.192159	-0.000018
H51	H	1.282761	0.371666	0.796322
H52	H	1.582589	0.225861	0.796272
H53	H	0.823342	0.226431	-0.000020
H54	H	1.425758	-0.472446	-0.135979
H55	H	1.582577	0.225872	0.639265
H56	H	1.582534	0.225871	0.360699
H57	H	1.435922	-0.073730	-0.135979
H58	H	1.282748	0.371667	0.639307
H59	H	1.041933	0.371096	0.000004
H60	H	1.582516	0.225873	0.203683
H61	H	1.282676	0.371668	0.203734
H62	H	1.282702	0.371671	0.360741
H63	H	1.435842	-0.073745	0.135978
H64	H	1.429366	-0.328731	0.135987
H65	H	1.425689	-0.472445	0.135985
H66	H	1.429424	-0.328721	-0.135978
