data_functionalizedCrystal
_audit_creation_method	'MofGen! by Chris Wilmer'
_symmetry_space_group_name_H-M	'P1'
_symmetry_Int_Tables_number	1
_symmetry_cell_setting	triclinic
loop_
_symmetry_equiv_pos_as_xyz
  x,y,z
_cell_length_a	18.215407
_cell_length_b	10.686285
_cell_length_c	10.685880
_cell_angle_alpha	89.638885
_cell_angle_beta	85.603311
_cell_angle_gamma	85.632014
loop_
_atom_site_label
_atom_site_type_symbol
_atom_site_fract_x
_atom_site_fract_y
_atom_site_fract_z
Zn1	Zn	1.179979	-0.553691	-0.671112
Zn2	Zn	1.178485	-0.747428	-0.445284
Zn3	Zn	1.046805	-0.537683	-0.461352
Zn4	Zn	1.065577	-0.763404	-0.654999
O5	O	1.117711	-0.650552	-0.558187
O6	O	1.282766	-0.579404	-0.641174
O7	O	1.152536	-0.706220	-0.271864
O8	O	1.057240	-0.364262	-0.502645
O9	O	1.281668	-0.721742	-0.475259
O10	O	1.155082	-0.376023	-0.656755
O11	O	1.055791	-0.552121	-0.283669
O12	O	0.946310	-0.567612	-0.487021
O13	O	1.089234	-0.748970	-0.832688
O14	O	0.960101	-0.733448	-0.629292
O15	O	1.173285	-0.594895	-0.844526
O16	O	1.170738	-0.925092	-0.459635
O17	O	1.087785	-0.936829	-0.613712
C18	C	0.926503	-0.650527	-0.558152
C19	C	0.844705	-0.650550	-0.558165
C20	C	1.131158	-0.976479	-0.533209
C21	C	1.136980	-1.115916	-0.522565
C22	C	0.663712	-0.737019	-0.632136
C23	C	0.586854	-0.737024	-0.632151
C24	C	0.572465	-0.564109	-0.484264
C25	C	0.649321	-0.564099	-0.484256
C26	C	0.694943	-0.650561	-0.558189
C27	C	0.541229	-0.650576	-0.558213
C28	C	0.457896	-0.650581	-0.558229
C29	C	0.778281	-0.650555	-0.558176
C30	C	1.309667	-0.650577	-0.558222
C31	C	1.391467	-0.650588	-0.558237
C32	C	1.133520	-0.675500	-0.885399
C33	C	1.140257	-0.686131	-1.024837
C34	C	1.104234	-0.323353	-0.583290
C35	C	1.098491	-0.183921	-0.593987
C36	C	1.102003	-0.625610	-0.232255
C37	C	1.095394	-0.614625	-0.092844
H38	H	0.700856	-0.807418	-0.692341
O39	O	0.679700	-0.479992	-0.412607
C40	C	0.724296	-0.404550	-0.490357
H41	H	0.705602	-0.404486	-0.589756
H42	H	0.718994	-0.304493	-0.452542
H43	H	0.784351	-0.443665	-0.491642
H44	H	1.183822	-0.755487	-1.073286
O45	O	1.053979	-1.126082	-0.676799
C46	C	1.096627	-1.056357	-0.763597
H47	H	1.156591	-1.096440	-0.768456
H48	H	1.074561	-1.062103	-0.860222
H49	H	1.093214	-0.954150	-0.732303
O50	O	0.556637	-0.821133	-0.704010
C51	C	0.613388	-0.897415	-0.769286
H52	H	0.665860	-0.897755	-0.717557
H53	H	0.595902	-0.997284	-0.774935
H54	H	0.624292	-0.858893	-0.868145
O55	O	0.528040	-0.480248	-0.412477
C56	C	0.453506	-0.498773	-0.428363
H57	H	0.448989	-0.598770	-0.461864
H58	H	0.419390	-0.482955	-0.335076
H59	H	0.431871	-0.429575	-0.500990
O60	O	1.043449	-0.531715	-1.035200
C61	C	1.055919	-0.409092	-1.076700
H62	H	1.088653	-0.413667	-1.172071
H63	H	1.000697	-0.353166	-1.085367
H64	H	1.088490	-0.361289	-1.006220
H65	H	1.174382	-1.164373	-0.453261
