data_functionalizedCrystal
_audit_creation_method	'MofGen! by Chris Wilmer'
_symmetry_space_group_name_H-M	'P1'
_symmetry_Int_Tables_number	1
_symmetry_cell_setting	triclinic
loop_
_symmetry_equiv_pos_as_xyz
  x,y,z
_cell_length_a	12.759401
_cell_length_b	21.295417
_cell_length_c	21.295420
_cell_angle_alpha	90.005898
_cell_angle_beta	90.013843
_cell_angle_gamma	90.028746
loop_
_atom_site_label
_atom_site_type_symbol
_atom_site_fract_x
_atom_site_fract_y
_atom_site_fract_z
Zn1	Zn	1.606097	-0.250788	0.355863
Zn2	Zn	1.605960	-0.356013	0.250590
Zn3	Zn	1.430413	-0.250760	0.250614
Zn4	Zn	1.430341	-0.356022	0.355828
O5	O	1.518203	-0.303396	0.303224
O6	O	1.753100	-0.264755	0.341903
O7	O	1.582646	-0.342036	0.162504
O8	O	1.453805	-0.162674	0.264600
O9	O	1.752999	-0.342063	0.264560
O10	O	1.582879	-0.162695	0.341926
O11	O	1.453672	-0.264707	0.162521
O12	O	1.283383	-0.264715	0.264566
O13	O	1.453683	-0.342078	0.443922
O14	O	1.283330	-0.342050	0.341866
O15	O	1.582810	-0.264763	0.443948
O16	O	1.582576	-0.444104	0.264526
O17	O	1.453550	-0.444110	0.341843
C18	C	1.245235	-0.303381	0.303215
C19	C	1.128459	-0.303390	0.303226
C20	C	1.073642	-0.263212	0.343561
C21	C	0.963918	-0.263224	0.343565
C22	C	0.963837	-0.343598	0.262897
C23	C	1.073559	-0.343582	0.262891
C24	C	1.073688	-0.216810	0.390136
C25	C	0.963964	-0.216822	0.390140
C26	C	1.518069	-0.466947	0.303192
C27	C	1.518108	-0.536916	0.303199
C28	C	1.585278	-0.569736	0.343492
C29	C	1.585315	-0.635478	0.343507
C30	C	1.518193	-0.668398	0.303219
C31	C	1.451009	-0.635570	0.262924
C32	C	1.450967	-0.569829	0.262914
N33	N	1.510261	-0.771636	0.248128
N34	N	1.510308	-0.834088	0.248140
C35	C	1.518316	-0.866473	0.303248
N36	N	1.526295	-0.834047	0.358345
N37	N	1.526254	-0.771590	0.358333
C38	C	1.518231	-0.739683	0.303226
C39	C	1.585530	-0.970579	0.343560
C40	C	1.585559	-1.036322	0.343577
C41	C	1.451259	-1.036412	0.262988
C42	C	1.451224	-0.970670	0.262977
C43	C	1.518365	-0.937757	0.303262
C44	C	1.792236	-0.303411	0.303233
C45	C	1.909013	-0.303418	0.303237
C46	C	1.518254	-0.303425	0.467414
C47	C	1.518275	-0.303437	0.537382
C48	C	1.518366	-0.139206	0.303270
C49	C	1.518435	-0.069237	0.303289
C50	C	1.585501	-0.263186	0.570263
C51	C	1.585485	-0.263175	0.636006
C52	C	1.518254	-0.303427	0.668865
C53	C	1.451015	-0.343681	0.635976
C54	C	1.451026	-0.343686	0.570234
N55	N	1.510127	-0.358522	0.772081
N56	N	1.510123	-0.358515	0.834533
C57	C	1.518217	-0.303414	0.866939
N58	N	1.526336	-0.248319	0.834535
N59	N	1.526345	-0.248326	0.772078
C60	C	1.518235	-0.303426	0.740150
C61	C	1.585430	-0.263149	0.971106
C62	C	1.585406	-0.263137	1.036850
C63	C	1.450942	-0.343649	1.036818
C64	C	1.450959	-0.343654	0.971076
C65	C	1.518209	-0.303405	0.938224
C66	C	1.518157	-0.303386	1.139672
C67	C	1.518173	-0.303389	1.069704
H68	H	0.919124	-0.376321	0.230058
Cl69	Cl	1.126270	-0.243892	0.461581
Cl70	Cl	1.119690	-0.141498	0.370116
Cl71	Cl	1.366621	-0.676954	0.212280
H72	H	1.118186	-0.376293	0.230040
Cl73	Cl	1.366516	-0.528567	0.212257
Cl74	Cl	0.918013	-0.237120	0.465375
Cl75	Cl	1.366506	-0.394292	0.528896
H76	H	1.396190	-0.376416	1.063571
H77	H	1.639945	-0.542940	0.376296
H78	H	1.640183	-0.230372	0.944356
Cl79	Cl	1.669944	-0.212541	1.078187
H80	H	1.640197	-0.943780	0.376365
H81	H	1.396223	-0.376435	0.944304
Cl82	Cl	1.670038	-0.212583	0.528967
H83	H	1.640004	-0.662206	0.376326
H84	H	0.929945	-0.170480	0.372770
H85	H	1.640257	-1.063043	0.376391
H86	H	1.396600	-1.063215	0.230188
Cl87	Cl	1.366777	-0.929408	0.212320
H88	H	1.640227	-0.230395	0.662783
H89	H	1.396272	-0.376453	0.662734
