data_functionalizedCrystal
_audit_creation_method	'MofGen! by Chris Wilmer'
_symmetry_space_group_name_H-M	'P1'
_symmetry_Int_Tables_number	1
_symmetry_cell_setting	triclinic
loop_
_symmetry_equiv_pos_as_xyz
  x,y,z
_cell_length_a	17.699083
_cell_length_b	11.792254
_cell_length_c	16.176319
_cell_angle_alpha	89.993043
_cell_angle_beta	89.998611
_cell_angle_gamma	83.740806
loop_
_atom_site_label
_atom_site_type_symbol
_atom_site_fract_x
_atom_site_fract_y
_atom_site_fract_z
O1	O	1.004848	0.143526	-0.068631
O2	O	0.784570	0.162199	-0.068658
O3	O	0.900049	-0.012371	-0.068638
O4	O	0.889368	0.318096	-0.068651
O5	O	0.900033	-0.012382	0.068855
O6	O	0.784554	0.162188	0.068835
O7	O	1.004832	0.143515	0.068862
Cu8	Cu	0.894691	0.152850	0.081403
Cu9	Cu	0.894710	0.152864	-0.081199
O10	O	0.889352	0.318085	0.068842
C11	C	0.756361	0.161524	0.000085
C12	C	0.672332	0.159517	0.000075
C13	C	0.899369	-0.054659	0.000108
C14	C	0.897355	-0.180648	0.000107
C15	C	0.624261	0.261986	0.000071
C16	C	0.545307	0.260093	0.000082
C17	C	0.514427	0.155730	0.000091
C18	C	0.562505	0.053253	0.000097
C19	C	0.641457	0.055147	0.000092
C20	C	0.244101	0.045613	0.000118
C21	C	0.165143	0.043727	0.000120
C22	C	0.147951	0.250559	0.000107
C23	C	0.226903	0.252453	0.000103
C24	C	0.274974	0.149977	0.000113
C25	C	0.360584	0.152030	0.000103
C26	C	0.428818	0.153675	0.000095
C27	C	0.895718	-0.282965	0.000104
C28	C	0.893672	-0.411327	0.000096
C29	C	1.033041	0.144190	0.000117
C30	C	1.117070	0.146197	0.000122
C31	C	0.890033	0.360373	0.000094
C32	C	0.892047	0.486362	0.000090
N33	N	0.894684	0.152841	0.195768
N34	N	0.894724	0.152865	-0.195564
C35	C	0.945834	0.075572	0.239041
C36	C	0.945838	0.075571	0.325588
C37	C	0.894694	0.152844	0.368861
C38	C	0.843539	0.230116	0.325582
C39	C	0.843532	0.230111	0.239036
C40	C	0.843565	0.230138	0.674610
C41	C	0.843577	0.230139	0.761161
C42	C	0.945870	0.075598	0.761162
C43	C	0.945864	0.075592	0.674617
C44	C	0.894706	0.152860	0.631345
C45	C	0.894701	0.152859	0.537501
C46	C	0.894702	0.152852	0.462703
H47	H	0.506170	0.343534	0.000078
C48	C	0.095071	0.363287	0.000106
C49	C	0.038423	0.390432	-0.071286
C50	C	-0.014455	0.503157	-0.071291
C51	C	-0.010685	0.588737	0.000096
C52	C	0.045965	0.561594	0.071494
C53	C	0.098843	0.448869	0.071499
H54	H	0.035630	0.327079	-0.124136
H55	H	-0.056391	0.523250	-0.124145
H56	H	-0.049828	0.672182	0.000093
H57	H	0.048758	0.624947	0.124344
H58	H	0.140779	0.428776	0.124352
H59	H	0.987483	0.012652	0.203814
C60	C	0.787300	0.315135	0.627014
C61	C	0.731067	0.400172	0.674608
C62	C	0.674802	0.485174	0.627006
C63	C	0.674770	0.485141	0.531809
C64	C	0.731005	0.400101	0.484209
C65	C	0.787270	0.315099	0.531812
H66	H	0.731089	0.400200	0.745083
H67	H	0.633173	0.548126	0.662242
H68	H	0.633118	0.548065	0.496571
H69	H	0.730983	0.400073	0.413734
H70	H	0.828899	0.252147	0.496575
C71	C	0.296972	-0.067108	0.000115
C72	C	0.263002	-0.181902	0.000113
C73	C	0.315878	-0.294629	0.000106
C74	C	0.402723	-0.292562	0.000101
C75	C	0.436697	-0.177764	0.000103
C76	C	0.383822	-0.065037	0.000109
H77	H	0.198710	-0.183435	0.000117
H78	H	0.290727	-0.379610	0.000105
H79	H	0.441865	-0.376009	0.000096
H80	H	0.500990	-0.176230	0.000099
H81	H	0.408973	0.019944	0.000111
C82	C	0.694340	-0.057570	0.000094
C83	C	0.690578	-0.143153	0.071496
C84	C	0.743461	-0.255873	0.071503
C85	C	0.800105	-0.283010	0.000108
C86	C	0.803868	-0.197425	-0.071299
C87	C	0.750986	-0.084704	-0.071306
H88	H	0.648645	-0.123066	0.124352
H89	H	0.740674	-0.319229	0.124364
H90	H	0.839251	-0.366452	0.000113
H91	H	0.845801	-0.217511	-0.124155
H92	H	0.753772	-0.021349	-0.124167
H93	H	0.252041	0.337436	0.000092
C94	C	1.002120	-0.009410	0.627016
C95	C	1.000319	-0.138651	0.638929
C96	C	1.056574	-0.223659	0.591330
C97	C	1.114630	-0.179425	0.531818
C98	C	1.116433	-0.050178	0.519902
C99	C	1.060178	0.034830	0.567502
H100	H	0.957340	-0.171402	0.682986
H101	H	1.055239	-0.319337	0.600151
H102	H	1.156273	-0.242353	0.496582
H103	H	1.159412	-0.017427	0.475845
H104	H	1.061514	0.130508	0.558681
H105	H	0.987487	0.012653	0.360821
C106	C	1.002141	-0.009410	0.808762
C107	C	1.002152	-0.009420	0.903959
C108	C	1.058423	-0.094422	0.951556
C109	C	1.114681	-0.179414	0.903956
C110	C	1.114672	-0.179406	0.808754
C111	C	1.058402	-0.094404	0.761157
H112	H	0.960504	0.053498	0.939200
H113	H	1.058429	-0.094427	1.022031
H114	H	1.156336	-0.242337	0.939190
H115	H	1.156320	-0.242325	0.773513
H116	H	1.058395	-0.094400	0.690682
C117	C	0.787312	0.315138	0.808764
C118	C	0.701121	0.313380	0.796885
C119	C	0.644860	0.398374	0.844488
C120	C	0.674789	0.485127	0.903969
C121	C	0.760984	0.486889	0.915850
C122	C	0.817245	0.401894	0.868247
H123	H	0.678962	0.249157	0.752851
H124	H	0.581053	0.397070	0.835692
H125	H	0.633141	0.548045	0.939207
H126	H	0.783143	0.551112	0.959884
H127	H	0.881053	0.403199	0.877043
C128	C	0.787267	0.315110	0.191433
C129	C	0.731037	0.400149	0.239028
C130	C	0.674767	0.485147	0.191426
C131	C	0.674728	0.485105	0.096230
C132	C	0.730961	0.400063	0.048629
C133	C	0.787230	0.315065	0.096231
H134	H	0.731064	0.400183	0.309503
H135	H	0.633140	0.548101	0.226664
H136	H	0.633074	0.548026	0.060992
H137	H	0.730933	0.400029	-0.021846
H138	H	0.828857	0.252111	0.060994
H139	H	0.140004	-0.041263	0.000128
H140	H	0.801893	0.293030	0.360819
H141	H	0.649397	0.346971	0.000063
H142	H	0.537356	-0.031721	0.000116
