data_functionalizedCrystal
_audit_creation_method	'MofGen! by Chris Wilmer'
_symmetry_space_group_name_H-M	'P1'
_symmetry_Int_Tables_number	1
_symmetry_cell_setting	triclinic
loop_
_symmetry_equiv_pos_as_xyz
  x,y,z
_cell_length_a	10.654550
_cell_length_b	10.489741
_cell_length_c	8.965430
_cell_angle_alpha	89.999521
_cell_angle_beta	89.993299
_cell_angle_gamma	84.512038
loop_
_atom_site_label
_atom_site_type_symbol
_atom_site_fract_x
_atom_site_fract_y
_atom_site_fract_z
O1	O	0.177198	1.693965	-0.123943
O2	O	0.193830	1.322761	-0.123966
O3	O	0.002779	1.516898	-0.123948
O4	O	0.368250	1.499828	-0.123960
O5	O	0.002761	1.516887	0.124131
O6	O	0.193812	1.322750	0.124113
O7	O	0.177180	1.693954	0.124136
Cu8	Cu	0.185495	1.508351	0.146776
Cu9	Cu	0.185516	1.508364	-0.146606
O10	O	0.368231	1.499818	0.124118
C11	C	0.192565	1.275225	0.000071
C12	C	0.188807	1.133597	0.000062
C13	C	-0.044029	1.515639	0.000089
C14	C	-0.183474	1.511889	0.000084
C15	C	-0.262906	1.626194	0.000095
C16	C	-0.393928	1.622663	0.000085
C17	C	-0.366074	1.390513	0.000057
C18	C	-0.235054	1.394045	0.000057
C19	C	-0.278989	1.760224	0.000118
C20	C	-0.410011	1.756693	0.000107
C21	C	0.067246	1.065516	0.000080
C22	C	0.124679	0.973367	-0.122235
C23	C	0.124690	0.973390	0.122352
C24	C	0.246290	1.043313	-0.122354
C25	C	0.246284	1.043346	0.122343
C26	C	0.303805	0.951224	-0.000002
C27	C	0.415039	1.501076	0.000078
C28	C	0.554484	1.504826	0.000073
C29	C	0.178445	1.741491	0.000096
C30	C	0.182204	1.883118	0.000095
N31	N	0.185479	1.508352	0.353125
N32	N	0.185522	1.508374	-0.352955
C33	C	0.096427	1.597431	0.549803
C34	C	0.209799	1.624209	0.450324
C35	C	0.072117	1.481629	0.450396
C36	C	0.298951	1.535211	0.549755
C37	C	0.161194	1.392580	0.549836
C38	C	0.274648	1.419311	0.450401
H39	H	-0.408086	1.294568	0.000034
N40	N	-0.065133	1.131368	-0.000058
H41	H	-0.111551	1.104873	0.091382
H42	H	-0.110782	1.106080	-0.092597
H43	H	-0.249598	1.812653	-0.103692
H44	H	0.073226	0.942432	0.225760
H45	H	0.073252	0.942382	-0.225641
N46	N	0.425993	1.565310	0.607321
H47	H	0.415405	1.645604	0.670037
H48	H	0.483454	1.578833	0.520307
N49	N	-0.231750	1.816629	0.142063
H50	H	-0.305296	1.841305	0.210637
H51	H	-0.187721	1.895087	0.117420
H52	H	0.230366	1.722124	0.406614
H53	H	0.403841	0.901752	-0.000072
N54	N	0.314385	1.084393	0.259315
H55	H	0.268393	1.059218	0.351669
H56	H	0.317152	1.180354	0.257668
N57	N	0.133909	1.262928	0.607809
H58	H	0.200285	1.195427	0.570079
H59	H	0.048165	1.242927	0.571725
N60	N	-0.003239	1.697259	0.607628
H61	H	0.015294	1.784691	0.571428
H62	H	-0.003007	1.695895	0.720267
N63	N	0.374512	1.319528	0.392924
H64	H	0.356910	1.232300	0.430731
H65	H	0.460035	1.339990	0.429269
N66	N	-0.470455	1.810385	-0.141745
H67	H	-0.403292	1.838922	-0.210281
H68	H	-0.532915	1.885964	-0.116915
H69	H	-0.451755	1.807189	0.103929
H70	H	-0.023770	1.459018	0.406750
N71	N	-0.149378	1.270761	0.000018
H72	H	-0.201938	1.195576	0.000003
H73	H	-0.094415	1.267153	0.091981
N74	N	0.314378	1.084106	-0.259488
H75	H	0.316464	1.180162	-0.258678
H76	H	0.268771	1.057976	-0.351682
