data_functionalizedCrystal
_audit_creation_method	'MofGen! by Chris Wilmer'
_symmetry_space_group_name_H-M	'P1'
_symmetry_Int_Tables_number	1
_symmetry_cell_setting	triclinic
loop_
_symmetry_equiv_pos_as_xyz
  x,y,z
_cell_length_a	17.077404
_cell_length_b	12.759394
_cell_length_c	17.077396
_cell_angle_alpha	89.973684
_cell_angle_beta	89.980499
_cell_angle_gamma	90.015062
loop_
_atom_site_label
_atom_site_type_symbol
_atom_site_fract_x
_atom_site_fract_y
_atom_site_fract_z
Zn1	Zn	1.200099	-0.418260	-0.443855
Zn2	Zn	1.700099	0.081740	0.056145
Zn3	Zn	1.200024	-0.593961	-0.312593
Zn4	Zn	1.700024	-0.093961	0.187407
Zn5	Zn	1.068830	-0.418297	-0.312602
Zn6	Zn	1.568830	0.081703	0.187398
Zn7	Zn	1.068817	-0.593898	-0.443817
Zn8	Zn	1.568817	-0.093898	0.056183
O9	O	1.134442	-0.506104	-0.378217
O10	O	1.634442	-0.006104	0.121783
O11	O	1.309936	-0.441578	-0.426454
O12	O	1.809936	0.058422	0.073546
O13	O	1.182595	-0.570700	-0.202748
O14	O	1.682595	-0.070700	0.297252
O15	O	1.086280	-0.271271	-0.330033
O16	O	1.586280	0.228729	0.169967
O17	O	1.309881	-0.570664	-0.330017
O18	O	1.809881	-0.070664	0.169983
O19	O	1.182722	-0.271244	-0.426463
O20	O	1.682722	0.228756	0.073537
O21	O	1.086208	-0.441641	-0.202754
O22	O	1.586208	0.058359	0.297246
O23	O	0.958982	-0.441580	-0.329996
O24	O	1.458982	0.058420	0.170004
O25	O	1.086257	-0.570558	-0.553669
O26	O	1.586257	-0.070558	-0.053669
O27	O	0.958972	-0.570594	-0.426399
O28	O	1.458972	-0.070594	0.073601
O29	O	1.182709	-0.441517	-0.553697
O30	O	1.682709	0.058483	-0.053697
O31	O	1.182582	-0.740974	-0.329981
O32	O	1.682582	-0.240974	0.170019
O33	O	1.086185	-0.740928	-0.426391
O34	O	1.586185	-0.240928	0.073609
C35	C	0.930495	-0.506085	-0.378195
C36	C	1.430495	-0.006085	0.121805
C37	C	0.843245	-0.506102	-0.378205
C38	C	1.343245	-0.006102	0.121795
C39	C	1.134395	-0.779072	-0.378198
C40	C	1.634395	-0.279072	0.121802
C41	C	1.134447	-0.895848	-0.378216
C42	C	1.634447	-0.395848	0.121784
C43	C	0.802270	-0.573381	-0.428321
C44	C	1.302270	-0.073381	0.071679
C45	C	0.720290	-0.573383	-0.428334
C46	C	1.220290	-0.073383	0.071666
C47	C	0.679285	-0.506111	-0.378225
C48	C	1.179285	-0.006111	0.121775
C49	C	0.720266	-0.438825	-0.328107
C50	C	1.220266	0.061175	0.171893
C51	C	0.802245	-0.438818	-0.328099
C52	C	1.302245	0.061182	0.171901
C53	C	0.549396	-0.438846	-0.328125
C54	C	1.049396	0.061154	0.171875
C55	C	0.467411	-0.438854	-0.328132
C56	C	0.967411	0.061146	0.171868
C57	C	0.467441	-0.573411	-0.428360
C58	C	0.967441	-0.073411	0.071640
C59	C	0.549419	-0.573404	-0.428352
C60	C	1.049419	-0.073404	0.071648
C61	C	0.590394	-0.506119	-0.378233
C62	C	1.090394	-0.006119	0.121767
C63	C	1.234901	-0.895843	-0.277900
C64	C	1.734901	-0.395843	0.222100
C65	C	1.285148	-0.950701	-0.227751
C66	C	1.785148	-0.450701	0.272249
C67	C	1.285194	-1.060422	-0.227773
C68	C	1.785194	-0.560422	0.272227
C69	C	1.234989	-1.115288	-0.277950
C70	C	1.734989	-0.615288	0.222050
C71	C	1.184742	-1.060430	-0.328099
C72	C	1.684742	-0.560430	0.171901
C73	C	1.184700	-0.950706	-0.328070
C74	C	1.684700	-0.450706	0.171930
C75	C	1.084293	-1.060436	-0.428417
C76	C	1.584293	-0.560436	0.071583
C77	C	1.084242	-0.950714	-0.428393
C78	C	1.584242	-0.450714	0.071607
C79	C	1.034088	-1.115302	-0.478594
C80	C	1.534088	-0.615302	0.021406
C81	C	0.983835	-1.060444	-0.528740
C82	C	1.483835	-0.560444	-0.028740
C83	C	0.983791	-0.950716	-0.528716
C84	C	1.483791	-0.450716	-0.028716
C85	C	1.033994	-0.895856	-0.478542
C86	C	1.533994	-0.395856	0.021458
C87	C	1.339187	-0.506124	-0.378239
C88	C	1.839187	-0.006124	0.121761
C89	C	1.426436	-0.506132	-0.378249
C90	C	1.926436	-0.006132	0.121751
C91	C	1.134490	-0.506027	-0.582961
C92	C	1.634490	-0.006027	-0.082961
C93	C	1.134510	-0.505994	-0.670211
C94	C	1.634510	-0.005994	-0.170211
C95	C	1.134511	-0.232071	-0.378253
C96	C	1.634511	0.267929	0.121747
C97	C	1.134540	-0.115294	-0.378269
C98	C	1.634540	0.384706	0.121731
C99	C	1.184735	-0.438797	-0.711217
C100	C	1.684735	0.061203	-0.211217
C101	C	1.184744	-0.438762	-0.793197
C102	C	1.684744	0.061238	-0.293197
C103	C	1.134532	-0.505930	-0.834171
C104	C	1.634532	-0.005930	-0.334171
C105	C	1.084302	-0.573130	-0.793159
C106	C	1.584302	-0.073130	-0.293159
C107	C	1.084290	-0.573159	-0.711180
C108	C	1.584290	-0.073159	-0.211180
C109	C	1.084334	-0.573067	-0.964029
C110	C	1.584334	-0.073067	-0.464029
C111	C	1.084348	-0.573039	-1.046014
C112	C	1.584348	-0.073039	-0.546014
C113	C	1.184788	-0.438670	-1.046047
C114	C	1.684788	0.061330	-0.546047
C115	C	1.184776	-0.438699	-0.964068
C116	C	1.684776	0.061301	-0.464068
C117	C	1.134546	-0.505900	-0.923062
C118	C	1.634546	-0.005900	-0.423062
C119	C	1.134440	-0.506105	-0.174269
C120	C	1.634440	-0.006105	0.325731
C121	C	1.134572	-0.505842	-0.087020
C122	C	1.634572	-0.005842	0.412980
H123	H	0.686931	-0.628169	-0.469143
H124	H	1.186931	-0.128169	0.030857
C125	C	0.928521	-0.890375	-0.583881
C126	C	1.428521	-0.390375	-0.083881
H127	H	0.935684	-0.817170	-0.576688
H128	H	1.435684	-0.317170	-0.076688
H129	H	0.875792	-0.908429	-0.572359
H130	H	1.375792	-0.408429	-0.072359
H131	H	0.940001	-0.908293	-0.636638
H132	H	1.440001	-0.408293	-0.136638
H133	H	1.043384	-0.627867	-0.677794
H134	H	1.543384	-0.127867	-0.177794
C135	C	1.235047	-1.235979	-0.277985
C136	C	1.735047	-0.735979	0.222015
H137	H	1.197956	-1.260798	-0.315052
H138	H	1.697956	-0.760798	0.184948
H139	H	1.221513	-1.260878	-0.227326
H140	H	1.721513	-0.760878	0.272674
H141	H	1.285711	-1.260719	-0.291616
H142	H	1.785711	-0.760719	0.208384
H143	H	0.686874	-0.384047	-0.287311
H144	H	1.186874	0.115953	0.212689
H145	H	0.835606	-0.384028	-0.287293
H146	H	1.335606	0.115972	0.212707
H147	H	0.582803	-0.628188	-0.469151
H148	H	1.082803	-0.128188	0.030849
C149	C	1.034136	-1.235993	-0.478617
C150	C	1.534136	-0.735993	0.021383
H151	H	1.071245	-1.260808	-0.441559
H152	H	1.571245	-0.760808	0.058441
H153	H	1.047695	-1.260754	-0.529288
H154	H	1.547695	-0.760754	-0.029288
H155	H	0.983492	-1.260874	-0.465002
H156	H	1.483492	-0.760874	0.034998
H157	H	0.942966	-1.105125	-0.569594
H158	H	1.442966	-0.605125	-0.069594
C159	C	0.594467	-0.364830	-0.272998
C160	C	1.094467	0.135170	0.227002
H161	H	0.558306	-0.324772	-0.243151
H162	H	1.058306	0.175228	0.256849
H163	H	0.626466	-0.319103	-0.303082
H164	H	1.126466	0.180897	0.196918
H165	H	0.626426	-0.404963	-0.238737
H166	H	1.126426	0.095037	0.261263
C167	C	0.847367	-0.647380	-0.483442
C168	C	1.347367	-0.147380	0.016558
H169	H	0.811220	-0.687441	-0.513297
H170	H	1.311220	-0.187441	-0.013297
H171	H	0.879329	-0.693104	-0.453356
H172	H	1.379329	-0.193104	0.046644
H173	H	0.879366	-0.607237	-0.517696
H174	H	1.379366	-0.107237	-0.017696
C175	C	1.033948	-0.775166	-0.478519
C176	C	1.533948	-0.275166	0.021481
H177	H	0.996831	-0.750349	-0.515569
H178	H	1.496831	-0.250349	-0.015569
H179	H	1.084588	-0.750282	-0.492127
H180	H	1.584588	-0.250282	0.007873
H181	H	1.020382	-0.750409	-0.427844
H182	H	1.520382	-0.250409	0.072156
H183	H	1.225625	-0.384104	-0.677862
H184	H	1.725625	0.115896	-0.177862
H185	H	1.234858	-0.806502	-0.277868
H186	H	1.734858	-0.306502	0.222132
C187	C	1.340463	-1.120773	-0.172613
C188	C	1.840463	-0.620773	0.327387
H189	H	1.333300	-1.193976	-0.179818
H190	H	1.833300	-0.693976	0.320182
H191	H	1.328996	-1.102859	-0.119857
H192	H	1.828996	-0.602859	0.380143
H193	H	1.393196	-1.102728	-0.184145
H194	H	1.893196	-0.602728	0.315855
H195	H	1.225644	-0.384046	-0.826581
H196	H	1.725644	0.115954	-0.326581
C197	C	1.240048	-0.364761	-1.091149
C198	C	1.740048	0.135239	-0.591149
H199	H	1.232864	-0.374358	-1.145841
H200	H	1.732864	0.125642	-0.645841
H201	H	1.292780	-0.380166	-1.077717
H202	H	1.792780	0.119834	-0.577717
H203	H	1.228585	-0.294165	-1.077726
H204	H	1.728585	0.205835	-0.577726
C205	C	0.422372	-0.647417	-0.483496
C206	C	0.922372	-0.147417	0.016504
H207	H	0.367676	-0.637779	-0.476333
H208	H	0.867676	-0.137779	0.023667
H209	H	0.435789	-0.717987	-0.471914
H210	H	0.935789	-0.217987	0.028086
H211	H	0.435836	-0.632124	-0.536258
H212	H	0.935836	-0.132124	-0.036258
H213	H	0.434028	-0.384062	-0.287339
H214	H	0.934028	0.115938	0.212661
C215	C	1.029069	-0.647015	-0.838224
C216	C	1.529069	-0.147015	-0.338224
H217	H	0.999151	-0.687033	-0.802059
H218	H	1.499151	-0.187033	-0.302059
H219	H	1.059090	-0.692785	-0.870202
H220	H	1.559090	-0.192785	-0.370202
H221	H	0.994880	-0.606805	-0.870203
H222	H	1.494880	-0.106805	-0.370203
C223	C	1.340370	-0.890347	-0.172561
C224	C	1.840370	-0.390347	0.327439
H225	H	1.333143	-0.817144	-0.179723
H226	H	1.833143	-0.317144	0.320277
H227	H	1.393113	-0.908261	-0.184094
H228	H	1.893113	-0.408261	0.315906
H229	H	1.328908	-0.908395	-0.119811
H230	H	1.828908	-0.408395	0.380189
C231	C	1.240007	-0.364816	-0.918998
C232	C	1.740007	0.135184	-0.418998
H233	H	1.269919	-0.324782	-0.955159
H234	H	1.769919	0.175218	-0.455159
H235	H	1.274192	-0.405021	-0.887017
H236	H	1.774192	0.094979	-0.387017
H237	H	1.209979	-0.319046	-0.887021
H238	H	1.709979	0.180954	-0.387021
C239	C	1.029112	-0.646916	-1.091083
C240	C	1.529112	-0.146916	-0.591083
H241	H	0.999187	-0.686933	-1.054922
H242	H	1.499187	-0.186933	-0.554922
H243	H	1.059131	-0.692687	-1.123062
H244	H	1.559131	-0.192687	-0.623062
H245	H	0.994928	-0.606698	-1.123063
H246	H	1.494928	-0.106698	-0.623063
H247	H	1.043420	-0.627773	-0.930645
H248	H	1.543420	-0.127773	-0.430645
