data_functionalizedCrystal
_audit_creation_method	'MofGen! by Chris Wilmer'
_symmetry_space_group_name_H-M	'P1'
_symmetry_Int_Tables_number	1
_symmetry_cell_setting	triclinic
loop_
_symmetry_equiv_pos_as_xyz
  x,y,z
_cell_length_a	6.817900
_cell_length_b	10.773890
_cell_length_c	16.305550
_cell_angle_alpha	96.344786
_cell_angle_beta	103.455250
_cell_angle_gamma	96.645716
loop_
_atom_site_label
_atom_site_type_symbol
_atom_site_fract_x
_atom_site_fract_y
_atom_site_fract_z
V1	V	-3.991657	-0.173642	-0.261649
O2	O	-4.015287	0.007261	-0.258082
O3	O	-3.909321	-0.343261	-0.258499
O4	O	-3.943501	-0.171446	-0.376383
O5	O	-3.980871	-0.165743	-0.139382
V6	V	-4.479651	-0.151948	-0.247190
O7	O	-4.243109	-0.221230	-0.293365
O8	O	-4.678397	-0.104359	-0.215473
O9	O	-4.338781	0.017671	-0.250339
O10	O	-4.573418	-0.332850	-0.250757
O11	O	-4.607834	-0.159846	-0.369457
O12	O	-4.304601	-0.154143	-0.132455
C13	C	-3.746059	-0.384595	-0.254021
C14	C	-3.760028	-0.523264	-0.252210
C15	C	-3.938109	-0.591139	-0.255356
C16	C	-3.952551	-0.734460	-0.253485
C17	C	-3.789657	-0.165427	-0.404392
C18	C	-3.831343	-0.164754	-0.498180
C19	C	-3.982949	-0.162147	-0.838946
C20	C	-3.748443	-0.154407	-0.798079
C21	C	-3.705007	-0.155623	-0.700574
C22	C	-3.907734	-0.163440	-0.669888
C23	C	-4.050228	-0.286635	-0.719533
C24	C	-4.092230	-0.285939	-0.817088
C25	C	-4.060506	-0.047676	-0.794014
C26	C	-4.012771	-0.046701	-0.696179
C27	C	-3.865238	-0.164175	-0.574344
C28	C	-4.025453	-0.161421	-0.934491
C29	C	-4.165384	0.058999	-0.254816
C30	C	-4.130653	0.197667	-0.256631
C31	C	-4.121786	-0.160166	-0.104442
C32	C	-4.059340	-0.160833	-0.010654
H33	H	-3.618259	-0.571259	-0.248137
N34	N	-3.774699	-0.794672	-0.248378
N35	N	-3.786685	-0.911013	-0.246869
H36	H	-3.661082	-0.953541	-0.243263
H37	H	-3.686970	-0.236649	-0.828936
N38	N	-3.883710	0.067625	-0.653976
N39	N	-3.821834	0.146188	-0.696641
H40	H	-3.730678	0.226930	-0.666830
H41	H	-3.987698	0.045668	-0.808125
N42	N	-4.197904	-0.044774	-0.669397
N43	N	-4.255710	-0.129792	-0.630327
H44	H	-4.386469	-0.128441	-0.611412
N45	N	-4.275213	-0.053423	-0.827615
N46	N	-4.370914	-0.141353	-0.884402
H47	H	-4.522549	-0.145422	-0.908138
N48	N	-4.308546	-0.742164	-0.261738
N49	N	-4.475960	-0.805906	-0.264692
H50	H	-4.601597	-0.763413	-0.268297
H51	H	-3.596154	-0.067046	-0.666256
H52	H	-3.660032	-0.065411	-0.811151
H53	H	-4.079882	-0.543146	-0.259439
H54	H	-3.622010	-0.238815	-0.683618
N55	N	-4.239802	-0.299428	-0.695695
N56	N	-4.292565	-0.393875	-0.663466
H57	H	-4.426452	-0.402910	-0.646628
N58	N	-3.959017	-0.395369	-0.697569
N59	N	-3.789147	-0.382442	-0.645395
H60	H	-3.724717	-0.459232	-0.629882
H61	H	-4.038823	-0.372597	-0.846780
H62	H	-4.263914	-0.296743	-0.844994
