data_functionalizedCrystal
_audit_creation_method	'MofGen! by Chris Wilmer'
_symmetry_space_group_name_H-M	'P1'
_symmetry_Int_Tables_number	1
_symmetry_cell_setting	triclinic
loop_
_symmetry_equiv_pos_as_xyz
  x,y,z
_cell_length_a	19.288864
_cell_length_b	10.654550
_cell_length_c	9.130313
_cell_angle_alpha	90.004369
_cell_angle_beta	89.982632
_cell_angle_gamma	96.189412
loop_
_atom_site_label
_atom_site_type_symbol
_atom_site_fract_x
_atom_site_fract_y
_atom_site_fract_z
O1	O	0.922373	-0.156655	-0.122269
O2	O	0.720251	-0.177787	-0.122169
O3	O	0.825959	0.015618	-0.122212
O4	O	0.816665	-0.350060	-0.122226
O5	O	0.825952	0.015623	0.121387
O6	O	0.720244	-0.177782	0.121430
O7	O	0.922366	-0.156649	0.121330
Cu8	Cu	0.821304	-0.167215	0.143622
Cu9	Cu	0.821313	-0.167221	-0.144462
O10	O	0.816657	-0.350054	0.121373
C11	C	0.694366	-0.177105	-0.000357
C12	C	0.617249	-0.175063	-0.000318
C13	C	0.825273	0.062404	-0.000413
C14	C	0.823231	0.201803	-0.000414
N15	N	0.821303	-0.167210	0.346245
C16	C	0.573296	-0.288545	-0.000346
C17	C	0.500836	-0.286627	-0.000362
C18	C	0.472333	-0.171222	-0.000380
C19	C	0.516296	-0.057725	-0.000344
C20	C	0.588754	-0.059646	-0.000314
C21	C	0.363480	-0.080502	-0.085769
C22	C	0.291023	-0.078586	-0.085809
C23	C	0.248849	-0.165292	-0.000468
C24	C	0.279139	-0.253936	0.084893
C25	C	0.351597	-0.255857	0.084924
C26	C	0.393766	-0.169126	-0.000412
C27	C	0.126326	-0.276702	-0.000511
C28	C	0.053865	-0.274779	-0.000518
C29	C	0.069327	-0.045875	-0.000515
C30	C	0.141786	-0.047800	-0.000494
C31	C	0.170281	-0.163217	-0.000498
C32	C	0.948250	-0.157332	-0.000486
C33	C	1.025367	-0.159373	-0.000534
C34	C	0.817344	-0.396840	-0.000429
C35	C	0.819385	-0.536240	-0.000438
C36	C	0.885471	0.282621	-0.000446
C37	C	0.883548	0.413601	-0.000463
C38	C	0.757141	0.382932	-0.000411
C39	C	0.759065	0.251955	-0.000404
N40	N	0.821319	-0.167217	-0.347084
C41	C	0.868127	-0.081605	0.422878
C42	C	0.868133	-0.081605	0.576214
C43	C	0.774490	-0.252825	0.576272
C44	C	0.774481	-0.252818	0.422938
H45	H	0.596492	-0.382526	-0.000352
H46	H	0.937719	0.241793	-0.000457
N47	N	0.950681	0.500761	-0.000484
H48	H	0.952694	0.555798	0.089812
H49	H	0.952670	0.555694	-0.090852
N50	N	0.918608	0.010758	0.340160
H51	H	0.911496	-0.002219	0.231394
H52	H	0.967954	-0.003503	0.366904
H53	H	0.704899	0.423782	-0.000400
N54	N	0.691932	0.164775	-0.000381
H55	H	0.650991	0.216418	-0.000365
H56	H	0.689973	0.109769	0.089926
N57	N	0.724001	-0.345162	0.659007
H58	H	0.732424	-0.434253	0.632296
H59	H	0.674658	-0.330815	0.632345
N60	N	0.918645	0.010707	0.658870
H61	H	0.948306	0.064930	0.587013
H62	H	0.949576	-0.037256	0.722443
N63	N	0.723970	-0.345142	0.340271
H64	H	0.694313	-0.399380	0.412120
H65	H	0.750818	-0.400536	0.276611
H66	H	0.376257	-0.328030	0.154433
N67	N	0.453421	-0.409033	-0.000397
H68	H	0.462675	-0.459393	-0.090703
H69	H	0.403215	-0.390198	-0.000364
N70	N	0.233663	-0.347471	0.176940
H71	H	0.183165	-0.332804	0.163976
H72	H	0.247099	-0.336067	0.283396
N73	N	0.157067	-0.401179	-0.000509
H74	H	0.118225	-0.472781	-0.000516
H75	H	0.186775	-0.406958	0.089805
H76	H	0.018079	-0.367194	-0.000532
H77	H	0.177574	0.044609	-0.000479
N78	N	0.038595	0.078602	-0.000518
H79	H	-0.013977	0.062601	-0.000537
H80	H	0.054655	0.128245	-0.090816
H81	H	0.266366	-0.006412	-0.155321
N82	N	0.408962	0.013029	-0.177819
H83	H	0.395588	0.001660	-0.284316
H84	H	0.459444	-0.001684	-0.164724
N85	N	0.485559	0.066749	-0.000347
H86	H	0.432987	0.050748	-0.000372
H87	H	0.501621	0.116397	-0.090640
H88	H	0.624542	0.032767	-0.000292
