data_functionalizedCrystal
_audit_creation_method	'MofGen! by Chris Wilmer'
_symmetry_space_group_name_H-M	'P1'
_symmetry_Int_Tables_number	1
_symmetry_cell_setting	triclinic
loop_
_symmetry_equiv_pos_as_xyz
  x,y,z
_cell_length_a	19.377372
_cell_length_b	14.560438
_cell_length_c	14.560438
_cell_angle_alpha	59.995857
_cell_angle_beta	89.999420
_cell_angle_gamma	72.113948
loop_
_atom_site_label
_atom_site_type_symbol
_atom_site_fract_x
_atom_site_fract_y
_atom_site_fract_z
Zr1	Zr	0.580568	1.278766	-0.257334
O2	O	0.484342	1.425053	-0.381330
O3	O	0.610066	1.101050	-0.219314
O4	O	0.610067	1.292662	-0.410931
O5	O	0.484341	1.233439	-0.038573
O6	O	0.709242	1.339374	-0.434290
O7	O	0.484341	1.233441	-0.189714
O8	O	0.709240	0.996615	-0.091522
O9	O	0.484342	1.576197	-0.381340
O10	O	0.696661	1.220648	-0.220542
O11	O	0.622647	1.185785	-0.090314
O12	O	0.622648	1.411383	-0.315919
O13	O	0.548635	1.376521	-0.185691
Zr14	Zr	0.738741	1.353261	-0.053537
Zr15	Zr	0.738741	1.353266	-0.294589
Zr16	Zr	0.580568	1.278761	-0.016282
Zr17	Zr	0.580569	1.519823	-0.257350
Zr18	Zr	0.738740	1.112204	-0.053521
O19	O	0.709243	1.530977	-0.091557
O20	O	0.709243	1.530983	-0.434302
O21	O	0.484342	1.425047	-0.038585
O22	O	0.834967	1.206974	0.070460
O23	O	0.834967	1.206980	-0.272285
O24	O	0.610066	1.101044	0.123431
O25	O	0.834968	1.398588	-0.272298
O26	O	0.709242	1.339365	0.100060
O27	O	0.610067	1.292653	0.123419
O28	O	0.834968	1.398586	-0.121157
O29	O	0.610068	1.635415	-0.410953
O30	O	0.709241	0.996612	0.100082
O31	O	0.834967	1.055830	0.070470
O32	O	0.834967	1.055833	-0.121135
O33	O	0.484342	1.576194	-0.189736
O34	O	0.610069	1.635412	-0.219349
O35	O	0.696661	1.220644	0.005048
O36	O	0.770674	1.255506	-0.125179
O37	O	0.696662	1.446242	-0.220556
O38	O	0.622649	1.411379	-0.090329
C39	C	0.659653	1.014487	-0.155416
C40	C	0.659653	0.912152	-0.155409
C41	C	0.605015	0.921633	-0.225822
C42	C	0.605018	0.825495	-0.225852
C43	C	0.714300	0.710397	-0.085045
C44	C	0.714299	0.806536	-0.085022
C45	C	0.461805	1.222825	-0.108835
C46	C	0.394656	1.191198	-0.093019
C47	C	-0.019350	1.584980	-0.289934
C48	C	-0.082436	1.555235	-0.275058
C49	C	-0.005163	1.356121	-0.175492
C50	C	0.057931	1.385849	-0.190355
C51	C	0.050831	1.500280	-0.247578
C52	C	0.128111	1.301150	-0.147999
C53	C	0.191199	1.330876	-0.162865
C54	C	0.184107	1.445302	-0.220088
C55	C	0.113919	1.530007	-0.262444
C56	C	0.135209	1.186720	-0.090783
C57	C	0.205390	1.102020	-0.048426
C58	C	0.268480	1.131746	-0.063286
C59	C	0.261387	1.246171	-0.120509
C60	C	0.338668	1.047041	-0.020930
C61	C	0.401756	1.076767	-0.035797
C62	C	0.324476	1.275898	-0.135376
C63	C	0.857504	1.409202	-0.202036
C64	C	0.924653	1.440829	-0.217851
C65	C	0.659654	1.316019	-0.456955
C66	C	0.659654	1.316020	-0.559288
C67	C	0.659656	1.617540	-0.155455
C68	C	0.659656	1.719875	-0.155462
C69	C	0.714290	1.341755	-0.620232
C70	C	0.714292	1.341745	-0.716379
C71	C	0.605016	1.290266	-0.690629
C72	C	0.605017	1.290270	-0.594480
C73	C	0.659655	1.316008	0.146084
C74	C	0.659655	1.316007	0.248417
C75	C	0.857503	1.107675	-0.202016
C76	C	0.924651	1.036967	-0.217825
C77	C	0.659653	1.014482	0.146104
C78	C	0.659653	0.912145	0.248444
C79	C	0.857503	1.107670	0.099504
C80	C	0.924651	1.036960	0.186028
C81	C	0.461806	1.524357	-0.410374
C82	C	0.394658	1.595067	-0.496898
C83	C	0.461806	1.524352	-0.108855
C84	C	0.394658	1.595060	-0.093046
C85	C	0.659656	1.617545	-0.456975
C86	C	0.659656	1.719882	-0.559314
C87	C	0.917550	0.985566	-0.275037
C88	C	0.980637	0.919139	-0.289912
C89	C	1.050823	0.904108	-0.247568
C90	C	1.057923	0.955517	-0.190354
C91	C	0.994837	1.021950	-0.175486
C92	C	0.994825	1.021955	0.158681
C93	C	1.057924	0.955532	0.239969
C94	C	1.050847	0.904108	0.348603
C95	C	0.980666	0.919119	0.375948
C96	C	0.917568	0.985548	0.294661
C97	C	0.324484	1.610084	-0.469552
C98	C	0.261385	1.676537	-0.550840
C99	C	0.268462	1.727965	-0.659473
C100	C	0.338643	1.712948	-0.686819
C101	C	0.401741	1.646502	-0.605532
C102	C	0.401759	1.646471	-0.035844
C103	C	0.338672	1.712925	-0.020995
C104	C	0.268486	1.727959	-0.063343
C105	C	0.261386	1.676545	-0.120552
C106	C	0.324472	1.610099	-0.135407
C107	C	0.698286	0.882261	0.346301
C108	C	0.698277	0.786109	0.442458
C109	C	0.621001	0.749731	0.342887
C110	C	0.621006	0.845885	0.246733
H111	H	0.318693	1.369079	-0.181939
H112	H	0.589542	0.870217	0.167048
H113	H	0.860432	0.997753	0.316943
H114	H	0.560527	0.833224	-0.283191
C115	C	0.774402	1.370042	-0.783408
N116	N	0.819681	1.391351	-0.833891
C117	C	1.135117	0.939022	0.209865
N118	N	1.193256	0.926586	0.187188
H119	H	0.729752	0.936211	0.347701
H120	H	1.102231	0.850021	0.414781
H121	H	1.102186	0.850010	-0.259681
C122	C	0.774397	1.370069	-0.581518
N123	N	0.819674	1.391391	-0.552358
H124	H	0.974842	0.877286	-0.336500
H125	H	0.860406	0.997805	-0.309535
H126	H	0.560514	1.007625	-0.283129
C127	C	0.578497	0.676832	0.341016
N128	N	0.546484	0.621923	0.339604
H129	H	0.458878	1.634277	-0.627811
H130	H	1.115077	0.943269	-0.155882
H131	H	0.729735	0.761784	0.522135
H132	H	0.974914	0.877241	0.464408
C133	C	1.002628	1.078519	0.039189
N134	N	1.008511	1.121126	-0.050812
H135	H	0.083837	1.162521	-0.078688
C136	C	0.774403	0.594211	-0.007615
N137	N	0.819672	0.506698	0.050710
H138	H	0.344397	1.754830	-0.775278
H139	H	0.560531	1.269303	-0.719294
C140	C	0.316681	1.553530	-0.350059
N141	N	0.310798	1.510944	-0.260059
H142	H	0.560525	1.269308	-0.544853
C143	C	0.184192	1.693039	-0.520736
N144	N	0.126053	1.705467	-0.498059
H145	H	0.758795	0.798808	-0.027681
H146	H	0.217078	1.782066	-0.725652
H147	H	0.458903	1.634236	-0.001349
C148	C	0.346498	1.769460	0.041949
N149	N	0.352395	1.812038	0.089361
C150	C	0.199096	1.801050	-0.046986
N151	N	0.146834	1.856099	-0.034660
H152	H	0.344437	0.953872	0.025652
H153	H	0.235479	1.469502	-0.232193
C154	C	0.184174	1.693076	-0.167111
N155	N	0.126015	1.705519	-0.202167
H156	H	0.108136	1.623188	-0.309008
H157	H	-0.139581	1.624216	-0.309557
C158	C	-0.027158	1.710860	-0.352874
N159	N	-0.033037	1.805669	-0.400279
C160	C	0.213190	0.976150	0.014519
N161	N	0.219066	0.881342	0.061934
C162	C	0.478959	0.983594	0.010802
N163	N	0.537109	0.913413	0.045900
H164	H	0.000607	1.262952	-0.128904
H165	H	1.000629	1.063793	-0.128893
H166	H	0.318680	1.568238	-0.181982
