data_functionalizedCrystal
_audit_creation_method	'MofGen! by Chris Wilmer'
_symmetry_space_group_name_H-M	'P1'
_symmetry_Int_Tables_number	1
_symmetry_cell_setting	triclinic
loop_
_symmetry_equiv_pos_as_xyz
  x,y,z
_cell_length_a	15.625020
_cell_length_b	15.538191
_cell_length_c	7.088929
_cell_angle_alpha	86.254841
_cell_angle_beta	78.263729
_cell_angle_gamma	66.738808
loop_
_atom_site_label
_atom_site_type_symbol
_atom_site_fract_x
_atom_site_fract_y
_atom_site_fract_z
O1	O	1.084876	0.178324	-0.911207
O2	O	0.831325	0.182283	-0.735399
O3	O	1.007456	0.045323	-0.857534
O4	O	0.908745	0.315284	-0.789072
O5	O	1.031007	0.026976	-0.555891
O6	O	0.854876	0.163936	-0.433756
O7	O	1.108428	0.159978	-0.609563
Cu8	Cu	0.983803	0.160282	-0.494117
Cu9	Cu	0.955950	0.181979	-0.850846
O10	O	0.932297	0.296938	-0.487429
C11	C	0.811443	0.171112	-0.562627
C12	C	0.717115	0.165148	-0.497223
C13	C	1.029559	0.001504	-0.713880
C14	C	1.060321	-0.101730	-0.735228
C15	C	0.597001	0.146741	-0.240625
C16	C	0.685635	0.152346	-0.302101
C17	C	0.659970	0.172344	-0.630948
C18	C	0.571335	0.166735	-0.569501
C19	C	0.539858	0.153935	-0.374337
C20	C	0.514191	0.173929	-0.703213
C21	C	0.425561	0.168326	-0.641769
C22	C	0.394076	0.155529	-0.446612
C23	C	0.451228	0.148332	-0.312893
C24	C	0.545667	0.186736	-0.898374
C25	C	0.488523	0.193930	-1.032086
C26	C	0.399895	0.188320	-0.970645
C27	C	0.368409	0.175523	-0.775488
C28	C	0.342742	0.195517	-1.104364
C29	C	0.254113	0.189914	-1.042920
C30	C	0.279780	0.169920	-0.714044
C31	C	0.754699	-0.402825	-0.523275
C32	C	0.783628	-0.499832	-0.543329
C33	C	0.946342	-0.515193	-0.656154
C34	C	0.917427	-0.418184	-0.636118
C35	C	0.821604	-0.362008	-0.569676
C36	C	0.984332	-0.377368	-0.682518
C37	C	0.955419	-0.280368	-0.662474
C38	C	0.859601	-0.224186	-0.596029
C39	C	0.792691	-0.265009	-0.549631
C40	C	1.080155	-0.433546	-0.748947
C41	C	1.147060	-0.392730	-0.795348
C42	C	1.118147	-0.295728	-0.775317
C43	C	1.022329	-0.239546	-0.708872
C44	C	1.185056	-0.254905	-0.821715
C45	C	1.156143	-0.157906	-0.801670
C46	C	0.993416	-0.142547	-0.688828
C47	C	1.128310	0.171149	-0.782340
C48	C	1.222636	0.177114	-0.847756
C49	C	0.910193	0.340757	-0.631087
C50	C	0.879431	0.443991	-0.609751
N51	N	1.003399	0.145021	-0.243218
N52	N	0.936363	0.197232	-1.101751
H53	H	0.254145	0.159508	-0.555119
H54	H	1.263077	-0.300659	-0.875794
F55	F	0.417733	0.134686	-0.105182
F56	F	0.693481	0.185966	-0.838650
H57	H	1.103692	-0.512528	-0.765281
F58	F	0.690703	-0.205215	-0.478933
H59	H	1.225080	-0.438482	-0.849438
F60	F	0.563506	0.133095	-0.032915
F61	F	0.712411	-0.543269	-0.493928
F62	F	0.193292	0.197574	-1.185229
H63	H	1.072881	0.090919	-0.209743
F64	F	0.746450	0.144689	-0.159770
H65	H	0.866889	0.251338	-0.135222
F66	F	0.639995	0.192701	-0.963764
F67	F	0.828830	-0.120951	-0.574681
F68	F	0.891428	-0.082753	-0.618130
H69	H	1.210625	-0.124673	-0.839452
H70	H	1.024362	-0.560945	-0.710244
F71	F	0.299745	0.149571	-0.381215
H72	H	0.514163	0.204356	-1.190988
H73	H	0.368381	0.205949	-1.263264
H74	H	0.676669	-0.357082	-0.469185
