data_functionalizedCrystal
_audit_creation_method	'MofGen! by Chris Wilmer'
_symmetry_space_group_name_H-M	'P1'
_symmetry_Int_Tables_number	1
_symmetry_cell_setting	triclinic
loop_
_symmetry_equiv_pos_as_xyz
  x,y,z
_cell_length_a	14.628931
_cell_length_b	14.628931
_cell_length_c	21.606444
_cell_angle_alpha	60.001286
_cell_angle_beta	89.999931
_cell_angle_gamma	60.000000
loop_
_atom_site_label
_atom_site_type_symbol
_atom_site_fract_x
_atom_site_fract_y
_atom_site_fract_z
Zr1	Zr	0.880623	1.000571	-0.081219
O2	O	0.734666	1.191271	-0.180042
O3	O	0.925367	0.809867	-0.050925
O4	O	0.925371	1.000564	-0.180042
O5	O	0.734658	1.000580	0.050925
O6	O	1.075803	1.000564	-0.180042
O7	O	0.734661	1.000573	-0.050925
O8	O	1.075795	0.659441	0.050925
O9	O	0.734666	1.341702	-0.180042
O10	O	1.056715	0.888307	-0.038004
O11	O	0.944447	0.888313	0.038005
O12	O	0.944452	1.112834	-0.114014
O13	O	0.832184	1.112839	-0.038005
Zr14	Zr	1.120540	1.000580	0.081219
Zr15	Zr	1.120545	1.000570	-0.081219
Zr16	Zr	0.880618	1.000581	0.081219
Zr17	Zr	0.880624	1.240492	-0.081220
Zr18	Zr	1.120539	0.760659	0.081220
O19	O	1.075796	1.191284	0.050925
O20	O	1.075804	1.191270	-0.180042
O21	O	0.734658	1.191285	0.050924
O22	O	1.266497	0.809881	0.180042
O23	O	1.266505	0.809866	-0.050924
O24	O	0.925359	0.809882	0.180042
O25	O	1.266505	1.000572	-0.050925
O26	O	1.075791	1.000587	0.180042
O27	O	0.925359	1.000587	0.180042
O28	O	1.266502	1.000578	0.050925
O29	O	0.925372	1.341702	-0.180042
O30	O	1.075791	0.659449	0.180042
O31	O	1.266497	0.659449	0.180042
O32	O	1.266501	0.659441	0.050925
O33	O	0.734662	1.341711	-0.050925
O34	O	0.925368	1.341710	-0.050925
O35	O	1.056710	0.888317	0.114014
O36	O	1.168979	0.888312	0.038005
O37	O	1.056716	1.112839	-0.038005
O38	O	0.944447	1.112844	0.038004
C39	C	1.000581	0.700470	0.000000
C40	C	1.000581	0.598617	0.000000
C41	C	0.944889	0.447946	0.037705
C42	C	0.944888	0.553216	0.037706
C43	C	0.700476	1.000576	-0.000000
C44	C	0.598623	1.000577	-0.000000
C45	C	0.608903	0.889196	0.037705
C46	C	0.503634	0.889194	0.037706
C47	C	1.300687	1.000575	0.000000
C48	C	1.402540	1.000574	0.000000
C49	C	1.000588	1.000563	-0.203186
C50	C	1.000591	1.000558	-0.272145
C51	C	1.000582	1.300681	-0.000000
C52	C	1.000582	1.402534	-0.000000
C53	C	0.941975	1.117793	-0.735132
C54	C	0.941973	1.117789	-0.670334
C55	C	1.000574	1.000584	-0.598261
C56	C	1.059173	0.883375	-0.590985
C57	C	1.059168	0.883380	-0.655782
C58	C	1.059192	0.883353	-0.329667
C59	C	1.059195	0.883357	-0.264869
C60	C	0.941996	1.117762	-0.344220
C61	C	0.941992	1.117767	-0.409016
C62	C	1.000585	1.000559	-0.401735
C63	C	1.000585	1.000564	-0.471996
C64	C	1.000581	1.000578	-0.528000
C65	C	1.000575	1.000588	0.203186
C66	C	1.000572	1.000593	0.272145
C67	C	1.300687	0.700469	0.000001
C68	C	1.402540	0.598616	0.000001
C69	C	1.000574	0.700483	0.203186
C70	C	1.000572	0.598635	0.272146
C71	C	1.300680	0.700482	0.203186
C72	C	1.402530	0.598633	0.272146
C73	C	0.700483	1.300669	-0.203186
C74	C	0.598632	1.402518	-0.272146
C75	C	0.700476	1.300682	-0.000001
C76	C	0.598623	1.402535	-0.000001
C77	C	1.000589	1.300668	-0.203186
C78	C	1.000591	1.402516	-0.272146
C79	C	1.059171	0.550808	0.344213
C80	C	1.059164	0.455124	0.409014
C81	C	1.000564	0.407262	0.401746
C82	C	0.941958	0.455098	0.329671
C83	C	0.941959	0.550787	0.264872
C84	C	1.508974	0.550801	0.264854
C85	C	1.604682	0.455117	0.329643
C86	C	1.593945	0.407260	0.401723
C87	C	1.487491	0.455101	0.409013
C88	C	1.391785	0.550790	0.344225
C89	C	0.492189	1.450361	-0.264854
C90	C	0.396480	1.546076	-0.329643
C91	C	0.407217	1.593938	-0.401723
C92	C	0.513672	1.546090	-0.409013
C93	C	0.609378	1.450384	-0.344225
C94	C	1.059202	1.450348	-0.264854
C95	C	1.059226	1.546033	-0.329642
C96	C	1.000632	1.593891	-0.401722
C97	C	0.942019	1.546050	-0.409013
C98	C	0.942002	1.450360	-0.344225
C99	C	1.392259	0.553205	-0.037705
C100	C	1.497528	0.447934	-0.037706
H101	H	0.695639	0.793841	0.069990
C102	C	0.877505	0.603372	0.185599
N103	N	0.828957	0.642972	0.125892
C104	C	0.525464	1.598741	-0.488308
N105	N	0.534342	1.638392	-0.548035
H106	H	0.512261	0.793837	0.069982
H107	H	1.106881	0.787944	-0.649852
H108	H	1.106954	1.584975	-0.323691
C109	C	1.065000	0.545867	-0.043614
N110	N	1.113522	0.506127	-0.076463
H111	H	1.106890	0.589767	0.350145
C112	C	0.390871	1.129407	-0.043614
N113	N	0.382089	1.226445	-0.076464
H114	H	1.106917	1.411397	-0.206168
C115	C	0.877503	1.246729	-0.814411
N116	N	0.828934	1.343849	-0.874123
C117	C	0.877519	1.246718	-0.678345
N118	N	0.828972	1.343834	-0.684381
H119	H	0.894282	1.213198	-0.350142
H120	H	1.000655	1.671808	-0.454470
H121	H	1.106882	0.787945	-0.532297
H122	H	0.897215	0.408884	0.069990
H123	H	0.894313	1.585030	-0.467709
H124	H	0.309810	1.585017	-0.323692
H125	H	0.894269	1.411426	-0.350173
H126	H	0.696046	1.411431	-0.350171
C127	C	1.699237	0.301989	0.472985
N128	N	1.778547	0.222694	0.526656
C129	C	1.275085	0.605955	-0.081311
N130	N	1.186828	0.645681	-0.114153
C131	C	0.877504	1.246700	-0.488296
N132	N	0.828919	1.343817	-0.548010
H133	H	1.106892	0.416187	0.467694
H134	H	1.106916	0.787909	-0.206182
C135	C	1.475699	0.402434	0.488308
N136	N	1.466821	0.362753	0.548035
C137	C	1.123645	0.754421	-0.321649
N138	N	1.172193	0.657302	-0.315609
H139	H	1.048267	0.441584	-0.032278
H140	H	1.000573	0.329346	0.454516
C141	C	1.520812	0.603434	0.185572
N142	N	1.529737	0.643077	0.125859
H143	H	0.897202	0.592274	0.069984
H144	H	0.894248	0.416114	0.323765
H145	H	0.511887	1.095932	-0.032280
H146	H	1.305118	0.589723	0.350173
H147	H	1.488900	0.408877	-0.069984
H148	H	1.691353	0.416174	0.323693
C149	C	1.519714	0.545857	0.043613
N150	N	1.607970	0.506118	0.076463
H151	H	0.483426	1.411397	-0.206169
C152	C	0.301926	1.699207	-0.472985
N153	N	0.222616	1.778491	-0.526656
H154	H	1.607258	0.441570	0.032289
