data_functionalizedCrystal
_audit_creation_method	'MofGen! by Chris Wilmer'
_symmetry_space_group_name_H-M	'P1'
_symmetry_Int_Tables_number	1
_symmetry_cell_setting	triclinic
loop_
_symmetry_equiv_pos_as_xyz
  x,y,z
_cell_length_a	14.971491
_cell_length_b	10.654554
_cell_length_c	14.048226
_cell_angle_alpha	89.994080
_cell_angle_beta	89.991693
_cell_angle_gamma	84.051490
loop_
_atom_site_label
_atom_site_type_symbol
_atom_site_fract_x
_atom_site_fract_y
_atom_site_fract_z
O1	O	1.187837	0.163689	-0.079200
O2	O	1.687837	0.663689	0.420800
O3	O	0.927544	0.183281	-0.079193
O4	O	1.427544	0.683281	0.420807
O5	O	1.063673	-0.009318	-0.079192
O6	O	1.563673	0.490682	0.420808
O7	O	1.051708	0.356288	-0.079202
O8	O	1.551708	0.856288	0.420798
O9	O	1.063656	-0.009329	0.079129
O10	O	1.563656	0.490671	0.579129
O11	O	0.927528	0.183270	0.079128
O12	O	1.427528	0.683270	0.579128
O13	O	1.187820	0.163678	0.079121
O14	O	1.687820	0.663678	0.579121
Zn15	Zn	1.057671	0.173472	0.104261
Zn16	Zn	1.557671	0.673472	0.604261
Zn17	Zn	1.057693	0.173487	-0.104334
Zn18	Zn	1.557693	0.673487	0.395666
O19	O	1.051691	0.356277	0.079119
O20	O	1.551691	0.856277	0.579119
C21	C	0.894206	0.182398	-0.000032
C22	C	1.394206	0.682398	0.499968
C23	C	0.794895	0.179769	-0.000029
C24	C	1.294895	0.679769	0.499971
C25	C	0.367137	0.168430	-0.086352
C26	C	0.867137	0.668430	0.413648
C27	C	0.460451	0.170897	-0.086348
C28	C	0.960451	0.670897	0.413652
C29	C	0.507094	0.172132	-0.000044
C30	C	1.007094	0.672132	0.499956
C31	C	0.460420	0.170888	0.086263
C32	C	0.960420	0.670888	0.586263
C33	C	0.367109	0.168413	0.086258
C34	C	0.867109	0.668413	0.586258
C35	C	0.654910	0.176051	0.086266
C36	C	1.154910	0.676051	0.586266
C37	C	0.748227	0.178529	0.086271
C38	C	1.248227	0.678529	0.586271
C39	C	0.748252	0.178535	-0.086340
C40	C	1.248252	0.678535	0.413660
C41	C	0.654940	0.176060	-0.086345
C42	C	1.154940	0.676060	0.413655
C43	C	0.608273	0.174818	-0.000038
C44	C	1.108273	0.674818	0.499962
C45	C	1.062785	-0.056112	-0.000032
C46	C	1.562785	0.443888	0.499968
C47	C	1.060154	-0.195527	-0.000034
C48	C	1.560154	0.304473	0.499966
C49	C	1.137836	-0.406866	-0.000048
C50	C	1.637836	0.093134	0.499952
C51	C	1.140309	-0.275871	-0.000039
C52	C	1.640309	0.224129	0.499961
C53	C	0.977522	-0.246182	-0.000029
C54	C	1.477522	0.253818	0.499971
C55	C	0.975050	-0.377175	-0.000032
C56	C	1.475050	0.122825	0.499968
C57	C	1.231820	-0.424006	-0.000058
C58	C	1.731820	0.075994	0.499942
C59	C	1.234292	-0.293011	-0.000048
C60	C	1.734292	0.206989	0.499952
C61	C	1.221158	0.164561	-0.000043
C62	C	1.721158	0.664561	0.499957
C63	C	1.320469	0.167190	-0.000052
C64	C	1.820469	0.667190	0.499948
C65	C	1.052579	0.403071	-0.000043
C66	C	1.552579	0.903071	0.499957
C67	C	1.055210	0.542486	-0.000047
C68	C	1.555210	1.042486	0.499953
N69	N	1.057663	0.173461	0.246622
N70	N	1.557663	0.673461	0.746622
N71	N	1.057708	0.173488	-0.246694
N72	N	1.557708	0.673488	0.253306
C73	C	1.117960	0.088214	0.296441
C74	C	1.617960	0.588214	0.796441
C75	C	1.117966	0.088213	0.396098
C76	C	1.617966	0.588213	0.896098
C77	C	1.057679	0.173467	0.445936
C78	C	1.557679	0.673467	0.945936
C79	C	0.997375	0.258718	0.396110
C80	C	1.497375	0.758718	0.896110
C81	C	0.997365	0.258712	0.296454
C82	C	1.497365	0.758712	0.796454
C83	C	0.997401	0.258727	0.603824
C84	C	1.497401	0.758727	1.103824
C85	C	0.997411	0.258736	0.703487
C86	C	1.497411	0.758736	1.203487
C87	C	1.118002	0.088228	0.703469
C88	C	1.618002	0.588228	1.203469
C89	C	1.117992	0.088222	0.603813
C90	C	1.617992	0.588222	1.103813
C91	C	1.057689	0.173476	0.553994
C92	C	1.557689	0.673476	1.053994
H93	H	0.786253	0.179548	-0.156614
H94	H	1.286253	0.679548	0.343386
H95	H	1.260222	-0.469943	-0.068419
H96	H	1.760222	0.030057	0.431581
C97	C	1.274721	-0.245322	0.092302
C98	C	1.774721	0.254678	0.592302
N99	N	1.305169	-0.209400	0.161861
N100	N	1.805169	0.290600	0.661861
C101	C	1.184311	-0.005561	0.548994
C102	C	1.684311	0.494439	1.048994
N103	N	1.234262	-0.076204	0.507704
N104	N	1.734262	0.423796	1.007704
C105	C	1.283946	-0.253850	-0.089559
C106	C	1.783946	0.246150	0.410441
N107	N	1.321341	-0.224353	-0.156979
N108	N	1.821341	0.275647	0.343021
C109	C	0.884156	-0.432882	-0.000018
C110	C	1.384156	0.067118	0.499982
N111	N	0.815690	-0.474840	-0.000008
N112	N	1.315690	0.025160	0.499992
H113	H	0.329112	0.167416	0.156532
H114	H	0.829112	0.667416	0.656532
H115	H	0.912259	-0.180755	-0.000016
H116	H	1.412259	0.319245	0.499984
H117	H	1.167064	0.018797	0.436660
H118	H	1.667064	0.518797	0.936660
C119	C	1.184282	-0.005574	0.241629
C120	C	1.684282	0.494426	0.741629
N121	N	1.234235	-0.076223	0.200348
N122	N	1.734235	0.423777	0.700348
C123	C	1.184332	-0.005556	0.758271
C124	C	1.684332	0.494444	1.258271
N125	N	1.234292	-0.076190	0.799553
N126	N	1.734292	0.423810	1.299553
H127	H	1.267230	-0.466147	0.066193
H128	H	1.767230	0.033853	0.566193
H129	H	0.948318	0.328157	0.744059
H130	H	1.448318	0.828157	1.244059
H131	H	0.948293	0.328146	0.563265
H132	H	1.448293	0.828146	1.063265
C133	C	0.931049	0.352487	0.450934
C134	C	1.431049	0.852487	0.950934
N135	N	0.881091	0.423115	0.492227
N136	N	1.381091	0.923115	0.992227
H137	H	0.786202	0.179541	0.156547
H138	H	1.286202	0.679541	0.656547
C139	C	0.931041	0.352501	0.241654
C140	C	1.431041	0.852501	0.741654
N141	N	0.881084	0.423146	0.200380
N142	N	1.381084	0.923146	0.700380
H143	H	0.329166	0.167433	-0.156631
H144	H	0.829166	0.667433	0.343369
H145	H	0.616965	0.175063	-0.156621
H146	H	1.116965	0.675063	0.343379
C147	C	0.603578	0.174687	0.181208
C148	C	1.103578	0.674687	0.681208
N149	N	0.564913	0.173667	0.252718
N150	N	1.064913	0.673667	0.752718
H151	H	0.498444	0.171899	-0.156622
H152	H	0.998444	0.671899	0.343378
H153	H	0.498405	0.171886	0.156533
H154	H	0.998405	0.671886	0.656533
