data_functionalizedCrystal
_audit_creation_method	'MofGen! by Chris Wilmer'
_symmetry_space_group_name_H-M	'P1'
_symmetry_Int_Tables_number	1
_symmetry_cell_setting	triclinic
loop_
_symmetry_equiv_pos_as_xyz
  x,y,z
_cell_length_a	12.837943
_cell_length_b	11.892095
_cell_length_c	12.811442
_cell_angle_alpha	88.493659
_cell_angle_beta	90.586273
_cell_angle_gamma	94.310562
loop_
_atom_site_label
_atom_site_type_symbol
_atom_site_fract_x
_atom_site_fract_y
_atom_site_fract_z
O1	O	-1.385150	-0.121160	0.265179
O2	O	-0.885150	0.378840	0.765179
O3	O	-1.083190	-0.119794	0.251783
O4	O	-0.583190	0.380206	0.751783
O5	O	-1.240671	-0.104991	0.107445
O6	O	-0.740671	0.395009	0.607445
O7	O	-1.227668	-0.135964	0.409517
O8	O	-0.727668	0.364036	0.909517
O9	O	-1.227540	0.081785	0.119459
O10	O	-0.727540	0.581785	0.619459
O11	O	-1.070059	0.066981	0.263797
O12	O	-0.570059	0.566981	0.763797
O13	O	-1.372019	0.065615	0.277193
O14	O	-0.872019	0.565615	0.777193
Zn15	Zn	-1.218954	0.095953	0.272403
Zn16	Zn	-0.718954	0.595953	0.772403
Zn17	Zn	-1.236254	-0.150132	0.256573
Zn18	Zn	-0.736254	0.349868	0.756573
O19	O	-1.214537	0.050811	0.421531
O20	O	-0.714537	0.550811	0.921531
C21	C	-1.037951	-0.025943	0.253264
C22	C	-0.537951	0.474057	0.753264
C23	C	-0.922718	-0.024563	0.239767
C24	C	-0.422718	0.475437	0.739767
C25	C	-1.232973	-0.007614	0.074520
C26	C	-0.732973	0.492386	0.574520
C27	C	-1.229585	0.004274	-0.041488
C28	C	-0.729585	0.504274	0.458512
N29	N	-1.207155	0.263899	0.283206
N30	N	-0.707155	0.763899	0.783206
C31	C	-1.417257	-0.028238	0.275712
C32	C	-0.917257	0.471762	0.775712
C33	C	-1.532491	-0.029627	0.289208
C34	C	-1.032491	0.470373	0.789208
C35	C	-0.683637	-0.041184	0.402027
C36	C	-0.183637	0.458816	0.902027
C37	C	-0.575365	-0.039886	0.389350
C38	C	-0.075365	0.460114	0.889350
C39	C	-0.597898	-0.020661	0.201738
C40	C	-0.097898	0.479339	0.701738
C41	C	-0.706171	-0.021959	0.214414
C42	C	-0.206171	0.478041	0.714414
C43	C	-0.749036	-0.032222	0.314562
C44	C	-0.249036	0.467778	0.814562
C45	C	-0.857311	-0.033528	0.327238
C46	C	-0.357311	0.466472	0.827238
C47	C	-0.879842	-0.014295	0.139627
C48	C	-0.379842	0.485705	0.639627
C49	C	-0.771569	-0.012997	0.126950
C50	C	-0.271569	0.487003	0.626950
N51	N	-1.248062	-0.318077	0.245763
N52	N	-0.748062	0.181923	0.745763
C53	C	-1.330167	0.512103	0.170531
C54	C	-0.830167	1.012103	0.670531
C55	C	-1.321927	0.629669	0.178091
C56	C	-0.821927	1.129669	0.678091
C57	C	-1.182430	0.616601	0.305878
C58	C	-0.682430	1.116601	0.805878
C59	C	-1.190670	0.499035	0.298318
C60	C	-0.690670	0.999035	0.798318
C61	C	-1.264542	0.446790	0.230644
C62	C	-0.764542	0.946790	0.730644
C63	C	-1.272787	0.329220	0.223091
C64	C	-0.772787	0.829220	0.723091
C65	C	-1.133285	0.316155	0.350872
C66	C	-0.633285	0.816155	0.850872
C67	C	-1.125045	0.433722	0.358431
C68	C	-0.625045	0.933722	0.858431
C69	C	-1.217658	0.122838	-0.198450
C70	C	-0.717658	0.622838	0.301550
C71	C	-1.220837	0.111671	-0.089450
C72	C	-0.720837	0.611671	0.410550
C73	C	-1.235152	-0.091963	-0.102534
C74	C	-0.735152	0.408037	0.397466
C75	C	-1.231974	-0.080796	-0.211534
C76	C	-0.731974	0.419204	0.288466
C77	C	-1.223228	0.026608	-0.259488
C78	C	-0.723228	0.526608	0.240512
C79	C	-1.220057	0.037774	-0.368490
C80	C	-0.720057	0.537774	0.131510
C81	C	-1.234365	-0.165859	-0.381572
C82	C	-0.734365	0.334141	0.118428
C83	C	-1.237544	-0.177026	-0.272572
C84	C	-0.737544	0.322974	0.227428
C85	C	-1.222236	-0.046568	0.454456
C86	C	-0.722236	0.453432	0.954456
C87	C	-1.225624	-0.058463	0.570464
C88	C	-0.725624	0.441537	1.070464
H89	H	-0.892210	-0.041883	0.408783
H90	H	-0.392210	0.458117	0.908783
F91	F	-1.246871	-0.291327	-0.221525
F92	F	-0.746871	0.208673	0.278475
F93	F	-1.046426	0.489335	0.430449
F94	F	-0.546426	0.989335	0.930449
H95	H	-1.079852	0.262963	0.399823
H96	H	-0.579852	0.762963	0.899823
H97	H	-1.216292	0.190032	-0.039757
H98	H	-0.716292	0.690032	0.460243
F99	F	-1.244511	-0.206261	-0.051482
F100	F	-0.744511	0.293739	0.448518
F101	F	-1.240294	-0.268281	-0.446541
F102	F	-0.740294	0.231719	0.053459
H103	H	-1.332939	0.286683	0.167990
H104	H	-0.832939	0.786683	0.667990
H105	H	-1.212937	0.125228	-0.407533
H106	H	-0.712937	0.625228	0.092467
H107	H	-0.718539	-0.049542	0.483571
H108	H	-0.218539	0.450458	0.983571
F109	F	-0.949453	-0.004771	0.046533
F110	F	-0.449453	0.495229	0.546533
F111	F	-0.505765	-0.049421	0.482443
F112	F	-0.005765	0.450579	0.982443
H113	H	-1.375364	0.682845	0.129139
H114	H	-0.875364	1.182845	0.629139
F115	F	-0.552258	-0.009726	0.095162
F116	F	-0.052258	0.490274	0.595162
F117	F	-1.208365	0.237143	-0.249490
F118	F	-0.708365	0.737143	0.250510
H119	H	-0.736652	-0.004628	0.045413
H120	H	-0.236652	0.495372	0.545413
F121	F	-1.408796	0.456498	0.098518
F122	F	-0.908796	0.956498	0.598518
H123	H	-1.122278	0.659155	0.360969
H124	H	-0.622278	1.159155	0.860969
