data_functionalizedCrystal
_audit_creation_method	'MofGen! by Chris Wilmer'
_symmetry_space_group_name_H-M	'P1'
_symmetry_Int_Tables_number	1
_symmetry_cell_setting	triclinic
loop_
_symmetry_equiv_pos_as_xyz
  x,y,z
_cell_length_a	13.339070
_cell_length_b	13.339070
_cell_length_c	12.376457
_cell_angle_alpha	75.601917
_cell_angle_beta	104.410245
_cell_angle_gamma	115.629294
loop_
_atom_site_label
_atom_site_type_symbol
_atom_site_fract_x
_atom_site_fract_y
_atom_site_fract_z
O1	O	-1.511964	-0.535384	-0.094035
O2	O	-1.197153	-0.463125	-0.094030
O3	O	-1.318428	-0.341851	-0.094029
O4	O	-1.390689	-0.656659	-0.094037
O5	O	-1.288108	-0.372116	0.093983
O6	O	-1.166834	-0.493391	0.093982
O7	O	-1.481644	-0.565650	0.093976
Zn8	Zn	-1.319425	-0.534326	0.123830
Zn9	Zn	-1.359372	-0.494450	-0.123884
O10	O	-1.360369	-0.686924	0.093975
C11	C	-1.140878	-0.466052	-0.000024
C12	C	-1.018364	-0.429669	-0.000022
C13	C	-1.291062	-0.315868	-0.000024
C14	C	-1.254679	-0.193353	-0.000028
C15	C	-1.537920	-0.562723	-0.000033
C16	C	-1.660435	-0.599105	-0.000042
C17	C	-1.387736	-0.712907	-0.000032
C18	C	-1.424120	-0.835420	-0.000035
C19	C	-0.732980	-0.712564	-0.000047
C20	C	-0.848090	-0.746750	-0.000052
C21	C	-0.890664	-0.667483	-0.000044
C22	C	-0.818117	-0.554023	-0.000031
C23	C	-0.702998	-0.519831	-0.000035
C24	C	-0.860682	-0.474751	-0.000032
C25	C	-0.788135	-0.361291	-0.000020
C26	C	-0.673027	-0.327105	-0.000022
C27	C	-0.630453	-0.406372	-0.000030
C28	C	-0.975801	-0.508942	-0.000029
C29	C	-0.945819	-0.316210	-0.000017
C30	C	-0.830709	-0.282023	-0.000012
N31	N	-1.292170	-0.561541	0.292888
C32	C	-1.537579	0.092035	-0.000032
C33	C	-1.571765	-0.023075	-0.000022
C34	C	-1.492496	-0.065651	-0.000024
C35	C	-1.379036	0.006896	-0.000035
C36	C	-1.344845	0.122016	-0.000037
C37	C	-1.299763	-0.035669	-0.000028
C38	C	-1.186303	0.036877	-0.000040
C39	C	-1.152118	0.151986	-0.000042
C40	C	-1.231386	0.194561	-0.000040
C41	C	-1.333954	-0.150790	-0.000027
C42	C	-1.141220	-0.120808	-0.000031
C43	C	-1.107034	-0.005698	-0.000042
N44	N	-1.386634	-0.467227	-0.292942
C45	C	-1.449896	-0.404029	0.647875
C46	C	-1.468966	-0.384979	0.529535
C47	C	-1.424768	-0.429117	0.470367
C48	C	-1.361498	-0.492310	0.529551
C49	C	-1.342434	-0.511370	0.647902
C50	C	-1.317306	-0.536458	0.470395
C51	C	-1.254035	-0.599651	0.529579
C52	C	-1.234974	-0.618707	0.647918
C53	C	-1.279171	-0.574568	0.707086
C54	C	-1.336370	-0.517399	0.352044
C55	C	-1.228907	-0.624740	0.352071
C56	C	-1.209837	-0.643790	0.470411
H57	H	-1.034857	-0.601322	-0.000035
H58	H	-1.387885	-0.465947	0.303867
O59	O	-0.687054	-0.798047	-0.000046
H60	H	-0.647677	-0.774735	-0.076673
H61	H	-0.907151	-0.839128	-0.000071
O62	O	-1.456325	-0.229022	-0.000036
H63	H	-1.483618	-0.226440	0.076587
O64	O	-0.984662	0.072558	-0.000046
H65	H	-0.935280	0.023624	-0.000055
O66	O	-1.694134	-0.101318	-0.000035
H67	H	-1.743514	-0.052374	-0.000051
O68	O	-0.991717	-0.230702	0.000002
H69	H	-1.083948	-0.273540	0.000018
H70	H	-1.059730	0.211050	-0.000042
H71	H	-0.984393	-0.695324	-0.000051
H72	H	-1.203558	0.288293	-0.000052
H73	H	-1.440298	-0.413604	0.374010
H74	H	-1.602105	0.126710	-0.000021
O75	O	-1.537199	-0.316819	0.465713
H76	H	-1.612243	-0.369378	0.411793
O77	O	-1.055707	-0.166708	-0.000030
H78	H	-1.079023	-0.206095	-0.076664
H79	H	-1.485884	-0.368104	0.696057
H80	H	-1.263641	-0.590075	0.803448
H81	H	-1.183466	-0.670173	0.696106
H82	H	-0.613963	-0.234717	-0.000025
O83	O	-1.181229	-0.672340	0.288257
H84	H	-1.215593	-0.765539	0.310946
H85	H	-0.536722	-0.378543	-0.000025
O86	O	-1.141610	-0.711960	0.534247
H87	H	-1.135790	-0.717802	0.626477
O88	O	-1.529363	-0.189805	-0.000012
H89	H	-1.509136	-0.201356	-0.076640
H90	H	-0.771627	-0.189640	-0.000011
