data_functionalizedCrystal
_audit_creation_method	'MofGen! by Chris Wilmer'
_symmetry_space_group_name_H-M	'P1'
_symmetry_Int_Tables_number	1
_symmetry_cell_setting	triclinic
loop_
_symmetry_equiv_pos_as_xyz
  x,y,z
_cell_length_a	10.489716
_cell_length_b	10.489716
_cell_length_c	13.101039
_cell_angle_alpha	93.400284
_cell_angle_beta	86.608673
_cell_angle_gamma	84.529136
loop_
_atom_site_label
_atom_site_type_symbol
_atom_site_fract_x
_atom_site_fract_y
_atom_site_fract_z
O1	O	1.701008	0.172846	-0.085197
O2	O	1.329807	0.189771	-0.085200
O3	O	1.523871	-0.004293	-0.085202
O4	O	1.506944	0.366909	-0.085194
O5	O	1.509947	0.009655	0.085228
O6	O	1.315883	0.203718	0.085230
O7	O	1.687084	0.186793	0.085233
Zn8	Zn	1.499273	0.197470	0.112291
Zn9	Zn	1.517618	0.179094	-0.112258
O10	O	1.493021	0.380856	0.085236
C11	C	1.275313	0.195473	0.000015
C12	C	1.133683	0.191668	0.000013
C13	C	1.035998	0.310674	0.000013
C14	C	0.951792	0.254666	0.084048
C15	C	0.965527	0.240887	-0.083983
C16	C	1.051337	0.135715	0.084117
C17	C	1.065082	0.121948	-0.083989
C18	C	0.980924	0.065854	0.000066
C19	C	1.515637	-0.044851	0.000010
C20	C	1.511833	-0.186483	0.000001
C21	C	1.630838	-0.284166	0.000011
C22	C	1.574818	-0.368398	-0.084018
C23	C	1.561063	-0.354611	0.084013
C24	C	1.455868	-0.268855	-0.084097
C25	C	1.442124	-0.255056	0.084009
C26	C	1.386018	-0.339240	-0.000040
C27	C	1.741578	0.181091	0.000017
C28	C	1.883209	0.184895	0.000011
C29	C	1.501254	0.421415	0.000021
C30	C	1.505059	0.563046	0.000024
N31	N	1.486762	0.210010	0.265540
N32	N	1.530139	0.166544	-0.265506
C33	C	1.469741	0.227084	0.474583
C34	C	1.547156	0.149474	0.525458
C35	C	1.537685	0.158974	0.641776
C36	C	1.479210	0.217585	0.358254
H37	H	1.060652	0.414197	0.000094
Cl38	Cl	1.661337	-0.444539	-0.193698
Cl39	Cl	1.387324	-0.210985	-0.193903
Cl40	Cl	1.356443	0.340681	0.542205
H41	H	0.902501	0.310717	0.155093
Cl42	Cl	1.109241	0.067186	0.193916
H43	H	1.620546	0.075898	0.481654
H44	H	0.956499	-0.037735	0.000112
Cl45	Cl	0.907345	0.309508	-0.193655
Cl46	Cl	1.141230	0.035481	-0.193684
Cl47	Cl	1.226088	-0.376958	-0.000108
H48	H	1.734360	-0.259506	-0.000073
Cl49	Cl	1.355696	-0.178849	0.193696
H50	H	1.605521	-0.392275	0.155051
