data_functionalizedCrystal
_audit_creation_method	'MofGen! by Chris Wilmer'
_symmetry_space_group_name_H-M	'P1'
_symmetry_Int_Tables_number	1
_symmetry_cell_setting	triclinic
loop_
_symmetry_equiv_pos_as_xyz
  x,y,z
_cell_length_a	12.811457
_cell_length_b	15.538191
_cell_length_c	11.892095
_cell_angle_alpha	87.658363
_cell_angle_beta	88.501673
_cell_angle_gamma	65.746957
loop_
_atom_site_label
_atom_site_type_symbol
_atom_site_fract_x
_atom_site_fract_y
_atom_site_fract_z
O1	O	1.340244	0.129446	-0.043405
O2	O	1.032433	0.141214	-0.011849
O3	O	1.246257	-0.001172	-0.033765
O4	O	1.126420	0.271832	-0.021489
O5	O	1.228436	0.010682	-0.219945
O6	O	1.014612	0.153068	-0.198029
O7	O	1.322423	0.141299	-0.229586
Zn8	Zn	1.165688	0.149066	-0.243368
Zn9	Zn	1.189168	0.133448	0.001933
O10	O	1.108599	0.283685	-0.207670
C11	C	0.985090	0.146118	-0.100999
C12	C	0.870576	0.143060	-0.089258
C13	C	0.635971	0.150219	-0.270195
C14	C	0.528375	0.147345	-0.259169
C15	C	0.547791	0.134432	-0.056183
C16	C	0.655387	0.137306	-0.067209
C17	C	0.699472	0.145201	-0.174218
C18	C	0.807066	0.148081	-0.185242
C19	C	0.826483	0.135161	0.017743
C20	C	0.718887	0.132288	0.028768
C21	C	1.249885	-0.030209	-0.128137
C22	C	1.287232	-0.134392	-0.131954
C23	C	0.916202	-0.426070	-0.093940
C24	C	0.951320	-0.523967	-0.097543
C25	C	1.148856	-0.544340	-0.117794
C26	C	1.113755	-0.446443	-0.114187
C27	C	0.997426	-0.387315	-0.102262
C28	C	1.194979	-0.407687	-0.122509
C29	C	1.159879	-0.309798	-0.118908
C30	C	1.043555	-0.250664	-0.106986
C31	C	0.962326	-0.289425	-0.098661
C32	C	1.311307	-0.466817	-0.134443
C33	C	1.392531	-0.428062	-0.142764
C34	C	1.357432	-0.330171	-0.139155
C35	C	1.241108	-0.271037	-0.127233
C36	C	1.438661	-0.291410	-0.147481
C37	C	1.403561	-0.193520	-0.143880
C38	C	1.206008	-0.173147	-0.123633
C39	C	1.369767	0.136395	-0.140434
C40	C	1.484280	0.139453	-0.152167
C41	C	1.104971	0.312723	-0.113296
C42	C	1.067624	0.416906	-0.109471
N43	N	1.149671	0.159724	-0.410781
C44	C	1.316669	0.048567	-0.664545
C45	C	1.305478	0.056023	-0.781740
C46	C	1.116096	0.182089	-0.762367
C47	C	1.127287	0.174632	-0.645172
C48	C	1.227577	0.107870	-0.596266
C49	C	1.238771	0.100418	-0.479069
C50	C	1.049386	0.226478	-0.459698
C51	C	1.038196	0.233935	-0.576893
N52	N	1.205196	0.122783	0.169345
H53	H	0.682980	0.125855	0.115892
H54	H	1.487246	-0.476216	-0.152478
C55	C	1.566618	-0.356462	-0.160608
N56	N	1.662997	-0.405460	-0.170496
H57	H	0.511886	0.127988	0.030938
C58	C	0.896343	0.129642	0.123324
N59	N	0.948961	0.125487	0.202846
C60	C	0.855560	0.156762	-0.302954
N61	N	0.892084	0.163296	-0.391618
C62	C	1.492913	-0.150888	-0.153028
N63	N	1.560215	-0.118777	-0.159920
H64	H	0.671859	0.156660	-0.357325
H65	H	1.398334	-0.005788	-0.624725
H66	H	1.320433	0.046059	-0.439251
H67	H	0.976844	0.274769	-0.404091
H68	H	0.867600	-0.241280	-0.088942
C69	C	1.005770	0.255499	-0.816184
N70	N	0.922666	0.310786	-0.856720
C71	C	0.458523	0.152874	-0.364751
N72	N	0.405909	0.157040	-0.444280
H73	H	1.111283	-0.125002	-0.113913
H74	H	1.378025	0.007732	-0.837330
C75	C	0.788234	-0.361023	-0.080820
N76	N	0.691852	-0.312030	-0.070943
C77	C	1.004945	-0.142982	-0.103024
N78	N	0.975864	-0.061876	-0.100036
H79	H	1.243571	-0.592495	-0.127509
H80	H	0.956539	0.288289	-0.616726
H81	H	0.885167	-0.555515	-0.090782
H82	H	1.339882	-0.546524	-0.137364
