data_functionalizedCrystal
_audit_creation_method	'MofGen! by Chris Wilmer'
_symmetry_space_group_name_H-M	'P1'
_symmetry_Int_Tables_number	1
_symmetry_cell_setting	triclinic
loop_
_symmetry_equiv_pos_as_xyz
  x,y,z
_cell_length_a	13.635800
_cell_length_b	11.102193
_cell_length_c	11.102300
_cell_angle_alpha	88.052387
_cell_angle_beta	108.605850
_cell_angle_gamma	71.396037
loop_
_atom_site_label
_atom_site_type_symbol
_atom_site_fract_x
_atom_site_fract_y
_atom_site_fract_z
V1	V	2.055760	-0.175838	0.396256
O2	O	2.035282	0.008450	0.388713
O3	O	2.044144	-0.348658	0.393545
O4	O	2.044151	-0.173134	0.569077
O5	O	2.035275	-0.168290	0.211967
V6	V	2.294312	-0.153795	0.374213
O7	O	2.193430	-0.224192	0.444608
O8	O	2.381741	-0.105442	0.325862
O9	O	2.194325	0.019024	0.376924
O10	O	2.373490	-0.338084	0.381756
O11	O	2.373496	-0.161344	0.558503
O12	O	2.194318	-0.156500	0.201392
V13	V	2.555760	-0.175838	0.396256
O14	O	2.535282	0.008450	0.388713
O15	O	2.544144	-0.348658	0.393545
O16	O	2.544151	-0.173134	0.569077
O17	O	2.535275	-0.168290	0.211967
V18	V	2.794312	-0.153795	0.374213
O19	O	2.693430	-0.224192	0.444608
O20	O	2.881741	-0.105442	0.325862
O21	O	2.694325	0.019024	0.376924
O22	O	2.873490	-0.338084	0.381756
O23	O	2.873496	-0.161344	0.558503
O24	O	2.694318	-0.156500	0.201392
C25	C	1.969299	-0.390788	0.387294
C26	C	2.000528	-0.532071	0.386230
C27	C	1.923200	-0.591978	0.379397
C28	C	1.952550	-0.724728	0.378399
C29	C	2.136565	-0.737655	0.391074
C30	C	2.107212	-0.604905	0.392062
C31	C	1.816961	-0.584517	0.372085
C32	C	1.846312	-0.717267	0.371087
C33	C	1.969306	-0.166887	0.611201
C34	C	2.000539	-0.165819	0.752483
C35	C	2.100842	0.061148	0.383172
C36	C	2.059232	0.202429	0.384244
C37	C	2.100834	-0.162751	0.159262
C38	C	2.059220	-0.163812	0.017979
C39	C	2.469299	-0.390788	0.387294
C40	C	2.500528	-0.532071	0.386230
C41	C	2.469306	-0.166887	0.611201
C42	C	2.500539	-0.165819	0.752483
C43	C	2.107218	-0.171665	0.825332
C44	C	2.136558	-0.170657	0.958080
C45	C	1.952531	-0.157963	0.945120
C46	C	1.923190	-0.158961	0.812372
C47	C	2.600842	0.061148	0.383172
C48	C	2.559232	0.202429	0.384244
C49	C	2.600834	-0.162751	0.159262
C50	C	2.559220	-0.163812	0.017979
C51	C	2.607204	-0.604919	0.392070
C52	C	2.636544	-0.737670	0.391080
C53	C	2.452522	-0.724712	0.378404
C54	C	2.423185	-0.591965	0.379403
C55	C	2.607218	-0.171665	0.825332
C56	C	2.636558	-0.170657	0.958080
C57	C	2.452531	-0.157963	0.945120
C58	C	2.423190	-0.158961	0.812372
H59	H	2.223426	-0.796972	0.395818
H60	H	2.670202	-0.177247	0.776574
H61	H	2.223423	-0.175415	1.017388
O62	O	2.308114	-0.152635	0.733791
H63	H	2.300703	-0.154459	0.631419
O64	O	1.833445	-0.779653	0.485373
H65	H	1.856721	-0.884888	0.484503
H66	H	1.889561	-0.152382	0.993898
H67	H	1.836314	-0.154191	0.753055
O68	O	2.369103	-0.150780	1.009657
H69	H	2.296789	-0.060966	0.967542
H70	H	2.170179	-0.556132	0.397613
H71	H	1.745106	-0.531700	0.280193
O72	O	2.690635	-0.540334	0.399456
H73	H	2.659191	-0.466603	0.313187
H74	H	1.798726	-0.555394	0.462312
H75	H	1.798616	-0.741754	0.276316
O76	O	2.190631	-0.179034	0.760725
H77	H	2.269736	-0.182913	0.833687
O78	O	2.751602	-0.816235	0.397372
H79	H	2.759016	-0.918608	0.395543
O80	O	2.369102	-0.789309	0.371039
H81	H	2.407419	-0.893855	0.371317
O82	O	2.308121	-0.513377	0.373104
H83	H	2.259262	-0.577321	0.368170
H84	H	2.723423	-0.175415	1.017388
