data_functionalizedCrystal
_audit_creation_method	'MofGen! by Chris Wilmer'
_symmetry_space_group_name_H-M	'P1'
_symmetry_Int_Tables_number	1
_symmetry_cell_setting	triclinic
loop_
_symmetry_equiv_pos_as_xyz
  x,y,z
_cell_length_a	20.875790
_cell_length_b	14.628931
_cell_length_c	20.875658
_cell_angle_alpha	87.029986
_cell_angle_beta	60.179631
_cell_angle_gamma	61.734805
loop_
_atom_site_label
_atom_site_type_symbol
_atom_site_fract_x
_atom_site_fract_y
_atom_site_fract_z
Zr1	Zr	0.667533	0.933473	-0.049552
O2	O	0.794760	0.803974	-0.145374
O3	O	0.540304	0.967009	-0.024754
O4	O	0.667531	0.985792	-0.151973
O5	O	0.667535	0.777384	0.087404
O6	O	0.667531	1.136224	-0.151973
O7	O	0.667534	0.785191	-0.018155
O8	O	0.439945	1.102624	0.075599
O9	O	0.895121	0.810984	-0.140168
O10	O	0.592635	1.101023	-0.008648
O11	O	0.592637	0.982932	0.070128
O12	O	0.742430	1.005047	-0.079656
O13	O	0.742432	0.886955	-0.000879
Zr14	Zr	0.667535	1.160945	0.118802
Zr15	Zr	0.667532	1.173395	-0.049552
Zr16	Zr	0.667536	0.921024	0.118801
Zr17	Zr	0.827596	0.944654	-0.041250
Zr18	Zr	0.507472	1.149764	0.110499
O19	O	0.794764	1.127410	0.094003
O20	O	0.794760	1.145112	-0.145374
O21	O	0.794765	0.786272	0.094003
O22	O	0.540307	1.290445	0.214624
O23	O	0.540303	1.308147	-0.024753
O24	O	0.540308	0.949307	0.214623
O25	O	0.667533	1.317034	-0.018154
O26	O	0.667537	1.108627	0.221223
O27	O	0.667537	0.958194	0.221222
O28	O	0.667534	1.309228	0.087404
O29	O	0.895121	1.001690	-0.140168
O30	O	0.439947	1.092729	0.209418
O31	O	0.439947	1.283434	0.209418
O32	O	0.439944	1.293330	0.075600
O33	O	0.895123	0.801088	-0.006350
O34	O	0.895123	0.991794	-0.006350
O35	O	0.592638	1.089372	0.148906
O36	O	0.592636	1.207463	0.070129
O37	O	0.742431	1.111487	-0.000879
O38	O	0.742433	0.993396	0.077898
C39	C	0.467319	1.033224	0.024240
C40	C	0.399368	1.028477	0.020716
C41	C	0.312149	1.100939	0.074341
C42	C	0.248321	1.096430	0.071025
C43	C	0.271713	1.019464	0.014080
C44	C	0.358940	0.946995	-0.039548
C45	C	0.422766	0.951500	-0.036228
C46	C	0.086754	0.997977	-0.001774
C47	C	0.022918	0.993480	-0.005091
C48	C	-0.087696	1.142914	0.105483
C49	C	-0.023863	1.147416	0.108795
C50	C	0.063358	1.074943	0.055170
N51	N	0.206472	1.014856	0.010688
N52	N	0.128597	1.079547	0.058566
C53	C	0.667535	0.747104	0.034625
C54	C	0.667535	0.645251	0.034624
C55	C	0.593226	0.647452	0.069849
C56	C	0.593225	0.542183	0.069850
C57	C	0.867749	1.061195	0.045010
C58	C	0.935700	1.065942	0.048534
C59	C	0.667530	1.062782	-0.175960
C60	C	0.667529	1.068067	-0.247430
C61	C	0.667533	1.347315	0.034625
C62	C	0.667533	1.449168	0.034625
C63	C	0.667528	0.987679	-0.281009
C64	C	0.667534	0.992649	-0.348167
C65	C	0.667536	1.078011	-0.381741
C66	C	0.667540	1.158403	-0.348158
C67	C	0.667539	1.153429	-0.281005
C68	C	0.667542	1.101770	-0.582584
C69	C	0.667540	1.106739	-0.649741
C70	C	0.667536	0.940983	-0.649746
C71	C	0.667531	0.936020	-0.582588
C72	C	0.667539	1.016410	-0.549014
N73	N	0.667540	1.083094	-0.450386
N74	N	0.667542	1.011322	-0.480373
C75	C	0.667538	1.031637	0.245209
C76	C	0.667539	1.026351	0.316680
C77	C	0.467318	1.333329	0.024240
C78	C	0.399367	1.430436	0.020716
C79	C	0.467322	1.017651	0.234824
C80	C	0.399372	1.007619	0.302770
C81	C	0.467322	1.317757	0.234825
C82	C	0.399372	1.409578	0.302771
C83	C	0.867746	0.776662	-0.165575
C84	C	0.935696	0.684841	-0.233521
C85	C	0.867750	0.761089	0.045009
C86	C	0.935701	0.663983	0.048534
C87	C	0.867746	1.076768	-0.165575
C88	C	0.935695	1.086800	-0.233521
C89	C	0.367455	1.420478	-0.022067
C90	C	0.303617	1.511712	-0.025394
C91	C	0.271686	1.612903	0.014067
C92	C	0.303604	1.622859	0.056852
C93	C	0.367446	1.531626	0.060174
C94	C	0.367463	1.058468	0.375806
C95	C	0.303626	1.049038	0.439656
C96	C	0.271695	0.988765	0.430467
C97	C	0.303610	0.937909	0.357423
C98	C	0.367451	0.947334	0.293576
C99	C	0.367461	1.514351	0.293558
C100	C	0.303623	1.600637	0.357395
C101	C	0.271693	1.582147	0.430443
C102	C	0.303611	1.477364	0.439654
C103	C	0.367451	1.391080	0.375819
C104	C	0.967615	0.580069	-0.224308
C105	C	1.031472	0.493784	-0.288144
C106	C	1.063405	0.512274	-0.361191
C107	C	1.031484	0.617057	-0.370403
C108	C	0.967632	0.703339	-0.306568
C109	C	0.967619	0.673942	0.091310
C110	C	1.031475	0.582710	0.094619
C111	C	1.063408	0.481520	0.055156
C112	C	1.031488	0.471563	0.012374
C113	C	0.967637	0.562795	0.009061
C114	C	0.967606	1.147081	-0.224308
C115	C	1.031444	1.156528	-0.288144
C116	C	1.063374	1.105686	-0.361193
C117	C	1.031457	1.045402	-0.370404
C118	C	0.967616	1.035963	-0.306569
H119	H	-0.042920	1.210093	0.155164
H120	H	0.277604	1.462325	0.499138
O121	O	0.667536	1.188481	-0.546367
H122	H	0.667524	1.248679	-0.580991
O123	O	0.933199	0.970942	-0.316508
H124	H	0.945452	0.904907	-0.287247
O125	O	0.751806	0.539525	-0.005322
H126	H	0.806240	0.553925	-0.031121
H127	H	1.115358	1.113381	-0.413165
O128	O	0.933164	1.201936	-0.145524
H129	H	0.966078	1.245450	-0.149856
O130	O	1.132266	0.383134	0.058753
H131	H	1.190458	0.341183	0.000545
H132	H	1.057492	0.632099	-0.429886
O133	O	1.132284	0.419208	-0.430040
H134	H	1.149108	0.343250	-0.411354
H135	H	1.057454	0.590838	0.129459
O136	O	0.401873	0.892560	0.214777
H137	H	0.389596	0.953340	0.181627
O138	O	0.667535	0.843944	-0.546383
H139	H	0.725998	0.800260	-0.543498
H140	H	1.057497	0.389162	-0.019755
O141	O	0.401846	1.542380	0.106334
H142	H	0.451606	1.461948	0.102019
H143	H	-0.158716	1.201916	0.149143
O144	O	0.286919	1.183950	0.135762
H145	H	0.215545	1.233571	0.172498
O146	O	0.269160	0.872908	0.347524
H147	H	0.302072	0.839120	0.286011
O148	O	0.154248	1.174603	0.128850
H149	H	0.148706	1.228894	0.168994
O150	O	0.269195	1.713646	0.347451
H151	H	0.302114	1.711996	0.285930
H152	H	0.941651	0.554671	-0.025770
H153	H	0.277637	1.503585	-0.060233
H154	H	0.393425	1.305772	0.383330
O155	O	0.933188	0.560101	-0.145528
H156	H	0.862762	0.593549	-0.116620
O157	O	0.269154	1.732002	0.099420
H158	H	0.219392	1.793758	0.089925
O159	O	0.048146	0.910456	-0.066508
H160	H	0.119520	0.860810	-0.103235
O161	O	0.508954	0.753177	0.109790
H162	H	0.505267	0.795938	0.155017
H163	H	0.667546	1.227904	-0.375501
H164	H	1.057424	1.205615	-0.280629
O165	O	0.933231	0.816343	-0.316515
H166	H	0.883478	0.873247	-0.259859
H167	H	0.941624	0.756328	0.123452
O168	O	0.401895	1.534318	0.214778
H169	H	0.389633	1.495093	0.181575
O170	O	0.384164	0.863988	-0.100968
H171	H	0.422938	0.782932	-0.096092
H172	H	1.057452	0.408473	-0.280628
O173	O	0.202827	1.675214	0.499292
H174	H	0.185998	1.751172	0.480606
H175	H	0.667531	0.875533	-0.677089
O176	O	0.180821	0.919834	-0.059623
H177	H	0.186360	0.865574	-0.099784
O178	O	0.516842	0.873354	-0.094071
H179	H	0.522386	0.819086	-0.134232
H180	H	0.667541	1.176257	-0.677074
O181	O	0.508948	0.544466	0.109800
H182	H	0.522172	0.461425	0.103535
H183	H	1.057464	1.004010	-0.429888
O184	O	0.401900	1.123475	0.385726
H185	H	0.368985	1.157233	0.447244
H186	H	0.277647	1.090456	0.499125
O187	O	0.751798	0.446919	-0.005363
H188	H	0.755516	0.484953	0.036345
H189	H	0.219712	0.981099	0.482462
H190	H	0.667521	0.918172	-0.253675
O191	O	0.667592	0.905908	-0.384415
H192	H	0.667602	0.845708	-0.349792
H193	H	0.393453	1.338093	-0.054211
O194	O	0.667524	1.240138	-0.244769
H195	H	0.725982	1.243391	-0.285362
O196	O	0.202821	1.711301	0.010488
H197	H	0.185994	1.687365	-0.025887
