data_functionalizedCrystal
_audit_creation_method	'MofGen! by Chris Wilmer'
_symmetry_space_group_name_H-M	'P1'
_symmetry_Int_Tables_number	1
_symmetry_cell_setting	triclinic
loop_
_symmetry_equiv_pos_as_xyz
  x,y,z
_cell_length_a	18.050591
_cell_length_b	25.639239
_cell_length_c	25.639234
_cell_angle_alpha	90.021106
_cell_angle_beta	90.017008
_cell_angle_gamma	90.034692
loop_
_atom_site_label
_atom_site_type_symbol
_atom_site_fract_x
_atom_site_fract_y
_atom_site_fract_z
Zn1	Zn	1.135210	-0.208258	0.295704
Zn2	Zn	1.135106	-0.295680	0.208268
Zn3	Zn	1.011037	-0.208255	0.208272
Zn4	Zn	1.010954	-0.295658	0.295662
O5	O	1.073077	-0.251963	0.251977
O6	O	1.239121	-0.219865	0.284121
O7	O	1.118640	-0.284091	0.135103
O8	O	1.027587	-0.135090	0.219889
O9	O	1.239045	-0.284094	0.219882
O10	O	1.118816	-0.135092	0.284125
O11	O	1.027487	-0.219860	0.135106
O12	O	0.907102	-0.219838	0.219849
O13	O	1.027446	-0.284056	0.368833
O14	O	0.907041	-0.284053	0.284054
O15	O	1.118736	-0.219844	0.368863
O16	O	1.118559	-0.368843	0.219842
O17	O	1.027345	-0.368826	0.284050
C18	C	0.880125	-0.251943	0.251948
C19	C	0.797579	-0.251948	0.251948
C20	C	1.072952	-0.387805	0.251953
C21	C	1.072967	-0.445919	0.251960
C22	C	0.598140	-0.216987	0.217113
C23	C	0.548709	-0.264674	0.204245
C24	C	0.646449	-0.251963	0.251971
C25	C	0.548798	-0.204293	0.264838
C26	C	0.500464	-0.251975	0.251993
C27	C	0.598105	-0.299675	0.239078
C28	C	0.598198	-0.239263	0.299694
C29	C	0.548789	-0.286982	0.286843
C30	C	0.730547	-0.251956	0.251957
C31	C	0.416367	-0.251987	0.252007
C32	C	1.120696	-0.806278	0.218600
C33	C	1.120725	-0.860883	0.218607
O34	O	1.161176	-0.889116	0.190218
N35	N	1.073207	-0.888202	0.252011
C36	C	1.025664	-0.860914	0.285414
O37	O	0.985250	-0.889165	0.313828
C38	C	1.025639	-0.806310	0.285409
C39	C	1.073154	-0.778994	0.251999
C40	C	1.168208	-0.778962	0.185194
C41	C	1.168178	-0.724361	0.185186
C42	C	1.120636	-0.697077	0.218585
C43	C	1.073124	-0.724394	0.251992
C44	C	0.978100	-0.779023	0.318814
C45	C	0.978080	-0.724416	0.318807
C46	C	1.025595	-0.697100	0.285397
C47	C	1.025553	-0.642509	0.285383
N48	N	1.073070	-0.615190	0.251980
C49	C	1.120612	-0.642474	0.218581
C50	C	1.025720	-0.975584	0.285422
C51	C	1.025740	-1.030187	0.285425
C52	C	1.120802	-1.030152	0.218619
C53	C	1.120778	-0.975548	0.218614
C54	C	1.073237	-0.948265	0.252018
C55	C	1.120545	-0.527809	0.218567
C56	C	1.120508	-0.473204	0.218561
C57	C	1.025449	-0.473243	0.285369
C58	C	1.025482	-0.527844	0.285373
C59	C	1.073036	-0.555125	0.251970
O60	O	0.985124	-0.614241	0.313760
O61	O	1.161026	-0.614216	0.190177
C62	C	1.266783	-0.251983	0.252006
C63	C	1.349328	-0.251991	0.252018
C64	C	1.073093	-0.251948	0.388350
C65	C	1.073100	-0.251942	0.446464
C66	C	1.073223	-0.115590	0.252012
C67	C	1.073285	-0.057476	0.252027
C68	C	1.073104	-0.251940	0.116134
C69	C	1.073241	-0.251799	0.058020
C70	C	1.025614	-0.285311	0.697636
C71	C	1.025601	-0.285323	0.643031
O72	O	0.985157	-0.313747	0.614776
N73	N	1.073128	-0.251899	0.615738
C74	C	1.120665	-0.218458	0.643051
O75	O	1.161088	-0.190029	0.614822
C76	C	1.120674	-0.218444	0.697654
C77	C	1.073150	-0.251874	0.724945
C78	C	0.978093	-0.318738	0.724926
C79	C	0.978108	-0.318727	0.779527
C80	C	1.025643	-0.285289	0.806837
C81	C	1.073164	-0.251862	0.779546
C82	C	1.168207	-0.185000	0.724967
C83	C	1.168211	-0.184989	0.779574
C84	C	1.120687	-0.218419	0.806865
C85	C	1.120713	-0.218413	0.861456
N86	N	1.073187	-0.251837	0.888750
C87	C	1.025652	-0.285275	0.861440
C88	C	1.120642	-0.218489	0.528380
C89	C	1.120638	-0.218506	0.473778
C90	C	1.025573	-0.285370	0.473762
C91	C	1.025582	-0.285356	0.528365
C92	C	1.073116	-0.251913	0.555674
C93	C	1.025685	-0.285249	0.976105
C94	C	1.025706	-0.285236	1.030711
C95	C	1.120768	-0.218370	1.030722
C96	C	1.120750	-0.218385	0.976121
C97	C	1.073203	-0.251826	0.948814
O98	O	1.161135	-0.190002	0.889746
O99	O	0.985228	-0.313694	0.889676
H100	H	0.619808	-0.187440	0.187603
H101	H	0.939404	-0.801255	0.346018
Br102	Br	1.232739	-0.815980	0.139861
Br103	Br	0.512479	-0.282594	0.136996
Br104	Br	0.913607	-0.364098	0.816556
Br105	Br	1.184996	-0.436135	0.173215
H106	H	0.619952	-0.228497	0.340030
H107	H	1.159454	-0.191167	0.953900
H108	H	1.206871	-0.702124	0.157983
Br109	Br	0.913571	-0.364123	0.687874
H110	H	1.159469	-0.953311	0.191409
Br111	Br	0.961189	-0.938563	0.330758
Br112	Br	1.185169	-0.173104	0.565437
Br113	Br	0.913559	-0.687392	0.364146
Br114	Br	0.961209	-0.330611	1.067745
Br115	Br	0.961062	-0.330752	0.436688
H116	H	0.986961	-0.312475	0.953878
H117	H	1.159516	-1.052376	0.191425
Br118	Br	0.634049	-0.366896	0.220877
Br119	Br	0.961082	-0.330726	0.565397
H120	H	0.986739	-0.451020	0.312560
Br121	Br	1.185150	-0.173144	0.436747
H122	H	0.527257	-0.316599	0.316331
H123	H	0.527099	-0.163980	0.275694
H124	H	0.987041	-1.052423	0.312625
H125	H	1.159269	-0.550015	0.191369
H126	H	0.986794	-0.550086	0.312579
H127	H	1.206907	-0.157779	0.702756
H128	H	1.206917	-0.157753	0.801806
Br129	Br	1.185279	-0.172994	1.067796
