data_functionalizedCrystal
_audit_creation_method	'MofGen! by Chris Wilmer'
_symmetry_space_group_name_H-M	'P1'
_symmetry_Int_Tables_number	1
_symmetry_cell_setting	triclinic
loop_
_symmetry_equiv_pos_as_xyz
  x,y,z
_cell_length_a	10.654556
_cell_length_b	13.930277
_cell_length_c	10.654550
_cell_angle_alpha	89.995178
_cell_angle_beta	84.486234
_cell_angle_gamma	90.005020
loop_
_atom_site_label
_atom_site_type_symbol
_atom_site_fract_x
_atom_site_fract_y
_atom_site_fract_z
O1	O	1.667842	0.079794	0.176419
O2	O	1.302365	0.079804	0.193217
O3	O	1.493506	0.079793	0.002079
O4	O	1.476700	0.079806	0.367557
O5	O	1.493478	-0.079869	0.002109
O6	O	1.302337	-0.079858	0.193246
O7	O	1.667814	-0.079868	0.176449
Zn8	Zn	1.485071	-0.105212	0.184852
Zn9	Zn	1.485108	0.105149	0.184814
O10	O	1.476672	-0.079856	0.367587
C11	C	1.255553	-0.000026	0.191997
C12	C	1.116110	-0.000022	0.188302
N13	N	1.485055	-0.248778	0.184878
C14	C	0.919580	0.087002	0.183083
C15	C	1.050602	0.087008	0.186547
C16	C	1.050590	-0.087064	0.186579
C17	C	0.919571	-0.087069	0.183106
C18	C	1.561955	-0.701037	0.261673
C19	C	1.408299	-0.701028	0.107903
C20	C	1.408280	-0.600532	0.107924
C21	C	1.485101	-0.550284	0.184818
C22	C	1.561941	-0.600532	0.261693
C23	C	1.331451	-0.550277	0.031041
C24	C	1.331430	-0.449775	0.031057
C25	C	1.408245	-0.399525	0.107959
C26	C	1.485088	-0.449779	0.184838
C27	C	1.561909	-0.399531	0.261733
C28	C	1.638745	-0.449783	0.338619
C29	C	1.638757	-0.550282	0.338595
C30	C	1.408234	-0.299026	0.107983
C31	C	1.561895	-0.299026	0.261752
C32	C	1.714626	-0.000036	0.177669
C33	C	1.854069	-0.000033	0.181364
C34	C	1.492258	-0.000037	-0.044704
C35	C	1.488567	-0.000036	-0.184147
N36	N	1.485134	0.248715	0.184778
C37	C	1.601108	-0.000038	-0.263630
C38	C	1.597631	-0.000027	-0.394651
C39	C	1.369063	-0.000014	-0.366693
C40	C	1.372540	-0.000018	-0.235675
C41	C	1.477920	-0.000024	0.414370
C42	C	1.481612	-0.000019	0.553813
H43	H	1.103936	0.157881	0.187945
C44	C	0.847531	0.182737	0.181164
H45	H	0.905319	0.234572	0.182675
H46	H	0.787484	0.186356	0.252919
H47	H	0.805360	0.186353	0.106693
C48	C	1.122645	-0.182795	0.188512
H49	H	1.210056	-0.170328	0.190840
H50	H	1.110114	-0.218564	0.114844
H51	H	1.092225	-0.218549	0.261070
C52	C	0.847504	-0.182812	0.181219
H53	H	0.905275	-0.234647	0.182772
H54	H	0.805332	-0.186435	0.106757
H55	H	0.787454	-0.186425	0.252984
H56	H	1.274598	-0.000001	-0.408664
C57	C	1.728730	-0.000047	-0.206953
H58	H	1.795257	-0.000038	-0.273060
H59	H	1.734832	-0.055726	-0.156420
H60	H	1.734846	0.055637	-0.156430
C61	C	1.248739	-0.000018	-0.148238
H62	H	1.179140	-0.000021	-0.197689
H63	H	1.245358	0.055657	-0.096549
H64	H	1.245338	-0.055705	-0.096545
H65	H	1.624447	-0.258121	0.324376
C66	C	1.721427	-0.000036	-0.482078
H67	H	1.791021	-0.000054	-0.432620
H68	H	1.724841	0.055644	-0.533773
H69	H	1.724804	-0.055719	-0.533764
H70	H	1.701299	-0.408859	0.401221
H71	H	1.701316	-0.591207	0.401189
H72	H	1.624510	-0.741957	0.324275
C73	C	1.323733	-0.243749	0.023417
H74	H	1.334731	-0.176698	0.034436
H75	H	1.238008	-0.260235	0.045935
H76	H	1.346346	-0.260200	-0.062305
H77	H	1.268918	-0.591196	-0.031573
H78	H	1.345763	-0.741946	0.045291
H79	H	1.268864	-0.408868	-0.031547
