data_functionalizedCrystal
_audit_creation_method	'MofGen! by Chris Wilmer'
_symmetry_space_group_name_H-M	'P1'
_symmetry_Int_Tables_number	1
_symmetry_cell_setting	triclinic
loop_
_symmetry_equiv_pos_as_xyz
  x,y,z
_cell_length_a	14.044220
_cell_length_b	14.519709
_cell_length_c	13.596369
_cell_angle_alpha	90.006934
_cell_angle_beta	89.995243
_cell_angle_gamma	91.565489
loop_
_atom_site_label
_atom_site_type_symbol
_atom_site_fract_x
_atom_site_fract_y
_atom_site_fract_z
O1	O	1.258085	-0.222370	-0.081793
O2	O	0.982102	-0.214346	-0.081795
O3	O	1.127410	-0.084710	-0.081785
O4	O	1.112776	-0.352006	-0.081803
O5	O	1.127396	-0.084701	0.081798
O6	O	0.982087	-0.214337	0.081787
O7	O	1.258070	-0.222361	0.081790
Zn8	Zn	1.120076	-0.218348	0.107761
Zn9	Zn	1.120095	-0.218359	-0.107767
O10	O	1.112761	-0.351997	0.081780
C11	C	1.126721	-0.050290	0.000006
C12	C	1.124677	0.052256	0.000007
C13	C	0.946774	-0.210829	-0.000004
C14	C	0.841531	-0.200352	-0.000005
C15	C	1.293398	-0.225878	-0.000004
C16	C	1.398641	-0.236355	-0.000009
C17	C	1.591335	-0.255510	-0.000010
C18	C	1.648842	-0.181201	-0.000005
C19	C	1.756064	-0.191859	-0.000005
C20	C	1.484104	-0.244853	-0.000010
C21	C	1.113451	-0.386417	-0.000014
C22	C	1.115494	-0.488963	-0.000021
N23	N	1.120070	-0.218340	0.254853
C24	C	1.117153	0.427758	-0.000019
C25	C	1.119243	0.323282	-0.000011
C26	C	1.120915	0.240010	-0.000005
C27	C	1.123005	0.135527	0.000000
N28	N	1.120109	-0.218360	-0.254858
C29	C	1.120094	-0.218360	0.656144
C30	C	1.120085	-0.218357	0.544492
C31	C	1.120083	-0.218351	0.455502
C32	C	1.120072	-0.218347	0.343843
H33	H	1.622626	-0.327125	-0.000015
O34	O	1.611676	-0.095687	0.000036
C35	C	1.686264	-0.028690	0.000010
H36	H	1.753532	-0.059959	0.030984
H37	H	1.665391	0.032245	0.047497
H38	H	1.700181	-0.004181	-0.078471
