data_functionalizedCrystal
_audit_creation_method	'MofGen! by Chris Wilmer'
_symmetry_space_group_name_H-M	'P1'
_symmetry_Int_Tables_number	1
_symmetry_cell_setting	triclinic
loop_
_symmetry_equiv_pos_as_xyz
  x,y,z
_cell_length_a	19.805407
_cell_length_b	19.121063
_cell_length_c	19.805399
_cell_angle_alpha	92.411105
_cell_angle_beta	89.982197
_cell_angle_gamma	92.466276
loop_
_atom_site_label
_atom_site_type_symbol
_atom_site_fract_x
_atom_site_fract_y
_atom_site_fract_z
Zn1	Zn	1.023232	-0.279680	-0.394173
Zn2	Zn	1.523232	0.220320	0.105827
Zn3	Zn	1.018315	-0.397133	-0.285808
Zn4	Zn	1.518315	0.102867	0.214192
Zn5	Zn	0.910046	-0.279694	-0.281002
Zn6	Zn	1.410046	0.220306	0.218998
Zn7	Zn	0.905180	-0.397090	-0.398957
Zn8	Zn	1.405180	0.102910	0.101043
O9	O	0.964193	-0.338399	-0.339985
O10	O	1.464193	0.161601	0.160015
O11	O	1.117296	-0.295273	-0.379808
O12	O	1.617296	0.204727	0.120192
O13	O	1.003932	-0.381578	-0.190455
O14	O	1.503932	0.118422	0.309545
O15	O	0.929154	-0.181408	-0.292001
O16	O	1.429154	0.318592	0.207999
O17	O	1.113684	-0.381564	-0.300193
O18	O	1.613684	0.118436	0.199807
O19	O	1.012311	-0.181398	-0.375147
O20	O	1.512311	0.318602	0.124853
O21	O	0.924387	-0.295296	-0.186924
O22	O	1.424387	0.204704	0.313076
O23	O	0.814684	-0.295255	-0.296639
O24	O	1.314684	0.204745	0.203361
O25	O	0.920862	-0.381491	-0.493038
O26	O	1.420862	0.118509	0.006962
O27	O	0.811110	-0.381505	-0.383300
O28	O	1.311110	0.118495	0.116700
O29	O	1.007593	-0.295231	-0.489523
O30	O	1.507593	0.204769	0.010477
O31	O	0.999214	-0.495411	-0.304831
O32	O	1.499214	0.004589	0.195169
O33	O	0.916094	-0.495380	-0.387961
O34	O	1.416094	0.004620	0.112039
C35	C	0.788338	-0.338377	-0.339968
C36	C	1.288338	0.161623	0.160032
C37	C	0.713106	-0.338385	-0.339977
C38	C	1.213106	0.161615	0.160023
C39	C	0.679640	-0.293532	-0.381502
C40	C	1.179640	0.206468	0.118498
C41	C	0.608951	-0.293536	-0.381505
C42	C	1.108951	0.206464	0.118495
C43	C	0.571730	-0.338396	-0.339986
C44	C	1.071730	0.161604	0.160014
C45	C	0.605201	-0.383251	-0.298456
C46	C	1.105201	0.116749	0.201544
C47	C	0.675888	-0.383243	-0.298450
C48	C	1.175888	0.116757	0.201550
C49	C	0.320126	-0.383282	-0.298478
C50	C	0.820126	0.116718	0.201522
C51	C	0.249434	-0.383288	-0.298489
C52	C	0.749434	0.116712	0.201511
C53	C	0.253189	-0.293575	-0.381532
C54	C	0.753189	0.206425	0.118468
C55	C	0.323877	-0.293567	-0.381527
C56	C	0.823877	0.206433	0.118473
C57	C	0.357342	-0.338419	-0.339995
C58	C	0.857342	0.161581	0.160005
C59	C	0.433990	-0.338414	-0.339991
C60	C	0.933990	0.161586	0.160009
C61	C	0.495082	-0.338406	-0.339992
C62	C	0.995082	0.161594	0.160008
C63	C	0.956611	-0.520880	-0.347452
C64	C	1.456611	-0.020880	0.152548
C65	C	0.953430	-0.598946	-0.350668
C66	C	1.453430	-0.098946	0.149332
C67	C	0.995244	-0.635614	-0.308934
C68	C	1.495244	-0.135614	0.191066
C69	C	0.992256	-0.708966	-0.311964
C70	C	1.492256	-0.208966	0.188036
C71	C	0.947449	-0.745647	-0.356724
C72	C	1.447449	-0.245647	0.143276
C73	C	0.905632	-0.708973	-0.398463
C74	C	1.405632	-0.208973	0.101537
C75	C	0.908625	-0.635623	-0.395436
C76	C	1.408625	-0.135623	0.104564
C77	C	0.936251	-0.967116	-0.368029
C78	C	1.436251	-0.467116	0.131971
C79	C	0.933260	-1.040472	-0.371051
C80	C	1.433260	-0.540472	0.128949
C81	C	1.019885	-1.040459	-0.284552
C82	C	1.519885	-0.540459	0.215448
C83	C	1.022870	-0.967108	-0.281527
C84	C	1.522870	-0.467108	0.218473
C85	C	0.981056	-0.930440	-0.323268
C86	C	1.481056	-0.430440	0.176732
C87	C	0.944392	-0.820624	-0.359820
C88	C	1.444392	-0.320624	0.140180
C89	C	0.984117	-0.855465	-0.320175
C90	C	1.484117	-0.355465	0.179825
C91	C	1.140735	-0.338422	-0.340003
C92	C	1.640735	0.161578	0.159997
C93	C	1.215967	-0.338431	-0.340011
C94	C	1.715967	0.161569	0.159989
C95	C	0.964233	-0.338355	-0.516526
C96	C	1.464233	0.161645	-0.016526
C97	C	0.964250	-0.338336	-0.591757
C98	C	1.464250	0.161664	-0.091757
C99	C	0.971823	-0.155206	-0.332504
C100	C	1.471823	0.344794	0.167496
C101	C	0.975075	-0.077140	-0.329316
C102	C	1.475075	0.422860	0.170684
C103	C	1.009412	-0.293418	-0.625272
C104	C	1.509412	0.206582	-0.125272
C105	C	1.009420	-0.293398	-0.695960
C106	C	1.509420	0.206602	-0.195960
C107	C	0.964268	-0.338299	-0.733131
C108	C	1.464268	0.161701	-0.233131
C109	C	0.919101	-0.383219	-0.699611
C110	C	1.419101	0.116781	-0.199611
C111	C	0.919091	-0.383236	-0.628925
C112	C	1.419091	0.116764	-0.128925
C113	C	0.919142	-0.383154	-0.984682
C114	C	1.419142	0.116846	-0.484682
C115	C	0.919158	-0.383136	-1.055374
C116	C	1.419158	0.116864	-0.555374
C117	C	1.009472	-0.293316	-1.051717
C118	C	1.509472	0.206684	-0.551717
C119	C	1.009461	-0.293332	-0.981031
C120	C	1.509461	0.206668	-0.481031
C121	C	0.964292	-0.338249	-0.947517
C122	C	1.464292	0.161751	-0.447517
C123	C	0.964283	-0.338270	-0.870869
C124	C	1.464283	0.161730	-0.370869
C125	C	0.964280	-0.338283	-0.809778
C126	C	1.464280	0.161717	-0.309778
C127	C	0.964195	-0.338393	-0.164129
C128	C	1.464195	0.161607	0.335871
C129	C	0.964317	-0.338214	-0.088890
C130	C	1.464317	0.161786	0.411110
H131	H	0.581706	-0.257014	-0.415320
H132	H	1.081706	0.242986	0.084680
O133	O	1.071200	-0.927555	-0.233244
O134	O	1.571200	-0.427555	0.266756
H135	H	1.042284	-0.894194	-0.197399
H136	H	1.542284	-0.394194	0.302601
O137	O	1.058116	-0.244987	-0.585187
O138	O	1.558116	0.255013	-0.085187
H139	H	1.091243	-0.276435	-0.554278
H140	H	1.591243	0.223565	-0.054278
H141	H	1.046248	-0.256740	-1.079013
H142	H	1.546248	0.243260	-0.579013
H143	H	1.046197	-0.256823	-0.723245
H144	H	1.546197	0.243177	-0.223245
H145	H	0.902203	-0.937268	-0.402015
H146	H	1.402203	-0.437268	0.097985
O147	O	1.037354	-0.748517	-0.266949
O148	O	1.537354	-0.248517	0.233051
H149	H	1.026340	-0.734491	-0.213238
H150	H	1.526340	-0.234491	0.286762
H151	H	0.882387	-0.419701	-1.085637
H152	H	1.382387	0.080299	-0.585637
H153	H	0.874575	-0.605768	-0.429421
H154	H	1.374575	-0.105768	0.070579
O155	O	0.719786	-0.245143	-0.426279
O156	O	1.219786	0.254857	0.073721
H157	H	0.684636	-0.213948	-0.455147
H158	H	1.184636	0.286052	0.044853
H159	H	1.046230	-0.256771	-0.950769
H160	H	1.546230	0.243229	-0.450769
O161	O	1.032448	-0.815899	-0.271906
O162	O	1.532448	-0.315899	0.228094
H163	H	1.020301	-0.830018	-0.219353
H164	H	1.520301	-0.330018	0.280647
H165	H	0.219130	-0.419821	-0.264677
H166	H	0.719130	0.080179	0.235323
O167	O	0.217091	-0.245193	-0.426323
O168	O	0.717091	0.254807	0.073677
H169	H	0.254850	-0.214005	-0.455197
H170	H	0.754850	0.285995	0.044803
O171	O	0.884925	-1.080042	-0.419323
O172	O	1.384925	-0.580042	0.080677
H173	H	0.913835	-1.113424	-0.455154
H174	H	1.413835	-0.613424	0.044846
O175	O	1.065003	-1.080005	-0.239552
O176	O	1.565003	-0.580005	0.260448
H177	H	1.055406	-1.137172	-0.249183
H178	H	1.555406	-0.637172	0.250817
H179	H	0.354179	-0.257040	-0.415338
H180	H	0.854179	0.242960	0.084662
H181	H	0.869152	-0.738845	-0.434911
H182	H	1.369152	-0.238845	0.065089
H183	H	0.907908	-0.850498	-0.396263
H184	H	1.407908	-0.350498	0.103737
H185	H	0.882372	-0.419738	-0.957404
H186	H	1.382372	0.080262	-0.457404
O187	O	0.870396	-0.431647	-0.739698
O188	O	1.370396	0.068353	-0.239698
H189	H	0.877993	-0.424094	-0.794482
H190	H	1.377993	0.075906	-0.294482
H191	H	0.882308	-0.419805	-0.601638
H192	H	1.382308	0.080195	-0.101638
H193	H	0.703135	-0.419766	-0.264636
H194	H	1.203135	0.080234	0.235364
O195	O	0.356217	-0.431653	-0.253684
O196	O	0.856217	0.068347	0.246316
H197	H	0.318457	-0.462850	-0.224819
H198	H	0.818457	0.037150	0.275181
H199	H	0.574890	-0.419773	-0.264647
H200	H	1.074890	0.080227	0.235353
O201	O	1.043575	-0.596051	-0.260659
O202	O	1.543575	-0.096051	0.239341
H203	H	1.072155	-0.633876	-0.232154
H204	H	1.572155	-0.133876	0.267846
