data_functionalizedCrystal
_audit_creation_method	'MofGen! by Chris Wilmer'
_symmetry_space_group_name_H-M	'P1'
_symmetry_Int_Tables_number	1
_symmetry_cell_setting	triclinic
loop_
_symmetry_equiv_pos_as_xyz
  x,y,z
_cell_length_a	8.634740
_cell_length_b	8.597275
_cell_length_c	15.455313
_cell_angle_alpha	100.403906
_cell_angle_beta	93.096975
_cell_angle_gamma	87.120053
loop_
_atom_site_label
_atom_site_type_symbol
_atom_site_fract_x
_atom_site_fract_y
_atom_site_fract_z
O1	O	-2.056933	0.510100	-0.034027
O2	O	-1.607632	0.466832	-0.037257
O3	O	-1.842713	0.259952	-0.052718
O4	O	-1.821852	0.716979	-0.018566
O5	O	-1.829269	0.271725	0.092424
O6	O	-1.594188	0.478605	0.107885
O7	O	-2.043489	0.521873	0.111115
Cu8	Cu	-1.817611	0.501314	0.122753
Cu9	Cu	-1.833510	0.487391	-0.048894
O10	O	-1.808408	0.728752	0.126576
C11	C	-1.543381	0.462917	0.034582
C12	C	-1.371962	0.433691	0.032399
C13	C	-1.834500	0.206722	0.015434
C14	C	-1.830039	0.030568	0.002265
C15	C	-1.107740	0.525788	0.039277
C16	C	-1.279159	0.555013	0.041462
C17	C	-1.816621	0.781983	0.058423
C18	C	-1.821083	0.958136	0.071586
N19	N	-1.806440	0.511107	0.243480
N20	N	-1.844693	0.477587	-0.169623
C21	C	-1.906346	0.423261	0.282309
C22	C	-1.897913	0.430684	0.373672
C23	C	-1.789579	0.525963	0.426205
C24	C	-1.689663	0.613812	0.387369
C25	C	-1.698090	0.606380	0.296008
C26	C	-1.753203	0.558003	0.700180
C27	C	-1.744787	0.565433	0.791548
C28	C	-1.953036	0.382301	0.777844
C29	C	-1.961460	0.374884	0.686482
C30	C	-1.861538	0.462727	0.647654
N31	N	-1.780959	0.533557	0.519592
N32	N	-1.870151	0.455124	0.554267
H33	H	-1.834296	-0.042182	-0.067155
N34	N	-1.815470	0.054494	0.163549
H35	H	-1.819568	0.170896	0.160238
H36	H	-1.715990	0.026713	0.195837
N37	N	-1.347601	0.722226	0.053952
H38	H	-1.307115	0.783670	0.112019
H39	H	-1.464451	0.719975	0.053754
H40	H	-1.320269	0.307453	0.022941
N41	N	-2.023202	0.320505	0.225653
H42	H	-2.085209	0.265980	0.264118
H43	H	-1.967035	0.238418	0.181854
H44	H	-1.979263	0.359151	0.405285
H45	H	-2.049673	0.297301	0.643711
N46	N	-2.060802	0.287560	0.819722
H47	H	-2.039030	0.306721	0.885570
H48	H	-2.043540	0.171262	0.795168
H49	H	-1.656564	0.643027	0.834318
H50	H	-1.671846	0.629532	0.668575
N51	N	-1.572804	0.716567	0.444024
H52	H	-1.582626	0.707951	0.507794
H53	H	-1.593006	0.830267	0.436637
H54	H	-1.616734	0.677911	0.264394
