data_functionalizedCrystal
_audit_creation_method	'MofGen! by Chris Wilmer'
_symmetry_space_group_name_H-M	'P1'
_symmetry_Int_Tables_number	1
_symmetry_cell_setting	triclinic
loop_
_symmetry_equiv_pos_as_xyz
  x,y,z
_cell_length_a	14.044191
_cell_length_b	10.723024
_cell_length_c	9.198806
_cell_angle_alpha	89.996352
_cell_angle_beta	89.999488
_cell_angle_gamma	91.170177
loop_
_atom_site_label
_atom_site_type_symbol
_atom_site_fract_x
_atom_site_fract_y
_atom_site_fract_z
O1	O	-0.133040	1.670502	-0.120871
O2	O	0.200293	2.003836	0.212462
O3	O	0.533627	2.337169	0.545796
O4	O	-0.145775	1.308624	-0.120875
O5	O	0.187559	1.641958	0.212458
O6	O	0.520892	1.975291	0.545792
O7	O	-0.001387	1.484127	-0.120876
O8	O	0.331946	1.817460	0.212458
O9	O	0.665279	2.150794	0.545791
O10	O	-0.277427	1.495000	-0.120870
O11	O	0.055906	1.828333	0.212463
O12	O	0.389239	2.161666	0.545797
O13	O	-0.001387	1.484112	0.120909
O14	O	0.331947	1.817445	0.454243
O15	O	0.665280	2.150779	0.787576
O16	O	-0.145774	1.308609	0.120910
O17	O	0.187559	1.641943	0.454244
O18	O	0.520892	1.975276	0.787577
O19	O	-0.133040	1.670487	0.120914
O20	O	0.200294	2.003821	0.454247
O21	O	0.533627	2.337154	0.787581
Cu22	Cu	-0.139407	1.489547	0.142989
Cu23	Cu	0.193926	1.822880	0.476322
Cu24	Cu	0.527260	2.156214	0.809656
Cu25	Cu	-0.139407	1.489565	-0.142950
Cu26	Cu	0.193926	1.822898	0.190383
Cu27	Cu	0.527259	2.156231	0.523717
O28	O	-0.277427	1.494985	0.120915
O29	O	0.055906	1.828318	0.454248
O30	O	0.389240	2.161651	0.787582
C31	C	-0.144848	1.262025	0.000017
C32	C	0.188486	1.595358	0.333350
C33	C	0.521819	1.928691	0.666684
C34	C	-0.142075	1.123193	0.000015
C35	C	0.191258	1.456526	0.333348
C36	C	0.524592	1.789859	0.666682
C37	C	-0.222867	1.056296	0.000016
C38	C	0.110467	1.389629	0.333349
C39	C	0.443800	1.722962	0.666682
C40	C	-0.220003	0.912806	0.000014
C41	C	0.113331	1.246139	0.333347
C42	C	0.446664	1.579472	0.666680
C43	C	-0.312773	1.499749	0.000023
C44	C	0.020561	1.833082	0.333356
C45	C	0.353894	2.166415	0.666690
C46	C	-0.418091	1.513937	0.000025
C47	C	-0.084758	1.847270	0.333358
C48	C	0.248576	2.180603	0.666692
C49	C	-0.667892	1.439251	0.000011
C50	C	-0.334558	1.772584	0.333345
C51	C	-0.001225	2.105918	0.666678
C52	C	-0.610917	1.539855	0.000015
C53	C	-0.277584	1.873188	0.333348
C54	C	0.055750	2.206522	0.666682
C55	C	-0.503619	1.525431	0.000021
C56	C	-0.170285	1.858764	0.333354
C57	C	0.163048	2.192097	0.666687
C58	C	-0.775200	1.453674	0.000006
C59	C	-0.441867	1.787007	0.333339
C60	C	-0.108533	2.120340	0.666673
C61	C	0.033958	1.479363	0.000013
C62	C	0.367292	1.812696	0.333346
C63	C	0.700625	2.146030	0.666680
C64	C	0.139277	1.465175	0.000001
C65	C	0.472610	1.798508	0.333335
C66	C	0.805943	2.131842	0.666668
C67	C	-0.133967	1.717087	0.000019
C68	C	0.199367	2.050420	0.333352
C69	C	0.532700	2.383754	0.666686
C70	C	-0.136739	1.855919	0.000011
C71	C	0.196594	2.189252	0.333345
C72	C	0.529927	2.522586	0.666678
N73	N	-0.139406	1.489543	0.344103
N74	N	0.193927	1.822877	0.677436
N75	N	0.527261	2.156210	1.010770
N76	N	-0.139401	1.489577	-0.344064
N77	N	0.193933	1.822911	-0.010730
N78	N	0.527266	2.156244	0.322603
C79	C	-0.078515	1.563205	0.416300
C80	C	0.254819	1.896538	0.749633
C81	C	0.588152	2.229872	1.082966
C82	C	-0.078511	1.563224	0.583712
C83	C	0.254822	1.896557	0.917045
C84	C	0.588155	2.229891	1.250379
H85	H	-0.070786	1.074236	-0.000024
H86	H	0.262547	1.407569	0.333310
H87	H	0.595880	1.740903	0.666643
H88	H	-0.191532	1.426488	0.406231
H89	H	0.141802	1.759821	0.739565
H90	H	0.475135	2.093154	1.072898
H91	H	-0.191539	1.426514	0.593860
H92	H	0.141795	1.759847	0.927193
H93	H	0.475128	2.093181	1.260526
F94	F	-0.046329	0.931077	-0.000000
F95	F	0.287004	1.264411	0.333333
F96	F	0.620337	1.597744	0.666667
H97	H	-0.294155	1.105252	0.000026
H98	H	0.039178	1.438586	0.333359
H99	H	0.372511	1.771919	0.666692
H100	H	-0.026381	1.626252	0.354173
H101	H	0.306952	1.959585	0.687506
H102	H	0.640285	2.292918	1.020840
F103	F	-0.626322	1.312521	0.000012
F104	F	-0.292988	1.645855	0.333345
F105	F	0.040345	1.979188	0.666679
F106	F	-0.310409	0.837640	0.000004
F107	F	0.022925	1.170973	0.333337
F108	F	0.356258	1.504306	0.666671
F109	F	-0.652487	1.666594	0.000018
F110	F	-0.319153	1.999927	0.333351
F111	F	0.014180	2.333261	0.666685
F112	F	-0.010374	1.645664	0.664859
F113	F	0.322960	1.978997	0.998193
F114	F	0.656293	2.312330	1.331526
