data_functionalizedCrystal
_audit_creation_method	'MofGen! by Chris Wilmer'
_symmetry_space_group_name_H-M	'P1'
_symmetry_Int_Tables_number	1
_symmetry_cell_setting	triclinic
loop_
_symmetry_equiv_pos_as_xyz
  x,y,z
_cell_length_a	9.065215
_cell_length_b	14.971486
_cell_length_c	13.448316
_cell_angle_alpha	90.006811
_cell_angle_beta	89.993713
_cell_angle_gamma	95.685587
loop_
_atom_site_label
_atom_site_type_symbol
_atom_site_fract_x
_atom_site_fract_y
_atom_site_fract_z
O1	O	1.957749	-0.131143	-0.082683
O2	O	1.528245	-0.141904	-0.082687
O3	O	1.754509	-0.006409	-0.082678
O4	O	1.731485	-0.266638	-0.082692
O5	O	1.754481	-0.006401	0.082706
O6	O	1.528217	-0.141895	0.082697
O7	O	1.957721	-0.131135	0.082701
Cu8	Cu	1.742966	-0.136514	0.097799
Cu9	Cu	1.743000	-0.136524	-0.097786
O10	O	1.731457	-0.266629	0.082691
C11	C	1.473265	-0.140866	0.000004
C12	C	1.309485	-0.137776	0.000003
C13	C	1.753465	0.026928	0.000014
C14	C	1.750380	0.126248	0.000013
C15	C	2.012700	-0.132173	0.000007
C16	C	2.176481	-0.135263	0.000002
C17	C	1.732501	-0.299966	-0.000002
C18	C	1.735586	-0.399286	-0.000008
N19	N	1.742953	-0.136506	0.235364
C20	C	1.883303	0.182483	0.000015
C21	C	1.880395	0.275804	0.000005
C22	C	1.744562	0.312888	-0.000000
C23	C	1.611628	0.256645	-0.000005
C24	C	1.614538	0.163326	-0.000002
C25	C	1.605573	0.451153	-0.000009
C26	C	1.602663	0.544479	-0.000010
C27	C	1.871431	0.563631	-0.000002
C28	C	1.874340	0.470312	0.000001
C29	C	1.741406	0.414075	-0.000002
N30	N	1.743024	-0.136525	-0.235350
C31	C	1.843174	-0.076535	0.287408
C32	C	1.843183	-0.076534	0.391511
C33	C	1.742978	-0.136510	0.443568
C34	C	1.642746	-0.196485	0.391517
C35	C	1.642731	-0.196480	0.287415
C36	C	1.642787	-0.196491	0.608497
C37	C	1.642804	-0.196497	0.712605
C38	C	1.843239	-0.076545	0.712593
C39	C	1.843224	-0.076540	0.608492
C40	C	1.742994	-0.136516	0.556447
H41	H	1.988635	0.321588	0.000008
H42	H	1.501030	0.286846	-0.000015
C43	C	2.041385	0.042015	0.702119
C44	C	1.953421	-0.010620	0.769795
H45	H	2.109414	0.082704	0.737438
H46	H	1.979926	0.074716	0.661535
H47	H	2.094489	0.004318	0.661498
H48	H	1.900308	0.027077	0.810411
H49	H	2.014888	-0.043323	0.810396
C50	C	2.148674	0.210797	0.000005
C51	C	2.032618	0.141725	0.000013
H52	H	2.240855	0.185635	-0.000006
H53	H	2.141945	0.246800	0.057675
H54	H	2.141939	0.246792	-0.057672
H55	H	2.039347	0.105735	0.057694
H56	H	2.039350	0.105708	-0.057663
C57	C	2.139716	0.498612	0.000005
C58	C	2.023649	0.429547	0.000007
H59	H	2.231892	0.473443	0.000001
H60	H	2.132986	0.534616	0.057673
H61	H	2.132996	0.534606	-0.057674
H62	H	2.030362	0.393556	0.057690
H63	H	2.030382	0.393527	-0.057667
H64	H	1.979671	0.609423	-0.000003
H65	H	1.492055	0.574669	0.000002
H66	H	1.561164	-0.245327	0.566125
H67	H	1.506297	0.117539	-0.000004
C68	C	1.339608	0.441590	-0.000009
C69	C	1.459450	0.389336	-0.000011
H70	H	1.249403	0.403425	-0.000002
H71	H	1.344070	0.478376	-0.057680
H72	H	1.344066	0.478396	0.057666
H73	H	1.454998	0.352534	-0.057691
H74	H	1.454985	0.352534	0.057666
H75	H	1.924779	-0.027699	0.245030
C76	C	2.041339	0.042007	0.381043
C77	C	1.953372	-0.010625	0.448719
H78	H	2.109377	0.082692	0.416362
H79	H	1.979885	0.074714	0.340462
H80	H	2.094435	0.004308	0.340418
H81	H	1.900268	0.027074	0.489338
H82	H	2.014835	-0.043334	0.489317
H83	H	1.561204	-0.245335	0.754985
H84	H	1.924826	-0.027708	0.566107
C85	C	1.442036	-0.214200	0.508624
C86	C	1.532599	-0.262410	0.448740
H87	H	1.374044	-0.254903	0.543954
H88	H	1.388902	-0.176526	0.468029
H89	H	1.501746	-0.178486	0.554514
H90	H	1.472889	-0.298120	0.402845
H91	H	1.585737	-0.300100	0.489339
C92	C	1.444626	-0.315056	0.297877
C93	C	1.532572	-0.262408	0.230204
H94	H	1.376622	-0.355759	0.262556
H95	H	1.391507	-0.277376	0.338493
H96	H	1.506110	-0.347750	0.338467
H97	H	1.471089	-0.229708	0.189619
H98	H	1.585695	-0.300092	0.189571
