data_functionalizedCrystal
_audit_creation_method	'MofGen! by Chris Wilmer'
_symmetry_space_group_name_H-M	'P1'
_symmetry_Int_Tables_number	1
_symmetry_cell_setting	triclinic
loop_
_symmetry_equiv_pos_as_xyz
  x,y,z
_cell_length_a	19.288864
_cell_length_b	16.098524
_cell_length_c	19.288865
_cell_angle_alpha	93.078255
_cell_angle_beta	83.136245
_cell_angle_gamma	93.086928
loop_
_atom_site_label
_atom_site_type_symbol
_atom_site_fract_x
_atom_site_fract_y
_atom_site_fract_z
O1	O	0.924123	0.069534	0.089422
O2	O	1.257457	0.402868	0.422756
O3	O	1.590790	0.736201	0.756089
O4	O	0.721860	0.069479	0.101109
O5	O	1.055194	0.402812	0.434442
O6	O	1.388527	0.736145	0.767776
O7	O	0.828836	0.069492	-0.005865
O8	O	1.162169	0.402825	0.327468
O9	O	1.495502	0.736158	0.660801
O10	O	0.817148	0.069521	0.196397
O11	O	1.150481	0.402855	0.529730
O12	O	1.483815	0.736188	0.863063
O13	O	0.823298	-0.069024	-0.011396
O14	O	1.156632	0.264309	0.321937
O15	O	1.489965	0.597643	0.655271
O16	O	0.716323	-0.069037	0.095578
O17	O	1.049657	0.264296	0.428912
O18	O	1.382990	0.597630	0.762245
O19	O	0.918586	-0.068981	0.083892
O20	O	1.251919	0.264352	0.417225
O21	O	1.585253	0.597685	0.750558
Zn22	Zn	0.816576	-0.091002	0.088857
Zn23	Zn	1.149909	0.242332	0.422190
Zn24	Zn	1.483242	0.575665	0.755524
Zn25	Zn	0.823871	0.091499	0.096144
Zn26	Zn	1.157204	0.424832	0.429477
Zn27	Zn	1.490538	0.758166	0.762810
O28	O	0.811611	-0.068994	0.190866
O29	O	1.144944	0.264339	0.524199
O30	O	1.478278	0.597672	0.857533
C31	C	0.693215	0.000213	0.097967
C32	C	1.026548	0.333547	0.431301
C33	C	1.359882	0.666880	0.764634
C34	C	0.616111	0.000192	0.096837
C35	C	0.949444	0.333525	0.430171
C36	C	1.282777	0.666858	0.763504
N37	N	0.811602	-0.215553	0.083884
N38	N	1.144935	0.117780	0.417217
N39	N	1.478268	0.451113	0.750550
C40	C	0.571415	0.000214	0.159606
C41	C	0.904749	0.333547	0.492939
C42	C	1.238082	0.666881	0.826273
C43	C	0.498969	0.000223	0.158546
C44	C	0.832302	0.333556	0.491879
C45	C	1.165635	0.666890	0.825212
C46	C	0.471221	0.000226	0.094714
C47	C	0.804554	0.333560	0.428047
C48	C	1.137888	0.666893	0.761380
C49	C	0.515926	0.000199	0.031937
C50	C	0.849260	0.333533	0.365270
C51	C	1.182593	0.666866	0.698603
C52	C	0.588371	0.000182	0.032998
C53	C	0.921704	0.333515	0.366332
C54	C	1.255038	0.666849	0.699665
C55	C	0.364900	0.048775	0.046473
C56	C	0.698233	0.382108	0.379806
C57	C	1.031567	0.715442	0.713140
C58	C	0.292456	0.048798	0.045414
C59	C	0.625790	0.382131	0.378747
C60	C	0.959123	0.715464	0.712081
C61	C	0.247778	0.000276	0.091436
C62	C	0.581111	0.333610	0.424769
C63	C	0.914444	0.666943	0.758103
C64	C	0.275550	-0.048257	0.138529
C65	C	0.608883	0.285076	0.471863
C66	C	0.942217	0.618410	0.805196
C67	C	0.347995	-0.048274	0.139591
C68	C	0.681328	0.285059	0.472924
C69	C	1.014662	0.618392	0.806258
C70	C	0.392668	0.000245	0.093555
C71	C	0.726001	0.333578	0.426889
C72	C	1.059335	0.666911	0.760222
C73	C	0.124527	0.000307	0.153059
C74	C	0.457860	0.333641	0.486393
C75	C	0.791193	0.666974	0.819726
C76	C	0.052079	0.000311	0.151996
C77	C	0.385412	0.333644	0.485330
C78	C	0.718745	0.666978	0.818663
C79	C	0.069038	0.000296	0.025386
C80	C	0.402372	0.333629	0.358719
C81	C	0.735705	0.666963	0.692052
C82	C	0.141484	0.000284	0.026450
C83	C	0.474817	0.333617	0.359784
C84	C	0.808151	0.666950	0.693117
C85	C	0.169224	0.000293	0.090289
C86	C	0.502557	0.333627	0.423623
C87	C	0.835891	0.666960	0.756956
C88	C	0.851855	-0.259117	0.124166
C89	C	1.185188	0.074216	0.457500
C90	C	1.518522	0.407550	0.790833
C91	C	0.848385	-0.346308	0.120682
C92	C	1.181718	-0.012975	0.454016
C93	C	1.515052	0.320359	0.787349
C94	C	0.804657	-0.389934	0.076919
C95	C	1.137991	-0.056600	0.410253
C96	C	1.471324	0.276733	0.743586
C97	C	0.764402	-0.346364	0.036632
C98	C	1.097736	-0.013031	0.369965
C99	C	1.431069	0.320303	0.703299
C100	C	0.767877	-0.259175	0.040112
C101	C	1.101210	0.074159	0.373446
C102	C	1.434543	0.407492	0.706779
C103	C	0.792070	-0.653190	0.064305
C104	C	1.125403	-0.319857	0.397638
C105	C	1.458737	0.013476	0.730971
C106	C	0.788597	-0.740386	0.060829
C107	C	1.121930	-0.407052	0.394162
C108	C	1.455264	-0.073719	0.727496
C109	C	0.872581	-0.740324	0.144879
C110	C	1.205914	-0.406990	0.478212
C111	C	1.539248	-0.073657	0.811546
C112	C	0.876048	-0.653133	0.148359
C113	C	1.209382	-0.319799	0.481692
C114	C	1.542715	0.013534	0.815025
C115	C	0.835796	-0.609571	0.108069
C116	C	1.169130	-0.276237	0.441402
C117	C	1.502463	0.057096	0.774735
C118	C	0.801108	-0.479057	0.073359
C119	C	1.134441	-0.145723	0.406692
C120	C	1.467774	0.187610	0.740026
C121	C	0.839350	-0.520449	0.111626
C122	C	1.172683	-0.187116	0.444959
C123	C	1.506017	0.146217	0.778292
C124	C	0.947232	0.000286	0.087034
C125	C	1.280565	0.333619	0.420367
C126	C	1.613898	0.666952	0.753700
C127	C	1.024336	0.000313	0.088164
C128	C	1.357670	0.333646	0.421497
C129	C	1.691003	0.666980	0.754830
C130	C	0.825691	0.000231	-0.034507
C131	C	1.159024	0.333565	0.298826
C132	C	1.492358	0.666898	0.632160
C133	C	0.824562	0.000224	-0.111611
C134	C	1.157895	0.333557	0.221722
C135	C	1.491228	0.666890	0.555056
N136	N	0.828850	0.216051	0.101112
N137	N	1.162184	0.549384	0.434445
N138	N	1.495517	0.882717	0.767778
C139	C	0.887330	0.000237	-0.156307
C140	C	1.220663	0.333570	0.177027
C141	C	1.553997	0.666903	0.510360
C142	C	0.886270	0.000250	-0.228753
C143	C	1.219603	0.333583	0.104580
C144	C	1.552936	0.666916	0.437913
C145	C	0.822437	0.000233	-0.256502
C146	C	1.155770	0.333566	0.076832
C147	C	1.489104	0.666899	0.410165
C148	C	0.759660	0.000224	-0.211796
C149	C	1.092994	0.333557	0.121538
C150	C	1.426327	0.666891	0.454871
C151	C	0.760723	0.000220	-0.139351
C152	C	1.094056	0.333553	0.193983
C153	C	1.427389	0.666886	0.527316
C154	C	0.770317	-0.048300	-0.366727
C155	C	1.103651	0.285033	-0.033393
C156	C	1.436984	0.618366	0.299940
C157	C	0.769257	-0.048301	-0.439171
C158	C	1.102591	0.285032	-0.105838
C159	C	1.435924	0.618366	0.227495
C160	C	0.819158	0.000250	-0.479946
C161	C	1.152491	0.333584	-0.146613
C162	C	1.485825	0.666917	0.186720
C163	C	0.870130	0.048791	-0.448270
C164	C	1.203463	0.382125	-0.114937
C165	C	1.536797	0.715458	0.218396
C166	C	0.871192	0.048787	-0.375825
C167	C	1.204526	0.382120	-0.042492
C168	C	1.537859	0.715454	0.290842
C169	C	0.821278	0.000238	-0.335055
C170	C	1.154611	0.333571	-0.001722
C171	C	1.487945	0.666905	0.331611
C172	C	0.880781	0.000279	-0.603198
C173	C	1.214115	0.333612	-0.269864
C174	C	1.547448	0.666945	0.063469
C175	C	0.879719	0.000297	-0.675645
C176	C	1.213052	0.333630	-0.342312
C177	C	1.546385	0.666963	-0.008978
C178	C	0.753107	0.000263	-0.658686
C179	C	1.086441	0.333596	-0.325353
C180	C	1.419774	0.666929	0.007981
C181	C	0.754172	0.000253	-0.586240
C182	C	1.087505	0.333586	-0.252907
C183	C	1.420839	0.666920	0.080427
C184	C	0.818011	0.000257	-0.558501
C185	C	1.151344	0.333590	-0.225167
C186	C	1.484677	0.666924	0.108166
C187	C	0.814756	0.000268	0.219508
C188	C	1.148089	0.333601	0.552841
C189	C	1.481422	0.666935	0.886175
C190	C	0.815885	0.000281	0.296612
C191	C	1.149219	0.333614	0.629945
C192	C	1.482552	0.666948	0.963279
H193	H	0.593996	0.000223	0.211589
H194	H	0.927329	0.333557	0.544922
H195	H	1.260663	0.666890	0.878255
Br196	Br	0.741760	-0.538270	0.013972
Br197	Br	1.075093	-0.204937	0.347305
Br198	Br	1.408426	0.128397	0.680638
H199	H	0.874955	-0.484925	0.147255
H200	H	1.208289	-0.151592	0.480588
H201	H	1.541622	0.181741	0.813922
Br202	Br	0.967417	0.000276	-0.565547
Br203	Br	1.300750	0.333609	-0.232214
Br204	Br	1.634083	0.666942	0.101120
H205	H	0.370604	-0.087795	0.177934
H206	H	0.703938	0.245539	0.511267
H207	H	1.037271	0.578872	0.844600
Br208	Br	0.973969	0.000265	-0.118662
Br209	Br	1.307302	0.333599	0.214671
Br210	Br	1.640635	0.666932	0.548004
Br211	Br	0.254771	0.114675	-0.018488
Br212	Br	0.588105	0.448008	0.314845
Br213	Br	0.921438	0.781341	0.648179
Br214	Br	0.666475	0.000248	-0.696336
Br215	Br	0.999809	0.333581	-0.363002
Br216	Br	1.333142	0.666915	-0.029669
Br217	Br	0.713255	-0.200051	-0.014569
Br218	Br	1.046588	0.133282	0.318764
Br219	Br	1.379922	0.466615	0.652097
Br220	Br	0.202147	0.000255	-0.058741
Br221	Br	0.535480	0.333589	0.274593
Br222	Br	0.868813	0.666922	0.607926
H223	H	0.401273	0.088292	0.008995
H224	H	0.734606	0.421626	0.342328
H225	H	1.067939	0.754959	0.675662
H226	H	0.937385	0.000264	-0.265151
H227	H	1.270718	0.333597	0.068182
H228	H	1.604052	0.666930	0.401515
H229	H	0.911658	-0.617618	0.183993
H230	H	1.244991	-0.284285	0.517327
H231	H	1.578325	0.049048	0.850660
H232	H	0.493330	0.000213	-0.020036
H233	H	0.826663	0.333547	0.313298
H234	H	1.159997	0.666880	0.646631
H235	H	0.462570	0.000239	0.209661
H236	H	0.795904	0.333572	0.542994
H237	H	1.129237	0.666905	0.876328
H238	H	0.703059	0.000238	-0.549848
H239	H	1.036392	0.333571	-0.216514
H240	H	1.369725	0.666904	0.116819
H241	H	0.727750	-0.087821	-0.464956
H242	H	1.061084	0.245512	-0.131622
H243	H	1.394417	0.578846	0.201711
Br244	Br	0.927206	-0.799447	0.199555
Br245	Br	1.260539	-0.466114	0.532889
Br246	Br	1.593872	-0.132781	0.866222
Br247	Br	0.940361	0.114665	-0.332836
Br248	Br	1.273695	0.447998	0.000497
Br249	Br	1.607028	0.781331	0.333830
H250	H	0.910764	0.088327	-0.481468
H251	H	1.244097	0.421660	-0.148135
H252	H	1.577430	0.754994	0.185199
Br253	Br	0.964913	0.000324	-0.736306
Br254	Br	1.298246	0.333657	-0.402973
Br255	Br	1.631579	0.666990	-0.069639
H256	H	0.709607	0.000209	-0.102958
H257	H	1.042941	0.333542	0.230375
H258	H	1.376274	0.666875	0.563708
Br259	Br	0.911200	-0.199919	0.183565
Br260	Br	1.244534	0.133414	0.516898
Br261	Br	1.577867	0.466748	0.850231
H262	H	0.729680	-0.087841	-0.333533
H263	H	1.063014	0.245492	-0.000200
H264	H	1.396347	0.578826	0.333134
H265	H	0.239174	-0.087769	0.176005
H266	H	0.572507	0.245565	0.509338
H267	H	0.905840	0.578898	0.842671
Br268	Br	0.162178	0.000314	0.239695
Br269	Br	0.495511	0.333648	0.573029
Br270	Br	0.828844	0.666981	0.906362
Br271	Br	0.649033	0.000150	-0.052195
Br272	Br	0.982367	0.333483	0.281139
Br273	Br	1.315700	0.666816	0.614472
H274	H	0.707687	0.000212	-0.234393
H275	H	1.041021	0.333545	0.098940
H276	H	1.374354	0.666879	0.432274
Br277	Br	0.903018	-0.405427	0.175354
Br278	Br	1.236351	-0.072094	0.508688
Br279	Br	1.569684	0.261240	0.842021
Br280	Br	0.729247	-0.799592	0.001433
Br281	Br	1.062581	-0.466259	0.334766
Br282	Br	1.395914	-0.132925	0.668100
Br283	Br	0.031389	0.000287	-0.061246
Br284	Br	0.364722	0.333620	0.272087
Br285	Br	0.698055	0.666953	0.605421
Br286	Br	0.705060	-0.405569	-0.022765
Br287	Br	1.038393	-0.072236	0.310569
Br288	Br	1.371726	0.261097	0.643902
H289	H	0.759294	-0.617733	0.031497
H290	H	1.092627	-0.284399	0.364831
H291	H	1.425960	0.048934	0.698164
H292	H	0.015687	0.000324	0.203112
H293	H	0.349021	0.333658	0.536446
H294	H	0.682354	0.666991	0.869779
