data_functionalizedCrystal
_audit_creation_method	'MofGen! by Chris Wilmer'
_symmetry_space_group_name_H-M	'P1'
_symmetry_Int_Tables_number	1
_symmetry_cell_setting	triclinic
loop_
_symmetry_equiv_pos_as_xyz
  x,y,z
_cell_length_a	6.817900
_cell_length_b	11.353959
_cell_length_c	12.200875
_cell_angle_alpha	103.763819
_cell_angle_beta	107.143593
_cell_angle_gamma	107.526623
loop_
_atom_site_label
_atom_site_type_symbol
_atom_site_fract_x
_atom_site_fract_y
_atom_site_fract_z
V1	V	-4.112946	-0.181231	-0.393859
O2	O	-4.052970	0.008403	-0.349174
O3	O	-4.107969	-0.359057	-0.426931
O4	O	-4.082016	-0.178578	-0.549317
O5	O	-4.079103	-0.173326	-0.225940
V6	V	-4.588684	-0.158533	-0.369430
O7	O	-4.391282	-0.231022	-0.447447
O8	O	-4.760545	-0.108742	-0.315842
O9	O	-4.370454	0.019293	-0.336358
O10	O	-4.766057	-0.348168	-0.414115
O11	O	-4.739923	-0.166439	-0.537349
O12	O	-4.396408	-0.161187	-0.213972
C13	C	-3.962969	-0.402403	-0.429946
C14	C	-4.040303	-0.547779	-0.458023
C15	C	-4.020543	-0.594762	-0.367146
C16	C	-4.100471	-0.745016	-0.396162
C17	C	-3.929861	-0.172182	-0.586061
C18	C	-3.986143	-0.171189	-0.713384
C19	C	-4.089147	-0.169373	-0.946495
C20	C	-4.031819	-0.170383	-0.816775
C21	C	-4.178798	0.062632	-0.333341
C22	C	-4.080703	0.208007	-0.305272
C23	C	-4.211905	-0.167587	-0.177223
C24	C	-4.134860	-0.168573	-0.049898
H25	H	-4.176568	-0.816025	-0.495453
O26	O	-3.979892	-0.697939	-0.173748
H27	H	-3.828528	-0.710110	-0.121329
H28	H	-4.116399	-0.618792	-0.557307
H29	H	-3.944465	-0.523750	-0.267862
