data_functionalizedCrystal
_audit_creation_method	'MofGen! by Chris Wilmer'
_symmetry_space_group_name_H-M	'P1'
_symmetry_Int_Tables_number	1
_symmetry_cell_setting	triclinic
loop_
_symmetry_equiv_pos_as_xyz
  x,y,z
_cell_length_a	16.120484
_cell_length_b	11.169417
_cell_length_c	11.169409
_cell_angle_alpha	90.019824
_cell_angle_beta	92.860730
_cell_angle_gamma	87.073731
loop_
_atom_site_label
_atom_site_type_symbol
_atom_site_fract_x
_atom_site_fract_y
_atom_site_fract_z
Zn1	Zn	-0.331818	-1.810616	-0.702705
Zn2	Zn	0.001515	-1.477282	-0.369372
Zn3	Zn	0.334848	-1.143949	-0.036039
Zn4	Zn	-0.471261	-1.800274	-0.512176
Zn5	Zn	-0.137928	-1.466940	-0.178843
Zn6	Zn	0.195405	-1.133607	0.154490
Zn7	Zn	-0.331869	-1.609898	-0.502043
Zn8	Zn	0.001464	-1.276565	-0.168710
Zn9	Zn	0.334798	-0.943231	0.164623
Zn10	Zn	-0.471193	-1.599683	-0.712816
Zn11	Zn	-0.137860	-1.266349	-0.379483
Zn12	Zn	0.195473	-0.933016	-0.046149
O13	O	-0.401535	-1.705118	-0.607435
O14	O	-0.068202	-1.371784	-0.274102
O15	O	0.265131	-1.038451	0.059231
O16	O	-0.350323	-1.977193	-0.677440
O17	O	-0.016989	-1.643860	-0.344107
O18	O	0.316344	-1.310526	-0.010774
O19	O	-0.452820	-1.774967	-0.342886
O20	O	-0.119487	-1.441634	-0.009552
O21	O	0.213846	-1.108300	0.323781
O22	O	-0.215197	-1.645127	-0.520189
O23	O	0.118136	-1.311794	-0.186856
O24	O	0.451469	-0.978460	0.146477
O25	O	-0.452771	-1.969595	-0.537459
O26	O	-0.119438	-1.636262	-0.204126
O27	O	0.213896	-1.302928	0.129207
O28	O	-0.215160	-1.792593	-0.667615
O29	O	0.118173	-1.459260	-0.334282
O30	O	0.451507	-1.125927	-0.000948
O31	O	-0.350409	-1.635099	-0.335441
O32	O	-0.017076	-1.301765	-0.002108
O33	O	0.316257	-0.968432	0.331225
O34	O	-0.350344	-1.440594	-0.529994
O35	O	-0.017010	-1.107260	-0.196660
O36	O	0.316323	-0.773927	0.136673
O37	O	-0.452655	-1.627717	-0.879421
O38	O	-0.119322	-1.294383	-0.546088
O39	O	0.214011	-0.961050	-0.212754
O40	O	-0.452705	-1.433089	-0.684847
O41	O	-0.119371	-1.099755	-0.351514
O42	O	0.213962	-0.766422	-0.018181
O43	O	-0.350257	-1.782688	-0.871993
O44	O	-0.016924	-1.449355	-0.538659
O45	O	0.316410	-1.116021	-0.205326
O46	O	-0.587917	-1.765062	-0.547264
O47	O	-0.254584	-1.431728	-0.213930
O48	O	0.078749	-1.098395	0.119403
O49	O	-0.587867	-1.617688	-0.694673
O50	O	-0.254534	-1.284355	-0.361340
O51	O	0.078799	-0.951022	-0.028006
C52	C	-0.618142	-1.689177	-0.623191
C53	C	-0.284809	-1.355844	-0.289858
C54	C	0.048524	-1.022510	0.043476
C55	C	-0.710808	-1.682467	-0.629972
C56	C	-0.377474	-1.349134	-0.296638
C57	C	-0.044141	-1.015801	0.036695
C58	C	-0.401523	-1.393294	-0.607419
C59	C	-0.068189	-1.059960	-0.274086
C60	C	0.265144	-0.726627	0.059248
C61	C	-0.401537	-1.259893	-0.607442
C62	C	-0.068204	-0.926559	-0.274108
C63	C	0.265129	-0.593226	0.059225
C64	C	-0.401443	-1.705217	-0.920471
C65	C	-0.068110	-1.371883	-0.587138
C66	C	0.265224	-1.038550	-0.253804
C67	C	-0.401403	-1.705259	-1.053868
C68	C	-0.068070	-1.371925	-0.720535
C69	C	0.265263	-1.038592	-0.387202
C70	C	-0.880468	-1.670224	-0.642376
C71	C	-0.547135	-1.336891	-0.309042
C72	C	-0.213801	-1.003557	0.024291
C73	C	-0.921762	-1.740226	-0.572514
C74	C	-0.588429	-1.406893	-0.239181
C75	C	-0.255096	-1.073559	0.094152
C76	C	-1.016167	-1.733414	-0.579416
C77	C	-0.682834	-1.400081	-0.246083
C78	C	-0.349501	-1.066747	0.087251
C79	C	-0.786055	-1.677035	-0.635476
C80	C	-0.452721	-1.343701	-0.302142
C81	C	-0.119388	-1.010368	0.031191
C82	C	-0.184083	-1.721153	-0.591644
C83	C	0.149250	-1.387820	-0.258311
C84	C	0.482584	-1.054487	0.075023
C85	C	-0.091417	-1.727987	-0.584915
C86	C	0.241916	-1.394653	-0.251582
C87	C	0.575249	-1.061320	0.081752
C88	C	-0.401549	-2.018159	-0.607452
C89	C	-0.068215	-1.684826	-0.274119
C90	C	0.265118	-1.351492	0.059214
C91	C	-0.401554	-2.151558	-0.607460
C92	C	-0.068221	-1.818225	-0.274126
C93	C	0.265112	-1.484892	0.059207
C94	C	-0.401568	-1.705093	-0.295613
C95	C	-0.068234	-1.371759	0.037721
C96	C	0.265099	-1.038426	0.371054
C97	C	-0.401372	-1.705300	-0.162199
C98	C	-0.068039	-1.371967	0.171134
C99	C	0.265295	-1.038633	0.504468
H100	H	-0.886215	-1.805272	-0.507520
H101	H	-0.552881	-1.471939	-0.174187
H102	H	-0.219548	-1.138605	0.159147
H103	H	-0.916013	-1.605182	-0.707363
H104	H	-0.582680	-1.271848	-0.374030
H105	H	-0.249347	-0.938515	-0.040697
