data_functionalizedCrystal
_audit_creation_method	'MofGen! by Chris Wilmer'
_symmetry_space_group_name_H-M	'P1'
_symmetry_Int_Tables_number	1
_symmetry_cell_setting	triclinic
loop_
_symmetry_equiv_pos_as_xyz
  x,y,z
_cell_length_a	25.639242
_cell_length_b	25.639239
_cell_length_c	25.639234
_cell_angle_alpha	90.024905
_cell_angle_beta	90.029352
_cell_angle_gamma	90.034213
loop_
_atom_site_label
_atom_site_type_symbol
_atom_site_fract_x
_atom_site_fract_y
_atom_site_fract_z
Zn1	Zn	0.799262	-0.208245	0.295742
Zn2	Zn	1.299262	0.291755	0.795742
Zn3	Zn	0.799175	-0.295673	0.208307
Zn4	Zn	1.299175	0.204327	0.708307
Zn5	Zn	0.711827	-0.208247	0.208306
Zn6	Zn	1.211827	0.291753	0.708306
Zn7	Zn	0.711784	-0.295644	0.295696
Zn8	Zn	1.211784	0.204356	0.795696
O9	O	0.755512	-0.251952	0.252013
O10	O	1.255512	0.248048	0.752013
O11	O	0.872416	-0.219854	0.284163
O12	O	1.372416	0.280146	0.784163
O13	O	0.787570	-0.284089	0.135141
O14	O	1.287570	0.215911	0.635141
O15	O	0.723481	-0.135081	0.219924
O16	O	1.223481	0.364919	0.719924
O17	O	0.872351	-0.284087	0.219924
O18	O	1.372351	0.215913	0.719924
O19	O	0.787719	-0.135080	0.284163
O20	O	1.287719	0.364920	0.784163
O21	O	0.723396	-0.219857	0.135141
O22	O	1.223396	0.280143	0.635141
O23	O	0.638656	-0.219829	0.219880
O24	O	1.138656	0.280171	0.719880
O25	O	0.723406	-0.284038	0.368868
O26	O	1.223406	0.215962	0.868868
O27	O	0.638624	-0.284040	0.284085
O28	O	1.138624	0.215960	0.784085
O29	O	0.787676	-0.219826	0.368901
O30	O	1.287676	0.280174	0.868901
O31	O	0.787527	-0.368835	0.219880
O32	O	1.287527	0.131165	0.719880
O33	O	0.723321	-0.368813	0.284085
O34	O	1.223321	0.131187	0.784085
C35	C	0.619669	-0.251932	0.251977
C36	C	1.119669	0.248068	0.751977
C37	C	0.561555	-0.251935	0.251975
C38	C	1.061555	0.248065	0.751975
C39	C	0.201184	-0.285443	0.285413
C40	C	0.701184	0.214557	0.785413
C41	C	0.146580	-0.285446	0.285421
C42	C	0.646580	0.214554	0.785421
O43	O	0.118337	-0.313909	0.313821
O44	O	0.618337	0.186091	0.813821
N45	N	0.119273	-0.251967	0.252047
N46	N	0.619273	0.248033	0.752047
C47	C	0.146573	-0.218478	0.218666
C48	C	0.646573	0.281522	0.718666
O49	O	0.118332	-0.190002	0.190280
O50	O	0.618332	0.309998	0.690280
C51	C	0.201176	-0.218473	0.218661
C52	C	0.701176	0.281527	0.718661
C53	C	0.228481	-0.251958	0.252034
C54	C	0.728481	0.248042	0.752034
C55	C	0.228489	-0.318925	0.318783
C56	C	0.728489	0.181075	0.818783
C57	C	0.283089	-0.318922	0.318774
C58	C	0.783089	0.181078	0.818774
C59	C	0.310385	-0.285437	0.285395
C60	C	0.810385	0.214563	0.785395
C61	C	0.283081	-0.251955	0.252024
C62	C	0.783081	0.248045	0.752024
C63	C	0.228475	-0.184982	0.185283
C64	C	0.728475	0.315018	0.685283
C65	C	0.283082	-0.184980	0.185281
C66	C	0.783082	0.315020	0.685281
C67	C	0.310387	-0.218465	0.218654
C68	C	0.810387	0.281535	0.718654
C69	C	0.364978	-0.218468	0.218636
C70	C	0.864978	0.281532	0.718636
N71	N	0.392285	-0.251947	0.252010
N72	N	0.892285	0.248053	0.752010
C73	C	0.364989	-0.285432	0.285389
C74	C	0.864989	0.214568	0.785389
C75	C	0.031902	-0.218492	0.218680
C76	C	0.531902	0.281508	0.718680
C77	C	-0.022700	-0.218499	0.218683
C78	C	0.477300	0.281501	0.718683
C79	C	-0.022689	-0.285466	0.285438
C80	C	0.477311	0.214534	0.785438
C81	C	0.031914	-0.285461	0.285433
C82	C	0.531914	0.214539	0.785433
C83	C	0.059209	-0.251971	0.252054
C84	C	0.559209	0.248029	0.752054
C85	C	0.479654	-0.285424	0.285368
C86	C	0.979654	0.214576	0.785368
C87	C	0.534259	-0.285420	0.285354
C88	C	1.034259	0.214580	0.785354
C89	C	0.534243	-0.218451	0.218601
C90	C	1.034243	0.281549	0.718601
C91	C	0.479643	-0.218457	0.218612
C92	C	0.979643	0.281543	0.718612
C93	C	0.452349	-0.251945	0.252000
C94	C	0.952349	0.248055	0.752000
O95	O	0.393256	-0.190018	0.190252
O96	O	0.893256	0.309982	0.690252
O97	O	0.393236	-0.313899	0.313776
O98	O	0.893236	0.186101	0.813776
C99	C	0.755424	-0.387795	0.251989
C100	C	1.255424	0.112205	0.751989
C101	C	0.755434	-0.445909	0.251996
C102	C	1.255434	0.054091	0.751996
C103	C	0.789031	-0.806270	0.218638
C104	C	1.289031	-0.306270	0.718638
C105	C	0.789051	-0.860875	0.218645
C106	C	1.289051	-0.360875	0.718645
O107	O	0.817526	-0.889110	0.190257
O108	O	1.317526	-0.389110	0.690257
N109	N	0.755604	-0.888191	0.252048
N110	N	1.255604	-0.388191	0.752048
C111	C	0.722138	-0.860901	0.285449
C112	C	1.222138	-0.360901	0.785449
O113	O	0.693690	-0.889150	0.313861
O114	O	1.193690	-0.389150	0.813861
C115	C	0.722120	-0.806298	0.285444
C116	C	1.222120	-0.306298	0.785444
C117	C	0.755566	-0.778984	0.252036
C118	C	1.255566	-0.278984	0.752036
C119	C	0.822475	-0.778957	0.185233
C120	C	1.322475	-0.278957	0.685233
C121	C	0.822454	-0.724356	0.185226
C122	C	1.322454	-0.224356	0.685226
C123	C	0.788989	-0.697069	0.218623
C124	C	1.288989	-0.197069	0.718623
C125	C	0.755545	-0.724383	0.252028
C126	C	1.255545	-0.224383	0.752028
C127	C	0.688657	-0.779008	0.318847
C128	C	1.188657	-0.279008	0.818847
C129	C	0.688643	-0.724401	0.318840
C130	C	1.188643	-0.224401	0.818840
C131	C	0.722089	-0.697087	0.285432
C132	C	1.222089	-0.197087	0.785432
C133	C	0.722059	-0.642496	0.285418
C134	C	1.222059	-0.142496	0.785418
N135	N	0.755507	-0.615179	0.252016
N136	N	1.255507	-0.115179	0.752016
C137	C	0.788972	-0.642466	0.218619
C138	C	1.288972	-0.142466	0.718619
C139	C	0.722177	-0.975571	0.285457
C140	C	1.222177	-0.475571	0.785457
C141	C	0.722191	-1.030174	0.285459
C142	C	1.222191	-0.530174	0.785459
C143	C	0.789106	-1.030144	0.218656
C144	C	1.289106	-0.530144	0.718656
C145	C	0.789089	-0.975541	0.218652
C146	C	1.289089	-0.475541	0.718652
C147	C	0.755625	-0.948255	0.252055
C148	C	1.255625	-0.448255	0.752055
C149	C	0.788925	-0.527801	0.218605
C150	C	1.288925	-0.027801	0.718605
C151	C	0.788899	-0.473196	0.218599
C152	C	1.288899	0.026804	0.718599
C153	C	0.721987	-0.473230	0.285403
C154	C	1.221987	0.026770	0.785403
C155	C	0.722010	-0.527831	0.285408
C156	C	1.222010	-0.027831	0.785408
C157	C	0.755483	-0.555115	0.252007
C158	C	1.255483	-0.055115	0.752007
O159	O	0.693601	-0.614226	0.313794
O160	O	1.193601	-0.114226	0.813794
O161	O	0.817419	-0.614210	0.190216
O162	O	1.317419	-0.114210	0.690216
C163	C	0.891885	-0.251973	0.252049
C164	C	1.391885	0.248027	0.752049
C165	C	0.949999	-0.251982	0.252064
C166	C	1.449999	0.248018	0.752064
C167	C	0.755546	-0.251928	0.388386
C168	C	1.255546	0.248072	0.888386
C169	C	0.755560	-0.251918	0.446500
C170	C	1.255560	0.248082	0.946500
C171	C	0.755614	-0.115579	0.252048
C172	C	1.255614	0.384421	0.752048
C173	C	0.755658	-0.057465	0.252064
C174	C	1.255658	0.442535	0.752064
C175	C	0.755508	-0.251938	0.116170
C176	C	1.255508	0.248062	0.616170
C177	C	0.755595	-0.251801	0.058057
C178	C	1.255595	0.248199	0.558057
C179	C	0.722160	-0.218411	0.806869
C180	C	1.222160	0.281589	1.306869
C181	C	0.722163	-0.218401	0.861473
C182	C	1.222163	0.281599	1.361473
O183	O	0.693738	-0.189969	0.889714
O184	O	1.193738	0.310031	1.389714
N185	N	0.755578	-0.251836	0.888783
N186	N	1.255578	0.248164	1.388783
C187	C	0.788988	-0.285287	0.861485
C188	C	1.288988	0.214713	1.361485
O189	O	0.817411	-0.313726	0.889728
O190	O	1.317411	0.186274	1.389728
C191	C	0.788983	-0.285299	0.806882
C192	C	1.288983	0.214701	1.306882
C193	C	0.755569	-0.251857	0.779575
C194	C	1.255569	0.248143	1.279575
C195	C	0.688749	-0.184972	0.779562
C196	C	1.188749	0.315028	1.279562
C197	C	0.688747	-0.184981	0.724961
C198	C	1.188747	0.315019	1.224961
C199	C	0.722156	-0.218428	0.697668
C200	C	1.222156	0.281572	1.197668
C201	C	0.755567	-0.251866	0.724974
C202	C	1.255567	0.248134	1.224974
C203	C	0.822390	-0.318752	0.779585
C204	C	1.322390	0.181248	1.279585
C205	C	0.822381	-0.318761	0.724978
C206	C	1.322381	0.181239	1.224978
C207	C	0.788968	-0.285319	0.697672
C208	C	1.288968	0.214681	1.197672
C209	C	0.788974	-0.285322	0.643080
C210	C	1.288974	0.214678	1.143080
N211	N	0.755559	-0.251887	0.615771
N212	N	1.255559	0.248113	1.115771
C213	C	0.722150	-0.218440	0.643064
C214	C	1.222150	0.281560	1.143064
C215	C	0.788998	-0.285260	0.976156
C216	C	1.288998	0.214740	1.476156
C217	C	0.789006	-0.285246	1.030758
C218	C	1.289006	0.214754	1.530758
C219	C	0.722180	-0.218361	1.030742
C220	C	1.222180	0.281639	1.530742
C221	C	0.722174	-0.218373	0.976139
C222	C	1.222174	0.281627	1.476139
C223	C	0.755583	-0.251825	0.948846
C224	C	1.255583	0.248175	1.448846
C225	C	0.722149	-0.218461	0.528399
C226	C	1.222149	0.281539	1.028399
C227	C	0.722151	-0.218471	0.473794
C228	C	1.222151	0.281529	0.973794
C229	C	0.788976	-0.285358	0.473814
C230	C	1.288976	0.214642	0.973814
C231	C	0.788975	-0.285346	0.528415
C232	C	1.288975	0.214654	1.028415
C233	C	0.755558	-0.251896	0.555706
C234	C	1.255558	0.248104	1.055706
O235	O	0.817383	-0.313741	0.614804
O236	O	1.317383	0.186259	1.114804
O237	O	0.693728	-0.190011	0.614814
O238	O	1.193728	0.309989	1.114814
H239	H	0.054142	-0.312727	0.312609
H240	H	0.554142	0.187273	0.812609
N241	N	0.652709	-0.148894	0.808992
N242	N	1.152709	0.351106	1.308992
H243	H	0.660861	-0.111543	0.799495
H244	H	1.160861	0.388457	1.299495
H245	H	0.657793	-0.153998	0.847719
H246	H	1.157793	0.346002	1.347719
N247	N	-0.052137	-0.321583	0.321441
N248	N	0.447863	0.178417	0.821441
H249	H	-0.074765	-0.300368	0.345710
H250	H	0.425235	0.199632	0.845710
H251	H	-0.026524	-0.342787	0.342548
H252	H	0.473476	0.157213	0.842548
H253	H	0.816324	-0.953305	0.191448
H254	H	1.316324	-0.453305	0.691448
H255	H	0.816209	-0.312498	0.953938
H256	H	1.316209	0.187502	1.453938
H257	H	0.849729	-0.801168	0.158037
H258	H	1.349729	-0.301168	0.658037
H259	H	0.816357	-1.052371	0.191464
H260	H	1.316357	-0.552371	0.691464
N261	N	0.450219	-0.321548	0.321371
N262	N	0.950219	0.178452	0.821371
H263	H	0.427591	-0.300341	0.345647
H264	H	0.927591	0.199659	0.845647
H265	H	0.475840	-0.342750	0.342471
H266	H	0.975840	0.157250	0.842471
H267	H	0.816189	-0.312571	0.550650
H268	H	1.316189	0.187429	1.050650
H269	H	0.849590	-0.345999	0.702760
H270	H	1.349590	0.154001	1.202760
N271	N	0.825010	-0.321430	0.444371
N272	N	1.325010	0.178570	0.944371
H273	H	0.819876	-0.316419	0.405638
H274	H	1.319876	0.183581	0.905638
H275	H	0.816898	-0.358764	0.453963
H276	H	1.316898	0.141236	0.953963
H277	H	0.816221	-0.312472	1.052987
H278	H	1.316221	0.187528	1.552987
N279	N	0.652542	-0.694974	0.354863
N280	N	1.152542	-0.194974	0.854863
H281	H	0.657601	-0.656237	0.349792
H282	H	1.157601	-0.156237	0.849792
H283	H	0.660662	-0.704489	0.392214
H284	H	1.160662	-0.204489	0.892214
H285	H	0.556488	-0.312690	0.312530
H286	H	1.056488	0.187310	0.812530
N287	N	0.686115	-1.059629	0.321492
N288	N	1.186115	-0.559629	0.821492
H289	H	0.691202	-1.098361	0.316433
H290	H	1.191202	-0.598361	0.816433
H291	H	0.648776	-1.050123	0.313312
H292	H	1.148776	-0.550123	0.813312
N293	N	0.686077	-0.946143	0.321482
N294	N	1.186077	-0.446143	0.821482
H295	H	0.664892	-0.971738	0.342639
H296	H	1.164892	-0.471738	0.842639
H297	H	0.661885	-0.923523	0.300171
H298	H	1.161885	-0.423523	0.800171
N299	N	0.450184	-0.182361	0.182605
N300	N	0.950184	0.317639	0.682605
H301	H	0.427551	-0.158160	0.203891
H302	H	0.927551	0.341840	0.703891
H303	H	0.427536	-0.203629	0.158356
H304	H	0.927536	0.296371	0.658356
H305	H	0.054123	-0.191221	0.191496
H306	H	0.554123	0.308779	0.691496
N307	N	0.652580	-0.808459	0.354878
N308	N	1.152580	-0.308459	0.854878
H309	H	0.631382	-0.782880	0.376032
H310	H	1.131382	-0.282880	0.876032
H311	H	0.673854	-0.831081	0.379102
H312	H	1.173854	-0.331081	0.879102
N313	N	0.686110	-0.182406	0.444337
N314	N	1.186110	0.317594	0.944337
H315	H	0.707375	-0.158183	0.421700
H316	H	1.207375	0.341817	0.921700
H317	H	0.664950	-0.161252	0.469946
H318	H	1.164950	0.338748	0.969946
N319	N	0.652704	-0.148921	0.695507
N320	N	1.152704	0.351079	1.195507
H321	H	0.673966	-0.124698	0.672866
H322	H	1.173966	0.375302	1.172866
H323	H	0.631546	-0.127768	0.721117
H324	H	1.131546	0.372232	1.221117
H325	H	0.849599	-0.345983	0.801809
H326	H	1.349599	0.154017	1.301809
H327	H	0.694937	-0.191222	0.550613
H328	H	1.194937	0.308778	1.050613
N329	N	0.686132	-0.182311	0.946685
N330	N	1.186132	0.317689	1.446685
H331	H	0.707394	-0.158089	0.924044
H332	H	1.207394	0.341911	1.424044
H333	H	0.664977	-0.161156	0.972297
H334	H	1.164977	0.338844	1.472297
H335	H	0.694777	-0.550071	0.312613
H336	H	1.194777	-0.050071	0.812613
H337	H	-0.044927	-0.191238	0.191502
H338	H	0.455073	0.308762	0.691502
H339	H	0.694976	-0.191127	1.052975
H340	H	1.194976	0.308873	1.552975
N341	N	0.312530	-0.355038	0.354773
N342	N	0.812530	0.144962	0.854773
H343	H	0.303050	-0.346965	0.392144
H344	H	0.803050	0.153035	0.892144
H345	H	0.351255	-0.349945	0.349667
H346	H	0.851255	0.150055	0.849667
N347	N	0.199053	-0.355046	0.354785
N348	N	0.699053	0.144954	0.854785
H349	H	0.224644	-0.376254	0.375919
H350	H	0.724644	0.123746	0.875919
H351	H	0.176377	-0.379216	0.333457
H352	H	0.676377	0.120784	0.833457
H353	H	0.305303	-0.157704	0.158103
H354	H	0.805303	0.342296	0.658103
N355	N	0.199034	-0.148866	0.149288
N356	N	0.699034	0.351134	0.649288
H357	H	0.224620	-0.127654	0.128147
H358	H	0.724620	0.372346	0.628147
H359	H	0.176407	-0.124700	0.170617
H360	H	0.676407	0.375300	0.670617
N361	N	0.858537	-0.694901	0.149201
N362	N	1.358537	-0.194901	0.649201
H363	H	0.837304	-0.672277	0.124940
H364	H	1.337304	-0.172277	0.624940
H365	H	0.879731	-0.720513	0.128086
H366	H	1.379731	-0.220513	0.628086
H367	H	0.556478	-0.191191	0.191422
H368	H	1.056478	0.308809	0.691422
N369	N	0.685890	-0.443795	0.321420
N370	N	1.185890	0.056205	0.821420
H371	H	0.690956	-0.405060	0.316344
H372	H	1.190956	0.094940	0.816344
H373	H	0.694011	-0.453308	0.358772
H374	H	1.194011	0.046692	0.858772
H375	H	0.816183	-0.550009	0.191408
H376	H	1.316183	-0.050009	0.691408
N377	N	0.824976	-0.443736	0.182566
N378	N	1.324976	0.056264	0.682566
H379	H	0.846180	-0.469311	0.161413
H380	H	1.346180	0.030689	0.661413
H381	H	0.849151	-0.421046	0.203873
H382	H	1.349151	0.078954	0.703873
