data_functionalizedCrystal
_audit_creation_method	'MofGen! by Chris Wilmer'
_symmetry_space_group_name_H-M	'P1'
_symmetry_Int_Tables_number	1
_symmetry_cell_setting	triclinic
loop_
_symmetry_equiv_pos_as_xyz
  x,y,z
_cell_length_a	11.169417
_cell_length_b	16.120444
_cell_length_c	11.169409
_cell_angle_alpha	87.138527
_cell_angle_beta	90.019824
_cell_angle_gamma	92.927304
loop_
_atom_site_label
_atom_site_type_symbol
_atom_site_fract_x
_atom_site_fract_y
_atom_site_fract_z
Zn1	Zn	1.810607	-0.331820	0.702711
Zn2	Zn	1.800261	-0.471263	0.512185
Zn3	Zn	1.609889	-0.331870	0.502050
Zn4	Zn	1.599670	-0.471195	0.712825
O5	O	1.705107	-0.401537	0.607443
O6	O	1.977184	-0.350324	0.677447
O7	O	1.774955	-0.452822	0.342894
O8	O	1.645121	-0.215198	0.520194
O9	O	1.969583	-0.452773	0.537468
O10	O	1.792588	-0.215161	0.667619
O11	O	1.635089	-0.350411	0.335448
O12	O	1.440585	-0.350345	0.530000
O13	O	1.627705	-0.452657	0.879430
O14	O	1.433077	-0.452706	0.684856
O15	O	1.782679	-0.350258	0.871999
O16	O	1.765046	-0.587920	0.547275
O17	O	1.617673	-0.587870	0.694684
C18	C	1.393283	-0.401524	0.607426
C19	C	1.259882	-0.401539	0.607449
C20	C	1.689161	-0.618145	0.623203
C21	C	1.682449	-0.710810	0.629985
C22	C	1.740220	-0.921757	0.572517
C23	C	1.670216	-0.880466	0.642380
C24	C	1.677024	-0.786061	0.635482
C25	C	1.733414	-1.016170	0.579415
C26	C	2.018148	-0.401550	0.607460
C27	C	2.151548	-0.401556	0.607467
C28	C	1.705206	-0.401445	0.920479
C29	C	1.705248	-0.401405	1.053876
C30	C	1.721148	-0.184084	0.591648
C31	C	1.727984	-0.091418	0.584917
C32	C	1.705082	-0.401569	0.295620
C33	C	1.705290	-0.401374	0.162207
H34	H	1.805261	-0.886210	0.507528
H35	H	1.605170	-0.916017	0.707373
