data_functionalizedCrystal
_audit_creation_method	'MofGen! by Chris Wilmer'
_symmetry_space_group_name_H-M	'P1'
_symmetry_Int_Tables_number	1
_symmetry_cell_setting	triclinic
loop_
_symmetry_equiv_pos_as_xyz
  x,y,z
_cell_length_a	27.732048
_cell_length_b	16.109301
_cell_length_c	15.186229
_cell_angle_alpha	90.000638
_cell_angle_beta	89.991324
_cell_angle_gamma	96.947932
loop_
_atom_site_label
_atom_site_type_symbol
_atom_site_fract_x
_atom_site_fract_y
_atom_site_fract_z
O1	O	0.062130	-1.102361	-0.073183
O2	O	0.069862	-0.860204	-0.073198
O3	O	-0.004369	-0.988803	-0.073173
O4	O	0.136361	-0.973762	-0.073208
O5	O	-0.004370	-0.988795	0.073284
O6	O	0.069861	-0.860195	0.073259
O7	O	0.062129	-1.102353	0.073275
Zn8	Zn	0.065995	-0.981273	0.096520
Zn9	Zn	0.065996	-0.981284	-0.096444
O10	O	0.136360	-0.973753	0.073250
C11	C	0.069548	-0.829228	0.000029
C12	C	0.068609	-0.736945	0.000024
C13	C	-0.022378	-0.988483	0.000058
C14	C	-0.076037	-0.987533	0.000065
C15	C	0.062443	-1.133328	0.000046
C16	C	0.063382	-1.225612	0.000045
C17	C	-0.414559	-1.057541	0.000024
C18	C	-0.616233	-1.054013	0.000012
O19	O	-0.647221	-1.118031	-0.000023
N20	N	-0.635676	-0.977759	0.000008
C21	C	-0.604697	-0.902381	0.000001
O22	O	-0.625862	-0.837441	-0.000011
C23	C	-0.403024	-0.905910	0.000008
C24	C	-0.383584	-0.982169	0.000020
C25	C	-0.395119	-1.133794	0.000036
C26	C	-0.344703	-1.134675	0.000044
C27	C	-0.313728	-1.059303	0.000040
C28	C	-0.333168	-0.983050	0.000028
C29	C	-0.372045	-0.830533	-0.000005
C30	C	-0.321624	-0.831422	-0.000006
C31	C	-0.302184	-0.907681	0.000007
C32	C	-0.251777	-0.908559	0.000032
N33	N	-0.232334	-0.984814	0.000036
C34	C	-0.263310	-1.060186	0.000040
C35	C	-0.710579	-0.900534	-0.000000
C36	C	-0.760997	-0.899652	-0.000000
C37	C	-0.772530	-1.051284	0.000009
C38	C	-0.722111	-1.052166	0.000015
C39	C	-0.691136	-0.976789	0.000004
C40	C	-0.157433	-1.062030	0.000058
C41	C	-0.107012	-1.062905	0.000069
C42	C	-0.095484	-0.911273	0.000056
C43	C	-0.145900	-0.910398	0.000049
C44	C	-0.176874	-0.985783	0.000047
O45	O	-0.220761	-0.844576	0.000057
O46	O	-0.242135	-1.125116	0.000033
C47	C	-0.464975	-1.056660	0.000016
C48	C	-0.484415	-0.980407	0.000005
C49	C	-0.453440	-0.905035	0.000001
C50	C	-0.534833	-0.979525	0.000005
C51	C	-0.565808	-1.054897	0.000009
C52	C	-0.546365	-1.131151	0.000013
C53	C	-0.495950	-1.132032	0.000020
C54	C	-0.472883	-0.828781	-0.000003
C55	C	-0.523299	-0.827906	-0.000010
C56	C	-0.554274	-0.903278	-0.000006
C57	C	0.154369	-0.974073	0.000017
C58	C	0.208028	-0.975024	0.000004
N59	N	0.065994	-0.981271	0.228213
C60	C	0.110473	-0.514154	0.000024
C61	C	0.109587	-0.427445	0.000030
C62	C	0.021514	-0.448409	0.000048
C63	C	0.022401	-0.535117	0.000048
C64	C	0.066882	-0.567987	0.000032
C65	C	0.065109	-0.394570	0.000037
C66	C	0.064148	-0.300556	0.000044
C67	C	0.067843	-0.662007	0.000027
N68	N	0.065994	-0.981292	-0.228136
C69	C	0.033135	-1.038234	0.453947
C70	C	0.033134	-1.038237	0.546136
C71	C	0.098854	-0.924323	0.546124
C72	C	0.098852	-0.924317	0.453936
C73	C	0.065993	-0.981277	0.407850
C74	C	0.065994	-0.981286	0.592227
C75	C	0.065993	-0.981288	0.692183
C76	C	0.065994	-0.981274	0.307887
H77	H	-0.182646	-1.123416	0.000053
Cl78	Cl	-0.082577	-1.158781	0.000084
Cl79	Cl	-0.320272	-1.230549	0.000035
Cl80	Cl	0.166392	-0.555473	0.000009
Cl81	Cl	-0.034401	-0.407081	0.000063
Cl82	Cl	-0.008176	-1.109841	0.604085
Cl83	Cl	0.140161	-0.852705	0.395979
Cl84	Cl	0.140162	-0.852722	0.604064
Cl85	Cl	0.164391	-0.359772	0.000021
Cl86	Cl	-0.032404	-0.602798	0.000065
Cl87	Cl	-0.008175	-1.109838	0.396014
Cl88	Cl	-0.547730	-0.732027	-0.000022
Cl89	Cl	-0.697678	-1.148038	0.000030
Cl90	Cl	-0.434051	-1.228561	0.000043
Cl91	Cl	-0.433949	-0.734017	-0.000010
Cl92	Cl	-0.811479	-1.146037	0.000009
H93	H	-0.776820	-0.837554	0.000005
Cl94	Cl	-0.671645	-0.805764	-0.000013
H95	H	-0.387864	-0.768435	-0.000021
Cl96	Cl	-0.585315	-1.225903	0.000021
H97	H	-0.296407	-0.770039	-0.000017
H98	H	-0.070255	-0.849907	0.000055
Cl99	Cl	-0.471519	-1.227906	0.000029
Cl100	Cl	-0.170339	-0.814528	0.000049
