data_functionalizedCrystal
_audit_creation_method	'MofGen! by Chris Wilmer'
_symmetry_space_group_name_H-M	'P1'
_symmetry_Int_Tables_number	1
_symmetry_cell_setting	triclinic
loop_
_symmetry_equiv_pos_as_xyz
  x,y,z
_cell_length_a	17.038272
_cell_length_b	17.038272
_cell_length_c	10.268362
_cell_angle_alpha	89.994496
_cell_angle_beta	90.001146
_cell_angle_gamma	91.111556
loop_
_atom_site_label
_atom_site_type_symbol
_atom_site_fract_x
_atom_site_fract_y
_atom_site_fract_z
O1	O	1.048755	0.170537	-0.108138
O2	O	1.548755	0.670537	0.391862
O3	O	0.820943	0.167829	-0.108177
O4	O	1.320943	0.667829	0.391823
O5	O	0.933495	0.055278	-0.108148
O6	O	1.433495	0.555278	0.391852
O7	O	0.936203	0.283089	-0.108168
O8	O	1.436203	0.783089	0.391832
O9	O	0.933484	0.055272	0.108453
O10	O	1.433484	0.555272	0.608453
O11	O	0.820932	0.167824	0.108424
O12	O	1.320932	0.667824	0.608424
O13	O	1.048744	0.170532	0.108462
O14	O	1.548744	0.670532	0.608462
Cu15	Cu	0.934837	0.169177	0.128220
Cu16	Cu	1.434837	0.669177	0.628220
Cu17	Cu	0.934850	0.169184	-0.127935
Cu18	Cu	1.434850	0.669184	0.372065
O19	O	0.936192	0.283084	0.108433
O20	O	1.436192	0.783084	0.608433
C21	C	0.791645	0.165364	0.000119
C22	C	1.291645	0.665364	0.500119
C23	C	0.704361	0.158016	0.000104
C24	C	1.204361	0.658016	0.500104
C25	C	0.931027	0.025982	0.000152
C26	C	1.431027	0.525982	0.500152
C27	C	0.923679	-0.061301	0.000151
C28	C	1.423679	0.438699	0.500151
C29	C	0.658752	0.225479	0.000099
C30	C	1.158752	0.725479	0.500099
C31	C	0.576740	0.218570	0.000118
C32	C	1.076740	0.718570	0.500118
C33	C	0.540339	0.144197	0.000132
C34	C	1.040339	0.644197	0.500132
C35	C	0.585954	0.076728	0.000141
C36	C	1.085954	0.576728	0.500141
C37	C	0.667965	0.083638	0.000132
C38	C	1.167965	0.583638	0.500132
C39	C	0.292951	0.119787	0.000169
C40	C	0.792951	0.619787	0.500169
C41	C	0.210935	0.112882	0.000175
C42	C	0.710935	0.612882	0.500175
C43	C	0.201726	0.254725	0.000154
C44	C	0.701726	0.754725	0.500154
C45	C	0.283739	0.261628	0.000137
C46	C	0.783739	0.761628	0.500137
C47	C	0.329347	0.194159	0.000153
C48	C	0.829347	0.694159	0.500153
C49	C	0.456510	0.137133	0.000147
C50	C	0.956510	0.637133	0.500147
C51	C	0.413174	0.201224	0.000147
C52	C	0.913174	0.701224	0.500147
C53	C	0.991142	-0.106911	0.000163
C54	C	1.491142	0.393089	0.500163
C55	C	0.984233	-0.188923	0.000150
C56	C	1.484233	0.311077	0.500150
C57	C	0.909860	-0.225324	0.000133
C58	C	1.409860	0.274676	0.500133
C59	C	0.842391	-0.179708	0.000116
C60	C	1.342391	0.320292	0.500116
C61	C	0.849301	-0.097698	0.000121
C62	C	1.349301	0.402302	0.500121
C63	C	0.885449	-0.472712	0.000111
C64	C	1.385449	0.027288	0.500111
C65	C	0.878545	-0.554728	0.000111
C66	C	1.378545	-0.054728	0.500111
C67	C	1.020387	-0.563937	0.000142
C68	C	1.520387	-0.063937	0.500142
C69	C	1.027291	-0.481924	0.000154
C70	C	1.527291	0.018076	0.500154
C71	C	0.959822	-0.436316	0.000130
C72	C	1.459822	0.063684	0.500130
C73	C	0.902796	-0.309153	0.000123
C74	C	1.402796	0.190847	0.500123
C75	C	0.966886	-0.352488	0.000131
C76	C	1.466886	0.147512	0.500131
C77	C	1.078042	0.172997	0.000164
C78	C	1.578042	0.672997	0.500164
C79	C	1.165326	0.180346	0.000170
C80	C	1.665326	0.680346	0.500170
C81	C	0.938660	0.312379	0.000130
C82	C	1.438660	0.812379	0.500130
C83	C	0.946008	0.399663	0.000123
C84	C	1.446008	0.899663	0.500123
N85	N	0.934834	0.169172	0.308386
N86	N	1.434834	0.669172	0.808386
N87	N	0.934859	0.169183	-0.308101
N88	N	1.434859	0.669183	0.191899
C89	C	0.934846	0.169182	0.574057
C90	C	1.434846	0.669182	1.074057
C91	C	0.934837	0.169179	0.426219
C92	C	1.434837	0.669179	0.926219
H93	H	0.539608	0.273507	0.000112
H94	H	1.039608	0.773507	0.500112
H95	H	0.794365	-0.060564	0.000110
H96	H	1.294365	0.439436	0.500110
H97	H	0.313370	0.322190	0.000110
H98	H	0.813370	0.822190	0.500110
C99	C	0.369615	0.047091	-0.111193
C100	C	0.869615	0.547091	0.388807
C101	C	0.416494	0.055383	0.000148
C102	C	0.916494	0.555383	0.500148
H103	H	0.344913	-0.003380	-0.111191
H104	H	0.844913	0.496620	0.388809
H105	H	0.330723	0.086282	-0.111176
H106	H	0.830723	0.586282	0.388824
H107	H	0.401421	0.052736	-0.186721
H108	H	0.901421	0.552736	0.313279
H109	H	0.384687	0.049744	0.075678
H110	H	0.884687	0.549744	0.575678
H111	H	0.455391	0.016181	0.000144
H112	H	0.955391	0.516181	0.500144
H113	H	0.181300	0.052315	0.000185
H114	H	0.681300	0.552315	0.500185
H115	H	0.830511	-0.435587	0.000092
H116	H	1.330511	0.064413	0.500092
H117	H	0.705099	0.028702	0.000135
H118	H	1.205099	0.528702	0.500135
H119	H	1.075316	-0.601079	0.000158
H120	H	1.575316	-0.101079	0.500158
C121	C	0.104146	0.329243	-0.111187
C122	C	0.604146	0.829243	0.388813
C123	C	0.151590	0.328882	0.000151
C124	C	0.651590	0.828882	0.500151
H125	H	0.073192	0.375025	-0.111178
H126	H	0.573192	0.875025	0.388822
H127	H	0.136327	0.328997	-0.186710
H128	H	0.636327	0.828997	0.313290
H129	H	0.070734	0.283957	-0.111165
H130	H	0.570734	0.783957	0.388835
H131	H	0.185006	0.374165	0.000125
H132	H	0.685006	0.874165	0.500125
H133	H	0.119406	0.329135	0.075693
H134	H	0.619406	0.829135	0.575693
C135	C	0.395836	0.340738	0.000126
C136	C	0.895836	0.840738	0.500126
C137	C	0.453183	0.282974	0.000132
C138	C	0.953183	0.782974	0.500132
H139	H	0.420543	0.391206	0.000121
H140	H	0.920543	0.891206	0.500121
H141	H	0.364039	0.335095	-0.075399
H142	H	0.864039	0.835095	0.424601
H143	H	0.364041	0.335093	0.075668
H144	H	0.864041	0.835093	0.575668
H145	H	0.484974	0.288616	-0.075416
H146	H	0.984974	0.788616	0.424584
H147	H	0.484993	0.288620	0.075665
H148	H	0.984993	0.788620	0.575665
C149	C	0.499071	-0.013327	-0.111192
C150	C	0.999071	0.486673	0.388808
C151	C	0.545945	-0.005025	0.000154
C152	C	1.045945	0.494975	0.500154
H153	H	0.474377	-0.063802	-0.111188
H154	H	0.974377	0.436198	0.388812
H155	H	0.460174	0.025858	-0.111184
H156	H	0.960174	0.525858	0.388816
H157	H	0.530880	-0.007681	-0.186718
H158	H	1.030880	0.492319	0.313282
H159	H	0.514135	-0.010666	0.075680
H160	H	1.014135	0.489334	0.575680
H161	H	0.584848	-0.044222	0.000158
H162	H	1.084848	0.455778	0.500158
H163	H	1.039170	-0.226054	0.000163
H164	H	1.539170	0.273946	0.500163
C165	C	1.130651	-0.124259	0.000171
C166	C	1.630651	0.375741	0.500171
C167	C	1.072897	-0.066903	0.000173
C168	C	1.572897	0.433097	0.500173
H169	H	1.181124	-0.099560	0.000164
H170	H	1.681124	0.400440	0.500164
H171	H	1.125006	-0.156056	0.075700
H172	H	1.625006	0.343944	0.575700
H173	H	1.125000	-0.156051	-0.075368
H174	H	1.625000	0.343949	0.424632
H175	H	1.078545	-0.035114	0.075717
H176	H	1.578545	0.464886	0.575717
H177	H	1.078545	-0.035092	-0.075364
H178	H	1.578545	0.464908	0.424636
H179	H	1.087853	-0.452293	0.000168
H180	H	1.587853	0.047707	0.500168
H181	H	0.817978	-0.584363	0.000118
H182	H	1.317978	-0.084363	0.500118
C183	C	1.056942	-0.265593	-0.111190
C184	C	1.556942	0.234407	0.388810
C185	C	1.048635	-0.312476	0.000151
C186	C	1.548635	0.187524	0.500151
H187	H	1.107409	-0.240883	-0.111167
H188	H	1.607409	0.259117	0.388833
H189	H	1.051315	-0.297392	-0.186711
H190	H	1.551315	0.202608	0.313289
H191	H	1.017742	-0.226700	-0.111188
H192	H	1.517742	0.273300	0.388812
H193	H	1.087832	-0.351373	0.000144
H194	H	1.587832	0.148627	0.500144
H195	H	1.054270	-0.280675	0.075691
H196	H	1.554270	0.219325	0.575691
H197	H	0.781835	-0.209353	0.000094
H198	H	1.281835	0.290647	0.500094
C199	C	0.812754	-0.396039	-0.111229
C200	C	1.312754	0.103961	0.388771
C201	C	0.821047	-0.349172	0.000118
C202	C	1.321047	0.150828	0.500118
H203	H	0.762287	-0.420751	-0.111227
H204	H	1.262287	0.079249	0.388773
H205	H	0.818388	-0.364229	-0.186745
H206	H	1.318388	0.135771	0.313255
H207	H	0.851955	-0.434931	-0.111216
H208	H	1.351955	0.065069	0.388784
H209	H	0.781849	-0.310277	0.000100
H210	H	1.281849	0.189723	0.500100
H211	H	0.815405	-0.380985	0.075654
H212	H	1.315405	0.119015	0.575654
H213	H	0.330076	0.064848	0.000183
H214	H	0.830076	0.564848	0.500183
C215	C	0.641404	0.364989	0.000094
C216	C	1.141404	0.864989	0.500094
C217	C	0.698760	0.307234	0.000087
C218	C	1.198760	0.807234	0.500087
H219	H	0.666103	0.415461	0.000098
H220	H	1.166103	0.915461	0.500098
H221	H	0.609607	0.359346	-0.075431
H222	H	1.109607	0.859346	0.424569
H223	H	0.609611	0.359334	0.075636
H224	H	1.109611	0.859334	0.575636
H225	H	0.730550	0.312885	-0.075460
H226	H	1.230550	0.812885	0.424540
H227	H	0.730570	0.312879	0.075620
H228	H	1.230570	0.812879	0.575620
