data_functionalizedCrystal
_audit_creation_method	'MofGen! by Chris Wilmer'
_symmetry_space_group_name_H-M	'P1'
_symmetry_Int_Tables_number	1
_symmetry_cell_setting	triclinic
loop_
_symmetry_equiv_pos_as_xyz
  x,y,z
_cell_length_a	15.995292
_cell_length_b	14.472311
_cell_length_c	15.995292
_cell_angle_alpha	90.006466
_cell_angle_beta	83.468616
_cell_angle_gamma	90.005304
loop_
_atom_site_label
_atom_site_type_symbol
_atom_site_fract_x
_atom_site_fract_y
_atom_site_fract_z
O1	O	1.110992	0.076859	0.107704
O2	O	1.610992	0.576859	0.607704
O3	O	0.867208	0.076855	0.121083
O4	O	1.367208	0.576855	0.621083
O5	O	0.995789	0.076859	-0.007499
O6	O	1.495789	0.576859	0.492501
O7	O	0.982411	0.076856	0.236286
O8	O	1.482411	0.576856	0.736286
O9	O	0.995780	-0.076823	-0.007515
O10	O	1.495780	0.423177	0.492485
O11	O	0.867199	-0.076827	0.121066
O12	O	1.367199	0.423173	0.621066
O13	O	1.110983	-0.076823	0.107688
O14	O	1.610983	0.423177	0.607688
Cu15	Cu	0.989090	-0.090857	0.114376
Cu16	Cu	1.489090	0.409143	0.614376
Cu17	Cu	0.989101	0.090889	0.114395
Cu18	Cu	1.489101	0.590889	0.614395
O19	O	0.982402	-0.076826	0.236269
O20	O	1.482402	0.423174	0.736269
C21	C	0.836008	0.000013	0.120530
C22	C	1.336008	0.500013	0.620530
C23	C	0.743055	0.000012	0.118898
C24	C	1.243055	0.500012	0.618898
N25	N	0.989089	-0.218688	0.114362
N26	N	1.489089	0.281312	0.614362
C27	C	0.989102	-0.592779	0.114388
C28	C	1.489102	-0.092779	0.614388
C29	C	1.058126	-0.553583	0.045817
C30	C	1.558126	-0.053583	0.545817
C31	C	1.057946	-0.446495	0.045564
C32	C	1.557946	0.053505	0.545564
C33	C	0.989096	-0.407188	0.114375
C34	C	1.489096	0.092812	0.614375
C35	C	0.901741	-0.446081	0.095312
C36	C	1.401741	0.053919	0.595312
C37	C	0.902149	-0.553202	0.094827
C38	C	1.402149	-0.053202	0.594827
C39	C	1.006645	-0.553285	0.202226
C40	C	1.506645	-0.053285	0.702226
C41	C	1.008629	-0.446156	0.201637
C42	C	1.508629	0.053844	0.701637
C43	C	0.989087	-0.302300	0.114369
C44	C	1.489087	0.197700	0.614369
C45	C	0.989104	-0.697668	0.114393
C46	C	1.489104	-0.197668	0.614393
C47	C	0.405318	0.000022	0.112896
C48	C	0.905318	0.500022	0.612896
C49	C	0.428611	0.000364	0.205703
C50	C	0.928611	0.500364	0.705703
C51	C	0.525286	0.000014	0.207467
C52	C	1.025286	0.500014	0.707467
C53	C	0.572873	0.000018	0.115874
C54	C	1.072873	0.500018	0.615874
C55	C	0.543776	-0.087738	0.069466
C56	C	1.043776	0.412262	0.569466
C57	C	0.446986	-0.087808	0.068349
C58	C	0.946986	0.412192	0.568349
C59	C	0.447141	0.086957	0.066472
C60	C	0.947141	0.586957	0.566472
C61	C	0.543633	0.088113	0.069911
C62	C	1.043633	0.588113	0.569911
C63	C	0.667569	0.000012	0.117552
C64	C	1.167569	0.500012	0.617552
C65	C	0.310622	0.000022	0.111215
C66	C	0.810622	0.500022	0.611215
C67	C	1.142183	0.000021	0.108240
C68	C	1.642183	0.500021	0.608240
C69	C	1.235136	0.000028	0.109873
C70	C	1.735136	0.500028	0.609873
C71	C	0.995240	0.000020	-0.038703
C72	C	1.495240	0.500020	0.461297
C73	C	0.993608	0.000027	-0.131655
C74	C	1.493608	0.500027	0.368345
N75	N	0.989109	0.218720	0.114402
N76	N	1.489109	0.718720	0.614402
C77	C	0.987607	0.000018	-0.469393
C78	C	1.487607	0.500018	0.030607
C79	C	1.080413	-0.000323	-0.446100
C80	C	1.580413	0.499677	0.053900
C81	C	1.082177	0.000026	-0.349424
C82	C	1.582177	0.500026	0.150576
C83	C	0.990584	0.000022	-0.301837
C84	C	1.490584	0.500022	0.198163
C85	C	0.944190	0.087778	-0.330919
C86	C	1.444190	0.587778	0.169081
C87	C	0.943073	0.087848	-0.427710
C88	C	1.443073	0.587848	0.072290
C89	C	0.941168	-0.086917	-0.427585
C90	C	1.441168	0.413083	0.072415
C91	C	0.944607	-0.088073	-0.331093
C92	C	1.444607	0.411927	0.168907
C93	C	0.992263	0.000027	-0.207141
C94	C	1.492263	0.500027	0.292859
C95	C	0.985926	0.000019	-0.564088
C96	C	1.485926	0.500019	-0.064088
C97	C	0.982951	0.000014	0.267473
C98	C	1.482951	0.500014	0.767473
C99	C	0.984583	0.000013	0.360426
C100	C	1.484583	0.500013	0.860426
H101	H	1.122882	-0.420198	0.056913
H102	H	1.622882	0.079802	0.556913
Br103	Br	0.399932	0.197821	0.114839
Br104	Br	0.899932	0.697821	0.614839
Br105	Br	0.814064	-0.403652	0.176338
Br106	Br	1.314064	0.096348	0.676338
Br107	Br	0.875326	-0.401384	-0.010240
Br108	Br	1.375326	0.098616	0.489760
Br109	Br	1.039255	-0.403788	-0.063080
Br110	Br	1.539255	0.096212	0.436920
Br111	Br	1.110550	-0.598289	0.232767
Br112	Br	1.610550	-0.098289	0.732767
Br113	Br	0.827310	-0.087910	-0.450878
Br114	Br	1.327310	0.412090	0.049122
H115	H	1.123280	-0.579336	0.056982
H116	H	1.623280	-0.079336	0.556982
H117	H	1.047083	-0.580513	-0.018999
H118	H	1.547083	-0.080513	0.481001
Br119	Br	0.577188	-0.196598	0.123155
Br120	Br	1.077188	0.303402	0.623155
Br121	Br	0.596901	-0.093171	-0.042879
Br122	Br	1.096901	0.406829	0.457121
Br123	Br	1.115732	-0.403781	0.225758
Br124	Br	1.615732	0.096219	0.725758
H125	H	0.433162	0.087553	-0.001840
H126	H	0.933162	0.587553	0.498160
Br127	Br	0.876372	-0.594867	-0.011940
Br128	Br	1.376372	-0.094867	0.488060
H129	H	0.961611	-0.419398	0.255054
H130	H	1.461611	0.080602	0.755054
Br131	Br	1.139717	0.103982	-0.494464
Br132	Br	1.639717	0.603982	0.005536
Br133	Br	0.813971	-0.596427	0.174903
Br134	Br	1.313971	-0.096427	0.674903
Br135	Br	0.574618	0.196325	0.126200
Br136	Br	1.074618	0.696325	0.626200
H137	H	0.956311	-0.578638	0.253255
H138	H	1.456311	-0.078638	0.753255
H139	H	0.544309	0.062923	0.243807
H140	H	1.044309	0.562923	0.743807
Br141	Br	1.143105	0.105063	-0.318742
Br142	Br	1.643105	0.605063	0.181258
H143	H	0.576617	0.093416	0.003058
H144	H	1.076617	0.593416	0.503058
Br145	Br	0.381944	0.105261	0.265343
Br146	Br	0.881944	0.605261	0.765343
Br147	Br	0.989551	-0.197781	-0.474775
Br148	Br	1.489551	0.302219	0.025225
Br149	Br	0.380224	-0.103937	0.264991
Br150	Br	0.880224	0.396063	0.764991
Br151	Br	0.402266	-0.197147	0.121898
Br152	Br	0.902266	0.302853	0.621898
Br153	Br	0.555949	-0.105020	0.268382
Br154	Br	1.055949	0.394980	0.768382
Br155	Br	1.142713	-0.104838	-0.317730
Br156	Br	1.642713	0.395162	0.182270
Br157	Br	0.422751	-0.094506	-0.045060
Br158	Br	0.922751	0.405494	0.454940
H159	H	1.116182	-0.063257	-0.474111
H160	H	1.616182	0.436743	0.025889
H161	H	0.975211	0.153451	-0.454526
H162	H	1.475211	0.653451	0.045474
H163	H	0.875027	0.091821	-0.442245
H164	H	1.375027	0.591821	0.057755
H165	H	0.876790	0.091038	-0.299037
H166	H	1.376790	0.591038	0.200963
H167	H	0.976415	0.153089	-0.310859
H168	H	1.476415	0.653089	0.189141
Br169	Br	1.000904	-0.196285	-0.300167
Br170	Br	1.500904	0.303715	0.199833
H171	H	0.877753	-0.093376	-0.298110
H172	H	1.377753	0.406624	0.201890
