data_functionalizedCrystal
_audit_creation_method	'MofGen! by Chris Wilmer'
_symmetry_space_group_name_H-M	'P1'
_symmetry_Int_Tables_number	1
_symmetry_cell_setting	triclinic
loop_
_symmetry_equiv_pos_as_xyz
  x,y,z
_cell_length_a	13.635800
_cell_length_b	15.866433
_cell_length_c	19.551833
_cell_angle_alpha	113.142465
_cell_angle_beta	78.336523
_cell_angle_gamma	77.342831
loop_
_atom_site_label
_atom_site_type_symbol
_atom_site_fract_x
_atom_site_fract_y
_atom_site_fract_z
V1	V	2.014410	-0.133811	-0.252333
O2	O	1.996669	0.005395	-0.212321
O3	O	2.001201	-0.264329	-0.284469
O4	O	1.985622	-0.132207	-0.346935
O5	O	2.012355	-0.127642	-0.149423
V6	V	2.255394	-0.117107	-0.235910
O7	O	2.146744	-0.170453	-0.288357
O8	O	2.348159	-0.080465	-0.199886
O9	O	2.157000	0.013411	-0.203774
O10	O	2.331834	-0.256313	-0.275922
O11	O	2.316147	-0.123276	-0.338820
O12	O	2.172579	-0.118711	-0.141308
V13	V	2.514410	-0.133811	-0.252333
O14	O	2.496669	0.005395	-0.212321
O15	O	2.501201	-0.264329	-0.284469
O16	O	2.485622	-0.132207	-0.346935
O17	O	2.512355	-0.127642	-0.149423
V18	V	2.755394	-0.117107	-0.235910
O19	O	2.646744	-0.170453	-0.288357
O20	O	2.848159	-0.080465	-0.199886
O21	O	2.657000	0.013411	-0.203774
O22	O	2.831834	-0.256313	-0.275922
O23	O	2.816147	-0.123276	-0.338820
O24	O	2.672579	-0.118711	-0.141308
C25	C	1.926524	-0.296132	-0.289226
C26	C	1.956336	-0.402835	-0.316132
C27	C	1.906651	-0.127596	-0.368906
C28	C	1.923828	-0.127149	-0.446466
C29	C	2.016654	-0.567231	-0.421645
C30	C	1.988639	-0.466966	-0.396355
C31	C	1.952033	-0.438952	-0.261166
C32	C	1.980040	-0.539217	-0.286445
C33	C	2.012351	-0.603349	-0.366685
C34	C	1.975737	-0.575334	-0.231485
C35	C	2.003748	-0.675591	-0.256762
C36	C	2.036062	-0.739729	-0.336998
C37	C	2.040362	-0.703605	-0.391962
C38	C	1.943433	-0.511201	-0.151245
C39	C	1.939130	-0.547319	-0.096285
C40	C	1.967134	-0.647576	-0.121562
C41	C	1.999448	-0.711715	-0.201798
C42	C	1.962834	-0.683700	-0.066598
C43	C	1.990845	-0.783956	-0.091875
C44	C	2.027459	-0.811971	-0.227075
C45	C	2.063349	0.045209	-0.199016
C46	C	2.023155	0.151911	-0.172116
C47	C	2.023190	-0.131756	-0.487701
C48	C	2.039330	-0.131336	-0.560577
C49	C	1.956108	-0.126327	-0.592223
C50	C	1.856730	-0.121713	-0.550977
C51	C	1.840590	-0.122124	-0.478099
C52	C	1.929102	-0.178518	-0.724981
C53	C	1.945247	-0.178113	-0.797860
C54	C	2.005885	-0.125054	-0.817002
C55	C	2.050395	-0.072414	-0.763260
C56	C	2.034255	-0.072825	-0.690382
C57	C	1.973599	-0.125880	-0.671246
C58	C	2.122754	-0.129205	-0.937257
C59	C	2.138888	-0.128778	-1.010132
C60	C	1.956288	-0.119165	-1.000534
C61	C	1.940153	-0.119582	-0.927656
C62	C	2.023391	-0.124607	-0.896024
C63	C	2.426524	-0.296132	-0.289226
C64	C	2.456336	-0.402835	-0.316132
C65	C	2.083222	-0.123324	-0.119334
C66	C	2.055664	-0.123767	-0.041772
C67	C	2.406651	-0.127596	-0.368906
C68	C	2.423828	-0.127149	-0.446466
C69	C	2.563349	0.045209	-0.199016
C70	C	2.523155	0.151911	-0.172116
C71	C	2.583222	-0.123324	-0.119334
C72	C	2.555664	-0.123767	-0.041772
C73	C	2.561652	-0.457855	-0.333523
C74	C	2.589681	-0.558116	-0.358815
C75	C	2.512392	-0.603356	-0.366710
C76	C	2.407068	-0.548330	-0.349319
C77	C	2.379042	-0.448071	-0.324033
C78	C	2.523195	-0.131741	-0.487688
C79	C	2.539345	-0.131307	-0.560560
C80	C	2.456129	-0.126289	-0.592211
C81	C	2.356753	-0.121694	-0.550983
C82	C	2.340602	-0.122120	-0.478110
C83	C	2.590334	0.206930	-0.154726
C84	C	2.552576	0.307191	-0.129437
C85	C	2.447642	0.352430	-0.121544
C86	C	2.380459	0.297405	-0.138933
C87	C	2.418214	0.197147	-0.164216
C88	C	2.456648	-0.128775	-0.010136
C89	C	2.430735	-0.129180	0.062746
C90	C	2.503843	-0.124584	0.103988
C91	C	2.602866	-0.119573	0.072348
C92	C	2.628774	-0.119161	-0.000530
H93	H	2.053756	-0.864191	-0.292414
C94	C	2.646691	-0.408112	-0.324849
N95	N	2.710751	-0.370653	-0.318323
C96	C	2.344306	0.136634	-0.183353
N97	N	2.288631	0.091061	-0.197766
C98	C	2.052193	-0.637783	-0.509913
N99	N	2.078962	-0.690922	-0.576394
H100	H	1.987338	-0.813363	-0.047121
H101	H	2.090970	-0.135844	-0.461949
C102	C	1.830852	-0.114532	-0.882304
N103	N	1.748521	-0.110730	-0.848144
H104	H	2.675780	0.170110	-0.161150
H105	H	2.482738	-0.124932	0.163324
C106	C	1.864747	-0.113674	-1.035347
N107	N	1.795798	-0.109544	-1.061574
H108	H	2.416912	0.434068	-0.100956
H109	H	2.607295	0.351979	-0.115283
C110	C	2.705541	-0.618625	-0.377933
N111	N	2.792806	-0.664197	-0.392330
H112	H	2.350102	-0.133260	0.088496
C113	C	2.075900	-0.774157	-0.480230
N114	N	2.102670	-0.827296	-0.546711
H115	H	2.344147	-0.585179	-0.355751
C116	C	2.231292	-0.117087	-0.432780
N117	N	2.148956	-0.113298	-0.398642
H118	H	2.190530	-0.133293	-0.911499
C119	C	2.648668	-0.136368	-0.605900
N120	N	2.731011	-0.140182	-0.640049
C121	C	2.263181	-0.387557	-0.304892
N122	N	2.175910	-0.341983	-0.290475
C123	C	2.117098	-0.014044	-0.784308
N124	N	2.167340	0.029918	-0.800166
C125	C	1.896280	-0.236014	-0.856967
N126	N	1.859392	-0.279625	-0.901485
C127	C	2.543238	-0.713644	-0.394522
N128	N	2.566477	-0.796713	-0.415467
H129	H	2.120247	-0.135093	-0.594158
H130	H	2.058871	-0.821364	-0.357578
C131	C	2.083202	-0.014911	-0.631265
N132	N	2.120065	0.028717	-0.586736
C133	C	2.376207	-0.133824	-0.055486
N134	N	2.315610	-0.137620	-0.089637
H135	H	1.879713	-0.221718	-0.709401
H136	H	1.992165	-0.437566	-0.441117
C137	C	1.916483	-0.368396	-0.172904
N138	N	1.889701	-0.315253	-0.106423
H139	H	2.289003	-0.117608	-0.576765
C140	C	2.265031	0.347184	-0.130246
N141	N	2.178091	0.384681	-0.123704
C142	C	2.614748	-0.137254	-0.452884
N143	N	2.683711	-0.141400	-0.426671
C144	C	2.473912	-0.125821	-0.672375
N145	N	2.487314	-0.125471	-0.732756
H146	H	2.662383	-0.115828	0.105939
H147	H	1.920631	-0.429567	-0.130668
H148	H	1.912824	-0.495089	-0.030954
H149	H	2.709406	-0.115089	-0.026284
H150	H	1.936534	-0.631470	-0.001267
H151	H	1.788970	-0.117631	-0.576746
H152	H	1.759674	-0.118364	-0.444522
H153	H	2.219801	-0.132523	-1.043702
