data_functionalizedCrystal
_audit_creation_method	'MofGen! by Chris Wilmer'
_symmetry_space_group_name_H-M	'P1'
_symmetry_Int_Tables_number	1
_symmetry_cell_setting	triclinic
loop_
_symmetry_equiv_pos_as_xyz
  x,y,z
_cell_length_a	14.853567
_cell_length_b	10.268362
_cell_length_c	14.853567
_cell_angle_alpha	90.001489
_cell_angle_beta	83.634930
_cell_angle_gamma	90.001612
loop_
_atom_site_label
_atom_site_type_symbol
_atom_site_fract_x
_atom_site_fract_y
_atom_site_fract_z
O1	O	1.196365	0.108199	0.117705
O2	O	1.696365	0.608199	0.617705
O3	O	0.933905	0.108220	0.131726
O4	O	1.433905	0.608220	0.631726
O5	O	1.072146	0.108213	-0.006514
O6	O	1.572146	0.608213	0.493486
O7	O	1.058124	0.108206	0.255945
O8	O	1.558124	0.608206	0.755945
O9	O	1.072134	-0.108388	-0.006520
O10	O	1.572134	0.391612	0.493480
O11	O	0.933893	-0.108380	0.131721
O12	O	1.433893	0.391620	0.631721
O13	O	1.196353	-0.108401	0.117699
O14	O	1.696353	0.391599	0.617699
Cu15	Cu	1.065122	-0.128168	0.124709
Cu16	Cu	1.565122	0.371832	0.624709
Cu17	Cu	1.065136	0.127987	0.124716
Cu18	Cu	1.565136	0.627987	0.624716
O19	O	1.058112	-0.108394	0.255940
O20	O	1.558112	0.391606	0.755940
C21	C	0.900311	-0.000077	0.131088
C22	C	1.400311	0.499923	0.631088
C23	C	0.800227	-0.000069	0.129184
C24	C	1.300227	0.499931	0.629184
N25	N	1.065118	-0.308334	0.124704
N26	N	1.565118	0.191666	0.624704
C27	C	0.387693	-0.000096	0.039019
C28	C	0.887693	0.499904	0.539019
C29	C	0.366412	-0.000099	0.203251
C30	C	0.866412	0.499901	0.703251
C31	C	0.460446	-0.000094	0.205041
C32	C	0.960446	0.499906	0.705041
C33	C	0.518108	-0.000089	0.123819
C34	C	1.018108	0.499911	0.623819
C35	C	0.481736	-0.000088	0.040806
C36	C	0.981736	0.499912	0.540806
C37	C	0.496825	-0.000083	0.288053
C38	C	0.996825	0.499917	0.788053
C39	C	0.590864	-0.000077	0.289846
C40	C	1.090864	0.499923	0.789846
C41	C	0.648528	-0.000081	0.208623
C42	C	1.148528	0.499919	0.708623
C43	C	0.612150	-0.000081	0.125607
C44	C	1.112150	0.499919	0.625607
C45	C	0.669812	-0.000075	0.044384
C46	C	1.169812	0.499925	0.544384
C47	C	0.633437	-0.000085	-0.038633
C48	C	1.133437	0.499915	0.461367
C49	C	0.539399	-0.000091	-0.040417
C50	C	1.039399	0.499909	0.459583
C51	C	0.742565	-0.000074	0.210407
C52	C	1.242565	0.499926	0.710407
C53	C	0.763855	-0.000067	0.046172
C54	C	1.263855	0.499933	0.546172
C55	C	1.065132	-0.574005	0.124714
C56	C	1.565132	-0.074005	0.624714
C57	C	1.065121	-0.426167	0.124711
C58	C	1.565121	0.073833	0.624711
C59	C	1.229947	-0.000101	0.118337
C60	C	1.729947	0.499899	0.618337
C61	C	1.330031	-0.000101	0.120241
C62	C	1.830031	0.499899	0.620241
C63	C	1.071504	-0.000083	-0.040106
C64	C	1.571504	0.499917	0.459894
C65	C	1.069601	-0.000072	-0.140189
C66	C	1.569601	0.499928	0.359811
N67	N	1.065147	0.308153	0.124714
N68	N	1.565147	0.808153	0.624714
C69	C	0.979435	-0.000090	-0.552723
C70	C	1.479435	0.499910	-0.052723
C71	C	1.143668	-0.000103	-0.574004
C72	C	1.643668	0.499897	-0.074004
C73	C	1.145458	-0.000095	-0.479971
C74	C	1.645458	0.499905	0.020029
C75	C	1.064235	-0.000087	-0.422309
C76	C	1.564235	0.499913	0.077691
C77	C	0.981223	-0.000086	-0.458680
C78	C	1.481223	0.499914	0.041320
C79	C	1.228469	-0.000109	-0.443591
C80	C	1.728469	0.499891	0.056409
C81	C	1.230262	-0.000103	-0.349552
C82	C	1.730262	0.499897	0.150448
C83	C	1.149039	-0.000085	-0.291889
C84	C	1.649039	0.499915	0.208111
C85	C	1.066023	-0.000083	-0.328266
C86	C	1.566023	0.499917	0.171734
C87	C	0.984800	-0.000075	-0.270604
C88	C	1.484800	0.499925	0.229396
C89	C	0.901783	-0.000063	-0.306979
C90	C	1.401783	0.499937	0.193021
C91	C	0.899999	-0.000068	-0.401017
C92	C	1.399999	0.499932	0.098983
C93	C	1.150823	-0.000080	-0.197851
C94	C	1.650823	0.499920	0.302149
C95	C	0.986588	-0.000071	-0.176561
C96	C	1.486588	0.499929	0.323439
C97	C	1.058754	-0.000095	0.289531
C98	C	1.558754	0.499905	0.789531
C99	C	1.060657	-0.000098	0.389615
C100	C	1.560657	0.499902	0.889615
H101	H	0.810798	-0.000068	-0.019971
H102	H	1.310798	0.499932	0.480029
H103	H	0.620472	-0.000069	0.357443
H104	H	1.120472	0.499931	0.857443
Br105	Br	0.288157	-0.000082	0.313477
Br106	Br	0.788157	0.499918	0.813477
H107	H	0.509774	-0.000130	-0.108005
H108	H	1.009774	0.499870	0.391995
Br109	Br	0.791557	-0.000069	-0.228714
Br110	Br	1.291557	0.499931	0.271286
Br111	Br	0.876351	-0.000044	-0.098312
Br112	Br	1.376351	0.499956	0.401688
H113	H	0.772178	-0.000069	0.277998
H114	H	1.272178	0.499931	0.777998
H115	H	0.832411	-0.000060	-0.430643
H116	H	1.332411	0.499940	0.069357
Br117	Br	0.338331	-0.000120	-0.073642
Br118	Br	0.838331	0.499880	0.426358
H119	H	1.218414	-0.000098	-0.168238
H120	H	1.718414	0.499902	0.331762
Br121	Br	0.866774	-0.000055	-0.602086
Br122	Br	1.366774	0.499945	-0.102086
Br123	Br	0.418568	-0.000062	0.398276
Br124	Br	0.918568	0.499938	0.898276
Br125	Br	1.338693	-0.000156	-0.521849
Br126	Br	1.838693	0.499844	-0.021849
H127	H	1.297860	-0.000111	-0.319944
H128	H	1.797860	0.499889	0.180056
H129	H	1.209795	-0.000120	-0.620958
H130	H	1.709795	0.499880	-0.120958
H131	H	0.680397	-0.000071	-0.104764
H132	H	1.180397	0.499929	0.395236
