data_functionalizedCrystal
_audit_creation_method	'MofGen! by Chris Wilmer'
_symmetry_space_group_name_H-M	'P1'
_symmetry_Int_Tables_number	1
_symmetry_cell_setting	triclinic
loop_
_symmetry_equiv_pos_as_xyz
  x,y,z
_cell_length_a	15.944545
_cell_length_b	15.021413
_cell_length_c	15.944551
_cell_angle_alpha	90.000443
_cell_angle_beta	96.502545
_cell_angle_gamma	89.990408
loop_
_atom_site_label
_atom_site_type_symbol
_atom_site_fract_x
_atom_site_fract_y
_atom_site_fract_z
O1	O	1.114514	0.073976	-0.108301
O2	O	0.869964	0.073991	-0.121663
O3	O	0.998917	0.073975	0.007293
O4	O	0.985561	0.073992	-0.237257
O5	O	0.998932	-0.074089	0.007285
O6	O	0.869979	-0.074073	-0.121671
O7	O	1.114529	-0.074088	-0.108309
Zn8	Zn	0.992257	-0.097589	-0.114991
Zn9	Zn	0.992237	0.097492	-0.114981
O10	O	0.985576	-0.074072	-0.237265
C11	C	0.838677	-0.000039	-0.121113
C12	C	0.745431	-0.000034	-0.119453
N13	N	0.992276	-0.230727	-0.114998
C14	C	0.474798	-0.000049	-0.034559
C15	C	0.525387	-0.073052	-0.075492
C16	C	0.409787	-0.000050	-0.113532
C17	C	0.525353	0.072928	-0.075505
C18	C	0.574701	-0.000040	-0.116437
C19	C	0.459148	-0.073113	-0.154444
C20	C	0.459110	0.072933	-0.154446
C21	C	0.509667	-0.000088	-0.195436
C22	C	0.314785	-0.000056	-0.111856
C23	C	0.669700	-0.000041	-0.118119
C24	C	1.051916	-0.470393	-0.055355
C25	C	0.976016	-0.529719	-0.039039
C26	C	0.992257	-0.412333	-0.114987
C27	C	1.068138	-0.529749	-0.131253
C28	C	0.992245	-0.587757	-0.114975
C29	C	0.916318	-0.470353	-0.098634
C30	C	1.008490	-0.470378	-0.190881
C31	C	0.932536	-0.529677	-0.174598
C32	C	0.992265	-0.311276	-0.114992
C33	C	0.992228	-0.688813	-0.114971
C34	C	1.145816	-0.000056	-0.108859
C35	C	1.239062	-0.000055	-0.110519
C36	C	0.998370	-0.000057	0.038583
C37	C	0.996708	-0.000057	0.131829
N38	N	0.992224	0.230630	-0.114967
C39	C	0.986123	-0.000038	-0.268555
C40	C	0.987785	-0.000032	-0.361801
C41	C	0.912803	-0.000040	0.346684
C42	C	0.951773	-0.073047	0.407698
C43	C	0.993701	-0.000050	0.302555
C44	C	0.951778	0.072933	0.407689
C45	C	0.990790	-0.000040	0.467468
C46	C	1.032693	-0.073118	0.362341
C47	C	1.032686	0.072928	0.362326
C48	C	1.071715	-0.000097	0.423322
C49	C	0.995375	-0.000057	0.207553
C50	C	0.989122	-0.000039	0.562469
H51	H	0.459145	-0.000125	0.033453
C52	C	0.564407	0.156303	-0.030427
N53	N	0.593820	0.219099	0.003531
H54	H	0.845655	-0.000109	0.313375
C55	C	1.162505	-0.000160	0.468129
N56	N	1.230887	-0.000213	0.501880
C57	C	1.078884	-0.156595	0.335334
N58	N	1.113671	-0.219471	0.314989
H59	H	0.882023	-0.555543	-0.225025
H60	H	0.430345	-0.134897	-0.187775
C61	C	1.027090	-0.435130	-0.277565
N62	N	1.041109	-0.408578	-0.342855
H63	H	1.132315	-0.555840	-0.145017
C64	C	0.564484	-0.156435	-0.030439
N65	N	0.593930	-0.219236	0.003500
C66	C	0.957464	-0.564956	0.047670
N67	N	0.943501	-0.591501	0.112980
C68	C	0.905557	-0.156422	0.434863
N69	N	0.870741	-0.219217	0.455321
H70	H	0.525159	-0.000126	-0.263501
C71	C	0.419989	0.156321	-0.199455
N72	N	0.390521	0.219137	-0.233350
C73	C	1.120000	-0.435219	0.012809
N74	N	1.171277	-0.408723	0.064151
H75	H	0.852127	-0.444372	-0.084798
H76	H	1.066867	0.134648	0.342200
H77	H	0.917544	0.134659	0.427769
