data_functionalizedCrystal
_audit_creation_method	'MofGen! by Chris Wilmer'
_symmetry_space_group_name_H-M	'P1'
_symmetry_Int_Tables_number	1
_symmetry_cell_setting	triclinic
loop_
_symmetry_equiv_pos_as_xyz
  x,y,z
_cell_length_a	21.395362
_cell_length_b	12.645330
_cell_length_c	12.645324
_cell_angle_alpha	90.031659
_cell_angle_beta	90.041177
_cell_angle_gamma	90.033572
loop_
_atom_site_label
_atom_site_type_symbol
_atom_site_fract_x
_atom_site_fract_y
_atom_site_fract_z
Zn1	Zn	0.957899	-0.421510	0.599990
Zn2	Zn	0.957830	-0.598819	0.422730
Zn3	Zn	0.853119	-0.421620	0.422675
Zn4	Zn	0.853107	-0.598781	0.599886
O5	O	0.905489	-0.510183	0.511320
O6	O	1.045568	-0.445001	0.576542
O7	O	0.943917	-0.575375	0.274375
O8	O	0.867052	-0.273258	0.446216
O9	O	1.045517	-0.575269	0.446310
O10	O	0.944034	-0.273178	0.576489
O11	O	0.866986	-0.445187	0.274334
O12	O	0.765440	-0.445150	0.446115
O13	O	0.867032	-0.575205	0.748247
O14	O	0.765431	-0.575310	0.576312
O15	O	0.944022	-0.444964	0.748323
O16	O	0.943905	-0.747162	0.446209
O17	O	0.866965	-0.747134	0.576365
C18	C	0.742701	-0.510239	0.511197
C19	C	0.673060	-0.510288	0.511169
C20	C	0.640359	-0.578153	0.578861
C21	C	0.574923	-0.578127	0.578908
C22	C	0.542192	-0.510248	0.511245
C23	C	0.574901	-0.442370	0.443548
C24	C	0.640335	-0.442391	0.443511
C25	C	0.438469	-0.501740	0.415809
C26	C	0.373036	-0.501727	0.415845
C27	C	0.340371	-0.510178	0.511362
C28	C	0.373147	-0.518665	0.606846
C29	C	0.438582	-0.518686	0.606808
C30	C	0.471239	-0.510217	0.511279
C31	C	0.236717	-0.578018	0.579111
C32	C	0.171281	-0.577985	0.579160
C33	C	0.171259	-0.442234	0.443790
C34	C	0.236695	-0.442261	0.443751
C35	C	0.269420	-0.510159	0.511409
C36	C	0.905443	-0.785613	0.511305
C37	C	0.905481	-0.903443	0.511334
C38	C	0.857278	-1.071033	0.593468
C39	C	0.857031	-0.948474	0.593204
C40	C	0.887606	-0.948058	0.399602
C41	C	0.887312	-1.070657	0.400100
C42	C	0.971854	-1.070497	0.540027
C43	C	0.971448	-0.947890	0.542469
C44	C	1.068912	-0.510127	0.511444
C45	C	1.138554	-0.510104	0.511497
C46	C	0.905533	-0.510068	0.787825
C47	C	0.905552	-0.510019	0.905655
C48	C	0.905552	-0.233677	0.511358
C49	C	0.905579	-0.115847	0.511374
C50	C	0.905481	-0.510221	0.235890
C51	C	0.905584	-0.509971	0.118061
C52	C	0.953997	-0.428067	0.950585
C53	C	0.954205	-0.428281	1.073146
C54	C	0.923257	-0.621780	1.073547
C55	C	0.923590	-0.621334	0.950949
C56	C	0.839318	-0.481128	0.950788
C57	C	0.839691	-0.478635	1.073396
H58	H	0.868215	-0.918305	0.676051
H59	H	0.263321	-0.387004	0.388623
O60	O	0.473930	-0.527819	0.709791
H61	H	0.503707	-0.599644	0.707982
H62	H	0.868359	-1.100430	0.676587
O63	O	0.932727	-0.909428	0.316360
H64	H	0.919063	-0.942076	0.238191
H65	H	0.823171	-0.401004	0.919862
H66	H	0.943084	-0.344923	0.921123
O67	O	0.792596	-1.111974	0.568641
H68	H	0.794700	-1.164101	0.498086
H69	H	0.889813	-0.684472	0.921222
H70	H	1.002797	-0.446985	0.919818
H71	H	0.807898	-0.919264	0.574218
H72	H	0.838864	-1.099374	0.375833
H73	H	0.826359	-0.396353	1.102492
H74	H	0.346553	-0.525546	0.684626
H75	H	0.801693	-0.533932	1.103963
O76	O	0.993451	-1.111319	0.646123
H77	H	1.040273	-1.078205	0.664507
O78	O	0.931877	-1.109944	0.316303
H79	H	0.953540	-1.041375	0.275597
O80	O	0.791504	-0.560171	0.912284
H81	H	0.814759	-0.619749	0.861250
O82	O	1.021628	-0.907326	0.469013
H83	H	1.000239	-0.854617	0.408897
O84	O	0.135963	-0.651184	0.652116
H85	H	0.106100	-0.704990	0.604516
H86	H	0.666999	-0.633439	0.633956
H87	H	0.548293	-0.633389	0.634035
H88	H	0.263363	-0.633299	0.634208
O89	O	0.135967	-0.369027	0.370797
H90	H	0.084972	-0.380419	0.382188
H91	H	1.003293	-0.447418	1.102515
H92	H	0.972000	-0.645774	0.922392
H93	H	0.839663	-0.917472	0.374896
O94	O	0.337685	-0.492568	0.312866
H95	H	0.371390	-0.486670	0.246443
H96	H	1.007840	-1.099475	0.480235
O97	O	0.473699	-0.492626	0.312780
H98	H	0.439916	-0.486739	0.246393
O99	O	0.539603	-0.369178	0.370543
H100	H	0.488608	-0.380580	0.381925
O101	O	0.877969	-0.704864	1.112074
H102	H	0.842300	-0.667257	1.163485
O103	O	0.675612	-0.369212	0.370478
H104	H	0.641862	-0.322012	0.323425
H105	H	0.984928	-0.918724	0.624699
H106	H	0.943162	-0.345388	1.103246
O107	O	0.986690	-0.654705	1.114249
H108	H	1.005731	-0.591623	1.166169
