data_functionalizedCrystal
_audit_creation_method	'MofGen! by Chris Wilmer'
_symmetry_space_group_name_H-M	'P1'
_symmetry_Int_Tables_number	1
_symmetry_cell_setting	triclinic
loop_
_symmetry_equiv_pos_as_xyz
  x,y,z
_cell_length_a	16.120484
_cell_length_b	14.908780
_cell_length_c	14.908404
_cell_angle_alpha	89.842281
_cell_angle_beta	89.376719
_cell_angle_gamma	83.626566
loop_
_atom_site_label
_atom_site_type_symbol
_atom_site_fract_x
_atom_site_fract_y
_atom_site_fract_z
Zn1	Zn	-0.228763	-1.332179	-0.599685
Zn2	Zn	0.271237	-0.832179	-0.099685
Zn3	Zn	-0.375862	-1.332208	-0.456883
Zn4	Zn	0.124138	-0.832208	0.043117
Zn5	Zn	-0.244890	-1.189527	-0.441469
Zn6	Zn	0.255110	-0.689527	0.058531
Zn7	Zn	-0.376659	-1.173217	-0.598553
Zn8	Zn	0.123341	-0.673217	-0.098553
O9	O	-0.306544	-1.256783	-0.524147
O10	O	0.193456	-0.756783	-0.024147
O11	O	-0.241194	-1.458423	-0.587666
O12	O	0.258806	-0.958423	-0.087666
O13	O	-0.364905	-1.320119	-0.329335
O14	O	0.135095	-0.820119	0.170665
O15	O	-0.126044	-1.215263	-0.456481
O16	O	0.373956	-0.715263	0.043519
O17	O	-0.349267	-1.458444	-0.482750
O18	O	0.150733	-0.958444	0.017250
O19	O	-0.114195	-1.320070	-0.572721
O20	O	0.385805	-0.820070	-0.072721
O21	O	-0.268680	-1.215292	-0.318011
O22	O	0.231320	-0.715292	0.181989
O23	O	-0.269452	-1.061124	-0.455383
O24	O	0.230548	-0.561124	0.044617
O25	O	-0.350624	-1.187466	-0.724206
O26	O	0.149376	-0.687466	-0.224206
O27	O	-0.366262	-1.049141	-0.570791
O28	O	0.133738	-0.549141	-0.070791
O29	O	-0.241966	-1.304255	-0.725038
O30	O	0.258034	-0.804255	-0.225038
O31	O	-0.492675	-1.304304	-0.481652
O32	O	0.007325	-0.804304	0.018348
O33	O	-0.493260	-1.187494	-0.585736
O34	O	0.006740	-0.687494	-0.085736
C35	C	-0.319694	-1.022400	-0.511292
C36	C	0.180306	-0.522400	-0.011292
C37	C	-0.325339	-0.922127	-0.505814
C38	C	0.174661	-0.422127	-0.005814
C39	C	-0.223546	-0.733663	-0.604954
C40	C	0.276454	-0.233663	-0.104954
C41	C	-0.228847	-0.639448	-0.599810
C42	C	0.271153	-0.139448	-0.099810
C43	C	-0.341236	-0.639482	-0.490379
C44	C	0.158764	-0.139482	0.009621
C45	C	-0.335935	-0.733697	-0.495523
C46	C	0.164065	-0.233697	0.004477
C47	C	-0.277089	-0.780784	-0.552813
C48	C	0.222911	-0.280784	-0.052813
C49	C	-0.271793	-0.875000	-0.557961
C50	C	0.228207	-0.375000	-0.057961
C51	C	-0.384178	-0.875032	-0.448526
C52	C	0.115822	-0.375032	0.051474
C53	C	-0.389479	-0.780817	-0.443382
C54	C	0.110521	-0.280817	0.056618
C55	C	-0.523226	-1.244156	-0.535265
C56	C	-0.023226	-0.744156	-0.035265
C57	C	-0.615918	-1.238835	-0.540055
C58	C	-0.115918	-0.738835	-0.040055
C59	C	-0.785625	-1.229124	-0.548820
C60	C	-0.285625	-0.729124	-0.048820
C61	C	-0.826612	-1.284602	-0.499498
C62	C	-0.326612	-0.784602	0.000502
C63	C	-0.921043	-1.279199	-0.504375
C64	C	-0.421043	-0.779199	-0.004375
C65	C	-0.691186	-1.234526	-0.543944
C66	C	-0.191186	-0.734526	-0.043944
C67	C	-0.089012	-1.269483	-0.513008
C68	C	0.410988	-0.769483	-0.013008
C69	C	0.003686	-1.274895	-0.508261
C70	C	0.503686	-0.774895	-0.008261
C71	C	-0.294585	-1.244038	-0.758073
C72	C	0.205415	-0.744038	-0.258073
C73	C	-0.289489	-1.238606	-0.857759
C74	C	0.210511	-0.738606	-0.357759
C75	C	-0.293336	-0.492082	-0.537047
C76	C	0.206664	0.007918	-0.037047
C77	C	-0.287691	-0.592354	-0.542526
C78	C	0.212309	-0.092354	-0.042526
C79	C	-0.318393	-1.269534	-0.291131
C80	C	0.181607	-0.769534	0.208869
C81	C	-0.323244	-1.275153	-0.191444
C82	C	0.176756	-0.775153	0.308556
C83	C	-0.232962	-1.175675	0.007592
C84	C	0.267038	-0.675675	0.507592
C85	C	-0.237517	-1.180952	0.101257
C86	C	0.262483	-0.680952	0.601257
C87	C	-0.336906	-1.290990	0.089554
C88	C	0.163094	-0.790990	0.589554
C89	C	-0.332350	-1.285712	-0.004112
C90	C	0.167650	-0.785712	0.495888
C91	C	-0.280377	-1.228052	-0.045089
C92	C	0.219623	-0.728052	0.454911
C93	C	-0.275827	-1.222770	-0.138756
C94	C	0.224173	-0.722770	0.361244
C95	C	-0.375210	-1.332812	-0.150458
C96	C	0.124790	-0.832812	0.349542
C97	C	-0.379766	-1.338090	-0.056793
C98	C	0.120234	-0.838090	0.443207
H99	H	-0.223878	-0.913337	-0.604611
H100	H	0.276122	-0.413337	-0.104611
H101	H	-0.175635	-0.772002	-0.651606
H102	H	0.324365	-0.272002	-0.151606
H103	H	-0.437387	-0.742467	-0.396735
H104	H	0.062613	-0.242467	0.103265
H105	H	-0.233508	-1.175820	-0.172118
H106	H	0.266492	-0.675820	0.327882
H107	H	-0.790781	-1.336156	-0.453609
H108	H	-0.290781	-0.836156	0.046391
H109	H	-0.821453	-1.177573	-0.594704
H110	H	-0.321453	-0.677573	-0.094704
H111	H	-0.190647	-1.128721	-0.025773
H112	H	0.309353	-0.628721	0.474227
H113	H	-0.198905	-1.138303	0.144147
H114	H	0.301095	-0.638303	0.644147
H115	H	-0.379214	-1.337940	0.122934
H116	H	0.120786	-0.837940	0.622934
H117	H	-0.185244	-0.601086	-0.642266
H118	H	0.314756	-0.101086	-0.142266
H119	H	-0.422078	-1.385037	-0.023416
H120	H	0.077922	-0.885037	0.476584
H121	H	-0.413816	-1.375466	-0.193361
H122	H	0.086184	-0.875466	0.306639
H123	H	-0.389137	-0.601128	-0.443726
H124	H	0.110863	-0.101128	0.056274
H125	H	-0.427783	-0.913407	-0.406076
H126	H	0.072217	-0.413407	0.093924
