data_functionalizedCrystal
_audit_creation_method	'MofGen! by Chris Wilmer'
_symmetry_space_group_name_H-M	'P1'
_symmetry_Int_Tables_number	1
_symmetry_cell_setting	triclinic
loop_
_symmetry_equiv_pos_as_xyz
  x,y,z
_cell_length_a	16.120530
_cell_length_b	16.120297
_cell_length_c	19.077068
_cell_angle_alpha	84.954538
_cell_angle_beta	90.462149
_cell_angle_gamma	90.128140
loop_
_atom_site_label
_atom_site_type_symbol
_atom_site_fract_x
_atom_site_fract_y
_atom_site_fract_z
Zn1	Zn	1.229633	-0.550594	0.356500
Zn2	Zn	1.230988	-0.416574	0.468520
Zn3	Zn	1.098217	-0.403978	0.344610
Zn4	Zn	1.084977	-0.548514	0.467872
O5	O	1.160954	-0.479915	0.409375
O6	O	1.345917	-0.538958	0.376608
O7	O	1.219484	-0.298326	0.447378
O8	O	1.120623	-0.419026	0.247720
O9	O	1.346912	-0.440494	0.458908
O10	O	1.217174	-0.526745	0.256457
O11	O	1.121938	-0.289072	0.356341
O12	O	0.980356	-0.417009	0.355713
O13	O	1.098057	-0.665367	0.457803
O14	O	0.970629	-0.523199	0.446273
O15	O	1.204335	-0.666895	0.375979
O16	O	1.206645	-0.438476	0.566900
O17	O	1.099371	-0.535412	0.566424
C18	C	0.945388	-0.468511	0.399633
C19	C	0.853166	-0.463654	0.395483
C20	C	0.684316	-0.454791	0.387890
C21	C	0.638426	-0.505102	0.430915
C22	C	0.544472	-0.500171	0.426690
C23	C	0.778279	-0.459721	0.392114
C24	C	1.149568	-0.697203	0.418145
C25	C	1.144717	-0.789799	0.421883
C26	C	1.135829	-0.959329	0.428689
C27	C	1.186252	-1.001351	0.389859
C28	C	1.181307	-1.095684	0.393646
C29	C	1.140773	-0.864988	0.424903
C30	C	1.377361	-0.491363	0.419156
C31	C	1.469580	-0.496242	0.423324
C32	C	1.151740	-0.488105	0.592195
C33	C	1.147873	-0.491640	0.670411
C34	C	1.172345	-0.263472	0.400591
C35	C	1.177367	-0.170877	0.396663
C36	C	1.170224	-0.471712	0.225843
C37	C	1.174175	-0.468217	0.147633
C38	C	1.201947	-0.442878	0.707385
C39	C	1.198314	-0.446209	0.780877
C40	C	1.140603	-0.498297	0.817394
C41	C	1.086527	-0.547065	0.780415
C42	C	1.090164	-0.543738	0.706924
C43	C	1.123736	-0.513658	1.037163
C44	C	1.120101	-0.516979	1.110659
C45	C	1.231890	-0.416124	1.111117
C46	C	1.235519	-0.412798	1.037624
C47	C	1.181445	-0.461569	1.000652
N48	N	1.136887	-0.501701	0.892515
N49	N	1.185166	-0.458169	0.925533
H50	H	0.669699	-0.551880	0.470922
H51	H	0.653044	-0.408018	0.347886
H52	H	1.233134	-0.966481	0.353770
H53	H	1.088951	-0.994197	0.464774
H54	H	1.248938	-0.400458	0.677658
Cl55	Cl	1.266299	-0.384908	0.827356
Cl56	Cl	1.047535	-0.582455	1.156564
Cl57	Cl	1.308084	-0.347325	0.991724
Cl58	Cl	1.022185	-0.605045	0.660443
H59	H	1.275915	-0.376419	1.141227
Cl60	Cl	1.055756	-0.574968	0.990693
Cl61	Cl	1.013980	-0.612553	0.826322
