data_functionalizedCrystal
_audit_creation_method	'MofGen! by Chris Wilmer'
_symmetry_space_group_name_H-M	'P1'
_symmetry_Int_Tables_number	1
_symmetry_cell_setting	triclinic
loop_
_symmetry_equiv_pos_as_xyz
  x,y,z
_cell_length_a	25.639242
_cell_length_b	29.839131
_cell_length_c	25.639233
_cell_angle_alpha	90.019585
_cell_angle_beta	90.022166
_cell_angle_gamma	90.036947
loop_
_atom_site_label
_atom_site_type_symbol
_atom_site_fract_x
_atom_site_fract_y
_atom_site_fract_z
Zn1	Zn	0.799215	-0.178962	0.295739
Zn2	Zn	0.799134	-0.254076	0.208302
Zn3	Zn	0.711791	-0.178955	0.208303
Zn4	Zn	0.711732	-0.254059	0.295692
O5	O	0.755468	-0.216513	0.252009
O6	O	0.872370	-0.188935	0.284160
O7	O	0.787539	-0.244115	0.135137
O8	O	0.723447	-0.116089	0.219922
O9	O	0.872310	-0.244122	0.219920
O10	O	0.787677	-0.116094	0.284161
O11	O	0.723369	-0.188924	0.135138
O12	O	0.638618	-0.188908	0.219876
O13	O	0.723346	-0.244093	0.368864
O14	O	0.638575	-0.244087	0.284081
O15	O	0.787619	-0.188919	0.368898
O16	O	0.787482	-0.316941	0.219875
O17	O	0.723268	-0.316929	0.284080
C18	C	0.619626	-0.216495	0.251974
C19	C	0.561512	-0.216499	0.251971
C20	C	0.201135	-0.245293	0.285409
C21	C	0.146531	-0.245295	0.285417
O22	O	0.118282	-0.269755	0.313817
N23	N	0.119229	-0.216525	0.252043
C24	C	0.146535	-0.187748	0.218663
O25	O	0.118299	-0.163276	0.190277
C26	C	0.201138	-0.187743	0.218658
C27	C	0.228437	-0.216518	0.252030
C28	C	0.228434	-0.274065	0.318778
C29	C	0.283034	-0.274063	0.318769
C30	C	0.310336	-0.245288	0.285390
C31	C	0.283037	-0.216516	0.252021
C32	C	0.228443	-0.158963	0.185281
C33	C	0.283050	-0.158961	0.185279
C34	C	0.310349	-0.187736	0.218651
C35	C	0.364940	-0.187739	0.218633
N36	N	0.392241	-0.216509	0.252006
C37	C	0.364939	-0.245283	0.285385
C38	C	0.031864	-0.187759	0.218677
C39	C	-0.022738	-0.187766	0.218679
C40	C	-0.022739	-0.245313	0.285434
C41	C	0.031865	-0.245308	0.285429
C42	C	0.059166	-0.216529	0.252051
C43	C	0.479604	-0.245277	0.285363
C44	C	0.534210	-0.245273	0.285350
C45	C	0.534206	-0.187724	0.218597
C46	C	0.479605	-0.187729	0.218609
C47	C	0.452306	-0.216507	0.251996
O48	O	0.393223	-0.163290	0.190249
O49	O	0.393182	-0.269746	0.313771
C50	C	0.755374	-0.333236	0.251983
C51	C	0.755381	-0.383170	0.251990
C52	C	0.788965	-0.692807	0.218627
C53	C	0.789030	-0.880480	0.218647
O54	O	0.817509	-0.904740	0.190260
N55	N	0.755577	-0.903955	0.252049
C56	C	0.722108	-0.880509	0.285450
O57	O	0.693659	-0.904782	0.313865
C58	C	0.722046	-0.692837	0.285432
C59	C	0.755498	-0.669364	0.252024
C60	C	0.822415	-0.669335	0.185222
C61	C	0.822396	-0.622419	0.185215
C62	C	0.788928	-0.598976	0.218613
C63	C	0.755479	-0.622449	0.252018
C64	C	0.688580	-0.669391	0.318836
C65	C	0.688568	-0.622470	0.318829
C66	C	0.722020	-0.598998	0.285422
C67	C	0.721993	-0.552090	0.285409
N68	N	0.755446	-0.528615	0.252007
C69	C	0.788914	-0.552058	0.218609
C70	C	0.722141	-0.979039	0.285457
C71	C	0.722156	-1.025957	0.285461
C72	C	0.789079	-1.025925	0.218658
C73	C	0.789062	-0.979007	0.218652
C74	C	0.755595	-0.955565	0.252055
C75	C	0.788872	-0.453533	0.218597
C76	C	0.788849	-0.406613	0.218592
C77	C	0.721928	-0.406649	0.285396
C78	C	0.721949	-0.453564	0.285400
C79	C	0.755425	-0.477005	0.251999
O80	O	0.693533	-0.527802	0.313784
O81	O	0.817366	-0.527777	0.190207
C82	C	0.788984	-0.739723	0.218633
C83	C	0.755535	-0.763195	0.252038
C84	C	0.722067	-0.739752	0.285436
C85	C	0.755549	-0.810113	0.252042
C86	C	0.789017	-0.833556	0.218644
C87	C	0.822470	-0.810081	0.185242
C88	C	0.822451	-0.763166	0.185235
C89	C	0.688614	-0.763227	0.318838
C90	C	0.688635	-0.810143	0.318841
C91	C	0.722102	-0.833585	0.285443
C92	C	0.891841	-0.216531	0.252045
C93	C	0.949955	-0.216539	0.252060
C94	C	0.755485	-0.216505	0.388382
C95	C	0.755492	-0.216502	0.446496
C96	C	0.755577	-0.099335	0.252047
C97	C	0.755624	-0.049400	0.252063
C98	C	0.755482	-0.216488	0.116167
C99	C	0.755576	-0.216365	0.058053
C100	C	0.789002	-0.187687	0.806883
C101	C	0.789008	-0.187675	0.861488
O102	O	0.817457	-0.163229	0.889744
N103	N	0.755550	-0.216396	0.888779
C104	C	0.722079	-0.245129	0.861463
O105	O	0.693621	-0.269558	0.889691
C106	C	0.722071	-0.245139	0.806860
C107	C	0.755535	-0.216419	0.779571
C108	C	0.822463	-0.158969	0.779594
C109	C	0.822457	-0.158982	0.724994
C110	C	0.788990	-0.187714	0.697682
C111	C	0.755529	-0.216432	0.724971
C112	C	0.688598	-0.273869	0.779545
C113	C	0.688592	-0.273876	0.724938
C114	C	0.722056	-0.245156	0.697650
C115	C	0.722056	-0.245176	0.643058
N116	N	0.755514	-0.216455	0.615767
C117	C	0.788981	-0.187723	0.643079
C118	C	0.722100	-0.245106	0.976134
C119	C	0.722110	-0.245099	1.030736
C120	C	0.789039	-0.187644	1.030757
C121	C	0.789030	-0.187653	0.976153
C122	C	0.755558	-0.216384	0.948843
C123	C	0.788967	-0.187753	0.528414
C124	C	0.788959	-0.187770	0.473808
C125	C	0.722029	-0.245223	0.473793
C126	C	0.722038	-0.245208	0.528393
C127	C	0.755509	-0.216470	0.555702
O128	O	0.693620	-0.269609	0.614767
O129	O	0.817430	-0.163295	0.614845
H130	H	0.556445	-0.164298	0.191419
O131	O	0.689561	-0.273170	0.554849
C132	C	0.664129	-0.349581	0.571575
C133	C	0.700938	-0.317969	0.541576
H134	H	0.673321	-0.385807	0.560863
H135	H	0.621968	-0.341725	0.560814
H136	H	0.669871	-0.344610	0.615290
H137	H	0.695243	-0.322922	0.497854
H138	H	0.743085	-0.325832	0.552379
O139	O	0.309467	-0.302026	0.351240
C140	C	0.303683	-0.359121	0.417433
C141	C	0.273688	-0.327468	0.380691
H142	H	0.274769	-0.379705	0.441246
H143	H	0.329258	-0.338551	0.444850
H144	H	0.329234	-0.382564	0.393373
H145	H	0.248108	-0.304019	0.404709
H146	H	0.248145	-0.348066	0.353273
O147	O	0.689597	-0.273153	0.447194
C148	C	0.682511	-0.333826	0.385544
C149	C	0.719300	-0.302221	0.415630
H150	H	0.706512	-0.357342	0.360026
H151	H	0.655203	-0.313221	0.359939
H152	H	0.658578	-0.354336	0.414428
H153	H	0.743267	-0.281705	0.386784
H154	H	0.746573	-0.322851	0.441243
O155	O	0.560646	-0.273240	0.317820
C156	C	0.554873	-0.330338	0.384010
C157	C	0.524872	-0.298683	0.347274
H158	H	0.525962	-0.350924	0.407825
H159	H	0.580451	-0.309768	0.411424
H160	H	0.580421	-0.353779	0.359945
H161	H	0.499294	-0.275236	0.371297
H162	H	0.499326	-0.319281	0.319858
H163	H	0.457384	-0.268709	0.312552
O164	O	0.656074	-0.740408	0.351207
C165	C	0.585429	-0.687522	0.358154
C166	C	0.622261	-0.713326	0.321437
H167	H	0.558075	-0.665627	0.334099
H168	H	0.609372	-0.665494	0.385511
H169	H	0.561549	-0.712371	0.382037
H170	H	0.646149	-0.688509	0.297520
H171	H	0.598288	-0.735361	0.294114
O172	O	0.854977	-0.131037	0.698570
C173	C	0.921378	-0.074064	0.704374
C174	C	0.884568	-0.105685	0.734358
H175	H	0.945319	-0.053566	0.733296
H176	H	0.897417	-0.050544	0.678824
H177	H	0.948676	-0.094701	0.678799
H178	H	0.857262	-0.085085	0.759962
H179	H	0.908561	-0.129207	0.759876
O180	O	0.821538	-1.048696	0.186155
C181	C	0.847038	-1.063098	0.097271
C182	C	0.810237	-1.037280	0.134004
H183	H	0.837921	-1.053871	0.055099
H184	H	0.841284	-1.100664	0.102991
H185	H	0.889184	-1.053850	0.106536
H186	H	0.768076	-1.046491	0.124762
H187	H	0.816036	-0.999720	0.128277
O188	O	0.058404	-0.273305	0.317775
C189	C	0.120037	-0.333947	0.324685
C190	C	0.090009	-0.302276	0.287990
H191	H	0.145606	-0.357372	0.300619
H192	H	0.091162	-0.354546	0.348530
H193	H	0.145602	-0.313345	0.352077
H194	H	0.064444	-0.322843	0.260566
H195	H	0.118912	-0.281676	0.264181
H196	H	0.849719	-0.829176	0.158047
O197	O	0.689525	-0.476419	0.317873
C198	C	0.682469	-0.529345	0.388487
C199	C	0.719243	-0.503502	0.351732
H200	H	0.706482	-0.551240	0.415879
H201	H	0.655165	-0.551376	0.364487
H202	H	0.658531	-0.504521	0.412331
H203	H	0.743215	-0.528293	0.327881
H204	H	0.746512	-0.481464	0.375763
O205	O	0.854998	-0.740437	0.152769
C206	C	0.921356	-0.745375	0.086489
C207	C	0.884529	-0.771166	0.123241
H208	H	0.945233	-0.770208	0.062598
H209	H	0.948708	-0.723391	0.110493
H210	H	0.897358	-0.723427	0.059141
H211	H	0.908485	-0.793139	0.150596
H212	H	0.857175	-0.793122	0.099204
H213	H	0.816279	-0.164266	0.953939
O214	O	0.821484	-0.159827	0.447381
C215	C	0.887890	-0.102857	0.453175
C216	C	0.851077	-0.134472	0.483165
H217	H	0.911833	-0.082357	0.482092
H218	H	0.863931	-0.079338	0.427620
H219	H	0.915186	-0.123499	0.427603
H220	H	0.823774	-0.113867	0.508765
H221	H	0.875069	-0.157992	0.508686
O222	O	-0.049346	-0.273221	0.317846
C223	C	-0.133473	-0.298739	0.347415
C224	C	-0.103404	-0.267107	0.310694
H225	H	-0.177184	-0.293814	0.341638
H226	H	-0.122751	-0.290901	0.389602
H227	H	-0.122739	-0.334949	0.338166
H228	H	-0.114122	-0.230886	0.319897
H229	H	-0.114128	-0.274984	0.268519
O230	O	0.854901	-0.131008	0.806142
C231	C	0.862018	-0.070352	0.867810
C232	C	0.825216	-0.101983	0.837776
H233	H	0.838033	-0.046883	0.893402
H234	H	0.885916	-0.049798	0.838940
H235	H	0.889356	-0.090983	0.893353
H236	H	0.797846	-0.081386	0.812232
H237	H	0.801354	-0.122538	0.866674
O238	O	0.656120	-0.832871	0.351345
C239	C	0.589726	-0.827938	0.417588
C240	C	0.626524	-0.802144	0.380811
H241	H	0.565780	-0.803107	0.441413
H242	H	0.613696	-0.849858	0.444992
H243	H	0.562431	-0.849951	0.393556
H244	H	0.653826	-0.780108	0.404801
H245	H	0.602521	-0.780253	0.353406
O246	O	0.854821	-0.599602	0.152710
C247	C	0.861904	-0.546640	0.082136
C248	C	0.825119	-0.572455	0.118907
H249	H	0.837906	-0.524678	0.054804
H250	H	0.885816	-0.571442	0.058234
H251	H	0.889232	-0.524665	0.106178
H252	H	0.797760	-0.594430	0.094906
H253	H	0.801245	-0.547628	0.142811
O254	O	0.821406	-0.159791	0.554960
C255	C	0.828519	-0.099135	0.616630
C256	C	0.791720	-0.130765	0.586591
H257	H	0.804533	-0.075666	0.642219
H258	H	0.852422	-0.078582	0.587762
H259	H	0.855854	-0.119767	0.642175
H260	H	0.764353	-0.110167	0.561045
H261	H	0.767853	-0.151319	0.615486
H262	H	0.816089	-0.387503	0.191385
O263	O	0.058440	-0.159868	0.186219
C264	C	0.120024	-0.153732	0.115606
C265	C	0.089973	-0.185367	0.152339
H266	H	0.145518	-0.174336	0.088197
H267	H	0.145651	-0.130273	0.139624
H268	H	0.091118	-0.133163	0.091780
H269	H	0.118842	-0.205965	0.176172
H270	H	0.064338	-0.208796	0.128291
H271	H	0.816288	-0.164248	1.053004
H272	H	0.694866	-0.268490	1.052950
O273	O	0.689573	-0.273066	0.949687
C274	C	0.623176	-0.330039	0.955441
C275	C	0.659993	-0.298405	0.985453
H276	H	0.599243	-0.350527	0.984345
H277	H	0.647132	-0.353569	0.929897
H278	H	0.595871	-0.309414	0.929857
H279	H	0.687306	-0.318994	1.011065
H280	H	0.636005	-0.274874	1.010965
H281	H	0.661347	-0.297256	0.801754
O282	O	0.689640	-1.048686	0.317958
C283	C	0.623241	-1.043753	0.384197
C284	C	0.660046	-1.017959	0.347425
H285	H	0.599297	-1.018922	0.408022
H286	H	0.647208	-1.065677	0.411600
H287	H	0.595946	-1.065762	0.360159
H288	H	0.687348	-0.995926	0.371420
H289	H	0.636047	-0.996064	0.320020
H290	H	0.661328	-0.297268	0.702705
H291	H	-0.044960	-0.164338	0.191499
H292	H	0.305276	-0.135522	0.158101
O293	O	0.201894	-0.301956	0.351260
C294	C	0.140263	-0.308114	0.421829
C295	C	0.170289	-0.276470	0.385086
H296	H	0.114694	-0.287521	0.449179
H297	H	0.169138	-0.328666	0.445713
H298	H	0.114698	-0.331587	0.397767
H299	H	0.195855	-0.252969	0.409108
H300	H	0.141385	-0.255949	0.361200
O301	O	0.453055	-0.159841	0.186142
C302	C	0.391330	-0.153688	0.115615
C303	C	0.421372	-0.185330	0.152332
H304	H	0.365698	-0.174282	0.088277
H305	H	0.420196	-0.133125	0.091716
H306	H	0.365827	-0.130224	0.139699
H307	H	0.446875	-0.208821	0.128288
H308	H	0.392478	-0.205861	0.176232
H309	H	0.206226	-0.135532	0.158104
O310	O	0.821465	-0.476245	0.186175
C311	C	0.910429	-0.490534	0.160909
C312	C	0.873579	-0.464779	0.197654
H313	H	0.952572	-0.481280	0.170184
H314	H	0.901313	-0.481318	0.118733
H315	H	0.904681	-0.528099	0.166633
H316	H	0.879307	-0.427207	0.191977
H317	H	0.882704	-0.474032	0.239816
O318	O	0.821484	-0.956187	0.186147
C319	C	0.828557	-0.903218	0.115578
C320	C	0.791777	-0.929038	0.152349
H321	H	0.804554	-0.881255	0.088251
H322	H	0.852468	-0.928017	0.091671
H323	H	0.855885	-0.881244	0.139620
H324	H	0.764417	-0.951013	0.128348
H325	H	0.767903	-0.904215	0.176258
O326	O	0.689701	-0.956252	0.317960
C327	C	0.682584	-0.903249	0.388524
C328	C	0.719385	-0.929033	0.351758
H329	H	0.706568	-0.881229	0.415852
H330	H	0.658688	-0.928072	0.412431
H331	H	0.655242	-0.881335	0.364479
H332	H	0.746758	-0.950948	0.375763
H333	H	0.743244	-0.904186	0.327849
H334	H	0.849671	-0.688417	0.158025
O335	O	0.656142	-0.692164	0.351367
C336	C	0.630696	-0.706465	0.440284
C337	C	0.667474	-0.680658	0.403498
H338	H	0.639837	-0.697165	0.482439
H339	H	0.636450	-0.744033	0.434606
H340	H	0.588544	-0.697279	0.431033
H341	H	0.709640	-0.689806	0.412726
H342	H	0.661674	-0.643096	0.409183
H343	H	0.661316	-0.603386	0.346032
H344	H	0.694677	-0.387554	0.312587
