data_functionalizedCrystal
_audit_creation_method	'MofGen! by Chris Wilmer'
_symmetry_space_group_name_H-M	'P1'
_symmetry_Int_Tables_number	1
_symmetry_cell_setting	triclinic
loop_
_symmetry_equiv_pos_as_xyz
  x,y,z
_cell_length_a	17.077404
_cell_length_b	12.759400
_cell_length_c	17.077396
_cell_angle_alpha	90.024468
_cell_angle_beta	90.019501
_cell_angle_gamma	90.013391
loop_
_atom_site_label
_atom_site_type_symbol
_atom_site_fract_x
_atom_site_fract_y
_atom_site_fract_z
Zn1	Zn	1.200108	-0.418260	0.443865
Zn2	Zn	1.200037	-0.593960	0.312608
Zn3	Zn	1.068839	-0.418297	0.312613
Zn4	Zn	1.068830	-0.593898	0.443831
O5	O	1.134453	-0.506104	0.378229
O6	O	1.309945	-0.441578	0.426465
O7	O	1.182608	-0.570700	0.202761
O8	O	1.086286	-0.271271	0.330039
O9	O	1.309893	-0.570664	0.330031
O10	O	1.182728	-0.271244	0.426470
O11	O	1.086218	-0.441641	0.202765
O12	O	0.958991	-0.441580	0.330007
O13	O	1.086269	-0.570558	0.553683
O14	O	0.958984	-0.570594	0.426413
O15	O	1.182719	-0.441517	0.553707
O16	O	1.182598	-0.740973	0.329999
O17	O	1.086201	-0.740927	0.426408
C18	C	0.930506	-0.506085	0.378207
C19	C	0.843256	-0.506102	0.378217
C20	C	0.802282	-0.573381	0.428335
C21	C	0.720302	-0.573383	0.428347
C22	C	0.679296	-0.506111	0.378237
C23	C	0.720275	-0.438825	0.328117
C24	C	0.802254	-0.438818	0.328109
C25	C	0.549405	-0.438846	0.328136
C26	C	0.467421	-0.438854	0.328143
C27	C	0.467453	-0.573410	0.428374
C28	C	0.549432	-0.573404	0.428366
C29	C	0.590405	-0.506119	0.378245
C30	C	1.134412	-0.779071	0.378217
C31	C	1.134466	-0.895848	0.378238
C32	C	1.184659	-0.950616	0.428490
C33	C	1.184695	-1.060340	0.428509
C34	C	1.084345	-1.060518	0.328017
C35	C	1.084305	-0.950796	0.328002
C36	C	1.242598	-0.950514	0.486506
C37	C	1.242634	-1.060238	0.486525
C38	C	1.339198	-0.506124	0.378251
C39	C	1.426447	-0.506132	0.378261
C40	C	1.134501	-0.506026	0.582973
C41	C	1.134521	-0.505993	0.670223
C42	C	1.134516	-0.232071	0.378259
C43	C	1.134543	-0.115294	0.378271
C44	C	1.134451	-0.506105	0.174281
C45	C	1.134583	-0.505842	0.087032
C46	C	1.184744	-0.438796	0.711227
C47	C	1.184754	-0.438761	0.793208
C48	C	1.134543	-0.505930	0.834183
C49	C	1.084315	-0.573130	0.793173
C50	C	1.084302	-0.573158	0.711194
C51	C	1.084347	-0.573066	0.964043
C52	C	1.084360	-0.573039	1.046028
C53	C	1.184798	-0.438669	1.046057
C54	C	1.184785	-0.438698	0.964078
C55	C	1.134558	-0.505900	0.923074
H56	H	0.835663	-0.628165	0.469138
C57	C	1.029096	-0.646996	0.918940
N58	N	0.987486	-0.702684	0.884969
H59	H	0.686945	-0.628169	0.469158
C60	C	1.324790	-1.100413	0.464601
N61	N	1.386666	-1.130671	0.448085
C62	C	0.594537	-0.647412	0.483486
N63	N	0.628509	-0.703155	0.525003
C64	C	0.675166	-0.364822	0.272997
N65	N	0.641191	-0.309084	0.231478
C66	C	1.029203	-1.120971	0.272728
N67	N	0.987681	-1.166503	0.231071
C68	C	1.320610	-0.904481	0.457141
N69	N	1.379367	-0.869808	0.435018
C70	C	0.847325	-0.364809	0.272974
N71	N	0.881271	-0.309060	0.231445
H72	H	1.225634	-0.384103	0.677872
H73	H	0.434089	-0.628193	0.469187
H74	H	1.043430	-0.627815	0.826541
C75	C	1.213187	-1.106181	0.564524
N76	N	1.191004	-1.140787	0.623271
H77	H	0.434036	-0.384062	0.287348
H78	H	1.225652	-0.384045	0.826590
H79	H	0.582763	-0.384046	0.287329
H80	H	1.225675	-0.384010	0.930719
H81	H	1.043428	-0.906205	0.287090
H82	H	1.226272	-0.920705	0.547284
H83	H	1.225694	-0.383950	1.079447
H84	H	1.043473	-0.627731	1.079387
C85	C	1.029054	-0.647082	0.666090
N86	N	0.987438	-0.702762	0.632118
