data_functionalizedCrystal
_audit_creation_method	'MofGen! by Chris Wilmer'
_symmetry_space_group_name_H-M	'P1'
_symmetry_Int_Tables_number	1
_symmetry_cell_setting	triclinic
loop_
_symmetry_equiv_pos_as_xyz
  x,y,z
_cell_length_a	15.625950
_cell_length_b	14.853567
_cell_length_c	13.930277
_cell_angle_alpha	89.999243
_cell_angle_beta	71.933809
_cell_angle_gamma	96.046257
loop_
_atom_site_label
_atom_site_type_symbol
_atom_site_fract_x
_atom_site_fract_y
_atom_site_fract_z
O1	O	1.196198	-0.117782	-0.336453
O2	O	0.933776	-0.131787	-0.245129
O3	O	1.071997	0.006445	-0.293228
O4	O	1.057977	-0.256014	-0.288355
O5	O	1.071977	0.006448	-0.452883
O6	O	0.933757	-0.131784	-0.404785
O7	O	1.196179	-0.117779	-0.496108
Zn8	Zn	1.064965	-0.124781	-0.475795
Zn9	Zn	1.064990	-0.124785	-0.265443
O10	O	1.057958	-0.256011	-0.448010
C11	C	0.900182	-0.131148	-0.313270
C12	C	0.800113	-0.129237	-0.278445
C13	C	0.470851	-0.122995	-0.598933
C14	C	0.376819	-0.121218	-0.566165
C15	C	0.376886	-0.121222	-0.392131
C16	C	0.470920	-0.123004	-0.424885
C17	C	0.517896	-0.123889	-0.528287
C18	C	0.517965	-0.123898	-0.354239
C19	C	0.611991	-0.125675	-0.386990
C20	C	0.658973	-0.126558	-0.490388
C21	C	0.611922	-0.125666	-0.561038
C22	C	0.470988	-0.123006	-0.250837
C23	C	0.518033	-0.123900	-0.180191
C24	C	0.612060	-0.125683	-0.212942
C25	C	0.659042	-0.126566	-0.316340
C26	C	0.659111	-0.126575	-0.142291
C27	C	0.753138	-0.128352	-0.175043
C28	C	0.753069	-0.128343	-0.349091
C29	C	1.071352	0.040035	-0.372831
C30	C	1.069448	0.140119	-0.372161
C31	C	1.229772	-0.118418	-0.427966
C32	C	1.329842	-0.120329	-0.462784
C33	C	1.058603	-0.289601	-0.368404
C34	C	1.060506	-0.389685	-0.369069
N35	N	1.064954	-0.124778	-0.619357
C36	C	0.979295	0.552659	-0.340806
C37	C	1.143505	0.573929	-0.397951
C38	C	1.145295	0.479895	-0.398568
C39	C	1.064084	0.422238	-0.370305
C40	C	0.981083	0.458616	-0.341425
C41	C	1.228294	0.443510	-0.427457
C42	C	1.230087	0.349471	-0.428077
C43	C	1.148875	0.291813	-0.399807
C44	C	1.065871	0.328196	-0.370924
C45	C	0.984660	0.270539	-0.342661
C46	C	0.901655	0.306920	-0.313772
C47	C	0.899871	0.400957	-0.313155
C48	C	1.150659	0.197775	-0.400424
C49	C	0.986447	0.176496	-0.343281
C50	C	1.003783	-0.185970	-1.050341
C51	C	1.126221	-0.063593	-1.092916
C52	C	1.126211	-0.063590	-0.992417
C53	C	1.064986	-0.124779	-0.920874
C54	C	1.003773	-0.185971	-0.949832
C55	C	1.187429	-0.002406	-0.963454
C56	C	1.187422	-0.002401	-0.862949
C57	C	1.126192	-0.063587	-0.791403
C58	C	1.064976	-0.124780	-0.820366
C59	C	1.003751	-0.185969	-0.748824
C60	C	0.942529	-0.247158	-0.777782
C61	C	0.942543	-0.247156	-0.878286
C62	C	1.126178	-0.063589	-0.690900
C63	C	1.003740	-0.185969	-0.648315
N64	N	1.065008	-0.124781	-0.121883
H65	H	0.338516	-0.120511	-0.623700
N66	N	0.889769	0.591884	-0.309647
H67	H	0.885371	0.630425	-0.248930
H68	H	0.885410	0.630381	-0.367356
H69	H	0.338627	-0.120497	-0.307941
H70	H	1.297675	0.319858	-0.451599
N71	N	1.253439	0.063605	-1.040608
H72	H	1.292216	0.102370	-1.007013
H73	H	1.293336	0.029030	-1.096194
N74	N	1.240174	0.158533	-0.431589
H75	H	1.291349	0.209328	-0.449405
H76	H	1.244505	0.119983	-0.373906
N77	N	0.876495	-0.313157	-0.700621
H78	H	0.910985	-0.353140	-0.670920
H79	H	0.836561	-0.278562	-0.645089
N80	N	0.467366	-0.122937	-0.068669
H81	H	0.400661	-0.121673	-0.058639
H82	H	0.476587	-0.179093	-0.033880
H83	H	0.791441	-0.129084	-0.117515
H84	H	1.237271	0.047423	-0.839378
N85	N	1.315885	0.505686	-0.457935
H86	H	1.352083	0.493973	-0.529720
H87	H	1.302089	0.570754	-0.453092
N88	N	0.814072	0.244719	-0.283309
H89	H	0.811163	0.205221	-0.223116
H90	H	0.761261	0.282085	-0.264969
N91	N	1.231093	0.636109	-0.428448
H92	H	1.217366	0.701202	-0.423679
H93	H	1.267270	0.624325	-0.381850
H94	H	0.953881	-0.235794	-0.590067
N95	N	0.876516	-0.313148	-0.909520
H96	H	0.885817	-0.303864	-0.984045
H97	H	0.887002	-0.377125	-0.895597
H98	H	0.791317	-0.129078	-0.433291
H99	H	0.953935	-0.235787	-1.073921
N100	N	1.192243	0.002408	-1.170072
H101	H	1.231016	0.041174	-1.136474
H102	H	1.232141	-0.032177	-1.225645
H103	H	0.832292	0.430588	-0.289635
H104	H	1.176028	-0.013773	-0.667327
H105	H	0.735536	-0.128004	-0.517052
H106	H	0.650170	-0.126401	-0.645238
H107	H	0.394425	-0.121564	-0.224174
N108	N	0.521527	-0.123964	-0.710459
H109	H	0.477458	-0.123133	-0.750249
H110	H	0.567764	-0.068858	-0.730353
H111	H	0.620851	-0.125844	-0.058102
N112	N	0.898858	0.114305	-0.312811
H113	H	0.895945	0.074810	-0.252614
H114	H	0.846055	0.151681	-0.294473
