data_functionalizedCrystal
_audit_creation_method	'MofGen! by Chris Wilmer'
_symmetry_space_group_name_H-M	'P1'
_symmetry_Int_Tables_number	1
_symmetry_cell_setting	triclinic
loop_
_symmetry_equiv_pos_as_xyz
  x,y,z
_cell_length_a	10.654562
_cell_length_b	23.532357
_cell_length_c	9.130313
_cell_angle_alpha	89.993247
_cell_angle_beta	89.996930
_cell_angle_gamma	83.659197
loop_
_atom_site_label
_atom_site_type_symbol
_atom_site_fract_x
_atom_site_fract_y
_atom_site_fract_z
O1	O	1.665258	0.080018	-0.121915
O2	O	1.299537	0.087631	-0.121899
O3	O	1.493459	0.000964	-0.121878
O4	O	1.471337	0.166686	-0.121937
O5	O	1.493456	0.000966	0.121721
O6	O	1.299535	0.087634	0.121700
O7	O	1.665256	0.080021	0.121683
Cu8	Cu	1.482395	0.083828	0.143934
Cu9	Cu	1.482398	0.083825	-0.144150
O10	O	1.471334	0.166689	0.121662
C11	C	1.252756	0.087072	-0.000097
C12	C	1.113368	0.085395	-0.000090
C13	C	1.047861	0.084614	0.132685
C14	C	0.916889	0.083043	0.132661
C15	C	0.916942	0.083036	-0.132924
C16	C	1.047912	0.084603	-0.132898
C17	C	1.047828	0.084621	0.286018
C18	C	0.916857	0.083050	0.285995
C19	C	1.492904	-0.020255	-0.000074
C20	C	1.491240	-0.083485	-0.000060
C21	C	1.480798	-0.475566	-0.132924
C22	C	1.479216	-0.534976	-0.132932
O23	O	1.478357	-0.565699	-0.245861
N24	N	1.478431	-0.564691	-0.000149
C25	C	1.479214	-0.534992	0.132652
O26	O	1.478399	-0.565722	0.245595
C27	C	1.480786	-0.475583	0.132659
C28	C	1.481584	-0.445872	-0.000134
C29	C	1.481594	-0.445854	-0.265706
C30	C	1.483178	-0.386449	-0.265697
C31	C	1.483965	-0.356755	-0.132906
C32	C	1.483168	-0.386466	-0.000125
C33	C	1.481560	-0.445885	0.265458
C34	C	1.483132	-0.386472	0.265454
C35	C	1.483930	-0.356760	0.132661
C36	C	1.485539	-0.297366	0.132675
N37	N	1.486324	-0.267651	-0.000109
C38	C	1.485537	-0.297345	-0.132900
C39	C	1.475909	-0.659755	0.132628
C40	C	1.474346	-0.719164	0.132623
C41	C	1.474346	-0.719143	-0.132963
C42	C	1.475919	-0.659734	-0.132956
C43	C	1.476695	-0.630040	-0.000156
C44	C	1.488865	-0.172590	-0.132871
C45	C	1.490454	-0.113179	-0.132850
C46	C	1.490447	-0.113205	0.132734
C47	C	1.488864	-0.172610	0.132714
C48	C	1.488069	-0.202301	-0.000100
O49	O	1.486394	-0.266605	0.245546
O50	O	1.486336	-0.266607	-0.245823
C51	C	1.712036	0.080580	-0.000122
C52	C	1.851425	0.082257	-0.000139
C53	C	1.471889	0.187908	-0.000145
C54	C	1.473552	0.251137	-0.000169
N55	N	1.482402	0.083829	0.346557
N56	N	1.482401	0.083819	-0.346772
C57	C	1.568292	0.045466	0.423218
C58	C	1.568289	0.045459	0.576555
C59	C	1.396502	0.122184	0.576555
C60	C	1.396500	0.122188	0.423221
C61	C	1.667476	0.001171	0.423219
C62	C	1.667472	0.001164	0.576556
H63	H	0.863632	0.082392	-0.241052
H64	H	1.758214	0.015043	0.375651
H65	H	1.638287	-0.040201	0.624119
H66	H	0.888600	0.041517	0.333589
H67	H	1.763670	0.010923	0.618164
H68	H	1.101246	0.085230	-0.241016
H69	H	1.076070	0.126154	0.333580
H70	H	1.483823	-0.362263	-0.373831
H71	H	1.095350	0.045265	0.344916
H72	H	0.869307	0.122407	0.344845
H73	H	1.491106	-0.088991	-0.240991
H74	H	1.480912	-0.470066	0.373593
H75	H	1.483745	-0.362297	0.373598
H76	H	1.488211	-0.196756	-0.241021
H77	H	1.480949	-0.470025	-0.373846
H78	H	1.491093	-0.089017	0.240849
H79	H	1.476567	-0.635547	-0.241087
H80	H	1.473701	-0.743331	-0.241088
H81	H	1.473715	-0.743351	0.240756
H82	H	1.476545	-0.635582	0.240776
H83	H	1.488226	-0.196803	0.240845
H84	H	1.326551	0.153421	0.360805
H85	H	1.326562	0.153414	0.638992
H86	H	1.647437	-0.042602	0.381616
