data_functionalizedCrystal
_audit_creation_method	'MofGen! by Chris Wilmer'
_symmetry_space_group_name_H-M	'P1'
_symmetry_Int_Tables_number	1
_symmetry_cell_setting	triclinic
loop_
_symmetry_equiv_pos_as_xyz
  x,y,z
_cell_length_a	12.594517
_cell_length_b	12.594516
_cell_length_c	12.759393
_cell_angle_alpha	89.970525
_cell_angle_beta	89.977763
_cell_angle_gamma	90.011616
loop_
_atom_site_label
_atom_site_type_symbol
_atom_site_fract_x
_atom_site_fract_y
_atom_site_fract_z
Zn1	Zn	1.627308	-0.423699	-0.594085
Zn2	Zn	2.127308	0.076301	-0.094085
Zn3	Zn	1.627209	-0.601714	-0.418408
Zn4	Zn	2.127209	-0.101714	0.081592
Zn5	Zn	1.449309	-0.423749	-0.418414
Zn6	Zn	1.949309	0.076251	0.081586
Zn7	Zn	1.449307	-0.601635	-0.594038
Zn8	Zn	1.949307	-0.101635	-0.094038
O9	O	1.538283	-0.512699	-0.506236
O10	O	2.038283	-0.012699	-0.006236
O11	O	1.776241	-0.447325	-0.570798
O12	O	2.276241	0.052675	-0.070798
O13	O	1.603570	-0.578161	-0.271387
O14	O	2.103570	-0.078161	0.228613
O15	O	1.472963	-0.274797	-0.441739
O16	O	1.972963	0.225203	0.058261
O17	O	1.776168	-0.578112	-0.441729
O18	O	2.276168	-0.078112	0.058271
O19	O	1.603738	-0.274760	-0.570804
O20	O	2.103738	0.225240	-0.070804
O21	O	1.472867	-0.447411	-0.271392
O22	O	1.972867	0.052589	0.228608
O23	O	1.300363	-0.447334	-0.441694
O24	O	1.800363	0.052666	0.058306
O25	O	1.472960	-0.577977	-0.741066
O26	O	1.972960	-0.077977	-0.241066
O27	O	1.300362	-0.578026	-0.570724
O28	O	1.800362	-0.078026	-0.070724
O29	O	1.603736	-0.447248	-0.741100
O30	O	2.103736	0.052752	-0.241100
O31	O	1.603568	-0.750649	-0.441683
O32	O	2.103568	-0.250649	0.058317
O33	O	1.472864	-0.750591	-0.570718
O34	O	1.972864	-0.250591	-0.070718
C35	C	1.261742	-0.512678	-0.506205
C36	C	1.761742	-0.012678	-0.006205
C37	C	1.143437	-0.512695	-0.506217
C38	C	1.643437	-0.012695	-0.006217
C39	C	1.074154	-0.441514	-0.436171
C40	C	1.574154	0.058486	0.063829
C41	C	1.003349	-0.538604	-0.410330
C42	C	1.503349	-0.038604	0.089670
C43	C	1.003442	-0.415653	-0.532076
C44	C	1.503442	0.084347	-0.032076
C45	C	1.074191	-0.609835	-0.480326
C46	C	1.574191	-0.109835	0.019674
C47	C	1.074290	-0.486819	-0.602116
C48	C	1.574290	0.013181	-0.102116
C49	C	1.003518	-0.583975	-0.576312
C50	C	1.503518	-0.083975	-0.076312
C51	C	1.538234	-0.789240	-0.506218
C52	C	2.038234	-0.289240	-0.006218
C53	C	1.538310	-0.907546	-0.506245
C54	C	2.038310	-0.407546	-0.006245
C55	C	1.609483	-0.976792	-0.436138
C56	C	2.109483	-0.476792	0.063862
C57	C	1.635495	-1.047486	-0.532032
C58	C	2.135495	-0.547486	-0.032032
C59	C	1.512431	-1.047651	-0.410412
C60	C	2.012431	-0.547651	0.089588
C61	C	1.564372	-0.976681	-0.602190
C62	C	2.064372	-0.476681	-0.102190
C63	C	1.441263	-0.976840	-0.480505
C64	C	1.941263	-0.476840	0.019495
C65	C	1.467239	-1.047502	-0.576465
C66	C	1.967239	-0.547502	-0.076465
C67	C	1.815904	-0.512722	-0.506268
C68	C	2.315904	-0.012722	-0.006268
C69	C	1.934209	-0.512731	-0.506281
C70	C	2.434209	-0.012731	-0.006281
C71	C	1.538359	-0.512598	-0.780270
C72	C	2.038359	-0.012598	-0.280270
C73	C	1.538391	-0.512555	-0.897046
C74	C	2.038391	-0.012555	-0.397046
C75	C	1.538362	-0.235079	-0.506278
C76	C	2.038362	0.264921	-0.006278
C77	C	1.538395	-0.116773	-0.506295
C78	C	2.038395	0.383227	-0.006295
C79	C	1.606515	-0.444424	-1.061653
C80	C	2.106515	0.055576	-0.561653
C81	C	1.606492	-0.444470	-0.951929
C82	C	2.106492	0.055530	-0.451929
C83	C	1.470316	-0.580606	-0.951894
C84	C	1.970316	-0.080606	-0.451894
C85	C	1.470345	-0.580563	-1.061616
C86	C	1.970345	-0.080563	-0.561616
C87	C	1.674613	-0.376326	-1.116530
C88	C	2.174613	0.123674	-0.616530
C89	C	1.742690	-0.308277	-1.061690
C90	C	2.242690	0.191723	-0.561690
C91	C	1.742667	-0.308324	-0.951966
C92	C	2.242667	0.191676	-0.451966
C93	C	1.674568	-0.376420	-0.897081
C94	C	2.174568	0.123580	-0.397081
C95	C	1.538269	-0.512723	-0.233269
C96	C	2.038269	-0.012723	0.266731
C97	C	1.538443	-0.512466	-0.116493
C98	C	2.038443	-0.012466	0.383507
H99	H	0.972309	-0.333581	-0.553884
H100	H	1.472309	0.166419	-0.053884
Cl101	Cl	1.702418	-0.928850	-0.344684
Cl102	Cl	2.202418	-0.428850	0.155316
H103	H	0.972191	-0.560513	-0.329257
H104	H	1.472191	-0.060513	0.170743
H105	H	1.105474	-0.464880	-0.683165
H106	H	1.605474	0.035120	-0.183165
H107	H	1.717602	-1.078520	-0.553831
H108	H	2.217602	-0.578520	-0.053831
Cl109	Cl	1.374369	-1.095143	-0.668135
Cl110	Cl	1.874369	-0.595143	-0.168135
Cl111	Cl	1.314528	-0.928894	-0.446809
Cl112	Cl	1.814528	-0.428894	0.053191
Cl113	Cl	1.478581	-1.095780	-0.285256
Cl114	Cl	1.978581	-0.595780	0.214744
Cl115	Cl	1.121964	-0.736601	-0.446453
Cl116	Cl	1.621964	-0.236601	0.053547
Cl117	Cl	1.598385	-0.928764	-0.727382
Cl118	Cl	2.098385	-0.428764	-0.227382
H119	H	1.674637	-0.376278	-1.205873
H120	H	2.174637	0.123722	-0.705873
Cl121	Cl	0.955928	-0.677038	-0.667810
Cl122	Cl	1.455928	-0.177038	-0.167810
Cl123	Cl	1.828306	-0.222686	-1.130685
Cl124	Cl	2.328306	0.277314	-0.630685
Cl125	Cl	1.828256	-0.222787	-0.883027
Cl126	Cl	2.328256	0.277213	-0.383027
H127	H	1.674563	-0.376461	-0.807737
H128	H	2.174563	0.123539	-0.307737
Cl129	Cl	1.384706	-0.666200	-0.882895
Cl130	Cl	1.884706	-0.166200	-0.382895
Cl131	Cl	1.384766	-0.666104	-1.130563
Cl132	Cl	1.884766	-0.166104	-0.630563
H133	H	1.105169	-0.381378	-0.376863
H134	H	1.605169	0.118622	0.123137
