data_functionalizedCrystal
_audit_creation_method	'MofGen! by Chris Wilmer'
_symmetry_space_group_name_H-M	'P1'
_symmetry_Int_Tables_number	1
_symmetry_cell_setting	triclinic
loop_
_symmetry_equiv_pos_as_xyz
  x,y,z
_cell_length_a	15.944493
_cell_length_b	15.021413
_cell_length_c	10.654541
_cell_angle_alpha	90.004284
_cell_angle_beta	96.020514
_cell_angle_gamma	90.006749
loop_
_atom_site_label
_atom_site_type_symbol
_atom_site_fract_x
_atom_site_fract_y
_atom_site_fract_z
O1	O	1.115494	0.074020	-0.161603
O2	O	0.871053	0.074024	-0.181648
O3	O	0.998895	0.074016	0.011189
O4	O	0.987652	0.074028	-0.354439
O5	O	0.998874	-0.074048	0.011161
O6	O	0.871033	-0.074040	-0.181675
O7	O	1.115473	-0.074044	-0.161630
Zn8	Zn	0.993250	-0.097551	-0.171657
Zn9	Zn	0.993277	0.097530	-0.171621
O10	O	0.987632	-0.074037	-0.354467
C11	C	0.839743	-0.000007	-0.180842
C12	C	0.746481	-0.000006	-0.178386
N13	N	0.993238	-0.230688	-0.171681
C14	C	0.511377	-0.000002	-0.291894
C15	C	0.460455	-0.073011	-0.230697
C16	C	0.575733	-0.000008	-0.173835
C17	C	0.460479	0.072969	-0.230642
C18	C	0.410798	-0.000006	-0.169447
C19	C	0.526039	-0.073077	-0.112670
C20	C	0.526067	0.072968	-0.112632
C21	C	0.475177	-0.000059	-0.051348
C22	C	0.670748	-0.000010	-0.176366
C23	C	0.315787	-0.000010	-0.166907
C24	C	0.934114	-0.470368	-0.260807
C25	C	1.010158	-0.529703	-0.285164
C26	C	0.993259	-0.412295	-0.171650
C27	C	0.917236	-0.529702	-0.147321
C28	C	0.993273	-0.587719	-0.171622
C29	C	1.069341	-0.470324	-0.196063
C30	C	0.976369	-0.470317	-0.058171
C31	C	1.052467	-0.529626	-0.082480
C32	C	0.993250	-0.311238	-0.171669
C33	C	0.993291	-0.688774	-0.171602
C34	C	1.146783	-0.000011	-0.162436
C35	C	1.240046	-0.000007	-0.164892
C36	C	0.998059	-0.000015	0.057962
C37	C	0.995591	-0.000014	0.197373
N38	N	0.993295	0.230668	-0.171587
C39	C	0.988467	-0.000003	-0.401240
C40	C	0.990935	0.000001	-0.540651
C41	C	1.148460	-0.000028	0.227369
C42	C	1.223731	-0.000036	0.307861
C43	C	1.221407	-0.000033	0.438848
C44	C	1.143803	-0.000019	0.489345
C45	C	1.068531	-0.000010	0.408854
C46	C	1.070864	-0.000016	0.277865
C47	C	0.915664	0.000010	0.378858
C48	C	0.917987	0.000001	0.247870
C49	C	0.838060	0.000024	0.429355
C50	C	0.762787	0.000027	0.348863
C51	C	0.765114	0.000023	0.217868
C52	C	0.842715	0.000009	0.167378
H53	H	0.527589	-0.000067	-0.393589
H54	H	0.962048	-0.444212	0.037753
C55	C	1.029478	-0.564949	-0.414780
H56	H	1.079497	-0.599724	-0.404816
H57	H	0.983818	-0.600650	-0.450214
H58	H	1.037049	-0.516205	-0.469271
C59	C	0.421791	0.156345	-0.297997
H60	H	0.393726	0.190722	-0.240296
H61	H	0.465235	0.190951	-0.328445
H62	H	0.382529	0.138790	-0.366802
C63	C	0.866621	-0.435206	-0.362737
H64	H	0.878770	-0.455540	-0.443306
H65	H	0.812723	-0.456407	-0.346258
H66	H	0.866748	-0.371968	-0.361544
H67	H	0.836173	0.000032	0.536012
H68	H	1.141917	-0.000006	0.596003
C69	C	0.421731	-0.156385	-0.298056
H70	H	0.393669	-0.190760	-0.240349
H71	H	0.382478	-0.138837	-0.366856
H72	H	0.465167	-0.191003	-0.328507
C73	C	1.156221	-0.435249	-0.224004
H74	H	1.192492	-0.484066	-0.235613
H75	H	1.149922	-0.400055	-0.298468
H76	H	1.179855	-0.399995	-0.155151
C77	C	0.830379	-0.564927	-0.119522
H78	H	0.788421	-0.544625	-0.182954
H79	H	0.831148	-0.628160	-0.118941
H80	H	0.817975	-0.543708	-0.039525
C81	C	0.845275	0.000006	0.023297
H82	H	0.789333	0.000008	-0.017413
H83	H	0.874047	0.051633	-0.000789
H84	H	0.874016	-0.051640	-0.000799
H85	H	0.459123	-0.000104	0.050424
C86	C	1.120113	-0.564565	0.019392
H87	H	1.174065	-0.544123	0.001908
H88	H	1.108569	-0.543332	0.099788
H89	H	1.119446	-0.627804	0.019305
C90	C	0.564574	-0.156549	-0.045387
H91	H	0.623998	-0.156057	-0.047424
H92	H	0.551964	-0.156765	0.039793
H93	H	0.541543	-0.208327	-0.087046
C94	C	0.564812	0.156347	-0.045329
H95	H	0.542263	0.208171	-0.087406
H96	H	0.551802	0.156870	0.039656
H97	H	0.624281	0.155451	-0.046745
H98	H	1.150360	-0.000042	0.120714
C99	C	1.309090	-0.000056	0.252312
H100	H	1.299697	-0.000065	0.162773
H101	H	1.340129	0.051572	0.279945
H102	H	1.340097	-0.051701	0.279938
H103	H	1.282700	-0.000034	0.504386
C104	C	0.677434	0.000041	0.404411
H105	H	0.686831	0.000041	0.493950
H106	H	0.646417	0.051674	0.376783
H107	H	0.646401	-0.051599	0.376787
C108	C	0.682314	0.000032	0.129337
H109	H	0.635768	0.000036	0.178176
H110	H	0.680056	0.051663	0.077615
H111	H	0.680030	-0.051610	0.077616
