data_functionalizedCrystal
_audit_creation_method	'MofGen! by Chris Wilmer'
_symmetry_space_group_name_H-M	'P1'
_symmetry_Int_Tables_number	1
_symmetry_cell_setting	triclinic
loop_
_symmetry_equiv_pos_as_xyz
  x,y,z
_cell_length_a	10.540535
_cell_length_b	10.540539
_cell_length_c	9.016244
_cell_angle_alpha	90.000067
_cell_angle_beta	89.995024
_cell_angle_gamma	95.475433
loop_
_atom_site_label
_atom_site_type_symbol
_atom_site_fract_x
_atom_site_fract_y
_atom_site_fract_z
O1	O	1.685896	-0.178868	-0.123252
O2	O	1.316483	-0.195730	-0.123272
O3	O	1.509617	-0.002592	-0.123259
O4	O	1.492762	-0.372005	-0.123264
O5	O	1.509589	-0.002596	0.123421
O6	O	1.316454	-0.195734	0.123409
O7	O	1.685868	-0.178872	0.123429
Cu8	Cu	1.501158	-0.187304	0.145943
Cu9	Cu	1.501192	-0.187298	-0.145785
O10	O	1.492733	-0.372010	0.123417
C11	C	1.269165	-0.194469	0.000066
C12	C	1.128217	-0.190689	0.000058
C13	C	1.091546	-0.049675	0.000066
C14	C	0.944946	-0.045698	0.000641
C15	C	0.918865	-0.255062	0.140668
C16	C	1.065630	-0.258062	0.140771
C17	C	1.065546	-0.260109	-0.139761
C18	C	0.919200	-0.253588	-0.141594
C19	C	1.508339	0.044709	0.000078
C20	C	1.504557	0.185657	0.000070
C21	C	1.733185	-0.180133	0.000088
C22	C	1.874134	-0.183913	0.000086
C23	C	1.494011	-0.419311	0.000076
C24	C	1.497793	-0.560259	0.000074
N25	N	1.501144	-0.187306	0.351129
C26	C	1.359640	0.369081	-0.000491
C27	C	1.363474	0.222463	0.000064
C28	C	1.572437	0.247313	0.140941
C29	C	1.567622	0.393857	0.141059
C30	C	1.570524	0.394381	-0.139463
C31	C	1.571823	0.247399	-0.141325
N32	N	1.501216	-0.187286	-0.350972
C33	C	1.397513	-0.290276	0.586155
C34	C	1.397742	-0.290661	0.414264
C35	C	1.633867	-0.217438	0.413475
C36	C	1.633302	-0.218167	0.585419
C37	C	1.473370	-0.053868	0.585673
C38	C	1.470325	-0.054733	0.413718
H39	H	0.870153	-0.354461	-0.150521
H40	H	1.303920	0.397682	-0.101512
H41	H	1.309664	0.180704	0.101208
H42	H	1.087731	-0.363860	-0.141122
H43	H	1.304124	0.399286	0.099958
H44	H	0.890610	-0.201810	-0.245598
H45	H	1.669086	0.441827	0.147455
H46	H	1.310061	0.179861	-0.100918
H47	H	1.517432	0.422054	0.246357
H48	H	1.676044	0.224961	0.146184
H49	H	0.916481	0.009669	0.102012
H50	H	1.133527	0.004477	-0.100733
H51	H	1.378633	-0.025191	0.629115
H52	H	1.524874	0.425935	-0.246233
H53	H	1.298587	-0.272425	0.627543
H54	H	1.525261	0.204711	0.245767
H55	H	1.105789	-0.210016	0.246262
H56	H	1.372687	-0.031894	0.372971
H57	H	1.657656	-0.315504	0.625509
H58	H	1.134993	0.003567	0.100733
H59	H	1.415179	-0.388699	0.629348
H60	H	1.088660	-0.361437	0.146777
H61	H	1.415641	-0.389645	0.373117
H62	H	1.672428	0.441608	-0.140405
H63	H	1.674685	0.223179	-0.149826
H64	H	0.871508	-0.356827	0.145498
H65	H	1.522156	0.206541	-0.245537
H66	H	0.887951	-0.206251	0.245693
H67	H	1.108018	-0.216105	-0.246354
H68	H	1.712944	-0.146176	0.627007
H69	H	1.540852	0.025589	0.370747
H70	H	1.548982	0.022787	0.626330
H71	H	1.299125	-0.272532	0.372115
H72	H	1.658765	-0.313675	0.370397
H73	H	0.915620	0.009945	-0.100113
H74	H	1.712923	-0.144473	0.372575
