data_functionalizedCrystal
_audit_creation_method	'MofGen! by Chris Wilmer'
_symmetry_space_group_name_H-M	'P1'
_symmetry_Int_Tables_number	1
_symmetry_cell_setting	triclinic
loop_
_symmetry_equiv_pos_as_xyz
  x,y,z
_cell_length_a	21.295420
_cell_length_b	21.295418
_cell_length_c	19.805399
_cell_angle_alpha	89.973313
_cell_angle_beta	89.981320
_cell_angle_gamma	90.024169
loop_
_atom_site_label
_atom_site_type_symbol
_atom_site_fract_x
_atom_site_fract_y
_atom_site_fract_z
Zn1	Zn	0.962328	-0.250695	-0.382708
Zn2	Zn	1.462328	0.249305	0.117292
Zn3	Zn	0.962245	-0.355963	-0.269521
Zn4	Zn	1.462245	0.144037	0.230479
Zn5	Zn	0.857062	-0.250704	-0.269534
Zn6	Zn	1.357062	0.249296	0.230466
Zn7	Zn	0.857024	-0.355922	-0.382670
Zn8	Zn	1.357024	0.144078	0.117330
O9	O	0.909665	-0.303321	-0.326108
O10	O	1.409665	0.196679	0.173892
O11	O	1.050406	-0.264672	-0.367704
O12	O	1.550406	0.235328	0.132296
O13	O	0.948273	-0.342022	-0.174806
O14	O	1.448273	0.157978	0.325194
O15	O	0.871076	-0.162614	-0.284568
O16	O	1.371076	0.337386	0.215432
O17	O	1.050345	-0.342012	-0.284546
O18	O	1.550345	0.157988	0.215454
O19	O	0.948415	-0.162607	-0.367716
O20	O	1.448415	0.337393	0.132284
O21	O	0.870996	-0.264688	-0.174816
O22	O	1.370996	0.235312	0.325184
O23	O	0.768968	-0.264648	-0.284531
O24	O	1.268968	0.235352	0.215469
O25	O	0.871012	-0.341942	-0.477391
O26	O	1.371012	0.158058	0.022609
O27	O	0.768940	-0.341952	-0.367652
O28	O	1.268940	0.158048	0.132348
O29	O	0.948378	-0.264632	-0.477419
O30	O	1.448378	0.235368	0.022581
O31	O	0.948237	-0.444047	-0.284509
O32	O	1.448237	0.055953	0.215491
O33	O	0.870932	-0.444017	-0.367639
O34	O	1.370932	0.055983	0.132361
C35	C	0.746113	-0.303297	-0.326089
C36	C	1.246113	0.196703	0.173911
C37	C	0.676145	-0.303302	-0.326097
C38	C	1.176145	0.196698	0.173903
C39	C	0.176718	-0.263145	-0.369489
C40	C	0.676718	0.236855	0.130511
C41	C	0.242461	-0.263140	-0.369489
C42	C	0.742461	0.236860	0.130511
C43	C	0.275306	-0.303340	-0.326124
C44	C	0.775306	0.196660	0.173876
C45	C	0.242403	-0.343559	-0.282768
C46	C	0.742403	0.156441	0.217232
C47	C	0.176661	-0.343567	-0.282774
C48	C	0.676661	0.156433	0.217226
N49	N	0.378501	-0.308085	-0.266858
N50	N	0.878501	0.191915	0.233142
N51	N	0.440953	-0.308073	-0.266854
N52	N	0.940953	0.191927	0.233146
C53	C	0.473380	-0.303320	-0.326104
C54	C	0.973380	0.196680	0.173896
N55	N	0.440997	-0.298565	-0.385359
N56	N	0.940997	0.201435	0.114641
N57	N	0.378540	-0.298573	-0.385362
N58	N	0.878540	0.201427	0.114638
C59	C	0.346591	-0.303336	-0.326113
C60	C	0.846591	0.196664	0.173887
C61	C	0.577561	-0.263101	-0.369460
C62	C	1.077561	0.236899	0.130540
C63	C	0.643305	-0.263101	-0.369461
C64	C	1.143305	0.236899	0.130539
C65	C	0.643245	-0.343517	-0.282735
C66	C	1.143245	0.156483	0.217265
C67	C	0.577503	-0.343520	-0.282740
C68	C	1.077503	0.156480	0.217260
C69	C	0.544665	-0.303309	-0.326102
C70	C	1.044665	0.196691	0.173898
C71	C	0.909588	-0.466873	-0.326083
C72	C	1.409588	0.033127	0.173917
C73	C	0.909613	-0.536841	-0.326095
C74	C	1.409613	-0.036841	0.173905
C75	C	0.950013	-1.036242	-0.369490
C76	C	1.450013	-0.536242	0.130510
C77	C	0.949995	-0.970499	-0.369479
C78	C	1.449995	-0.470499	0.130521
C79	C	0.909751	-0.937680	-0.326150
C80	C	1.409751	-0.437680	0.173850
C81	C	0.869533	-0.970609	-0.282816
C82	C	1.369533	-0.470609	0.217184
C83	C	0.869557	-1.036350	-0.282824
C84	C	1.369557	-0.536350	0.217176
N85	N	0.854614	-0.834507	-0.320892
N86	N	1.354614	-0.334507	0.179108
N87	N	0.854593	-0.772055	-0.320889
N88	N	1.354593	-0.272055	0.179111
C89	C	0.909677	-0.739606	-0.326125
C90	C	1.409677	-0.239606	0.173875
N91	N	0.964784	-0.771967	-0.331378
N92	N	1.464784	-0.271967	0.168622
N93	N	0.964804	-0.834424	-0.331384
N94	N	1.464804	-0.334424	0.168616
C95	C	0.909720	-0.866395	-0.326137
C96	C	1.409720	-0.366395	0.173863
C97	C	0.949875	-0.635399	-0.369441
C98	C	1.449875	-0.135399	0.130559
C99	C	0.949857	-0.569655	-0.369426
C100	C	1.449857	-0.069655	0.130574
C101	C	0.869390	-0.569766	-0.282766
C102	C	1.369390	-0.069766	0.217234
C103	C	0.869413	-0.635509	-0.282778
C104	C	1.369413	-0.135509	0.217222
C105	C	0.909654	-0.668321	-0.326119
C106	C	1.409654	-0.168321	0.173881
C107	C	1.073855	-0.303346	-0.326128
C108	C	1.573855	0.196654	0.173872
C109	C	1.143823	-0.303356	-0.326136
C110	C	1.643823	0.196644	0.173864
C111	C	0.909700	-0.303281	-0.502651
C112	C	1.409700	0.196719	-0.002651
C113	C	0.909715	-0.303265	-0.577883
C114	C	1.409715	0.196735	-0.077883
C115	C	0.909759	-0.139131	-0.326148
C116	C	1.409759	0.360869	0.173852
C117	C	0.909799	-0.069163	-0.326165
C118	C	1.409799	0.430837	0.173835
C119	C	0.950001	-0.263007	-0.613243
C120	C	1.450001	0.236993	-0.113243
C121	C	0.950007	-0.262989	-0.683931
C122	C	1.450007	0.237011	-0.183931
C123	C	0.909731	-0.303232	-0.719259
C124	C	1.409731	0.196768	-0.219259
C125	C	0.869441	-0.343491	-0.683894
C126	C	1.369441	0.156509	-0.183894
C127	C	0.869432	-0.343505	-0.613207
C128	C	1.369432	0.156495	-0.113207
C129	C	0.869477	-0.343432	-0.968967
C130	C	1.369477	0.156568	-0.468967
C131	C	0.869490	-0.343416	-1.039659
C132	C	1.369490	0.156584	-0.539659
C133	C	0.950052	-0.262916	-1.039692
C134	C	1.450052	0.237084	-0.539692
C135	C	0.950043	-0.262930	-0.969005
C136	C	1.450043	0.237070	-0.469005
C137	C	0.909751	-0.303187	-0.933646
C138	C	1.409751	0.196813	-0.433646
C139	C	0.909743	-0.303205	-0.856998
C140	C	1.409743	0.196795	-0.356998
C141	C	0.909741	-0.303217	-0.795906
C142	C	1.409741	0.196783	-0.295906
C143	C	0.909666	-0.303315	-0.150252
C144	C	1.409666	0.196685	0.349748
C145	C	0.909773	-0.303155	-0.075021
C146	C	1.409773	0.196845	0.424979
H147	H	0.670087	-0.230358	-0.404769
H148	H	1.170087	0.269642	0.095231
O149	O	0.830374	-0.382562	-0.718313
O150	O	1.330374	0.117438	-0.218313
C151	C	0.839009	-0.373907	-0.788287
C152	C	1.339009	0.126093	-0.288287
H153	H	0.887603	-0.353298	-0.797956
H154	H	1.387603	0.146702	-0.297956
H155	H	0.834714	-0.421053	-0.815138
H156	H	1.334714	0.078947	-0.315138
H157	H	0.801694	-0.340374	-0.808348
H158	H	1.301694	0.159626	-0.308348
H159	H	0.269149	-0.376292	-0.247462
H160	H	0.769149	0.123708	0.252538
O161	O	0.830233	-0.382526	-0.578830
O162	O	1.330233	0.117474	-0.078830
C163	C	0.789598	-0.346694	-0.537930
C164	C	1.289598	0.153306	-0.037930
H165	H	0.785740	-0.297109	-0.559240
H166	H	1.285740	0.202891	-0.059240
H167	H	0.741141	-0.369456	-0.537117
H168	H	1.241141	0.130544	-0.037117
H169	H	0.809052	-0.344543	-0.484360
H170	H	1.309052	0.155457	0.015640
O171	O	0.675240	-0.382510	-0.240633
O172	O	1.175240	0.117490	0.259367
C173	C	0.740320	-0.373896	-0.249938
C174	C	1.240320	0.126104	0.250062
H175	H	0.749324	-0.325340	-0.272193
H176	H	1.249324	0.174660	0.227807
H177	H	0.765286	-0.378106	-0.199230
H178	H	1.265286	0.121894	0.300770
H179	H	0.758976	-0.411274	-0.285913
H180	H	1.258976	0.088726	0.214087
H181	H	0.149879	-0.376314	-0.247470
H182	H	0.649879	0.123686	0.252530
H183	H	0.149985	-0.230404	-0.404800
H184	H	0.649985	0.269596	0.095200
H185	H	0.836809	-1.063154	-0.247542
H186	H	1.336809	-0.563154	0.252458
H187	H	0.982608	-0.542851	-0.404704
H188	H	1.482608	-0.042851	0.095296
H189	H	0.836625	-0.543046	-0.247484
H190	H	1.336625	-0.043046	0.252516
H191	H	0.269249	-0.230392	-0.404791
H192	H	0.769249	0.269608	0.095209
H193	H	0.836663	-0.662313	-0.247501
H194	H	1.336663	-0.162313	0.252499
O195	O	0.989128	-0.223823	-1.074145
O196	O	1.489128	0.276177	-0.574145
C197	C	0.980512	-0.232445	-1.144111
C198	C	1.480512	0.267555	-0.644111
H199	H	0.931921	-0.253050	-1.153752
H200	H	1.431921	0.246950	-0.653752
H201	H	0.984813	-0.185287	-1.170985
H202	H	1.484813	0.314713	-0.670985
H203	H	1.017833	-0.265968	-1.164172
H204	H	1.517833	0.234032	-0.664172
O205	O	0.989059	-0.223823	-0.578960
O206	O	1.489059	0.276177	-0.078960
C207	C	0.975347	-0.161080	-0.596262
C208	C	1.475347	0.338920	-0.096262
H209	H	0.925062	-0.157893	-0.615683
H210	H	1.425062	0.342107	-0.115683
H211	H	0.980782	-0.129989	-0.549787
H212	H	1.480782	0.370011	-0.049787
H213	H	1.009109	-0.144623	-0.637306
H214	H	1.509109	0.355377	-0.137306
O215	O	0.830301	-0.382527	-1.073873
O216	O	1.330301	0.117473	-0.573873
C217	C	0.794746	-0.418072	-1.027508
C218	C	1.294746	0.081928	-0.527508
H219	H	0.792573	-0.392300	-0.977125
H220	H	1.292573	0.107700	-0.477125
H221	H	0.745148	-0.424770	-1.047925
H222	H	1.245148	0.075230	-0.547925
H223	H	0.817764	-0.465889	-1.019982
H224	H	1.317764	0.034111	-0.519982
O225	O	0.545642	-0.382596	-0.240556
O226	O	1.045642	0.117404	0.259444
C227	C	0.588727	-0.418089	-0.202292
C228	C	1.088727	0.081911	0.297708
H229	H	0.635597	-0.392298	-0.199993
H230	H	1.135597	0.107702	0.300007
H231	H	0.569710	-0.424742	-0.148952
H232	H	1.069710	0.075258	0.351048
H233	H	0.595712	-0.465927	-0.226987
H234	H	1.095712	0.034073	0.273013
H235	H	0.836767	-0.943884	-0.247536
H236	H	1.336767	-0.443884	0.252464
H237	H	0.550823	-0.230358	-0.404768
H238	H	1.050823	0.269642	0.095232
H239	H	0.982786	-1.062954	-0.404777
H240	H	1.482786	-0.562954	0.095223
O241	O	0.989075	-0.938608	-0.411638
O242	O	1.489075	-0.438608	0.088362
C243	C	1.024608	-0.981667	-0.449882
C244	C	1.524608	-0.481667	0.050118
H245	H	0.998846	-1.028552	-0.452195
H246	H	1.498846	-0.528552	0.047805
H247	H	1.031270	-0.962639	-0.503217
H248	H	1.531270	-0.462639	-0.003217
H249	H	1.072441	-0.988627	-0.425158
H250	H	1.572441	-0.488627	0.074842
O251	O	0.989018	-0.667180	-0.411566
O252	O	1.489018	-0.167180	0.088434
C253	C	1.024499	-0.624022	-0.449818
C254	C	1.524499	-0.124022	0.050182
H255	H	1.026691	-0.577176	-0.422085
H256	H	1.526691	-0.077176	0.077915
H257	H	1.074094	-0.642981	-0.457108
H258	H	1.574094	-0.142981	0.042892
H259	H	1.001403	-0.617011	-0.501192
H260	H	1.501403	-0.117011	-0.001192
H261	H	0.982813	-0.230209	-0.712718
H262	H	1.482813	0.269791	-0.212718
H263	H	0.982842	-0.230162	-0.940245
H264	H	1.482842	0.269838	-0.440245
O265	O	0.830364	-0.382482	-0.934521
O266	O	1.330364	0.117518	-0.434521
C267	C	0.838998	-0.373880	-0.864555
C268	C	1.338998	0.126120	-0.364555
H269	H	0.859638	-0.325304	-0.854913
H270	H	1.359638	0.174696	-0.354913
H271	H	0.791839	-0.378152	-0.837683
H272	H	1.291839	0.121848	-0.337683
H273	H	0.872497	-0.411227	-0.844492
H274	H	1.372497	0.088773	-0.344492
