data_functionalizedCrystal
_audit_creation_method	'MofGen! by Chris Wilmer'
_symmetry_space_group_name_H-M	'P1'
_symmetry_Int_Tables_number	1
_symmetry_cell_setting	triclinic
loop_
_symmetry_equiv_pos_as_xyz
  x,y,z
_cell_length_a	15.995300
_cell_length_b	19.188940
_cell_length_c	15.072220
_cell_angle_alpha	89.998408
_cell_angle_beta	89.985917
_cell_angle_gamma	83.310261
loop_
_atom_site_label
_atom_site_type_symbol
_atom_site_fract_x
_atom_site_fract_y
_atom_site_fract_z
O1	O	1.110697	0.089824	-0.073816
O2	O	0.866875	0.100974	-0.073811
O3	O	0.995818	-0.006240	-0.073807
O4	O	0.981754	0.197037	-0.073820
O5	O	0.995786	-0.006234	0.073759
O6	O	0.866844	0.100980	0.073754
O7	O	1.110665	0.089830	0.073749
Zn8	Zn	0.988749	0.095406	0.097181
Zn9	Zn	0.988791	0.095398	-0.097242
O10	O	0.981722	0.197043	0.073745
C11	C	0.835666	0.100522	-0.000027
C12	C	0.742718	0.099159	-0.000025
C13	C	0.572544	0.096641	-0.000032
C14	C	0.524802	0.172979	-0.000035
C15	C	0.428119	0.171586	-0.000372
C16	C	0.404996	0.094163	-0.000037
C17	C	0.446284	0.056285	-0.084136
C18	C	0.542911	0.058217	-0.084204
C19	C	0.543158	0.057093	0.083611
C20	C	0.446213	0.057101	0.084714
C21	C	0.310306	0.092758	-0.000043
C22	C	0.667235	0.098043	-0.000032
C23	C	0.995345	-0.032249	-0.000024
C24	C	0.993974	-0.109756	-0.000025
C25	C	0.984201	-0.663035	0.080392
C26	C	0.985481	-0.590208	0.080397
C27	C	0.986142	-0.553790	-0.000039
C28	C	0.985502	-0.590203	-0.080487
C29	C	0.984214	-0.663029	-0.080490
N30	N	1.035823	-0.444650	-0.059911
N31	N	1.037048	-0.375469	-0.059903
C32	C	0.990020	-0.334372	-0.000036
N33	N	0.941730	-0.365070	0.059836
N34	N	0.940509	-0.434257	0.059830
C35	C	0.987537	-0.474823	-0.000046
C36	C	0.992041	-0.218998	0.080411
C37	C	0.993315	-0.146169	0.080413
C38	C	0.993344	-0.146167	-0.080474
C39	C	0.992062	-0.218994	-0.080473
C40	C	0.991414	-0.255406	-0.000028
C41	C	1.141875	0.090281	-0.000036
C42	C	1.234822	0.091645	-0.000044
C43	C	0.982195	0.223052	-0.000039
C44	C	0.983566	0.300559	-0.000045
N45	N	0.988727	0.095411	0.229870
N46	N	0.988820	0.095387	-0.229931
C47	C	0.988790	0.095395	0.589071
C48	C	0.919565	0.152571	0.551462
C49	C	0.919722	0.152779	0.448636
C50	C	0.988758	0.095403	0.410867
C51	C	1.076067	0.111301	0.448155
C52	C	1.075679	0.111707	0.551013
C53	C	0.971485	0.022152	0.551177
C54	C	0.969478	0.022641	0.448314
C55	C	0.988745	0.095406	0.310154
C56	C	0.988808	0.095394	0.689785
H57	H	0.575388	0.002161	-0.087794
C58	C	0.986185	-0.550154	0.168881
H59	H	0.985619	-0.582271	0.216790
H60	H	0.937872	-0.516412	0.172234
H61	H	1.035512	-0.527080	0.172213
C62	C	0.887350	0.001504	0.586255
H63	H	0.878113	-0.042845	0.562593
H64	H	0.842798	0.035809	0.568649
H65	H	0.889239	-0.001198	0.649171
C66	C	0.986230	-0.550150	-0.168967
H67	H	0.985662	-0.582265	-0.216875
H68	H	1.035551	-0.527073	-0.172315
H69	H	0.937911	-0.516410	-0.172305
H70	H	1.016643	-0.021899	0.422607
C71	C	1.147334	0.057590	0.584624
H72	H	1.176556	0.035459	0.535414
H73	H	1.124435	0.023284	0.619657
H74	H	1.185227	0.080648	0.619525
H75	H	0.983696	-0.692669	-0.145993
C76	C	1.039677	-0.035329	0.584036
H77	H	1.078511	-0.014830	0.620672
H78	H	1.068541	-0.057380	0.534571
H79	H	1.014048	-0.069231	0.617159
H80	H	0.418760	0.084761	0.146931
C81	C	0.991313	-0.259053	0.168895
H82	H	0.991860	-0.226936	0.216803
H83	H	1.039626	-0.292793	0.172241
H84	H	0.941987	-0.282130	0.172235
H85	H	0.854815	0.143309	0.423428
C86	C	0.994015	-0.106123	0.168898
H87	H	0.993453	-0.138243	0.216804
H88	H	0.945700	-0.072384	0.172254
H89	H	1.043340	-0.083046	0.172232
H90	H	0.561145	0.085510	-0.147310
C91	C	0.389500	0.211794	0.081044
H92	H	0.432894	0.229132	0.114622
H93	H	0.361310	0.181120	0.116828
H94	H	0.350479	0.249953	0.061906
H95	H	0.905254	0.010575	0.423944
H96	H	1.128799	0.070765	0.423688
H97	H	0.431079	0.000653	0.090045
C98	C	0.586368	-0.018937	0.084716
H99	H	0.622150	-0.026570	0.034481
H100	H	0.544831	-0.050488	0.082999
H101	H	0.618800	-0.026652	0.137344
H102	H	0.544314	0.203198	-0.060255
C103	C	0.994075	-0.106117	-0.168953
H104	H	0.994939	-0.057530	-0.157432
H105	H	0.945056	-0.112720	-0.202007
H106	H	1.042696	-0.123383	-0.202002
H107	H	0.563553	0.082229	0.147374
H108	H	0.983673	-0.692677	0.145897
H109	H	0.991550	-0.248636	-0.145974
C110	C	0.427514	-0.020565	-0.088052
H111	H	0.453060	-0.042478	-0.139400
H112	H	0.368383	-0.021910	-0.090579
H113	H	0.449531	-0.044722	-0.036595
C114	C	1.097226	0.182639	0.413348
H115	H	1.052971	0.202825	0.376103
H116	H	1.148210	0.176051	0.380471
H117	H	1.103531	0.213059	0.462005
H118	H	0.854447	0.143256	0.576226
H119	H	0.400177	0.201216	-0.061012
C120	C	0.934246	0.225585	0.586353
H121	H	0.982382	0.221376	0.623738
H122	H	0.886378	0.245032	0.619100
H123	H	0.943055	0.255389	0.537739
H124	H	0.930745	0.207132	0.424019
C125	C	1.096322	0.183868	0.583410
H126	H	1.104862	0.212659	0.533709
H127	H	1.145972	0.177977	0.618493
H128	H	1.050852	0.205493	0.618001
H129	H	0.417819	0.082248	-0.146961
C130	C	0.549617	0.214432	0.081415
H131	H	0.589320	0.185559	0.116152
H132	H	0.500960	0.228559	0.116050
H133	H	0.573902	0.254751	0.062289
