data_functionalizedCrystal
_audit_creation_method	'MofGen! by Chris Wilmer'
_symmetry_space_group_name_H-M	'P1'
_symmetry_Int_Tables_number	1
_symmetry_cell_setting	triclinic
loop_
_symmetry_equiv_pos_as_xyz
  x,y,z
_cell_length_a	14.044220
_cell_length_b	15.995350
_cell_length_c	13.101039
_cell_angle_alpha	93.364563
_cell_angle_beta	86.340132
_cell_angle_gamma	88.340626
loop_
_atom_site_label
_atom_site_type_symbol
_atom_site_fract_x
_atom_site_fract_y
_atom_site_fract_z
O1	O	1.262914	0.197637	-0.085096
O2	O	0.986946	0.190352	-0.085122
O3	O	1.132474	0.072670	-0.085107
O4	O	1.117386	0.315319	-0.085111
O5	O	1.122032	0.081129	0.085321
O6	O	0.976505	0.198810	0.085307
O7	O	1.252472	0.206096	0.085333
Zn8	Zn	1.112831	0.203796	0.112379
Zn9	Zn	1.126588	0.192651	-0.112168
O10	O	1.106945	0.323777	0.085318
C11	C	0.946411	0.191392	0.000089
C12	C	0.841186	0.181881	0.000079
C13	C	0.648524	0.164494	0.000099
C14	C	0.590890	0.231950	0.000102
C15	C	0.483686	0.222275	0.000114
C16	C	0.755738	0.174167	0.000088
C17	C	1.126629	0.045658	0.000105
C18	C	1.124760	-0.047432	0.000099
C19	C	1.118044	-0.385681	0.000102
C20	C	1.014425	-0.346007	-0.000290
C21	C	1.016272	-0.249158	0.000094
C22	C	1.121375	-0.217872	0.000100
C23	C	1.166533	-0.250301	0.097426
C24	C	1.163924	-0.347127	0.097507
C25	C	1.177939	-0.356944	-0.096302
C26	C	1.177993	-0.260065	-0.097588
C27	C	1.123263	-0.123033	0.000102
C28	C	1.116159	-0.480519	0.000106
C29	C	1.293008	0.205055	0.000120
C30	C	1.398233	0.214566	0.000123
C31	C	1.112789	0.350789	0.000103
C32	C	1.114659	0.443879	0.000103
N33	N	1.103449	0.211402	0.265626
N34	N	1.135977	0.185039	-0.265416
C35	C	1.090685	0.221758	0.474668
C36	C	1.148739	0.174686	0.525549
C37	C	1.141636	0.180448	0.641867
C38	C	1.097786	0.215997	0.358340
H39	H	0.617354	0.099482	0.000106
H40	H	1.035653	0.266383	0.518459
H41	H	0.622062	0.296967	0.000097
H42	H	1.122190	-0.364602	0.170256
C43	C	1.282028	-0.231983	-0.105531
C44	C	1.319802	-0.186544	-0.199566
C45	C	1.423841	-0.158465	-0.207502
C46	C	1.490107	-0.175824	-0.121403
C47	C	1.452334	-0.221265	-0.027361
C48	C	1.348295	-0.249344	-0.019425
H49	H	1.270747	-0.173691	-0.263308
H50	H	1.451803	-0.124826	-0.277118
H51	H	1.567123	-0.155038	-0.127277
H52	H	1.501389	-0.234118	0.036381
H53	H	1.320333	-0.282983	0.050191
C54	C	0.967742	-0.219486	-0.094142
C55	C	0.927032	-0.283957	-0.170275
C56	C	0.878489	-0.254288	-0.264509
C57	C	0.870654	-0.160149	-0.282608
C58	C	0.911364	-0.095672	-0.206473
C59	C	0.959908	-0.125340	-0.112240
H60	H	0.932831	-0.353649	-0.156879
H61	H	0.848352	-0.302019	-0.320869
H62	H	0.834719	-0.138187	-0.352365
H63	H	0.905566	-0.025979	-0.219870
H64	H	0.990045	-0.077610	-0.055880
C65	C	1.281227	-0.392178	-0.097184
C66	C	1.311123	-0.446755	-0.010900
C67	C	1.414406	-0.481990	-0.011770
C68	C	1.487793	-0.462648	-0.098923
C69	C	1.457899	-0.408068	-0.185214
C70	C	1.354615	-0.372833	-0.184344
H71	H	1.256796	-0.461076	0.053622
H72	H	1.436535	-0.522394	0.052108
H73	H	1.564249	-0.488731	-0.099567
H74	H	1.512226	-0.393748	-0.249736
H75	H	1.332486	-0.332430	-0.248222
H76	H	1.203775	0.130059	0.481753
H77	H	1.239746	-0.373472	0.101927
H78	H	0.977276	-0.371097	-0.070085
H79	H	0.971537	-0.220847	0.069973
C80	C	0.952961	-0.371979	0.093461
C81	C	0.996450	-0.429002	0.170266
C82	C	0.934988	-0.454976	0.264018
C83	C	0.830037	-0.423926	0.280965
C84	C	0.786542	-0.366899	0.204158
C85	C	0.848004	-0.340925	0.110406
H86	H	1.074146	-0.451990	0.157722
H87	H	0.967187	-0.497191	0.320875
H88	H	0.784539	-0.443153	0.350366
H89	H	0.708846	-0.343911	0.216702
H90	H	0.815806	-0.298710	0.053549
H91	H	1.243527	-0.230228	0.101050
H92	H	1.126590	-0.220977	0.169849
H93	H	1.148573	-0.383676	-0.170069
H94	H	1.145029	-0.239181	-0.169587
