data_functionalizedCrystal
_audit_creation_method	'MofGen! by Chris Wilmer'
_symmetry_space_group_name_H-M	'P1'
_symmetry_Int_Tables_number	1
_symmetry_cell_setting	triclinic
loop_
_symmetry_equiv_pos_as_xyz
  x,y,z
_cell_length_a	19.188930
_cell_length_b	10.654554
_cell_length_c	18.266242
_cell_angle_alpha	89.991002
_cell_angle_beta	90.006796
_cell_angle_gamma	96.183039
loop_
_atom_site_label
_atom_site_type_symbol
_atom_site_fract_x
_atom_site_fract_y
_atom_site_fract_z
O1	O	0.098093	-1.665763	0.060935
O2	O	0.598093	-1.165763	0.560935
O3	O	0.107428	-1.300088	0.060927
O4	O	0.607428	-0.800088	0.560927
O5	O	0.001174	-1.493478	0.060917
O6	O	0.501174	-0.993478	0.560917
O7	O	0.204347	-1.472373	0.060945
O8	O	0.704347	-0.972373	0.560945
O9	O	0.001177	-1.493453	-0.060845
O10	O	0.501177	-0.993453	0.439155
O11	O	0.107431	-1.300064	-0.060834
O12	O	0.607431	-0.800064	0.439166
O13	O	0.098096	-1.665738	-0.060827
O14	O	0.598096	-1.165738	0.439173
Zn15	Zn	0.102764	-1.482897	-0.080163
Zn16	Zn	0.602764	-0.982897	0.419837
Zn17	Zn	0.102760	-1.482930	0.080264
Zn18	Zn	0.602760	-0.982930	0.580264
O19	O	0.204350	-1.472348	-0.060817
O20	O	0.704350	-0.972348	0.439183
C21	C	0.106743	-1.253293	0.000045
C22	C	0.606743	-0.753293	0.500045
C23	C	0.104688	-1.113894	0.000042
C24	C	0.604688	-0.613894	0.500042
C25	C	0.104699	-1.113841	-0.132707
C26	C	0.604699	-0.613841	0.367293
C27	C	0.103741	-1.048326	-0.199080
C28	C	0.603741	-0.548326	0.300920
C29	C	0.101809	-0.917349	-0.199079
C30	C	0.601809	-0.417349	0.300921
C31	C	0.100833	-0.851885	-0.132698
C32	C	0.600833	-0.351885	0.367302
C33	C	0.101790	-0.917400	-0.066325
C34	C	0.601790	-0.417400	0.433675
C35	C	0.103725	-1.048380	-0.066333
C36	C	0.603725	-0.548380	0.433667
C37	C	0.101774	-0.917453	0.066422
C38	C	0.601774	-0.417453	0.566422
C39	C	0.103711	-1.048429	0.066423
C40	C	0.603711	-0.548429	0.566423
C41	C	0.100797	-0.851989	0.132804
C42	C	0.600797	-0.351989	0.632804
C43	C	0.101760	-0.917503	0.199178
C44	C	0.601760	-0.417503	0.699178
C45	C	0.103693	-1.048488	0.199175
C46	C	0.603693	-0.548488	0.699175
C47	C	0.104669	-1.113944	0.132796
C48	C	0.604669	-0.613944	0.632796
C49	C	-0.024840	-1.492782	0.000034
C50	C	0.475160	-0.992782	0.500034
C51	C	-0.102358	-1.490731	0.000028
C52	C	0.397642	-0.990731	0.500028
C53	C	-0.146537	-1.604206	0.000027
C54	C	0.353463	-1.104206	0.500027
C55	C	-0.219374	-1.602278	0.000038
C56	C	0.280626	-1.102278	0.500038
C57	C	-0.248027	-1.486869	0.000036
C58	C	0.251973	-0.986869	0.500036
C59	C	-0.203838	-1.373380	0.000042
C60	C	0.296162	-0.873380	0.500042
C61	C	-0.131003	-1.375310	0.000037
C62	C	0.368997	-0.875310	0.500037
N63	N	-0.356610	-1.398645	-0.041403
N64	N	0.143390	-0.898645	0.458597
N65	N	-0.425801	-1.396818	-0.041401
N66	N	0.074199	-0.896818	0.458599
C67	C	-0.467474	-1.481045	0.000051
C68	C	0.032526	-0.981045	0.500051
N69	N	-0.437345	-1.567187	0.041491
N70	N	0.062655	-1.067187	0.541491
N71	N	-0.368148	-1.569017	0.041485
N72	N	0.131852	-1.069017	0.541485
C73	C	-0.327004	-1.484763	0.000042
C74	C	0.172996	-0.984763	0.500042
C75	C	-0.590632	-1.592438	0.000064
C76	C	-0.090632	-1.092438	0.500064
C77	C	-0.663469	-1.590506	0.000080
C78	C	-0.163469	-1.090506	0.500080
C79	C	-0.647932	-1.361604	0.000076
C80	C	-0.147932	-0.861604	0.500076
C81	C	-0.575096	-1.363539	0.000067
C82	C	-0.075096	-0.863539	0.500067
C83	C	-0.546451	-1.478960	0.000057
C84	C	-0.046451	-0.978960	0.500057
C85	C	0.230364	-1.473044	0.000068
C86	C	0.730364	-0.973044	0.500068
C87	C	0.307882	-1.475096	0.000079
C88	C	0.807882	-0.975096	0.500079
N89	N	0.102767	-1.482884	-0.189650
N90	N	0.602767	-0.982884	0.310350
C91	C	0.098776	-0.712535	0.000053
C92	C	0.598776	-0.212535	0.500053
C93	C	0.100816	-0.851938	0.000049
C94	C	0.600816	-0.351938	0.500049
C95	C	0.145486	-1.558879	-0.771919
C96	C	0.645486	-1.058879	-0.271919
C97	C	0.145493	-1.558866	-0.695274
C98	C	0.645493	-1.058866	-0.195274
C99	C	0.102753	-1.482941	-0.656963
C100	C	0.602753	-0.982941	-0.156963
C101	C	0.060016	-1.407000	-0.695303
C102	C	0.560016	-0.907000	-0.195303
C103	C	0.060016	-1.407006	-0.771946
C104	C	0.560016	-0.907006	-0.271946
N105	N	0.041573	-1.479900	-0.536633
N106	N	0.541573	-0.979900	-0.036633
N107	N	0.041575	-1.479901	-0.463825
N108	N	0.541575	-0.979901	0.036175
C109	C	0.102753	-1.482917	-0.426040
C110	C	0.602753	-0.982917	0.073960
N111	N	0.163929	-1.485956	-0.463814
N112	N	0.663929	-0.985956	0.036186
N113	N	0.163926	-1.485961	-0.536629
N114	N	0.663926	-0.985961	-0.036629
C115	C	0.102749	-1.482926	-0.573856
C116	C	0.602749	-0.982926	-0.073856
C117	C	0.145498	-1.558833	-0.304602
C118	C	0.645498	-1.058833	0.195398
C119	C	0.145506	-1.558811	-0.227956
C120	C	0.645506	-1.058811	0.272044
C121	C	0.060024	-1.406952	-0.227986
C122	C	0.560024	-0.906952	0.272014
C123	C	0.060022	-1.406967	-0.304631
C124	C	0.560022	-0.906967	0.195369
C125	C	0.102758	-1.482914	-0.342934
C126	C	0.602758	-0.982914	0.157066
N127	N	0.102752	-1.482953	0.189751
N128	N	0.602752	-0.982953	0.689751
H129	H	0.106282	-1.220488	-0.132714
H130	H	0.606282	-0.720488	0.367286
H131	H	0.099219	-0.745342	0.132800
H132	H	0.599219	-0.245342	0.632800
H133	H	0.100960	-0.864192	0.253220
H134	H	0.600960	-0.364192	0.753220
H135	H	0.106247	-1.220592	0.132787
H136	H	0.606247	-0.720592	0.632787
H137	H	0.104471	-1.101823	0.253224
H138	H	0.604471	-0.601823	0.753224
F139	F	-0.116055	-1.727047	0.000032
F140	F	0.383945	-1.227047	0.500032
F141	F	0.191005	-1.639603	-0.187162
F142	F	0.691005	-1.139603	0.312838
F143	F	-0.234334	-1.250553	0.000044
F144	F	0.265666	-0.750553	0.500044
F145	F	-0.266401	-1.723058	0.000038
F146	F	0.233599	-1.223058	0.500038
H147	H	0.104535	-1.101642	-0.253126
H148	H	0.604535	-0.601642	0.246874
F149	F	0.190974	-1.639701	-0.812680
F150	F	0.690974	-1.139701	-0.312680
H151	H	0.180295	-1.620692	-0.664059
H152	H	0.680295	-1.120692	-0.164059
F153	F	-0.083982	-1.254529	0.000039
F154	F	0.416018	-0.754529	0.500039
H155	H	0.101035	-0.864006	-0.253126
H156	H	0.601035	-0.364006	0.246874
H157	H	-0.539124	-1.271136	0.000064
H158	H	-0.039124	-0.771136	0.500064
H159	H	-0.699440	-1.682914	0.000083
H160	H	-0.199440	-1.182914	0.500083
F161	F	-0.560143	-1.715277	0.000050
F162	F	-0.060143	-1.215277	0.500050
F163	F	-0.678423	-1.238776	0.000078
F164	F	-0.178423	-0.738776	0.500078
H165	H	0.025219	-1.345179	-0.664105
H166	H	0.525219	-0.845179	-0.164105
H167	H	0.025216	-1.345175	-0.803155
H168	H	0.525216	-0.845175	-0.303155
H169	H	0.180299	-1.620668	-0.335790
H170	H	0.680299	-1.120668	0.164210
F171	F	0.014541	-1.326138	-0.187218
F172	F	0.514541	-0.826138	0.312782
F173	F	0.014535	-1.326160	-0.345427
F174	F	0.514535	-0.826160	0.154573
H175	H	0.099250	-0.745238	-0.132703
H176	H	0.599250	-0.245238	0.367297
