data_functionalizedCrystal
_audit_creation_method	'MofGen! by Chris Wilmer'
_symmetry_space_group_name_H-M	'P1'
_symmetry_Int_Tables_number	1
_symmetry_cell_setting	triclinic
loop_
_symmetry_equiv_pos_as_xyz
  x,y,z
_cell_length_a	10.654550
_cell_length_b	16.109301
_cell_length_c	9.130313
_cell_angle_alpha	89.995784
_cell_angle_beta	89.993256
_cell_angle_gamma	83.973192
loop_
_atom_site_label
_atom_site_type_symbol
_atom_site_fract_x
_atom_site_fract_y
_atom_site_fract_z
O1	O	1.666255	0.116772	-0.121925
O2	O	1.300626	0.127897	-0.121902
O3	O	1.493485	0.001363	-0.121899
O4	O	1.473396	0.243306	-0.121928
O5	O	1.493472	0.001364	0.121700
O6	O	1.300613	0.127898	0.121697
O7	O	1.666242	0.116772	0.121674
Cu8	Cu	1.483427	0.122335	0.143928
Cu9	Cu	1.483442	0.122334	-0.144156
O10	O	1.473383	0.243306	0.121671
C11	C	1.253832	0.127080	-0.000099
C12	C	1.114422	0.124636	-0.000090
C13	C	1.033926	0.199138	-0.000120
C14	C	0.902936	0.196836	-0.000145
C15	C	0.932952	0.045526	-0.000116
C16	C	1.063939	0.047828	-0.000081
C17	C	1.016595	0.286496	-0.000143
C18	C	0.885606	0.284194	-0.000168
C19	C	1.492665	-0.029616	-0.000099
C20	C	1.490225	-0.121926	-0.000097
C21	C	1.598991	-0.343552	-0.000127
C22	C	1.596689	-0.430286	-0.000139
C23	C	1.367868	-0.411772	-0.000119
C24	C	1.370172	-0.325040	-0.000117
C25	C	1.485737	-0.290932	-0.000114
C26	C	1.481131	-0.464399	-0.000127
C27	C	1.478634	-0.558440	-0.000140
C28	C	1.488234	-0.196885	-0.000104
C29	C	1.713036	0.117589	-0.000132
C30	C	1.852446	0.120033	-0.000151
C31	C	1.474204	0.274286	-0.000132
C32	C	1.476643	0.366595	-0.000144
N33	N	1.483425	0.122335	0.346551
N34	N	1.483453	0.122328	-0.346779
C35	C	1.568860	0.066319	0.576542
C36	C	1.568849	0.066324	0.423205
C37	C	1.398014	0.178349	0.423241
C38	C	1.398032	0.178348	0.576575
C39	C	1.667486	0.001640	0.576520
C40	C	1.667476	0.001645	0.423183
H41	H	1.051879	0.314311	-0.105318
O42	O	1.723635	-0.306767	-0.000138
H43	H	1.706214	-0.237616	-0.000122
H44	H	0.891833	-0.017009	-0.000131
O45	O	1.054788	0.331736	0.134931
H46	H	1.101672	0.387169	0.101813
H47	H	1.328468	0.223960	0.360819
O48	O	1.718847	-0.487037	-0.000147
H49	H	1.697836	-0.553079	-0.000164
H50	H	0.839571	0.310595	0.104997
H51	H	1.328498	0.223962	0.639006
H52	H	1.273779	-0.439553	-0.000118
H53	H	1.277941	-0.282194	-0.000111
H54	H	1.637788	-0.058741	0.624095
H55	H	0.843432	0.317109	-0.102126
H56	H	1.763812	0.015878	0.618101
O57	O	1.787910	0.028440	0.360147
H58	H	1.799849	0.092660	0.397744
O59	O	1.150767	-0.032525	-0.000022
H60	H	1.093653	-0.086318	-0.000031
O61	O	1.640190	-0.082993	0.368053
H62	H	1.626827	-0.124431	0.462667
