data_functionalizedCrystal
_audit_creation_method	'MofGen! by Chris Wilmer'
_symmetry_space_group_name_H-M	'P1'
_symmetry_Int_Tables_number	1
_symmetry_cell_setting	triclinic
loop_
_symmetry_equiv_pos_as_xyz
  x,y,z
_cell_length_a	16.109318
_cell_length_b	14.519731
_cell_length_c	14.586319
_cell_angle_alpha	89.995223
_cell_angle_beta	90.000075
_cell_angle_gamma	83.578708
loop_
_atom_site_label
_atom_site_type_symbol
_atom_site_fract_x
_atom_site_fract_y
_atom_site_fract_z
O1	O	1.103335	0.118615	-0.076166
O2	O	1.603335	0.618615	0.423834
O3	O	0.861302	0.133350	-0.076185
O4	O	1.361302	0.633350	0.423815
O5	O	0.988727	-0.008268	-0.076167
O6	O	1.488727	0.491732	0.423833
O7	O	0.975911	0.260233	-0.076184
O8	O	1.475911	0.760233	0.423816
O9	O	0.988718	-0.008270	0.076314
O10	O	1.488718	0.491730	0.576314
O11	O	0.861293	0.133348	0.076296
O12	O	1.361293	0.633348	0.576296
O13	O	1.103326	0.118613	0.076315
O14	O	1.603326	0.618613	0.576315
Cu15	Cu	0.982309	0.125980	0.090228
Cu16	Cu	1.482309	0.625980	0.590228
Cu17	Cu	0.982319	0.125983	-0.090098
Cu18	Cu	1.482319	0.625983	0.409902
O19	O	0.975902	0.260231	0.076296
O20	O	1.475902	0.760231	0.576296
C21	C	0.830322	0.132749	0.000053
C22	C	1.330322	0.632749	0.500053
C23	C	0.738024	0.130951	0.000046
C24	C	1.238024	0.630951	0.500046
C25	C	0.438945	0.125146	-0.083055
C26	C	0.938945	0.625146	0.416945
C27	C	0.525669	0.126829	-0.083060
C28	C	1.025669	0.626829	0.416940
C29	C	0.525678	0.126814	0.083183
C30	C	1.025678	0.626814	0.583183
C31	C	0.438956	0.125124	0.083187
C32	C	0.938956	0.625124	0.583187
C33	C	0.395591	0.124295	0.000066
C34	C	0.895591	0.624295	0.500066
C35	C	0.569037	0.127668	0.000056
C36	C	1.069037	0.627668	0.500056
C37	C	0.663068	0.129493	0.000050
C38	C	1.163068	0.629493	0.500050
C39	C	0.301555	0.122468	0.000071
C40	C	0.801555	0.622468	0.500071
C41	C	0.988122	-0.042627	0.000074
C42	C	1.488122	0.457373	0.500074
C43	C	0.986322	-0.145004	0.000074
C44	C	1.486322	0.354996	0.500074
C45	C	0.984860	-0.228145	0.000072
C46	C	1.484860	0.271855	0.500072
C47	C	0.983033	-0.332450	0.000065
C48	C	1.483033	0.167550	0.500065
C49	C	0.981583	-0.415586	0.000059
C50	C	1.481583	0.084414	0.500059
C51	C	0.979756	-0.519897	0.000053
C52	C	1.479756	-0.019897	0.500053
C53	C	1.134307	0.119213	0.000075
C54	C	1.634307	0.619213	0.500075
C55	C	1.226604	0.121011	0.000076
C56	C	1.726604	0.621011	0.500076
C57	C	0.976507	0.294590	0.000054
C58	C	1.476507	0.794590	0.500054
C59	C	0.978306	0.396966	0.000047
C60	C	1.478306	0.896966	0.500047
N61	N	0.982308	0.125978	0.217060
N62	N	1.482308	0.625978	0.717060
N63	N	0.982327	0.125978	-0.216930
N64	N	1.482327	0.625978	0.283070
C65	C	1.038750	0.063290	0.452074
C66	C	1.538750	0.563290	0.952074
C67	C	1.038752	0.063288	0.548056
C68	C	1.538752	0.563288	1.048056
C69	C	0.925879	0.188668	0.548049
C70	C	1.425879	0.688668	1.048049
C71	C	0.925873	0.188665	0.452069
C72	C	1.425873	0.688665	0.952069
C73	C	0.982313	0.125977	0.404085
C74	C	1.482313	0.625977	0.904085
C75	C	0.982321	0.125978	0.596045
C76	C	1.482321	0.625978	1.096045
C77	C	0.982324	0.125976	0.700112
C78	C	1.482324	0.625976	1.200112
C79	C	0.982310	0.125978	0.300011
C80	C	1.482310	0.625978	0.800011
H81	H	0.560964	0.127521	-0.150745
H82	H	1.060964	0.627521	0.349255
Br83	Br	0.849269	0.273739	0.386933
Br84	Br	1.349269	0.773739	0.886933
Br85	Br	0.584535	0.127948	0.195985
Br86	Br	1.084535	0.627948	0.695985
H87	H	0.403657	0.124431	0.150878
H88	H	0.903657	0.624431	0.650878
Br89	Br	1.115345	-0.021787	0.386955
Br90	Br	1.615345	0.478213	0.886955
Br91	Br	1.115344	-0.021795	0.613183
Br92	Br	1.615344	0.478205	1.113183
H93	H	0.403639	0.124469	-0.150737
H94	H	0.903639	0.624469	0.349263
Br95	Br	0.849286	0.273743	0.613174
Br96	Br	1.349286	0.773743	1.113174
