data_functionalizedCrystal
_audit_creation_method	'MofGen! by Chris Wilmer'
_symmetry_space_group_name_H-M	'P1'
_symmetry_Int_Tables_number	1
_symmetry_cell_setting	triclinic
loop_
_symmetry_equiv_pos_as_xyz
  x,y,z
_cell_length_a	17.019282
_cell_length_b	12.837942
_cell_length_c	11.295483
_cell_angle_alpha	85.469583
_cell_angle_beta	89.768720
_cell_angle_gamma	90.904236
loop_
_atom_site_label
_atom_site_type_symbol
_atom_site_fract_x
_atom_site_fract_y
_atom_site_fract_z
O1	O	1.056151	-0.132635	0.009317
O2	O	0.828880	-0.147845	-0.013999
O3	O	0.937476	0.010691	-0.002850
O4	O	0.947555	-0.291171	-0.001831
O5	O	0.927936	-0.003212	0.194221
O6	O	0.819340	-0.161748	0.183073
O7	O	1.046611	-0.146538	0.206389
Cu8	Cu	0.932105	-0.155413	0.212725
Cu9	Cu	0.943386	-0.138971	-0.020335
O10	O	0.938015	-0.305074	0.195240
C11	C	0.794818	-0.153948	0.081532
C12	C	0.707537	-0.151407	0.072578
C13	C	0.661337	-0.157789	0.175797
C14	C	0.579328	-0.155386	0.167387
C15	C	0.543520	-0.146607	0.055756
C16	C	0.589727	-0.140221	-0.047471
C17	C	0.671735	-0.142617	-0.039060
C18	C	0.296169	-0.138986	0.024986
C19	C	0.214154	-0.136593	0.016582
C20	C	0.203761	-0.151756	0.231442
C21	C	0.285771	-0.154158	0.239843
C22	C	0.331971	-0.147766	0.136616
C23	C	0.459693	-0.144153	0.047157
C24	C	0.415796	-0.150213	0.145216
C25	C	0.929301	0.042379	0.095335
C26	C	0.919146	0.157514	0.094292
C27	C	1.080673	-0.140435	0.110856
C28	C	1.167954	-0.142976	0.119802
C29	C	0.946190	-0.336762	0.097052
C30	C	0.956345	-0.451897	0.098088
N31	N	0.924175	-0.166976	0.376647
C32	C	1.041227	0.397781	0.106791
C33	C	1.031689	0.505961	0.105811
C34	C	0.890534	0.482057	0.091342
C35	C	0.900072	0.373877	0.092322
C36	C	0.975420	0.331743	0.100049
C37	C	0.984957	0.223560	0.101038
C38	C	0.843803	0.199659	0.086561
C39	C	0.834266	0.307839	0.085580
N40	N	0.951321	-0.127399	-0.184257
C41	C	1.008398	-0.044099	0.634583
C42	C	1.002411	-0.052845	0.758632
C43	C	0.906213	-0.193209	0.748796
C44	C	0.912199	-0.184463	0.624747
C45	C	0.963294	-0.109906	0.567645
C46	C	0.969284	-0.101166	0.443594
C47	C	0.873082	-0.241524	0.433761
C48	C	0.867095	-0.250271	0.557810
H49	H	0.166137	-0.156958	0.315483
N50	N	1.098917	0.573403	0.112691
N51	N	1.166185	0.535765	0.119584
H52	H	1.213668	0.583396	0.124442
H53	H	1.039138	0.000744	0.813130
H54	H	1.102578	0.363474	0.113094
N55	N	0.532118	-0.161911	0.272807
N56	N	0.486968	-0.089259	0.292278
H57	H	0.453623	-0.093870	0.366732
H58	H	0.829190	0.516383	0.085038
H59	H	0.314920	-0.161302	0.330745
H60	H	0.560566	-0.133066	-0.138363
N61	N	0.854020	-0.269344	0.807154
N62	N	0.848679	-0.277131	0.917912
H63	H	0.811816	-0.330901	0.959130
N64	N	0.177575	-0.127598	-0.097450
N65	N	0.134747	-0.051555	-0.125910
H66	H	0.108910	-0.045202	-0.206440
N67	N	0.757309	0.350901	0.077678
N68	N	0.748802	0.447491	0.076797
H69	H	0.694450	0.477904	0.071217
N70	N	1.060542	0.032071	0.576177
N71	N	1.034108	0.101437	0.503915
H72	H	1.070922	0.155237	0.462639
N73	N	0.776586	0.132186	0.079685
N74	N	0.785109	0.035598	0.080570
H75	H	0.737638	-0.012057	0.075719
N76	N	0.343342	-0.132456	-0.080466
N77	N	0.311357	-0.124621	-0.180127
H78	H	0.344676	-0.120009	-0.254609
N79	N	1.061925	0.180534	0.108943
N80	N	1.120673	0.239514	0.114963
H81	H	1.175035	0.209131	0.120546
H82	H	0.825492	-0.310971	0.604316
H83	H	0.709350	-0.137422	-0.123112
N84	N	1.021429	-0.024948	0.385276
N85	N	1.061660	0.033844	0.445059
H86	H	1.098469	0.087701	0.403874
N87	N	0.827020	-0.308754	0.365367
N88	N	0.832377	-0.300945	0.254612
H89	H	0.799851	-0.348429	0.206307
H90	H	0.444954	-0.157355	0.236105
N91	N	0.697896	-0.166781	0.289837
N92	N	0.656632	-0.172487	0.381987
H93	H	0.682450	-0.178841	0.462532
H94	H	0.430529	-0.137005	-0.043733
