data_functionalizedCrystal
_audit_creation_method	'MofGen! by Chris Wilmer'
_symmetry_space_group_name_H-M	'P1'
_symmetry_Int_Tables_number	1
_symmetry_cell_setting	triclinic
loop_
_symmetry_equiv_pos_as_xyz
  x,y,z
_cell_length_a	11.792254
_cell_length_b	11.792254
_cell_length_c	7.540329
_cell_angle_alpha	89.996229
_cell_angle_beta	89.997091
_cell_angle_gamma	84.198598
loop_
_atom_site_label
_atom_site_type_symbol
_atom_site_fract_x
_atom_site_fract_y
_atom_site_fract_z
O1	O	1.506905	0.155634	-0.147482
O2	O	1.840238	0.488967	0.185852
O3	O	2.173572	0.822300	0.519185
O4	O	1.176566	0.171652	-0.147486
O5	O	1.509900	0.504985	0.185848
O6	O	1.843233	0.838318	0.519181
O7	O	1.349745	-0.001527	-0.147471
O8	O	1.683078	0.331807	0.185862
O9	O	2.016411	0.665140	0.519196
O10	O	1.333727	0.328812	-0.147496
O11	O	1.667060	0.662145	0.185837
O12	O	2.000393	0.995479	0.519170
O13	O	1.349734	-0.001529	0.147494
O14	O	1.683068	0.331805	0.480827
O15	O	2.016401	0.665138	0.814161
O16	O	1.176556	0.171649	0.147479
O17	O	1.509889	0.504983	0.480813
O18	O	1.843223	0.838316	0.814146
O19	O	1.506895	0.155632	0.147483
O20	O	1.840228	0.488965	0.480817
O21	O	2.173561	0.822298	0.814150
Cu22	Cu	1.341724	0.163640	0.174414
Cu23	Cu	1.675058	0.496974	0.507747
Cu24	Cu	2.008391	0.830307	0.841081
Cu25	Cu	1.341737	0.163643	-0.174416
Cu26	Cu	1.675070	0.496976	0.158917
Cu27	Cu	2.008403	0.830310	0.492250
O28	O	1.333716	0.328810	0.147469
O29	O	1.667050	0.662143	0.480802
O30	O	2.000383	0.995476	0.814135
C31	C	1.134271	0.170642	-0.000004
C32	C	1.467604	0.503975	0.333330
C33	C	1.800937	0.837308	0.666663
C34	C	1.008257	0.167621	-0.000005
C35	C	1.341591	0.500955	0.333328
C36	C	1.674924	0.834288	0.666662
C37	C	1.348730	-0.043818	0.000011
C38	C	1.682064	0.289515	0.333344
C39	C	2.015397	0.622848	0.666678
C40	C	1.345710	-0.169832	0.000009
C41	C	1.679044	0.163502	0.333343
C42	C	2.012377	0.496835	0.666676
C43	C	0.905921	0.165168	-0.000012
C44	C	1.239254	0.498501	0.333321
C45	C	1.572587	0.831834	0.666654
C46	C	0.777534	0.162099	-0.000013
C47	C	1.110867	0.495432	0.333320
C48	C	1.444201	0.828766	0.666654
C49	C	1.343256	-0.272168	0.000003
C50	C	1.676590	0.061165	0.333336
C51	C	2.009923	0.394498	0.666669
C52	C	1.340188	-0.400555	-0.000014
C53	C	1.673521	-0.067222	0.333320
C54	C	2.006855	0.266112	0.666653
C55	C	1.549190	0.156642	-0.000003
C56	C	1.882524	0.489975	0.333331
C57	C	2.215857	0.823308	0.666664
C58	C	1.675204	0.159662	-0.000013
C59	C	2.008537	0.492995	0.333320
C60	C	2.341870	0.826329	0.666653
C61	C	1.334731	0.371102	-0.000017
C62	C	1.668064	0.704435	0.333316
C63	C	2.001397	1.037768	0.666649
C64	C	1.337751	0.497115	-0.000027
C65	C	1.671084	0.830448	0.333306
C66	C	2.004417	1.163781	0.666639
N67	N	1.341724	0.163638	0.419762
N68	N	1.675057	0.496971	0.753096
N69	N	2.008391	0.830305	1.086429
N70	N	1.341746	0.163636	-0.419765
N71	N	1.675079	0.496970	-0.086432
N72	N	2.008413	0.830303	0.246902
