data_functionalizedCrystal
_audit_creation_method	'MofGen! by Chris Wilmer'
_symmetry_space_group_name_H-M	'P1'
_symmetry_Int_Tables_number	1
_symmetry_cell_setting	triclinic
loop_
_symmetry_equiv_pos_as_xyz
  x,y,z
_cell_length_a	15.995350
_cell_length_b	10.489741
_cell_length_c	15.072220
_cell_angle_alpha	89.999236
_cell_angle_beta	89.991149
_cell_angle_gamma	84.015774
loop_
_atom_site_label
_atom_site_type_symbol
_atom_site_fract_x
_atom_site_fract_y
_atom_site_fract_z
O1	O	1.111987	0.164400	-0.073707
O2	O	0.868334	0.184702	-0.073725
O3	O	0.995705	-0.011125	-0.073710
O4	O	0.984616	0.360226	-0.073722
O5	O	0.995673	-0.011114	0.073855
O6	O	0.868303	0.184713	0.073840
O7	O	1.111955	0.164411	0.073858
Zn8	Zn	0.990124	0.174563	0.097278
Zn9	Zn	0.990166	0.174549	-0.097145
O10	O	0.984585	0.360237	0.073844
C11	C	0.837119	0.183868	0.000055
C12	C	0.744153	0.181352	0.000048
C13	C	0.406351	0.172315	0.000067
C14	C	0.452944	0.032851	0.000401
C15	C	0.549650	0.035368	0.000062
C16	C	0.573939	0.176797	0.000058
C17	C	0.533284	0.245580	-0.084207
C18	C	0.436628	0.242076	-0.084271
C19	C	0.436270	0.244970	0.083538
C20	C	0.533215	0.244937	0.084645
C21	C	0.668651	0.179338	0.000050
C22	C	0.311638	0.169778	0.000069
C23	C	0.994852	-0.058639	0.000072
C24	C	0.992346	-0.200234	0.000070
C25	C	0.911304	-0.267240	0.000057
C26	C	0.949572	-0.359892	0.072818
C27	C	0.949622	-0.359878	-0.072670
C28	C	1.030647	-0.291022	0.072890
C29	C	1.030686	-0.290997	-0.072663
C30	C	1.069013	-0.383624	0.000115
C31	C	1.143171	0.165244	0.000076
C32	C	1.236137	0.167761	0.000077
C33	C	0.985438	0.407752	0.000060
C34	C	0.987944	0.549346	0.000056
N35	N	0.990102	0.174572	0.229967
N36	N	0.990195	0.174530	-0.229834
C37	C	0.990164	0.174544	0.589169
C38	C	0.921777	0.278976	0.551554
C39	C	0.921938	0.279357	0.448728
C40	C	0.990132	0.174558	0.410965
C41	C	1.077672	0.203626	0.448261
C42	C	1.077290	0.204368	0.551119
C43	C	0.971788	0.040735	0.551272
C44	C	0.969788	0.041628	0.448408
C45	C	0.990120	0.174564	0.310251
C46	C	0.990182	0.174541	0.689882
H47	H	0.433029	-0.022644	-0.059693
H48	H	1.129811	0.131304	0.576000
H49	H	0.561384	0.197798	-0.146917
H50	H	0.915268	-0.390420	0.134326
H51	H	0.560215	0.194726	0.146985
H52	H	0.905389	0.019568	0.424032
O53	O	1.076009	-0.250828	0.154469
H54	H	1.077483	-0.145277	0.153853
H55	H	0.404997	0.344468	-0.088098
O56	O	1.031408	-0.066144	0.414388
H57	H	1.077705	-0.026467	0.370066
O58	O	1.157349	-0.450349	0.000169
H59	H	1.190763	-0.422781	0.060626
H60	H	0.933437	0.377714	0.577390
H61	H	1.094106	0.300099	0.422491
H62	H	0.434073	-0.022892	0.060831
H63	H	1.021649	-0.036979	0.575596
H64	H	0.577192	-0.019074	-0.060445
H65	H	1.064961	-0.260437	-0.134174
O66	O	0.937597	0.410881	0.416108
H67	H	0.945092	0.474457	0.473801
H68	H	0.577739	-0.018699	0.060467
O69	O	1.098577	0.333626	0.582895
H70	H	1.109041	0.395019	0.524796
O71	O	1.146742	0.105559	0.415865
H72	H	1.149052	0.107733	0.342285
H73	H	0.549201	0.348072	0.089732
H74	H	0.915334	-0.390367	-0.134189
O75	O	0.408708	0.184574	0.168148
H76	H	0.373372	0.102089	0.151648
H77	H	0.844671	-0.216656	0.000126
O78	O	0.411984	0.175599	-0.167693
H79	H	0.469080	0.146248	-0.207608
H80	H	0.856894	0.262038	0.423513
H81	H	0.856525	0.261942	0.576311
H82	H	0.909296	0.012784	0.577258
H83	H	0.405128	0.347796	0.084105
O84	O	0.552826	0.383212	-0.088378
H85	H	0.591818	0.404099	-0.030298
