data_functionalizedCrystal
_audit_creation_method	'MofGen! by Chris Wilmer'
_symmetry_space_group_name_H-M	'P1'
_symmetry_Int_Tables_number	1
_symmetry_cell_setting	triclinic
loop_
_symmetry_equiv_pos_as_xyz
  x,y,z
_cell_length_a	23.532361
_cell_length_b	22.010155
_cell_length_c	10.540539
_cell_angle_alpha	90.006440
_cell_angle_beta	96.322420
_cell_angle_gamma	90.004127
loop_
_atom_site_label
_atom_site_type_symbol
_atom_site_fract_x
_atom_site_fract_y
_atom_site_fract_z
O1	O	0.756297	0.050462	-0.153782
O2	O	0.590577	0.050476	-0.176138
O3	O	0.677218	0.050468	0.019872
O4	O	0.669656	0.050470	-0.349792
O5	O	0.677202	-0.050583	0.019843
O6	O	0.590562	-0.050575	-0.176167
O7	O	0.756281	-0.050589	-0.153811
Cu8	Cu	0.673420	-0.059808	-0.164992
Cu9	Cu	0.673438	0.059695	-0.164957
O10	O	0.669640	-0.050581	-0.349821
C11	C	0.569349	-0.000048	-0.175593
C12	C	0.506120	-0.000042	-0.173909
C13	C	0.232836	0.055037	-0.166531
C14	C	0.292246	0.055038	-0.168124
O15	O	0.322984	0.101883	-0.168891
N16	N	0.321948	-0.000044	-0.168945
C17	C	0.292238	-0.055132	-0.168160
O18	O	0.322958	-0.101984	-0.169003
C19	C	0.232830	-0.055133	-0.166557
C20	C	0.203129	-0.000047	-0.165749
C21	C	0.203136	0.110119	-0.165722
C22	C	0.143729	0.110117	-0.164131
C23	C	0.114023	0.055033	-0.163349
C24	C	0.143723	-0.000049	-0.164159
C25	C	0.203121	-0.110220	-0.165763
C26	C	0.143708	-0.110217	-0.164159
C27	C	0.114008	-0.055130	-0.163351
C28	C	0.054611	-0.055134	-0.161786
N29	N	0.024908	-0.000051	-0.160965
C30	C	0.054614	0.055032	-0.161747
C31	C	0.417001	-0.055126	-0.171523
C32	C	0.476408	-0.055126	-0.173134
C33	C	0.476412	0.055045	-0.173097
C34	C	0.417003	0.055044	-0.171494
C35	C	0.387298	-0.000044	-0.170702
C36	C	-0.070143	0.055025	-0.158407
C37	C	-0.129555	0.055018	-0.156821
C38	C	-0.129553	-0.055152	-0.156853
C39	C	-0.070147	-0.055146	-0.158445
C40	C	-0.040443	-0.000053	-0.159218
O41	O	0.023835	-0.101955	-0.161013
O42	O	0.023889	0.101877	-0.160886
N43	N	0.673411	-0.143861	-0.165016
C44	C	0.711805	-0.563644	-0.078176
C45	C	0.711808	-0.627251	-0.078167
O46	O	0.744429	-0.660146	-0.004350
N47	N	0.673438	-0.659068	-0.164931
C48	C	0.635059	-0.627274	-0.251700
O49	O	0.602423	-0.660177	-0.325497
C50	C	0.635054	-0.563667	-0.251701
C51	C	0.673431	-0.531854	-0.164941
C52	C	0.750178	-0.531831	0.008578
C53	C	0.750176	-0.468227	0.008567
C54	C	0.711801	-0.436437	-0.078198
C55	C	0.673428	-0.468251	-0.164952
C56	C	0.596673	-0.531874	-0.338463
C57	C	0.596671	-0.468263	-0.338457
C58	C	0.635048	-0.436450	-0.251697
C59	C	0.635052	-0.372858	-0.251727
N60	N	0.673422	-0.341041	-0.164964
C61	C	0.711796	-0.372831	-0.078199
C62	C	0.635072	-0.760851	-0.251688
C63	C	0.635079	-0.824457	-0.251693
C64	C	0.711827	-0.824430	-0.078159
C65	C	0.711822	-0.760824	-0.078161
C66	C	0.673442	-0.729035	-0.164925
C67	C	0.711789	-0.239260	-0.078229
C68	C	0.711786	-0.175651	-0.078251
C69	C	0.635036	-0.175683	-0.251780
C70	C	0.635041	-0.239286	-0.251763
C71	C	0.673420	-0.271073	-0.164977
O72	O	0.602445	-0.339923	-0.325503
O73	O	0.744422	-0.339920	-0.004403
C74	C	0.777509	-0.000064	-0.154356
C75	C	0.840739	-0.000066	-0.156040
C76	C	0.676643	-0.000056	0.067142
C77	C	0.674946	-0.000053	0.208033
N78	N	0.673452	0.143748	-0.164923
C79	C	0.670215	-0.000055	-0.397091
C80	C	0.671912	-0.000055	-0.537982
C81	C	0.609936	0.000179	0.389303
C82	C	0.611656	-0.000048	0.242741
C83	C	0.705395	-0.057760	0.270685
C84	C	0.703235	-0.057809	0.417158
C85	C	0.704541	0.057104	0.417752
C86	C	0.705124	0.057867	0.270790
H87	H	0.500583	-0.099983	-0.173813
H88	H	-0.045965	0.099887	-0.159038
F89	F	0.752637	-0.273080	0.014139
F90	F	0.555819	-0.434435	-0.430803
H91	H	0.392825	0.099900	-0.170836
H92	H	0.743038	-0.149750	-0.007600
H93	H	0.603798	-0.265189	-0.322423
H94	H	0.751874	-0.059910	0.249873
F95	F	0.791018	-0.434375	0.100914
F96	F	0.594241	-0.858308	-0.344051
H97	H	0.585030	-0.040968	0.418672
F98	F	0.791024	-0.565655	0.100934
F99	F	0.762728	-0.061242	0.481834
H100	H	0.119553	0.154974	-0.163467
H101	H	0.743071	-0.734925	-0.007513
H102	H	0.682844	0.100557	0.229204
H103	H	0.119525	-0.155077	-0.163525
H104	H	0.227293	-0.155078	-0.166417
F105	F	0.594197	-0.141840	-0.344120
H106	H	-0.153751	-0.100000	-0.156221
H107	H	0.500609	0.099897	-0.173732
H108	H	0.392818	-0.099988	-0.170894
F109	F	0.677733	-0.113887	0.214075
F110	F	0.752668	-0.858276	0.014186
H111	H	0.227317	0.154977	-0.166354
F112	F	0.673802	-0.114186	0.453027
H113	H	0.565424	-0.557767	-0.409110
F114	F	0.594223	-0.727024	-0.344048
F115	F	0.580339	0.054021	0.186028
H116	H	0.684063	0.100842	0.448638
F117	F	-0.038538	-0.113775	-0.159322
F118	F	0.577264	0.054271	0.425612
H119	H	0.587515	-0.041480	0.200172
F120	F	0.765437	0.062421	0.241128
H121	H	-0.153734	0.099878	-0.156167
F122	F	0.764292	0.057608	0.481464
