data_functionalizedCrystal
_audit_creation_method	'MofGen! by Chris Wilmer'
_symmetry_space_group_name_H-M	'P1'
_symmetry_Int_Tables_number	1
_symmetry_cell_setting	triclinic
loop_
_symmetry_equiv_pos_as_xyz
  x,y,z
_cell_length_a	19.077105
_cell_length_b	25.639239
_cell_length_c	19.076919
_cell_angle_alpha	87.731593
_cell_angle_beta	89.923776
_cell_angle_gamma	87.734929
loop_
_atom_site_label
_atom_site_type_symbol
_atom_site_fract_x
_atom_site_fract_y
_atom_site_fract_z
Zn1	Zn	1.058187	-0.252939	0.440398
Zn2	Zn	1.062799	-0.337004	0.322884
Zn3	Zn	0.945407	-0.245935	0.318192
Zn4	Zn	0.940620	-0.336689	0.435637
O5	O	1.001753	-0.293142	0.379278
O6	O	1.157129	-0.267153	0.428766
O7	O	1.051160	-0.322124	0.223931
O8	O	0.960440	-0.173702	0.334431
O9	O	1.160518	-0.328916	0.342429
O10	O	1.043299	-0.178848	0.424215
O11	O	0.964912	-0.255216	0.220483
O12	O	0.846441	-0.254910	0.329815
O13	O	0.952283	-0.328378	0.534600
O14	O	0.842925	-0.321587	0.416101
O15	O	1.038658	-0.266848	0.538097
O16	O	1.046519	-0.410124	0.337813
O17	O	0.956755	-0.409893	0.420652
C18	C	0.819187	-0.287455	0.371933
C19	C	0.741083	-0.285035	0.368807
C20	C	0.702581	-0.318661	0.412193
C21	C	0.629194	-0.316381	0.409259
C22	C	0.594312	-0.280476	0.362936
C23	C	0.632820	-0.246846	0.319549
C24	C	0.706205	-0.249125	0.322486
C25	C	0.375028	-0.269932	0.349344
C26	C	0.301638	-0.267658	0.346409
C27	C	0.298017	-0.337192	0.436121
C28	C	0.371404	-0.339469	0.439051
C29	C	0.409905	-0.305837	0.395666
N30	N	0.519299	-0.278146	0.359935
N31	N	0.484917	-0.308166	0.398671
C32	C	1.001636	-0.428980	0.379241
C33	C	1.001650	-0.487094	0.379251
C34	C	1.048607	-0.847575	0.336225
C35	C	1.048634	-0.902180	0.336235
O36	O	1.088438	-0.930513	0.299613
N37	N	1.001875	-0.929386	0.379329
C38	C	0.955090	-0.901983	0.422421
O39	O	0.915321	-0.930137	0.459077
C40	C	0.955067	-0.847379	0.422413
C41	C	1.001825	-0.820176	0.379311
C42	C	1.095362	-0.820372	0.293127
C43	C	1.095334	-0.765771	0.293116
C44	C	1.048551	-0.738372	0.336202
C45	C	1.001797	-0.765574	0.379300
C46	C	0.908287	-0.819977	0.465508
C47	C	0.908268	-0.765369	0.465497
C48	C	0.955026	-0.738167	0.422395
C49	C	0.954987	-0.683574	0.422375
N50	N	1.001746	-0.656368	0.379282
C51	C	1.048528	-0.683767	0.336195
C52	C	0.955143	-1.016656	0.422434
C53	C	0.955162	-1.071259	0.422438
C54	C	1.048707	-1.071452	0.336253
C55	C	1.048684	-1.016848	0.336246
C56	C	1.001902	-0.989450	0.379340
C57	C	1.048466	-0.569100	0.336174
C58	C	1.048432	-0.514493	0.336164
C59	C	0.954890	-0.514304	0.422351
C60	C	0.954921	-0.568906	0.422359
C61	C	1.001715	-0.596303	0.379268
O62	O	0.915205	-0.655207	0.458982
O63	O	1.088298	-0.655607	0.299552
C64	C	1.185032	-0.298851	0.386652
C65	C	1.263135	-0.301284	0.389794
C66	C	0.994422	-0.298359	0.562557
C67	C	0.991298	-0.300582	0.640660
C68	C	1.001889	-0.156774	0.379331
C69	C	1.001947	-0.098662	0.379354
C70	C	1.009096	-0.287908	0.196713
C71	C	1.012356	-0.285541	0.118616
C72	C	1.034799	-0.269593	0.679175
C73	C	1.031855	-0.271680	0.752561
C74	C	0.985413	-0.304759	0.787430
C75	C	0.941907	-0.335750	0.748910
C76	C	0.944848	-0.333660	0.675526
C77	C	0.971792	-0.314442	1.006711
C78	C	0.968856	-0.316531	1.080100
C79	C	1.058803	-0.252460	1.083746
C80	C	1.061742	-0.250375	1.010361
C81	C	1.018234	-0.281364	0.971846
N82	N	0.982404	-0.306894	0.862442
N83	N	1.021240	-0.279226	0.896836
H84	H	1.086507	-0.492346	0.301063
H85	H	0.917081	-1.093402	0.457529
H86	H	1.099562	-0.223440	0.981975
H87	H	0.266661	-0.364572	0.471443
O88	O	1.140731	-0.739405	0.251154
C89	C	1.128233	-0.750302	0.180493
H90	H	1.101289	-0.789083	0.177936
H91	H	1.180235	-0.752833	0.151075
H92	H	1.093072	-0.717803	0.155330
H93	H	0.604413	-0.217610	0.281834
H94	H	0.406367	-0.242551	0.314012
H95	H	1.086571	-0.591400	0.301087
O96	O	1.074137	-0.241651	0.790058
C97	C	1.117799	-0.274036	0.834319
H98	H	1.092540	-0.313200	0.844295
H99	H	1.125157	-0.254501	0.886312
H100	H	1.171005	-0.280594	0.808143
H101	H	0.399800	-0.368707	0.476771
H102	H	1.133461	-0.842675	0.258040
O103	O	0.267861	-0.232730	0.301391
C104	C	0.317579	-0.203542	0.263716
H105	H	0.368747	-0.204206	0.294595
H106	H	0.296698	-0.161473	0.255476
H107	H	0.327496	-0.221345	0.210612
H108	H	1.086802	-1.093771	0.301172
O109	O	0.736427	-0.353485	0.457292
C110	C	0.715702	-0.343585	0.526634
H111	H	0.695418	-0.301298	0.529475
H112	H	0.762577	-0.350614	0.563271
H113	H	0.672353	-0.370834	0.543228
O114	O	0.896831	-0.367955	0.782705
C115	C	0.912864	-0.420032	0.765383
H116	H	0.942009	-0.420439	0.713188
H117	H	0.862228	-0.441824	0.760819
H118	H	0.947319	-0.439943	0.808132
H119	H	0.737553	-0.221740	0.287160
H120	H	0.870174	-0.743065	0.500592
O121	O	1.094173	-0.990508	0.294360
C122	C	1.135451	-1.026406	0.256319
H123	H	1.136721	-1.066214	0.285208
H124	H	1.191113	-1.012104	0.251091
H125	H	1.111897	-1.029928	0.201900
O126	O	0.862801	-0.846413	0.507280
C127	C	0.819066	-0.875508	0.465436
H128	H	0.816966	-0.857369	0.409910
H129	H	0.763959	-0.875197	0.488642
H130	H	0.840905	-0.917484	0.463919
O131	O	0.909622	-0.990122	0.464311
C132	C	0.868373	-1.025849	0.502357
H133	H	0.867139	-1.063886	0.473477
H134	H	0.812696	-1.008607	0.507578
H135	H	0.891928	-1.033944	0.556780
O136	O	0.909475	-0.595254	0.464290
C137	C	0.868164	-0.559358	0.502301
H138	H	0.896822	-0.521374	0.505899
H139	H	0.858422	-0.576462	0.557361
H140	H	0.815843	-0.551213	0.474380
O141	O	0.591762	-0.348976	0.451476
C142	C	0.547518	-0.319245	0.495232
H143	H	0.569486	-0.278884	0.500563
H144	H	0.544526	-0.339734	0.549227
H145	H	0.492764	-0.315075	0.471290
O146	O	0.909549	-0.487663	0.464285
C147	C	0.947701	-0.458562	0.511282
H148	H	1.002869	-0.476827	0.517891
H149	H	0.920088	-0.458686	0.564318
H150	H	0.950996	-0.416642	0.489643
H151	H	1.072619	-0.242657	0.650790
H152	H	1.094224	-0.227230	1.115112
H153	H	0.931035	-0.343470	1.108489
O154	O	0.929494	-0.344589	0.969412
C155	C	0.887858	-0.374219	1.015927
H156	H	0.914552	-0.378427	1.069391
H157	H	0.881149	-0.414570	0.994399
H158	H	0.834207	-0.353622	1.021603
H159	H	0.909418	-0.358890	0.644167
