data_functionalizedCrystal
_audit_creation_method	'MofGen! by Chris Wilmer'
_symmetry_space_group_name_H-M	'P1'
_symmetry_Int_Tables_number	1
_symmetry_cell_setting	triclinic
loop_
_symmetry_equiv_pos_as_xyz
  x,y,z
_cell_length_a	13.262315
_cell_length_b	13.262390
_cell_length_c	16.053802
_cell_angle_alpha	71.509748
_cell_angle_beta	71.522362
_cell_angle_gamma	91.238982
loop_
_atom_site_label
_atom_site_type_symbol
_atom_site_fract_x
_atom_site_fract_y
_atom_site_fract_z
O1	O	-0.118300	1.416444	-0.364207
O2	O	-0.138426	1.106156	-0.289177
O3	O	0.026773	1.271372	-0.364209
O4	O	-0.283499	1.251227	-0.289176
O5	O	0.017717	1.262279	-0.221229
O6	O	-0.147482	1.097062	-0.146197
O7	O	-0.127356	1.407350	-0.221227
Zn8	Zn	-0.138857	1.250762	-0.161011
Zn9	Zn	-0.126925	1.262744	-0.349394
O10	O	-0.292554	1.242133	-0.146195
C11	C	-0.142659	1.061932	-0.208745
C12	C	-0.141767	0.943709	-0.182101
C13	C	-0.119494	0.630295	-0.418770
C14	C	-0.120326	0.741372	-0.443805
C15	C	-0.125687	0.791962	-0.378381
C16	C	-0.130214	0.731463	-0.287918
C17	C	-0.129374	0.620376	-0.262882
C18	C	-0.135567	0.782043	-0.222494
C19	C	-0.140094	0.721545	-0.132031
C20	C	-0.139254	0.610468	-0.106999
C21	C	-0.133893	0.559879	-0.172423
C22	C	-0.136407	0.893130	-0.247529
C23	C	-0.146287	0.883212	-0.091642
C24	C	-0.145455	0.772134	-0.066607
C25	C	-0.327701	1.246973	-0.208742
C26	C	-0.445918	1.247857	-0.182098
C27	C	-0.759386	1.270185	-0.418772
C28	C	-0.648317	1.269342	-0.443801
C29	C	-0.597712	1.263971	-0.378377
C30	C	-0.658187	1.259443	-0.287920
C31	C	-0.769269	1.260277	-0.262886
C32	C	-0.607594	1.254064	-0.222492
C33	C	-0.668069	1.249535	-0.132035
C34	C	-0.779140	1.250371	-0.107005
C35	C	-0.829745	1.255741	-0.172429
C36	C	-0.496512	1.253229	-0.247526
C37	C	-0.506395	1.243321	-0.091640
C38	C	-0.617464	1.244164	-0.066611
C39	C	0.061920	1.266533	-0.301664
C40	C	0.180137	1.265649	-0.328314
C41	C	-0.123122	1.451574	-0.301662
C42	C	-0.124014	1.569797	-0.328310
N43	N	-0.146999	1.242593	-0.032446
N44	N	-0.118774	1.270921	-0.477962
C45	C	-0.076731	1.312918	-0.020679
C46	C	-0.082437	1.307214	0.069319
C47	C	-0.158416	1.231188	0.147548
C48	C	-0.228687	1.160856	0.135776
C49	C	-0.222975	1.166556	0.045780
C50	C	-0.183334	1.206289	0.420270
C51	C	-0.189042	1.200596	0.510271
C52	C	-0.042790	1.346953	0.443807
C53	C	-0.037089	1.352651	0.353812
C54	C	-0.107357	1.282315	0.342048
N55	N	-0.164252	1.225358	0.239541
N56	N	-0.101515	1.288141	0.250056
H57	H	-0.149141	0.722861	0.007050
H58	H	-0.126365	0.882406	-0.398770
H59	H	-0.507274	1.263284	-0.398761
H60	H	-0.025218	1.364477	0.078897
H61	H	-0.116634	0.790623	-0.517462
O62	O	-0.114475	0.581074	-0.482230
C63	C	-0.200092	0.448332	-0.520474
C64	C	-0.205925	0.504007	-0.448530
H65	H	-0.274008	0.385997	-0.493245
H66	H	-0.197072	0.510589	-0.589437
H67	H	-0.124825	0.407144	-0.531977
H68	H	-0.281184	0.545193	-0.436946
H69	H	-0.208886	0.441704	-0.379609
O70	O	-0.002761	1.386663	-0.096623
C71	C	0.184808	1.452741	-0.180856
C72	C	0.101134	1.369149	-0.094833
H73	H	0.268825	1.438624	-0.179427
H74	H	0.176948	1.444765	-0.247253
H75	H	0.170584	1.536775	-0.179540
H76	H	0.115305	1.285079	-0.096060
H77	H	0.109015	1.377219	-0.028475
H78	H	-0.133219	0.469430	-0.152043
H79	H	-0.142922	0.561216	-0.033343
H80	H	-0.599085	1.273032	-0.517452
H81	H	-0.800600	1.274551	-0.472028
H82	H	-0.250918	1.138684	0.573966
H83	H	-0.447285	1.256913	-0.321176
H84	H	-0.920186	1.256434	-0.152056
O85	O	-0.676139	1.239934	0.021225
C86	C	-0.705521	1.324002	0.138232
C87	C	-0.639008	1.328945	0.038730
H88	H	-0.675511	1.395946	0.152423
H89	H	-0.793608	1.325582	0.144924
H90	H	-0.696638	1.246762	0.191039
H91	H	-0.647802	1.406175	-0.014137
H92	H	-0.550948	1.327305	0.032116
H93	H	-0.828377	1.246679	-0.033348
H94	H	0.024779	1.414557	0.290117
H95	H	-0.150651	0.924401	-0.038369
H96	H	-0.465193	1.238944	-0.038366
H97	H	-0.280194	1.109289	0.036203
H98	H	-0.290547	1.098949	0.199477
H99	H	-0.240550	1.149020	0.410700
O100	O	-0.132207	0.951818	-0.335358
C101	C	-0.216332	0.981206	-0.452345
C102	C	-0.221229	0.914678	-0.352848
H103	H	-0.288285	0.951189	-0.466523
H104	H	-0.217920	1.069295	-0.459040
H105	H	-0.139108	0.972340	-0.505160
H106	H	-0.298442	0.923454	-0.299973
H107	H	-0.219581	0.826616	-0.346231
O108	O	0.025624	1.415224	0.455122
C109	C	0.209686	1.477739	0.425915
C110	C	0.132320	1.400389	0.413016
H111	H	0.295965	1.465755	0.391898
H112	H	0.197853	1.564054	0.391788
H113	H	0.192501	1.460618	0.503680
H114	H	0.149456	1.417412	0.335274
H115	H	0.144168	1.314098	0.447204
