data_functionalizedCrystal
_audit_creation_method	'MofGen! by Chris Wilmer'
_symmetry_space_group_name_H-M	'P1'
_symmetry_Int_Tables_number	1
_symmetry_cell_setting	triclinic
loop_
_symmetry_equiv_pos_as_xyz
  x,y,z
_cell_length_a	16.120530
_cell_length_b	19.121063
_cell_length_c	16.120256
_cell_angle_alpha	95.181175
_cell_angle_beta	90.128265
_cell_angle_gamma	89.687057
loop_
_atom_site_label
_atom_site_type_symbol
_atom_site_fract_x
_atom_site_fract_y
_atom_site_fract_z
Zn1	Zn	1.228531	-0.355763	-0.551590
Zn2	Zn	1.728531	0.144237	-0.051590
Zn3	Zn	1.229541	-0.467542	-0.417880
Zn4	Zn	1.729541	0.032458	0.082120
Zn5	Zn	1.097152	-0.343893	-0.404939
Zn6	Zn	1.597152	0.156107	0.095061
Zn7	Zn	1.083531	-0.466899	-0.549819
Zn8	Zn	1.583531	0.033101	-0.049819
O9	O	1.159689	-0.408524	-0.481057
O10	O	1.659689	0.091476	0.018943
O11	O	1.344753	-0.375827	-0.540010
O12	O	1.844753	0.124173	-0.040010
O13	O	1.218102	-0.446442	-0.299573
O14	O	1.718102	0.053558	0.200427
O15	O	1.119858	-0.247209	-0.419718
O16	O	1.619858	0.252791	0.080282
O17	O	1.345495	-0.457951	-0.441774
O18	O	1.845495	0.042049	0.058226
O19	O	1.216381	-0.255929	-0.527461
O20	O	1.716381	0.244071	-0.027461
O21	O	1.120837	-0.355597	-0.290065
O22	O	1.620837	0.144403	0.209935
O23	O	0.979258	-0.354973	-0.418001
O24	O	1.479258	0.145027	0.081999
O25	O	1.096643	-0.456855	-0.666645
O26	O	1.596643	0.043145	-0.166645
O27	O	0.969250	-0.445346	-0.524444
O28	O	1.469250	0.054654	-0.024444
O29	O	1.203174	-0.375203	-0.667945
O30	O	1.703174	0.124797	-0.167945
O31	O	1.204894	-0.565716	-0.440057
O32	O	1.704894	-0.065716	0.059943
O33	O	1.097622	-0.565243	-0.536992
O34	O	1.597622	-0.065243	-0.036992
C35	C	0.944154	-0.398802	-0.469626
C36	C	1.444154	0.101198	0.030374
C37	C	0.851945	-0.394661	-0.464757
C38	C	1.351945	0.105339	0.035243
C39	C	0.683118	-0.387084	-0.455873
C40	C	1.183118	0.112916	0.044127
C41	C	0.637095	-0.430019	-0.506304
C42	C	1.137095	0.069981	-0.006304
C43	C	0.543153	-0.425803	-0.501361
C44	C	1.043153	0.074197	-0.001361
C45	C	0.777068	-0.391299	-0.460815
C46	C	1.277068	0.108701	0.039185
C47	C	1.149911	-0.590959	-0.489756
C48	C	1.649911	-0.090959	0.010244
C49	C	1.145803	-0.669010	-0.493509
C50	C	1.645803	-0.169010	0.006491
C51	C	1.199763	-0.705904	-0.444850
C52	C	1.699763	-0.205904	0.055150
C53	C	1.195903	-0.779242	-0.448385
C54	C	1.695903	-0.279242	0.051615
C55	C	1.138079	-0.815683	-0.500575
C56	C	1.638079	-0.315683	-0.000575
C57	C	1.084117	-0.778783	-0.549240
C58	C	1.584117	-0.278783	-0.049240
C59	C	1.087981	-0.705447	-0.545709
C60	C	1.587981	-0.205447	-0.045709
C61	C	1.123620	-1.037098	-0.513764
C62	C	1.623620	-0.537098	-0.013764
C63	C	1.119759	-1.110439	-0.517290
C64	C	1.619759	-0.610439	-0.017290
C65	C	1.231546	-1.110893	-0.416435
C66	C	1.731546	-0.610893	0.083565
C67	C	1.235402	-1.037555	-0.412905
C68	C	1.735402	-0.537555	0.087095
C69	C	1.181443	-1.000662	-0.461573
C70	C	1.681443	-0.500662	0.038427
C71	C	1.134131	-0.890645	-0.504188
C72	C	1.634131	-0.390645	-0.004188
C73	C	1.185395	-0.925701	-0.457964
C74	C	1.685395	-0.425701	0.042036
C75	C	1.376066	-0.418285	-0.492533
C76	C	1.876066	0.081715	0.007467
C77	C	1.468273	-0.422444	-0.497423
C78	C	1.968273	0.077556	0.002577
C79	C	1.148276	-0.417281	-0.698371
C80	C	1.648276	0.082719	-0.198371
C81	C	1.143413	-0.421013	-0.790977
C82	C	1.643413	0.078987	-0.290977
C83	C	1.169526	-0.225379	-0.472344
C84	C	1.669526	0.274621	0.027656
C85	C	1.173719	-0.147334	-0.468630
C86	C	1.673719	0.352666	0.031370
C87	C	1.185051	-0.389046	-1.002432
C88	C	1.685051	0.110954	-0.502432
C89	C	1.134507	-0.427796	-0.960522
C90	C	1.634507	0.072204	-0.460522
C91	C	1.139464	-0.424021	-0.866178
C92	C	1.639464	0.075979	-0.366178
C93	C	1.180095	-0.392820	-1.096784
C94	C	1.680095	0.107180	-0.596784
C95	C	1.171108	-0.399753	-0.264588
C96	C	1.671108	0.100247	0.235412
C97	C	1.176142	-0.395831	-0.171982
C98	C	1.676142	0.104169	0.328018
H99	H	0.651969	-0.347162	-0.408988
H100	H	1.151969	0.152838	0.091012
H101	H	1.087050	-0.920323	-0.546680
H102	H	1.587050	-0.420323	-0.046680
O103	O	1.063503	-1.145859	-0.567872
O104	O	1.563503	-0.645859	-0.067872
C105	C	1.010225	-1.184019	-0.519601
C106	C	1.510225	-0.684019	-0.019601
H107	H	1.009760	-1.159070	-0.452647
H108	H	1.509760	-0.659070	0.047353
H109	H	1.033097	-1.240623	-0.520782
H110	H	1.533097	-0.740623	-0.020782
C111	C	0.922330	-1.213585	-0.637955
C112	C	1.422330	-0.713585	-0.137955
C113	C	0.921754	-1.182938	-0.555722
C114	C	1.421754	-0.682938	-0.055722
H115	H	0.867758	-1.212922	-0.660238
H116	H	1.367758	-0.712922	-0.160238
H117	H	0.958226	-1.187878	-0.670478
H118	H	1.458226	-0.687878	-0.170478
H119	H	0.941395	-1.260752	-0.638928
H120	H	1.441395	-0.760752	-0.138928
H121	H	0.902700	-1.135770	-0.554752
H122	H	1.402700	-0.635770	-0.054752
H123	H	0.885853	-1.208637	-0.523201
H124	H	1.385853	-0.708637	-0.023201
O125	O	1.241032	-0.345990	-0.960743
O126	O	1.741032	0.154010	-0.460743
C127	C	1.225596	-0.276018	-0.977629
C128	C	1.725596	0.223982	-0.477629
H129	H	1.158281	-0.270414	-0.997926
H130	H	1.658281	0.229586	-0.497926
H131	H	1.268467	-0.261648	-1.029545
H132	H	1.768467	0.238352	-0.529545
C133	C	1.324434	-0.233449	-0.873599
C134	C	1.824434	0.266551	-0.373599
C135	C	1.241755	-0.226564	-0.898521
C136	C	1.741755	0.273436	-0.398521
H137	H	1.334405	-0.202942	-0.824803
H138	H	1.834405	0.297058	-0.324803
H139	H	1.334836	-0.280590	-0.862224
H140	H	1.834836	0.219410	-0.362224
H141	H	1.360150	-0.221475	-0.916869
H142	H	1.860150	0.278525	-0.416869
H143	H	1.206041	-0.238546	-0.855255
H144	H	1.706041	0.261454	-0.355255
H145	H	1.231347	-0.179423	-0.909886
H146	H	1.731347	0.320577	-0.409886
H147	H	0.668245	-0.469943	-0.553193
H148	H	1.168245	0.030057	-0.053193
H149	H	1.246845	-0.676239	-0.402347
H150	H	1.746845	-0.176239	0.097653
O151	O	1.035482	-0.669712	-0.593007
O152	O	1.535482	-0.169712	-0.093007
C153	C	0.983631	-0.717600	-0.639846
C154	C	1.483631	-0.217600	-0.139846
H155	H	0.979816	-0.768386	-0.608081
H156	H	1.479816	-0.268386	-0.108081
H157	H	1.010233	-0.729277	-0.705126
H158	H	1.510233	-0.229277	-0.205126
C159	C	0.900897	-0.623160	-0.684751
C160	C	1.400897	-0.123160	-0.184751
C161	C	0.896206	-0.685533	-0.645734
C162	C	1.396206	-0.185533	-0.145734
H163	H	0.846970	-0.603379	-0.688387
H164	H	1.346970	-0.103379	-0.188387
H165	H	0.935832	-0.590896	-0.653198
H166	H	1.435832	-0.090896	-0.153198
H167	H	0.923069	-0.632899	-0.739148
H168	H	1.423069	-0.132899	-0.239148
H169	H	0.874044	-0.675792	-0.591335
H170	H	1.374044	-0.175792	-0.091335
H171	H	0.861265	-0.717795	-0.677279
H172	H	1.361265	-0.217795	-0.177279
H173	H	1.232478	-0.896029	-0.415474
H174	H	1.732478	-0.396029	0.084526
H175	H	1.239842	-0.809278	-0.408761
H176	H	1.739842	-0.309278	0.091239
H177	H	1.079683	-1.007065	-0.553390
H178	H	1.579683	-0.507065	-0.053390
O179	O	1.291653	-1.002271	-0.362197
O180	O	1.791653	-0.502271	0.137803
C181	C	1.338442	-1.050561	-0.319993
C182	C	1.838442	-0.550561	0.180007
H183	H	1.336737	-1.104327	-0.356785
H184	H	1.836737	-0.604327	0.143215
H185	H	1.311031	-1.054484	-0.255457
H186	H	1.811031	-0.554484	0.244543
C187	C	1.430976	-0.959344	-0.266180
C188	C	1.930976	-0.459344	0.233820
C189	C	1.428888	-1.025379	-0.311372
C190	C	1.928888	-0.525379	0.188628
H191	H	1.486766	-0.943810	-0.260858
H192	H	1.986766	-0.443810	0.239142
H193	H	1.399452	-0.926809	-0.294611
H194	H	1.899452	-0.426809	0.205389
H195	H	1.408130	-0.962622	-0.212404
H196	H	1.908130	-0.462622	0.287596
H197	H	1.451724	-1.022098	-0.365150
H198	H	1.951724	-0.522098	0.134850
H199	H	1.460418	-1.057913	-0.282950
H200	H	1.960418	-0.557913	0.217050
O201	O	1.283932	-1.146843	-0.369256
O202	O	1.783932	-0.646843	0.130744
C203	C	1.268115	-1.219384	-0.383548
C204	C	1.768115	-0.719384	0.116452
H205	H	1.236982	-1.230759	-0.446857
H206	H	1.736982	-0.730759	0.053143
H207	H	1.225487	-1.236267	-0.332750
H208	H	1.725487	-0.736267	0.167250
C209	C	1.388718	-1.246481	-0.304500
C210	C	1.888718	-0.746481	0.195500
C211	C	1.350485	-1.260452	-0.382262
C212	C	1.850485	-0.760452	0.117738
H213	H	1.439526	-1.271815	-0.303703
H214	H	1.939526	-0.771815	0.196297
H215	H	1.399373	-1.197608	-0.294868
H216	H	1.899373	-0.697608	0.205132
H217	H	1.353186	-1.260550	-0.262178
H218	H	1.853186	-0.760550	0.237822
H219	H	1.386013	-1.246375	-0.424582
H220	H	1.886013	-0.746375	0.075418
H221	H	1.339838	-1.309323	-0.391901
H222	H	1.839838	-0.809323	0.108099
O223	O	1.078526	-0.470754	-1.002372
O224	O	1.578526	0.029246	-0.502372
C225	C	1.085976	-0.465008	-1.088618
C226	C	1.585976	0.034992	-0.588618
H227	H	1.150619	-0.445346	-1.102700
H228	H	1.650619	0.054654	-0.602700
H229	H	1.037495	-0.426379	-1.108919
H230	H	1.537495	0.073621	-0.608919
C231	C	0.992885	-0.561623	-1.119085
C232	C	1.492885	-0.061623	-0.619085
C233	C	1.072283	-0.537479	-1.136382
C234	C	1.572283	-0.037479	-0.636382
H235	H	0.984435	-0.606326	-1.148549
H236	H	1.484435	-0.106326	-0.648549
H237	H	0.987863	-0.565493	-1.060979
H238	H	1.487863	-0.065493	-0.560979
H239	H	0.952493	-0.529426	-1.136003
H240	H	1.452493	-0.029426	-0.636003
H241	H	1.112673	-0.569672	-1.119454
H242	H	1.612673	-0.069672	-0.619454
H243	H	1.077312	-0.533616	-1.194486
H244	H	1.577312	-0.033616	-0.694486
H245	H	1.037039	-0.808459	-0.591739
H246	H	1.537039	-0.308459	-0.091739
