data_functionalizedCrystal
_audit_creation_method	'MofGen! by Chris Wilmer'
_symmetry_space_group_name_H-M	'P1'
_symmetry_Int_Tables_number	1
_symmetry_cell_setting	triclinic
loop_
_symmetry_equiv_pos_as_xyz
  x,y,z
_cell_length_a	12.837943
_cell_length_b	11.792254
_cell_length_c	11.892095
_cell_angle_alpha	93.915908
_cell_angle_beta	85.689438
_cell_angle_gamma	89.513769
loop_
_atom_site_label
_atom_site_type_symbol
_atom_site_fract_x
_atom_site_fract_y
_atom_site_fract_z
O1	O	1.383715	0.288690	-0.093984
O2	O	1.081827	0.274106	-0.093991
O3	O	1.240090	0.116971	-0.093980
O4	O	1.225453	0.445824	-0.093996
O5	O	1.226894	0.130050	0.094027
O6	O	1.068632	0.287185	0.094016
O7	O	1.370519	0.301769	0.094022
Zn8	Zn	1.217480	0.296554	0.123869
Zn9	Zn	1.234866	0.279321	-0.123838
O10	O	1.212257	0.458904	0.094011
C11	C	1.036581	0.275718	0.000011
C12	C	0.921421	0.261025	0.000009
C13	C	1.232570	0.081126	0.000023
C14	C	1.229810	-0.045167	0.000022
C15	C	0.681462	0.437671	0.000017
C16	C	0.573258	0.423870	0.000015
C17	C	0.596807	0.219623	0.000013
C18	C	0.705010	0.233424	0.000015
C19	C	0.747334	0.342451	0.000015
C20	C	0.855541	0.356251	0.000008
C21	C	0.879086	0.152006	0.000014
C22	C	0.770882	0.138205	0.000013
C23	C	1.227568	-0.147731	0.000018
C24	C	1.224764	-0.276403	0.000008
C25	C	1.415766	0.300156	0.000017
C26	C	1.530926	0.314849	0.000012
C27	C	1.219777	0.494748	0.000005
C28	C	1.222537	0.621041	-0.000001
N29	N	1.205622	0.308314	0.292922
N30	N	1.246732	0.267552	-0.292891
C31	C	1.329245	0.185650	0.529579
C32	C	1.320964	0.193880	0.647920
C33	C	1.180775	0.332997	0.647948
C34	C	1.189056	0.324767	0.529607
C35	C	1.263294	0.251093	0.470426
C36	C	1.271580	0.242870	0.352083
C37	C	1.131387	0.381980	0.352113
C38	C	1.123106	0.390210	0.470454
H39	H	0.889998	0.445026	0.000010
O40	O	0.722408	0.543655	0.000059
C41	C	0.641065	0.624740	0.000022
H42	H	0.564886	0.587444	0.035618
H43	H	0.660266	0.703949	0.054598
H44	H	0.632268	0.648393	-0.090177
H45	H	0.736406	0.049439	0.000026
H46	H	0.932732	0.074471	0.000005
H47	H	0.519628	0.501408	0.000020
H48	H	1.389699	0.125670	0.481393
H49	H	1.374666	0.140589	0.696079
H50	H	0.562321	0.130865	0.000107
H51	H	1.332031	0.182883	0.303899
H52	H	1.062660	0.450191	0.518653
H53	H	1.120325	0.392973	0.696148
O54	O	1.067374	0.445445	0.294476
C55	C	1.090623	0.422416	0.177334
H56	H	1.129998	0.335211	0.161159
H57	H	1.015297	0.423401	0.132369
H58	H	1.145371	0.490013	0.143750
