data_functionalizedCrystal
_audit_creation_method	'MofGen! by Chris Wilmer'
_symmetry_space_group_name_H-M	'P1'
_symmetry_Int_Tables_number	1
_symmetry_cell_setting	triclinic
loop_
_symmetry_equiv_pos_as_xyz
  x,y,z
_cell_length_a	15.995350
_cell_length_b	19.188924
_cell_length_c	15.072220
_cell_angle_alpha	89.996779
_cell_angle_beta	89.991149
_cell_angle_gamma	83.317170
loop_
_atom_site_label
_atom_site_type_symbol
_atom_site_fract_x
_atom_site_fract_y
_atom_site_fract_z
O1	O	1.110664	0.089992	-0.073711
O2	O	1.610664	0.589992	0.426289
O3	O	0.866847	0.101105	-0.073730
O4	O	1.366847	0.601105	0.426270
O5	O	0.995794	-0.006090	-0.073710
O6	O	1.495794	0.493910	0.426290
O7	O	0.981716	0.197187	-0.073732
O8	O	1.481716	0.697187	0.426268
O9	O	0.995763	-0.006084	0.073855
O10	O	1.495763	0.493916	0.573855
O11	O	0.866816	0.101111	0.073835
O12	O	1.366816	0.601111	0.573835
O13	O	1.110632	0.089998	0.073854
O14	O	1.610632	0.589998	0.573854
Zn15	Zn	0.988719	0.095555	0.097273
Zn16	Zn	1.488719	0.595555	0.597273
Zn17	Zn	0.988761	0.095548	-0.097150
Zn18	Zn	1.488761	0.595548	0.402850
O19	O	0.981685	0.197192	0.073833
O20	O	1.481685	0.697192	0.573833
C21	C	0.835638	0.100649	0.000050
C22	C	1.335638	0.600649	0.500050
C23	C	0.742693	0.099271	0.000043
C24	C	1.242693	0.599271	0.500043
C25	C	0.404964	0.094325	0.000062
C26	C	0.904964	0.594325	0.500062
C27	C	0.452680	0.017982	0.000400
C28	C	0.952680	0.517982	0.500400
C29	C	0.549365	0.019360	0.000061
C30	C	1.049365	0.519360	0.500061
C31	C	0.572515	0.096778	0.000053
C32	C	1.072515	0.596778	0.500053
C33	C	0.531307	0.134429	-0.084214
C34	C	1.031307	0.634429	0.415786
C35	C	0.434679	0.132512	-0.084278
C36	C	0.934679	0.632512	0.415722
C37	C	0.434298	0.134096	0.083531
C38	C	0.934298	0.634096	0.583531
C39	C	0.531243	0.134078	0.084638
C40	C	1.031243	0.634078	0.584638
C41	C	0.667208	0.098169	0.000045
C42	C	1.167208	0.598169	0.500045
C43	C	0.310271	0.092936	0.000064
C44	C	0.810271	0.592936	0.500064
C45	C	0.995324	-0.032099	0.000073
C46	C	1.495324	0.467901	0.500073
C47	C	0.993958	-0.109607	0.000076
C48	C	1.493958	0.390393	0.500076
C49	C	0.993338	-0.146011	-0.080362
C50	C	1.493338	0.353989	0.419638
C51	C	0.992043	-0.218837	-0.080369
C52	C	1.492043	0.281163	0.419631
C53	C	0.991385	-0.255258	0.000067
C54	C	1.491385	0.244742	0.500067
C55	C	0.992000	-0.218845	0.080515
C56	C	1.492000	0.281155	0.580515
C57	C	0.993287	-0.146020	0.080520
C58	C	1.493287	0.353980	0.580520
N59	N	1.037000	-0.374803	0.059937
N60	N	1.537000	0.125197	0.559937
N61	N	1.035779	-0.443984	0.059927
N62	N	1.535779	0.056016	0.559927
C63	C	0.987506	-0.474677	0.000058
C64	C	1.487506	0.025323	0.500058
N65	N	0.940511	-0.433576	-0.059815
N66	N	1.440511	0.066424	0.440185
N67	N	0.941735	-0.364389	-0.059807
N68	N	1.441735	0.135611	0.440193
C69	C	0.989989	-0.334225	0.000071
C70	C	1.489989	0.165775	0.500071
C71	C	0.985481	-0.590047	-0.080393
C72	C	1.485481	-0.090047	0.419607
C73	C	0.984181	-0.662874	-0.080397
C74	C	1.484181	-0.162874	0.419603
C75	C	0.984146	-0.662882	0.080490
C76	C	1.484146	-0.162882	0.580490
C77	C	0.985438	-0.590055	0.080491
C78	C	1.485438	-0.090055	0.580491
C79	C	0.986109	-0.553643	0.000047
C80	C	1.486109	-0.053643	0.500047
C81	C	1.141841	0.090454	0.000071
C82	C	1.641841	0.590454	0.500071
C83	C	1.234786	0.091832	0.000072
C84	C	1.734786	0.591832	0.500072
C85	C	0.982155	0.223202	0.000048
C86	C	1.482155	0.723202	0.500048
C87	C	0.983521	0.300710	0.000040
C88	C	1.483521	0.800710	0.500040
N89	N	0.988696	0.095560	0.229962
N90	N	1.488696	0.595560	0.729962
N91	N	0.988790	0.095537	-0.229839
N92	N	1.488790	0.595537	0.270161
C93	C	0.988759	0.095545	0.589164
C94	C	1.488759	0.595545	1.089164
C95	C	0.919531	0.152710	0.551546
C96	C	1.419531	0.652710	1.051546
C97	C	0.919689	0.152919	0.448720
C98	C	1.419689	0.652919	0.948720
C99	C	0.988727	0.095553	0.410960
C100	C	1.488727	0.595553	0.910960
C101	C	1.076033	0.111464	0.448256
C102	C	1.576033	0.611464	0.948256
C103	C	1.075645	0.111870	0.551113
C104	C	1.575645	0.611870	1.051113
C105	C	0.971460	0.022298	0.551270
C106	C	1.471460	0.522298	1.051270
C107	C	0.969453	0.022787	0.448407
C108	C	1.469453	0.522787	0.948407
C109	C	0.988715	0.095555	0.310246
C110	C	1.488715	0.595555	0.810246
C111	C	0.988777	0.095543	0.689877
C112	C	1.488777	0.595543	1.189877
H113	H	0.545223	0.191306	-0.087353
H114	H	1.045223	0.691306	0.412647
O115	O	0.983433	-0.702158	0.167246
O116	O	1.483433	-0.202158	0.667246
H117	H	0.984078	-0.664605	0.223183
H118	H	1.484078	-0.164605	0.723183
O119	O	0.567529	0.097664	0.167218
O120	O	1.067529	0.597664	0.667218
H121	H	0.538037	0.124333	0.226702
H122	H	1.038037	0.624333	0.726702
O123	O	0.569021	0.099783	-0.167286
O124	O	1.069021	0.599783	0.332714
H125	H	0.617103	0.055754	-0.148768
H126	H	1.117103	0.555754	0.351232
O127	O	0.426884	-0.022263	-0.079190
O128	O	0.926884	0.477737	0.420810
H129	H	0.483123	-0.038970	-0.120478
H130	H	0.983123	0.461030	0.379522
O131	O	0.983479	-0.702140	-0.167159
O132	O	1.483479	-0.202140	0.332841
H133	H	0.984158	-0.664582	-0.223091
H134	H	1.484158	-0.164582	0.276909
H135	H	0.993788	-0.116380	0.146024
H136	H	1.493788	0.383620	0.646024
O137	O	0.991379	-0.258111	-0.167133
O138	O	1.491379	0.241889	0.332867
H139	H	0.933735	-0.285062	-0.170995
H140	H	1.433735	0.214938	0.329005
H141	H	0.985950	-0.560416	0.145993
H142	H	1.485950	-0.060416	0.645993
H143	H	1.021947	-0.020242	0.575597
H144	H	1.521947	0.479758	1.075597
O145	O	0.986185	-0.550765	-0.167153
O146	O	1.486185	-0.050765	0.332847
H147	H	1.042995	-0.570969	-0.205731
H148	H	1.542995	-0.070969	0.294269
H149	H	0.930707	0.207274	0.424101
H150	H	1.430707	0.707274	0.924101
O151	O	1.095894	0.182626	0.582883
O152	O	1.595894	0.682626	1.082883
H153	H	1.047772	0.224155	0.557433
H154	H	1.547772	0.724155	1.057433
O155	O	0.587159	-0.019833	0.080080
O156	O	1.087159	0.480167	0.580080
H157	H	0.536385	-0.039949	0.119365
H158	H	1.036385	0.460051	0.619365
O159	O	0.933916	0.224307	0.585761
O160	O	1.433916	0.724307	1.085761
H161	H	0.944184	0.259101	0.528925
H162	H	1.444184	0.759101	1.028925
O163	O	0.407222	0.101035	0.168143
O164	O	0.907222	0.601035	0.668143
H165	H	0.372550	0.055883	0.151645
H166	H	0.872550	0.555883	0.651645
O167	O	1.145914	0.058824	0.584086
O168	O	1.645914	0.558824	1.084086
H169	H	1.180027	0.032999	0.526562
H170	H	1.680027	0.532999	1.026562
H171	H	0.854784	0.143439	0.423505
H172	H	1.354784	0.643439	0.923505
O173	O	0.410578	0.096121	-0.167701
O174	O	0.910578	0.596121	0.332299
H175	H	0.429314	0.125433	-0.226549
H176	H	0.929314	0.625433	0.273451
H177	H	0.546399	0.190534	0.089723
H178	H	1.046399	0.690534	0.589723
O179	O	0.428279	-0.022439	0.080449
O180	O	0.928279	0.477561	0.580449
H181	H	0.359491	-0.025831	0.079089
H182	H	0.859491	0.474169	0.579089
O183	O	1.145894	0.057785	0.415860
O184	O	1.645894	0.557785	0.915860
H185	H	1.119065	0.019106	0.372726
H186	H	1.619065	0.519106	0.872726
O187	O	0.991289	-0.258127	0.167270
O188	O	1.491289	0.241873	0.667270
H189	H	0.991930	-0.220574	0.223207
H190	H	1.491930	0.279426	0.723207
H191	H	0.854416	0.143386	0.576304
H192	H	1.354416	0.643386	1.076304
H193	H	0.577346	-0.010441	-0.060445
H194	H	1.077346	0.489559	0.439555
H195	H	0.402328	0.190382	0.084095
H196	H	0.902328	0.690382	0.584095
H197	H	1.016620	-0.021746	0.422706
H198	H	1.516620	0.478254	0.922706
O199	O	1.096777	0.181420	0.414134
O200	O	1.596777	0.681420	0.914134
H201	H	1.045046	0.204962	0.370623
H202	H	1.545046	0.704962	0.870623
H203	H	0.909194	0.006998	0.577258
H204	H	1.409194	0.506998	1.077258
H205	H	0.993882	-0.116368	-0.145866
H206	H	1.493882	0.383632	0.354134
O207	O	0.884378	0.006794	0.416132
O208	O	1.384378	0.506794	0.916132
H209	H	0.884328	0.004970	0.342527
H210	H	1.384328	0.504970	0.842527
O211	O	0.391678	0.206749	-0.089369
O212	O	0.891678	0.706749	0.410631
H213	H	0.439929	0.243860	-0.091782
H214	H	0.939929	0.743860	0.408218
