data_functionalizedCrystal
_audit_creation_method	'MofGen! by Chris Wilmer'
_symmetry_space_group_name_H-M	'P1'
_symmetry_Int_Tables_number	1
_symmetry_cell_setting	triclinic
loop_
_symmetry_equiv_pos_as_xyz
  x,y,z
_cell_length_a	14.628931
_cell_length_b	21.606444
_cell_length_c	21.606444
_cell_angle_alpha	60.001331
_cell_angle_beta	90.001677
_cell_angle_gamma	59.998844
loop_
_atom_site_label
_atom_site_type_symbol
_atom_site_fract_x
_atom_site_fract_y
_atom_site_fract_z
Zr1	Zr	0.880602	0.677449	-0.081200
O2	O	0.734632	0.806572	-0.180023
O3	O	0.925352	0.548330	-0.050908
O4	O	0.925340	0.677453	-0.180027
O5	O	0.734651	0.677444	0.050950
O6	O	1.075772	0.677453	-0.180027
O7	O	0.734644	0.677448	-0.050904
O8	O	1.075793	0.446474	0.050943
O9	O	0.734630	0.908423	-0.180019
O10	O	1.056701	0.601437	-0.037986
O11	O	0.944441	0.601434	0.038027
O12	O	0.944427	0.753461	-0.113993
O13	O	0.832167	0.753458	-0.037981
Zr14	Zr	1.120536	0.677442	0.081246
Zr15	Zr	1.120524	0.677449	-0.081200
Zr16	Zr	0.880615	0.677442	0.081246
Zr17	Zr	0.880600	0.839890	-0.081195
Zr18	Zr	1.120539	0.515002	0.081241
O19	O	1.075787	0.806562	0.050954
O20	O	1.075770	0.806572	-0.180022
O21	O	0.734649	0.806562	0.050954
O22	O	1.266507	0.548319	0.180069
O23	O	1.266490	0.548329	-0.050908
O24	O	0.925369	0.548320	0.180068
O25	O	1.266488	0.677447	-0.050904
O26	O	1.075799	0.677438	0.180073
O27	O	0.925367	0.677438	0.180072
O28	O	1.266495	0.677443	0.050950
O29	O	0.925336	0.908423	-0.180019
O30	O	1.075803	0.446469	0.180065
O31	O	1.266508	0.446468	0.180065
O32	O	1.266499	0.446474	0.050943
O33	O	0.734640	0.908417	-0.050897
O34	O	0.925346	0.908417	-0.050897
O35	O	1.056712	0.601430	0.114039
O36	O	1.168972	0.601434	0.038027
O37	O	1.056698	0.753457	-0.037981
O38	O	0.944438	0.753454	0.038032
C39	C	1.000573	0.474258	0.000016
C40	C	1.000574	0.405297	0.000014
C41	C	1.059170	0.372901	-0.039665
C42	C	1.059174	0.308101	-0.039660
C43	C	1.000574	0.275703	0.000020
C44	C	0.941976	0.308102	0.039704
C45	C	0.941980	0.372896	0.039703
C46	C	0.941963	0.046792	0.039710
C47	C	0.941962	-0.018005	0.039707
C48	C	1.059157	-0.018002	-0.039652
C49	C	1.059161	0.046792	-0.039653
C50	C	1.000568	0.079182	0.000033
C51	C	1.000566	0.149444	0.000029
C52	C	1.000569	0.205446	0.000021
C53	C	0.700464	0.677446	0.000023
C54	C	0.598611	0.677446	0.000023
C55	C	0.608897	0.602032	0.037728
C56	C	0.503628	0.602031	0.037728
C57	C	1.300675	0.677445	0.000023
C58	C	1.402528	0.677445	0.000023
C59	C	1.000554	0.677454	-0.203172
C60	C	1.000549	0.677457	-0.272134
C61	C	1.000566	0.880634	0.000030
C62	C	1.000565	0.949594	0.000032
C63	C	0.941943	0.756811	-0.344208
C64	C	0.941952	0.756809	-0.409003
C65	C	1.000562	0.677452	-0.401722
C66	C	1.059176	0.598091	-0.329641
C67	C	1.059172	0.598095	-0.264847
C68	C	1.059194	0.598076	-0.590944
C69	C	1.059190	0.598079	-0.655744
C70	C	0.941974	0.756791	-0.735099
C71	C	0.941970	0.756794	-0.670306
C72	C	1.000588	0.677434	-0.598230
C73	C	1.000579	0.677438	-0.527973
C74	C	1.000566	0.677447	-0.471978
C75	C	1.000585	0.677437	0.203218
C76	C	1.000590	0.677434	0.272180
C77	C	1.300678	0.474257	0.000017
C78	C	1.402532	0.405297	0.000015
C79	C	1.000588	0.474249	0.203211
C80	C	1.000594	0.405286	0.272171
C81	C	1.300693	0.474248	0.203211
C82	C	1.402553	0.405285	0.272172
C83	C	0.700445	0.880643	-0.203165
C84	C	0.598586	0.949606	-0.272126
C85	C	0.700461	0.880634	0.000029
C86	C	0.598606	0.949595	0.000031
C87	C	1.000551	0.880642	-0.203165
C88	C	1.000545	0.949605	-0.272125
C89	C	1.391760	0.372914	-0.039671
C90	C	1.487453	0.308127	-0.039688
C91	C	1.593919	0.275720	-0.000015
C92	C	1.604689	0.308109	0.039672
C93	C	1.508997	0.372899	0.039684
C94	C	1.059201	0.372898	0.344240
C95	C	1.059203	0.308109	0.409042
C96	C	1.000603	0.275704	0.401773
C97	C	0.941988	0.308098	0.329696
C98	C	0.941981	0.372891	0.264896
C99	C	1.508996	0.372901	0.264878
C100	C	1.604713	0.308111	0.329668
C101	C	1.593984	0.275703	0.401749
C102	C	1.487530	0.308094	0.409041
C103	C	1.391816	0.372886	0.344253
C104	C	0.492143	0.981998	-0.264832
C105	C	0.396426	1.046808	-0.329622
C106	C	0.407155	1.079220	-0.401703
C107	C	0.513609	1.046825	-0.408995
C108	C	0.609323	0.982021	-0.344207
C109	C	0.609379	0.981984	0.039710
C110	C	0.513685	1.046789	0.039710
C111	C	0.407220	1.079198	0.000034
C112	C	0.396450	1.046806	-0.039650
C113	C	0.492142	0.982007	-0.039653
C114	C	1.059156	0.981990	-0.264832
C115	C	1.059172	1.046779	-0.329621
C116	C	1.000570	1.079188	-0.401703
C117	C	0.941956	1.046797	-0.408995
C118	C	0.941948	0.982004	-0.344206
H119	H	0.894270	0.281714	0.072017
H120	H	1.106921	0.533452	-0.649808
H121	H	1.305148	0.399245	0.350201
H122	H	1.691383	0.281745	0.323717
O123	O	0.480518	0.947069	-0.082447
H124	H	0.434049	0.917553	-0.059508
O125	O	1.122381	0.947031	-0.187090
H126	H	1.163149	0.980434	-0.192916
H127	H	1.671829	0.222963	-0.000030
O128	O	0.878748	0.842390	-0.678163
H129	H	0.888583	0.829060	-0.621000
H130	H	1.106921	0.399275	0.350173
H131	H	1.106882	0.399280	-0.071980
O132	O	1.520630	0.407806	0.082507
H133	H	1.479845	0.479283	0.042467
O134	O	0.724197	0.947050	0.082502
H135	H	0.770613	0.875575	0.126367
H136	H	1.478811	0.281697	0.467739
O137	O	0.878736	0.842402	-0.486739
H138	H	0.888595	0.829071	-0.530572
O139	O	1.122366	0.081733	-0.082452
H140	H	1.063197	0.153209	-0.126311
O141	O	0.878809	0.273122	0.321876
H142	H	0.788727	0.327493	0.290425
O143	O	0.878781	1.081758	-0.486752
H144	H	0.912663	1.027371	-0.493352
O145	O	0.878769	0.842391	-0.812839
H146	H	0.888629	0.829063	-0.856674
H147	H	0.512259	0.537466	0.070004
H148	H	1.106900	1.073145	-0.323669
O149	O	0.480558	0.947052	-0.187091
H150	H	0.390454	0.980481	-0.192916
H151	H	1.106925	0.533456	-0.532265
O152	O	1.000567	1.149083	-0.471580
H153	H	1.051159	1.166160	-0.454391
H154	H	0.309753	1.073204	-0.071953
O155	O	1.122363	0.273172	-0.082467
H156	H	1.212433	0.243663	-0.059549
O157	O	0.878726	0.947082	-0.352084
H158	H	0.888564	0.896576	-0.294928
H159	H	1.106871	-0.044384	-0.071965
O160	O	1.719522	0.273145	0.082469
H161	H	1.784243	0.222645	0.075796
O162	O	0.878731	-0.052936	0.082489
H163	H	0.837986	-0.019527	0.110085
O164	O	0.281616	1.081726	-0.321749
H165	H	0.290246	1.048281	-0.260740
O166	O	1.520594	0.407850	0.187140
H167	H	1.479815	0.395409	0.155716
O168	O	0.878880	0.407681	0.187190
H169	H	0.788802	0.437170	0.180557
H170	H	1.106938	0.281741	0.467723
H171	H	0.393888	0.742013	-0.032262
O172	O	1.697223	0.205810	0.471627
H173	H	1.773038	0.188732	0.454438
H174	H	1.000618	0.222946	0.454543
O175	O	0.483718	0.762973	-0.042745
H176	H	0.437343	0.766714	-0.002664
O177	O	0.303916	1.149125	-0.471581
H178	H	0.228100	1.166198	-0.454392
O179	O	0.878726	0.842405	-0.352061
H180	H	0.837984	0.897584	-0.413067
O181	O	0.525175	1.081780	-0.486742
H182	H	0.440730	1.132274	-0.530562
H183	H	0.695991	0.955648	-0.350154
H184	H	0.522477	1.073151	0.072028
O185	O	0.304011	1.149064	0.000065
H186	H	0.329399	1.166123	0.034338
H187	H	1.106895	0.533476	-0.206161
H188	H	0.894258	0.073153	0.072029
H189	H	0.695637	0.537469	0.070011
O190	O	0.878798	0.407848	0.082501
H191	H	0.788718	0.437387	0.059579
O192	O	1.122391	0.512494	-0.321781
H193	H	1.112537	0.525822	-0.378944
H194	H	1.478662	0.281764	-0.072006
O195	O	1.276935	0.407869	-0.082473
H196	H	1.285539	0.374468	-0.110077
