data_functionalizedCrystal
_audit_creation_method	'MofGen! by Chris Wilmer'
_symmetry_space_group_name_H-M	'P1'
_symmetry_Int_Tables_number	1
_symmetry_cell_setting	triclinic
loop_
_symmetry_equiv_pos_as_xyz
  x,y,z
_cell_length_a	10.489716
_cell_length_b	10.540539
_cell_length_c	9.016244
_cell_angle_alpha	90.005301
_cell_angle_beta	90.001835
_cell_angle_gamma	95.472686
loop_
_atom_site_label
_atom_site_type_symbol
_atom_site_fract_x
_atom_site_fract_y
_atom_site_fract_z
O1	O	0.179761	-1.685899	-0.123256
O2	O	0.196699	-1.316486	-0.123273
O3	O	0.002629	-1.509615	-0.123269
O4	O	0.373831	-1.492770	-0.123259
O5	O	0.002634	-1.509586	0.123412
O6	O	0.196703	-1.316458	0.123408
O7	O	0.179766	-1.685870	0.123425
Cu8	Cu	0.188235	-1.501161	0.145940
Cu9	Cu	0.188230	-1.501195	-0.145788
O10	O	0.373835	-1.492742	0.123421
C11	C	0.195431	-1.269169	0.000065
C12	C	0.191631	-1.128221	0.000058
C13	C	-0.044901	-1.508335	0.000067
C14	C	-0.186531	-1.504548	0.000053
C15	C	0.181034	-1.733188	0.000084
C16	C	0.184834	-1.874136	0.000081
C17	C	-0.284219	-1.622981	0.000072
C18	C	-0.361574	-1.560412	-0.121554
C19	C	-0.361534	-1.560357	0.121654
C20	C	-0.262021	-1.442030	-0.121673
C21	C	-0.261975	-1.441992	0.121644
C22	C	-0.339281	-1.379336	-0.000011
C23	C	0.421365	-1.494022	0.000082
C24	C	0.562996	-1.497808	0.000086
N25	N	0.188238	-1.501147	0.351127
C26	C	0.046012	-0.944789	0.000630
C27	C	0.049864	-1.091408	0.000059
C28	C	0.259852	-1.066567	-0.140801
C29	C	0.255014	-0.920022	-0.140904
C30	C	0.257903	-0.919501	0.139618
C31	C	0.259209	-1.066483	0.141465
N32	N	0.188217	-1.501219	-0.350974
C33	C	0.291704	-1.397519	0.586157
C34	C	0.292091	-1.397748	0.414266
C35	C	0.218517	-1.633871	0.413472
C36	C	0.219250	-1.633305	0.585417
C37	C	0.054153	-1.473369	0.585665
C38	C	0.055022	-1.470324	0.413711
H39	H	-0.405077	-1.610419	-0.224377
C40	C	0.267504	-1.264523	0.357318
H41	H	0.257194	-1.209771	0.439270
H42	H	0.191986	-1.270800	0.298577
H43	H	0.338190	-1.230790	0.298995
H44	H	-0.405011	-1.610365	0.224477
C45	C	0.267490	-1.263877	0.642083
H46	H	0.194056	-1.270122	0.704283
H47	H	0.253674	-1.210554	0.559840
H48	H	0.339801	-1.228515	0.696666
C49	C	0.425312	-1.421387	0.644497
H50	H	0.418302	-1.494278	0.706997
H51	H	0.460166	-1.349246	0.699237
H52	H	0.479893	-1.435391	0.563236
H53	H	-0.009992	-0.916191	0.101648
H54	H	-0.363699	-1.276243	-0.000081
C55	C	-0.203162	-1.374503	0.260551
H56	H	-0.237390	-1.416718	0.346894
H57	H	-0.222952	-1.288421	0.261425
H58	H	-0.112852	-1.376764	0.259049
C59	C	-0.022651	-1.148964	0.136462
H60	H	-0.054742	-1.082744	0.192720
H61	H	0.033962	-1.192358	0.196051
H62	H	-0.091935	-1.207284	0.104761
C63	C	0.195931	-0.876870	0.283858
H64	H	0.124905	-0.831003	0.260323
H65	H	0.256996	-0.823642	0.338856
H66	H	0.167629	-0.949674	0.341365
C67	C	0.121385	-1.740756	0.641603
H68	H	0.081365	-1.784568	0.559338
H69	H	0.058381	-1.705291	0.700159
H70	H	0.164048	-1.798718	0.699953
H71	H	-0.025688	-1.540848	0.370736
C72	C	0.351377	-1.666200	0.639595
H73	H	0.352988	-1.666150	0.744948
H74	H	0.415798	-1.604580	0.603227
H75	H	0.366851	-1.748182	0.604046
H76	H	-0.218713	-1.392074	-0.224612
H77	H	0.212458	-1.109166	-0.245635
H78	H	-0.009759	-0.914592	-0.099828
H79	H	-0.004197	-1.133163	-0.101093
H80	H	-0.022873	-1.548978	0.626318
C81	C	0.392739	-0.855219	-0.149577
H82	H	0.451395	-0.918489	-0.153032
H83	H	0.409874	-0.803037	-0.064639
H84	H	0.401916	-0.804169	-0.236448
C85	C	0.400490	-1.096774	-0.147896
H86	H	0.418893	-1.147381	-0.064820
H87	H	0.455093	-1.019517	-0.146583
H88	H	0.414241	-1.142087	-0.236659
H89	H	0.204588	-0.891822	-0.246201
H90	H	0.209370	-1.107432	0.245672
C91	C	0.398836	-1.099206	0.152964
H92	H	0.417834	-1.151172	0.071305
H93	H	0.410041	-1.143795	0.242868
H94	H	0.454784	-1.022831	0.151779
C95	C	0.396231	-0.855715	0.140910
H96	H	0.409442	-0.801690	0.056877
H97	H	0.454424	-0.919412	0.137811
H98	H	0.410154	-0.806664	0.228828
C99	C	0.426452	-1.421939	0.358674
H100	H	0.481008	-1.431677	0.441178
H101	H	0.460467	-1.351749	0.300200
H102	H	0.420776	-1.497342	0.300366
H103	H	0.145200	-1.712924	0.372569
C104	C	0.349157	-1.667513	0.355299
H105	H	0.385415	-1.600856	0.293036
H106	H	0.337843	-1.744661	0.300345
H107	H	0.404823	-1.677748	0.436643
H108	H	0.025335	-1.378631	0.629107
C109	C	0.024001	-1.338428	0.358668
H110	H	-0.056694	-1.320328	0.396904
H111	H	0.021140	-1.338256	0.253364
H112	H	0.088418	-1.275322	0.391801
H113	H	-0.259555	-1.725996	-0.000047
