data_functionalizedCrystal
_audit_creation_method	'MofGen! by Chris Wilmer'
_symmetry_space_group_name_H-M	'P1'
_symmetry_Int_Tables_number	1
_symmetry_cell_setting	triclinic
loop_
_symmetry_equiv_pos_as_xyz
  x,y,z
_cell_length_a	12.759401
_cell_length_b	16.625546
_cell_length_c	12.759393
_cell_angle_alpha	89.964762
_cell_angle_beta	89.981636
_cell_angle_gamma	90.022629
loop_
_atom_site_label
_atom_site_type_symbol
_atom_site_fract_x
_atom_site_fract_y
_atom_site_fract_z
Zn1	Zn	1.606197	-0.320958	-0.593948
Zn2	Zn	1.606068	-0.455813	-0.418253
Zn3	Zn	1.430500	-0.320998	-0.418287
Zn4	Zn	1.430464	-0.455753	-0.593895
O5	O	1.518307	-0.388381	-0.506096
O6	O	1.753201	-0.338855	-0.570649
O7	O	1.582740	-0.437971	-0.271237
O8	O	1.453875	-0.208160	-0.441625
O9	O	1.753106	-0.437932	-0.441568
O10	O	1.582960	-0.208131	-0.570682
O11	O	1.453750	-0.338923	-0.271261
O12	O	1.283474	-0.338865	-0.441574
O13	O	1.453815	-0.437830	-0.740923
O14	O	1.283448	-0.437869	-0.570592
O15	O	1.582925	-0.338797	-0.740962
O16	O	1.582705	-0.568637	-0.441517
O17	O	1.453689	-0.568593	-0.570560
C18	C	1.245340	-0.388366	-0.506081
C19	C	1.128563	-0.388379	-0.506100
C20	C	1.073715	-0.440013	-0.573169
C21	C	0.963991	-0.440023	-0.573180
C22	C	0.963973	-0.336763	-0.439045
C23	C	1.073695	-0.336749	-0.439040
C24	C	1.073725	-0.499631	-0.650608
C25	C	0.964001	-0.499641	-0.650619
C26	C	1.518208	-0.597871	-0.506052
C27	C	1.518261	-0.687492	-0.506068
C28	C	1.518445	-1.015668	-0.506177
C29	C	1.518390	-0.924360	-0.506150
C30	C	1.518352	-0.851583	-0.506122
C31	C	1.518300	-0.760269	-0.506096
C32	C	1.792341	-0.388396	-0.506111
C33	C	1.909117	-0.388403	-0.506117
C34	C	1.518380	-0.388303	-0.780129
C35	C	1.518411	-0.388270	-0.896906
C36	C	1.518436	-0.178072	-0.506163
C37	C	1.518490	-0.088450	-0.506191
C38	C	1.585671	-0.336659	-1.061515
C39	C	1.585646	-0.336693	-0.951791
C40	C	1.451205	-0.439822	-0.951751
C41	C	1.451236	-0.439792	-1.061473
C42	C	1.663287	-0.277116	-1.061537
C43	C	1.663262	-0.277150	-0.951812
C44	C	1.518295	-0.388400	-0.233128
C45	C	1.518468	-0.388206	-0.116352
H46	H	0.934194	-0.562073	-0.628680
O47	O	0.910716	-0.286503	-0.374014
C48	C	0.877212	-0.149309	-0.323297
C49	C	0.937570	-0.206135	-0.397029
H50	H	0.898917	-0.084321	-0.341864
H51	H	0.789357	-0.158118	-0.334828
H52	H	0.898733	-0.163431	-0.238552
H53	H	0.916136	-0.192049	-0.481802
H54	H	1.025410	-0.197316	-0.385407
O55	O	1.385862	-0.489895	-1.114580
C56	C	1.252569	-0.592231	-1.102958
C57	C	1.326535	-0.535514	-1.042684
H58	H	1.204599	-0.629142	-1.044856
H59	H	1.197594	-0.555240	-1.154309
H60	H	1.300817	-0.634342	-1.154342
H61	H	1.278371	-0.493393	-0.991243
H62	H	1.381513	-0.572555	-0.991399
O63	O	1.760324	-0.297211	-1.097007
C64	C	1.897097	-0.397083	-1.100242
C65	C	1.787189	-0.374432	-1.060027
H66	H	1.918861	-0.459509	-1.070342
H67	H	1.897178	-0.397122	-1.189591
H68	H	1.956657	-0.351351	-1.070505
H69	H	1.727567	-0.420141	-1.089688
H70	H	1.787195	-0.374367	-0.970679
O71	O	1.109122	-0.479716	-0.747770
C72	C	1.063381	-0.443548	-0.924847
C73	C	1.023151	-0.466074	-0.814859
H74	H	0.993894	-0.432529	-0.979125
H75	H	1.112994	-0.386642	-0.919739
H76	H	1.113051	-0.494859	-0.957121
H77	H	0.973438	-0.414816	-0.782521
H78	H	0.973595	-0.523004	-0.820034
O79	O	1.114128	-0.570422	-0.615688
C80	C	1.077649	-0.703419	-0.549926
C81	C	1.031753	-0.623299	-0.589479
H82	H	1.011072	-0.746186	-0.528704
H83	H	1.127915	-0.731542	-0.614047
H84	H	1.127951	-0.691818	-0.477669
H85	H	0.981403	-0.634831	-0.661717
H86	H	0.981546	-0.595201	-0.525294
O87	O	1.637352	-0.202701	-0.916123
C88	C	1.607885	-0.118480	-0.765342
C89	C	1.637265	-0.202820	-0.805618
H90	H	1.607784	-0.118552	-0.675995
H91	H	1.667487	-0.072728	-0.795058
H92	H	1.526553	-0.101733	-0.795169
H93	H	1.718573	-0.219642	-0.775807
H94	H	1.577596	-0.248522	-0.775911
O95	O	1.385929	-0.489851	-0.898277
C96	C	1.326348	-0.535642	-0.729227
C97	C	1.400310	-0.478930	-0.789652
H98	H	1.337965	-0.526845	-0.641394
H99	H	1.241622	-0.521472	-0.750720
H100	H	1.344754	-0.600644	-0.750847
H101	H	1.381999	-0.413910	-0.768065
H102	H	1.485014	-0.493170	-0.768154
H103	H	1.634181	-0.217788	-1.095588
O104	O	0.923316	-0.473168	-0.742901
C105	C	0.815221	-0.504151	-0.892359
C106	C	0.861207	-0.534229	-0.787863
H107	H	0.765014	-0.553509	-0.928752
H108	H	0.764878	-0.448669	-0.877569
H109	H	0.881801	-0.488021	-0.948156
H110	H	0.794694	-0.550404	-0.732014
H111	H	0.911578	-0.589682	-0.802734
H112	H	1.118348	-0.294699	-0.384433
H113	H	1.740536	-0.299534	-0.917778
