data_functionalizedCrystal
_audit_creation_method	'MofGen! by Chris Wilmer'
_symmetry_space_group_name_H-M	'P1'
_symmetry_Int_Tables_number	1
_symmetry_cell_setting	triclinic
loop_
_symmetry_equiv_pos_as_xyz
  x,y,z
_cell_length_a	23.532355
_cell_length_b	22.010155
_cell_length_c	15.995350
_cell_angle_alpha	90.006484
_cell_angle_beta	96.840064
_cell_angle_gamma	90.002586
loop_
_atom_site_label
_atom_site_type_symbol
_atom_site_fract_x
_atom_site_fract_y
_atom_site_fract_z
O1	O	0.755673	0.050440	-0.101423
O2	O	0.589862	0.050459	-0.116175
O3	O	0.677300	0.050448	0.013128
O4	O	0.668235	0.050450	-0.230725
O5	O	0.677284	-0.050602	0.013108
O6	O	0.589846	-0.050592	-0.116194
O7	O	0.755657	-0.050611	-0.101442
Cu8	Cu	0.672750	-0.059828	-0.108820
Cu9	Cu	0.672769	0.059676	-0.108797
O10	O	0.668219	-0.050600	-0.230745
C11	C	0.568636	-0.000064	-0.115816
C12	C	0.505414	-0.000057	-0.114707
C13	C	0.113364	-0.055165	-0.107752
C14	C	0.053961	-0.055167	-0.106697
O15	O	0.023233	-0.102012	-0.106132
N16	N	0.024259	-0.000085	-0.106163
C17	C	0.053964	0.055004	-0.106676
O18	O	0.023246	0.101855	-0.106125
C19	C	0.113367	0.055005	-0.107725
C20	C	0.143065	-0.000081	-0.108267
C21	C	0.143062	-0.110246	-0.108293
C22	C	0.202462	-0.110244	-0.109349
C23	C	0.232163	-0.055160	-0.109864
C24	C	0.202465	-0.000078	-0.109323
C25	C	0.143072	0.110093	-0.108231
C26	C	0.202479	0.110090	-0.109280
C27	C	0.232177	0.055004	-0.109822
C28	C	0.291565	0.055009	-0.110895
N29	N	0.321267	-0.000074	-0.111428
C30	C	0.291566	-0.055158	-0.110913
C31	C	-0.070786	0.054996	-0.104472
C32	C	-0.130188	0.054995	-0.103429
C33	C	-0.130187	-0.055176	-0.103449
C34	C	-0.070784	-0.055175	-0.104498
C35	C	-0.041084	-0.000087	-0.105006
C36	C	0.416308	-0.055148	-0.113132
C37	C	0.475712	-0.055141	-0.114192
C38	C	0.475707	0.055030	-0.114168
C39	C	0.416308	0.055023	-0.113113
C40	C	0.386610	-0.000071	-0.112592
O41	O	0.322331	0.101830	-0.111457
O42	O	0.322292	-0.102002	-0.111454
N43	N	0.672741	-0.143880	-0.108835
C44	C	0.711489	-0.563664	-0.051550
C45	C	0.711492	-0.627272	-0.051544
O46	O	0.744413	-0.660167	-0.002849
N47	N	0.672769	-0.659087	-0.108779
C48	C	0.634037	-0.627292	-0.166019
O49	O	0.601100	-0.660194	-0.214701
C50	C	0.634032	-0.563686	-0.166020
C51	C	0.672761	-0.531873	-0.108786
C52	C	0.750215	-0.531852	0.005680
C53	C	0.750213	-0.468249	0.005673
C54	C	0.711485	-0.436458	-0.051564
C55	C	0.672759	-0.468270	-0.108793
C56	C	0.595298	-0.531891	-0.223254
C57	C	0.595296	-0.468280	-0.223250
C58	C	0.634025	-0.436468	-0.166017
C59	C	0.634030	-0.372876	-0.166037
N60	N	0.672752	-0.341060	-0.108801
C61	C	0.711480	-0.372851	-0.051565
C62	C	0.634050	-0.760870	-0.166011
C63	C	0.634057	-0.824475	-0.166015
C64	C	0.711511	-0.824451	-0.051539
C65	C	0.711506	-0.760844	-0.051540
C66	C	0.672772	-0.729054	-0.108776
C67	C	0.711473	-0.239280	-0.051585
C68	C	0.711469	-0.175671	-0.051599
C69	C	0.634013	-0.175701	-0.166071
C70	C	0.634019	-0.239305	-0.166060
C71	C	0.672751	-0.271092	-0.108810
O72	O	0.601123	-0.339940	-0.214705
O73	O	0.744406	-0.339942	-0.002884
C74	C	0.776883	-0.000087	-0.101801
C75	C	0.840106	-0.000090	-0.102910
C76	C	0.676918	-0.000076	0.044310
C77	C	0.675794	-0.000072	0.137250
N78	N	0.672783	0.143728	-0.108775
C79	C	0.668602	-0.000075	-0.261926
C80	C	0.669726	-0.000074	-0.354867
C81	C	0.671759	-0.000074	0.474963
C82	C	0.609487	0.000160	0.426994
C83	C	0.610611	-0.000068	0.330314
C84	C	0.673761	-0.000073	0.307420
C85	C	0.704466	-0.057780	0.348750
C86	C	0.702902	-0.057828	0.445373
C87	C	0.704206	0.057085	0.445764
C88	C	0.704192	0.057848	0.348818
C89	C	0.674895	-0.000074	0.212732
C90	C	0.670627	-0.000077	0.569651
H91	H	0.226658	0.154950	-0.109694
H92	H	0.683853	0.100823	0.466137
H93	H	0.563761	-0.557784	-0.269858
C94	C	0.591463	-0.725907	-0.229017
N95	N	0.559394	-0.699576	-0.276485
C96	C	0.792812	-0.433264	0.068643
N97	N	0.824898	-0.406917	0.116080
C98	C	0.552691	-0.433316	-0.286224
N99	N	0.520604	-0.406981	-0.333661
H100	H	0.602483	-0.149807	-0.212675
C101	C	0.110399	-0.170849	-0.107738
N102	N	0.085801	-0.216498	-0.107330
C103	C	0.766408	0.062548	0.328608
N104	N	0.813273	0.066083	0.313388
C105	C	0.575867	0.056062	0.451760
N106	N	0.550542	0.098169	0.470422
C107	C	0.673892	0.115523	0.311709
N108	N	0.651064	0.158962	0.283761
H109	H	0.750119	0.057469	0.477919
H110	H	0.499890	-0.100000	-0.114636
H111	H	0.586474	0.041299	0.301692
C112	C	0.383649	-0.115754	-0.112568
N113	N	0.359049	-0.161403	-0.112150
C114	C	0.792818	-0.566812	0.068656
N115	N	0.824910	-0.593140	0.116093
H116	H	0.602488	-0.265207	-0.212673
C117	C	-0.038121	0.115601	-0.105041
N118	N	-0.013521	0.161248	-0.105469
C119	C	0.235123	-0.170843	-0.109933
N120	N	0.259720	-0.216490	-0.110368
H121	H	-0.046608	-0.100030	-0.104940
C122	C	0.576009	-0.055441	0.453140
N123	N	0.550797	-0.097324	0.472826
H124	H	0.586299	-0.041500	0.302232
H125	H	0.602526	-0.850372	-0.212628
C126	C	0.754082	-0.274238	0.011392
N127	N	0.786177	-0.300567	0.058822
C128	C	0.672629	-0.116096	0.469827
N129	N	0.649824	-0.159983	0.488241
C130	C	0.764664	-0.061379	0.489470
N131	N	0.811182	-0.064058	0.522681
H132	H	0.499900	0.099878	-0.114591
H133	H	-0.154381	-0.100029	-0.103028
H134	H	0.750860	-0.059929	0.335023
H135	H	0.683127	-0.100720	0.320177
H136	H	0.118902	0.154950	-0.107789
C137	C	-0.162850	0.115593	-0.102840
N138	N	-0.187448	0.161239	-0.102389
C139	C	0.383638	0.115619	-0.112526
N140	N	0.359036	0.161262	-0.112077
C141	C	0.754074	-0.140682	0.011368
N142	N	0.786162	-0.114330	0.058795
H143	H	0.743044	-0.850346	-0.004932
C144	C	0.754107	-0.725857	0.011426
N145	N	0.786194	-0.699507	0.058857
