data_functionalizedCrystal
_audit_creation_method	'MofGen! by Chris Wilmer'
_symmetry_space_group_name_H-M	'P1'
_symmetry_Int_Tables_number	1
_symmetry_cell_setting	triclinic
loop_
_symmetry_equiv_pos_as_xyz
  x,y,z
_cell_length_a	29.839134
_cell_length_b	18.050590
_cell_length_c	29.839126
_cell_angle_alpha	89.990464
_cell_angle_beta	89.964260
_cell_angle_gamma	90.002903
loop_
_atom_site_label
_atom_site_type_symbol
_atom_site_fract_x
_atom_site_fract_y
_atom_site_fract_z
Zn1	Zn	0.686885	-0.295834	-0.254164
Zn2	Zn	0.686843	-0.420010	-0.179050
Zn3	Zn	0.611750	-0.295827	-0.179034
Zn4	Zn	0.611759	-0.419975	-0.254139
O5	O	0.649309	-0.357911	-0.216597
O6	O	0.749746	-0.312323	-0.244218
O7	O	0.676860	-0.403548	-0.116181
O8	O	0.621730	-0.191903	-0.189003
O9	O	0.749715	-0.403555	-0.189032
O10	O	0.676932	-0.191908	-0.244201
O11	O	0.621689	-0.312311	-0.116169
O12	O	0.548884	-0.312278	-0.188979
O13	O	0.621746	-0.403496	-0.317009
O14	O	0.548891	-0.403489	-0.244158
O15	O	0.676941	-0.312290	-0.317028
O16	O	0.676869	-0.523930	-0.189007
O17	O	0.621706	-0.523904	-0.244175
C18	C	0.532587	-0.357880	-0.216564
C19	C	0.482652	-0.357884	-0.216561
C20	C	0.649296	-0.550863	-0.216600
C21	C	0.649332	-0.633409	-0.216616
C22	C	0.649349	-0.357890	-0.333775
C23	C	0.649367	-0.357881	-0.383710
C24	C	0.173022	-0.405475	-0.245293
C25	C	-0.014651	-0.405496	-0.245313
O26	O	-0.038905	-0.445925	-0.269723
N27	N	-0.038133	-0.357939	-0.216631
C28	C	-0.014694	-0.310369	-0.187943
O29	O	-0.038973	-0.269913	-0.163550
C30	C	0.172979	-0.310345	-0.187925
C31	C	0.196458	-0.357911	-0.216607
C32	C	0.196501	-0.453037	-0.273973
C33	C	0.243417	-0.453034	-0.273966
C34	C	0.266853	-0.405470	-0.245279
C35	C	0.243373	-0.357908	-0.216600
C36	C	0.196417	-0.262772	-0.159240
C37	C	0.243338	-0.262769	-0.159239
C38	C	0.266818	-0.310335	-0.187921
C39	C	0.313725	-0.310341	-0.187906
N40	N	0.337207	-0.357898	-0.216589
C41	C	0.313771	-0.405463	-0.245276
C42	C	-0.113224	-0.310386	-0.187953
C43	C	-0.160142	-0.310393	-0.187957
C44	C	-0.160096	-0.405519	-0.245328
C45	C	-0.113178	-0.405516	-0.245322
C46	C	-0.089742	-0.357944	-0.216636
C47	C	0.412296	-0.405454	-0.245259
C48	C	0.459216	-0.405449	-0.245248
C49	C	0.459166	-0.310320	-0.187878
C50	C	0.412251	-0.310327	-0.187887
C51	C	0.388817	-0.357896	-0.216581
O52	O	0.338008	-0.269927	-0.163512
O53	O	0.338058	-0.445901	-0.269672
C54	C	0.126106	-0.405478	-0.245300
C55	C	0.102627	-0.357917	-0.216621
C56	C	0.126063	-0.310352	-0.187934
C57	C	0.055709	-0.357923	-0.216625
C58	C	0.032273	-0.405488	-0.245311
C59	C	0.055755	-0.453046	-0.273994
C60	C	0.102670	-0.453043	-0.273987
C61	C	0.102581	-0.262794	-0.159251
C62	C	0.055666	-0.262802	-0.159260
C63	C	0.032230	-0.310366	-0.187947
C64	C	0.766487	-0.357944	-0.216629
C65	C	0.816422	-0.357957	-0.216643
C66	C	0.649335	-0.164206	-0.216603
C67	C	0.649345	-0.081660	-0.216606
C68	C	0.679362	0.117788	-0.246632
C69	C	0.690336	0.167171	-0.205650
C70	C	0.649341	0.069470	-0.216609
C71	C	0.638383	0.167169	-0.257592
C72	C	0.649337	0.215455	-0.216614
C73	C	0.660336	0.117766	-0.175605
C74	C	0.608364	0.117760	-0.227575
C75	C	0.619323	0.167121	-0.186564
C76	C	0.649344	-0.014628	-0.216606
C77	C	0.649334	0.299552	-0.216613
C78	C	0.678088	-0.405289	-0.740306
C79	C	0.678089	-0.405341	-0.552633
O80	O	0.702504	-0.445765	-0.528377
N81	N	0.649365	-0.357845	-0.529155
C82	C	0.620636	-0.310337	-0.552597
O83	O	0.596201	-0.269946	-0.528321
C84	C	0.620633	-0.310290	-0.740270
C85	C	0.649363	-0.357783	-0.763746
C86	C	0.706814	-0.452779	-0.763782
C87	C	0.706815	-0.452763	-0.810698
C88	C	0.678090	-0.405256	-0.834137
C89	C	0.649364	-0.357767	-0.810661
C90	C	0.591903	-0.262786	-0.763712
C91	C	0.591904	-0.262779	-0.810633
C92	C	0.620633	-0.310273	-0.834109
C93	C	0.620640	-0.310244	-0.881016
N94	N	0.649364	-0.357740	-0.904494
C95	C	0.678089	-0.405246	-0.881055
C96	C	0.620640	-0.310364	-0.454067
C97	C	0.620641	-0.310375	-0.407149
C98	C	0.678093	-0.405380	-0.407188
C99	C	0.678094	-0.405365	-0.454107
C100	C	0.649364	-0.357860	-0.477545
C101	C	0.678090	-0.405208	-0.979581
C102	C	0.678090	-0.405185	-1.026501
C103	C	0.620636	-0.310183	-1.026458
C104	C	0.620638	-0.310203	-0.979542
C105	C	0.649366	-0.357721	-0.956105
O106	O	0.596234	-0.269847	-0.905302
O107	O	0.702513	-0.445642	-0.905339
C108	C	0.678087	-0.405305	-0.693391
C109	C	0.649360	-0.357815	-0.669915
C110	C	0.620635	-0.310309	-0.693354
C111	C	0.649361	-0.357826	-0.622997
C112	C	0.678086	-0.405332	-0.599557
C113	C	0.706811	-0.452828	-0.623036
C114	C	0.706812	-0.452811	-0.669951
C115	C	0.591911	-0.262814	-0.669876
C116	C	0.591912	-0.262833	-0.622960
C117	C	0.620638	-0.310339	-0.599521
C118	C	0.649295	-0.357879	-0.099874
C119	C	0.649365	-0.357679	-0.049940
H120	H	0.478331	-0.444186	-0.268604
H121	H	0.593933	0.188645	-0.161147
O122	O	0.592669	-0.264148	-0.956753
C123	C	0.547894	-0.280356	-0.968205
H124	H	0.545624	-0.339678	-0.981106
H125	H	0.536156	-0.240525	-0.995429
C126	C	0.520696	-0.198873	-0.910663
C127	C	0.517907	-0.271736	-0.926506
H128	H	0.502198	-0.193553	-0.884943
H129	H	0.550862	-0.187951	-0.902949
H130	H	0.510915	-0.165689	-0.933354
H131	H	0.527693	-0.304918	-0.903818
H132	H	0.487742	-0.282664	-0.934215
O133	O	0.567004	0.091930	-0.238601
C134	C	0.535299	0.118142	-0.207343
H135	H	0.548609	0.170527	-0.190676
H136	H	0.529120	0.073927	-0.180761
C137	C	0.474686	0.071396	-0.252090
C138	C	0.491032	0.135741	-0.231622
H139	H	0.447379	0.082249	-0.267066
H140	H	0.496046	0.053734	-0.273149
H141	H	0.469541	0.034557	-0.229935
H142	H	0.496182	0.172575	-0.253778
H143	H	0.469672	0.153409	-0.210568
O144	O	-0.090322	-0.451613	-0.273208
C145	C	-0.063174	-0.409397	-0.302274
H146	H	-0.056155	-0.353079	-0.286483
H147	H	-0.081237	-0.401317	-0.335573
C148	C	-0.027225	-0.519445	-0.329764
C149	C	-0.018600	-0.450276	-0.310369
H150	H	0.000270	-0.544662	-0.334760
H151	H	-0.045516	-0.547888	-0.310183
H152	H	-0.042278	-0.512702	-0.357512
H153	H	-0.003552	-0.457021	-0.282619
H154	H	-0.000305	-0.421836	-0.329945
H155	H	0.262417	-0.224024	-0.135882
H156	H	0.629117	0.188871	-0.292249
O157	O	0.481988	-0.264221	-0.159992
C158	C	0.509099	-0.306433	-0.130926
H159	H	0.516132	-0.362755	-0.146713
H160	H	0.490997	-0.314505	-0.097624
C161	C	0.545025	-0.196381	-0.103446
C162	C	0.553667	-0.265554	-0.122838
H163	H	0.572517	-0.171165	-0.098455
H164	H	0.526759	-0.167942	-0.123027
H165	H	0.529939	-0.203118	-0.075697
H166	H	0.568748	-0.258816	-0.150589
H167	H	0.571937	-0.293992	-0.103261
O168	O	0.709610	0.091904	-0.276933
C169	C	0.687305	0.048929	-0.309462
H170	H	0.650508	0.065752	-0.310838
H171	H	0.689948	-0.012202	-0.300228
C172	C	0.754271	0.041177	-0.353922
C173	C	0.709077	0.061843	-0.355615
H174	H	0.767702	0.049139	-0.382391
H175	H	0.769300	0.070127	-0.332005
H176	H	0.756468	-0.009765	-0.346224
H177	H	0.706882	0.112786	-0.363306
H178	H	0.694049	0.032901	-0.377534
O179	O	0.563980	-0.216798	-0.600109
C180	C	0.534950	-0.259087	-0.572966
H181	H	0.550792	-0.315370	-0.565944
H182	H	0.501661	-0.267242	-0.591033
C183	C	0.507352	-0.149111	-0.537019
C184	C	0.526811	-0.218236	-0.528392
H185	H	0.502330	-0.123911	-0.509525
H186	H	0.526909	-0.120619	-0.555308
H187	H	0.479613	-0.155917	-0.552076
H188	H	0.554552	-0.211429	-0.513340
H189	H	0.507259	-0.246726	-0.510100
O190	O	0.731706	0.192944	-0.194596
C191	C	0.760822	0.132654	-0.187216
H192	H	0.747603	0.081781	-0.205582
H193	H	0.762751	0.120459	-0.149778
C194	C	0.824116	0.214473	-0.182360
C195	C	0.807882	0.151991	-0.204921
H196	H	0.853145	0.226401	-0.193279
H197	H	0.804499	0.255092	-0.187331
H198	H	0.825719	0.204303	-0.151163
H199	H	0.806273	0.162165	-0.236116
H200	H	0.827499	0.111374	-0.199956
O201	O	0.734732	-0.499020	-0.692683
C202	C	0.760089	-0.540935	-0.661926
H203	H	0.741684	-0.543504	-0.628472
H204	H	0.794212	-0.513748	-0.656956
C205	C	0.789163	-0.616821	-0.721323
C206	C	0.766555	-0.619981	-0.680235
H207	H	0.793153	-0.665579	-0.732617
H208	H	0.772080	-0.588581	-0.742045
H209	H	0.817596	-0.594162	-0.717175
H210	H	0.738120	-0.642631	-0.684384
H211	H	0.783633	-0.648227	-0.659514
H212	H	0.701486	-0.443860	-1.045613
O213	O	0.734649	-0.499056	-0.600241
C214	C	0.709060	-0.547005	-0.573080
H215	H	0.673679	-0.551578	-0.587202
H216	H	0.707510	-0.524046	-0.537522
C217	C	0.774452	-0.618598	-0.555018
C218	C	0.730997	-0.624221	-0.572367
H219	H	0.787985	-0.666228	-0.554577
H220	H	0.791693	-0.586293	-0.573316
H221	H	0.773155	-0.599463	-0.525389
H222	H	0.732296	-0.643346	-0.601998
H223	H	0.713758	-0.656531	-0.554073
O224	O	0.671448	0.091868	-0.134277
C225	C	0.671320	0.013762	-0.134774
H226	H	0.676335	-0.006677	-0.170573
H227	H	0.637875	-0.007386	-0.121427
C228	C	0.703423	0.009727	-0.061018
C229	C	0.709587	-0.015377	-0.104987
H230	H	0.727027	-0.008248	-0.042642
H231	H	0.703508	0.062349	-0.060682
H232	H	0.675551	-0.007898	-0.049901
H233	H	0.737456	0.002257	-0.116104
H234	H	0.709508	-0.067996	-0.105324
H235	H	0.701486	-0.443897	-0.960504
H236	H	0.393133	-0.271596	-0.164531
O237	O	0.563993	-0.216591	-0.692572
C238	C	0.538635	-0.174693	-0.661783
H239	H	0.557039	-0.172148	-0.628351
H240	H	0.504511	-0.201879	-0.656773
C241	C	0.509569	-0.098766	-0.721143
C242	C	0.532174	-0.095635	-0.680082
H243	H	0.505581	-0.050000	-0.732431
H244	H	0.526651	-0.126995	-0.741887
H245	H	0.481134	-0.121425	-0.716963
H246	H	0.560610	-0.072985	-0.684264
H247	H	0.515096	-0.067400	-0.659340
H248	H	0.730208	-0.491439	-0.829808
O249	O	0.705953	-0.451508	-0.384345
C250	C	0.699798	-0.441314	-0.337901
H251	H	0.665132	-0.416975	-0.331477
H252	H	0.726452	-0.401780	-0.324603
C253	C	0.746473	-0.546354	-0.321701
C254	C	0.703894	-0.516466	-0.313810
H255	H	0.749002	-0.592710	-0.306840
H256	H	0.750622	-0.553220	-0.352991
H257	H	0.768680	-0.513402	-0.310619
H258	H	0.681688	-0.549413	-0.324898
H259	H	0.699742	-0.509607	-0.282522
H260	H	0.393222	-0.444188	-0.268625
H261	H	0.597250	-0.271503	-1.045550
H262	H	0.701488	-0.444038	-0.473218
O263	O	0.266152	-0.499259	-0.301873
C264	C	0.235398	-0.541247	-0.327183
H265	H	0.201955	-0.510830	-0.328765
H266	H	0.230395	-0.597612	-0.310679
C267	C	0.294810	-0.589419	-0.373045
C268	C	0.253737	-0.552057	-0.374991
H269	H	0.306123	-0.596090	-0.402534
H270	H	0.315530	-0.561133	-0.355992
H271	H	0.290636	-0.636386	-0.359289
H272	H	0.257912	-0.505088	-0.388741
H273	H	0.233018	-0.580335	-0.392047
H274	H	0.730206	-0.491467	-0.744703
H275	H	0.597252	-0.271693	-0.388039
H276	H	-0.179186	-0.444248	-0.268686
H277	H	0.597244	-0.271678	-0.473146
O278	O	0.563981	-0.216560	-0.833331
C279	C	0.538619	-0.174663	-0.802545
H280	H	0.557022	-0.172108	-0.769113
H281	H	0.504498	-0.201857	-0.797534
C282	C	0.509547	-0.098754	-0.861911
C283	C	0.532151	-0.095609	-0.820849
H284	H	0.505555	-0.049990	-0.873202
H285	H	0.526632	-0.126982	-0.882652
H286	H	0.481115	-0.121419	-0.857729
H287	H	0.560585	-0.072953	-0.825032
H288	H	0.515070	-0.067376	-0.800109
H289	H	0.177425	-0.491770	-0.297335
H290	H	-0.179255	-0.271667	-0.164597
H291	H	0.568508	-0.224113	-0.744606
O292	O	0.173558	-0.216552	-0.131434
C293	C	0.146435	-0.168634	-0.157048
H294	H	0.139434	-0.194890	-0.191075
H295	H	0.164510	-0.113597	-0.162024
C296	C	0.110449	-0.122923	-0.090549
C297	C	0.101846	-0.155174	-0.132340
H298	H	0.082945	-0.114617	-0.075308
H299	H	0.128723	-0.155204	-0.073292
H300	H	0.125512	-0.077062	-0.094702
H301	H	0.086788	-0.201038	-0.128187
H302	H	0.083568	-0.122900	-0.149596
H303	H	0.121783	-0.491776	-0.297343
O304	O	-0.090483	-0.264253	-0.160019
C305	C	-0.101993	-0.280372	-0.115231
H306	H	-0.114886	-0.339701	-0.112910
H307	H	-0.129241	-0.240540	-0.103532
C308	C	-0.044506	-0.198777	-0.088098
C309	C	-0.060338	-0.271647	-0.085247
H310	H	-0.018812	-0.193392	-0.069601
H311	H	-0.036752	-0.187914	-0.118272
H312	H	-0.067217	-0.165591	-0.078349
H313	H	-0.037629	-0.304831	-0.095000
H314	H	-0.068087	-0.282515	-0.055073
O315	O	0.125323	-0.216668	-0.131318
C316	C	0.113809	-0.232788	-0.086531
H317	H	0.100913	-0.292114	-0.084212
H318	H	0.086562	-0.192952	-0.074833
C319	C	0.171299	-0.151201	-0.059393
C320	C	0.155463	-0.224069	-0.056544
H321	H	0.196992	-0.145820	-0.040895
H322	H	0.179055	-0.140338	-0.089567
H323	H	0.148589	-0.118012	-0.049646
H324	H	0.178170	-0.257256	-0.066296
H325	H	0.147712	-0.234937	-0.026371
H326	H	0.036665	-0.491777	-0.297350
H327	H	0.036553	-0.224068	-0.135900
