data_functionalizedCrystal
_audit_creation_method	'MofGen! by Chris Wilmer'
_symmetry_space_group_name_H-M	'P1'
_symmetry_Int_Tables_number	1
_symmetry_cell_setting	triclinic
loop_
_symmetry_equiv_pos_as_xyz
  x,y,z
_cell_length_a	16.956995
_cell_length_b	17.019294
_cell_length_c	16.053802
_cell_angle_alpha	88.688316
_cell_angle_beta	87.607939
_cell_angle_gamma	79.732750
loop_
_atom_site_label
_atom_site_type_symbol
_atom_site_fract_x
_atom_site_fract_y
_atom_site_fract_z
O1	O	1.061472	0.029046	-0.071575
O2	O	1.561472	0.529046	0.428425
O3	O	0.829379	0.056640	-0.073547
O4	O	1.329379	0.556640	0.426453
O5	O	0.951502	-0.071991	-0.064301
O6	O	1.451502	0.428009	0.435699
O7	O	0.939349	0.157677	-0.080821
O8	O	1.439349	0.657677	0.419179
O9	O	0.944780	-0.064938	0.074051
O10	O	1.444780	0.435062	0.574051
O11	O	0.822657	0.063693	0.064805
O12	O	1.322657	0.563693	0.564805
O13	O	1.054750	0.036099	0.066777
O14	O	1.554750	0.536099	0.566777
Zn15	Zn	0.937636	0.051016	0.087757
Zn16	Zn	1.437636	0.551016	0.587757
Zn17	Zn	0.946493	0.041723	-0.094527
Zn18	Zn	1.446493	0.541723	0.405473
O19	O	0.932627	0.164730	0.057531
O20	O	1.432627	0.664730	0.557531
C21	C	0.796313	0.061580	-0.004471
C22	C	1.296313	0.561580	0.495529
C23	C	0.707802	0.065780	-0.004769
C24	C	1.207802	0.565780	0.495231
C25	C	0.208577	0.097203	-0.007060
C26	C	0.708577	0.597203	0.492940
C27	C	0.291743	0.093250	-0.006775
C28	C	0.791743	0.593250	0.493225
C29	C	0.342657	0.019052	-0.001432
C30	C	0.842657	0.519052	0.498568
C31	C	0.310401	-0.051198	0.003618
C32	C	0.810401	0.448802	0.503618
C33	C	0.227237	-0.047245	0.003327
C34	C	0.727237	0.452755	0.503327
C35	C	0.592383	-0.000516	-0.000010
C36	C	1.092383	0.499484	0.499990
C37	C	0.675552	-0.004464	0.000283
C38	C	1.175552	0.495536	0.500283
C39	C	0.656888	0.139984	-0.010112
C40	C	1.156888	0.639984	0.489888
C41	C	0.573723	0.143931	-0.010397
C42	C	1.073723	0.643931	0.489603
C43	C	0.541475	0.073681	-0.005352
C44	C	1.041475	0.573681	0.494648
N45	N	0.427666	0.015010	-0.001138
N46	N	0.927666	0.515010	0.498862
N47	N	0.456467	0.077724	-0.005652
N48	N	0.956467	0.577724	0.494348
C49	C	0.947548	-0.097714	0.006977
C50	C	1.447548	0.402286	0.506977
C51	C	0.945770	-0.184869	0.013241
C52	C	1.445770	0.315131	0.513241
C53	C	0.948601	-0.229655	-0.059232
C54	C	1.448601	0.270345	0.440768
C55	C	0.946926	-0.311545	-0.053344
C56	C	1.446926	0.188455	0.446656
C57	C	0.942425	-0.348649	0.025018
C58	C	1.442425	0.151351	0.525018
C59	C	0.939592	-0.303857	0.097495
C60	C	1.439592	0.196143	0.597495
C61	C	0.941261	-0.221967	0.091606
C62	C	1.441261	0.278033	0.591606
C63	C	0.937195	-0.595710	0.046571
C64	C	1.437195	-0.095710	0.546571
C65	C	0.935528	-0.677606	0.052455
C66	C	1.435528	-0.177606	0.552455
C67	C	0.942861	-0.685289	-0.098385
C68	C	1.442861	-0.185289	0.401615
C69	C	0.944535	-0.603398	-0.104267
C70	C	1.444535	-0.103398	0.395733
C71	C	0.941697	-0.558612	-0.031789
C72	C	1.441697	-0.058612	0.468211
C73	C	0.940715	-0.432355	0.031038
C74	C	1.440715	0.067645	0.531038
C75	C	0.943401	-0.474907	-0.037811
C76	C	1.443401	0.025093	0.462189
C77	C	1.087816	0.031159	-0.002300
C78	C	1.587816	0.531159	0.497700
C79	C	1.176327	0.026958	-0.002008
C80	C	1.676327	0.526958	0.497992
C81	C	0.936581	0.190453	-0.013749
C82	C	1.436581	0.690453	0.486251
C83	C	0.938359	0.277608	-0.020018
C84	C	1.438359	0.777608	0.479982
N85	N	0.931598	0.057357	0.212162
N86	N	1.431598	0.557357	0.712162
N87	N	0.952538	0.035376	-0.218931
N88	N	1.452538	0.535376	0.281069
C89	C	0.983580	0.002641	0.259789
C90	C	1.483580	0.502641	0.759789
C91	C	0.979363	0.007084	0.346876
C92	C	1.479363	0.507084	0.846876
C93	C	0.923168	0.066246	0.386335
C94	C	1.423168	0.566246	0.886335
C95	C	0.871179	0.120964	0.338702
C96	C	1.371179	0.620964	0.838702
C97	C	0.875393	0.116518	0.251616
C98	C	1.375393	0.616518	0.751616
C99	C	0.904763	0.085647	0.646350
C100	C	1.404763	0.585647	1.146350
C101	C	0.900555	0.090091	0.733442
C102	C	1.400555	0.590091	1.233442
C103	C	1.008739	-0.023791	0.741610
C104	C	1.508739	0.476209	1.241610
C105	C	1.012950	-0.028229	0.654523
C106	C	1.512950	0.471771	1.154523
C107	C	0.960959	0.026486	0.606897
C108	C	1.460959	0.526486	1.106897
N109	N	0.918858	0.070790	0.475352
N110	N	1.418858	0.570790	0.975352
N111	N	0.965266	0.021938	0.517882
N112	N	1.465266	0.521938	1.017882
H113	H	0.683154	0.197178	-0.014221
H114	H	1.183154	0.697178	0.485779
H115	H	0.200981	-0.104445	0.007439
H116	H	0.700981	0.395555	0.507439
O117	O	0.518811	0.223960	-0.016165
O118	O	1.018811	0.723960	0.483835
H119	H	0.477734	0.232094	0.039848
H120	H	0.977734	0.732094	0.539848
O121	O	0.153671	0.177235	-0.012821
O122	O	0.653671	0.677235	0.487179
H123	H	0.112595	0.185374	0.043192
H124	H	0.612595	0.685374	0.543192
H125	H	0.566137	-0.057718	0.004101
H126	H	1.066137	0.442282	0.504101
H127	H	0.862431	0.130201	0.607580
H128	H	1.362431	0.630201	1.107580
O129	O	0.949391	-0.563385	-0.188788
O130	O	1.449391	-0.063385	0.311212
H131	H	0.950086	-0.498919	-0.180707
H132	H	1.450086	0.001081	0.319293
O133	O	1.044189	-0.061173	0.217231
O134	O	1.544189	0.438827	0.717231
H135	H	1.079620	-0.098479	0.264983
H136	H	1.579620	0.401521	0.764983
O137	O	0.810569	0.184781	0.381254
O138	O	1.310569	0.684781	0.881254
H139	H	0.816378	0.178688	0.449811
H140	H	1.316378	0.678688	0.949811
O141	O	0.819312	0.175524	0.200248
O142	O	1.319312	0.675524	0.700248
H143	H	0.831671	0.162483	0.133064
H144	H	1.331671	0.662483	0.633064
H145	H	0.717005	-0.064888	0.004630
H146	H	1.217005	0.435112	0.504630
H147	H	0.949234	-0.348007	-0.112359
H148	H	1.449234	0.151993	0.387641
H149	H	0.931859	-0.707813	0.116269
H150	H	1.431859	-0.207813	0.616269
H151	H	0.854791	0.138272	0.765564
H152	H	1.354791	0.638272	1.265564
H153	H	0.945170	-0.721762	-0.157392
H154	H	1.445170	-0.221762	0.342608
O155	O	0.326533	0.169011	-0.012223
O156	O	0.826533	0.669011	0.487777
H157	H	0.361238	0.173533	0.044046
H158	H	0.861238	0.673533	0.544046
O159	O	1.035444	-0.051917	0.398248
O160	O	1.535444	0.448083	0.898248
H161	H	1.075240	-0.093792	0.356178
H162	H	1.575240	0.406208	0.856178
O163	O	0.365310	-0.131228	0.009389
O164	O	0.865310	0.368772	0.509389
H165	H	0.428557	-0.122177	0.008754
H166	H	0.928557	0.377823	0.508754
O167	O	1.073561	-0.092049	0.611975
O168	O	1.573561	0.407951	1.111975
H169	H	1.134922	-0.085184	0.628249
H170	H	1.634922	0.414816	1.128249
O171	O	0.953449	-0.189635	-0.143751
O172	O	1.453449	0.310365	0.356249
H173	H	0.955126	-0.234536	-0.193155
H174	H	1.455126	0.265464	0.306845
O175	O	0.934155	-0.547413	0.124739
O176	O	1.434155	-0.047413	0.624739
H177	H	0.930760	-0.586977	0.180216
H178	H	1.430760	-0.086977	0.680216
H179	H	0.935922	-0.334073	0.161299
H180	H	1.435922	0.165927	0.661299
H181	H	0.938945	-0.185501	0.150621
H182	H	1.438945	0.314499	0.650621
O183	O	0.948249	-0.434890	-0.122327
O184	O	1.448249	0.065110	0.377673
H185	H	1.003974	-0.462983	-0.156610
H186	H	1.503974	0.037017	0.343390
O187	O	0.935874	-0.472388	0.115550
O188	O	1.435874	0.027612	0.615550
H189	H	0.880147	-0.444308	0.149838
H190	H	1.380147	0.055692	0.649838
O191	O	1.064806	-0.082810	0.792975
O192	O	1.564806	0.417190	1.292975
H193	H	1.052434	-0.069786	0.860161
H194	H	1.552434	0.430214	1.360161
