data_functionalizedCrystal
_audit_creation_method	'MofGen! by Chris Wilmer'
_symmetry_space_group_name_H-M	'P1'
_symmetry_Int_Tables_number	1
_symmetry_cell_setting	triclinic
loop_
_symmetry_equiv_pos_as_xyz
  x,y,z
_cell_length_a	11.026607
_cell_length_b	11.026607
_cell_length_c	9.482944
_cell_angle_alpha	81.873049
_cell_angle_beta	81.814568
_cell_angle_gamma	108.586017
loop_
_atom_site_label
_atom_site_type_symbol
_atom_site_fract_x
_atom_site_fract_y
_atom_site_fract_z
O1	O	-1.748415	-0.555227	0.120893
O2	O	-1.248415	-0.055227	0.620893
O3	O	-1.381836	-0.494464	0.120895
O4	O	-0.881836	0.005536	0.620895
O5	O	-1.534743	-0.341555	0.120889
O6	O	-1.034743	0.158445	0.620889
O7	O	-1.595508	-0.708137	0.120899
O8	O	-1.095508	-0.208137	0.620899
O9	O	-1.491359	-0.298336	-0.120904
O10	O	-0.991359	0.201664	0.379096
O11	O	-1.338452	-0.451246	-0.120898
O12	O	-0.838452	0.048754	0.379102
O13	O	-1.705032	-0.512009	-0.120900
O14	O	-1.205032	-0.012009	0.379100
Cu15	Cu	-1.517781	-0.477681	-0.142977
Cu16	Cu	-1.017781	0.022319	0.357023
Cu17	Cu	-1.569087	-0.528792	0.142972
Cu18	Cu	-1.069087	-0.028792	0.642972
O19	O	-1.552125	-0.664918	-0.120894
O20	O	-1.052125	-0.164918	0.379106
C21	C	-1.312484	-0.461645	-0.000001
C22	C	-0.812484	0.038355	0.499999
C23	C	-1.170471	-0.428228	-0.000000
C24	C	-0.670471	0.071772	0.500000
C25	C	-1.501842	-0.272286	-0.000006
C26	C	-1.001842	0.227714	0.499994
C27	C	-1.468426	-0.130273	-0.000000
C28	C	-0.968426	0.369727	0.500000
C29	C	-1.774384	-0.544828	-0.000001
C30	C	-1.274384	-0.044828	0.499999
C31	C	-1.916399	-0.578247	0.000008
C32	C	-1.416399	-0.078247	0.500008
C33	C	-1.116822	-0.520499	0.000003
C34	C	-0.616822	-0.020499	0.500003
C35	C	-0.970044	-0.485963	0.000004
C36	C	-0.470044	0.014037	0.500004
C37	C	-1.585027	-0.734187	0.000004
C38	C	-1.085027	-0.234187	0.500004
C39	C	-1.618444	-0.876202	0.000008
C40	C	-1.118444	-0.376202	0.500008
N41	N	-1.481704	-0.441733	-0.344097
N42	N	-0.981704	0.058267	0.155903
C43	C	-1.560696	-0.076624	0.000001
C44	C	-1.060696	0.423376	0.500001
C45	C	-1.526161	0.070153	0.000007
C46	C	-1.026161	0.570153	0.500007
C47	C	-1.558436	-0.518186	-0.416296
C48	C	-1.058436	-0.018186	0.083704
C49	C	-1.528428	-0.488267	-0.583713
C50	C	-1.028428	0.011733	-0.083713
N51	N	-1.605171	-0.564732	0.344092
N52	N	-1.105171	-0.064732	0.844092
H53	H	-1.179554	-0.625061	-0.000002
H54	H	-0.679554	-0.125061	0.499998
H55	H	-1.107744	-0.323672	0.000034
H56	H	-0.607744	0.176328	0.500034
H57	H	-1.440516	-0.400655	-0.645840
H58	H	-0.940516	0.099345	-0.145840
H59	H	-1.393798	-0.354127	-0.406229
H60	H	-0.893798	0.145873	0.093771
H61	H	-0.907321	-0.381400	0.000039
H62	H	-0.407321	0.118600	0.500039
H63	H	-0.979125	-0.682816	0.000001
H64	H	-0.479125	-0.182816	0.500001
H65	H	-1.665257	-0.139356	-0.000009
H66	H	-1.165257	0.360644	0.499991
H67	H	-1.421593	0.132881	0.000017
H68	H	-0.921593	0.632881	0.500017
N69	N	-1.756956	0.040713	-0.000001
N70	N	-1.256956	0.540713	0.499999
H71	H	-1.784754	0.075446	-0.089634
H72	H	-1.284754	0.575446	0.410366
H73	H	-1.816830	0.043419	0.089690
H74	H	-1.316830	0.543419	0.589690
H75	H	-1.363865	-0.067542	0.000010
H76	H	-0.863865	0.432458	0.500010
H77	H	-1.646350	-0.605786	-0.354163
H78	H	-1.146350	-0.105786	0.145837
N79	N	-1.721634	-0.680777	-0.573635
N80	N	-1.221634	-0.180777	-0.073635
H81	H	-1.726568	-0.685702	-0.465700
H82	H	-1.226568	-0.185702	0.034300
H83	H	-1.712226	-0.763322	-0.600164
H84	H	-1.212226	-0.263322	-0.100164
