data_functionalizedCrystal
_audit_creation_method	'MofGen! by Chris Wilmer'
_symmetry_space_group_name_H-M	'P1'
_symmetry_Int_Tables_number	1
_symmetry_cell_setting	triclinic
loop_
_symmetry_equiv_pos_as_xyz
  x,y,z
_cell_length_a	17.917603
_cell_length_b	14.628931
_cell_length_c	14.628931
_cell_angle_alpha	59.999972
_cell_angle_beta	90.000302
_cell_angle_gamma	57.011537
loop_
_atom_site_label
_atom_site_type_symbol
_atom_site_fract_x
_atom_site_fract_y
_atom_site_fract_z
Zr1	Zr	0.754907	0.916420	-0.077880
O2	O	0.629783	1.121075	-0.230816
O3	O	0.793264	0.721439	-0.030997
O4	O	0.793264	0.912144	-0.221703
O5	O	0.629783	0.930369	0.110322
O6	O	0.922222	0.897768	-0.214514
O7	O	0.629783	0.930369	-0.040110
O8	O	0.922222	0.556630	0.126624
O9	O	0.629783	1.271507	-0.230816
O10	O	0.905863	0.787326	-0.005637
O11	O	0.809624	0.798055	0.101264
O12	O	0.809624	1.022586	-0.123268
O13	O	0.713384	1.033315	-0.016367
Zr14	Zr	0.960580	0.893492	0.173507
Zr15	Zr	0.960579	0.893492	-0.066415
Zr16	Zr	0.754908	0.916420	0.162042
Zr17	Zr	0.754908	1.156342	-0.077880
Zr18	Zr	0.960579	0.653570	0.173507
O19	O	0.922222	1.088473	0.126623
O20	O	0.922222	1.088473	-0.214514
O21	O	0.629784	1.121075	0.110321
O22	O	1.085704	0.688837	0.326443
O23	O	1.085703	0.688837	-0.014695
O24	O	0.793265	0.721438	0.310141
O25	O	1.085704	0.879543	-0.014695
O26	O	0.922222	0.897768	0.317329
O27	O	0.793265	0.912144	0.310141
O28	O	1.085704	0.879543	0.135737
O29	O	0.793265	1.253282	-0.221703
O30	O	0.922222	0.556630	0.317330
O31	O	1.085704	0.538405	0.326443
O32	O	1.085703	0.538405	0.135737
O33	O	0.629783	1.271507	-0.040111
O34	O	0.793265	1.253282	-0.030997
O35	O	0.905863	0.787326	0.218894
O36	O	1.002102	0.776597	0.111994
O37	O	0.905863	1.011857	-0.005637
O38	O	0.809624	1.022586	0.101264
C39	C	0.857743	0.604851	0.047814
C40	C	0.857743	0.502998	0.047814
C41	C	0.600479	0.933636	0.033472
C42	C	0.513166	0.943370	0.028605
C43	C	0.905484	0.452266	-0.005216
C44	C	0.905485	0.346996	-0.005217
C45	C	0.353322	0.961150	0.019716
C46	C	0.362158	0.848768	0.075908
C47	C	0.273215	0.858661	0.070962
C48	C	0.442271	0.951260	0.024661
C49	C	1.115007	0.876276	0.062154
C50	C	1.202321	0.866542	0.067022
C51	C	0.857743	0.904956	-0.252292
C52	C	0.857743	0.904956	-0.354145
C53	C	0.857744	1.205061	0.047813
C54	C	0.857744	1.306914	0.047813
C55	C	0.925259	0.897429	-0.395790
C56	C	0.925260	0.897429	-0.501061
C57	C	0.857744	0.904956	0.347919
C58	C	0.857744	0.904956	0.449772
C59	C	1.115007	0.576171	0.062155
C60	C	1.202320	0.464584	0.067022
C61	C	0.857744	0.604851	0.347919
C62	C	0.857744	0.502998	0.449772
C63	C	1.115008	0.576171	0.362260
C64	C	1.202321	0.464584	0.468981
C65	C	0.600479	1.233741	-0.266634
C66	C	0.513166	1.345328	-0.373354
C67	C	0.600480	1.233741	0.033472
C68	C	0.513167	1.345328	0.028604
C69	C	0.857743	1.205061	-0.252292
C70	C	0.857743	1.306914	-0.354145
C71	C	1.193087	0.417782	0.007896
C72	C	1.275119	0.312948	0.012447
C73	C	1.366383	0.254912	0.076131
C74	C	1.375614	0.301724	0.135258
C75	C	1.293583	0.406562	0.130701
C76	C	1.293568	0.406580	0.463297
C77	C	1.375616	0.301745	0.563563
C78	C	1.366414	0.254909	0.669512
C79	C	1.275157	0.312923	0.675193
C80	C	1.193111	0.417763	0.574928
C81	C	0.421918	1.403343	-0.367670
C82	C	0.339871	1.508208	-0.467937
C83	C	0.349072	1.555049	-0.573885
C84	C	0.440330	1.497029	-0.579566
C85	C	0.522375	1.392173	-0.479301
C86	C	0.522400	1.392140	0.087721
C87	C	0.440368	1.497000	0.083144
C88	C	0.349104	1.555040	0.019456
C89	C	0.339873	1.508223	-0.039667
C90	C	0.421904	1.403372	-0.035096
C91	C	0.905485	0.452266	0.553534
C92	C	0.905486	0.346996	0.658806
H93	H	0.946361	0.486760	-0.050612
H94	H	0.816875	0.350509	0.556852
H95	H	0.447903	1.535099	0.131294
H96	H	0.265555	1.555495	-0.091520
H97	H	0.282317	1.640415	0.015744
H98	H	0.799935	0.911408	-0.514410
Br99	Br	0.486097	0.676019	0.162261
Br100	Br	0.789625	0.445491	0.123500
Br101	Br	0.409356	1.339849	-0.115328
Br102	Br	1.477773	0.112623	0.805578
H103	H	0.816867	0.468501	0.438873
H104	H	1.449914	0.254520	0.558918
H105	H	0.414408	1.365213	-0.281411
Br106	Br	0.237714	1.697358	-0.709951
Br107	Br	0.216034	1.586926	-0.460200
Br108	Br	0.973602	0.509774	0.571714
H109	H	0.447811	1.535181	-0.665842
Br110	Br	1.262685	0.249344	0.818991
H111	H	0.983065	0.890978	-0.353509
H112	H	0.983061	0.890992	-0.536892
Br113	Br	0.973604	0.274332	-0.080905
H114	H	1.118816	0.464977	0.579571
H115	H	0.596704	1.344892	0.139589
Br116	Br	0.229386	1.133887	-0.066653
Br117	Br	0.761403	0.915681	-0.424597
Br118	Br	0.973624	0.274308	0.807159
H119	H	0.816864	0.350522	0.093210
Br120	Br	1.069239	0.496526	-0.078545
Br121	Br	1.262569	0.249439	-0.067802
H122	H	1.433170	0.169546	0.079833
H123	H	1.301114	0.444654	0.178856
Br124	Br	1.499480	0.222942	0.221686
H125	H	1.301079	0.444698	0.377038
H126	H	0.596671	1.344937	-0.483942
