data_functionalizedCrystal
_audit_creation_method	'MofGen! by Chris Wilmer'
_symmetry_space_group_name_H-M	'P1'
_symmetry_Int_Tables_number	1
_symmetry_cell_setting	triclinic
loop_
_symmetry_equiv_pos_as_xyz
  x,y,z
_cell_length_a	16.959455
_cell_length_b	19.077068
_cell_length_c	19.076919
_cell_angle_alpha	85.529249
_cell_angle_beta	87.722556
_cell_angle_gamma	92.325375
loop_
_atom_site_label
_atom_site_type_symbol
_atom_site_fract_x
_atom_site_fract_y
_atom_site_fract_z
Zn1	Zn	-1.176470	0.296719	-0.409918
Zn2	Zn	-1.176372	0.409872	-0.296762
Zn3	Zn	-1.049827	0.291999	-0.292040
Zn4	Zn	-1.038717	0.414565	-0.414598
O5	O	-1.110346	0.353289	-0.353330
O6	O	-1.287066	0.311740	-0.394925
O7	O	-1.164194	0.390297	-0.197489
O8	O	-1.071316	0.193976	-0.303742
O9	O	-1.286995	0.394873	-0.311790
O10	O	-1.164361	0.197444	-0.390346
O11	O	-1.071222	0.303696	-0.194020
O12	O	-0.937743	0.308246	-0.308280
O13	O	-1.052382	0.402871	-0.512624
O14	O	-0.929581	0.398295	-0.398323
O15	O	-1.153588	0.316290	-0.509185
O16	O	-1.153422	0.509144	-0.316328
O17	O	-1.052287	0.512591	-0.402902
C18	C	-0.904983	0.353268	-0.353298
C19	C	-0.817125	0.353277	-0.353301
C20	C	-0.780077	0.306331	-0.306488
C21	C	-0.771619	0.400228	-0.400122
C22	C	-0.689073	0.400235	-0.400129
C23	C	-0.652025	0.353289	-0.353316
C24	C	-0.697523	0.306336	-0.306496
C25	C	-0.643568	0.447183	-0.446954
C26	C	-0.561017	0.447191	-0.446964
C27	C	-0.523967	0.400248	-0.400147
C28	C	-0.569471	0.353294	-0.353324
C29	C	-0.532423	0.306348	-0.306511
C30	C	-0.577925	0.259396	-0.259684
C31	C	-0.660474	0.259392	-0.259679
C32	C	-0.441418	0.400252	-0.400152
C33	C	-0.449868	0.306352	-0.306519
C34	C	-1.101659	0.536447	-0.360651
C35	C	-1.098014	0.614804	-0.363806
C36	C	-1.101757	0.360631	-0.537198
C37	C	-1.098096	0.363759	-0.615551
C38	C	-0.316513	0.353307	-0.353353
C39	C	-0.404370	0.353306	-0.353339
C40	C	-1.119089	0.169416	-0.345995
C41	C	-1.122814	0.091060	-0.342870
C42	C	-1.148994	0.649799	-0.320252
C43	C	-1.145570	0.723424	-0.323224
C44	C	-1.091161	0.762052	-0.369747
C45	C	-1.040179	0.727051	-0.413306
C46	C	-1.043607	0.653428	-0.410337
C47	C	-1.075260	0.982437	-0.383460
C48	C	-1.071834	1.056065	-0.386424
C49	C	-1.177226	1.052432	-0.296342
C50	C	-1.180647	0.978808	-0.293375
C51	C	-1.129667	0.943814	-0.336936
N52	N	-1.087658	0.837308	-0.372785
N53	N	-1.133175	0.868559	-0.333902
C54	C	-1.149067	0.320153	-0.650573
C55	C	-1.145618	0.323090	-0.724195
C56	C	-1.091202	0.369637	-0.762793
C57	C	-1.040226	0.413245	-0.727767
C58	C	-1.043672	0.410304	-0.654146
C59	C	-1.075243	0.383264	-0.983166
C60	C	-1.071803	0.386203	-1.056792
C61	C	-1.177194	0.296047	-1.053215
C62	C	-1.180638	0.293113	-0.979593
C63	C	-1.129660	0.336718	-0.944573
N64	N	-1.087677	0.372642	-0.838046
N65	N	-1.133181	0.333709	-0.869321
C66	C	-1.118951	0.345924	-0.170175
C67	C	-1.122773	0.342597	-0.091813
H68	H	-0.547749	0.221169	-0.221572
H69	H	-1.218732	1.080932	-0.260878
C70	C	-0.463316	0.460928	-0.542181
C71	C	-0.511007	0.498804	-0.498431
H72	H	-0.432446	0.492794	-0.573956
H73	H	-0.429438	0.432979	-0.514304
H74	H	-0.495723	0.431331	-0.567964
H75	H	-0.478598	0.528397	-0.472644
H76	H	-0.544888	0.526765	-0.526312
H77	H	-1.033749	0.953951	-0.418928
H78	H	-0.817129	0.268106	-0.268361
C79	C	-0.940752	0.416789	-0.571729
C80	C	-0.987644	0.458243	-0.615653
H81	H	-0.906157	0.446386	-0.547972
H82	H	-0.973649	0.388655	-0.538206
H83	H	-0.910638	0.387219	-0.599226
H84	H	-1.017762	0.487808	-0.588156
H85	H	-0.954742	0.486389	-0.649181
H86	H	-1.193380	0.282252	-0.619151
C87	C	-0.789867	0.439501	-0.520812
C88	C	-0.812344	0.451825	-0.451579
H89	H	-0.815015	0.471354	-0.552579
H90	H	-0.734199	0.446231	-0.527513
H91	H	-0.805155	0.392562	-0.529300
H92	H	-0.797050	0.498762	-0.443089
H93	H	-0.868024	0.445101	-0.444875
H94	H	-1.187125	0.287583	-0.752706
H95	H	-1.027537	1.087515	-0.424321
H96	H	-1.187083	0.751913	-0.287757
H97	H	-1.002095	0.624936	-0.445805
H98	H	-1.033744	0.418781	-0.954662
C99	C	-0.988120	0.841522	-0.457850
C100	C	-0.980369	0.769510	-0.464444
H101	H	-0.951189	0.867731	-0.489417
H102	H	-1.040167	0.853958	-0.468701
H103	H	-0.978245	0.851715	-0.410960
H104	H	-0.990250	0.759315	-0.511333
H105	H	-0.928309	0.757069	-0.453598
C106	C	-1.284459	0.204285	-0.983455
C107	C	-1.240450	0.241943	-0.937168
H108	H	-1.321382	0.172693	-0.957262
H109	H	-1.311889	0.236149	-1.013399
H110	H	-1.249951	0.178465	-1.011089
H111	H	-1.274958	0.267768	-0.909538
H112	H	-1.213018	0.210075	-0.907211
H113	H	-0.404374	0.438475	-0.438282
C114	C	-1.218705	0.260517	-1.164481
C115	C	-1.233219	0.248111	-1.091711
H116	H	-1.253290	0.230916	-1.188244
H117	H	-1.227462	0.308358	-1.178434
H118	H	-1.165520	0.250677	-1.176115
H119	H	-1.286403	0.257956	-1.080076
H120	H	-1.224468	0.200258	-1.077751
C121	C	-0.661733	0.567964	-0.485886
C122	C	-0.684285	0.498783	-0.498413
H123	H	-0.686868	0.599820	-0.517660
H124	H	-0.676978	0.576317	-0.438921
H125	H	-0.606056	0.574674	-0.492594
H126	H	-0.739962	0.492071	-0.491700
H127	H	-0.669045	0.490426	-0.545389
C128	C	-1.252827	0.653611	-0.231513
C129	C	-1.208802	0.607342	-0.269111
H130	H	-1.289755	0.627400	-0.199944
H131	H	-1.218335	0.681283	-0.205679
H132	H	-1.280260	0.683521	-0.263418
H133	H	-1.181364	0.577436	-0.237206
H134	H	-1.243299	0.579658	-0.294946
C135	C	-0.967960	0.475020	-1.052937
C136	C	-1.011981	0.437369	-1.099221
H137	H	-0.931030	0.506603	-1.079132
H138	H	-1.002455	0.500843	-1.025304
H139	H	-0.940531	0.443146	-1.022991
H140	H	-1.039415	0.469242	-1.129164
H141	H	-0.977482	0.411544	-1.126866
H142	H	-1.224951	0.947358	-0.255492
C143	C	-0.936396	0.502062	-0.723902
C144	C	-0.980409	0.464411	-0.770192
H145	H	-0.899466	0.533648	-0.750094
H146	H	-0.970895	0.527882	-0.696271
H147	H	-0.908968	0.470189	-0.693955
H148	H	-1.007843	0.496284	-0.800135
H149	H	-0.945905	0.438590	-0.797835
C150	C	-0.431639	0.267075	-0.185824
C151	C	-0.409155	0.254746	-0.255055
H152	H	-0.406509	0.235212	-0.154053
H153	H	-0.416340	0.314004	-0.177335
H154	H	-0.487316	0.260358	-0.179132
H155	H	-0.353478	0.261468	-0.261749
H156	H	-0.424449	0.207805	-0.263547
C157	C	-0.790770	0.217686	-0.218103
C158	C	-0.710491	0.207780	-0.208217
H159	H	-0.821648	0.185818	-0.186337
H160	H	-0.802536	0.264614	-0.209599
H161	H	-0.802570	0.209333	-0.265077
H162	H	-0.698689	0.216138	-0.161245
H163	H	-0.698720	0.160841	-0.216716
