data_functionalizedCrystal
_audit_creation_method	'MofGen! by Chris Wilmer'
_symmetry_space_group_name_H-M	'P1'
_symmetry_Int_Tables_number	1
_symmetry_cell_setting	triclinic
loop_
_symmetry_equiv_pos_as_xyz
  x,y,z
_cell_length_a	10.540539
_cell_length_b	14.519709
_cell_length_c	12.996460
_cell_angle_alpha	89.999966
_cell_angle_beta	89.996006
_cell_angle_gamma	95.897182
loop_
_atom_site_label
_atom_site_type_symbol
_atom_site_fract_x
_atom_site_fract_y
_atom_site_fract_z
O1	O	0.166400	-1.224765	-0.085428
O2	O	0.185995	-0.956394	-0.085459
O3	O	-0.008571	-1.096702	-0.085441
O4	O	0.360967	-1.084457	-0.085445
O5	O	-0.008582	-1.096688	0.085693
O6	O	0.185985	-0.956379	0.085675
O7	O	0.166389	-1.224751	0.085706
Cu8	Cu	0.176186	-1.090563	0.101316
Cu9	Cu	0.176199	-1.090581	-0.101069
O10	O	0.360956	-1.084442	0.085689
C11	C	-0.055870	-1.095777	0.000124
C12	C	-0.196790	-1.093029	0.000118
C13	C	0.185077	-0.922022	0.000104
C14	C	0.182340	-0.819626	0.000092
C15	C	0.167308	-1.259123	0.000141
C16	C	0.170044	-1.361519	0.000146
C17	C	-0.379142	-0.987750	-0.000278
C18	C	-0.232553	-0.990535	0.000107
C19	C	-0.258958	-1.142346	0.097849
C20	C	-0.405467	-1.138848	0.097931
C21	C	-0.405994	-1.140949	-0.096680
C22	C	-0.259021	-1.141893	-0.097972
C23	C	0.408255	-1.085368	0.000121
C24	C	0.549175	-1.088115	0.000120
N25	N	0.176176	-1.090558	0.243664
C26	C	0.172265	-0.444676	0.000139
C27	C	0.175063	-0.548999	0.000126
C28	C	0.177303	-0.632148	0.000115
C29	C	0.180101	-0.736477	0.000103
N30	N	0.176198	-1.090594	-0.243416
C31	C	0.176200	-1.090580	0.663478
C32	C	0.176198	-1.090571	0.546673
C33	C	0.176189	-1.090569	0.453574
C34	C	0.176185	-1.090560	0.336762
H35	H	-0.407325	-0.947268	-0.070364
H36	H	-0.189549	-0.951730	-0.069951
H37	H	-0.235562	-1.216620	-0.103864
N38	N	-0.231898	-1.236772	0.102449
N39	N	-0.321193	-1.300470	0.102144
H40	H	-0.302080	-1.367159	0.105395
H41	H	-0.453975	-1.214980	-0.097328
H42	H	-0.454188	-1.212560	0.102373
H43	H	-0.437203	-1.107783	-0.170753
N44	N	-0.179645	-0.941499	0.088121
N45	N	-0.099415	-0.872668	0.076667
H46	H	-0.062048	-0.838035	0.138831
N47	N	-0.207169	-1.096734	-0.188689
N48	N	-0.244316	-1.125209	-0.275448
H49	H	-0.207675	-1.093323	-0.339518
N50	N	-0.416519	-0.937181	0.087159
N51	N	-0.397728	-0.966012	0.175925
H52	H	-0.424128	-0.930306	0.237684
N53	N	-0.440371	-1.093108	0.189571
N54	N	-0.356566	-1.063986	0.253020
H55	H	-0.381210	-1.031680	0.317743
N56	N	-0.205080	-1.099349	0.189071
N57	N	-0.120915	-1.032396	0.182359
H58	H	-0.082864	-1.002023	0.246782
