data_functionalizedCrystal
_audit_creation_method	'MofGen! by Chris Wilmer'
_symmetry_space_group_name_H-M	'P1'
_symmetry_Int_Tables_number	1
_symmetry_cell_setting	triclinic
loop_
_symmetry_equiv_pos_as_xyz
  x,y,z
_cell_length_a	18.215407
_cell_length_b	17.640280
_cell_length_c	18.215399
_cell_angle_alpha	78.775397
_cell_angle_beta	89.980167
_cell_angle_gamma	78.800709
loop_
_atom_site_label
_atom_site_type_symbol
_atom_site_fract_x
_atom_site_fract_y
_atom_site_fract_z
Zn1	Zn	1.184366	-0.314661	-0.356963
Zn2	Zn	1.684366	0.185339	0.143037
Zn3	Zn	1.209181	-0.446838	-0.209048
Zn4	Zn	1.709181	0.053162	0.290952
Zn5	Zn	1.061303	-0.314687	-0.233905
Zn6	Zn	1.561303	0.185313	0.266095
Zn7	Zn	1.086163	-0.446794	-0.332082
Zn8	Zn	1.586163	0.053206	0.167918
O9	O	1.135253	-0.380745	-0.282999
O10	O	1.635253	0.119255	0.217001
O11	O	1.290643	-0.332202	-0.337352
O12	O	1.790643	0.167798	0.162648
O13	O	1.189546	-0.429337	-0.109356
O14	O	1.689546	0.070663	0.390644
O15	O	1.056838	-0.204079	-0.271045
O16	O	1.556838	0.295921	0.228955
O17	O	1.308875	-0.429312	-0.228680
O18	O	1.808875	0.070688	0.271320
O19	O	1.147252	-0.204060	-0.361454
O20	O	1.647252	0.295940	0.138546
O21	O	1.080901	-0.332246	-0.127618
O22	O	1.580901	0.167754	0.372382
O23	O	0.961615	-0.332203	-0.246918
O24	O	1.461615	0.167797	0.253082
O25	O	1.099208	-0.429237	-0.438372
O26	O	1.599208	0.070763	0.061628
O27	O	0.979879	-0.429262	-0.319048
O28	O	1.479879	0.070738	0.180952
O29	O	1.171357	-0.332159	-0.456652
O30	O	1.671357	0.167841	0.043348
O31	O	1.213652	-0.557436	-0.204553
O32	O	1.713652	-0.057436	0.295447
O33	O	1.123271	-0.557404	-0.294945
O34	O	1.623271	-0.057404	0.205055
C35	C	0.944044	-0.380731	-0.282981
C36	C	1.444044	0.119269	0.217019
C37	C	0.862248	-0.380745	-0.282987
C38	C	1.362248	0.119255	0.217013
C39	C	0.683598	-0.431363	-0.320471
C40	C	1.183598	0.068637	0.179529
C41	C	0.606740	-0.431365	-0.320479
C42	C	1.106740	0.068635	0.179521
C43	C	0.587662	-0.330142	-0.245542
C44	C	1.087662	0.169858	0.254458
C45	C	0.664519	-0.330136	-0.245538
C46	C	1.164519	0.169864	0.254462
C47	C	0.712485	-0.380751	-0.283000
C48	C	1.212485	0.119249	0.217000
C49	C	0.558771	-0.380759	-0.283013
C50	C	1.058771	0.119241	0.216987
C51	C	0.475438	-0.380761	-0.283022
C52	C	0.975438	0.119239	0.216978
C53	C	0.795824	-0.380748	-0.282993
C54	C	1.295824	0.119252	0.217007
C55	C	1.173871	-0.586099	-0.244368
C56	C	1.673871	-0.086099	0.255632
C57	C	1.190460	-0.673950	-0.227866
C58	C	1.690460	-0.173950	0.272134
C59	C	1.009534	-0.962935	-0.408631
C60	C	1.509534	-0.462935	0.091369
C61	C	1.025123	-1.045484	-0.393101
C62	C	1.525123	-0.545484	0.106899
C63	C	1.119295	-1.045452	-0.299071
C64	C	1.619295	-0.545452	0.200929
C65	C	1.103717	-0.962901	-0.314596
C66	C	1.603717	-0.462901	0.185404
C67	C	1.048835	-0.921649	-0.369375
C68	C	1.548835	-0.421649	0.130625
C69	C	1.143018	-0.921615	-0.275340
C70	C	1.643018	-0.421615	0.224660
C71	C	1.127438	-0.839071	-0.290861
C72	C	1.627438	-0.339071	0.209139
C73	C	1.072557	-0.797813	-0.345636
C74	C	1.572557	-0.297813	0.154364
C75	C	1.033255	-0.839105	-0.384896
C76	C	1.533255	-0.339105	0.115104
C77	C	1.197896	-0.962869	-0.220557
C78	C	1.697896	-0.462869	0.279443
C79	C	1.237196	-0.921583	-0.181301
C80	C	1.737196	-0.421583	0.318699
C81	C	1.221620	-0.839038	-0.196825
C82	C	1.721620	-0.339038	0.303175
C83	C	1.166739	-0.797780	-0.251601
C84	C	1.666739	-0.297780	0.248399
C85	C	1.260922	-0.797746	-0.157566
C86	C	1.760922	-0.297746	0.342434
C87	C	1.245342	-0.715202	-0.173086
C88	C	1.745342	-0.215202	0.326914
C89	C	1.151159	-0.715236	-0.267122
C90	C	1.651159	-0.215236	0.232878
C91	C	1.327209	-0.380759	-0.283018
C92	C	1.827209	0.119241	0.216982
C93	C	1.409009	-0.380765	-0.283027
C94	C	1.909009	0.119235	0.216973
C95	C	1.135288	-0.380690	-0.474963
C96	C	1.635288	0.119310	0.025037
C97	C	1.135302	-0.380667	-0.556766
C98	C	1.635302	0.119333	-0.056766
C99	C	1.096504	-0.174589	-0.321798
C100	C	1.596504	0.325411	0.178202
C101	C	1.079991	-0.086738	-0.338331
C102	C	1.579991	0.413262	0.161669
C103	C	1.172878	-0.330072	-0.754489
C104	C	1.672878	0.169928	-0.254489
C105	C	1.172883	-0.330049	-0.831352
C106	C	1.672883	0.169951	-0.331352
C107	C	1.097755	-0.431141	-0.812304
C108	C	1.597755	0.068859	-0.312304
C109	C	1.097747	-0.431159	-0.735444
C110	C	1.597747	0.068841	-0.235444
C111	C	1.135313	-0.380626	-0.706537
C112	C	1.635313	0.119374	-0.206537
C113	C	1.135326	-0.380584	-0.860261
C114	C	1.635326	0.119416	-0.360261
C115	C	1.135330	-0.380560	-0.943600
C116	C	1.635330	0.119440	-0.443600
C117	C	1.135307	-0.380649	-0.623194
C118	C	1.635307	0.119351	-0.123194
C119	C	1.135250	-0.380742	-0.091794
C120	C	1.635250	0.119258	0.408206
C121	C	1.135336	-0.380543	-0.010033
C122	C	1.635336	0.119457	0.489967
H123	H	1.106474	-0.681646	-0.311735
H124	H	1.606474	-0.181646	0.188265
H125	H	0.583224	-0.472577	-0.350993
H126	H	1.083224	0.027423	0.149007
O127	O	0.541167	-0.280908	-0.209136
O128	O	1.041167	0.219092	0.290864
C129	C	0.530365	-0.180546	-0.134765
C130	C	1.030365	0.319454	0.365235
C131	C	0.583099	-0.236248	-0.175982
C132	C	1.083099	0.263752	0.324018
H133	H	0.564247	-0.144435	-0.107936
H134	H	1.064247	0.355565	0.392064
H135	H	0.486640	-0.139212	-0.176354
H136	H	0.986640	0.360788	0.323646
H137	H	0.501167	-0.216800	-0.089444
H138	H	1.001167	0.283200	0.410556
H139	H	0.612348	-0.200057	-0.221301
H140	H	1.112348	0.299943	0.278699
H141	H	0.626778	-0.277583	-0.134347
H142	H	1.126778	0.222417	0.365653
H143	H	0.688037	-0.288916	-0.215026
H144	H	1.188037	0.211084	0.284974
H145	H	1.059867	-0.730600	-0.358267
H146	H	1.559867	-0.230600	0.141733
H147	H	0.964849	-0.929345	-0.453244
H148	H	1.464849	-0.429345	0.046756
H149	H	1.305601	-0.831346	-0.112959
H150	H	1.805601	-0.331346	0.387041
O151	O	0.979906	-0.799147	-0.438120
O152	O	1.479906	-0.299147	0.061880
C153	C	0.888187	-0.807880	-0.529811
C154	C	1.388187	-0.307880	-0.029811
C155	C	0.948565	-0.853230	-0.469542
C156	C	1.448565	-0.353230	0.030458
H157	H	0.862842	-0.851587	-0.555243
H158	H	1.362842	-0.351587	-0.055243
H159	H	0.842391	-0.769300	-0.503287
H160	H	1.342391	-0.269300	-0.003287
H161	H	0.914673	-0.769172	-0.575562
H162	H	1.414673	-0.269172	-0.075562
H163	H	0.922147	-0.891982	-0.423773
H164	H	1.422147	-0.391982	0.076227
H165	H	0.994354	-0.891761	-0.496121
H166	H	1.494354	-0.391761	0.003879
H167	H	1.163978	-1.079051	-0.254467
H168	H	1.663978	-0.579051	0.245533
O169	O	0.730083	-0.480547	-0.356932
O170	O	1.230083	0.019453	0.143068
C171	C	0.740895	-0.580974	-0.431230
C172	C	1.240895	-0.080974	0.068770
C173	C	0.688168	-0.525301	-0.389979
C174	C	1.188168	-0.025301	0.110021
H175	H	0.707030	-0.617184	-0.457947
H176	H	1.207030	-0.117184	0.042053
H177	H	0.770064	-0.544772	-0.476621
H178	H	1.270064	-0.044772	0.023379
H179	H	0.784643	-0.622222	-0.389610
H180	H	1.284643	-0.122222	0.110390
H181	H	0.644379	-0.484042	-0.431542
H182	H	1.144379	0.015958	0.068458
H183	H	0.659055	-0.561553	-0.344577
H184	H	1.159055	-0.061553	0.155423
O185	O	0.986900	-1.085467	-0.431334
O186	O	1.486900	-0.585467	0.068666
C187	C	0.891812	-1.076786	-0.526215
C188	C	1.391812	-0.576786	-0.026215
C189	C	0.935054	-1.031408	-0.482987
C190	C	1.435054	-0.531408	0.017013
H191	H	0.849873	-1.033099	-0.567975
H192	H	1.349873	-0.533099	-0.067975
H193	H	0.932824	-1.115361	-0.557524
H194	H	1.432824	-0.615361	-0.057524
H195	H	0.860691	-1.115503	-0.485102
H196	H	1.360691	-0.615503	0.014898
H197	H	0.966177	-0.992648	-0.524050
H198	H	1.466177	-0.492648	-0.024050
H199	H	0.894005	-0.992883	-0.451667
H200	H	1.394005	-0.492883	0.048333
H201	H	1.210581	-1.030082	-0.207924
H202	H	1.710581	-0.530082	0.292076
O203	O	1.290508	-0.961537	-0.128046
O204	O	1.790508	-0.461537	0.371954
C205	C	1.382318	-0.952790	-0.036453
C206	C	1.882318	-0.452790	0.463547
C207	C	1.321947	-0.907448	-0.096731
C208	C	1.821947	-0.407448	0.403269
H209	H	1.407764	-0.909079	-0.011129
H210	H	1.907764	-0.409079	0.488871
H211	H	1.355891	-0.991460	0.009384
H212	H	1.855891	-0.491460	0.509384
H213	H	1.428033	-0.991409	-0.063030
H214	H	1.928033	-0.491409	0.436970
H215	H	1.276213	-0.868786	-0.070221
H216	H	1.776213	-0.368786	0.429779
H217	H	1.348429	-0.868828	-0.142561
H218	H	1.848429	-0.368828	0.357439
H219	H	1.067151	-0.472326	-0.696400
H220	H	1.567151	0.027674	-0.196400
H221	H	1.277344	-0.681587	-0.141120
H222	H	1.777344	-0.181587	0.358880
O223	O	1.209372	-0.280906	-0.726537
O224	O	1.709372	0.219094	-0.226537
C225	C	1.283921	-0.180663	-0.753540
C226	C	1.783921	0.319337	-0.253540
C227	C	1.242609	-0.236293	-0.785293
C228	C	1.742609	0.263707	-0.285293
H229	H	1.310816	-0.144591	-0.801026
H230	H	1.810816	0.355409	-0.301026
H231	H	1.242384	-0.139290	-0.725359
H232	H	1.742384	0.360710	-0.225359
H233	H	1.329192	-0.216971	-0.710710
H234	H	1.829192	0.283029	-0.210710
H235	H	1.197339	-0.200049	-0.828150
H236	H	1.697339	0.299951	-0.328150
H237	H	1.284191	-0.277668	-0.813427
H238	H	1.784191	0.222332	-0.313427
H239	H	1.203471	-0.288881	-0.870391
H240	H	1.703471	0.211119	-0.370391
H241	H	1.067172	-0.472285	-0.835849
H242	H	1.567172	0.027715	-0.335849
