data_functionalizedCrystal
_audit_creation_method	'MofGen! by Chris Wilmer'
_symmetry_space_group_name_H-M	'P1'
_symmetry_Int_Tables_number	1
_symmetry_cell_setting	triclinic
loop_
_symmetry_equiv_pos_as_xyz
  x,y,z
_cell_length_a	18.627212
_cell_length_b	18.627226
_cell_length_c	18.627244
_cell_angle_alpha	90.004988
_cell_angle_beta	59.997222
_cell_angle_gamma	119.999840
loop_
_atom_site_label
_atom_site_type_symbol
_atom_site_fract_x
_atom_site_fract_y
_atom_site_fract_z
O1	O	0.513846	-0.611886	-0.021376
O2	O	0.366836	-0.507488	0.021239
O3	O	0.513843	-0.507488	-0.125767
O4	O	0.366839	-0.611886	0.125630
O5	O	0.633239	-0.388090	-0.125757
O6	O	0.486233	-0.388090	0.021249
O7	O	0.633242	-0.492487	-0.021366
Zn8	Zn	0.578694	-0.421332	-0.000057
Zn9	Zn	0.421384	-0.578644	-0.000070
O10	O	0.486236	-0.492487	0.125640
C11	C	0.356048	-0.256980	0.030921
C12	C	0.406449	-0.162281	0.024817
C13	C	0.398843	-0.300583	0.031533
C14	C	0.226041	-0.386984	0.030931
C15	C	0.137438	-0.431287	0.024838
C16	C	0.269033	-0.430390	0.031543
C17	C	0.356041	-0.386984	0.030933
C18	C	0.406435	-0.431287	0.024841
C19	C	0.269040	-0.300583	0.031531
O20	O	0.104437	-0.388087	0.021235
O21	O	-0.104348	-0.492486	-0.021384
O22	O	-0.104363	-0.492471	0.125623
O23	O	0.104452	-0.388102	-0.125773
O24	O	-0.104369	-0.611877	0.125634
O25	O	-0.104354	-0.611892	-0.021373
O26	O	0.104430	-0.507492	0.021246
Zn27	Zn	0.000037	-0.578650	-0.000062
Zn28	Zn	0.000046	-0.421328	-0.000076
O29	O	0.104445	-0.507507	-0.125761
C30	C	0.774036	-0.256994	-0.387052
C31	C	0.862633	-0.162300	-0.431346
C32	C	0.731044	-0.300596	-0.430460
C33	C	0.644038	-0.386990	-0.257059
C34	C	0.593641	-0.431288	-0.162363
C35	C	0.601244	-0.430394	-0.300664
C36	C	0.644041	-0.386992	-0.387061
C37	C	0.593646	-0.431292	-0.431364
C38	C	0.731042	-0.300594	-0.300655
C39	C	0.644053	-0.742984	-0.031088
C40	C	0.593661	-0.837679	-0.025000
C41	C	0.731058	-0.699384	-0.031693
C42	C	0.644046	-0.612987	-0.031074
C43	C	0.593646	-0.568688	-0.024972
C44	C	0.731050	-0.569585	-0.031679
C45	C	0.774048	-0.612988	-0.031077
C46	C	0.862647	-0.568690	-0.024978
C47	C	0.601253	-0.699383	-0.031690
O48	O	0.633263	0.125720	-0.021404
O49	O	0.486252	-0.125679	0.021216
O50	O	0.633252	0.021299	-0.125792
O51	O	0.486263	-0.021258	0.125604
O52	O	0.513851	0.021300	-0.125793
O53	O	0.366850	-0.125678	0.021214
O54	O	0.513862	0.125721	-0.021405
Zn55	Zn	0.421399	0.000021	-0.000096
Zn56	Zn	0.578715	0.000020	-0.000094
O57	O	0.366862	-0.021257	0.125603
O58	O	0.366849	-0.611895	-0.492570
O59	O	0.513848	-0.507491	-0.388168
O60	O	0.366843	-0.507494	-0.388162
O61	O	0.513854	-0.611892	-0.492577
O62	O	0.486241	-0.388098	-0.507559
O63	O	0.633246	-0.388095	-0.507565
O64	O	0.486247	-0.492499	-0.611967
Zn65	Zn	0.578703	-0.421340	-0.578723
Zn66	Zn	0.421392	-0.578650	-0.421412
O67	O	0.633251	-0.492496	-0.611974
C68	C	0.356048	-0.612992	0.256928
C69	C	0.406439	-0.568689	0.162235
C70	C	0.398843	-0.569590	0.300533
C71	C	0.226061	-0.742995	0.386915
C72	C	0.137469	-0.837691	0.431205
C73	C	0.269054	-0.699395	0.430322
C74	C	0.356052	-0.612996	0.386926
C75	C	0.406448	-0.568698	0.431229
C76	C	0.269049	-0.699391	0.300521
O77	O	-0.104329	-0.978718	0.611804
O78	O	0.104519	-1.021270	0.507360
O79	O	0.104471	-0.874294	0.507403
O80	O	-0.104281	-1.125694	0.611762
O81	O	0.104468	-0.874291	0.388002
O82	O	0.104516	-1.021267	0.387959
O83	O	-0.104331	-0.978715	0.492403
Zn84	Zn	0.000092	-0.999990	0.421224
Zn85	Zn	0.000095	-0.999995	0.578540
O86	O	-0.104283	-1.125691	0.492361
C87	C	-0.356008	-0.742956	0.386919
C88	C	-0.406413	-0.837651	0.431222
C89	C	-0.398807	-0.699349	0.430315
C90	C	-0.225988	-0.612965	0.256921
C91	C	-0.137374	-0.568673	0.162229
C92	C	-0.268984	-0.569555	0.300514
C93	C	-0.356001	-0.612952	0.386907
C94	C	-0.406399	-0.568645	0.431197
C95	C	-0.268991	-0.699362	0.300526
C96	C	0.356083	-0.387027	-0.387045
C97	C	0.406481	-0.431334	-0.431335
C98	C	0.398890	-0.300630	-0.430453
C99	C	0.226070	-0.387014	-0.257059
C100	C	0.137457	-0.431306	-0.162367
C101	C	0.269074	-0.300616	-0.300664
C102	C	0.356091	-0.257022	-0.387057
C103	C	0.406497	-0.162327	-0.431360
C104	C	0.269066	-0.430424	-0.300652
C105	C	0.644032	0.030949	-0.387085
C106	C	0.593632	0.024845	-0.431383
C107	C	0.731036	0.031549	-0.430489
C108	C	0.644041	0.030972	-0.257089
C109	C	0.593649	0.024892	-0.162394
C110	C	0.731044	0.031571	-0.300689
C111	C	0.774033	0.030949	-0.387086
C112	C	0.862631	0.024844	-0.431385
C113	C	0.601241	0.031572	-0.300689
O114	O	-0.633244	-1.125637	0.611824
O115	O	-0.486223	-0.874244	0.507418
O116	O	-0.633209	-1.021237	0.507399
O117	O	-0.486257	-0.978644	0.611844
O118	O	-0.513797	-1.021253	0.388011
O119	O	-0.366810	-0.874260	0.388031
O120	O	-0.513832	-1.125653	0.492437
Zn121	Zn	-0.421362	-0.999959	0.421279
Zn122	Zn	-0.578693	-0.999938	0.578576
O123	O	-0.366845	-0.978660	0.492456
C124	C	0.226082	-0.030907	0.386897
C125	C	0.137484	-0.024803	0.431197
C126	C	0.269080	-0.031507	0.430299
C127	C	0.356074	-0.030930	0.256899
C128	C	0.406464	-0.024850	0.162204
C129	C	0.398875	-0.031530	0.300499
C130	C	0.356084	-0.030908	0.386895
C131	C	0.406485	-0.024803	0.431193
C132	C	0.269070	-0.031530	0.300501
H133	H	0.468848	-0.265576	0.032520
F134	F	0.222040	-0.032805	0.254745
H135	H	0.531229	0.032553	-0.265686
H136	H	0.233040	-0.501382	0.032530
H137	H	-0.232992	-0.498568	0.265501
F138	F	0.490351	-0.032861	0.254760
F139	F	0.222030	-0.254816	0.032774
H140	H	-0.233024	-0.734383	0.265524
H141	H	0.767009	-0.265576	-0.265641
F142	F	0.222051	-0.032774	0.523085
H143	H	0.233073	-0.734407	0.501307
F144	F	0.778100	-0.745135	-0.032987
F145	F	0.222045	-0.254853	-0.254917
H146	H	0.531225	-0.501377	-0.265654
H147	H	0.468904	-0.265637	-0.501441
H148	H	0.767003	0.032501	-0.501472
H149	H	0.233082	-0.501410	-0.265646
F150	F	0.778077	0.032852	-0.254935
H151	H	0.767032	-0.265589	-0.501448
H152	H	0.233072	-0.734392	0.265509
H153	H	0.531238	-0.734393	-0.032663
F154	F	0.778075	-0.476802	-0.032945
F155	F	0.490345	-0.476804	0.254787
H156	H	-0.468823	-0.734350	0.501302
