data_functionalizedCrystal
_audit_creation_method	'MofGen! by Chris Wilmer'
_symmetry_space_group_name_H-M	'P1'
_symmetry_Int_Tables_number	1
_symmetry_cell_setting	triclinic
loop_
_symmetry_equiv_pos_as_xyz
  x,y,z
_cell_length_a	16.625547
_cell_length_b	12.645330
_cell_length_c	16.625539
_cell_angle_alpha	89.975749
_cell_angle_beta	89.975178
_cell_angle_gamma	90.017629
loop_
_atom_site_label
_atom_site_type_symbol
_atom_site_fract_x
_atom_site_fract_y
_atom_site_fract_z
Zn1	Zn	1.232707	-0.422039	-0.456024
Zn2	Zn	1.732707	0.077961	0.043976
Zn3	Zn	1.232622	-0.599325	-0.321200
Zn4	Zn	1.732622	-0.099325	0.178800
Zn5	Zn	1.097869	-0.422076	-0.321194
Zn6	Zn	1.597869	0.077924	0.178806
Zn7	Zn	1.097851	-0.599261	-0.455980
Zn8	Zn	1.597851	-0.099261	0.044020
O9	O	1.165262	-0.510675	-0.388600
O10	O	1.665262	-0.010675	0.111400
O11	O	1.345528	-0.445568	-0.438160
O12	O	1.845528	0.054432	0.061840
O13	O	1.214718	-0.575855	-0.208367
O14	O	1.714718	-0.075855	0.291633
O15	O	1.115799	-0.273724	-0.339095
O16	O	1.615799	0.226276	0.160905
O17	O	1.345465	-0.575819	-0.339106
O18	O	1.845465	-0.075819	0.160894
O19	O	1.214864	-0.273697	-0.438154
O20	O	1.714864	0.226303	0.061846
O21	O	1.115716	-0.445631	-0.208362
O22	O	1.615716	0.054369	0.291638
O23	O	0.985034	-0.445569	-0.339053
O24	O	1.485034	0.054431	0.160947
O25	O	1.115768	-0.575710	-0.568818
O26	O	1.615768	-0.075710	-0.068818
O27	O	0.985021	-0.575745	-0.438080
O28	O	1.485021	-0.075745	0.061920
O29	O	1.214846	-0.445506	-0.568850
O30	O	1.714846	0.054494	-0.068850
O31	O	1.214701	-0.747664	-0.339064
O32	O	1.714701	-0.247664	0.160936
O33	O	1.115685	-0.747617	-0.438086
O34	O	1.615685	-0.247617	0.061914
C35	C	0.955771	-0.510655	-0.388561
C36	C	1.455771	-0.010655	0.111439
C37	C	0.866150	-0.510671	-0.388564
C38	C	1.366150	-0.010671	0.111436
C39	C	0.793368	-0.510674	-0.388574
C40	C	1.293368	-0.010674	0.111426
C41	C	0.702059	-0.510679	-0.388594
C42	C	1.202059	-0.010679	0.111406
C43	C	0.629283	-0.510689	-0.388615
C44	C	1.129283	-0.010689	0.111385
C45	C	0.537969	-0.510696	-0.388634
C46	C	1.037969	-0.010696	0.111366
C47	C	1.165203	-0.786105	-0.388588
C48	C	1.665203	-0.286105	0.111412
C49	C	1.165252	-0.903935	-0.388610
C50	C	1.665252	-0.403935	0.111390
C51	C	1.103218	-1.071513	-0.451097
C52	C	1.603218	-0.571513	0.048903
C53	C	1.102901	-0.948954	-0.450896
C54	C	1.602901	-0.448954	0.049104
C55	C	1.142250	-0.948528	-0.303633
C56	C	1.642250	-0.448528	0.196367
C57	C	1.141872	-1.071126	-0.304013
C58	C	1.641872	-0.571126	0.195987
C59	C	1.250667	-1.071025	-0.410411
C60	C	1.750667	-0.571025	0.089589
C61	C	1.250144	-0.948418	-0.412269
C62	C	1.750144	-0.448418	0.087731
C63	C	1.375571	-0.510697	-0.388638
C64	C	1.875571	-0.010697	0.111362
C65	C	1.465192	-0.510706	-0.388655
C66	C	1.965192	-0.010706	0.111345
C67	C	1.165343	-0.234170	-0.388629
C68	C	1.665343	0.265830	0.111371
C69	C	1.165378	-0.116340	-0.388641
C70	C	1.665378	0.383660	0.111359
C71	C	1.165315	-0.510596	-0.598909
C72	C	1.665315	-0.010596	-0.098909
C73	C	1.165337	-0.510563	-0.688530
C74	C	1.665337	-0.010563	-0.188530
C75	C	1.165374	-0.510444	-1.016706
C76	C	1.665374	-0.010444	-0.516706
C77	C	1.165362	-0.510480	-0.925397
C78	C	1.665362	-0.010480	-0.425397
C79	C	1.165356	-0.510504	-0.852621
C80	C	1.665356	-0.010504	-0.352621
C81	C	1.165343	-0.510539	-0.761306
C82	C	1.665343	-0.010539	-0.261306
C83	C	1.165256	-0.510677	-0.179109
C84	C	1.665256	-0.010677	0.320891
C85	C	1.165390	-0.510413	-0.089488
C86	C	1.665390	-0.010413	0.410512
H87	H	1.117292	-0.918801	-0.513906
H88	H	1.617292	-0.418801	-0.013906
H89	H	1.039671	-0.919719	-0.436473
H90	H	1.539671	-0.419719	0.063527
H91	H	1.117477	-1.100926	-0.514314
H92	H	1.617477	-0.600926	-0.014314
O93	O	1.019980	-1.112421	-0.432237
O94	O	1.519980	-0.612421	0.067763
H95	H	1.022688	-1.164540	-0.378571
H96	H	1.522688	-0.664540	0.121429
H97	H	1.271650	-1.101870	-0.471323
H98	H	1.771650	-0.601870	0.028677
H99	H	1.186089	-0.919369	-0.255827
H100	H	1.686089	-0.419369	0.244173
O101	O	1.060524	-0.907987	-0.278762
O102	O	1.560524	-0.407987	0.221238
H103	H	1.044931	-0.940057	-0.218586
H104	H	1.544931	-0.440057	0.281414
O105	O	1.059288	-1.109135	-0.279582
O106	O	1.559288	-0.609135	0.220418
H107	H	1.058200	-1.196899	-0.279604
H108	H	1.558200	-0.696899	0.220396
H109	H	1.267490	-0.919268	-0.474808
H110	H	1.767490	-0.419268	0.025192
O111	O	1.311976	-1.109667	-0.350212
O112	O	1.811976	-0.609667	0.149788
H113	H	1.294764	-1.082583	-0.289089
H114	H	1.794764	-0.582583	0.210911
O115	O	1.199224	-1.110424	-0.240262
O116	O	1.699224	-0.610424	0.259738
H117	H	1.227102	-1.041859	-0.209293
H118	H	1.727102	-0.541859	0.290707
O119	O	1.314722	-0.907867	-0.356382
O120	O	1.814722	-0.407867	0.143618
H121	H	1.287197	-0.855141	-0.310665
H122	H	1.787197	-0.355141	0.189335
