data_functionalizedCrystal
_audit_creation_method	'MofGen! by Chris Wilmer'
_symmetry_space_group_name_H-M	'P1'
_symmetry_Int_Tables_number	1
_symmetry_cell_setting	triclinic
loop_
_symmetry_equiv_pos_as_xyz
  x,y,z
_cell_length_a	29.839125
_cell_length_b	16.120530
_cell_length_c	16.120484
_cell_angle_alpha	90.167327
_cell_angle_beta	87.117439
_cell_angle_gamma	92.908554
loop_
_atom_site_label
_atom_site_type_symbol
_atom_site_fract_x
_atom_site_fract_y
_atom_site_fract_z
Zn1	Zn	-0.299056	-1.254394	0.395737
Zn2	Zn	0.200944	-0.754394	0.895737
Zn3	Zn	-0.227530	-1.247256	0.534766
Zn4	Zn	0.272470	-0.747256	1.034766
Zn5	Zn	-0.219950	-1.115354	0.388670
Zn6	Zn	0.280050	-0.615354	0.888670
Zn7	Zn	-0.298644	-1.108246	0.527690
Zn8	Zn	0.201356	-0.608246	1.027690
O9	O	-0.261295	-1.181313	0.461716
O10	O	0.238705	-0.681313	0.961716
O11	O	-0.292912	-1.369812	0.420099
O12	O	0.207088	-0.869812	0.920099
O13	O	-0.163657	-1.229747	0.515389
O14	O	0.336343	-0.729747	1.015389
O15	O	-0.227444	-1.139760	0.273243
O16	O	0.272556	-0.639760	0.773243
O17	O	-0.240362	-1.364568	0.522242
O18	O	0.259638	-0.864568	1.022242
O19	O	-0.285562	-1.241912	0.278435
O20	O	0.214438	-0.741912	0.778435
O21	O	-0.158088	-1.132839	0.408053
O22	O	0.341912	-0.632839	0.908053
O23	O	-0.227045	-0.998047	0.401192
O24	O	0.272955	-0.498047	0.901192
O25	O	-0.361566	-1.127645	0.510183
O26	O	0.138434	-0.627645	1.010183
O27	O	-0.284861	-0.992824	0.503330
O28	O	0.215139	-0.492824	1.003330
O29	O	-0.361868	-1.235019	0.413238
O30	O	0.138132	-0.735019	0.913238
O31	O	-0.239964	-1.222854	0.650192
O32	O	0.260036	-0.722854	1.150192
O33	O	-0.292211	-1.120724	0.644993
O34	O	0.207789	-0.620724	1.144993
C35	C	-0.255086	-0.965264	0.450727
C36	C	0.244914	-0.465264	0.950727
C37	C	-0.252441	-0.872836	0.446046
C38	C	0.247559	-0.372836	0.946046
C39	C	-0.266876	-1.170266	0.677766
C40	C	0.233124	-0.670266	1.177766
C41	C	-0.269281	-1.165616	0.770197
C42	C	0.230719	-0.665616	1.270197
C43	C	-0.378474	-1.181335	0.461710
C44	C	0.121526	-0.681335	0.961710
C45	C	-0.428409	-1.181345	0.461707
C46	C	0.071591	-0.681345	0.961707
C47	C	-0.738210	-1.237318	0.411091
C48	C	-0.238210	-0.737318	0.911091
C49	C	-0.925883	-1.237363	0.411022
C50	C	-0.425883	-0.737363	0.911022
O51	O	-0.950283	-1.284887	0.368062
O52	O	-0.450283	-0.784887	0.868062
N53	N	-0.949191	-1.181467	0.461490
N54	N	-0.449191	-0.681467	0.961490
C55	C	-0.925579	-1.125552	0.511974
C56	C	-0.425579	-0.625552	1.011974
O57	O	-0.949710	-1.078004	0.554892
O58	O	-0.449710	-0.578004	1.054892
C59	C	-0.737907	-1.125504	0.512038
C60	C	-0.237907	-0.625504	1.012038
C61	C	-0.714601	-1.181409	0.461573
C62	C	-0.214601	-0.681409	0.961573
C63	C	-0.714905	-1.293218	0.360630
C64	C	-0.214905	-0.793218	0.860630
C65	C	-0.667989	-1.293209	0.360651
C66	C	-0.167989	-0.793209	0.860651
C67	C	-0.644380	-1.237300	0.411133
C68	C	-0.144380	-0.737300	0.911133
C69	C	-0.667686	-1.181400	0.461594
C70	C	-0.167686	-0.681400	0.961594
C71	C	-0.714295	-1.069586	0.562517
C72	C	-0.214295	-0.569586	1.062517
C73	C	-0.667374	-1.069577	0.562527
C74	C	-0.167374	-0.569577	1.062527
C75	C	-0.644068	-1.125482	0.512062
C76	C	-0.144068	-0.625482	1.012062
C77	C	-0.597161	-1.125483	0.512098
C78	C	-0.097161	-0.625483	1.012098
N79	N	-0.573853	-1.181379	0.461630
N80	N	-0.073853	-0.681379	0.961630
C81	C	-0.597462	-1.237288	0.411148
C82	C	-0.097462	-0.737288	0.911148
C83	C	-1.024109	-1.125582	0.511938
C84	C	-0.524109	-0.625582	1.011938
C85	C	-1.071027	-1.125595	0.511924
C86	C	-0.571027	-0.625595	1.011924
C87	C	-1.071328	-1.237405	0.410970
C88	C	-0.571328	-0.737405	0.910970
C89	C	-1.024409	-1.237396	0.410990
C90	C	-0.524409	-0.737396	0.910990
C91	C	-1.000801	-1.181478	0.461471
C92	C	-0.500801	-0.681478	0.961471
C93	C	-0.498937	-1.237266	0.411197
C94	C	0.001063	-0.737266	0.911197
C95	C	-0.452018	-1.237254	0.411225
C96	C	0.047982	-0.737254	0.911225
C97	C	-0.451721	-1.125442	0.512174
C98	C	0.048279	-0.625442	1.012174
C99	C	-0.498636	-1.125455	0.512150
C100	C	0.001364	-0.625455	1.012150
C101	C	-0.522243	-1.181371	0.461654
C102	C	-0.022243	-0.681371	0.961654
O103	O	-0.572733	-1.077977	0.555028
O104	O	-0.072733	-0.577977	1.055028
O105	O	-0.573322	-1.284816	0.368223
O106	O	-0.073322	-0.784816	0.868223
C107	C	-0.785126	-1.237327	0.411070
C108	C	-0.285126	-0.737327	0.911070
C109	C	-0.808431	-1.181427	0.461531
C110	C	-0.308431	-0.681427	0.961531
C111	C	-0.784822	-1.125518	0.512013
C112	C	-0.284822	-0.625518	1.012013
C113	C	-0.855349	-1.181439	0.461516
C114	C	-0.355349	-0.681439	0.961516
C115	C	-0.878958	-1.237348	0.411034
C116	C	-0.378958	-0.737348	0.911034
C117	C	-0.855650	-1.293244	0.360567
C118	C	-0.355650	-0.793244	0.860567
C119	C	-0.808735	-1.293236	0.360588
C120	C	-0.308735	-0.793236	0.860588
C121	C	-0.808130	-1.069622	0.562481
C122	C	-0.308130	-0.569622	1.062481
C123	C	-0.855046	-1.069636	0.562456
C124	C	-0.355046	-0.569636	1.062456
C125	C	-0.878655	-1.125544	0.511974
C126	C	-0.378655	-0.625544	1.011974
C127	C	-0.144572	-1.181341	0.461665
C128	C	0.355428	-0.681341	0.961665
C129	C	-0.094636	-1.181504	0.461441
C130	C	0.405364	-0.681504	0.961441
C131	C	-0.267528	-1.398205	0.472748
C132	C	0.232472	-0.898205	0.972748
C133	C	-0.270185	-1.490632	0.477450
C134	C	0.229815	-0.990632	0.977450
C135	C	-0.247616	-0.703610	0.437480
C136	C	0.252384	-0.203610	0.937480
C137	C	-0.275009	-0.659853	0.486013
C138	C	0.224991	-0.159853	0.986013
C139	C	-0.272324	-0.565690	0.481247
C140	C	0.227676	-0.065690	0.981247
C141	C	-0.250300	-0.797782	0.442245
C142	C	0.249700	-0.297782	0.942245
C143	C	-0.255703	-1.192425	0.244824
C144	C	0.244297	-0.692425	0.744824
C145	C	-0.253320	-1.197161	0.152397
C146	C	0.246680	-0.697161	0.652397
C147	C	-0.273680	-1.157131	0.939430
C148	C	0.226320	-0.657131	1.439430
C149	C	-0.248922	-1.205643	0.983169
C150	C	0.251078	-0.705643	1.483169
C151	C	-0.251370	-1.200922	1.077336
C152	C	0.248630	-0.700922	1.577336
C153	C	-0.271233	-1.161851	0.845254
C154	C	0.228767	-0.661851	1.345254
H155	H	-0.433045	-1.282782	0.370130
H156	H	0.066955	-0.782782	0.870130
H157	H	-0.225887	-1.250720	0.949894
H158	H	0.274113	-0.750720	1.449894
H159	H	-1.004891	-1.080048	0.553051
H160	H	-0.504891	-0.580048	1.053051
O161	O	-0.301118	-1.103372	0.979248
O162	O	0.198882	-0.603372	1.479248
C163	C	-0.297486	-1.110579	1.065766
C164	C	0.202514	-0.610579	1.565766
H165	H	-0.263913	-1.137289	1.078912
H166	H	0.236087	-0.637289	1.578912
H167	H	-0.299554	-1.046660	1.095743
H168	H	0.200446	-0.546660	1.595743
H169	H	-0.326053	-1.153612	1.092605
H170	H	0.173947	-0.653612	1.592605
O171	O	-0.305414	-0.699616	0.539746
O172	O	0.194586	-0.199616	1.039746
C173	C	-0.334666	-0.752282	0.494984
C174	C	0.165334	-0.252282	0.994984
H175	H	-0.317612	-0.768404	0.432559
H176	H	0.182388	-0.268404	0.932559
H177	H	-0.343239	-0.811675	0.531908
H178	H	0.156761	-0.311675	1.031908
H179	H	-0.366800	-0.719356	0.484289
H180	H	0.133200	-0.219356	0.984289
O181	O	-0.645332	-1.347573	0.311734
O182	O	-0.145332	-0.847573	0.811734
C183	C	-0.620942	-1.398848	0.361786
C184	C	-0.120942	-0.898848	0.861786
H185	H	-0.636919	-1.400666	0.427538
H186	H	-0.136919	-0.900666	0.927538
H187	H	-0.621464	-1.464371	0.334937
H188	H	-0.121464	-0.964371	0.834937
H189	H	-0.584722	-1.372969	0.363357
H190	H	-0.084722	-0.872969	0.863357
H191	H	-0.222149	-0.670355	0.392355
H192	H	0.277851	-0.170355	0.892355
H193	H	-0.518152	-1.282794	0.370075
H194	H	-0.018152	-0.782794	0.870075
H195	H	-1.090559	-1.282929	0.369866
H196	H	-0.590559	-0.782929	0.869866
O197	O	-0.737767	-1.347614	0.311567
O198	O	-0.237767	-0.847614	0.811567
C199	C	-0.707125	-1.396927	0.267023
C200	C	-0.207125	-0.896927	0.767023
H201	H	-0.674646	-1.398036	0.301247
H202	H	-0.174646	-0.898036	0.801247
H203	H	-0.722326	-1.462908	0.261484
H204	H	-0.222326	-0.962908	0.761484
H205	H	-0.699627	-1.369715	0.202319
H206	H	-0.199627	-0.869715	0.702319
H207	H	-1.005437	-1.282917	0.369896
H208	H	-0.505437	-0.782917	0.869896
O209	O	-1.093593	-1.071215	0.560975
O210	O	-0.593593	-0.571215	1.060975
C211	C	-1.062688	-1.021883	0.605545
C212	C	-0.562688	-0.521883	1.105545
H213	H	-1.028281	-1.020747	0.571345
H214	H	-0.528281	-0.520747	1.071345
H215	H	-1.074588	-0.955913	0.611079
H216	H	-0.574588	-0.455913	1.111079
H217	H	-1.060206	-1.049097	0.670250
H218	H	-0.560206	-0.549097	1.170250
H219	H	-0.733262	-1.024061	0.603611
H220	H	-0.233262	-0.524061	1.103611
H221	H	-0.648153	-1.024033	0.603626
H222	H	-0.148153	-0.524033	1.103626
H223	H	-0.432490	-1.079924	0.553278
H224	H	0.067510	-0.579924	1.053278
O225	O	-0.521235	-1.071191	0.561290
O226	O	-0.021235	-0.571191	1.061290
C227	C	-0.512452	-1.085127	0.645102
C228	C	-0.012452	-0.585127	1.145102
H229	H	-0.479352	-1.117001	0.648474
H230	H	0.020648	-0.617001	1.148474
H231	H	-0.510088	-1.023201	0.679334
H232	H	-0.010088	-0.523201	1.179334
H233	H	-0.540815	-1.126446	0.675269
H234	H	-0.040815	-0.626446	1.175269
O235	O	-0.786167	-1.347569	0.311485
O236	O	-0.286167	-0.847569	0.811485
C237	C	-0.817075	-1.396924	0.266945
C238	C	-0.317075	-0.896924	0.766945
H239	H	-0.849464	-1.363012	0.262330
H240	H	-0.349464	-0.863012	0.762330
H241	H	-0.802084	-1.409150	0.201881
H242	H	-0.302084	-0.909150	0.701881
H243	H	-0.824669	-1.458520	0.300607
H244	H	-0.324669	-0.958520	0.800607
H245	H	-0.874017	-1.024112	0.603559
H246	H	-0.374017	-0.524112	1.103559
O247	O	-0.878603	-1.347439	0.311430
O248	O	-0.378603	-0.847439	0.811430
C249	C	-0.902998	-1.302842	0.255325
C250	C	-0.402998	-0.802842	0.755325
H251	H	-0.886840	-1.237612	0.246867
H252	H	-0.386840	-0.737612	0.746867
H253	H	-0.902743	-1.336190	0.192857
H254	H	-0.402743	-0.836190	0.692857
H255	H	-0.939138	-1.298660	0.280880
H256	H	-0.439138	-0.798660	0.780880
O257	O	-0.785271	-1.015278	0.611598
O258	O	-0.285271	-0.515278	1.111598
C259	C	-0.815908	-0.965934	0.656114
C260	C	-0.315908	-0.465934	1.156114
H261	H	-0.850404	-0.999861	0.660704
H262	H	-0.350404	-0.499861	1.160704
H263	H	-0.803798	-0.953702	0.721188
H264	H	-0.303798	-0.453702	1.221188
H265	H	-0.818296	-0.904342	0.622447
H266	H	-0.318296	-0.404342	1.122447
