data_functionalizedCrystal
_audit_creation_method	'MofGen! by Chris Wilmer'
_symmetry_space_group_name_H-M	'P1'
_symmetry_Int_Tables_number	1
_symmetry_cell_setting	triclinic
loop_
_symmetry_equiv_pos_as_xyz
  x,y,z
_cell_length_a	12.594516
_cell_length_b	12.759401
_cell_length_c	12.759393
_cell_angle_alpha	90.020011
_cell_angle_beta	89.970876
_cell_angle_gamma	89.987869
loop_
_atom_site_label
_atom_site_type_symbol
_atom_site_fract_x
_atom_site_fract_y
_atom_site_fract_z
Zn1	Zn	-0.423791	-1.606246	-0.594042
Zn2	Zn	0.076209	-1.106246	-0.094042
Zn3	Zn	-0.601810	-1.606136	-0.418369
Zn4	Zn	-0.101810	-1.106136	0.081631
Zn5	Zn	-0.423834	-1.430547	-0.418376
Zn6	Zn	0.076166	-0.930547	0.081624
Zn7	Zn	-0.601715	-1.430532	-0.594006
Zn8	Zn	-0.101715	-0.930532	-0.094006
O9	O	-0.512787	-1.518365	-0.506198
O10	O	-0.012787	-1.018365	-0.006198
O11	O	-0.447427	-1.753252	-0.570750
O12	O	0.052573	-1.253252	-0.070750
O13	O	-0.578259	-1.582804	-0.271349
O14	O	-0.078259	-1.082804	0.228651
O15	O	-0.274882	-1.453907	-0.441697
O16	O	0.225118	-0.953907	0.058303
O17	O	-0.578217	-1.753171	-0.441684
O18	O	-0.078217	-1.253171	0.058316
O19	O	-0.274851	-1.582991	-0.570757
O20	O	0.225149	-1.082991	-0.070757
O21	O	-0.447500	-1.453800	-0.271354
O22	O	0.052500	-0.953800	0.228646
O23	O	-0.447409	-1.283524	-0.441662
O24	O	0.052591	-0.783524	0.058338
O25	O	-0.578056	-1.453880	-0.741032
O26	O	-0.078056	-0.953880	-0.241032
O27	O	-0.578097	-1.283513	-0.570696
O28	O	-0.078097	-0.783513	-0.070696
O29	O	-0.447335	-1.582976	-0.741058
O30	O	0.052665	-1.082976	-0.241058
O31	O	-0.750743	-1.582789	-0.441650
O32	O	-0.250743	-1.082789	0.058350
O33	O	-0.750674	-1.453774	-0.570690
O34	O	-0.250674	-0.953774	-0.070690
C35	C	-0.512748	-1.245398	-0.506177
C36	C	-0.012748	-0.745398	-0.006177
C37	C	-0.512757	-1.128621	-0.506193
C38	C	-0.012757	-0.628621	-0.006193
C39	C	-0.444780	-1.073794	-0.573500
C40	C	0.055220	-0.573794	-0.073500
C41	C	-0.444795	-0.964070	-0.573504
C42	C	0.055205	-0.464070	-0.073504
C43	C	-0.580772	-0.964010	-0.438890
C44	C	-0.080772	-0.464010	0.061110
C45	C	-0.580751	-1.073732	-0.438882
C46	C	-0.080751	-0.573732	0.061118
C47	C	-0.376786	-1.128684	-0.640811
C48	C	0.123214	-0.628684	-0.140811
C49	C	-0.308804	-1.073857	-0.708124
C50	C	0.191196	-0.573857	-0.208124
C51	C	-0.308819	-0.964132	-0.708128
C52	C	0.191181	-0.464132	-0.208128
C53	C	-0.376815	-0.909235	-0.640818
C54	C	0.123185	-0.409235	-0.140818
C55	C	-0.789328	-1.518296	-0.506188
C56	C	-0.289328	-1.018296	-0.006188
C57	C	-0.907634	-1.518363	-0.506219
C58	C	-0.407634	-1.018363	-0.006219
C59	C	-0.976888	-1.448185	-0.576354
C60	C	-0.476888	-0.948185	-0.076354
C61	C	-1.047756	-1.422585	-0.480487
C62	C	-0.547756	-0.922585	0.019513
C63	C	-1.047564	-1.544058	-0.602102
C64	C	-0.547564	-1.044058	-0.102102
C65	C	-0.976944	-1.492713	-0.410301
C66	C	-0.476944	-0.992713	0.089699
C67	C	-0.976746	-1.614230	-0.531981
C68	C	-0.476746	-1.114230	-0.031981
C69	C	-1.047582	-1.588667	-0.436048
C70	C	-0.547582	-1.088667	0.063952
C71	C	-0.235167	-1.518463	-0.506232
C72	C	0.264833	-1.018463	-0.006232
C73	C	-0.116861	-1.518505	-0.506246
C74	C	0.383139	-1.018505	-0.006246
C75	C	-0.512680	-1.518439	-0.780232
C76	C	-0.012680	-1.018439	-0.280232
C77	C	-0.512634	-1.518470	-0.897008
C78	C	-0.012634	-1.018470	-0.397008
C79	C	-0.512815	-0.792398	-0.506214
C80	C	-0.012815	-0.292398	-0.006214
C81	C	-0.512792	-0.909175	-0.506205
C82	C	-0.012792	-0.409175	-0.006205
C83	C	-0.444562	-1.585700	-0.951886
C84	C	0.055438	-1.085700	-0.451886
C85	C	-0.444523	-1.585725	-1.061610
C86	C	0.055477	-1.085725	-0.561610
C87	C	-0.580639	-1.451288	-1.061570
C88	C	-0.080639	-0.951288	-0.561570
C89	C	-0.580672	-1.451258	-0.951848
C90	C	-0.080672	-0.951258	-0.451848
C91	C	-0.376524	-1.652912	-0.897047
C92	C	0.123476	-1.152912	-0.397047
C93	C	-0.308447	-1.720147	-0.951924
C94	C	0.191553	-1.220147	-0.451924
C95	C	-0.308409	-1.720172	-1.061648
C96	C	0.191591	-1.220172	-0.561648
C97	C	-0.376448	-1.652962	-1.116495
C98	C	0.123552	-1.152962	-0.616495
C99	C	-0.512818	-1.518352	-0.233231
C100	C	-0.012818	-1.018352	0.266769
C101	C	-0.512564	-1.518525	-0.116455
C102	C	-0.012564	-1.018525	0.383545
H103	H	-0.376799	-0.819891	-0.640805
H104	H	0.123201	-0.319891	-0.140805
H105	H	-0.945534	-1.695219	-0.553795
H106	H	-0.445534	-1.195219	-0.053795
H107	H	-0.253046	-1.774861	-0.907261
H108	H	0.246954	-1.274861	-0.407261
H109	H	-0.252969	-1.774911	-1.106327
H110	H	0.247031	-1.274911	-0.606327
H111	H	-0.253438	-1.118561	-0.762919
H112	H	0.246562	-0.618561	-0.262919
H113	H	-0.376398	-1.652975	-1.205840
H114	H	0.123602	-1.152975	-0.705840
H115	H	-0.946051	-1.470943	-0.329202
H116	H	-0.446051	-0.970943	0.170798
H117	H	-0.636033	-1.396567	-1.106235
H118	H	-0.136033	-0.896567	-0.606235
H119	H	-0.636133	-0.919304	-0.384092
H120	H	-0.136133	-0.419304	0.115908
H121	H	-0.945846	-1.388731	-0.635579
H122	H	-0.445846	-0.888731	-0.135579
H123	H	-0.636086	-1.396498	-0.907165
H124	H	-0.136086	-0.896498	-0.407165
H125	H	-1.078427	-1.648075	-0.376680
H126	H	-0.578427	-1.148075	0.123320
H127	H	-0.376766	-1.218026	-0.640815
H128	H	0.123234	-0.718026	-0.140815
H129	H	-1.078971	-1.341578	-0.458719
H130	H	-0.578971	-0.841578	0.041281
H131	H	-1.078585	-1.565734	-0.683179
H132	H	-0.578585	-1.065734	-0.183179
H133	H	-0.376550	-1.652901	-0.807704
H134	H	0.123450	-1.152901	-0.307704
H135	H	-0.253458	-0.919495	-0.762930
H136	H	0.246542	-0.419495	-0.262930
H137	H	-0.636104	-1.118373	-0.384074
H138	H	-0.136104	-0.618373	0.115926
