data_functionalizedCrystal
_audit_creation_method	'MofGen! by Chris Wilmer'
_symmetry_space_group_name_H-M	'P1'
_symmetry_Int_Tables_number	1
_symmetry_cell_setting	triclinic
loop_
_symmetry_equiv_pos_as_xyz
  x,y,z
_cell_length_a	14.908783
_cell_length_b	12.645330
_cell_length_c	14.908308
_cell_angle_alpha	93.270481
_cell_angle_beta	89.788727
_cell_angle_gamma	93.308814
loop_
_atom_site_label
_atom_site_type_symbol
_atom_site_fract_x
_atom_site_fract_y
_atom_site_fract_z
Zn1	Zn	1.345328	-0.370782	-0.587852
Zn2	Zn	1.353915	-0.537296	-0.437502
Zn3	Zn	1.203642	-0.369635	-0.428823
Zn4	Zn	1.194941	-0.557596	-0.579125
O5	O	1.274457	-0.458827	-0.508326
O6	O	1.472295	-0.384855	-0.575192
O7	O	1.341216	-0.506080	-0.310527
O8	O	1.222484	-0.221438	-0.449939
O9	O	1.478604	-0.507193	-0.464731
O10	O	1.326581	-0.222281	-0.566777
O11	O	1.230810	-0.382900	-0.304151
O12	O	1.076660	-0.402584	-0.441477
O13	O	1.207656	-0.541790	-0.706106
O14	O	1.070268	-0.540678	-0.551903
O15	O	1.318145	-0.404539	-0.712518
O16	O	1.332779	-0.688338	-0.456269
O17	O	1.215982	-0.703252	-0.560318
C18	C	1.040838	-0.473710	-0.494802
C19	C	0.940894	-0.480104	-0.489037
C20	C	0.746507	-0.364927	-0.593405
C21	C	0.652601	-0.370931	-0.587991
C22	C	0.659173	-0.498110	-0.472794
C23	C	0.753079	-0.492105	-0.478207
C24	C	0.796743	-0.425513	-0.538515
C25	C	0.890651	-0.419515	-0.543932
C26	C	0.897222	-0.546688	-0.428731
C27	C	0.803315	-0.552692	-0.423318
C28	C	1.274392	-0.734260	-0.508309
C29	C	1.274444	-0.852089	-0.508337
C30	C	1.201241	-1.029076	-0.574026
C31	C	1.200900	-0.906523	-0.573781
C32	C	1.254266	-0.891525	-0.412097
C33	C	1.253819	-1.014181	-0.412496
C34	C	1.368294	-1.014844	-0.538145
C35	C	1.367591	-0.892422	-0.540183
C36	C	1.508987	-0.443888	-0.521903
C37	C	1.608930	-0.437521	-0.527689
C38	C	1.260972	-0.475557	-0.742849
C39	C	1.255226	-0.482686	-0.842789
C40	C	1.274545	-0.182319	-0.508363
C41	C	1.274583	-0.064487	-0.508379
C42	C	1.359477	-0.353138	-1.037265
C43	C	1.354080	-0.359833	-1.131168
C44	C	1.239032	-0.502764	-1.124499
C45	C	1.244429	-0.496069	-1.030596
C46	C	1.304654	-0.421255	-0.986983
C47	C	1.310054	-0.414566	-0.893079
C48	C	1.195002	-0.557492	-0.886411
C49	C	1.189606	-0.564186	-0.980314
C50	C	1.287941	-0.442083	-0.274717
C51	C	1.293861	-0.434644	-0.174788
H52	H	0.926201	-0.365293	-0.593039
C53	C	0.597344	-0.304284	-0.648377
N54	N	0.555725	-0.254084	-0.693862
H55	H	0.623606	-0.552313	-0.423684
H56	H	0.782059	-0.310709	-0.642514
C57	C	0.755274	-0.625941	-0.356983
N58	N	0.719091	-0.681116	-0.307020
H59	H	1.359094	-0.353650	-0.857570
H60	H	0.938134	-0.596030	-0.384043
C61	C	1.414392	-0.284901	-1.186475
N62	N	1.459822	-0.228460	-1.228133
C63	C	1.217096	-0.871207	-0.669956
N64	N	1.229291	-0.844612	-0.742400
H65	H	1.213072	-1.062528	-0.645437
C66	C	1.134694	-0.632426	-0.831093
N67	N	1.089272	-0.688867	-0.789426
H68	H	1.132086	-1.063309	-0.554103
H69	H	1.131317	-0.880634	-0.553628
C70	C	1.161492	-1.056946	-0.379299
N71	N	1.091947	-1.089151	-0.354298
H72	H	1.140571	-0.625096	-1.015836
C73	C	1.172768	-0.585028	-1.172489
N74	N	1.122851	-0.646983	-1.208635
H75	H	1.408519	-0.292226	-1.001755
C76	C	1.323244	-1.044888	-0.343757
N77	N	1.375529	-1.068013	-0.291979
H78	H	1.186671	-0.863803	-0.387190
C79	C	1.324464	-0.842749	-0.343884
N80	N	1.377338	-0.806006	-0.292506
H81	H	1.387771	-1.049065	-0.607419
C82	C	1.388308	-0.858082	-0.635887
N83	N	1.403916	-0.832195	-0.707965
C84	C	1.442022	-1.044646	-0.473646
N85	N	1.497548	-1.067102	-0.425064
C86	C	1.444708	-0.841778	-0.480880
N87	N	1.502792	-0.803633	-0.436205
