data_functionalizedCrystal
_audit_creation_method	'MofGen! by Chris Wilmer'
_symmetry_space_group_name_H-M	'P1'
_symmetry_Int_Tables_number	1
_symmetry_cell_setting	triclinic
loop_
_symmetry_equiv_pos_as_xyz
  x,y,z
_cell_length_a	8.497374
_cell_length_b	8.497374
_cell_length_c	16.959455
_cell_angle_alpha	90.001960
_cell_angle_beta	90.002432
_cell_angle_gamma	90.005237
loop_
_atom_site_label
_atom_site_type_symbol
_atom_site_fract_x
_atom_site_fract_y
_atom_site_fract_z
Zn1	Zn	0.892136	0.628458	1.208395
Zn2	Zn	0.628402	0.892204	1.208389
Zn3	Zn	0.628360	0.628417	1.076251
Zn4	Zn	0.892130	0.892176	1.076232
O5	O	0.760257	0.760314	1.142317
O6	O	0.857171	0.663473	1.319005
O7	O	0.407634	0.857207	1.190866
O8	O	0.663336	0.407660	1.093791
O9	O	0.663407	0.857246	1.319001
O10	O	0.857131	0.407690	1.190877
O11	O	0.407603	0.663404	1.093785
O12	O	0.663330	0.663377	0.965638
O13	O	1.112893	0.857198	1.093759
O14	O	0.857120	0.857159	0.965624
O15	O	1.112898	0.663446	1.190858
O16	O	0.663401	1.112962	1.190848
O17	O	0.857161	1.112942	1.093753
C18	C	0.760221	0.760262	0.936951
C19	C	0.760243	0.760277	0.849094
C20	C	1.171737	0.760316	1.142311
C21	C	1.350381	0.760333	1.142313
C22	C	0.760280	1.170194	1.142307
C23	C	0.760254	1.348838	1.142328
C24	C	0.659561	0.659329	0.477601
C25	C	0.861043	0.861429	0.477636
C26	C	0.861034	0.861406	0.560182
C27	C	0.760284	0.760345	0.601441
C28	C	0.659545	0.659306	0.560155
C29	C	0.961760	0.962454	0.601474
C30	C	0.961753	0.962437	0.684025
C31	C	0.861011	0.861366	0.725286
C32	C	0.760268	0.760322	0.683995
C33	C	0.659519	0.659261	0.725254
C34	C	0.558783	0.558208	0.683964
C35	C	0.558802	0.558236	0.601416
C36	C	0.860992	0.861339	0.807834
C37	C	0.659503	0.659239	0.807808
C38	C	0.760294	0.760367	1.348485
C39	C	0.760310	0.760390	1.436342
H40	H	0.577469	0.576932	0.841396
H41	H	0.476787	0.475966	0.567790
H42	H	1.043773	1.044743	0.567874
H43	H	1.043779	1.044719	0.717636
C44	C	0.549938	0.549711	0.432878
C45	C	0.393796	0.583784	0.452963
C46	C	0.292769	0.482823	0.411787
H47	H	0.564160	0.564089	0.377793
H48	H	0.573088	0.443722	0.446420
H49	H	0.370654	0.689747	0.439416
H50	H	0.379524	0.569397	0.508041
H51	H	0.315919	0.376834	0.425329
H52	H	0.307006	0.497209	0.356704
H53	H	0.186818	0.505918	0.425414
C54	C	0.970687	0.971039	0.432938
C55	C	1.126817	0.936933	0.453038
C56	C	1.227874	1.037882	0.411881
H57	H	0.956477	0.956673	0.377851
H58	H	0.947554	1.077030	0.446486
H59	H	1.149942	0.830968	0.439485
H60	H	1.141077	0.951308	0.508118
H61	H	1.204740	1.143872	0.425428
H62	H	1.213650	1.023508	0.356795
H63	H	1.333818	1.014764	0.425518
C64	C	0.970612	0.970843	0.852623
C65	C	1.126758	0.936727	0.832564
C66	C	1.227792	1.037559	0.873815
H67	H	0.947573	1.076864	0.839139
H68	H	0.956284	0.956339	0.907703
H69	H	1.141079	0.951245	0.777496
H70	H	1.149847	0.830725	0.846050
H71	H	1.213464	1.023055	0.928894
H72	H	1.204738	1.143575	0.860327
H73	H	1.333748	1.014416	0.860216
C74	C	0.449570	0.448549	0.728908
C75	C	0.471147	0.470149	0.810036
C76	C	0.370586	0.369149	0.851465
H77	H	0.343476	0.471366	0.715469
H78	H	0.472837	0.342555	0.715425
H79	H	0.447870	0.576119	0.823513
H80	H	0.577220	0.447321	0.823498
H81	H	0.393852	0.263154	0.837983
H82	H	0.264498	0.391974	0.838020
H83	H	0.385222	0.383780	0.906515
