data_functionalizedCrystal
_audit_creation_method	'MofGen! by Chris Wilmer'
_symmetry_space_group_name_H-M	'P1'
_symmetry_Int_Tables_number	1
_symmetry_cell_setting	triclinic
loop_
_symmetry_equiv_pos_as_xyz
  x,y,z
_cell_length_a	19.288859
_cell_length_b	19.288865
_cell_length_c	11.892113
_cell_angle_alpha	94.384913
_cell_angle_beta	85.619337
_cell_angle_gamma	96.865014
loop_
_atom_site_label
_atom_site_type_symbol
_atom_site_fract_x
_atom_site_fract_y
_atom_site_fract_z
O1	O	0.925302	-0.090578	-0.094040
O2	O	1.425302	0.409422	0.405960
O3	O	0.723041	-0.102271	-0.094039
O4	O	1.223041	0.397729	0.405961
O5	O	0.830015	0.004707	-0.094017
O6	O	1.330015	0.504707	0.405983
O7	O	0.818328	-0.197556	-0.094062
O8	O	1.318328	0.302444	0.405938
O9	O	0.822107	0.012608	0.093992
O10	O	1.322107	0.512608	0.593992
O11	O	0.715133	-0.094370	0.093970
O12	O	1.215133	0.405630	0.593970
O13	O	0.917394	-0.082676	0.093970
O14	O	1.417394	0.417324	0.593970
Zn15	Zn	0.815008	-0.087269	0.123821
Zn16	Zn	1.315008	0.412731	0.623821
Zn17	Zn	0.825427	-0.097679	-0.123890
Zn18	Zn	1.325427	0.402321	0.376110
O19	O	0.810420	-0.189654	0.093948
O20	O	1.310420	0.310346	0.593948
C21	C	0.693210	-0.097945	-0.000034
C22	C	1.193210	0.402055	0.499966
C23	C	0.616106	-0.096817	-0.000032
C24	C	1.116106	0.403183	0.499968
C25	C	0.052066	-0.151961	-0.000046
C26	C	0.552066	0.348039	0.499954
C27	C	0.124513	-0.153027	-0.000052
C28	C	0.624513	0.346973	0.499948
C29	C	0.169219	-0.090257	-0.000036
C30	C	0.669219	0.409743	0.499964
C31	C	0.141474	-0.026418	-0.000043
C32	C	0.641474	0.473582	0.499957
C33	C	0.069029	-0.025355	-0.000048
C34	C	0.569029	0.474645	0.499952
C35	C	0.287718	-0.040675	0.065846
C36	C	0.787718	0.459325	0.565846
C37	C	0.360161	-0.041741	0.065858
C38	C	0.860161	0.458259	0.565858
C39	C	0.392664	-0.093534	-0.000026
C40	C	0.892664	0.406466	0.499974
C41	C	0.352713	-0.144273	-0.065907
C42	C	0.852713	0.355727	0.434093
C43	C	0.280268	-0.143209	-0.065912
C44	C	0.780268	0.356791	0.434088
C45	C	0.247774	-0.091403	-0.000032
C46	C	0.747774	0.408597	0.499968
C47	C	0.498956	-0.158525	-0.000033
C48	C	0.998956	0.341475	0.499967
C49	C	0.571405	-0.159588	-0.000047
C50	C	1.071405	0.340412	0.499953
C51	C	0.588365	-0.032977	-0.000026
C52	C	1.088365	0.467023	0.499974
C53	C	0.515918	-0.031916	-0.000024
C54	C	1.015918	0.468084	0.499976
C55	C	0.471217	-0.094692	-0.000023
C56	C	0.971217	0.405308	0.499977
C57	C	0.825684	0.034534	-0.000009
C58	C	1.325684	0.534534	0.499991
C59	C	0.824555	0.111638	0.000001
C60	C	1.324555	0.611638	0.500001
C61	C	0.947224	-0.087003	-0.000038
C62	C	1.447224	0.412997	0.499962
C63	C	1.024329	-0.088130	-0.000047
C64	C	1.524329	0.411870	0.499953
N65	N	0.807902	-0.080163	0.292876
N66	N	1.307902	0.419837	0.792876
C67	C	0.814750	-0.219482	-0.000063
C68	C	1.314750	0.280518	0.499937
C69	C	0.815880	-0.296586	-0.000080
C70	C	1.315880	0.203414	0.499920
C71	C	0.887323	0.156336	0.000006
C72	C	1.387323	0.656336	0.500006
C73	C	0.886263	0.228782	-0.000012
C74	C	1.386263	0.728782	0.499988
C75	C	0.822431	0.256529	-0.000012
C76	C	1.322431	0.756529	0.499988
C77	C	0.759655	0.211821	-0.000024
C78	C	1.259655	0.711821	0.499976
C79	C	0.760717	0.139375	-0.000017
C80	C	1.260717	0.639375	0.499983
C81	C	0.769481	0.367583	0.065844
C82	C	1.269481	0.867583	0.565844
C83	C	0.768421	0.440027	0.065844
C84	C	1.268421	0.940027	0.565844
C85	C	0.819152	0.479973	-0.000037
C86	C	1.319152	0.979973	0.499963
C87	C	0.870954	0.447468	-0.065905
C88	C	1.370954	0.947468	0.434095
C89	C	0.872016	0.375023	-0.065898
C90	C	1.372016	0.875023	0.434102
C91	C	0.821272	0.335082	-0.000020
C92	C	1.321272	0.835082	0.499980
C93	C	0.880775	0.603226	-0.000053
C94	C	1.380775	1.103226	0.499947
C95	C	0.879713	0.675673	-0.000078
C96	C	1.379713	1.175673	0.499922
C97	C	0.753102	0.658710	-0.000079
C98	C	1.253102	1.158710	0.499921
C99	C	0.754167	0.586264	-0.000065
C100	C	1.254167	1.086264	0.499935
C101	C	0.818005	0.558527	-0.000047
C102	C	1.318005	1.058527	0.499953
N103	N	0.832538	-0.104779	-0.292945
N104	N	1.332538	0.395221	0.207055
C105	C	0.881976	-0.154255	0.529507
C106	C	1.381976	0.345745	1.029507
C107	C	0.877014	-0.149282	0.647850
C108	C	1.377014	0.350718	1.147850
C109	C	0.793022	-0.065243	0.647907
C110	C	1.293022	0.434757	1.147907
C111	C	0.797983	-0.070215	0.529564
C112	C	1.297983	0.429785	1.029564
C113	C	0.842461	-0.114723	0.470369
C114	C	1.342461	0.385277	0.970369
C115	C	0.847418	-0.119699	0.352023
C116	C	1.347418	0.380301	0.852023
C117	C	0.763430	-0.035656	0.352083
C118	C	1.263430	0.464344	0.852083
C119	C	0.758469	-0.030684	0.470426
C120	C	1.258469	0.469316	0.970426
H121	H	0.493334	0.020063	-0.000018
H122	H	0.993334	0.520063	0.499982
H123	H	0.756818	-0.028999	0.696125
H124	H	1.256818	0.471001	1.196125
O125	O	0.690806	0.241742	-0.000024
O126	O	1.190806	0.741742	0.499976
H127	H	0.657430	0.226992	0.076600
H128	H	1.157430	0.726992	0.576600
O129	O	0.949625	0.573299	-0.000056
O130	O	1.449625	1.073299	0.499944
H131	H	0.993096	0.616555	-0.000077
H132	H	1.493096	1.116555	0.499923
H133	H	0.909192	-0.181472	0.695997
H134	H	1.409192	0.318528	1.195997
O135	O	0.710494	0.017316	0.534273
O136	O	1.210494	0.517316	1.034273
H137	H	0.713678	0.014130	0.626500
H138	H	1.213678	0.514130	1.126500
O139	O	0.039105	0.043495	-0.000030
O140	O	0.539105	0.543495	0.499970
H141	H	0.082359	0.086966	-0.000012
H142	H	0.582359	0.586966	0.499988
O143	O	0.450734	-0.226227	-0.000042
O144	O	0.950734	0.273773	0.499958
H145	H	0.463788	-0.260006	-0.076682
H146	H	0.963788	0.239994	0.423318
H147	H	0.918184	-0.190502	0.481309
H148	H	1.418184	0.309498	0.981309
O149	O	0.720814	0.006995	0.288301
O150	O	1.220814	0.506995	0.788301
H151	H	0.731739	-0.003933	0.196063
H152	H	1.231739	0.496067	0.696063
H153	H	0.015675	-0.203079	-0.000050
H154	H	0.515675	0.296921	0.499950
H155	H	0.147101	-0.205007	-0.000041
H156	H	0.647101	0.294993	0.499959
H157	H	0.703054	0.549870	-0.000063
H158	H	1.203054	1.049870	0.499937
H159	H	0.912264	0.479991	-0.119552
H160	H	1.412264	0.979991	0.380448
O161	O	0.636576	0.034727	-0.000000
O162	O	1.136576	0.534727	0.500000
H163	H	0.629968	0.062063	-0.076628
H164	H	1.129968	0.562063	0.423372
O165	O	0.237178	-0.197932	-0.136961
O166	O	0.737178	0.302068	0.363039
H167	H	0.255836	-0.194765	-0.227253
H168	H	0.755836	0.305235	0.272747
O169	O	0.387757	-0.200138	-0.136985
O170	O	0.887757	0.299862	0.363015
H171	H	0.444846	-0.192349	-0.125930
H172	H	0.944846	0.307651	0.374070
H173	H	0.930828	0.712066	-0.000080
H174	H	1.430828	1.212066	0.499920
H175	H	0.939305	0.133758	0.000017
H176	H	1.439305	0.633758	0.500017
O177	O	0.712554	0.475086	0.136885
O178	O	1.212554	0.975086	0.636885
H179	H	0.677448	0.435138	0.182681
H180	H	1.177448	0.935138	0.682681
O181	O	0.403249	0.012974	0.136924
O182	O	0.903249	0.512974	0.636924
H183	H	0.368480	0.049174	0.182724
H184	H	0.868480	0.549174	0.682724
O185	O	0.714764	0.324499	0.136912
O186	O	1.214764	0.824499	0.636912
H187	H	0.678574	0.359273	0.182726
H188	H	1.178574	0.859273	0.682726
O189	O	0.953964	0.277007	0.000009
O190	O	1.453964	0.777007	0.500009
H191	H	0.998531	0.245549	0.000032
H192	H	1.498531	0.745549	0.500032
H193	H	0.593987	-0.211569	-0.000056
H194	H	1.093987	0.288431	0.499944
O195	O	0.927874	0.339958	-0.136952
O196	O	1.427874	0.839958	0.363048
H197	H	0.962970	0.379899	-0.182777
H198	H	1.462970	0.879899	0.317223
H199	H	0.261261	0.001505	0.119499
H200	H	0.761261	0.501505	0.619499
O201	O	0.684251	0.688624	-0.000074
O202	O	1.184251	1.188624	0.499926
H203	H	0.694056	0.746510	-0.000070
H204	H	1.194056	1.246510	0.499930
O205	O	0.693010	0.091165	-0.000007
O206	O	1.193010	0.591165	0.499993
H207	H	0.693684	0.054524	-0.076634
H208	H	1.193684	0.554524	0.423366
O209	O	0.189686	0.041287	-0.000014
O210	O	0.689686	0.541287	0.499986
H211	H	0.244722	0.029825	0.000005
H212	H	0.744722	0.529825	0.500005
O213	O	0.895389	-0.167700	0.288168
O214	O	1.395389	0.332300	0.788168
H215	H	0.922037	-0.194347	0.349179
H216	H	1.422037	0.305653	0.849179
