data_functionalizedCrystal
_audit_creation_method	'MofGen! by Chris Wilmer'
_symmetry_space_group_name_H-M	'P1'
_symmetry_Int_Tables_number	1
_symmetry_cell_setting	triclinic
loop_
_symmetry_equiv_pos_as_xyz
  x,y,z
_cell_length_a	14.908782
_cell_length_b	14.908520
_cell_length_c	12.759393
_cell_angle_alpha	93.263606
_cell_angle_beta	93.279066
_cell_angle_gamma	89.837842
loop_
_atom_site_label
_atom_site_type_symbol
_atom_site_fract_x
_atom_site_fract_y
_atom_site_fract_z
Zn1	Zn	1.353929	-0.437191	-0.532248
Zn2	Zn	1.345139	-0.587568	-0.367252
Zn3	Zn	1.203563	-0.428564	-0.366123
Zn4	Zn	1.194865	-0.578835	-0.552416
O5	O	1.274374	-0.508039	-0.454509
O6	O	1.478582	-0.464404	-0.502393
O7	O	1.326320	-0.566520	-0.220086
O8	O	1.230828	-0.303886	-0.379247
O9	O	1.472124	-0.574885	-0.381171
O10	O	1.341302	-0.310224	-0.501298
O11	O	1.222305	-0.449700	-0.219257
O12	O	1.076590	-0.441232	-0.398803
O13	O	1.216004	-0.560001	-0.696756
O14	O	1.070200	-0.551636	-0.535671
O15	O	1.332868	-0.455936	-0.681938
O16	O	1.317886	-0.712231	-0.400727
O17	O	1.207480	-0.705815	-0.536766
C18	C	1.040772	-0.494551	-0.469304
C19	C	0.940834	-0.488802	-0.475659
C20	C	0.746324	-0.592886	-0.361158
C21	C	0.652424	-0.587488	-0.367126
C22	C	0.659132	-0.472612	-0.493570
C23	C	0.753032	-0.478010	-0.487601
C24	C	0.796625	-0.538148	-0.421392
C25	C	0.890527	-0.543542	-0.415418
C26	C	0.897233	-0.428671	-0.541867
C27	C	0.803333	-0.423273	-0.547836
C28	C	1.260810	-0.741649	-0.471079
C29	C	1.255089	-0.841593	-0.478197
C30	C	1.359423	-1.036025	-0.350017
C31	C	1.354050	-1.129932	-0.356701
C32	C	1.238978	-1.123315	-0.498256
C33	C	1.244350	-1.029408	-0.491571
C34	C	1.304573	-0.985767	-0.417448
C35	C	1.309940	-0.891858	-0.410759
C36	C	1.194873	-0.885243	-0.552317
C37	C	1.189501	-0.979150	-0.559002
C38	C	1.508888	-0.521581	-0.439658
C39	C	1.608824	-0.527352	-0.433329
C40	C	1.274446	-0.507957	-0.728532
C41	C	1.274477	-0.507922	-0.845305
C42	C	1.288016	-0.273518	-0.437897
C43	C	1.293829	-0.173580	-0.430817
C44	C	1.335333	-0.453726	-0.892452
C45	C	1.335350	-0.453688	-1.002173
C46	C	1.213653	-0.562049	-1.017589
C47	C	1.213632	-0.562082	-0.907871
C48	C	1.274357	-0.508059	-0.181544
C49	C	1.274516	-0.507851	-0.064744
H50	H	0.767826	-0.374313	-0.601745
H51	H	1.398716	-1.170849	-0.301794
C52	C	1.123254	-1.027166	-0.640528
N53	N	1.073351	-1.063330	-0.701930
H54	H	0.938198	-0.384096	-0.590909
C55	C	1.134535	-0.829951	-0.626497
N56	N	1.089088	-0.788304	-0.682365
H57	H	1.384904	-0.409555	-1.040554
H58	H	1.164117	-0.606146	-1.068544
C59	C	1.402256	-0.394140	-0.823633
N60	N	1.452662	-0.349255	-0.771801
H61	H	1.358975	-0.856326	-0.350402
H62	H	0.781818	-0.641847	-0.307240
H63	H	1.189953	-1.158864	-0.558609
H64	H	1.408453	-1.000492	-0.289656
H65	H	0.623622	-0.423658	-0.547484
H66	H	1.164070	-0.606213	-0.869483
H67	H	0.611472	-0.632062	-0.318079
C68	C	0.938477	-0.609697	-0.342590
N69	N	0.974591	-0.659529	-0.287736
