data_functionalizedCrystal
_audit_creation_method	'MofGen! by Chris Wilmer'
_symmetry_space_group_name_H-M	'P1'
_symmetry_Int_Tables_number	1
_symmetry_cell_setting	triclinic
loop_
_symmetry_equiv_pos_as_xyz
  x,y,z
_cell_length_a	15.995350
_cell_length_b	16.109301
_cell_length_c	15.186229
_cell_angle_alpha	89.994833
_cell_angle_beta	90.000289
_cell_angle_gamma	83.476928
loop_
_atom_site_label
_atom_site_type_symbol
_atom_site_fract_x
_atom_site_fract_y
_atom_site_fract_z
O1	O	1.110955	0.107165	-0.073157
O2	O	1.610955	0.607165	0.426843
O3	O	0.867176	0.120399	-0.073175
O4	O	1.367176	0.620399	0.426825
O5	O	0.995762	-0.007247	-0.073157
O6	O	1.495762	0.492753	0.426843
O7	O	0.982369	0.234811	-0.073176
O8	O	1.482369	0.734811	0.426824
O9	O	0.995754	-0.007249	0.073301
O10	O	1.495754	0.492751	0.573301
O11	O	0.867168	0.120397	0.073282
O12	O	1.367168	0.620397	0.573282
O13	O	1.110946	0.107164	0.073300
O14	O	1.610946	0.607164	0.573300
Zn15	Zn	0.989056	0.113780	0.096544
Zn16	Zn	1.489056	0.613780	0.596544
Zn17	Zn	0.989067	0.113783	-0.096419
Zn18	Zn	1.489067	0.613783	0.403581
O19	O	0.982360	0.234810	0.073282
O20	O	1.482360	0.734810	0.573282
C21	C	0.995216	-0.038223	0.000072
C22	C	1.495216	0.461777	0.500072
C23	C	0.993589	-0.130519	0.000074
C24	C	1.493589	0.369481	0.500074
C25	C	0.835977	0.119851	0.000051
C26	C	1.335977	0.619851	0.500051
C27	C	0.743027	0.118211	0.000044
C28	C	1.243027	0.618211	0.500044
C29	C	1.066107	-0.352771	0.000065
C30	C	1.566107	0.147229	0.500065
C31	C	1.064573	-0.439492	0.000058
C32	C	1.564573	0.060508	0.500058
C33	C	0.912009	-0.419659	0.000050
C34	C	1.412009	0.080341	0.500050
C35	C	0.913545	-0.332940	0.000051
C36	C	1.413545	0.167060	0.500051
C37	C	0.990597	-0.299499	0.000063
C38	C	1.490597	0.200501	0.500063
C39	C	0.987526	-0.472939	0.000055
C40	C	1.487526	0.027061	0.500055
C41	C	0.985861	-0.566965	0.000047
C42	C	1.485861	-0.066965	0.500047
C43	C	0.992262	-0.205466	0.000069
C44	C	1.492262	0.294534	0.500069
C45	C	0.405281	0.112320	0.000063
C46	C	0.905281	0.612320	0.500063
C47	C	0.452740	0.021413	0.000397
C48	C	0.952740	0.521413	0.500397
C49	C	0.549430	0.023054	0.000061
C50	C	1.049430	0.523054	0.500061
C51	C	0.572841	0.115242	0.000054
C52	C	1.072841	0.615242	0.500054
C53	C	0.531747	0.160082	-0.083580
C54	C	1.031747	0.660082	0.416420
C55	C	0.435112	0.157798	-0.083644
C56	C	0.935112	0.657798	0.416356
C57	C	0.434762	0.159674	0.082906
C58	C	0.934762	0.659674	0.582906
C59	C	0.531708	0.159653	0.084005
C60	C	1.031708	0.659653	0.584005
C61	C	0.667538	0.116898	0.000046
C62	C	1.167538	0.616898	0.500046
C63	C	0.310584	0.110667	0.000065
C64	C	0.810584	0.610667	0.500065
C65	C	1.142145	0.107712	0.000072
C66	C	1.642145	0.607712	0.500072
C67	C	1.235095	0.109352	0.000073
C68	C	1.735095	0.609352	0.500073
C69	C	0.982907	0.265786	0.000051
C70	C	1.482907	0.765786	0.500051
C71	C	0.984534	0.358081	0.000044
C72	C	1.484534	0.858081	0.500044
N73	N	0.989054	0.113778	0.228237
N74	N	1.489054	0.613778	0.728237
N75	N	0.989075	0.113778	-0.228112
N76	N	1.489075	0.613778	0.271888
C77	C	1.046011	0.057275	0.453968
C78	C	1.546011	0.557275	0.953968
C79	C	1.046014	0.057273	0.546158
C80	C	1.546014	0.557273	1.046158
C81	C	0.932112	0.170283	0.546150
C82	C	1.432112	0.670283	1.046150
C83	C	0.932106	0.170281	0.453962
C84	C	1.432106	0.670281	0.953962
C85	C	0.989060	0.113778	0.407874
C86	C	1.489060	0.613778	0.907874
C87	C	0.989069	0.113778	0.592251
C88	C	1.489069	0.613778	1.092251
C89	C	0.989071	0.113777	0.692208
C90	C	1.489071	0.613777	1.192208
C91	C	0.989057	0.113778	0.307911
C92	C	1.489057	0.613778	0.807911
H93	H	1.128848	-0.325547	0.000073
H94	H	1.628848	0.174453	0.500073
O95	O	0.870698	0.231234	0.595866
O96	O	1.370698	0.731234	1.095866
H97	H	0.831093	0.270520	0.548323
H98	H	1.331093	0.770520	1.048323
H99	H	1.126061	-0.482864	0.000058
H100	H	1.626061	0.017136	0.500058
O101	O	1.107450	-0.003657	0.595878
O102	O	1.607450	0.496343	1.095878
H103	H	1.147056	-0.042938	0.548338
H104	H	1.647056	0.457062	1.048338
H105	H	0.852051	-0.289563	0.000046
H106	H	1.352051	0.210437	0.500046
H107	H	0.885725	0.216292	0.416430
H108	H	1.385725	0.716292	0.916430
O109	O	0.586353	-0.023942	-0.079488
O110	O	1.086353	0.476058	0.420512
H111	H	0.655621	-0.022940	-0.080001
H112	H	1.155621	0.477060	0.419999
H113	H	0.545853	0.227810	-0.086694
H114	H	1.045853	0.727810	0.413306
H115	H	0.849277	-0.446898	0.000041
H116	H	1.349277	0.053102	0.500041
O117	O	0.587105	-0.023622	0.079478
O118	O	1.087105	0.476378	0.579478
H119	H	0.536269	-0.047578	0.118469
H120	H	1.036269	0.452422	0.618469
H121	H	1.092386	0.011266	0.416445
H122	H	1.592386	0.511266	0.916445
H123	H	0.434225	-0.014925	0.060375
H124	H	0.934225	0.485075	0.560375
H125	H	0.433160	-0.014756	-0.059244
H126	H	0.933160	0.485244	0.440756
H127	H	0.416816	0.125101	-0.146158
H128	H	0.916816	0.625101	0.353842
H129	H	0.402845	0.224541	-0.087444
H130	H	0.902845	0.724541	0.412556
O131	O	0.392659	0.248453	0.083653
O132	O	0.892659	0.748453	0.583653
H133	H	0.441371	0.292294	0.081494
H134	H	0.941371	0.792294	0.581494
O135	O	0.569331	0.118826	-0.166026
O136	O	1.069331	0.618826	0.333974
H137	H	0.638127	0.122921	-0.166989
H138	H	1.138127	0.622921	0.333011
O139	O	0.407588	0.120301	0.166882
O140	O	0.907588	0.620301	0.666882
H141	H	0.372762	0.066536	0.150507
H142	H	0.872762	0.566536	0.650507
H143	H	0.559030	0.126920	0.145877
H144	H	1.059030	0.626920	0.645877
H145	H	0.547054	0.226879	0.089052
H146	H	1.047054	0.726879	0.589052
