data_functionalizedCrystal
_audit_creation_method	'MofGen! by Chris Wilmer'
_symmetry_space_group_name_H-M	'P1'
_symmetry_Int_Tables_number	1
_symmetry_cell_setting	triclinic
loop_
_symmetry_equiv_pos_as_xyz
  x,y,z
_cell_length_a	14.908520
_cell_length_b	12.827893
_cell_length_c	14.908768
_cell_angle_alpha	86.696520
_cell_angle_beta	83.235728
_cell_angle_gamma	86.681083
loop_
_atom_site_label
_atom_site_type_symbol
_atom_site_fract_x
_atom_site_fract_y
_atom_site_fract_z
Zn1	Zn	-0.390108	-1.606973	0.532589
Zn2	Zn	-0.532702	-1.587825	0.389954
Zn3	Zn	-0.381352	-1.422731	0.381241
Zn4	Zn	-0.541424	-1.422641	0.541268
O5	O	-0.461397	-1.510042	0.461263
O6	O	-0.409038	-1.750669	0.513682
O7	O	-0.505311	-1.557950	0.262133
O8	O	-0.255846	-1.455222	0.394039
O9	O	-0.513801	-1.736601	0.408889
O10	O	-0.262280	-1.590583	0.505234
O11	O	-0.394114	-1.436656	0.255732
O12	O	-0.402571	-1.276483	0.402455
O13	O	-0.528667	-1.455068	0.666782
O14	O	-0.520176	-1.276417	0.520026
O15	O	-0.417495	-1.590496	0.660405
O16	O	-0.660526	-1.557862	0.417305
O17	O	-0.666934	-1.436502	0.528475
C18	C	-0.461371	-1.238533	0.461237
C19	C	-0.461382	-1.122379	0.461249
C20	C	-0.403119	-1.070611	0.403163
C21	C	-0.403130	-0.950560	0.403174
C22	C	-0.696575	-1.495124	0.474797
C23	C	-0.797187	-1.488840	0.480617
C24	C	-0.979519	-1.603546	0.375886
C25	C	-1.074053	-1.597645	0.381352
C26	C	-1.080790	-1.471141	0.497018
C27	C	-0.986256	-1.477043	0.491553
C28	C	-0.935624	-1.543246	0.430984
C29	C	-0.841088	-1.549142	0.425514
C30	C	-0.847827	-1.422645	0.541184
C31	C	-0.942361	-1.416743	0.546650
C32	C	-0.225301	-1.525049	0.447696
C33	C	-0.124691	-1.531443	0.441915
C34	C	-0.475031	-1.524908	0.697355
C35	C	-0.480841	-1.531243	0.797963
C36	C	-0.461416	-0.782613	0.461282
C37	C	-0.461404	-0.898766	0.461270
C38	C	-0.546917	-1.603310	0.943101
C39	C	-0.541463	-1.597366	0.848571
C40	C	-0.425671	-1.471058	0.841891
C41	C	-0.431125	-1.477002	0.936421
C42	C	-0.491749	-1.543132	0.987023
C43	C	-0.497198	-1.549082	1.081555
C44	C	-0.381411	-1.422769	1.074873
C45	C	-0.375957	-1.416824	0.980343
C46	C	-0.447836	-1.495227	1.226091
C47	C	-0.442028	-1.488897	1.125483
H48	H	-0.353245	-0.906041	0.353447
H49	H	-0.326601	-1.362981	0.939131
H50	H	-0.983599	-1.362845	0.595966
Br51	Br	-0.544543	-0.972955	0.544172
Br52	Br	-0.579467	-1.638834	1.150228
H53	H	-0.596273	-1.657164	0.984302
Br54	Br	-0.772373	-1.638981	0.343309
H55	H	-1.122031	-1.417249	0.546336
Br56	Br	-0.910799	-1.693369	0.293672
Br57	Br	-0.616341	-1.679034	0.788965
Br58	Br	-1.133623	-1.679489	0.306578
Br59	Br	-0.788250	-1.340785	0.615948
Br60	Br	-0.306527	-1.341105	1.134485
H61	H	-0.376321	-1.417209	0.800676
Br62	Br	-0.319967	-1.144861	0.320253
H63	H	-0.511274	-1.077824	0.510984
