data_functionalizedCrystal
_audit_creation_method	'MofGen! by Chris Wilmer'
_symmetry_space_group_name_H-M	'P1'
_symmetry_Int_Tables_number	1
_symmetry_cell_setting	triclinic
loop_
_symmetry_equiv_pos_as_xyz
  x,y,z
_cell_length_a	11.026607
_cell_length_b	8.559649
_cell_length_c	7.088668
_cell_angle_alpha	82.338181
_cell_angle_beta	84.552989
_cell_angle_gamma	89.182341
loop_
_atom_site_label
_atom_site_type_symbol
_atom_site_fract_x
_atom_site_fract_y
_atom_site_fract_z
O1	O	-1.558936	-0.669005	0.158977
O2	O	-1.212546	-0.594804	0.158982
O3	O	-1.416258	-0.408080	0.158977
O4	O	-1.355224	-0.855729	0.158982
O5	O	-1.397236	-0.373321	-0.159012
O6	O	-1.193524	-0.560045	-0.159008
O7	O	-1.539914	-0.634246	-0.159012
Cu8	Cu	-1.364982	-0.593972	-0.188045
Cu9	Cu	-1.387478	-0.635078	0.188015
O10	O	-1.336202	-0.820970	-0.159008
C11	C	-1.159100	-0.563736	-0.000012
C12	C	-1.028189	-0.522929	-0.000010
C13	C	-1.411373	-0.332501	-0.000014
C14	C	-1.425142	-0.159083	-0.000004
C15	C	-1.593361	-0.665314	-0.000014
C16	C	-1.724272	-0.706122	-0.000003
C17	C	-0.943883	-0.635604	-0.000008
C18	C	-0.808579	-0.593431	-0.000006
C19	C	-1.341088	-0.896549	-0.000012
C20	C	-1.327320	-1.069969	-0.000010
N21	N	-1.349169	-0.565061	-0.452545
N22	N	-1.403302	-0.663979	0.452515
H23	H	-0.780596	-0.465741	0.000042
O24	O	-0.757573	-0.858449	-0.000332
C25	C	-0.738898	-1.087632	-0.164989
C26	C	-0.701102	-0.915125	-0.164883
H27	H	-0.693238	-1.133518	-0.297994
H28	H	-0.842062	-1.094573	-0.165112
H29	H	-0.709307	-1.162555	-0.031844
H30	H	-0.730611	-0.840098	-0.298006
H31	H	-0.597939	-0.908308	-0.164661
H32	H	-1.000200	-0.395247	0.000037
H33	H	-1.233037	-0.126346	-0.000015
O34	O	-1.537709	-0.092038	0.000244
C35	C	-1.738471	-0.081036	0.165042
C36	C	-1.611052	-0.157117	0.164976
H37	H	-1.797796	-0.133598	0.298234
H38	H	-1.782037	-0.104630	0.032059
H39	H	-1.729876	0.051543	0.164935
H40	H	-1.619540	-0.289711	0.165151
H41	H	-1.567532	-0.133397	0.297947
O42	O	-1.470101	-0.786447	-0.450248
C43	C	-1.495563	-1.068332	-0.388524
C44	C	-1.419827	-0.929786	-0.498796
H45	H	-1.454931	-1.184256	-0.427705
H46	H	-1.593503	-1.057422	-0.427782
H47	H	-1.494278	-1.065878	-0.228325
H48	H	-1.421013	-0.932154	-0.659020
H49	H	-1.321924	-0.940746	-0.459379
O50	O	-0.977346	-0.787950	0.000326
C51	C	-1.094660	-1.008878	0.164992
C52	C	-1.056843	-0.836350	0.164878
H53	H	-1.158960	-1.048052	0.297998
H54	H	-1.010191	-1.087249	0.165116
H55	H	-1.142893	-1.019022	0.031848
H56	H	-1.008637	-0.826055	0.298000
H57	H	-1.141356	-0.758061	0.164654
H58	H	-1.293099	-0.462563	-0.534236
