data_functionalizedCrystal
_audit_creation_method	'MofGen! by Chris Wilmer'
_symmetry_space_group_name_H-M	'P1'
_symmetry_Int_Tables_number	1
_symmetry_cell_setting	triclinic
loop_
_symmetry_equiv_pos_as_xyz
  x,y,z
_cell_length_a	14.971506
_cell_length_b	22.610064
_cell_length_c	14.971486
_cell_angle_alpha	90.004638
_cell_angle_beta	83.618258
_cell_angle_gamma	90.015589
loop_
_atom_site_label
_atom_site_type_symbol
_atom_site_fract_x
_atom_site_fract_y
_atom_site_fract_z
O1	O	1.186948	0.049189	0.116647
O2	O	0.926550	0.049189	0.130587
O3	O	1.063728	0.049185	-0.006583
O4	O	1.049770	0.049193	0.253816
O5	O	1.063688	-0.049184	-0.006583
O6	O	0.926510	-0.049180	0.130586
O7	O	1.186907	-0.049180	0.116647
Zn8	Zn	1.056702	-0.064798	0.123616
Zn9	Zn	1.056755	0.064807	0.123617
O10	O	1.049729	-0.049176	0.253816
C11	C	0.893205	0.000005	0.129960
C12	C	0.793909	0.000005	0.128082
N13	N	1.056673	-0.153251	0.123616
C14	C	0.355627	0.000013	0.201500
C15	C	0.448927	0.000016	0.203258
C16	C	0.506147	0.000011	0.122665
C17	C	0.470062	0.000009	0.040310
C18	C	0.376764	0.000010	0.038553
C19	C	0.664525	0.000004	0.043977
C20	C	0.757831	0.000001	0.045733
C21	C	0.736689	0.000009	0.208681
C22	C	0.643390	0.000011	0.206924
C23	C	0.607312	0.000008	0.124569
C24	C	1.111060	-0.561890	0.177950
C25	C	1.111071	-0.623810	0.177948
O26	O	1.157277	-0.655828	0.224139
N27	N	1.056772	-0.654788	0.123607
C28	C	1.002466	-0.623842	0.069257
O29	O	0.956283	-0.655877	0.023034
C30	C	1.002460	-0.561923	0.069255
C31	C	1.056755	-0.530949	0.123607
C32	C	1.165351	-0.530916	0.232297
C33	C	1.165339	-0.469000	0.232300
C34	C	1.111034	-0.438059	0.177957
C35	C	1.056743	-0.469034	0.123610
C36	C	0.948159	-0.530979	0.014901
C37	C	0.948159	-0.469056	0.014903
C38	C	1.002454	-0.438082	0.069255
C39	C	1.002426	-0.376177	0.069270
N40	N	1.056724	-0.345199	0.123611
C41	C	1.111028	-0.376140	0.177955
C42	C	1.002483	-0.753876	0.069264
C43	C	1.002484	-0.815794	0.069270
C44	C	1.111090	-0.815757	0.177960
C45	C	1.111084	-0.753839	0.177958
C46	C	1.056782	-0.722898	0.123606
C47	C	1.110997	-0.246113	0.177958
C48	C	1.110977	-0.184192	0.177959
C49	C	1.002374	-0.184234	0.069266
C50	C	1.002391	-0.246149	0.069268
C51	C	1.056709	-0.277087	0.123616
O52	O	0.956246	-0.344120	0.023099
O53	O	1.157213	-0.344098	0.224161
C54	C	1.220252	0.000006	0.117273
C55	C	1.319548	0.000010	0.119151
C56	C	1.063084	0.000001	-0.039908
C57	C	1.061213	0.000001	-0.139205
N58	N	1.056792	0.153260	0.123610
C59	C	1.141802	0.000001	-0.196424
C60	C	1.140038	0.000006	-0.289724
C61	C	1.057686	0.000009	-0.325802
C62	C	0.977091	0.000011	-0.268575
C63	C	0.978855	0.000009	-0.175278
C64	C	0.973420	0.000013	-0.463038
C65	C	0.971656	0.000014	-0.556342
C66	C	1.134603	0.000010	-0.577485
C67	C	1.136367	0.000009	-0.484187
C68	C	1.055772	0.000010	-0.426966
C69	C	1.050374	0.000010	0.287141
C70	C	1.052244	0.000013	0.386438
H71	H	0.309044	0.000013	0.267128
H72	H	0.958168	-0.271370	0.025021
H73	H	0.516658	0.000008	-0.025310
O74	O	0.895270	-0.439029	-0.037791
C75	C	0.804517	-0.454196	-0.013183
H76	H	0.795945	-0.471214	0.058936
H77	H	0.760499	-0.413490	-0.018473
H78	H	0.783721	-0.490148	-0.060110
O79	O	0.483825	-0.000010	0.283329
C80	C	0.413315	0.000005	0.354084
H81	H	0.349900	-0.018619	0.328945
H82	H	0.432868	-0.028553	0.411572
H83	H	0.400162	0.047198	0.378951
H84	H	0.913232	0.000010	-0.128690
H85	H	0.804417	0.000002	-0.019892
O86	O	0.897072	0.000120	-0.303578
C87	C	0.847952	0.051059	-0.274325
H88	H	0.896123	0.086667	-0.254861
H89	H	0.809845	0.068161	-0.330885
H90	H	0.798169	0.039542	-0.213579
H91	H	0.635155	0.000004	-0.023086
H92	H	0.347391	0.000009	-0.028503
H93	H	1.155307	-0.840961	0.222211
O94	O	1.163881	-0.723687	0.230624
C95	C	1.224873	-0.687874	0.176190
H96	H	1.196974	-0.678604	0.109773
H97	H	1.234874	-0.644330	0.212167
H98	H	1.292090	-0.711727	0.162614
H99	H	1.205662	0.000005	-0.336309
O100	O	1.221878	0.000026	-0.161531
C101	C	1.292628	0.000014	-0.232046
H102	H	1.267491	0.018637	-0.295449
H103	H	1.350129	0.028575	-0.212483
H104	H	1.317476	-0.047178	-0.245224
O105	O	0.949710	-0.845788	0.016398
C106	C	0.901762	-0.805195	-0.031545
H107	H	0.938778	-0.761049	-0.036695
H108	H	0.896144	-0.823086	-0.101894
H109	H	0.831594	-0.798625	0.005184
H110	H	1.209577	-0.556102	0.276550
O111	O	1.216441	0.000030	-0.449287
C112	C	1.287198	0.000015	-0.519795
H113	H	1.262071	0.018641	-0.583201
H114	H	1.344700	0.028572	-0.500224
H115	H	1.312040	-0.047178	-0.532972
H116	H	1.155190	-0.158975	0.222223
O117	O	1.163783	-0.276069	0.230837
C118	C	1.211709	-0.235442	0.278783
H119	H	1.174674	-0.191316	0.283929
H120	H	1.217330	-0.253321	0.349133
H121	H	1.281876	-0.228839	0.242058
O122	O	1.218173	-0.439008	0.285113
C123	C	1.266085	-0.479606	0.333085
H124	H	1.271258	-0.523743	0.296060
H125	H	1.336425	-0.461706	0.338750
H126	H	1.229316	-0.486196	0.403234
H127	H	0.958255	-0.728688	0.025007
O128	O	0.771581	-0.000010	0.288760
C129	C	0.701071	0.000005	0.359516
H130	H	0.637656	-0.018620	0.334377
H131	H	0.720625	-0.028552	0.417005
H132	H	0.687917	0.047199	0.384380
O133	O	0.895525	-0.561033	-0.038034
C134	C	0.920212	-0.545884	-0.128776
H135	H	0.992329	-0.528848	-0.137284
H136	H	0.914965	-0.586604	-0.172800
H137	H	0.873304	-0.509951	-0.149618
O138	O	0.949580	-0.154104	0.016602
C139	C	0.888586	-0.118307	0.071033
H140	H	0.916476	-0.109028	0.137457
H141	H	0.878599	-0.074767	0.035061
H142	H	0.821365	-0.142178	0.084594
H143	H	1.200227	0.000011	-0.624078
O144	O	0.891583	0.000051	-0.591242
C145	C	0.820825	0.000046	-0.520735
H146	H	0.845976	0.018662	-0.457323
H147	H	0.763359	0.028615	-0.540297
H148	H	0.795925	-0.047144	-0.507569
H149	H	0.596803	0.000011	0.272550
O150	O	0.895189	-0.000065	-0.407364
C151	C	0.891304	-0.051020	-0.352786
H152	H	0.962299	-0.068004	-0.347991
H153	H	0.858066	-0.039565	-0.282703
H154	H	0.850407	-0.086695	-0.383531
