data_functionalizedCrystal
_audit_creation_method	'MofGen! by Chris Wilmer'
_symmetry_space_group_name_H-M	'P1'
_symmetry_Int_Tables_number	1
_symmetry_cell_setting	triclinic
loop_
_symmetry_equiv_pos_as_xyz
  x,y,z
_cell_length_a	19.076919
_cell_length_b	11.169417
_cell_length_c	19.076808
_cell_angle_alpha	92.324435
_cell_angle_beta	90.121640
_cell_angle_gamma	87.715726
loop_
_atom_site_label
_atom_site_type_symbol
_atom_site_fract_x
_atom_site_fract_y
_atom_site_fract_z
Zn1	Zn	-0.385996	-1.788059	0.295724
Zn2	Zn	0.114004	-1.288059	0.795724
Zn3	Zn	-0.263765	-1.788565	0.408519
Zn4	Zn	0.236235	-1.288565	0.908519
Zn5	Zn	-0.268510	-1.595738	0.291025
Zn6	Zn	0.231490	-1.095738	0.791025
Zn7	Zn	-0.381239	-1.579578	0.413203
Zn8	Zn	0.118761	-1.079578	0.913203
O9	O	-0.324877	-1.687985	0.352118
O10	O	0.175123	-1.187985	0.852118
O11	O	-0.369786	-1.956075	0.310693
O12	O	0.130214	-1.456075	0.810693
O13	O	-0.166063	-1.769961	0.389006
O14	O	0.333937	-1.269961	0.889006
O15	O	-0.288071	-1.627801	0.193312
O16	O	0.211929	-1.127801	0.693312
O17	O	-0.279984	-1.956447	0.393563
O18	O	0.220016	-1.456447	0.893563
O19	O	-0.374387	-1.769099	0.196764
O20	O	0.125613	-1.269099	0.696764
O21	O	-0.169549	-1.628291	0.302684
O22	O	0.330451	-1.128291	0.802684
O23	O	-0.283459	-1.425645	0.307226
O24	O	0.216541	-0.925645	0.807226
O25	O	-0.480201	-1.600259	0.401546
O26	O	0.019799	-1.100259	0.901546
O27	O	-0.366280	-1.413773	0.396989
O28	O	0.133720	-0.913773	0.896989
O29	O	-0.483696	-1.753429	0.315235
O30	O	0.016304	-1.253429	0.815235
O31	O	-0.275372	-1.754291	0.507477
O32	O	0.224628	-1.254291	1.007477
O33	O	-0.361679	-1.600749	0.510918
O34	O	0.138321	-1.100749	1.010918
C35	C	-0.324869	-1.376162	0.352107
C36	C	0.175131	-0.876162	0.852107
C37	C	-0.324881	-1.242760	0.352120
C38	C	0.175119	-0.742760	0.852120
C39	C	-0.508158	-1.674985	0.359437
C40	C	-0.008158	-1.174985	0.859437
C41	C	-0.586261	-1.669445	0.362556
C42	C	-0.086261	-1.169445	0.862556
C43	C	-0.317510	-1.675853	0.534696
C44	C	0.182490	-1.175853	1.034696
C45	C	-0.314381	-1.670771	0.612804
C46	C	0.185619	-1.170771	1.112804
C47	C	-0.624774	-1.746586	0.319086
C48	C	-0.124774	-1.246586	0.819086
C49	C	-0.698161	-1.741366	0.322013
C50	C	-0.198161	-1.241366	0.822013
C51	C	-0.733032	-1.659011	0.368416
C52	C	-0.233032	-1.159011	0.868416
C53	C	-0.694513	-1.581862	0.411888
C54	C	-0.194513	-1.081862	0.911888
C55	C	-0.621128	-1.587076	0.408956
C56	C	-0.121128	-1.087076	0.908956
C57	C	-0.952314	-1.634858	0.382000
C58	C	-0.452314	-1.134858	0.882000
C59	C	-1.025704	-1.629651	0.384930
C60	C	-0.525704	-1.129651	0.884930
C61	C	-1.029346	-1.789155	0.295054
C62	C	-0.529346	-1.289155	0.795054
C63	C	-0.955960	-1.794368	0.292129
C64	C	-0.455960	-1.294368	0.792129
C65	C	-0.917448	-1.717214	0.335599
C66	C	-0.417448	-1.217214	0.835599
N67	N	-0.808044	-1.653676	0.371411
N68	N	-0.308044	-1.153676	0.871411
N69	N	-0.842437	-1.722544	0.332599
N70	N	-0.342437	-1.222544	0.832599
C71	C	-0.142312	-1.701007	0.344776
C72	C	0.357688	-1.201007	0.844776
C73	C	-0.064217	-1.706792	0.341460
C74	C	0.435783	-1.206792	0.841460
C75	C	-0.324886	-2.001026	0.352129
C76	C	0.175114	-1.501026	0.852129
C77	C	-0.324890	-2.134425	0.352134
C78	C	0.175110	-1.634425	0.852134
C79	C	-0.332289	-1.700196	0.168827
C80	C	0.167711	-1.200196	0.668827
C81	C	-0.335448	-1.705400	0.090720
C82	C	0.164552	-1.205400	0.590720
C83	C	-0.357888	-1.741889	0.651238
C84	C	0.142112	-1.241889	1.151238
C85	C	-0.354950	-1.737109	0.724629
C86	C	0.145050	-1.237109	1.224629
C87	C	-0.308501	-1.661216	0.759585
C88	C	0.191499	-1.161216	1.259585
C89	C	-0.264992	-1.590089	0.721146
C90	C	0.235008	-1.090089	1.221146
C91	C	-0.267934	-1.594864	0.647756
C92	C	0.232066	-1.094864	1.147756
C93	C	-0.294881	-1.639048	0.978891
C94	C	0.205119	-1.139048	1.478891
C95	C	-0.291941	-1.634282	1.052286
C96	C	0.208059	-1.134282	1.552286
C97	C	-0.381900	-1.781300	1.055764
C98	C	0.118100	-1.281300	1.555764
C99	C	-0.384835	-1.786073	0.982373
C100	C	0.115165	-1.286073	1.482373
C101	C	-0.341329	-1.714942	0.943940
C102	C	0.158671	-1.214942	1.443940
N103	N	-0.305495	-1.656331	0.834603
N104	N	0.194505	-1.156331	1.334603
N105	N	-0.344339	-1.719822	0.868924
N106	N	0.155661	-1.219822	1.368924
H107	H	-0.596388	-1.813653	0.281302
H108	H	-0.096388	-1.313653	0.781302
H109	H	-0.259456	-1.581133	0.947605
H110	H	0.240544	-1.081133	1.447605
O111	O	-0.221006	-1.518157	0.606303
O112	O	0.278994	-1.018157	1.106303
H113	H	-0.230860	-1.534217	0.549398
H114	H	0.269140	-1.034217	1.049398
H115	H	-0.227175	-1.528290	0.749613
H116	H	0.272825	-1.028290	1.249613
H117	H	-0.729515	-1.804185	0.286617
H118	H	-0.229515	-1.304185	0.786617
H119	H	-0.417321	-1.839209	1.087064
H120	H	0.082679	-1.339209	1.587064
H121	H	-0.254116	-1.572475	1.080745
H122	H	0.245884	-1.072475	1.580745
O123	O	-0.910785	-1.551648	0.428888
O124	O	-0.410785	-1.051648	0.928888
H125	H	-0.853897	-1.569092	0.419051
H126	H	-0.353897	-1.069092	0.919051
O127	O	-0.579583	-1.503874	0.455839
O128	O	-0.079583	-1.003874	0.955839
H129	H	-0.547426	-1.447284	0.423040
H130	H	-0.047426	-0.947284	0.923040
H131	H	-0.927573	-1.861434	0.254346
H132	H	-0.427573	-1.361434	0.754346
H133	H	-0.395709	-1.803695	0.622782
H134	H	0.104291	-1.303695	1.122782
O135	O	-1.070883	-1.872335	0.248150
O136	O	-0.570883	-1.372335	0.748150
H137	H	-1.127771	-1.854861	0.257972
H138	H	-0.627771	-1.354861	0.757972
H139	H	-1.054094	-1.562584	0.422718
H140	H	-0.554094	-1.062584	0.922718
H141	H	-0.722911	-1.514802	0.449667
H142	H	-0.222911	-1.014802	0.949667
H143	H	-0.390372	-1.795031	0.755919
H144	H	0.109628	-1.295031	1.255919
H145	H	-0.422657	-1.847871	0.953913
H146	H	0.077343	-1.347871	1.453913
