data_functionalizedCrystal
_audit_creation_method	'MofGen! by Chris Wilmer'
_symmetry_space_group_name_H-M	'P1'
_symmetry_Int_Tables_number	1
_symmetry_cell_setting	triclinic
loop_
_symmetry_equiv_pos_as_xyz
  x,y,z
_cell_length_a	15.944545
_cell_length_b	27.731996
_cell_length_c	15.021413
_cell_angle_alpha	89.998029
_cell_angle_beta	89.995468
_cell_angle_gamma	83.058780
loop_
_atom_site_label
_atom_site_type_symbol
_atom_site_fract_x
_atom_site_fract_y
_atom_site_fract_z
O1	O	1.113697	0.062321	-0.073986
O2	O	1.613697	0.562321	0.426014
O3	O	0.869043	0.070010	-0.074002
O4	O	1.369043	0.570010	0.425998
O5	O	0.998991	-0.004200	-0.073975
O6	O	1.498991	0.495800	0.426025
O7	O	0.983749	0.136531	-0.074014
O8	O	1.483749	0.636531	0.425986
O9	O	0.998971	-0.004189	0.074090
O10	O	1.498971	0.495811	0.574090
O11	O	0.869023	0.070021	0.074062
O12	O	1.369023	0.570021	0.574062
O13	O	1.113676	0.062332	0.074078
O14	O	1.613676	0.562332	0.574078
Zn15	Zn	0.991346	0.066178	0.097578
Zn16	Zn	1.491346	0.566178	0.597578
Zn17	Zn	0.991373	0.066164	-0.097503
Zn18	Zn	1.491373	0.566164	0.402497
O19	O	0.983728	0.136542	0.074050
O20	O	1.483728	0.636542	0.574050
C21	C	0.837743	0.069697	0.000028
C22	C	1.337743	0.569697	0.500028
C23	C	0.744510	0.068742	0.000023
C24	C	1.244510	0.568742	0.500023
C25	C	0.474532	0.019888	0.000046
C26	C	0.974532	0.519888	0.500046
C27	C	0.524788	0.043446	0.073045
C28	C	1.024788	0.543446	0.573045
C29	C	0.408912	0.065334	0.000039
C30	C	0.908912	0.565334	0.500039
C31	C	0.524788	0.043448	-0.072935
C32	C	1.024788	0.543448	0.427065
C33	C	0.573803	0.067006	0.000030
C34	C	1.073803	0.567006	0.500030
C35	C	0.457939	0.088881	0.073098
C36	C	0.957939	0.588881	0.573098
C37	C	0.457937	0.088876	-0.072947
C38	C	0.957937	0.588876	0.427053
C39	C	0.508159	0.112468	0.000070
C40	C	1.008159	0.612468	0.500070
C41	C	0.313922	0.064370	0.000045
C42	C	0.813922	0.564370	0.500045
C43	C	0.668789	0.067974	0.000030
C44	C	1.168789	0.567974	0.500030
C45	C	0.998668	-0.022203	0.000061
C46	C	1.498668	0.477797	0.500061
C47	C	0.997725	-0.075864	0.000070
C48	C	1.497725	0.424136	0.500070
C49	C	0.991802	-0.408611	-0.080684
C50	C	1.491802	0.091389	0.419316
C51	C	0.988221	-0.610285	-0.080700
C52	C	1.488221	-0.110285	0.419300
O53	O	0.987732	-0.636363	-0.149341
O54	O	1.487732	-0.136363	0.350659
N55	N	0.987765	-0.635498	0.000009
N56	N	1.487765	-0.135498	0.500009
C57	C	0.988199	-0.610290	0.080728
C58	C	1.488199	-0.110290	0.580728
O59	O	0.987720	-0.636362	0.149375
O60	O	1.487720	-0.136362	0.649375
C61	C	0.991774	-0.408617	0.080743
C62	C	1.491774	0.091383	0.580743
C63	C	0.992239	-0.383407	0.000028
C64	C	1.492239	0.116593	0.500028
C65	C	0.992266	-0.383401	-0.161392
C66	C	1.492266	0.116599	0.338608
C67	C	0.993166	-0.332986	-0.161387
C68	C	1.493166	0.167014	0.338613
C69	C	0.993602	-0.307781	-0.080675
C70	C	1.493602	0.192219	0.419325
C71	C	0.993139	-0.332991	0.000033
C72	C	1.493139	0.167009	0.500033
C73	C	0.992202	-0.383408	0.161460
C74	C	1.492202	0.116592	0.661460
C75	C	0.993094	-0.332987	0.161457
C76	C	1.493094	0.167013	0.661457
C77	C	0.993558	-0.307777	0.080743
C78	C	1.493558	0.192223	0.580743
C79	C	0.994475	-0.257371	0.080750
C80	C	1.494475	0.242629	0.580750
N81	N	0.994931	-0.232158	0.000041
N82	N	1.494931	0.267842	0.500041
C83	C	0.994495	-0.257363	-0.080671
C84	C	1.494495	0.242637	0.419329
C85	C	0.986323	-0.716171	0.080714
C86	C	1.486323	-0.216171	0.580714
C87	C	0.985431	-0.766589	0.080711
C88	C	1.485431	-0.266589	0.580711
C89	C	0.985452	-0.766581	-0.080717
C90	C	1.485452	-0.266581	0.419283
C91	C	0.986350	-0.716163	-0.080713
C92	C	1.486350	-0.216163	0.419287
C93	C	0.986779	-0.690958	0.000005
C94	C	1.486779	-0.190958	0.500005
C95	C	0.996385	-0.151488	-0.080655
C96	C	1.496385	0.348512	0.419345
C97	C	0.997289	-0.101069	-0.080643
C98	C	1.497289	0.398931	0.419357
C99	C	0.997263	-0.101081	0.080785
C100	C	1.497263	0.398919	0.580785
C101	C	0.996364	-0.151496	0.080773
C102	C	1.496364	0.348504	0.580773
C103	C	0.995922	-0.176698	0.000046
C104	C	1.495922	0.323302	0.500046
O105	O	0.994955	-0.231262	0.149356
O106	O	1.494955	0.268738	0.649356
O107	O	0.994955	-0.231281	-0.149308
O108	O	1.494955	0.268719	0.350692
C109	C	0.990903	-0.459027	-0.080689
C110	C	1.490903	0.040973	0.419311
C111	C	0.990439	-0.484237	0.000019
C112	C	1.490439	0.015763	0.500019
C113	C	0.990875	-0.459032	0.080731
C114	C	1.490875	0.040968	0.580731
C115	C	0.989547	-0.534655	0.000015
C116	C	1.489547	-0.034655	0.500015
C117	C	0.989110	-0.559860	-0.080697
C118	C	1.489110	-0.059860	0.419303
C119	C	0.989566	-0.534646	-0.161406
C120	C	1.489566	-0.034646	0.338594
C121	C	0.990466	-0.484231	-0.161401
C122	C	1.490466	0.015769	0.338599
C123	C	0.990419	-0.484245	0.161440
C124	C	1.490419	0.015755	0.661440
C125	C	0.989520	-0.534660	0.161429
C126	C	1.489520	-0.034660	0.661429
C127	C	0.989084	-0.559865	0.080716
C128	C	1.489084	-0.059865	0.580716
C129	C	1.144976	0.062645	0.000045
C130	C	1.644976	0.562645	0.500045
C131	C	1.238210	0.063600	0.000045
C132	C	1.738210	0.563600	0.500045
C133	C	0.984052	0.154545	0.000013
C134	C	1.484052	0.654545	0.500013
C135	C	0.984995	0.208206	-0.000002
C136	C	1.484995	0.708206	0.499998
N137	N	0.991334	0.066187	0.230716
N138	N	1.491334	0.566187	0.730716
N139	N	0.991393	0.066151	-0.230640
N140	N	1.491393	0.566151	0.269360
C141	C	0.931237	0.100486	0.470386
C142	C	1.431237	0.600486	0.970386
C143	C	1.007012	0.109869	0.529723
C144	C	1.507012	0.609869	1.029723
C145	C	0.991355	0.066175	0.412323
C146	C	1.491355	0.566175	0.912323
C147	C	0.915601	0.056803	0.529728
C148	C	1.415601	0.556803	1.029728
C149	C	0.991369	0.066165	0.587747
C150	C	1.491369	0.566165	1.087747
C151	C	1.067168	0.075580	0.470353
C152	C	1.567168	0.575580	0.970353
C153	C	0.975708	0.022495	0.470353
C154	C	1.475708	0.522495	0.970353
C155	C	1.051538	0.031859	0.529662
C156	C	1.551538	0.531859	1.029662
C157	C	0.991346	0.066182	0.311265
C158	C	1.491346	0.566182	0.811265
C159	C	0.991388	0.066157	0.688802
C160	C	1.491388	0.566157	1.188802
H161	H	0.553972	0.024243	-0.134646
H162	H	1.053972	0.524243	0.365354
H163	H	0.997669	-0.080545	-0.146373
H164	H	1.497669	0.419455	0.353627
H165	H	0.985066	-0.787112	0.146436
H166	H	1.485066	-0.287112	0.646436
H167	H	0.523126	0.151637	0.000102
H168	H	1.023126	0.651637	0.500102
Br169	Br	0.991098	-0.450026	-0.270948
Br170	Br	1.491098	0.049974	0.229052
H171	H	1.102439	0.002838	0.555526
H172	H	1.602439	0.502838	1.055526
H173	H	0.962436	-0.014429	0.444255
H174	H	1.462436	0.485571	0.944255
Br175	Br	0.846584	0.148883	0.427001
Br176	Br	1.346584	0.648883	0.927001
H177	H	0.428742	0.108048	-0.134675
H178	H	0.928742	0.608048	0.365325
Br179	Br	0.993790	-0.298780	-0.270934
Br180	Br	1.493790	0.201220	0.229066
H181	H	0.851531	0.048880	0.555812
H182	H	1.351531	0.548880	1.055812
Br183	Br	1.173982	0.088856	0.427072
Br184	Br	1.673982	0.588856	0.927072
H185	H	0.459403	-0.019251	0.000128
H186	H	0.959403	0.480749	0.500128
H187	H	0.997622	-0.080550	0.146499
H188	H	1.497622	0.419450	0.646499
Br189	Br	1.029096	0.171429	0.573187
Br190	Br	1.529096	0.671429	1.073187
H191	H	0.996021	-0.172001	-0.146390
H192	H	1.496021	0.327999	0.353610
H193	H	0.553967	0.024257	0.134771
H194	H	1.053967	0.524257	0.634771
Br195	Br	0.409486	0.120855	0.176072
Br196	Br	0.909486	0.620855	0.676072
H197	H	0.995994	-0.172024	0.146497
H198	H	1.495994	0.327976	0.646497
Br199	Br	0.986980	-0.681954	-0.190257
Br200	Br	1.486980	-0.181954	0.309743
H201	H	0.989148	-0.555182	0.227161
H202	H	1.489148	-0.055182	0.727161
Br203	Br	0.986899	-0.681972	0.190271
Br204	Br	1.486899	-0.181972	0.690271
Br205	Br	0.984857	-0.800797	-0.190256
Br206	Br	1.484857	-0.300797	0.309744
H207	H	0.991908	-0.403918	-0.227121
H208	H	1.491908	0.096082	0.272879
H209	H	0.993431	-0.312467	0.227189
H210	H	1.493431	0.187533	0.727189
Br211	Br	0.991568	-0.417609	0.271009
Br212	Br	1.491568	0.082391	0.771009
H213	H	0.990776	-0.463728	0.227168
H214	H	1.490776	0.036272	0.727168
Br215	Br	0.988981	-0.568864	-0.270944
Br216	Br	1.488981	-0.068864	0.229056
