data_functionalizedCrystal
_audit_creation_method	'MofGen! by Chris Wilmer'
_symmetry_space_group_name_H-M	'P1'
_symmetry_Int_Tables_number	1
_symmetry_cell_setting	triclinic
loop_
_symmetry_equiv_pos_as_xyz
  x,y,z
_cell_length_a	13.897448
_cell_length_b	13.897449
_cell_length_c	13.032268
_cell_angle_alpha	97.161368
_cell_angle_beta	82.851959
_cell_angle_gamma	89.982475
loop_
_atom_site_label
_atom_site_type_symbol
_atom_site_fract_x
_atom_site_fract_y
_atom_site_fract_z
Zn1	Zn	-0.453250	-1.405387	0.590887
Zn2	Zn	-0.594089	-1.425779	0.416147
Zn3	Zn	-0.432811	-1.264573	0.416159
Zn4	Zn	-0.614497	-1.244065	0.590830
O5	O	-0.523662	-1.334951	0.503506
O6	O	-0.471945	-1.543072	0.567726
O7	O	-0.555600	-1.421512	0.269919
O8	O	-0.300544	-1.283301	0.439366
O9	O	-0.575419	-1.558054	0.439345
O10	O	-0.315560	-1.386757	0.567737
O11	O	-0.437110	-1.303075	0.269928
O12	O	-0.456899	-1.126873	0.439311
O13	O	-0.610202	-1.248347	0.737068
O14	O	-0.590383	-1.111806	0.567641
O15	O	-0.491734	-1.366870	0.737109
O16	O	-0.731775	-1.401626	0.439291
O17	O	-0.746768	-1.268121	0.567630
C18	C	-0.774273	-1.334884	0.503476
C19	C	-0.881489	-1.334940	0.503498
C20	C	-0.523639	-1.084341	0.503472
C21	C	-0.523655	-0.977126	0.503482
C22	C	-0.555525	-1.303046	0.776064
C23	C	-0.569103	-1.289451	0.892212
C24	C	-1.077792	-1.335033	0.503563
C25	C	-0.968555	-1.334978	0.503530
C26	C	-0.272075	-1.335042	0.503559
C27	C	-0.164864	-1.335080	0.503582
C28	C	-0.523655	-0.780828	0.503502
C29	C	-0.523652	-0.890062	0.503488
C30	C	-0.523678	-0.586541	0.503530
C31	C	-0.523666	-0.693757	0.503515
C32	C	-0.491853	-1.366787	0.232008
C33	C	-0.478003	-1.380570	0.115861
C34	C	-0.516541	-1.342032	0.944015
C35	C	-0.530573	-1.327981	1.064060
H36	H	-0.585959	-1.272552	1.108579
H37	H	-0.422605	-1.435988	1.071343
O38	O	-0.635305	-1.223395	0.945200
C39	C	-0.728359	-1.247548	0.918609
H40	H	-0.721160	-1.293841	0.839344
H41	H	-0.771184	-1.178341	0.914966
H42	H	-0.767977	-1.289991	0.980014
O43	O	-0.450402	-1.408030	0.890793
C44	C	-0.380756	-1.360473	0.827684
H45	H	-0.412879	-1.289247	0.811427
H46	H	-0.358926	-1.408690	0.750897
H47	H	-0.314145	-1.345026	0.869693
