data_functionalizedCrystal
_audit_creation_method	'MofGen! by Chris Wilmer'
_symmetry_space_group_name_H-M	'P1'
_symmetry_Int_Tables_number	1
_symmetry_cell_setting	triclinic
loop_
_symmetry_equiv_pos_as_xyz
  x,y,z
_cell_length_a	17.699083
_cell_length_b	15.538191
_cell_length_c	16.776229
_cell_angle_alpha	89.995703
_cell_angle_beta	89.998886
_cell_angle_gamma	65.277554
loop_
_atom_site_label
_atom_site_type_symbol
_atom_site_fract_x
_atom_site_fract_y
_atom_site_fract_z
O1	O	0.971508	0.119201	-0.066172
O2	O	0.746892	0.134709	-0.066198
O3	O	0.902923	-0.010275	-0.066184
O4	O	0.815476	0.264184	-0.066186
O5	O	0.902910	-0.010283	0.066393
O6	O	0.746879	0.134700	0.066379
O7	O	0.971495	0.119192	0.066404
Zn8	Zn	0.859185	0.126945	0.087441
Zn9	Zn	0.859202	0.126956	-0.087235
O10	O	0.815463	0.264176	0.066390
C11	C	0.718840	0.134149	0.000087
C12	C	0.635277	0.132482	0.000077
C13	C	0.563403	0.217584	0.000077
C14	C	0.484889	0.216012	0.000087
C15	C	0.478252	0.129337	0.000092
C16	C	0.550134	0.044228	0.000095
C17	C	0.628646	0.045801	0.000090
C18	C	0.233505	0.037882	0.000115
C19	C	0.154985	0.036316	0.000117
C20	C	0.089748	0.208094	0.000111
C21	C	0.168260	0.209667	0.000107
C22	C	0.240135	0.124558	0.000114
C23	C	0.325269	0.126264	0.000104
C24	C	0.393120	0.127630	0.000096
C25	C	0.912066	-0.045395	0.000103
C26	C	0.939318	-0.150032	0.000098
C27	C	0.668571	-0.437202	0.000084
C28	C	0.694198	-0.535527	0.000089
C29	C	0.838344	-0.558300	0.000105
C30	C	0.812729	-0.459975	0.000096
C31	C	0.727842	-0.399434	0.000087
C32	C	0.872000	-0.422207	0.000099
C33	C	0.846387	-0.323891	0.000095
C34	C	0.761503	-0.263343	0.000087
C35	C	0.702229	-0.301118	0.000082
C36	C	0.956887	-0.482750	0.000114
C37	C	1.016158	-0.444981	0.000117
C38	C	0.990545	-0.346663	0.000107
C39	C	0.905661	-0.286116	0.000100
C40	C	1.049819	-0.308889	0.000112
C41	C	1.024206	-0.210573	0.000107
C42	C	0.880048	-0.187800	0.000095
C43	C	0.999546	0.119752	0.000117
C44	C	1.083109	0.121419	0.000122
C45	C	0.806321	0.299297	0.000102
C46	C	0.779068	0.403933	0.000101
N47	N	0.859179	0.126936	0.206652
N48	N	0.859216	0.126957	-0.206446
C49	C	0.928278	0.062764	0.248375
C50	C	0.928282	0.062763	0.331827
C51	C	0.859189	0.126940	0.373555
C52	C	0.790084	0.191115	0.331826
C53	C	0.790078	0.191111	0.248375
C54	C	0.790106	0.191134	0.668373
C55	C	0.790118	0.191135	0.751829
C56	C	0.928310	0.062786	0.751825
C57	C	0.928304	0.062781	0.668375
C58	C	0.859198	0.126953	0.626653
C59	C	0.859193	0.126952	0.536164
C60	C	0.859195	0.126946	0.464042
H61	H	0.426369	0.285311	0.000086
H62	H	0.733824	0.243366	0.365805
H63	H	0.292019	-0.031418	0.000121
O64	O	0.722928	0.253563	0.627975
C65	C	0.585837	0.380838	0.636793
C66	C	0.661873	0.310199	0.682647
H67	H	0.536448	0.426633	0.680976
H68	H	0.605524	0.427942	0.597735
H69	H	0.559228	0.340181	0.597713
H70	H	0.688517	0.350778	0.721770
H71	H	0.642138	0.263096	0.721655
H72	H	0.810924	-0.138503	0.000082
H73	H	0.149589	-0.034270	0.000122
H74	H	1.085273	-0.494287	0.000128
H75	H	0.984543	0.010507	0.214406
O76	O	0.174744	0.293842	-0.000047
C77	C	0.225552	0.395293	-0.068727
C78	C	0.218257	0.299938	-0.068661
H79	H	0.260745	0.400245	-0.124187
H80	H	0.160710	0.455883	-0.068779
H81	H	0.260652	0.400317	-0.013224
H82	H	0.183190	0.294822	-0.124155
H83	H	0.283122	0.239394	-0.068568
H84	H	1.118934	-0.358196	0.000127
H85	H	0.599448	-0.387905	0.000070
H86	H	0.645927	-0.566272	0.000098
O87	O	0.543541	-0.039887	0.000066
C88	C	0.451506	-0.118445	0.000120
C89	C	0.458850	-0.023117	0.000137
H90	H	0.383039	-0.104919	0.000195
H91	H	0.482978	-0.160503	-0.055375
H92	H	0.483077	-0.160492	0.055591
H93	H	0.427274	0.019007	-0.055296
H94	H	0.427402	0.018869	0.055669
H95	H	0.633105	-0.251821	0.000069
H96	H	0.031216	0.277393	0.000110
H97	H	0.907460	-0.607605	0.000116
H98	H	0.740650	-0.183289	0.000088
O99	O	0.981732	-0.578249	-0.000026
C100	C	0.978917	-0.713082	-0.068694
C101	C	0.950739	-0.604925	-0.068642
H102	H	0.953857	-0.734681	-0.124155
H103	H	1.049767	-0.749913	-0.068734
H104	H	0.953940	-0.734716	-0.013192
H105	H	0.975658	-0.583206	-0.124135
H106	H	0.879888	-0.568156	-0.068560
O107	O	1.081887	-0.174035	0.000067
C108	C	1.227573	-0.206989	0.000114
C109	C	1.162336	-0.248494	0.000140
H110	H	1.292631	-0.267169	0.000191
H111	H	1.219245	-0.161564	-0.055385
H112	H	1.219132	-0.161495	0.055581
H113	H	1.170737	-0.294031	-0.055289
H114	H	1.170683	-0.293865	0.055677
O115	O	0.995494	0.000401	0.372234
C116	C	1.132559	-0.126923	0.363423
C117	C	1.056499	-0.056335	0.317565
H118	H	1.181895	-0.172825	0.319243
H119	H	1.159259	-0.086318	0.402458
H120	H	1.112800	-0.173927	0.402527
H121	H	1.076191	-0.009313	0.278418
H122	H	1.029816	-0.096998	0.278580
H123	H	0.984568	0.010526	0.634403
H124	H	0.687169	-0.023498	0.000090
H125	H	0.984580	0.010531	0.785804
O126	O	0.722902	0.253542	0.207966
C127	C	0.585810	0.380814	0.216772
C128	C	0.661842	0.310179	0.262633
H129	H	0.536416	0.426610	0.260950
H130	H	0.605499	0.427916	0.177714
H131	H	0.559205	0.340154	0.177691
H132	H	0.688482	0.350762	0.301757
H133	H	0.642105	0.263078	0.301640
H134	H	0.568797	0.288165	0.000072
H135	H	0.733851	0.243398	0.785803
