data_functionalizedCrystal
_audit_creation_method	'MofGen! by Chris Wilmer'
_symmetry_space_group_name_H-M	'P1'
_symmetry_Int_Tables_number	1
_symmetry_cell_setting	triclinic
loop_
_symmetry_equiv_pos_as_xyz
  x,y,z
_cell_length_a	21.395362
_cell_length_b	16.120531
_cell_length_c	21.395355
_cell_angle_alpha	92.877227
_cell_angle_beta	90.043940
_cell_angle_gamma	87.050851
loop_
_atom_site_label
_atom_site_type_symbol
_atom_site_fract_x
_atom_site_fract_y
_atom_site_fract_z
Zn1	Zn	0.945215	0.331659	0.367200
Zn2	Zn	1.278548	0.664992	0.700533
Zn3	Zn	1.611882	0.998325	1.033867
Zn4	Zn	0.939803	0.471058	0.267724
Zn5	Zn	1.273136	0.804391	0.601058
Zn6	Zn	1.606470	1.137724	0.934391
Zn7	Zn	0.840428	0.331698	0.262403
Zn8	Zn	1.173762	0.665031	0.595736
Zn9	Zn	1.507095	0.998364	0.929069
Zn10	Zn	0.835084	0.471075	0.372430
Zn11	Zn	1.168417	0.804408	0.705763
Zn12	Zn	1.501751	1.137741	1.039096
O13	O	0.890133	0.401372	0.317439
O14	O	1.223466	0.734706	0.650773
O15	O	1.556799	1.068039	0.984106
O16	O	1.032176	0.350127	0.354043
O17	O	1.365509	0.683460	0.687376
O18	O	1.698843	1.016794	1.020709
O19	O	0.926592	0.452580	0.179341
O20	O	1.259926	0.785914	0.512674
O21	O	1.593259	1.119247	0.846008
O22	O	0.858830	0.215024	0.271888
O23	O	1.192164	0.548357	0.605222
O24	O	1.525497	0.881690	0.938555
O25	O	1.028200	0.452543	0.280959
O26	O	1.361533	0.785876	0.614292
O27	O	1.694866	1.119209	0.947625
O28	O	0.935817	0.214995	0.348883
O29	O	1.269150	0.548329	0.682216
O30	O	1.602483	0.881662	1.015549
O31	O	0.853582	0.350193	0.175431
O32	O	1.186916	0.683526	0.508764
O33	O	1.520249	1.016860	0.842098
O34	O	0.752041	0.350210	0.276960
O35	O	1.085374	0.683543	0.610293
O36	O	1.418707	1.016876	0.943626
O37	O	0.849721	0.452572	0.459414
O38	O	1.183055	0.785905	0.792747
O39	O	1.516388	1.119239	1.126080
O40	O	0.748114	0.452609	0.357796
O41	O	1.081447	0.785943	0.691129
O42	O	1.414781	1.119276	1.024463
O43	O	0.930634	0.350144	0.455571
O44	O	1.263967	0.683477	0.788905
O45	O	1.597301	1.016810	1.122238
O46	O	0.921410	0.587729	0.286030
O47	O	1.254743	0.921062	0.619363
O48	O	1.588077	1.254395	0.952696
O49	O	0.844473	0.587741	0.362956
O50	O	1.177807	0.921074	0.696290
O51	O	1.511140	1.254408	1.029623
C52	C	0.727343	0.401416	0.317368
C53	C	1.060677	0.734750	0.650702
C54	C	1.394010	1.068083	0.984035
C55	C	0.657700	0.401455	0.317353
C56	C	0.991034	0.734789	0.650687
C57	C	1.324367	1.068122	0.984020
C58	C	0.622956	0.454845	0.359388
C59	C	0.956290	0.788179	0.692721
C60	C	1.289623	1.121512	1.026054
C61	C	0.557522	0.454825	0.359415
C62	C	0.890855	0.788158	0.692748
C63	C	1.224188	1.121492	1.026081
C64	C	0.526833	0.401423	0.317397
C65	C	0.860167	0.734756	0.650730
C66	C	1.193500	1.068090	0.984064
C67	C	0.561586	0.348023	0.275359
C68	C	0.894919	0.681356	0.608693
C69	C	1.228252	1.014689	0.942026
C70	C	0.627019	0.348039	0.275338
C71	C	0.960353	0.681372	0.608671
C72	C	1.293686	1.014705	0.942004
C73	C	0.423365	0.394707	0.260736
C74	C	0.756698	0.728040	0.594070
C75	C	1.090031	1.061373	0.927403
C76	C	0.357932	0.394696	0.260757
C77	C	0.691266	0.728030	0.594090
C78	C	1.024599	1.061363	0.927424
C79	C	0.325015	0.401369	0.317464
C80	C	0.658348	0.734702	0.650797
C81	C	0.991681	1.068035	0.984131
C82	C	0.357537	0.408069	0.374152
C83	C	0.690871	0.741402	0.707486
C84	C	1.024204	1.074735	1.040819
C85	C	0.422971	0.408085	0.374131
C86	C	0.756304	0.741418	0.707464
C87	C	1.089638	1.074751	1.040797
C88	C	0.455882	0.401399	0.317416
C89	C	0.789215	0.734733	0.650749
C90	C	1.122549	1.068066	0.984083
C91	C	0.219319	0.454740	0.359531
C92	C	0.552652	0.788073	0.692864
C93	C	0.885986	1.121406	1.026198
C94	C	0.153883	0.454713	0.359559
C95	C	0.487217	0.788047	0.692892
C96	C	0.820550	1.121380	1.026226
C97	C	0.157948	0.347915	0.275498
C98	C	0.491282	0.681249	0.608832
C99	C	0.824615	1.014582	0.942165
C100	C	0.223383	0.347937	0.275476
C101	C	0.556716	0.681270	0.608809
C102	C	0.890050	1.014604	0.942142
C103	C	0.254064	0.401354	0.317491
C104	C	0.587397	0.734687	0.650825
C105	C	0.920731	1.068020	0.984158
C106	C	0.881791	0.617986	0.325652
C107	C	1.215125	0.951319	0.658985
C108	C	1.548458	1.284652	0.992318
C109	C	0.878280	0.710654	0.329186
C110	C	1.211614	1.043987	0.662519
C111	C	1.544947	1.377321	0.995853
C112	C	0.871874	0.880320	0.335651
C113	C	1.205207	1.213653	0.668985
C114	C	1.538540	1.546986	1.002318
C115	C	0.908415	0.921584	0.299192
C116	C	1.241748	1.254918	0.632525
C117	C	1.575082	1.588251	0.965858
C118	C	0.904850	1.015992	0.302789
C119	C	1.238184	1.349325	0.636122
C120	C	1.571517	1.682659	0.969456
C121	C	0.875438	0.785903	0.332055
C122	C	1.208771	1.119237	0.665388
C123	C	1.542104	1.452570	0.998721
C124	C	1.053558	0.401329	0.317511
C125	C	1.386891	0.734662	0.650844
C126	C	1.720224	1.067995	0.984178
C127	C	1.123200	0.401310	0.317541
C128	C	1.456533	0.734643	0.650875
C129	C	1.789866	1.067977	0.984208
C130	C	0.890185	0.401355	0.480862
C131	C	1.223519	0.734689	0.814195
C132	C	1.556852	1.068022	1.147529
C133	C	0.890208	0.401348	0.550503
C134	C	1.223541	0.734681	0.883836
C135	C	1.556874	1.068015	1.217170
C136	C	0.898501	1.183913	0.309197
C137	C	1.231834	1.517246	0.642530
C138	C	1.565168	1.850579	0.975864
C139	C	0.902010	1.091245	0.305655
C140	C	1.235343	1.424578	0.638989
C141	C	1.568677	1.757911	0.972322
C142	C	0.890118	0.401329	0.154650
C143	C	1.223452	0.734662	0.487983
C144	C	1.556785	1.067995	0.821317
C145	C	0.890226	0.401101	0.085000
C146	C	1.223560	0.734434	0.418334
C147	C	1.556893	1.067768	0.751667
C148	C	0.932337	0.348011	0.581216
C149	C	1.265671	0.681345	0.914550
C150	C	1.599004	1.014678	1.247883
C151	C	0.932338	0.347976	0.646650
C152	C	1.265671	0.681309	0.979984
C153	C	1.599005	1.014642	1.313317
C154	C	0.890215	0.401291	0.681369
C155	C	1.223548	0.734625	1.014703
C156	C	1.556881	1.067958	1.348036
C157	C	0.848077	0.454632	0.650648
C158	C	1.181410	0.787965	0.983981
C159	C	1.514744	1.121298	1.317315
C160	C	0.848074	0.454660	0.585215
C161	C	1.181407	0.787993	0.918548
C162	C	1.514740	1.121327	1.251882
C163	C	0.882377	0.476362	0.787888
C164	C	1.215710	0.809696	1.121222
C165	C	1.549043	1.143029	1.454555
C166	C	0.882385	0.476335	0.853320
C167	C	1.215718	0.809669	1.186654
C168	C	1.549051	1.143002	1.519987
C169	C	0.890222	0.401203	0.883187
C170	C	1.223555	0.734536	1.216520
C171	C	1.556889	1.067870	1.549853
C172	C	0.898065	0.326096	0.847613
C173	C	1.231398	0.659429	1.180946
C174	C	1.564731	0.992763	1.514280
C175	C	0.898061	0.326124	0.782180
C176	C	1.231395	0.659458	1.115513
C177	C	1.564728	0.992791	1.448847
C178	C	0.890214	0.401266	0.752321
C179	C	1.223547	0.734599	1.085654
C180	C	1.556880	1.067933	1.418987
C181	C	0.932355	0.347823	0.984851
C182	C	1.265688	0.681156	1.318184
C183	C	1.599021	1.014490	1.651518
C184	C	0.932351	0.347786	1.050286
C185	C	1.265684	0.681119	1.383620
C186	C	1.599017	1.014453	1.716953
C187	C	0.848093	0.454449	1.054283
C188	C	1.181426	0.787783	1.387616
C189	C	1.514760	1.121116	1.720950
C190	C	0.848094	0.454479	0.988849
C191	C	1.181427	0.787813	1.322182
C192	C	1.514760	1.121146	1.655515
C193	C	0.890228	0.401167	0.954137
C194	C	1.223561	0.734501	1.287470
C195	C	1.556895	1.067834	1.620803
H196	H	0.655308	0.304559	0.241108
H197	H	0.988641	0.637893	0.574442
H198	H	1.321974	0.971226	0.907775
F199	F	0.827486	0.926816	0.379978
F200	F	1.160820	1.260149	0.713311
F201	F	1.494153	1.593482	1.046645
F202	F	0.977178	0.291268	0.544277
F203	F	1.310511	0.624602	0.877610
F204	F	1.643845	0.957935	1.210943
F205	F	0.977194	0.291081	0.947906
F206	F	1.310528	0.624415	1.281239
F207	F	1.643861	0.957748	1.614572
F208	F	0.977170	0.291191	0.679344
F209	F	1.310503	0.624525	1.012678
F210	F	1.643837	0.957858	1.346011
F211	F	0.977200	0.291024	1.082974
F212	F	1.310534	0.624357	1.416307
F213	F	1.643867	0.957691	1.749640
F214	F	0.520537	0.511652	0.404155
F215	F	0.853871	0.844985	0.737489
F216	F	1.187204	1.178319	1.070822
H217	H	0.904448	0.264916	0.871929
H218	H	1.237781	0.598250	1.205262
H219	H	1.571114	0.931583	1.538595
H220	H	0.647933	0.498340	0.393601
H221	H	0.981266	0.831674	0.726934
H222	H	1.314600	1.165007	1.060268
H223	H	0.450161	0.389270	0.214555
H224	H	0.783494	0.722603	0.547889
H225	H	1.116827	1.055936	0.881222
F226	F	0.803231	0.511431	0.552527
F227	F	1.136565	0.844764	0.885860
F228	F	1.469898	1.178097	1.219193
F229	F	0.906405	0.246192	0.744322
F230	F	1.239738	0.579525	1.077656
F231	F	1.573071	0.912859	1.410989
H232	H	0.875828	0.537528	0.763576
H233	H	1.209161	0.870861	1.096910
H234	H	1.542494	1.204195	1.430243
H235	H	0.813789	0.497852	1.082550
H236	H	1.147123	0.831185	1.415883
H237	H	1.480456	1.164518	1.749217
H238	H	0.244301	0.498230	0.393746
H239	H	0.577634	0.831564	0.727079
H240	H	0.910968	1.164897	1.060413
H241	H	0.536595	0.304541	0.241149
H242	H	0.869928	0.637874	0.574483
H243	H	1.203262	0.971207	0.907816
H244	H	0.942375	0.886009	0.265276
H245	H	1.275709	1.219342	0.598609
H246	H	1.609042	1.552676	0.931942
H247	H	0.132963	0.304430	0.241289
H248	H	0.466296	0.637764	0.574623
H249	H	0.799629	0.971097	0.907956
H250	H	0.813791	0.497917	0.963842
H251	H	1.147124	0.831250	1.297175
H252	H	1.480457	1.164583	1.630509
F253	F	0.874043	0.556271	0.891174
F254	F	1.207376	0.889604	1.224508
F255	F	1.540710	1.222937	1.557841
H256	H	0.449448	0.413538	0.420288
H257	H	0.782781	0.746871	0.753622
H258	H	1.116115	1.080204	1.086955
F259	F	0.116906	0.511537	0.404303
F260	F	0.450240	0.844871	0.737637
F261	F	0.783573	1.178204	1.070970
F262	F	0.322510	0.415167	0.434509
F263	F	0.655843	0.748500	0.767843
F264	F	0.989177	1.081833	1.101176
F265	F	0.260362	0.291113	0.230735
F266	F	0.593695	0.624447	0.564068
F267	F	0.927028	0.957780	0.897402
H268	H	0.813778	0.498039	0.678920
H269	H	1.147112	0.831372	1.012254
H270	H	1.480445	1.164706	1.345587
H271	H	0.331457	0.389246	0.214598
H272	H	0.664791	0.722579	0.547931
H273	H	0.998124	1.055913	0.881265
