data_functionalizedCrystal
_audit_creation_method	'MofGen! by Chris Wilmer'
_symmetry_space_group_name_H-M	'P1'
_symmetry_Int_Tables_number	1
_symmetry_cell_setting	triclinic
loop_
_symmetry_equiv_pos_as_xyz
  x,y,z
_cell_length_a	14.560438
_cell_length_b	19.377369
_cell_length_c	14.560438
_cell_angle_alpha	72.125218
_cell_angle_beta	90.000200
_cell_angle_gamma	48.638108
loop_
_atom_site_label
_atom_site_type_symbol
_atom_site_fract_x
_atom_site_fract_y
_atom_site_fract_z
Zr1	Zr	0.701544	0.779874	0.063587
O2	O	0.519983	0.928511	-0.047975
O3	O	0.781417	0.631237	0.073456
O4	O	0.746502	0.779875	-0.083059
O5	O	0.554895	0.779872	0.259680
O6	O	0.897640	0.779877	-0.083056
O7	O	0.554898	0.779872	0.108540
O8	O	0.960096	0.513990	0.196921
O9	O	0.492438	1.045759	-0.020297
O10	O	0.899019	0.692375	0.107063
O11	O	0.786224	0.692374	0.219855
O12	O	0.745116	0.867376	0.035579
O13	O	0.632322	0.867375	0.148370
Zr14	Zr	0.942587	0.779877	0.304642
Zr15	Zr	0.942591	0.779877	0.063592
Zr16	Zr	0.701539	0.779874	0.304638
Zr17	Zr	0.657614	0.966872	0.107730
Zr18	Zr	0.986517	0.592879	0.260499
O19	O	0.862714	0.928515	0.294774
O20	O	0.862721	0.928515	-0.047969
O21	O	0.519976	0.928510	0.294767
O22	O	1.124148	0.631241	0.416205
O23	O	1.124155	0.631241	0.073462
O24	O	0.781410	0.631236	0.416198
O25	O	1.089236	0.779879	0.108550
O26	O	0.897629	0.779876	0.451289
O27	O	0.746491	0.779874	0.451286
O28	O	1.089233	0.779879	0.259690
O29	O	0.684039	1.045761	-0.020294
O30	O	0.960092	0.513990	0.388523
O31	O	1.151692	0.513992	0.388527
O32	O	1.151696	0.513993	0.196924
O33	O	0.492435	1.045759	0.171306
O34	O	0.684035	1.045761	0.171309
O35	O	0.899014	0.692375	0.332651
O36	O	1.011809	0.692377	0.219859
O37	O	0.857907	0.867378	0.148375
O38	O	0.745112	0.867376	0.261166
C39	C	0.877015	0.545970	0.128899
C40	C	0.895665	0.466585	0.110159
C41	C	0.520552	0.779872	0.184109
C42	C	0.418221	0.779870	0.184107
C43	C	0.450478	0.688523	0.221422
C44	C	0.354322	0.688528	0.221433
C45	C	0.193654	0.871235	0.146808
C46	C	0.289809	0.871229	0.146804
C47	C	0.543237	0.583039	0.264502
C48	C	0.447081	0.583044	0.264513
C49	C	0.663091	0.205183	0.343225
C50	C	0.680769	0.130497	0.325696
C51	C	0.798518	0.130509	0.207951
C52	C	0.780855	0.205192	0.225473
C53	C	0.713139	0.242524	0.293111
C54	C	0.830903	0.242533	0.175359
C55	C	0.813236	0.317214	0.192876
C56	C	0.745520	0.354554	0.260508
C57	C	0.695472	0.317205	0.310628
C58	C	0.898611	0.205205	0.107716
C59	C	0.948659	0.242546	0.057602
C60	C	0.931000	0.317223	0.075124
C61	C	0.863284	0.354563	0.142756
C62	C	0.981048	0.354572	0.025004
C63	C	0.963381	0.429253	0.042521
C64	C	0.845617	0.429243	0.160273
C65	C	1.123579	0.779880	0.184121
C66	C	1.225910	0.779881	0.184123
C67	C	0.822071	0.779876	-0.117402
C68	C	0.822073	0.779876	-0.219734
C69	C	0.767115	1.013781	0.239331
C70	C	0.748466	1.093166	0.258071
C71	C	0.905330	0.779882	-0.267816
C72	C	0.905326	0.779877	-0.363966
C73	C	0.738797	0.779867	-0.363946
C74	C	0.738808	0.779864	-0.267795
C75	C	1.001471	0.779892	-0.267830
C76	C	1.001466	0.779888	-0.363980
C77	C	0.822059	0.779875	0.485632
C78	C	0.822057	0.779875	0.587964
C79	C	1.178529	0.545974	0.128905
C80	C	1.299509	0.466590	0.110167
C81	C	0.877009	0.545970	0.430416
C82	C	0.895657	0.466584	0.514008
C83	C	1.178523	0.545974	0.430422
C84	C	1.299501	0.466589	0.514016
C85	C	0.465608	1.013777	-0.062192
C86	C	0.344630	1.093162	-0.145786
C87	C	0.465602	1.013777	0.239325
C88	C	0.344622	1.093161	0.258063
C89	C	0.767121	1.013781	-0.062186
C90	C	0.748474	1.093167	-0.145778
C91	C	1.297447	0.429310	0.042479
C92	C	1.411110	0.354730	0.024852
C93	C	1.526834	0.317428	0.074920
C94	C	1.528891	0.354715	0.142612
C95	C	1.415229	0.429298	0.160232
C96	C	0.963289	0.429305	0.612153
C97	C	0.980804	0.354724	0.690708
C98	C	0.930693	0.317419	0.671116
C99	C	0.863051	0.354706	0.572962
C100	C	0.845530	0.429290	0.494410
C101	C	1.415202	0.429311	0.494397
C102	C	1.528880	0.354731	0.572936
C103	C	1.526857	0.317427	0.671092
C104	C	1.411144	0.354713	0.690711
C105	C	1.297466	0.429296	0.612174
C106	C	0.228927	1.130450	-0.126165
C107	C	0.115243	1.205052	-0.204698
C108	C	0.117265	1.242361	-0.302854
C109	C	0.232980	1.205070	-0.322474
C110	C	0.346660	1.130473	-0.243940
C111	C	0.346682	1.130449	0.325743
C112	C	0.233014	1.205049	0.343347
C113	C	0.117290	1.242355	0.293277
C114	C	0.115233	1.205063	0.225589
C115	C	0.228898	1.130470	0.207980
C116	C	0.798602	1.130448	-0.126156
C117	C	0.781105	1.205029	-0.204693
C118	C	0.713472	1.242333	-0.302850
C119	C	0.663344	1.205045	-0.322473
C120	C	0.680849	1.130460	-0.243938
H121	H	0.263534	0.945613	0.116423
Cl122	Cl	0.952734	0.223653	0.769880
H123	H	1.203264	0.459639	0.628161
Cl124	Cl	0.445481	0.532507	0.386987
H125	H	0.089092	0.945616	0.116437
Cl126	Cl	0.235501	1.251978	-0.445876
H127	H	0.790463	0.459634	0.414497
H128	H	0.608276	1.235429	-0.402403
H129	H	0.640021	1.100114	-0.259928
H130	H	0.440867	1.100114	-0.259929
Cl131	Cl	0.610351	0.364136	0.395666
H132	H	1.416873	0.459673	0.414478
H133	H	1.623129	0.324332	0.183372
H134	H	0.912985	0.144400	0.093450
Cl135	Cl	0.760496	0.476175	0.245312
H136	H	1.036172	0.324173	-0.030074
H137	H	0.604892	0.542604	0.344976
Cl138	Cl	1.417845	0.476149	0.245338
Cl139	Cl	1.026302	0.476184	0.636808
H140	H	0.976695	0.850023	-0.418727
Cl141	Cl	0.800066	0.307795	0.548348
H142	H	0.731131	0.415367	0.274765
H143	H	1.203229	0.459681	0.001692
Cl144	Cl	0.883639	0.083573	0.122921
H145	H	1.619376	0.256696	0.060565
H146	H	1.035886	0.324374	0.770622
Cl147	Cl	1.674332	0.307868	0.548249
H148	H	1.619430	0.256696	0.735033
H149	H	1.409515	0.324329	0.770640
Cl150	Cl	0.226351	1.083563	-0.002777
Cl151	Cl	0.617838	0.083559	0.388702
H152	H	1.100066	0.709764	-0.213096
H153	H	0.853673	1.100087	-0.046237
H154	H	0.021036	1.235402	-0.188704
H155	H	1.409410	0.324380	-0.030267
Cl156	Cl	-0.030259	1.251968	0.162655
Cl157	Cl	0.633716	0.532510	0.183310
Cl158	Cl	0.226288	1.083596	0.122898
H159	H	0.024690	1.303101	-0.366792
H160	H	0.024746	1.303093	0.307624
H161	H	0.821926	1.235382	-0.188696
Cl162	Cl	0.691471	1.336102	-0.401569
H163	H	0.967671	0.852250	-0.267565
H164	H	0.607950	0.235580	0.398303
Cl165	Cl	0.461733	0.520549	0.191337
Cl166	Cl	0.492147	1.083571	0.388697
Cl167	Cl	0.235631	1.251909	0.428447
H168	H	1.003790	0.212145	0.002528
H169	H	1.004134	0.459657	0.001712
H170	H	0.671026	0.779846	-0.228643
H171	H	1.094939	0.707531	-0.364248
Cl172	Cl	0.634127	0.779850	-0.424371
