data_functionalizedCrystal
_audit_creation_method	'MofGen! by Chris Wilmer'
_symmetry_space_group_name_H-M	'P1'
_symmetry_Int_Tables_number	1
_symmetry_cell_setting	triclinic
loop_
_symmetry_equiv_pos_as_xyz
  x,y,z
_cell_length_a	16.959454
_cell_length_b	12.759401
_cell_length_c	12.759393
_cell_angle_alpha	89.980858
_cell_angle_beta	89.970108
_cell_angle_gamma	90.019747
loop_
_atom_site_label
_atom_site_type_symbol
_atom_site_fract_x
_atom_site_fract_y
_atom_site_fract_z
Zn1	Zn	-0.314648	1.606213	-0.594015
Zn2	Zn	-0.446848	1.606092	-0.418337
Zn3	Zn	-0.314687	1.430516	-0.418351
Zn4	Zn	-0.446788	1.430487	-0.593976
O5	O	-0.380743	1.518327	-0.506170
O6	O	-0.332194	1.753218	-0.570721
O7	O	-0.429358	1.582762	-0.271318
O8	O	-0.204071	1.453885	-0.441675
O9	O	-0.429320	1.753129	-0.441652
O10	O	-0.204042	1.582969	-0.570735
O11	O	-0.332259	1.453768	-0.271328
O12	O	-0.332201	1.283491	-0.441638
O13	O	-0.429218	1.453836	-0.741002
O14	O	-0.429255	1.283470	-0.570668
O15	O	-0.332136	1.582941	-0.741031
O16	O	-0.557451	1.582735	-0.441614
O17	O	-0.557407	1.453719	-0.570655
C18	C	-0.380726	1.245359	-0.506151
C19	C	-0.380738	1.128583	-0.506168
C20	C	-0.431251	0.963951	-0.438890
C21	C	-0.431235	1.073675	-0.438872
C22	C	-0.330249	1.073761	-0.573479
C23	C	-0.330261	0.964039	-0.573491
C24	C	-0.481757	0.909049	-0.371597
C25	C	-0.532246	0.963864	-0.304284
C26	C	-0.532230	1.073588	-0.304266
C27	C	-0.481725	1.128497	-0.371561
C28	C	-0.586109	1.518239	-0.506152
C29	C	-0.673966	1.518297	-0.506179
C30	C	-1.045448	1.451246	-0.573354
C31	C	-1.045434	1.585701	-0.439092
C32	C	-0.962888	1.585664	-0.439083
C33	C	-0.921618	1.518416	-0.506209
C34	C	-0.962895	1.451205	-0.573344
C35	C	-0.921606	1.652866	-0.371941
C36	C	-0.839055	1.652832	-0.371928
C37	C	-0.797784	1.585588	-0.439060
C38	C	-0.839065	1.518375	-0.506199
C39	C	-0.797795	1.451127	-0.573325
C40	C	-0.839075	1.383918	-0.640470
C41	C	-0.921623	1.383961	-0.640476
C42	C	-0.715235	1.585545	-0.439053
C43	C	-0.715242	1.451086	-0.573315
C44	C	-0.174574	1.518444	-0.506211
C45	C	-0.086718	1.518494	-0.506228
C46	C	-0.380760	1.792360	-0.506189
C47	C	-0.380767	1.909137	-0.506198
C48	C	-0.380666	1.518399	-0.780203
C49	C	-0.380633	1.518430	-0.896980
C50	C	-0.431134	1.451259	-1.061554
C51	C	-0.431163	1.451226	-0.951830
C52	C	-0.330066	1.585662	-0.951860
C53	C	-0.330033	1.585689	-1.061582
C54	C	-0.481673	1.384058	-1.116398
C55	C	-0.532240	1.316824	-1.061525
C56	C	-0.532268	1.316791	-0.951801
C57	C	-0.481730	1.383993	-0.896950
C58	C	-0.380762	1.518316	-0.233202
C59	C	-0.380572	1.518488	-0.116426
H60	H	-0.481777	0.819706	-0.371606
H61	H	-0.805450	1.707557	-0.317256
H62	H	-0.573361	0.919149	-0.249490
H63	H	-1.079062	1.396529	-0.628025
H64	H	-0.573335	1.118215	-0.249450
F65	F	-0.481760	1.383951	-0.780170
H66	H	-0.573436	1.262037	-0.907127
F67	F	-0.965532	1.724435	-0.300510
H68	H	-0.481710	1.217842	-0.371533
F69	F	-0.276281	1.657174	-0.893480
H70	H	-0.481657	1.384079	-1.205741
H71	H	-0.955241	1.329242	-0.695141
F72	F	-0.276504	1.132203	-0.645096
H73	H	-0.289149	0.919408	-0.628294
F74	F	-0.671326	1.379515	-0.644767
H75	H	-0.288858	1.640428	-1.106261
F76	F	-0.795143	1.312346	-0.711903
F77	F	-1.089358	1.657266	-0.367656
H78	H	-0.681629	1.640261	-0.384380
H79	H	-0.573380	1.262103	-1.106193
