data_functionalizedCrystal
_audit_creation_method	'MofGen! by Chris Wilmer'
_symmetry_space_group_name_H-M	'P1'
_symmetry_Int_Tables_number	1
_symmetry_cell_setting	triclinic
loop_
_symmetry_equiv_pos_as_xyz
  x,y,z
_cell_length_a	10.540535
_cell_length_b	14.519709
_cell_length_c	9.016244
_cell_angle_alpha	89.996820
_cell_angle_beta	90.004976
_cell_angle_gamma	95.898106
loop_
_atom_site_label
_atom_site_type_symbol
_atom_site_fract_x
_atom_site_fract_y
_atom_site_fract_z
O1	O	1.684570	-0.129944	0.123263
O2	O	1.315031	-0.142194	0.123284
O3	O	1.509598	-0.001883	0.123259
O4	O	1.490003	-0.270255	0.123287
O5	O	1.509570	-0.001886	-0.123421
O6	O	1.315003	-0.142197	-0.123397
O7	O	1.684541	-0.129947	-0.123418
Cu8	Cu	1.499769	-0.136072	-0.145931
Cu9	Cu	1.499803	-0.136069	0.145797
O10	O	1.489974	-0.270258	-0.123394
C11	C	1.267723	-0.141278	-0.000054
C12	C	1.126803	-0.138532	-0.000046
C13	C	1.091178	-0.036088	-0.000063
C14	C	0.944607	-0.033198	-0.000638
C15	C	0.916973	-0.185297	-0.140652
C16	C	1.063716	-0.187477	-0.140755
C17	C	1.063617	-0.188964	0.139777
C18	C	0.917320	-0.184226	0.141610
C19	C	1.508671	0.032480	-0.000081
C20	C	1.505934	0.134876	-0.000082
C21	C	1.731849	-0.130863	-0.000077
C22	C	1.872770	-0.133609	-0.000075
N23	N	1.499755	-0.136074	-0.351117
C24	C	1.490902	-0.304621	-0.000050
C25	C	1.493638	-0.407017	-0.000039
C26	C	1.495859	0.509826	-0.000043
C27	C	1.498657	0.405503	-0.000054
C28	C	1.500896	0.322354	-0.000064
C29	C	1.503695	0.218025	-0.000072
C30	C	1.395360	-0.210880	-0.586137
C31	C	1.395586	-0.211160	-0.414246
C32	C	1.632255	-0.157964	-0.413461
C33	C	1.631684	-0.158494	-0.585406
C34	C	1.472971	-0.039134	-0.585669
C35	C	1.469919	-0.039763	-0.413715
N36	N	1.499828	-0.136059	0.350983
H37	H	0.868862	-0.259228	-0.145476
O38	O	1.147386	0.016054	0.133393
H39	H	1.201313	-0.030486	0.201168
H40	H	1.296567	-0.197911	-0.627526
O41	O	1.737762	-0.089121	-0.640511
H42	H	1.805047	-0.125219	-0.708679
H43	H	1.135019	0.002592	-0.100733
O44	O	1.664300	-0.250575	-0.356406
H45	H	1.675779	-0.297544	-0.451505
O46	O	1.564150	0.037529	-0.356829
H47	H	1.559334	0.039803	-0.233925
O48	O	1.418331	-0.306408	-0.359712
H49	H	1.429224	-0.352446	-0.456153
O50	O	1.091970	-0.288807	0.141624
H51	H	1.196725	-0.291703	0.145888
O52	O	0.851383	-0.281306	0.153432
H53	H	0.884978	-0.315021	0.254563
O54	O	1.340812	-0.017773	-0.359753
H55	H	1.277783	-0.009435	-0.456413
H56	H	1.711851	-0.104957	-0.372566
O57	O	1.265133	-0.193733	-0.358396
H58	H	1.201313	-0.185032	-0.454201
H59	H	0.889113	-0.146611	0.245611
O60	O	1.093216	-0.286952	-0.148690
H61	H	1.149763	-0.297119	-0.250144
H62	H	1.106415	-0.156996	0.246367
H63	H	1.412297	-0.282382	-0.629324
O64	O	1.662991	-0.252158	-0.638516
H65	H	1.590388	-0.306535	-0.595975
H66	H	0.886421	-0.149838	-0.245680
H67	H	1.378446	-0.018300	-0.629114
O68	O	1.573862	0.034641	-0.639538
H69	H	1.642809	0.002493	-0.711082
H70	H	0.916553	0.007024	-0.102013
O71	O	0.906313	0.020369	0.132797
H72	H	0.935134	-0.014103	0.235532
O73	O	1.117400	-0.141247	-0.280491
H74	H	1.038514	-0.117543	-0.347352
