data_functionalizedCrystal
_audit_creation_method	'MofGen! by Chris Wilmer'
_symmetry_space_group_name_H-M	'P1'
_symmetry_Int_Tables_number	1
_symmetry_cell_setting	triclinic
loop_
_symmetry_equiv_pos_as_xyz
  x,y,z
_cell_length_a	23.532407
_cell_length_b	23.532409
_cell_length_c	22.010155
_cell_angle_alpha	90.007292
_cell_angle_beta	89.996931
_cell_angle_gamma	82.849119
loop_
_atom_site_label
_atom_site_type_symbol
_atom_site_fract_x
_atom_site_fract_y
_atom_site_fract_z
O1	O	0.755264	0.069127	-0.050445
O2	O	1.005264	0.319127	0.199555
O3	O	1.255264	0.569127	0.449555
O4	O	1.505264	0.819127	0.699555
O5	O	0.589401	0.079130	-0.050463
O6	O	0.839401	0.329130	0.199537
O7	O	1.089401	0.579130	0.449537
O8	O	1.339401	0.829130	0.699537
O9	O	0.677334	-0.008803	-0.050454
O10	O	0.927334	0.241197	0.199546
O11	O	1.177334	0.491197	0.449546
O12	O	1.427334	0.741197	0.699546
O13	O	0.667332	0.157060	-0.050454
O14	O	0.917332	0.407060	0.199546
O15	O	1.167332	0.657060	0.449546
O16	O	1.417332	0.907060	0.699546
O17	O	0.677318	-0.008790	0.050596
O18	O	0.927318	0.241210	0.300596
O19	O	1.177318	0.491210	0.550596
O20	O	1.427318	0.741210	0.800596
O21	O	0.589385	0.079143	0.050588
O22	O	0.839385	0.329143	0.300588
O23	O	1.089385	0.579143	0.550588
O24	O	1.339385	0.829143	0.800588
O25	O	0.755248	0.069140	0.050605
O26	O	1.005248	0.319140	0.300605
O27	O	1.255248	0.569140	0.550605
O28	O	1.505248	0.819140	0.800605
Cu29	Cu	0.672315	0.074143	0.059823
Cu30	Cu	0.922315	0.324143	0.309823
Cu31	Cu	1.172315	0.574143	0.559823
Cu32	Cu	1.422315	0.824143	0.809823
Cu33	Cu	0.672334	0.074127	-0.059681
Cu34	Cu	0.922334	0.324127	0.190319
Cu35	Cu	1.172334	0.574127	0.440319
Cu36	Cu	1.422334	0.824127	0.690319
O37	O	0.667316	0.157073	0.050596
O38	O	0.917316	0.407073	0.300596
O39	O	1.167316	0.657073	0.550596
O40	O	1.417316	0.907073	0.800596
C41	C	0.568177	0.078882	0.000060
C42	C	0.818177	0.328882	0.250060
C43	C	1.068177	0.578882	0.500060
C44	C	1.318177	0.828882	0.750060
C45	C	0.504960	0.078116	0.000053
C46	C	0.754960	0.328116	0.250053
C47	C	1.004960	0.578116	0.500053
C48	C	1.254960	0.828116	0.750053
C49	C	0.105857	0.125349	0.000081
C50	C	0.355857	0.375349	0.250081
C51	C	0.605857	0.625349	0.500081
C52	C	0.855857	0.875349	0.750081
C53	C	0.046457	0.124638	0.000085
C54	C	0.296457	0.374638	0.250085
C55	C	0.546457	0.624638	0.500085
C56	C	0.796457	0.874638	0.750085
O57	O	0.009713	0.168424	0.000107
O58	O	0.259713	0.418424	0.250107
O59	O	0.509713	0.668424	0.500107
O60	O	0.759713	0.918424	0.750107
N61	N	0.023830	0.072362	0.000084
N62	N	0.273830	0.322362	0.250084
N63	N	0.523830	0.572362	0.500084
N64	N	0.773830	0.822362	0.750084
C65	C	0.060608	0.020794	0.000085
C66	C	0.310608	0.270794	0.250085
C67	C	0.560608	0.520794	0.500085
C68	C	0.810608	0.770794	0.750085
O69	O	0.035908	-0.023737	0.000085
O70	O	0.285908	0.226263	0.250085
O71	O	0.535908	0.476263	0.500085
O72	O	0.785908	0.726263	0.750085
C73	C	0.120007	0.021506	0.000086
C74	C	0.370007	0.271506	0.250086
C75	C	0.620007	0.521506	0.500086
C76	C	0.870007	0.771506	0.750086
C77	C	0.142630	0.073785	0.000081
C78	C	0.392630	0.323785	0.250081
C79	C	0.642630	0.573785	0.500081
C80	C	0.892630	0.823785	0.750081
C81	C	0.128481	0.177625	0.000077
C82	C	0.378481	0.427625	0.250077
C83	C	0.628481	0.677625	0.500077
C84	C	0.878481	0.927625	0.750077
C85	C	0.187877	0.178336	0.000072
C86	C	0.437877	0.428336	0.250072
C87	C	0.687877	0.678336	0.500072
C88	C	0.937877	0.928336	0.750072
C89	C	0.224649	0.126772	0.000071
C90	C	0.474649	0.376772	0.250071
C91	C	0.724649	0.626772	0.500071
C92	C	0.974649	0.876772	0.750071
C93	C	0.202026	0.074496	0.000076
C94	C	0.452026	0.324496	0.250076
C95	C	0.702026	0.574496	0.500076
C96	C	0.952026	0.824496	0.750076
C97	C	0.156783	-0.030062	0.000091
C98	C	0.406783	0.219938	0.250091
C99	C	0.656783	0.469938	0.500091
C100	C	0.906783	0.719938	0.750091
C101	C	0.216185	-0.029345	0.000092
C102	C	0.466185	0.220655	0.250092
C103	C	0.716185	0.470655	0.500092
C104	C	0.966185	0.720655	0.750092
C105	C	0.238808	0.022934	0.000087
C106	C	0.488808	0.272934	0.250087
C107	C	0.738808	0.522934	0.500087
C108	C	0.988808	0.772934	0.750087
C109	C	0.298195	0.023643	0.000070
C110	C	0.548195	0.273643	0.250070
C111	C	0.798195	0.523643	0.500070
C112	C	1.048195	0.773643	0.750070
N113	N	0.320821	0.075920	0.000071
N114	N	0.570821	0.325920	0.250071
N115	N	0.820821	0.575920	0.500071
N116	N	1.070821	0.825920	0.750071
C117	C	0.284049	0.127484	0.000072
C118	C	0.534049	0.377484	0.250072
C119	C	0.784049	0.627484	0.500072
C120	C	1.034049	0.877484	0.750072
C121	C	-0.064135	0.019302	0.000085
C122	C	0.185865	0.269302	0.250085
C123	C	0.435865	0.519302	0.500085
C124	C	0.685865	0.769302	0.750085
C125	C	-0.123533	0.018589	0.000080
C126	C	0.126467	0.268589	0.250080
C127	C	0.376467	0.518589	0.500080
C128	C	0.626467	0.768589	0.750080
C129	C	-0.137679	0.122434	0.000081
C130	C	0.112321	0.372434	0.250081
C131	C	0.362321	0.622434	0.500081
C132	C	0.612321	0.872434	0.750081
C133	C	-0.078280	0.123146	0.000081
C134	C	0.171720	0.373146	0.250081
C135	C	0.421720	0.623146	0.500081
C136	C	0.671720	0.873146	0.750081
C137	C	-0.041508	0.071578	0.000086
C138	C	0.208492	0.321578	0.250086
C139	C	0.458492	0.571578	0.500086
C140	C	0.708492	0.821578	0.750086
C141	C	0.408785	0.128974	0.000061
C142	C	0.658785	0.378974	0.250061
C143	C	0.908785	0.628974	0.500061
C144	C	1.158785	0.878974	0.750061
C145	C	0.468187	0.129680	0.000054
C146	C	0.718187	0.379680	0.250054
C147	C	0.968187	0.629680	0.500054
C148	C	1.218187	0.879680	0.750054
C149	C	0.482329	0.025836	0.000056
C150	C	0.732329	0.275836	0.250056
C151	C	0.982329	0.525836	0.500056
C152	C	1.232329	0.775836	0.750056
C153	C	0.422932	0.025129	0.000060
C154	C	0.672932	0.275129	0.250060
C155	C	0.922932	0.525129	0.500060
C156	C	1.172932	0.775129	0.750060
C157	C	0.386161	0.076702	0.000065
C158	C	0.636161	0.326702	0.250065
C159	C	0.886161	0.576702	0.500065
C160	C	1.136161	0.826702	0.750065
O161	O	0.334973	-0.020119	0.000051
O162	O	0.584973	0.229881	0.250051
O163	O	0.834973	0.479881	0.500051
O164	O	1.084973	0.729881	0.750051
O165	O	0.308757	0.172007	0.000080
O166	O	0.558757	0.422007	0.250080
O167	O	0.808757	0.672007	0.500080
O168	O	1.058757	0.922007	0.750080
C169	C	0.677071	-0.030013	0.000069
C170	C	0.927071	0.219987	0.250069
C171	C	1.177071	0.469987	0.500069
C172	C	1.427071	0.719987	0.750069
C173	C	0.676304	-0.093230	0.000065
C174	C	0.926304	0.156770	0.250065
C175	C	1.176304	0.406770	0.500065
C176	C	1.426304	0.656770	0.750065
C177	C	0.673054	-0.366482	-0.055021
C178	C	0.923054	-0.116482	0.194979
C179	C	1.173054	0.133518	0.444979
C180	C	1.423054	0.383518	0.694979
C181	C	0.673766	-0.307082	-0.055021
C182	C	0.923766	-0.057082	0.194979
C183	C	1.173766	0.192918	0.444979
C184	C	1.423766	0.442918	0.694979
O185	O	0.674161	-0.276363	-0.101865
O186	O	0.924161	-0.026363	0.148135
O187	O	1.174161	0.223637	0.398135
O188	O	1.424161	0.473637	0.648135
N189	N	0.674109	-0.277372	0.000063
N190	N	0.924109	-0.027372	0.250063
N191	N	1.174109	0.222628	0.500063
N192	N	1.424109	0.472628	0.750063
C193	C	0.673747	-0.307067	0.055150
C194	C	0.923747	-0.057067	0.305150
C195	C	1.173747	0.192933	0.555150
C196	C	1.423747	0.442933	0.805150
O197	O	0.674105	-0.276343	0.102003
O198	O	0.924105	-0.026343	0.352003
O199	O	1.174105	0.223657	0.602003
O200	O	1.424105	0.473657	0.852003
C201	C	0.673039	-0.366467	0.055149
C202	C	0.923039	-0.116467	0.305149
C203	C	1.173039	0.133533	0.555149
C204	C	1.423039	0.383533	0.805149
C205	C	0.672690	-0.396172	0.000062
C206	C	0.922690	-0.146172	0.250062
C207	C	1.172690	0.103828	0.500062
C208	C	1.422690	0.353828	0.750062
C209	C	0.672705	-0.396187	-0.110103
C210	C	0.922705	-0.146187	0.139897
C211	C	1.172705	0.103813	0.389897
C212	C	1.422705	0.353813	0.639897
C213	C	0.671993	-0.455583	-0.110103
C214	C	0.921993	-0.205583	0.139897
C215	C	1.171993	0.044417	0.389897
C216	C	1.421993	0.294417	0.639897
C217	C	0.671629	-0.485274	-0.055020
C218	C	0.921629	-0.235274	0.194980
C219	C	1.171629	0.014726	0.444980
C220	C	1.421629	0.264726	0.694980
C221	C	0.671977	-0.455568	0.000062
C222	C	0.921977	-0.205568	0.250062
C223	C	1.171977	0.044432	0.500062
C224	C	1.421977	0.294432	0.750062
C225	C	0.672681	-0.396161	0.110236
C226	C	0.922681	-0.146161	0.360236
C227	C	1.172681	0.103839	0.610236
C228	C	1.422681	0.353839	0.860236
C229	C	0.671974	-0.455565	0.110230
C230	C	0.921974	-0.205565	0.360230
C231	C	1.171974	0.044435	0.610230
C232	C	1.421974	0.294435	0.860230
C233	C	0.671625	-0.485270	0.055143
C234	C	0.921625	-0.235270	0.305143
C235	C	1.171625	0.014730	0.555143
C236	C	1.421625	0.264730	0.805143
C237	C	0.670901	-0.544654	0.055146
C238	C	0.920901	-0.294654	0.305146
C239	C	1.170901	-0.044654	0.555146
C240	C	1.420901	0.205346	0.805146
N241	N	0.670557	-0.574364	0.000062
N242	N	0.920557	-0.324364	0.250062
N243	N	1.170557	-0.074364	0.500062
N244	N	1.420557	0.175636	0.750062
C245	C	0.670921	-0.544673	-0.055021
C246	C	0.920921	-0.294673	0.194979
C247	C	1.170921	-0.044673	0.444979
C248	C	1.420921	0.205327	0.694979
C249	C	0.675234	-0.182324	0.055147
C250	C	0.925234	0.067676	0.305147
C251	C	1.175234	0.317676	0.555147
C252	C	1.425234	0.567676	0.805147
C253	C	0.675937	-0.122925	0.055148
C254	C	0.925937	0.127075	0.305148
C255	C	1.175937	0.377075	0.555148
C256	C	1.425937	0.627075	0.805148
C257	C	0.675957	-0.122944	-0.055023
C258	C	0.925957	0.127056	0.194977
C259	C	1.175957	0.377056	0.444977
C260	C	1.425957	0.627056	0.694977
C261	C	0.675250	-0.182343	-0.055023
C262	C	0.925250	0.067657	0.194977
C263	C	1.175250	0.317657	0.444977
C264	C	1.425250	0.567657	0.694977
C265	C	0.674890	-0.212033	0.000063
C266	C	0.924890	0.037967	0.250063
C267	C	1.174890	0.287967	0.500063
C268	C	1.424890	0.537967	0.750063
C269	C	0.669424	-0.669409	-0.055016
C270	C	0.919424	-0.419409	0.194984
C271	C	1.169424	-0.169409	0.444984
C272	C	1.419424	0.080591	0.694984
C273	C	0.668709	-0.728810	-0.055011
C274	C	0.918709	-0.478810	0.194989
C275	C	1.168709	-0.228810	0.444989
C276	C	1.418709	0.021190	0.694989
C277	C	0.668692	-0.728786	0.055160
C278	C	0.918692	-0.478786	0.305160
C279	C	1.168692	-0.228786	0.555160
C280	C	1.418692	0.021214	0.805160
C281	C	0.669404	-0.669390	0.055155
C282	C	0.919404	-0.419390	0.305155
C283	C	1.169404	-0.169390	0.555155
C284	C	1.419404	0.080610	0.805155
C285	C	0.669772	-0.639703	0.000062
C286	C	0.919772	-0.389703	0.250062
C287	C	1.169772	-0.139703	0.500062
C288	C	1.419772	0.110297	0.750062
O289	O	0.670507	-0.575411	0.101965
O290	O	0.920507	-0.325411	0.351965
O291	O	1.170507	-0.075411	0.601965
O292	O	1.420507	0.174589	0.851965
O293	O	0.670571	-0.575406	-0.101866
O294	O	0.920571	-0.325406	0.148134
O295	O	1.170571	-0.075406	0.398134
O296	O	1.420571	0.174594	0.648134
C297	C	0.776472	0.069388	0.000081
C298	C	1.026472	0.319388	0.250081
C299	C	1.276472	0.569388	0.500081
C300	C	1.526472	0.819388	0.750081
C301	C	0.839689	0.070154	0.000083
C302	C	1.089689	0.320154	0.250083
C303	C	1.339689	0.570154	0.500083
C304	C	1.589689	0.820154	0.750083
C305	C	0.667579	0.178283	0.000071
C306	C	0.917579	0.428283	0.250071
C307	C	1.167579	0.678283	0.500071
C308	C	1.417579	0.928283	0.750071
C309	C	0.668345	0.241500	0.000072
C310	C	0.918345	0.491500	0.250072
C311	C	1.168345	0.741500	0.500072
C312	C	1.418345	0.991500	0.750072
N313	N	0.672306	0.074153	0.143875
N314	N	0.922306	0.324153	0.393875
N315	N	1.172306	0.574153	0.643875
N316	N	1.422306	0.824153	0.893875
N317	N	0.672348	0.074112	-0.143733
N318	N	0.922348	0.324112	0.106267
N319	N	1.172348	0.574112	0.356267
N320	N	1.422348	0.824112	0.606267
C321	C	0.711273	0.035196	0.563659
C322	C	0.961273	0.285196	0.813659
C323	C	1.211273	0.535196	1.063659
C324	C	1.461273	0.785196	1.313659
C325	C	0.711276	0.035192	0.627266
C326	C	0.961276	0.285192	0.877266
C327	C	1.211276	0.535192	1.127266
C328	C	1.461276	0.785192	1.377266
O329	O	0.744384	0.002076	0.660161
O330	O	0.994384	0.252076	0.910161
O331	O	1.244384	0.502076	1.160161
O332	O	1.494384	0.752076	1.410161
N333	N	0.672334	0.074115	0.659083
N334	N	0.922334	0.324115	0.909083
N335	N	1.172334	0.574115	1.159083
N336	N	1.422334	0.824115	1.409083
C337	C	0.633383	0.113041	0.627288
C338	C	0.883383	0.363041	0.877288
C339	C	1.133383	0.613041	1.127288
C340	C	1.383383	0.863041	1.377288
O341	O	0.600260	0.146148	0.660191
O342	O	0.850260	0.396148	0.910191
O343	O	1.100260	0.646148	1.160191
O344	O	1.350260	0.896148	1.410191
C345	C	0.633378	0.113042	0.563682
C346	C	0.883378	0.363042	0.813682
C347	C	1.133378	0.613042	1.063682
C348	C	1.383378	0.863042	1.313682
C349	C	0.672326	0.074120	0.531868
C350	C	0.922326	0.324120	0.781868
C351	C	1.172326	0.574120	1.031868
C352	C	1.422326	0.824120	1.281868
C353	C	0.750217	-0.003723	0.531845
C354	C	1.000217	0.246277	0.781845
C355	C	1.250217	0.496277	1.031845
C356	C	1.500217	0.746277	1.281845
C357	C	0.750215	-0.003719	0.468242
C358	C	1.000215	0.246281	0.718242
C359	C	1.250215	0.496281	0.968242
C360	C	1.500215	0.746281	1.218242
C361	C	0.711269	0.035205	0.436452
C362	C	0.961269	0.285205	0.686452
C363	C	1.211269	0.535205	0.936452
C364	C	1.461269	0.785205	1.186452
C365	C	0.672324	0.074125	0.468265
C366	C	0.922324	0.324125	0.718265
C367	C	1.172324	0.574125	0.968265
C368	C	1.422324	0.824125	1.218265
C369	C	0.594425	0.151965	0.531888
C370	C	0.844425	0.401965	0.781888
C371	C	1.094425	0.651965	1.031888
C372	C	1.344425	0.901965	1.281888
C373	C	0.594423	0.151962	0.468277
C374	C	0.844423	0.401962	0.718277
C375	C	1.094423	0.651962	0.968277
C376	C	1.344423	0.901962	1.218277
C377	C	0.633371	0.113040	0.436464
C378	C	0.883371	0.363040	0.686464
C379	C	1.133371	0.613040	0.936464
C380	C	1.383371	0.863040	1.186464
C381	C	0.633375	0.113054	0.372872
C382	C	0.883375	0.363054	0.622872
C383	C	1.133375	0.613054	0.872872
C384	C	1.383375	0.863054	1.122872
N385	N	0.672317	0.074130	0.341056
N386	N	0.922317	0.324130	0.591056
N387	N	1.172317	0.574130	0.841056
N388	N	1.422317	0.824130	1.091056
C389	C	0.711264	0.035206	0.372846
C390	C	0.961264	0.285206	0.622846
C391	C	1.211264	0.535206	0.872846
C392	C	1.461264	0.785206	1.122846
C393	C	0.633396	0.113036	0.760866
C394	C	0.883396	0.363036	1.010866
C395	C	1.133396	0.613036	1.260866
C396	C	1.383396	0.863036	1.510866
C397	C	0.633403	0.113038	0.824471
C398	C	0.883403	0.363038	1.074471
C399	C	1.133403	0.613038	1.324471
C400	C	1.383403	0.863038	1.574471
C401	C	0.711295	0.035188	0.824445
C402	C	0.961295	0.285188	1.074445
C403	C	1.211295	0.535188	1.324445
C404	C	1.461295	0.785188	1.574445
C405	C	0.711290	0.035189	0.760838
C406	C	0.961290	0.285189	1.010838
C407	C	1.211290	0.535189	1.260838
C408	C	1.461290	0.785189	1.510838
C409	C	0.672337	0.074113	0.729049
C410	C	0.922337	0.324113	0.979049
C411	C	1.172337	0.574113	1.229049
C412	C	1.422337	0.824113	1.479049
C413	C	0.711257	0.035219	0.239274
C414	C	0.961257	0.285219	0.489274
C415	C	1.211257	0.535219	0.739274
C416	C	1.461257	0.785219	0.989274
C417	C	0.711253	0.035229	0.175665
C418	C	0.961253	0.285229	0.425665
C419	C	1.211253	0.535229	0.675665
C420	C	1.461253	0.785229	0.925665
C421	C	0.633359	0.113077	0.175697
C422	C	0.883359	0.363077	0.425697
C423	C	1.133359	0.613077	0.675697
C424	C	1.383359	0.863077	0.925697
C425	C	0.633365	0.113070	0.239301
C426	C	0.883365	0.363070	0.489301
C427	C	1.133365	0.613070	0.739301
C428	C	1.383365	0.863070	0.989301
C429	C	0.672316	0.074136	0.271088
C430	C	0.922316	0.324136	0.521088
C431	C	1.172316	0.574136	0.771088
C432	C	1.422316	0.824136	1.021088
O433	O	0.600283	0.146151	0.339937
O434	O	0.850283	0.396151	0.589937
O435	O	1.100283	0.646151	0.839937
O436	O	1.350283	0.896151	1.089937
O437	O	0.744376	0.002100	0.339935
O438	O	0.994376	0.252100	0.589935
O439	O	1.244376	0.502100	0.839935
O440	O	1.494376	0.752100	1.089935
H441	H	0.378853	0.170970	0.000067
H442	H	0.628853	0.420970	0.250067
H443	H	0.878853	0.670970	0.500067
H444	H	1.128853	0.920970	0.750067
H445	H	-0.059865	0.165717	0.000081
H446	H	0.190135	0.415717	0.250081
H447	H	0.440135	0.665717	0.500081
H448	H	0.690135	0.915717	0.750081
H449	H	0.668422	-0.752993	-0.099871
H450	H	0.918422	-0.502993	0.150129
H451	H	1.168422	-0.252993	0.400129
H452	H	1.418422	-0.002993	0.650129
H453	H	0.669666	-0.645200	0.100011
H454	H	0.919666	-0.395200	0.350011
H455	H	1.169666	-0.145200	0.600011
H456	H	1.419666	0.104800	0.850011
H457	H	0.743004	0.003495	0.734940
H458	H	0.993004	0.253495	0.984940
H459	H	1.243004	0.503495	1.234940
H460	H	1.493004	0.753495	1.484940
Br461	Br	0.673201	-0.355905	-0.184869
Br462	Br	0.923201	-0.105905	0.065131
Br463	Br	1.173201	0.144095	0.315131
Br464	Br	1.423201	0.394095	0.565131
H465	H	0.674964	-0.206525	-0.099880
H466	H	0.924964	0.043475	0.150120
H467	H	1.174964	0.293475	0.400120
H468	H	1.424964	0.543475	0.650120
H469	H	0.676252	-0.098759	-0.099874
H470	H	0.926252	0.151241	0.150126
H471	H	1.176252	0.401241	0.400126
H472	H	1.426252	0.651241	0.650126
Br473	Br	0.803080	-0.056557	0.574978
Br474	Br	1.053080	0.193443	0.824978
Br475	Br	1.303080	0.443443	1.074978
Br476	Br	1.553080	0.693443	1.324978
Br477	Br	0.580506	0.165903	0.132544
Br478	Br	0.830506	0.415903	0.382544
Br479	Br	1.080506	0.665903	0.632544
Br480	Br	1.330506	0.915903	0.882544
H481	H	0.486603	0.172254	0.000049
H482	H	0.736603	0.422254	0.250049
H483	H	0.986603	0.672254	0.500049
H484	H	1.236603	0.922254	0.750049
H485	H	0.674936	-0.206493	0.100008
H486	H	0.924936	0.043507	0.350008
H487	H	1.174936	0.293507	0.600008
H488	H	1.424936	0.543507	0.850008
H489	H	0.676211	-0.098742	0.100006
H490	H	0.926211	0.151258	0.350006
H491	H	1.176211	0.401258	0.600006
H492	H	1.426211	0.651258	0.850006
Br493	Br	0.764151	-0.017637	0.867602
Br494	Br	1.014151	0.232363	1.117602
Br495	Br	1.264151	0.482363	1.367602
Br496	Br	1.514151	0.732363	1.617602
Br497	Br	0.580513	0.165901	0.282474
Br498	Br	0.830513	0.415901	0.532474
Br499	Br	1.080513	0.665901	0.782474
Br500	Br	1.330513	0.915901	1.032474
Br501	Br	0.673146	-0.355860	0.185002
Br502	Br	0.923146	-0.105860	0.435002
Br503	Br	1.173146	0.144140	0.685002
Br504	Br	1.423146	0.394140	0.935002
H505	H	-0.167631	0.164421	0.000084
H506	H	0.082369	0.414421	0.250084
H507	H	0.332369	0.664421	0.500084
H508	H	0.582369	0.914421	0.750084
Br509	Br	0.671490	-0.495855	0.184995
Br510	Br	0.921490	-0.245855	0.434995
Br511	Br	1.171490	0.004145	0.684995
Br512	Br	1.421490	0.254145	0.934995
H513	H	0.671712	-0.479765	-0.154961
H514	H	0.921712	-0.229765	0.095039
H515	H	1.171712	0.020235	0.345039
H516	H	1.421712	0.270235	0.595039
H517	H	-0.141947	-0.023982	0.000074
H518	H	0.108053	0.226018	0.250074
H519	H	0.358053	0.476018	0.500074
H520	H	0.608053	0.726018	0.750074
Br521	Br	0.580552	0.165872	0.867639
Br522	Br	0.830552	0.415872	1.117639
Br523	Br	1.080552	0.665872	1.367639
Br524	Br	1.330552	0.915872	1.617639
Br525	Br	-0.014235	-0.050690	0.000085
Br526	Br	0.235765	0.199310	0.250085
Br527	Br	0.485765	0.449310	0.500085
Br528	Br	0.735765	0.699310	0.750085
Br529	Br	0.580530	0.165870	0.717730
Br530	Br	0.830530	0.415870	0.967730
Br531	Br	1.080530	0.665870	1.217730
Br532	Br	1.330530	0.915870	1.467730
H533	H	0.206291	0.220907	0.000068
H534	H	0.456291	0.470907	0.250068
H535	H	0.706291	0.720907	0.500068
H536	H	0.956291	0.970907	0.750068
H537	H	0.781929	-0.035414	0.442344
H538	H	1.031929	0.214586	0.692344
H539	H	1.281929	0.464586	0.942344
H540	H	1.531929	0.714586	1.192344
Br541	Br	0.126096	-0.101017	0.000085
Br542	Br	0.376096	0.148983	0.250085
Br543	Br	0.626096	0.398983	0.500085
Br544	Br	0.876096	0.648983	0.750085
Br545	Br	0.541553	0.204788	0.425140
Br546	Br	0.791553	0.454788	0.675140
Br547	Br	1.041553	0.704788	0.925140
Br548	Br	1.291553	0.954788	1.175140
Br549	Br	0.078585	0.247615	0.000077
Br550	Br	0.328585	0.497615	0.250077
Br551	Br	0.578585	0.747615	0.500077
Br552	Br	0.828585	0.997615	0.750077
H553	H	0.668393	-0.752971	0.100007
H554	H	0.918393	-0.502971	0.350007
H555	H	1.168393	-0.252971	0.600007
H556	H	1.418393	-0.002971	0.850007
H557	H	0.742971	0.003534	0.149765
H558	H	0.992971	0.253534	0.399765
H559	H	1.242971	0.503534	0.649765
H560	H	1.492971	0.753534	0.899765
H561	H	0.246123	-0.071339	0.000096
H562	H	0.496123	0.178661	0.250096
H563	H	0.746123	0.428661	0.500096
H564	H	0.996123	0.678661	0.750096
H565	H	0.669724	-0.645245	-0.099878
H566	H	0.919724	-0.395245	0.150122
H567	H	1.169724	-0.145245	0.400122
H568	H	1.419724	0.104755	0.650122
H569	H	0.404512	-0.017441	0.000055
H570	H	0.654512	0.232559	0.250055
H571	H	0.904512	0.482559	0.500055
H572	H	1.154512	0.732559	0.750055
H573	H	0.512279	-0.016146	0.000053
H574	H	0.762279	0.233854	0.250053
H575	H	1.012279	0.483854	0.500053
H576	H	1.262279	0.733854	0.750053
Br577	Br	0.764119	-0.017620	0.282403
Br578	Br	1.014119	0.232380	0.532403
Br579	Br	1.264119	0.482380	0.782403
Br580	Br	1.514119	0.732380	1.032403
H581	H	0.562710	0.183658	0.557782
H582	H	0.812710	0.433658	0.807782
H583	H	1.062710	0.683658	1.057782
H584	H	1.312710	0.933658	1.307782
