data_functionalizedCrystal
_audit_creation_method	'MofGen! by Chris Wilmer'
_symmetry_space_group_name_H-M	'P1'
_symmetry_Int_Tables_number	1
_symmetry_cell_setting	triclinic
loop_
_symmetry_equiv_pos_as_xyz
  x,y,z
_cell_length_a	14.044220
_cell_length_b	14.044220
_cell_length_c	13.101039
_cell_angle_alpha	86.326400
_cell_angle_beta	93.671687
_cell_angle_gamma	93.188878
loop_
_atom_site_label
_atom_site_type_symbol
_atom_site_fract_x
_atom_site_fract_y
_atom_site_fract_z
O1	O	-1.272352	-0.234979	0.085111
O2	O	-0.939019	0.098355	0.418444
O3	O	-0.605685	0.431688	0.751777
O4	O	-0.995679	-0.226675	0.085137
O5	O	-0.662346	0.106659	0.418470
O6	O	-0.329012	0.439992	0.751803
O7	O	-1.129863	-0.092490	0.085114
O8	O	-0.796530	0.240843	0.418447
O9	O	-0.463196	0.574176	0.751781
O10	O	-1.138168	-0.369163	0.085133
O11	O	-0.804834	-0.035830	0.418467
O12	O	-0.471501	0.297504	0.751800
O13	O	-1.139494	-0.082850	-0.085318
O14	O	-0.806161	0.250483	0.248016
O15	O	-0.472827	0.583816	0.581349
O16	O	-1.005310	-0.217035	-0.085295
O17	O	-0.671977	0.116299	0.248038
O18	O	-0.338643	0.449632	0.581372
O19	O	-1.281983	-0.225339	-0.085321
O20	O	-0.948650	0.107995	0.248013
O21	O	-0.615316	0.441328	0.581346
Zn22	Zn	-1.145176	-0.219656	-0.112367
Zn23	Zn	-0.811842	0.113677	0.220966
Zn24	Zn	-0.478509	0.447011	0.554299
Zn25	Zn	-1.132486	-0.232357	0.112183
Zn26	Zn	-0.799153	0.100976	0.445517
Zn27	Zn	-0.465820	0.434309	0.778850
O28	O	-1.147799	-0.359523	-0.085298
O29	O	-0.814465	-0.026190	0.248035
O30	O	-0.481132	0.307144	0.581369
C31	C	-0.964872	-0.218219	-0.000076
C32	C	-0.631539	0.115114	0.333257
C33	C	-0.298206	0.448448	0.666591
C34	C	-0.858729	-0.207375	-0.000066
C35	C	-0.525396	0.125958	0.333267
C36	C	-0.192062	0.459292	0.666600
C37	C	-1.131043	-0.052049	-0.000102
C38	C	-0.797710	0.281285	0.333231
C39	C	-0.464376	0.614618	0.666565
C40	C	-1.120198	0.054094	-0.000102
C41	C	-0.786865	0.387428	0.333231
C42	C	-0.453532	0.720761	0.666565
N43	N	-1.123826	-0.241019	0.265433
N44	N	-0.790493	0.092315	0.598767
N45	N	-0.457160	0.425648	0.932100
C46	C	-1.312789	-0.233794	-0.000106
C47	C	-0.979456	0.099539	0.333227
C48	C	-0.646123	0.432872	0.666561
C49	C	-1.418932	-0.244639	-0.000109
C50	C	-1.085599	0.088695	0.333225
C51	C	-0.752266	0.422028	0.666558
C52	C	-0.664393	-0.187548	-0.000088
C53	C	-0.331059	0.145786	0.333245
C54	C	0.002274	0.479119	0.666579
C55	C	-0.613263	-0.264462	-0.000087
C56	C	-0.279929	0.068871	0.333246
C57	C	0.053404	0.402205	0.666580
C58	C	-0.505127	-0.253430	-0.000099
C59	C	-0.171794	0.079904	0.333234
C60	C	0.161539	0.413237	0.666568
C61	C	-0.772538	-0.198578	-0.000076
C62	C	-0.439205	0.134755	0.333257
C63	C	-0.105871	0.468088	0.666591
C64	C	-1.146619	-0.399965	-0.000080
C65	C	-0.813285	-0.066632	0.333253
C66	C	-0.479952	0.266702	0.666587
C67	C	-1.157463	-0.506108	-0.000073
C68	C	-0.824130	-0.172775	0.333260
C69	C	-0.490796	0.160559	0.666594
C70	C	-1.100371	0.248431	-0.000086
C71	C	-0.767038	0.581764	0.333248
C72	C	-0.433705	0.915098	0.666581
C73	C	-1.177286	0.299561	-0.000090
C74	C	-0.843952	0.632894	0.333244
C75	C	-0.510619	0.966228	0.666577
C76	C	-1.166254	0.407697	-0.000080
C77	C	-0.832920	0.741030	0.333253
C78	C	-0.499587	1.074363	0.666586
C79	C	-1.111402	0.140285	-0.000095
C80	C	-0.778069	0.473619	0.333239
C81	C	-0.444735	0.806952	0.666572
N82	N	-1.153843	-0.210988	-0.265617
N83	N	-0.820509	0.122346	0.067716
N84	N	-0.487176	0.455679	0.401049
C85	C	-1.112035	-0.252802	0.474478
C86	C	-0.778702	0.080531	0.807811
C87	C	-0.445368	0.413865	1.141145
C88	C	-1.165631	-0.199207	0.525345
C89	C	-0.832297	0.134126	0.858678
C90	C	-0.498964	0.467459	1.192011
C91	C	-1.159070	-0.205764	0.641664
C92	C	-0.825737	0.127570	0.974997
C93	C	-0.492403	0.460903	1.308331
C94	C	-1.118595	-0.246247	0.358148
C95	C	-0.785261	0.087087	0.691481
C96	C	-0.451928	0.420420	1.024814
H97	H	-0.650701	-0.338596	-0.000077
H98	H	-0.317368	-0.005263	0.333256
H99	H	0.015965	0.328071	0.666590
H100	H	-1.061226	-0.303606	0.518284
H101	H	-0.727893	0.029728	0.851617
H102	H	-0.394559	0.363061	1.184950
C103	C	-1.234269	-0.130560	0.466161
C104	C	-0.900935	0.202773	0.799494
C105	C	-0.567602	0.536106	1.132827
N106	N	-1.285961	-0.078854	0.421579
N107	N	-0.952628	0.254480	0.754912
N108	N	-0.619294	0.587813	1.088245
C109	C	-1.277439	0.248986	-0.000113
C110	C	-0.944106	0.582319	0.333220
C111	C	-0.610772	0.915653	0.666553
N112	N	-1.352872	0.210888	-0.000137
N113	N	-1.019538	0.544222	0.333197
N114	N	-0.686205	0.877555	0.666530
H115	H	-0.626956	-0.113419	-0.000099
H116	H	-0.293623	0.219914	0.333234
H117	H	0.039710	0.553247	0.666568
C118	C	-1.000227	0.299008	-0.000090
C119	C	-0.666893	0.632341	0.333244
C120	C	-0.333560	0.965675	0.666577
N121	N	-0.924799	0.337114	-0.000101
N122	N	-0.591466	0.670447	0.333232
N123	N	-0.258132	1.003781	0.666566
