data_functionalizedCrystal
_audit_creation_method	'MofGen! by Chris Wilmer'
_symmetry_space_group_name_H-M	'P1'
_symmetry_Int_Tables_number	1
_symmetry_cell_setting	triclinic
loop_
_symmetry_equiv_pos_as_xyz
  x,y,z
_cell_length_a	10.686220
_cell_length_b	18.050590
_cell_length_c	10.686551
_cell_angle_alpha	94.409718
_cell_angle_beta	89.691918
_cell_angle_gamma	94.400502
loop_
_atom_site_label
_atom_site_type_symbol
_atom_site_fract_x
_atom_site_fract_y
_atom_site_fract_z
Zn1	Zn	1.972267	-0.181058	0.562364
Zn2	Zn	1.956022	-0.315478	0.352590
Zn3	Zn	1.746383	-0.200056	0.368680
Zn4	Zn	1.762452	-0.313973	0.578368
O5	O	1.859281	-0.252641	0.465500
O6	O	2.145654	-0.191568	0.521106
O7	O	1.914689	-0.308747	0.179178
O8	O	1.776420	-0.093606	0.394409
O9	O	2.133719	-0.290326	0.366986
O10	O	1.942376	-0.079649	0.536708
O11	O	1.760668	-0.223948	0.190999
O12	O	1.572972	-0.222488	0.409926
O13	O	1.803808	-0.287761	0.751791
O14	O	1.584778	-0.306182	0.563983
O15	O	1.957958	-0.190109	0.740034
O16	O	1.930271	-0.419208	0.382503
O17	O	1.788056	-0.418102	0.548381
C18	C	1.533359	-0.266234	0.490438
C19	C	1.393930	-0.272065	0.501136
C20	C	1.859181	-0.445600	0.465458
C21	C	1.859256	-0.528141	0.465473
C22	C	1.936775	-0.728153	0.375372
C23	C	1.976211	-0.770629	0.487518
C24	C	1.859331	-0.679266	0.465517
C25	C	1.820026	-0.783864	0.353412
C26	C	1.859405	-0.825247	0.465550
C27	C	1.898830	-0.720649	0.577719
C28	C	1.742586	-0.733886	0.443540
C29	C	1.781985	-0.776338	0.555769
C30	C	1.859291	-0.595171	0.465496
C31	C	1.859445	-0.909340	0.465584
C32	C	2.186476	-0.238996	0.440466
C33	C	2.325907	-0.233181	0.429798
C34	C	1.884487	-0.236648	0.792702
C35	C	1.895229	-0.229832	0.932137
C36	C	1.859418	-0.058926	0.465568
C37	C	1.859476	0.023624	0.465597
C38	C	1.834245	-0.268516	0.139566
C39	C	1.823746	-0.275112	0.000114
H40	H	1.345494	-0.309824	0.570394
H41	H	1.754332	-0.319093	0.951640
H42	H	2.002297	-0.706968	0.299210
H43	H	1.964656	-0.185853	0.980615
O44	O	2.094089	-0.790111	0.509512
C45	C	2.308960	-0.787666	0.439413
C46	C	2.175518	-0.765577	0.414352
H47	H	2.374838	-0.767827	0.362507
H48	H	2.307762	-0.850844	0.440062
H49	H	2.343086	-0.760635	0.534288
H50	H	2.141311	-0.792558	0.319476
H51	H	2.176793	-0.702393	0.413783
H52	H	1.374337	-0.195429	0.360537
H53	H	1.716530	-0.797375	0.632098
O54	O	1.938697	-0.687784	0.690770
C55	C	1.983308	-0.572633	0.817607
C56	C	1.938162	-0.609756	0.689518
H57	H	1.982865	-0.509543	0.816647
H58	H	2.082602	-0.587976	0.836568
H59	H	1.917787	-0.592907	0.894474
H60	H	2.003591	-0.589502	0.612570
H61	H	1.838844	-0.594416	0.670666
H62	H	1.643850	-0.717523	0.424893
H63	H	1.786753	-0.811403	0.258594
