data_functionalizedCrystal
_audit_creation_method	'MofGen! by Chris Wilmer'
_symmetry_space_group_name_H-M	'P1'
_symmetry_Int_Tables_number	1
_symmetry_cell_setting	triclinic
loop_
_symmetry_equiv_pos_as_xyz
  x,y,z
_cell_length_a	17.639181
_cell_length_b	17.640280
_cell_length_c	17.640968
_cell_angle_alpha	65.682561
_cell_angle_beta	87.836484
_cell_angle_gamma	70.392638
loop_
_atom_site_label
_atom_site_type_symbol
_atom_site_fract_x
_atom_site_fract_y
_atom_site_fract_z
Zn1	Zn	1.336294	-0.572283	-0.060694
Zn2	Zn	1.336229	-0.737935	0.104928
Zn3	Zn	1.181920	-0.561073	0.037942
Zn4	Zn	1.226345	-0.682203	-0.060727
O5	O	1.270197	-0.638373	0.005362
O6	O	1.446878	-0.622272	-0.010676
O7	O	1.297140	-0.733107	0.206649
O8	O	1.183832	-0.442541	-0.003163
O9	O	1.446830	-0.743976	0.111006
O10	O	1.297250	-0.450776	-0.075630
O11	O	1.183770	-0.603167	0.157435
O12	O	1.077220	-0.549126	-0.003195
O13	O	1.259550	-0.648989	-0.171330
O14	O	1.109860	-0.638119	-0.075687
O15	O	1.340328	-0.568231	-0.171305
O16	O	1.340218	-0.850561	0.110974
O17	O	1.259487	-0.809615	-0.010733
C18	C	1.064865	-0.586359	-0.046714
C19	C	0.977029	-0.564124	-0.069006
C20	C	1.304691	-0.861210	0.057374
C21	C	1.319524	-0.956555	0.079617
C22	C	0.687921	-0.807475	0.174749
C23	C	0.605386	-0.786570	0.153792
C24	C	0.605487	-0.659991	0.026976
C25	C	0.688023	-0.680883	0.047924
C26	C	0.729234	-0.754627	0.121811
C27	C	0.729336	-0.628035	-0.005014
C28	C	0.811866	-0.648929	0.015930
C29	C	0.853084	-0.722671	0.089813
C30	C	0.811764	-0.775521	0.142755
C31	C	0.688125	-0.554295	-0.078904
C32	C	0.729438	-0.501447	-0.131842
C33	C	0.811968	-0.522337	-0.110895
C34	C	0.853186	-0.596079	-0.037012
C35	C	0.853288	-0.469487	-0.163837
C36	C	0.935818	-0.490381	-0.142893
C37	C	0.935716	-0.616973	-0.016068
C38	C	1.157883	-1.163671	-0.163820
C39	C	1.171818	-1.253266	-0.142894
C40	C	1.255963	-1.295837	-0.016247
C41	C	1.242038	-1.206243	-0.037164
C42	C	1.192996	-1.140167	-0.110951
C43	C	1.277152	-1.182739	0.015704
C44	C	1.263224	-1.093154	-0.005210
C45	C	1.214183	-1.027072	-0.078992
C46	C	1.179069	-1.050581	-0.131865
C47	C	1.326189	-1.248817	0.089493
C48	C	1.361302	-1.225313	0.142362
C49	C	1.347379	-1.135726	0.121445
C50	C	1.298338	-1.069645	0.047663
C51	C	1.382493	-1.112217	0.174318
C52	C	1.368566	-1.022632	0.153404
C53	C	1.284410	-0.980059	0.026749
C54	C	1.476331	-0.690591	0.057641
C55	C	1.564174	-0.712844	0.079919
C56	C	1.304902	-0.603644	-0.200798
C57	C	1.319691	-0.588844	-0.288652
C58	C	1.235593	-0.414669	-0.046865
C59	C	1.220847	-0.319339	-0.069121
C60	C	1.158076	-0.750416	-0.577645
C61	C	1.171988	-0.736502	-0.660195
C62	C	1.256096	-0.652416	-0.660159
C63	C	1.242188	-0.666319	-0.577609
C64	C	1.193178	-0.715320	-0.536358
C65	C	1.277290	-0.631223	-0.536322
C66	C	1.263386	-0.645129	-0.453777
C67	C	1.214381	-0.694130	-0.412520
C68	C	1.179275	-0.729226	-0.453813
C69	C	1.326304	-0.582228	-0.577572
C70	C	1.361406	-0.547132	-0.536285
C71	C	1.347498	-0.561032	-0.453741
C72	C	1.298492	-0.610034	-0.412484
C73	C	1.382604	-0.525937	-0.412447
C74	C	1.368700	-0.539843	-0.329903
C75	C	1.284589	-0.623939	-0.329939
C76	C	1.235663	-0.672918	0.210718
C77	C	1.220990	-0.687514	0.298553
H78	H	0.969271	-0.677017	0.044102
Br79	Br	0.965092	-0.751034	0.118237
H80	H	1.397283	-0.511263	-0.296287
H81	H	1.422514	-0.486048	-0.446043
Br82	Br	0.673504	-0.401376	-0.232118
H83	H	0.845319	-0.835566	0.202925
H84	H	1.139141	-0.996778	-0.191955
Br85	Br	0.743859	-0.907559	0.275024
Br86	Br	1.195517	-0.713013	-0.300490
Br87	Br	1.124343	-0.784137	-0.716226
Br88	Br	0.549326	-0.858319	0.225631
Br89	Br	0.549553	-0.559919	-0.073300
H90	H	1.337529	-1.321762	0.106518
Br91	Br	1.427857	-1.314994	0.242497
H92	H	0.819723	-0.409450	-0.224000
H93	H	0.620924	-0.537289	-0.095956
H94	H	1.139344	-0.769102	-0.420234
H95	H	1.422416	-1.166029	0.234399
H96	H	0.969455	-0.447345	-0.185999
Br97	Br	1.322518	-1.385518	0.083889
Br98	Br	1.217864	-0.890376	-0.073399
H99	H	1.202837	-0.954126	-0.096015
H100	H	1.117955	-1.109867	-0.223909
H101	H	1.143232	-1.272397	-0.185958
H102	H	1.244658	-0.663816	-0.296360
Br103	Br	1.416208	-0.990727	0.225162
Br104	Br	1.345179	-0.563362	-0.689596
Br105	Br	1.091552	-0.816906	-0.521659
Br106	Br	1.427921	-0.480638	-0.592273
H107	H	1.296002	-0.612523	-0.693756
