data_functionalizedCrystal
_audit_creation_method	'MofGen! by Chris Wilmer'
_symmetry_space_group_name_H-M	'P1'
_symmetry_Int_Tables_number	1
_symmetry_cell_setting	triclinic
loop_
_symmetry_equiv_pos_as_xyz
  x,y,z
_cell_length_a	12.594516
_cell_length_b	16.625547
_cell_length_c	16.625539
_cell_angle_alpha	89.972942
_cell_angle_beta	90.023327
_cell_angle_gamma	89.984761
loop_
_atom_site_label
_atom_site_type_symbol
_atom_site_fract_x
_atom_site_fract_y
_atom_site_fract_z
Zn1	Zn	-0.423763	-1.232716	0.456077
Zn2	Zn	-0.601765	-1.232635	0.321256
Zn3	Zn	-0.423798	-1.097878	0.321242
Zn4	Zn	-0.601698	-1.097864	0.456030
O5	O	-0.512756	-1.165273	0.388651
O6	O	-0.447389	-1.345538	0.438218
O7	O	-0.578199	-1.214731	0.208422
O8	O	-0.274848	-1.115805	0.339142
O9	O	-0.578166	-1.345478	0.339165
O10	O	-0.274822	-1.214870	0.438204
O11	O	-0.447448	-1.115726	0.208411
O12	O	-0.447383	-0.985044	0.339097
O13	O	-0.578052	-1.115780	0.568869
O14	O	-0.578085	-0.985033	0.438125
O15	O	-0.447324	-1.214856	0.568903
O16	O	-0.750701	-1.214717	0.339120
O17	O	-0.750652	-1.115701	0.438139
C18	C	-0.512732	-0.955782	0.388605
C19	C	-0.512747	-0.866161	0.388604
C20	C	-0.512748	-0.793379	0.388611
C21	C	-0.512752	-0.702070	0.388628
C22	C	-0.512760	-0.629294	0.388646
C23	C	-0.512766	-0.537980	0.388662
C24	C	-0.789297	-1.165220	0.388643
C25	C	-0.907602	-1.165272	0.388667
C26	C	-0.976867	-1.111412	0.442485
C27	C	-1.047727	-1.091767	0.368908
C28	C	-1.047541	-1.184990	0.462256
C29	C	-0.976904	-1.145588	0.315051
C30	C	-0.976712	-1.238845	0.408449
C31	C	-1.047540	-1.219228	0.334821
C32	C	-0.235135	-1.165348	0.388677
C33	C	-0.116829	-1.165380	0.388688
C34	C	-0.512677	-1.165326	0.598960
C35	C	-0.512643	-1.165348	0.688581
C36	C	-0.512777	-0.375582	0.388688
C37	C	-0.512774	-0.465203	0.388679
C38	C	-0.512758	-1.165268	0.179160
C39	C	-0.512492	-1.165401	0.089540
C40	C	-0.512524	-1.165385	1.016757
C41	C	-0.512560	-1.165373	0.925449
C42	C	-0.512584	-1.165367	0.852672
C43	C	-0.512619	-1.165354	0.761358
H44	H	-1.078944	-1.029598	0.352194
O45	O	-0.939965	-1.057032	0.496803
C46	C	-0.977480	-1.077137	0.574130
H47	H	-1.052472	-1.115093	0.568434
H48	H	-0.996279	-1.019765	0.608853
H49	H	-0.914026	-1.112807	0.607633
O50	O	-0.939513	-1.312970	0.428569
C51	C	-0.975459	-1.333480	0.506218
H52	H	-0.995389	-1.276333	0.540947
H53	H	-0.910599	-1.368051	0.539319
H54	H	-1.049455	-1.372639	0.501177
H55	H	-1.078375	-1.264822	0.289265
O56	O	-0.939872	-1.125632	0.240852
C57	C	-0.827930	-1.125801	0.241741
H58	H	-0.798594	-1.116783	0.305982
H59	H	-0.797110	-1.074944	0.202107
H60	H	-0.797565	-1.185811	0.217851
O61	O	-1.084380	-1.204887	0.536527
C62	C	-0.997905	-1.218019	0.588796
H63	H	-0.924424	-1.234001	0.552110
H64	H	-1.017418	-1.269589	0.631515
H65	H	-0.981947	-1.161087	0.625028
