data_functionalizedCrystal
_audit_creation_method	'MofGen! by Chris Wilmer'
_symmetry_space_group_name_H-M	'P1'
_symmetry_Int_Tables_number	1
_symmetry_cell_setting	triclinic
loop_
_symmetry_equiv_pos_as_xyz
  x,y,z
_cell_length_a	16.109301
_cell_length_b	14.971482
_cell_length_c	14.048226
_cell_angle_alpha	89.994098
_cell_angle_beta	90.001795
_cell_angle_gamma	96.462956
loop_
_atom_site_label
_atom_site_type_symbol
_atom_site_fract_x
_atom_site_fract_y
_atom_site_fract_z
O1	O	-0.108333	1.186793	-0.079138
O2	O	-0.121311	0.926374	-0.079142
O3	O	0.006200	1.063737	-0.079145
O4	O	-0.235844	1.049429	-0.079135
O5	O	0.006208	1.063721	0.079177
O6	O	-0.121304	0.926357	0.079180
O7	O	-0.108326	1.186776	0.079183
Zn8	Zn	-0.114813	1.056564	0.104318
Zn9	Zn	-0.114823	1.056586	-0.104277
O10	O	-0.235837	1.049413	0.079186
C11	C	-0.120728	0.893041	0.000018
C12	C	-0.118990	0.793747	0.000017
C13	C	-0.118167	0.747094	0.086319
C14	C	-0.116521	0.653798	0.086320
C15	C	-0.115704	0.607155	0.000018
C16	C	-0.116524	0.653815	-0.086291
C17	C	-0.118164	0.747110	-0.086291
C18	C	-0.113108	0.459358	-0.086285
C19	C	-0.111469	0.366056	-0.086285
C20	C	-0.111465	0.366046	0.086325
C21	C	-0.113105	0.459341	0.086326
C22	C	-0.113927	0.505994	0.000017
C23	C	-0.266816	1.050000	0.000027
C24	C	-0.359114	1.051738	0.000030
C25	C	-0.581290	0.974270	0.000016
C26	C	-0.668013	0.975909	0.000008
C27	C	-0.648339	1.138886	0.000015
C28	C	-0.561619	1.137246	0.000015
C29	C	-0.528097	1.054935	0.000020
C30	C	-0.701540	1.058215	0.000013
C31	C	-0.795568	1.059993	0.000005
C32	C	-0.434063	1.053156	0.000026
C33	C	0.037179	1.063149	0.000013
C34	C	0.129477	1.061412	0.000003
C35	C	-0.108909	1.220108	0.000021
C36	C	-0.110647	1.319403	0.000016
N37	N	-0.114806	1.056556	0.246679
N38	N	-0.114824	1.056601	-0.246638
C39	C	-0.058367	1.117399	0.296496
C40	C	-0.058367	1.117405	0.396153
C41	C	-0.114810	1.056571	0.445992
C42	C	-0.171251	0.995721	0.396169
C43	C	-0.171247	0.995712	0.296513
C44	C	-0.171257	0.995747	0.603883
C45	C	-0.171263	0.995758	0.703546
C46	C	-0.058377	1.117441	0.703523
C47	C	-0.058373	1.117431	0.603868
C48	C	-0.114816	1.056582	0.554051
H49	H	-0.110804	0.328082	-0.156560
H50	H	-0.217223	0.946219	0.744120
O51	O	-0.226167	0.936607	0.555637
C52	C	-0.338109	0.815888	0.566171
C53	C	-0.275981	0.882822	0.620927
H54	H	-0.378388	0.772373	0.618934
H55	H	-0.379757	0.854442	0.519529
H56	H	-0.302130	0.771254	0.519500
H57	H	-0.311891	0.927473	0.667649
H58	H	-0.234334	0.844212	0.667509
O59	O	-0.510026	1.215669	-0.000106
C60	C	-0.466639	1.354446	-0.082155
C61	C	-0.525128	1.265681	-0.082119
H62	H	-0.478817	1.394897	-0.148465
H63	H	-0.478844	1.395008	-0.015941
H64	H	-0.398907	1.339111	-0.082112
H65	H	-0.592881	1.280934	-0.082196
H66	H	-0.512851	1.225145	-0.148327
H67	H	-0.113777	0.497339	-0.156567
H68	H	-0.711320	0.910223	0.000003
H69	H	-0.115852	0.615831	-0.156560
O70	O	-0.118851	0.792513	0.170093
C71	C	-0.048696	0.907958	0.270291
C72	C	-0.047833	0.856608	0.175371
H73	H	0.008725	0.959777	0.274598
H74	H	-0.107565	0.943495	0.274626
H75	H	-0.047864	0.858562	0.331957
H76	H	-0.048635	0.905944	0.113651
H77	H	0.011030	0.821058	0.171119
H78	H	-0.118835	0.785093	-0.156567
H79	H	-0.217205	0.946184	0.436754
H80	H	-0.012409	1.166941	0.255923
H81	H	-0.554000	0.907247	0.000023
H82	H	-0.675644	1.205901	0.000020
H83	H	-0.012410	1.166948	0.436714
O84	O	-0.003467	1.176559	0.555599
C85	C	0.108468	1.297288	0.566088
C86	C	0.046343	1.230363	0.620870
H87	H	0.148743	1.340819	0.618835
H88	H	0.150119	1.258727	0.519470
H89	H	0.072486	1.341908	0.519391
H90	H	0.082256	1.185726	0.667618
H91	H	0.004692	1.268979	0.667427
H92	H	-0.012420	1.166986	0.744090
H93	H	-0.217204	0.946165	0.255953
H94	H	-0.113776	0.497314	0.156600
O95	O	-0.115615	0.608600	0.170218
C96	C	-0.043112	0.590188	0.317727
C97	C	-0.044049	0.641454	0.222750
H98	H	0.014752	0.616717	0.360218
H99	H	-0.101535	0.600345	0.360349
H100	H	-0.041835	0.515493	0.302893
H101	H	-0.045296	0.716164	0.237498
H102	H	0.014371	0.631222	0.180158
O103	O	-0.110551	0.320852	0.170231
C104	C	-0.038046	0.302436	0.317738
C105	C	-0.038984	0.353705	0.222763
H106	H	0.019818	0.328965	0.360229
H107	H	-0.096469	0.312592	0.360361
H108	H	-0.036769	0.227742	0.302901
H109	H	-0.040233	0.428414	0.237514
H110	H	0.019435	0.343474	0.180169
