data_functionalizedCrystal
_audit_creation_method	'MofGen! by Chris Wilmer'
_symmetry_space_group_name_H-M	'P1'
_symmetry_Int_Tables_number	1
_symmetry_cell_setting	triclinic
loop_
_symmetry_equiv_pos_as_xyz
  x,y,z
_cell_length_a	19.288840
_cell_length_b	19.188930
_cell_length_c	17.766277
_cell_angle_alpha	89.988508
_cell_angle_beta	89.983415
_cell_angle_gamma	83.135398
loop_
_atom_site_label
_atom_site_type_symbol
_atom_site_fract_x
_atom_site_fract_y
_atom_site_fract_z
O1	O	0.921371	0.087016	-0.062728
O2	O	1.254704	0.420349	0.270605
O3	O	1.588037	0.753683	0.603938
O4	O	0.719108	0.098784	-0.062703
O5	O	1.052442	0.432117	0.270630
O6	O	1.385775	0.765450	0.603963
O7	O	0.826076	-0.008757	-0.062702
O8	O	1.159410	0.324577	0.270631
O9	O	1.492743	0.657910	0.603965
O10	O	0.814403	0.194556	-0.062730
O11	O	1.147736	0.527890	0.270604
O12	O	1.481069	0.861223	0.603937
O13	O	0.826058	-0.008762	0.062487
O14	O	1.159391	0.324571	0.395820
O15	O	1.492724	0.657904	0.729153
O16	O	0.719090	0.098778	0.062485
O17	O	1.052423	0.432112	0.395818
O18	O	1.385756	0.765445	0.729152
O19	O	0.921352	0.087011	0.062460
O20	O	1.254685	0.420344	0.395794
O21	O	1.588019	0.753677	0.729127
Cu22	Cu	0.820219	0.092894	0.073903
Cu23	Cu	1.153552	0.426227	0.407237
Cu24	Cu	1.486886	0.759561	0.740570
Cu25	Cu	0.820241	0.092900	-0.074147
Cu26	Cu	1.153575	0.426234	0.259187
Cu27	Cu	1.486908	0.759567	0.592520
O28	O	0.814384	0.194551	0.062459
O29	O	1.147717	0.527884	0.395792
O30	O	1.481051	0.861218	0.729125
C31	C	0.693222	0.098405	-0.000106
C32	C	1.026556	0.431739	0.333228
C33	C	1.359889	0.765072	0.666561
C34	C	0.616118	0.097277	-0.000096
C35	C	0.949451	0.430611	0.333238
C36	C	1.282784	0.763944	0.666571
C37	C	0.579924	0.096739	-0.068338
C38	C	0.913258	0.430072	0.264996
C39	C	1.246591	0.763405	0.598329
C40	C	0.507477	0.095671	-0.068347
C41	C	0.840811	0.429004	0.264987
C42	C	1.174144	0.762338	0.598320
C43	C	0.471228	0.095128	-0.000110
C44	C	0.804562	0.428462	0.333224
C45	C	1.137895	0.761795	0.666557
C46	C	0.507430	0.095671	0.068141
C47	C	0.840763	0.429005	0.401475
C48	C	1.174097	0.762338	0.734808
C49	C	0.579875	0.096746	0.068148
C50	C	0.913208	0.430079	0.401482
C51	C	1.246541	0.763412	0.734815
C52	C	0.361890	0.052528	0.052165
C53	C	0.695223	0.385861	0.385498
C54	C	1.028556	0.719195	0.718831
C55	C	0.289447	0.051449	0.052155
C56	C	0.622780	0.384782	0.385488
C57	C	0.956114	0.718116	0.718821
C58	C	0.247784	0.091817	-0.000129
C59	C	0.581118	0.425150	0.333204
C60	C	0.914451	0.758484	0.666538
C61	C	0.278575	0.133255	-0.052415
C62	C	0.611908	0.466588	0.280918
C63	C	0.945242	0.799922	0.614251
C64	C	0.351020	0.134330	-0.052408
C65	C	0.684353	0.467663	0.280925
C66	C	1.017686	0.800996	0.614259
C67	C	0.392674	0.093963	-0.000110
C68	C	0.726008	0.427297	0.333223
C69	C	1.059341	0.760630	0.666557
C70	C	0.133036	0.090122	-0.068386
C71	C	0.466369	0.423455	0.264948
C72	C	0.799702	0.756788	0.598281
C73	C	0.060587	0.089058	-0.068392
C74	C	0.393920	0.422392	0.264941
C75	C	0.727253	0.755725	0.598275
C76	C	0.060542	0.089052	0.068098
C77	C	0.393875	0.422385	0.401431
C78	C	0.727208	0.755718	0.734765
C79	C	0.132988	0.090122	0.068102
C80	C	0.466322	0.423455	0.401436
C81	C	0.799655	0.756788	0.734769
C82	C	0.169231	0.090653	-0.000142
C83	C	0.502565	0.423987	0.333192
C84	C	0.835898	0.757320	0.666525
C85	C	0.825689	-0.034770	-0.000105
C86	C	1.159022	0.298563	0.333228
C87	C	1.492356	0.631896	0.666561
C88	C	0.824554	-0.112275	-0.000099
C89	C	1.157887	0.221059	0.333235
C90	C	1.491221	0.554392	0.666568
C91	C	0.887319	-0.157209	-0.000103
C92	C	1.220653	0.176124	0.333230
C93	C	1.553986	0.509458	0.666564
C94	C	0.886253	-0.230033	-0.000115
C95	C	1.219587	0.103301	0.333218
C96	C	1.552920	0.436634	0.666552
C97	C	0.822418	-0.257919	-0.000108
C98	C	1.155752	0.075415	0.333226
C99	C	1.489085	0.408748	0.666559
C100	C	0.759645	-0.212975	-0.000108
C101	C	1.092978	0.120359	0.333226
C102	C	1.426311	0.453692	0.666559
C103	C	0.760713	-0.140153	-0.000103
C104	C	1.094046	0.193181	0.333230
C105	C	1.427379	0.526514	0.666563
N106	N	0.773618	-0.365917	0.042503
N107	N	1.106951	-0.032584	0.375836
N108	N	1.440284	0.300749	0.709169
N109	N	0.772608	-0.435096	0.042500
N110	N	1.105941	-0.101763	0.375833
N111	N	1.439274	0.231571	0.709167
C112	C	0.819197	-0.477327	-0.000122
C113	C	1.152530	-0.143994	0.333211
C114	C	1.485864	0.189340	0.666544
N115	N	0.866845	-0.447767	-0.042733
N116	N	1.200179	-0.114434	0.290601
N117	N	1.533512	0.218899	0.623934
N118	N	0.867858	-0.378583	-0.042727
N119	N	1.201191	-0.045250	0.290607
N120	N	1.534524	0.288084	0.623940
C121	C	0.821253	-0.336881	-0.000113
C122	C	1.154587	-0.003548	0.333221
C123	C	1.487920	0.329786	0.666554
C124	C	0.880811	-0.601225	-0.000141
C125	C	1.214144	-0.267892	0.333193
C126	C	1.547477	0.065441	0.666526
C127	C	0.879742	-0.674050	-0.000157
C128	C	1.213075	-0.340717	0.333176
C129	C	1.546408	-0.007383	0.666510
C130	C	0.753131	-0.656990	-0.000142
C131	C	1.086465	-0.323657	0.333191
C132	C	1.419798	0.009676	0.666524
C133	C	0.754202	-0.584167	-0.000133
C134	C	1.087535	-0.250834	0.333200
C135	C	1.420869	0.082499	0.666533
C136	C	0.818043	-0.556289	-0.000129
C137	C	1.151377	-0.222956	0.333205
C138	C	1.484710	0.110377	0.666538
C139	C	0.947238	0.087389	-0.000139
C140	C	1.280571	0.420722	0.333194
C141	C	1.613905	0.754056	0.666528
C142	C	1.024343	0.088517	-0.000154
C143	C	1.357676	0.421850	0.333179
C144	C	1.691009	0.755184	0.666512
C145	C	0.814771	0.220565	-0.000139
C146	C	1.148105	0.553898	0.333194
C147	C	1.481438	0.887231	0.666527
C148	C	0.815906	0.298069	-0.000151
C149	C	1.149239	0.631402	0.333182
C150	C	1.482573	0.964736	0.666516
N151	N	0.820209	0.092889	0.178034
N152	N	1.153542	0.426222	0.511367
N153	N	1.486875	0.759556	0.844700
N154	N	0.820257	0.092900	-0.178277
N155	N	1.153591	0.426233	0.155056
N156	N	1.486924	0.759566	0.488390
C157	C	0.867589	0.045293	0.217421
C158	C	1.200923	0.378627	0.550755
C159	C	1.534256	0.711960	0.884088
C160	C	0.867593	0.045290	0.296223
C161	C	1.200927	0.378623	0.629556
C162	C	1.534260	0.711957	0.962890
C163	C	0.820223	0.092894	0.335634
C164	C	1.153557	0.426228	0.668968
C165	C	1.486890	0.759561	1.002301
C166	C	0.772834	0.140494	0.296237
C167	C	1.106167	0.473827	0.629571
C168	C	1.439500	0.807160	0.962904
C169	C	0.772826	0.140491	0.217437
C170	C	1.106160	0.473824	0.550770
C171	C	1.439493	0.807158	0.884104
C172	C	0.810929	0.156512	0.460464
C173	C	1.144262	0.489845	0.793798
C174	C	1.477596	0.823179	1.127131
C175	C	0.810941	0.156516	0.539263
C176	C	1.144275	0.489849	0.872596
C177	C	1.477608	0.823182	1.205930
C178	C	0.820242	0.092903	0.578681
C179	C	1.153575	0.426236	0.912014
C180	C	1.486908	0.759570	1.245347
C181	C	0.829545	0.029284	0.539290
C182	C	1.162878	0.362617	0.872623
C183	C	1.496212	0.695950	1.205956
C184	C	0.829538	0.029281	0.460489
C185	C	1.162871	0.362614	0.793823
C186	C	1.496204	0.695947	1.127156
C187	C	0.820226	0.092902	0.421080
C188	C	1.153559	0.426236	0.754413
C189	C	1.486892	0.759569	1.087747
C190	C	0.867629	0.045300	0.703514
C191	C	1.200963	0.378633	1.036847
C192	C	1.534296	0.711966	1.370181
C193	C	0.867629	0.045296	0.782317
C194	C	1.200962	0.378629	1.115651
C195	C	1.534295	0.711962	1.448984
C196	C	0.772872	0.140505	0.782330
C197	C	1.106206	0.473839	1.115663
C198	C	1.439539	0.807172	1.448997
C199	C	0.772870	0.140504	0.703528
C200	C	1.106203	0.473837	1.036862
C201	C	1.439536	0.807170	1.370195
C202	C	0.820252	0.092901	0.664125
C203	C	1.153585	0.426235	0.997458
C204	C	1.486919	0.759568	1.330792
H205	H	0.162458	0.090556	0.123673
H206	H	0.495791	0.423889	0.457006
H207	H	0.829125	0.757223	0.790339
H208	H	0.734300	0.179263	0.814418
H209	H	1.067633	0.512597	1.147751
H210	H	1.400967	0.845930	1.481085
O211	O	0.690795	-0.243051	-0.000099
O212	O	1.024128	0.090282	0.333235
O213	O	1.357462	0.423616	0.666568
H214	H	0.647327	-0.199567	-0.000100
H215	H	0.980661	0.133766	0.333233
H216	H	1.313994	0.467099	0.666566
H217	H	0.477911	0.095231	0.123700
H218	H	0.811244	0.428564	0.457034
H219	H	1.144578	0.761898	0.790367
H220	H	0.734291	0.179263	0.671457
H221	H	1.067624	0.512597	1.004790
H222	H	1.400957	0.845930	1.338123
H223	H	0.930855	-0.710636	-0.000165
H224	H	1.264188	-0.377302	0.333169
H225	H	1.597522	-0.043969	0.666502
H226	H	0.837111	-0.022520	0.428420
H227	H	1.170444	0.310813	0.761754
H228	H	1.503777	0.644147	1.095087
H229	H	0.609343	0.097185	0.123721
H230	H	0.942676	0.430519	0.457054
H231	H	1.276009	0.763852	0.790388
H232	H	0.906209	0.006534	0.814387
H233	H	1.239543	0.339867	1.147721
H234	H	1.572876	0.673200	1.481054
O235	O	0.384232	0.179028	-0.108788
O236	O	0.717565	0.512361	0.224545
O237	O	1.050899	0.845695	0.557878
H238	H	0.343096	0.206925	-0.145144
H239	H	0.676429	0.540258	0.188189
H240	H	1.009762	0.873592	0.521522
H241	H	0.609429	0.097171	-0.123907
H242	H	0.942762	0.430505	0.209426
H243	H	1.276096	0.763838	0.542759
O244	O	0.686505	-0.535695	-0.000121
O245	O	1.019838	-0.202362	0.333212
O246	O	1.353171	0.130971	0.666546
H247	H	0.683961	-0.502118	0.050904
H248	H	1.017294	-0.168785	0.384237
H249	H	1.350628	0.164548	0.717571
H250	H	0.837118	-0.022516	0.571382
H251	H	1.170451	0.310817	0.904715
H252	H	1.503785	0.644151	1.238048
O253	O	0.918722	-0.006047	0.661006
O254	O	1.252055	0.327286	0.994339
O255	O	1.585389	0.660619	1.327672
H256	H	0.951662	-0.039154	0.701637
H257	H	1.284996	0.294179	1.034970
H258	H	1.618329	0.627512	1.368304
O259	O	0.956173	-0.127139	-0.000119
O260	O	1.289507	0.206195	0.333214
O261	O	1.622840	0.539528	0.666547
H262	H	0.999640	-0.170624	-0.000135
H263	H	1.332973	0.162709	0.333198
H264	H	1.666306	0.496043	0.666532
H265	H	0.734242	0.179250	0.185367
H266	H	1.067576	0.512583	0.518700
H267	H	1.400909	0.845916	0.852033
O268	O	0.918701	-0.006045	0.338718
O269	O	1.252034	0.327288	0.672052
O270	O	1.585368	0.660621	1.005385
H271	H	0.952360	0.023268	0.374599
H272	H	1.285694	0.356601	0.707933
H273	H	1.619027	0.689935	1.041266
H274	H	0.478003	0.095233	-0.123919
H275	H	0.811336	0.428567	0.209414
H276	H	1.144669	0.761900	0.542747
H277	H	0.734263	0.179253	0.328330
H278	H	1.067596	0.512586	0.661663
H279	H	1.400930	0.845920	0.994996
O280	O	0.953953	-0.278511	-0.000106
O281	O	1.287286	0.054823	0.333227
O282	O	1.620619	0.388156	0.666561
H283	H	0.984534	-0.268617	-0.051124
H284	H	1.317868	0.064717	0.282209
H285	H	1.651201	0.398050	0.615542
H286	H	0.031028	0.088614	0.123658
H287	H	0.364361	0.421947	0.456991
H288	H	0.697695	0.755281	0.790325
H289	H	0.395806	0.019653	0.094744
H290	H	0.729139	0.352987	0.428077
H291	H	1.062473	0.686320	0.761410
O292	O	0.800883	0.225124	0.417947
O293	O	1.134217	0.558457	0.751280
O294	O	1.467550	0.891791	1.084613
H295	H	0.847251	0.229480	0.382013
H296	H	1.180584	0.562814	0.715347
H297	H	1.513918	0.896147	1.048680
H298	H	0.709600	-0.103566	-0.000100
H299	H	1.042933	0.229767	0.333234
H300	H	1.376267	0.563101	0.666567
O301	O	0.256239	0.006754	0.108542
O302	O	0.589572	0.340087	0.441875
O303	O	0.922906	0.673421	0.775208
H304	H	0.218614	0.040755	0.143823
H305	H	0.551948	0.374089	0.477156
H306	H	0.885281	0.707422	0.810489
H307	H	0.906169	0.006531	0.185341
H308	H	1.239502	0.339865	0.518675
H309	H	1.572836	0.673198	0.852008
H310	H	0.031119	0.088624	-0.123965
H311	H	0.364452	0.421957	0.209368
H312	H	0.697785	0.755291	0.542702
H313	H	0.244654	0.166129	-0.094987
H314	H	0.577987	0.499463	0.238346
H315	H	0.911321	0.832796	0.571680
H316	H	0.932794	-0.578526	-0.000140
H317	H	1.266127	-0.245193	0.333193
H318	H	1.599461	0.088140	0.666526
H319	H	0.701156	-0.679694	-0.000140
H320	H	1.034489	-0.346361	0.333193
H321	H	1.367822	-0.013027	0.666527
O322	O	0.172133	0.090708	-0.141986
O323	O	0.505467	0.424041	0.191347
O324	O	0.838800	0.757374	0.524681
H325	H	0.134789	0.090166	-0.189443
H326	H	0.468123	0.423500	0.143891
H327	H	0.801456	0.756833	0.477224
O328	O	0.800922	0.225129	0.581748
O329	O	1.134255	0.558462	0.915082
O330	O	1.467588	0.891796	1.248415
H331	H	0.794444	0.269362	0.541102
H332	H	1.127777	0.602696	0.874436
H333	H	1.461111	0.936029	1.207769
