data_functionalizedCrystal
_audit_creation_method	'MofGen! by Chris Wilmer'
_symmetry_space_group_name_H-M	'P1'
_symmetry_Int_Tables_number	1
_symmetry_cell_setting	triclinic
loop_
_symmetry_equiv_pos_as_xyz
  x,y,z
_cell_length_a	14.519731
_cell_length_b	13.596369
_cell_length_c	14.519731
_cell_angle_alpha	89.998627
_cell_angle_beta	96.311147
_cell_angle_gamma	90.006024
loop_
_atom_site_label
_atom_site_type_symbol
_atom_site_fract_x
_atom_site_fract_y
_atom_site_fract_z
O1	O	1.223867	0.081796	-0.120977
O2	O	0.955394	0.081798	-0.135193
O3	O	1.096739	0.081788	0.006151
O4	O	1.082523	0.081806	-0.262322
O5	O	1.096721	-0.081795	0.006143
O6	O	0.955377	-0.081785	-0.135201
O7	O	1.223850	-0.081787	-0.120985
Zn8	Zn	1.089610	-0.107759	-0.128094
Zn9	Zn	1.089633	0.107769	-0.128084
O10	O	1.082505	-0.081777	-0.262330
C11	C	0.921026	0.000006	-0.134531
C12	C	0.818645	0.000007	-0.132535
N13	N	1.089602	-0.254850	-0.128101
C14	C	0.735501	0.000010	-0.130913
C15	C	0.631192	0.000011	-0.128887
C16	C	0.548053	0.000011	-0.127278
C17	C	0.443738	0.000013	-0.125252
C18	C	1.089606	-0.343848	-0.128103
C19	C	1.089615	-0.455500	-0.128097
C20	C	1.089627	-0.544490	-0.128086
C21	C	1.089638	-0.656149	-0.128081
C22	C	1.258218	0.000006	-0.121648
C23	C	1.360598	0.000012	-0.123643
C24	C	1.096064	-0.000004	0.040507
C25	C	1.094068	-0.000005	0.142887
N26	N	1.089650	0.254861	-0.128070
C27	C	1.083180	0.000017	-0.296685
C28	C	1.085176	0.000024	-0.399066
C29	C	1.092446	-0.000002	0.226031
C30	C	1.090419	0.000005	0.330340
C31	C	1.088811	0.000012	0.413479
C32	C	1.086785	0.000017	0.517795
