data_functionalizedCrystal
_audit_creation_method	'MofGen! by Chris Wilmer'
_symmetry_space_group_name_H-M	'P1'
_symmetry_Int_Tables_number	1
_symmetry_cell_setting	triclinic
loop_
_symmetry_equiv_pos_as_xyz
  x,y,z
_cell_length_a	14.560432
_cell_length_b	18.426585
_cell_length_c	14.560432
_cell_angle_alpha	60.001496
_cell_angle_beta	90.001356
_cell_angle_gamma	60.000354
loop_
_atom_site_label
_atom_site_type_symbol
_atom_site_fract_x
_atom_site_fract_y
_atom_site_fract_z
Zr1	Zr	0.884741	0.794371	-0.120491
O2	O	0.738091	0.945770	-0.267133
O3	O	0.929698	0.642971	-0.075542
O4	O	0.929692	0.794374	-0.267140
O5	O	0.738100	0.794364	0.075607
O6	O	1.080830	0.794378	-0.267141
O7	O	0.738096	0.794367	-0.075535
O8	O	1.080840	0.523545	0.075593
O9	O	0.738090	1.065196	-0.267127
O10	O	1.061663	0.705246	-0.056366
O11	O	0.948873	0.705242	0.056429
O12	O	0.948866	0.883499	-0.169153
O13	O	0.836077	0.883495	-0.056358
Zr14	Zr	1.125794	0.794371	0.120562
Zr15	Zr	1.125788	0.794375	-0.120491
Zr16	Zr	0.884747	0.794366	0.120562
Zr17	Zr	0.884740	0.984842	-0.120482
Zr18	Zr	1.125795	0.603899	0.120553
O19	O	1.080837	0.945770	0.075613
O20	O	1.080829	0.945777	-0.267133
O21	O	0.738099	0.945763	0.075614
O22	O	1.272444	0.642971	0.267204
O23	O	1.272436	0.642978	-0.075543
O24	O	0.929707	0.642964	0.267205
O25	O	1.272435	0.794378	-0.075536
O26	O	1.080843	0.794367	0.267211
O27	O	0.929706	0.794364	0.267212
O28	O	1.272439	0.794374	0.075606
O29	O	0.929690	1.065200	-0.267128
O30	O	1.080845	0.523541	0.267199
O31	O	1.272445	0.523545	0.267198
O32	O	1.272440	0.523549	0.075593
O33	O	0.738095	1.065192	-0.075522
O34	O	0.929695	1.065196	-0.075522
O35	O	1.061669	0.705242	0.169224
O36	O	1.174458	0.705246	0.056429
O37	O	1.061662	0.883499	-0.056358
O38	O	0.948872	0.883495	0.056438
C39	C	0.703754	0.794364	0.000036
C40	C	0.601424	0.794362	0.000036
C41	C	1.005269	0.556120	0.000024
C42	C	1.005270	0.475260	0.000021
C43	C	0.719167	0.608264	0.117776
C44	C	0.729962	0.515218	0.176640
C45	C	0.633809	0.515222	0.176637
C46	C	0.526853	0.608283	0.117766
C47	C	0.516059	0.701329	0.058902
C48	C	0.612220	0.701314	0.058909
C49	C	0.398317	0.887425	-0.058829
C50	C	0.494468	0.887423	-0.058834
C51	C	0.291361	0.980485	-0.117700
C52	C	0.280565	1.073533	-0.176572
C53	C	0.376726	1.073525	-0.176568
C54	C	0.483673	0.980468	-0.117699
C55	C	1.005263	0.179150	0.000053
C56	C	1.005262	0.261537	0.000047
C57	C	1.005265	0.327203	0.000036
C58	C	1.005266	0.409594	0.000031
C59	C	1.306781	0.794377	0.000035
C60	C	1.409111	0.794379	0.000035
C61	C	1.005260	0.794377	-0.301485
C62	C	1.005257	0.794379	-0.403819
C63	C	1.005266	1.032621	0.000047
C64	C	1.005265	1.113481	0.000051
C65	C	0.887485	0.980477	-0.521587
C66	C	0.828599	1.073523	-0.628543
C67	C	0.828602	1.073519	-0.724690
C68	C	0.887501	0.980458	-0.713876
C69	C	0.946388	0.887412	-0.606920
C70	C	0.946376	0.887427	-0.510777
C71	C	1.064165	0.701316	-0.489153
C72	C	1.064156	0.701318	-0.393005
C73	C	1.123064	0.608256	-0.478340
C74	C	1.181946	0.515208	-0.371381
C75	C	1.181939	0.515216	-0.275231
C76	C	1.123043	0.608273	-0.286048
C77	C	1.005275	0.794364	0.301557
C78	C	1.005278	0.794362	0.403890
C79	C	1.306782	0.556126	0.000024
C80	C	1.409114	0.475268	0.000020
C81	C	1.005277	0.556114	0.301545
C82	C	1.005280	0.475251	0.403875
C83	C	1.306790	0.556120	0.301545
C84	C	1.409124	0.475260	0.403874
C85	C	0.703745	1.032621	-0.301474
C86	C	0.601411	1.113481	-0.403803
C87	C	0.703753	1.032615	0.000047
C88	C	0.601422	1.113473	0.000051
C89	C	1.005258	1.032627	-0.301474
C90	C	1.005255	1.113490	-0.403804
C91	C	1.398291	0.437296	-0.058870
C92	C	1.494433	0.361332	-0.058896
C93	C	1.601396	0.323336	-0.000026
C94	C	1.612216	0.361315	0.058866
C95	C	1.516075	0.437283	0.058885
C96	C	1.064159	0.437278	0.510818
C97	C	1.064158	0.361310	0.606977
C98	C	1.005283	0.323312	0.596190
C99	C	0.946397	0.361293	0.489236
C100	C	0.946392	0.437265	0.393079
C101	C	1.516066	0.437289	0.393051
C102	C	1.612229	0.361323	0.489191
C103	C	1.601447	0.323324	0.596153
C104	C	1.494494	0.361302	0.606974
C105	C	1.398333	0.437271	0.510835
C106	C	0.494469	1.151461	-0.392980
C107	C	0.398306	1.227451	-0.489120
C108	C	0.409088	1.265454	-0.596082
C109	C	0.516041	1.227471	-0.606903
C110	C	0.612202	1.151488	-0.510764
C111	C	0.612244	1.151453	0.058931
C112	C	0.516102	1.227438	0.058931
C113	C	0.409139	1.265437	0.000057
C114	C	0.398319	1.227454	-0.058830
C115	C	0.494460	1.151475	-0.058836
C116	C	1.064141	1.151464	-0.392981
C117	C	1.064160	1.227432	-0.489121
C118	C	1.005286	1.265431	-0.596083
C119	C	0.946398	1.227449	-0.606904
C120	C	0.946386	1.151477	-0.510765
H121	H	0.817054	0.439450	0.224574
N122	N	0.282966	1.268387	-0.477420
H123	H	0.240444	1.255171	-0.514693
H124	H	0.240527	1.344637	-0.514645
H125	H	0.898449	0.468173	0.306005
H126	H	0.330779	1.327324	-0.674356
H127	H	0.193479	1.149295	-0.224495
H128	H	1.311260	0.468177	0.519663
N129	N	0.365083	1.173882	-0.240065
H130	H	0.402361	1.178022	-0.186061
H131	H	0.282719	1.232771	-0.277354
N132	N	1.482744	0.320367	-0.122401
H133	H	1.559873	0.266478	-0.113491
H134	H	1.440206	0.378398	-0.204734
H135	H	0.524807	1.258424	-0.694003
N136	N	0.187658	0.980485	-0.117703
H137	H	0.141377	1.017030	-0.197448
H138	H	0.141472	1.016988	-0.084134
H139	H	0.485669	1.120523	-0.305895
N140	N	1.482878	0.320297	0.722345
H141	H	1.400540	0.355872	0.714626
H142	H	1.520212	0.333517	0.764805
N143	N	1.005287	1.347381	-0.699778
H144	H	1.038795	1.320945	-0.746062
H145	H	1.051505	1.365643	-0.676600
H146	H	0.699276	1.120566	-0.519590
H147	H	0.887463	0.980490	-0.443305
N148	N	0.527777	1.268404	0.122440
H149	H	0.570244	1.210440	0.204806
H150	H	0.450605	1.322322	0.113412
N151	N	0.587382	0.980460	-0.117703
H152	H	0.656770	0.907391	-0.071479
H153	H	0.587337	1.017028	-0.084209
H154	H	0.699330	1.120520	0.106881
N155	N	1.245463	0.414858	-0.159872
H156	H	1.282773	0.355911	-0.167618
H157	H	1.191408	0.410793	-0.117409
H158	H	1.699306	0.330409	0.480361
N159	N	0.305457	1.347375	0.000090
H160	H	0.259182	1.320931	0.033606
H161	H	0.259252	1.410403	-0.079667
N162	N	0.282949	1.268426	-0.122306
H163	H	0.223696	1.322311	-0.113349
H164	H	0.274055	1.210393	-0.091370
H165	H	1.699318	0.330367	0.106796
H166	H	0.642603	0.439456	0.224573
N167	N	0.765073	1.173886	-0.640193
H168	H	0.682709	1.214556	-0.682665
H169	H	0.796036	1.214493	-0.682637
H170	H	0.780655	1.149285	-0.811779
H171	H	1.524866	0.468217	0.305966
N172	N	1.127695	0.320340	0.722322
H173	H	1.118769	0.266448	0.781609
H174	H	1.096794	0.378368	0.731223
H175	H	0.485632	1.120554	-0.106780
H176	H	1.679671	0.261477	-0.000049
N177	N	0.887524	0.980450	-0.817575
H178	H	0.841289	1.053514	-0.886971
H179	H	0.854054	0.943863	-0.817518
H180	H	1.123068	0.608259	-0.556632
N181	N	1.127649	1.110479	-0.277618
H182	H	1.096778	1.168441	-0.268603
H183	H	1.210001	1.078939	-0.268687
H184	H	0.898464	1.258399	-0.694005
H185	H	1.679756	0.261464	0.674427
H186	H	1.112112	1.258349	-0.480289
N187	N	1.245476	0.414846	-0.359721
H188	H	1.236550	0.428962	-0.436859
H189	H	1.214568	0.374204	-0.317207
N190	N	0.882867	1.110525	-0.522446
H191	H	0.845575	1.146131	-0.604796
H192	H	0.823668	1.123754	-0.485128
H193	H	0.797465	0.608251	0.117775
N194	N	1.005314	0.241356	0.699909
H195	H	0.959087	0.223038	0.676857
H196	H	0.971840	0.267858	0.746146
H197	H	0.448566	0.608278	0.117780
H198	H	1.123026	0.608288	-0.207768
H199	H	1.311206	0.468232	-0.106824
H200	H	1.524903	0.468190	0.106847
N201	N	1.127667	0.478249	0.522469
H202	H	1.164958	0.442659	0.604814
H203	H	1.073604	0.554518	0.485138
H204	H	0.898462	0.330343	0.480470
