data_functionalizedCrystal
_audit_creation_method	'MofGen! by Chris Wilmer'
_symmetry_space_group_name_H-M	'P1'
_symmetry_Int_Tables_number	1
_symmetry_cell_setting	triclinic
loop_
_symmetry_equiv_pos_as_xyz
  x,y,z
_cell_length_a	15.944551
_cell_length_b	15.944493
_cell_length_c	12.996460
_cell_angle_alpha	89.999729
_cell_angle_beta	89.998907
_cell_angle_gamma	83.486891
loop_
_atom_site_label
_atom_site_type_symbol
_atom_site_fract_x
_atom_site_fract_y
_atom_site_fract_z
O1	O	1.114503	0.108337	-0.085446
O2	O	1.364503	0.358337	0.164554
O3	O	1.614503	0.608337	0.414554
O4	O	1.864503	0.858337	0.664554
O5	O	0.869950	0.121693	-0.085470
O6	O	1.119950	0.371693	0.164530
O7	O	1.369950	0.621693	0.414530
O8	O	1.619950	0.871693	0.664530
O9	O	0.998930	-0.007263	-0.085466
O10	O	1.248930	0.242737	0.164534
O11	O	1.498930	0.492737	0.414534
O12	O	1.748930	0.742737	0.664534
O13	O	0.985523	0.237293	-0.085450
O14	O	1.235523	0.487293	0.164550
O15	O	1.485523	0.737293	0.414550
O16	O	1.735523	0.987293	0.664550
O17	O	0.998917	-0.007270	0.085668
O18	O	1.248917	0.242730	0.335668
O19	O	1.498917	0.492730	0.585668
O20	O	1.748917	0.742730	0.835668
O21	O	0.869937	0.121686	0.085664
O22	O	1.119937	0.371686	0.335664
O23	O	1.369937	0.621686	0.585664
O24	O	1.619937	0.871686	0.835664
O25	O	1.114489	0.108329	0.085688
O26	O	1.364489	0.358329	0.335688
O27	O	1.614489	0.608329	0.585688
O28	O	1.864489	0.858329	0.835688
Cu29	Cu	0.992212	0.115007	0.101302
Cu30	Cu	1.242212	0.365007	0.351302
Cu31	Cu	1.492212	0.615007	0.601302
Cu32	Cu	1.742212	0.865007	0.851302
Cu33	Cu	0.992228	0.115016	-0.101084
Cu34	Cu	1.242228	0.365016	0.148916
Cu35	Cu	1.492228	0.615016	0.398916
Cu36	Cu	1.742228	0.865016	0.648916
O37	O	0.985510	0.237286	0.085684
O38	O	1.235510	0.487286	0.335684
O39	O	1.485510	0.737286	0.585684
O40	O	1.735510	0.987286	0.835684
C41	C	0.838650	0.121135	0.000094
C42	C	1.088650	0.371135	0.250094
C43	C	1.338650	0.621135	0.500094
C44	C	1.588650	0.871135	0.750094
C45	C	0.745404	0.119473	0.000084
C46	C	0.995404	0.369473	0.250084
C47	C	1.245404	0.619473	0.500084
C48	C	1.495404	0.869473	0.750084
C49	C	0.530565	0.035566	0.000098
C50	C	0.780565	0.285566	0.250098
C51	C	1.030565	0.535566	0.500098
C52	C	1.280565	0.785566	0.750098
C53	C	0.469543	0.074533	-0.084277
C54	C	0.719543	0.324533	0.165723
C55	C	0.969543	0.574533	0.415723
C56	C	1.219543	0.824533	0.665723
C57	C	0.574679	0.116465	0.000096
C58	C	0.824679	0.366465	0.250096
C59	C	1.074679	0.616465	0.500096
C60	C	1.324679	0.866465	0.750096
C61	C	0.469552	0.074545	0.084447
C62	C	0.719552	0.324545	0.334447
C63	C	0.969552	0.574545	0.584447
C64	C	1.219552	0.824545	0.834447
C65	C	0.409767	0.113555	0.000112
C66	C	0.659767	0.363555	0.250112
C67	C	0.909767	0.613555	0.500112
C68	C	1.159767	0.863555	0.750112
C69	C	0.514885	0.155455	-0.084349
C70	C	0.764885	0.405455	0.165651
C71	C	1.014885	0.655455	0.415651
C72	C	1.264885	0.905455	0.665651
C73	C	0.514901	0.155455	0.084451
C74	C	0.764901	0.405455	0.334451
C75	C	1.014901	0.655455	0.584451
C76	C	1.264901	0.905455	0.834451
C77	C	0.453897	0.194481	0.000055
C78	C	0.703897	0.444481	0.250055
C79	C	0.953897	0.694481	0.500055
C80	C	1.203897	0.944481	0.750055
C81	C	0.669681	0.118140	0.000086
C82	C	0.919681	0.368140	0.250086
C83	C	1.169681	0.618140	0.500086
C84	C	1.419681	0.868140	0.750086
C85	C	0.314766	0.111886	0.000115
C86	C	0.564766	0.361886	0.250115
C87	C	0.814766	0.611886	0.500115
C88	C	1.064766	0.861886	0.750115
C89	C	0.998375	-0.038562	0.000097
C90	C	1.248375	0.211438	0.250097
C91	C	1.498375	0.461438	0.500097
C92	C	1.748375	0.711438	0.750097
C93	C	0.996733	-0.131810	0.000083
C94	C	1.246733	0.118190	0.250083
C95	C	1.496733	0.368190	0.500083
C96	C	1.746733	0.618190	0.750083
C97	C	1.072653	-0.367570	0.000110
C98	C	1.322653	-0.117570	0.250110
C99	C	1.572653	0.132430	0.500110
C100	C	1.822653	0.382430	0.750110
C101	C	1.031719	-0.418135	-0.084271
C102	C	1.281719	-0.168135	0.165729
C103	C	1.531719	0.081865	0.415729
C104	C	1.781719	0.331865	0.665729
C105	C	0.993688	-0.302531	0.000096
C106	C	1.243688	-0.052531	0.250096
C107	C	1.493688	0.197469	0.500096
C108	C	1.743688	0.447469	0.750096
C109	C	1.031687	-0.418118	0.084454
C110	C	1.281687	-0.168118	0.334454
C111	C	1.531687	0.081882	0.584454
C112	C	1.781687	0.331882	0.834454
C113	C	0.990754	-0.467441	0.000112
C114	C	1.240754	-0.217441	0.250112
C115	C	1.490754	0.032559	0.500112
C116	C	1.740754	0.282559	0.750112
C117	C	0.952775	-0.351868	-0.084355
C118	C	1.202775	-0.101868	0.165645
C119	C	1.452775	0.148132	0.415645
C120	C	1.702775	0.398132	0.665645
C121	C	0.952755	-0.351847	0.084445
C122	C	1.202755	-0.101847	0.334445
C123	C	1.452755	0.148153	0.584445
C124	C	1.702755	0.398153	0.834445
C125	C	0.911763	-0.402379	0.000043
C126	C	1.161763	-0.152379	0.250043
C127	C	1.411763	0.097621	0.500043
C128	C	1.661763	0.347621	0.750043
C129	C	0.995381	-0.207531	0.000085
C130	C	1.245381	0.042469	0.250085
C131	C	1.495381	0.292469	0.500085
C132	C	1.745381	0.542469	0.750085
C133	C	0.989055	-0.562438	0.000115
C134	C	1.239055	-0.312438	0.250115
C135	C	1.489055	-0.062438	0.500115
C136	C	1.739055	0.187562	0.750115
C137	C	1.145790	0.108887	0.000122
C138	C	1.395790	0.358887	0.250122
C139	C	1.645790	0.608887	0.500122
C140	C	1.895790	0.858887	0.750122
C141	C	1.239036	0.110550	0.000125
C142	C	1.489036	0.360550	0.250125
C143	C	1.739036	0.610550	0.500125
C144	C	1.989036	0.860550	0.750125
C145	C	0.986064	0.268584	0.000119
C146	C	1.236064	0.518584	0.250119
C147	C	1.486064	0.768584	0.500119
C148	C	1.736064	1.018584	0.750119
C149	C	0.987707	0.361833	0.000126
C150	C	1.237707	0.611833	0.250126
C151	C	1.487707	0.861833	0.500126
C152	C	1.737707	1.111833	0.750126
N153	N	0.992207	0.115001	0.243649
N154	N	1.242207	0.365001	0.493649
N155	N	1.492207	0.615001	0.743649
N156	N	1.742207	0.865001	0.993649
N157	N	0.992239	0.115015	-0.243431
N158	N	1.242239	0.365015	0.006569
N159	N	1.492239	0.615015	0.256569
N160	N	1.742239	0.865015	0.506569
C161	C	0.992227	0.115016	0.663463
C162	C	1.242227	0.365016	0.913463
C163	C	1.492227	0.615016	1.163463
C164	C	1.742227	0.865016	1.413463
C165	C	0.992219	0.115015	0.546658
C166	C	1.242219	0.365015	0.796658
C167	C	1.492219	0.615015	1.046658
C168	C	1.742219	0.865015	1.296658
C169	C	0.992217	0.115009	0.453560
C170	C	1.242217	0.365009	0.703560
C171	C	1.492217	0.615009	0.953560
C172	C	1.742217	0.865009	1.203560
C173	C	0.992208	0.115006	0.336747
C174	C	1.242208	0.365006	0.586747
C175	C	1.492208	0.615006	0.836747
C176	C	1.742208	0.865006	1.086747
H177	H	0.449468	0.040310	0.155778
H178	H	0.699468	0.290310	0.405778
H179	H	0.949468	0.540310	0.655778
H180	H	1.199468	0.790310	0.905778
H181	H	1.065072	-0.447077	-0.155604
H182	H	1.315072	-0.197077	0.094396
H183	H	1.565072	0.052923	0.344396
H184	H	1.815072	0.302923	0.594396
H185	H	0.534872	0.189649	-0.155760
H186	H	0.784872	0.439649	0.094240
H187	H	1.034872	0.689649	0.344240
H188	H	1.284872	0.939649	0.594240
H189	H	0.535019	0.189641	0.155792
H190	H	0.785019	0.439641	0.405792
H191	H	1.035019	0.689641	0.655792
H192	H	1.285019	0.939641	0.905792
H193	H	1.140671	-0.351942	0.000032
H194	H	1.390671	-0.101942	0.250032
H195	H	1.640671	0.148058	0.500032
H196	H	1.890671	0.398058	0.750032
C197	C	0.907731	-0.312731	0.180818
C198	C	1.157731	-0.062731	0.430818
C199	C	1.407731	0.187269	0.680818
C200	C	1.657731	0.437269	0.930818
N201	N	0.873823	-0.283271	0.253415
N202	N	1.123823	-0.033271	0.503415
N203	N	1.373823	0.216729	0.753415
N204	N	1.623823	0.466729	1.003415
C205	C	0.442385	0.028310	-0.180647
C206	C	0.692385	0.278310	0.069353
C207	C	0.942385	0.528310	0.319353
C208	C	1.192385	0.778310	0.569353
N209	N	0.421932	-0.006511	-0.253228
N210	N	0.671932	0.243489	-0.003228
N211	N	0.921932	0.493489	0.246772
N212	N	1.171932	0.743489	0.496772
H213	H	0.843692	-0.417845	-0.000010
H214	H	1.093692	-0.167845	0.249990
H215	H	1.343692	0.082155	0.499990
H216	H	1.593692	0.332155	0.749990
H217	H	0.563912	-0.031574	-0.000010
H218	H	0.813912	0.218426	0.249990
H219	H	1.063912	0.468426	0.499990
H220	H	1.313912	0.718426	0.749990
C221	C	0.907767	-0.312934	-0.180841
C222	C	1.157767	-0.062934	0.069159
C223	C	1.407767	0.187066	0.319159
C224	C	1.657767	0.437066	0.569159
N225	N	0.873872	-0.283607	-0.253515
N226	N	1.123872	-0.033607	-0.003515
N227	N	1.373872	0.216393	0.246485
N228	N	1.623872	0.466393	0.496485
H229	H	1.065046	-0.447052	0.155787
H230	H	1.315046	-0.197052	0.405787
H231	H	1.565046	0.052948	0.655787
H232	H	1.815046	0.302948	0.905787
C233	C	0.409074	0.285274	-0.000004
C234	C	0.659074	0.535274	0.249996
C235	C	0.909074	0.785274	0.499996
C236	C	1.159074	1.035274	0.749996
N237	N	0.375311	0.353659	-0.000054
N238	N	0.625311	0.603659	0.249946
N239	N	0.875311	0.853659	0.499946
N240	N	1.125311	1.103659	0.749946
