data_functionalizedCrystal
_audit_creation_method	'MofGen! by Chris Wilmer'
_symmetry_space_group_name_H-M	'P1'
_symmetry_Int_Tables_number	1
_symmetry_cell_setting	triclinic
loop_
_symmetry_equiv_pos_as_xyz
  x,y,z
_cell_length_a	19.851628
_cell_length_b	14.560438
_cell_length_c	14.560438
_cell_angle_alpha	59.995857
_cell_angle_beta	90.003174
_cell_angle_gamma	59.999625
loop_
_atom_site_label
_atom_site_type_symbol
_atom_site_fract_x
_atom_site_fract_y
_atom_site_fract_z
Zr1	Zr	0.648982	1.005212	-0.120483
O2	O	0.541417	1.196840	-0.267162
O3	O	0.681956	0.813598	-0.075510
O4	O	0.681957	1.005209	-0.267126
O5	O	0.541416	1.005226	0.075596
O6	O	0.792819	1.005192	-0.267108
O7	O	0.541416	1.005228	-0.075545
O8	O	0.792818	0.662434	0.075659
O9	O	0.541417	1.347984	-0.267172
O10	O	0.778755	0.892393	-0.056326
O11	O	0.696020	0.892404	0.056455
O12	O	0.696021	1.118002	-0.169149
O13	O	0.613287	1.118014	-0.056368
Zr14	Zr	0.825794	1.005179	0.120598
Zr15	Zr	0.825794	1.005184	-0.120454
Zr16	Zr	0.648983	1.005208	0.120569
Zr17	Zr	0.648984	1.246269	-0.120499
Zr18	Zr	0.825793	0.764122	0.120614
O19	O	0.792820	1.196794	0.075625
O20	O	0.792820	1.196800	-0.267120
O21	O	0.541417	1.196834	0.075583
O22	O	0.933360	0.813551	0.267277
O23	O	0.933360	0.813558	-0.075468
O24	O	0.681957	0.813592	0.267236
O25	O	0.933361	1.005166	-0.075480
O26	O	0.792820	1.005182	0.267242
O27	O	0.681958	1.005200	0.267223
O28	O	0.933361	1.005163	0.075660
O29	O	0.681959	1.347961	-0.267148
O30	O	0.792818	0.662430	0.267264
O31	O	0.933360	0.662408	0.267287
O32	O	0.933359	0.662411	0.075683
O33	O	0.541418	1.347980	-0.075567
O34	O	0.681959	1.347958	-0.075544
O35	O	0.778755	0.892389	0.169264
O36	O	0.861490	0.892378	0.056483
O37	O	0.778756	1.117987	-0.056340
O38	O	0.696022	1.117998	0.056441
C39	C	0.737387	0.703670	0.000077
C40	C	0.737386	0.601335	0.000084
C41	C	0.676310	0.636560	-0.083209
C42	C	0.676314	0.540421	-0.083238
C43	C	0.798473	0.373831	0.083329
C44	C	0.798472	0.469970	0.083352
C45	C	0.516224	1.005231	0.000021
C46	C	0.441163	1.005243	0.000008
C47	C	0.214708	1.128226	-0.061470
C48	C	0.192346	1.066737	-0.106033
C49	C	0.303756	1.005209	0.000041
C50	C	0.192377	1.066706	0.044584
C51	C	0.171024	1.005186	0.000071
C52	C	0.282383	0.943720	-0.044585
C53	C	0.282412	0.943707	0.106091
C54	C	0.260103	0.882128	0.061554
C55	C	0.380218	1.005227	0.000021
C56	C	0.094567	1.005159	0.000090
C57	C	0.958553	1.005160	0.000094
C58	C	1.033614	1.005148	0.000107
C59	C	0.737388	1.005201	-0.301462
C60	C	0.737388	1.005203	-0.403795
C61	C	0.737390	1.306721	0.000038
C62	C	0.737391	1.409056	0.000032
C63	C	0.798462	1.005194	-0.451861
C64	C	0.798465	1.005182	-0.548007
C65	C	0.676311	1.005193	-0.548015
C66	C	0.676313	1.005196	-0.451866
C67	C	0.737389	1.005190	0.301577
C68	C	0.737389	1.005189	0.403910
C69	C	0.958551	0.703635	0.000114
C70	C	1.033612	0.601288	0.000133
C71	C	0.737387	0.703665	0.301597
C72	C	0.737387	0.601328	0.403936
C73	C	0.958552	0.703629	0.301633
C74	C	1.033612	0.601281	0.403985
C75	C	0.516225	1.306762	-0.301518
C76	C	0.441164	1.409111	-0.403870
C77	C	0.516226	1.306757	0.000002
C78	C	0.441165	1.409104	-0.000017
C79	C	0.737390	1.306727	-0.301481
C80	C	0.737390	1.409063	-0.403821
C81	C	1.025674	0.553232	-0.058753
C82	C	1.096195	0.457080	-0.058758
C83	C	1.174653	0.408978	0.000131
C84	C	1.182589	0.457043	0.059018
C85	C	1.112069	0.553200	0.059016
C86	C	1.112056	0.553211	0.393180
C87	C	1.182590	0.457056	0.489342
C88	C	1.174679	0.408967	0.596307
C89	C	1.096228	0.457047	0.607110
C90	C	1.025695	0.553206	0.510949
C91	C	0.362721	1.457192	-0.393065
C92	C	0.292187	1.553377	-0.489226
C93	C	0.300098	1.601471	-0.596192
C94	C	0.378549	1.553385	-0.606994
C95	C	0.449082	1.457209	-0.510834
C96	C	0.449102	1.457169	0.058858
C97	C	0.378582	1.553348	0.058837
C98	C	0.300124	1.601454	-0.000055
C99	C	0.292188	1.553384	-0.058939
C100	C	0.362708	1.457213	-0.058923
C101	C	0.780573	0.553240	0.510900
C102	C	0.780563	0.457093	0.607055
C103	C	0.694180	0.457126	0.489268
C104	C	0.694186	0.553278	0.393116
H105	H	0.196257	1.232242	-0.113561
H106	H	1.089799	0.417879	0.694214
H107	H	0.659009	0.417990	0.480472
C108	C	0.939412	0.606058	0.522849
H109	H	0.944810	0.563630	0.600327
H110	H	0.910088	0.696843	0.487782
H111	H	0.910111	0.590278	0.487796
C112	C	0.334847	0.873542	0.227196
H113	H	0.303423	0.917386	0.258735
H114	H	0.350709	0.786600	0.271223
H115	H	0.382754	0.873385	0.226339
H116	H	0.356264	1.418039	-0.305977
H117	H	0.228315	1.592512	-0.480409
H118	H	0.848206	0.266865	0.151124
H119	H	0.242659	1.679783	-0.674482
C120	C	1.120810	0.606036	0.123810
H121	H	1.177638	0.563599	0.158888
H122	H	1.095097	0.696820	0.073000
H123	H	1.095102	0.590253	0.179537
C124	C	0.865644	1.005180	-0.600879
H125	H	0.902012	1.005194	-0.558481
H126	H	0.895815	0.929839	-0.600708
H127	H	0.840548	1.080528	-0.676068
C128	C	0.139980	1.136956	0.095478
H129	H	0.123301	1.224348	0.051677
H130	H	0.092570	1.135766	0.095771
H131	H	0.171759	1.094104	0.170383
C132	C	1.120770	0.606100	0.275529
H133	H	1.067533	0.670249	0.219795
H134	H	1.150070	0.643611	0.267099
H135	H	1.150078	0.537061	0.267105
C136	C	1.252220	0.303197	0.000138
H137	H	1.300087	0.281429	0.043638
H138	H	1.252212	0.228186	0.031660
H139	H	1.252217	0.334730	-0.074888
C140	C	0.646675	0.606184	0.275448
H141	H	0.620953	0.563787	0.282774
H142	H	0.605812	0.696971	0.235487
H143	H	0.683955	0.590414	0.235498
H144	H	0.626565	0.743520	-0.151005
H145	H	0.242709	1.679762	-0.000059
H146	H	0.815728	0.417946	0.694147
H147	H	1.232118	0.330668	0.674598
H148	H	0.815746	0.592364	0.519717
H149	H	0.384981	1.592556	-0.694097
H150	H	0.321078	0.891767	-0.082347
C151	C	0.609126	0.579172	-0.174855
H152	H	0.572745	0.671177	-0.224435
H153	H	0.634210	0.545147	-0.215996
H154	H	0.578960	0.545118	-0.140654
C155	C	0.205883	1.606300	-0.123705
H156	H	0.165027	1.670447	-0.115264
H157	H	0.199680	1.643819	-0.201174
H158	H	0.199692	1.537270	-0.094609
C159	C	0.353967	1.404336	-0.123674
H160	H	0.297139	1.446755	-0.158736
H161	H	0.379680	1.420077	-0.179394
H162	H	0.379675	1.313549	-0.072830
C163	C	0.139913	1.136970	-0.227167
H164	H	0.123213	1.224374	-0.270787
H165	H	0.171660	1.094124	-0.259225
H166	H	0.092503	1.135768	-0.226221
H167	H	0.512952	1.418062	-0.519645
H168	H	1.246463	0.417920	0.480526
H169	H	0.848212	0.441277	0.151181
H170	H	0.385059	1.592470	0.106791
C171	C	0.285226	0.741506	0.131822
H172	H	0.316633	0.698018	0.100020
H173	H	0.317436	0.697494	0.206824
H174	H	0.237098	0.742257	0.131949
C175	C	0.535396	1.404269	0.123646
H176	H	0.530012	1.446689	0.158694
H177	H	0.564704	1.313486	0.179379
H178	H	0.564705	1.420027	0.072824
C179	C	0.865648	1.005185	-0.398976
H180	H	0.902026	1.005165	-0.441370
H181	H	0.840564	1.080523	-0.399143
H182	H	0.895818	0.929834	-0.323788
H183	H	0.626584	1.005190	-0.587166
C184	C	0.609126	1.005210	-0.398993
H185	H	0.572745	1.005225	-0.441401
H186	H	0.634217	0.929873	-0.323807
H187	H	0.578958	1.080561	-0.399169
C188	C	0.939381	0.606135	-0.123543
H189	H	0.944765	0.563743	-0.158620
H190	H	0.910067	0.590378	-0.072734
H191	H	0.910077	0.696925	-0.179272
C192	C	1.087451	0.404212	-0.123523
H193	H	1.030624	0.446620	-0.158574
H194	H	1.113155	0.419973	-0.179252
H195	H	1.113169	0.313422	-0.072685
H196	H	1.246478	0.417864	0.106963
