data_functionalizedCrystal
_audit_creation_method	'MofGen! by Chris Wilmer'
_symmetry_space_group_name_H-M	'P1'
_symmetry_Int_Tables_number	1
_symmetry_cell_setting	triclinic
loop_
_symmetry_equiv_pos_as_xyz
  x,y,z
_cell_length_a	27.732064
_cell_length_b	27.731996
_cell_length_c	8.965430
_cell_angle_alpha	89.994463
_cell_angle_beta	90.003865
_cell_angle_gamma	82.635407
loop_
_atom_site_label
_atom_site_type_symbol
_atom_site_fract_x
_atom_site_fract_y
_atom_site_fract_z
O1	O	0.640911	0.057553	-0.123792
O2	O	0.500117	0.066290	-0.123856
O3	O	0.574900	-0.008477	-0.123790
O4	O	0.566128	0.132320	-0.123859
O5	O	0.574894	-0.008472	0.124289
O6	O	0.500111	0.066295	0.124222
O7	O	0.640905	0.057558	0.124287
Cu8	Cu	0.570507	0.061927	0.146906
Cu9	Cu	0.570515	0.061921	-0.146476
O10	O	0.566122	0.132325	0.124220
C11	C	0.482107	0.066108	0.000175
C12	C	0.428453	0.065552	0.000152
C13	C	0.051389	0.017584	0.000261
C14	C	0.253049	0.019630	0.000221
O15	O	0.284309	-0.017592	0.000295
N16	N	0.272168	0.063966	0.000193
C17	C	0.240869	0.107793	0.000184
O18	O	0.261758	0.145549	0.000175
C19	C	0.039210	0.105746	0.000235
C20	C	0.020094	0.061407	0.000248
C21	C	0.032272	-0.026751	0.000275
C22	C	-0.018140	-0.027262	0.000277
C23	C	-0.049435	0.016562	0.000264
C24	C	-0.030318	0.060896	0.000250
C25	C	0.007912	0.149572	0.000237
C26	C	-0.042506	0.149057	0.000253
C27	C	-0.061622	0.104718	0.000266
C28	C	-0.112026	0.104209	0.000238
N29	N	-0.131145	0.059873	0.000267
C30	C	-0.099849	0.016050	0.000280
C31	C	0.346743	0.108864	0.000155
C32	C	0.397158	0.109376	0.000139
C33	C	0.409334	0.021213	0.000179
C34	C	0.358919	0.020702	0.000184
C35	C	0.327624	0.064529	0.000183
C36	C	-0.205719	0.014980	0.000282
C37	C	-0.256136	0.014473	0.000278
C38	C	-0.268308	0.102635	0.000246
C39	C	-0.217895	0.103142	0.000243
C40	C	-0.186601	0.059311	0.000266
O41	O	-0.143313	0.141411	0.000181
O42	O	-0.120748	-0.021702	0.000322
C43	C	0.101801	0.018095	0.000259
C44	C	0.120918	0.062430	0.000244
C45	C	0.089623	0.106253	0.000231
C46	C	0.171332	0.062941	0.000229
C47	C	0.202628	0.019118	0.000242
C48	C	0.183508	-0.025218	0.000270
C49	C	0.133096	-0.025729	0.000272
C50	C	0.108742	0.150589	0.000203
C51	C	0.159154	0.151096	0.000199
C52	C	0.190450	0.107273	0.000212
C53	C	0.574717	-0.026482	0.000254
C54	C	0.574174	-0.080138	0.000269
C55	C	0.570763	-0.412857	-0.135033
C56	C	0.568702	-0.614515	-0.135060
O57	O	0.568417	-0.640588	-0.250067
N58	N	0.568442	-0.639730	0.000166
C59	C	0.568695	-0.614526	0.135409
O60	O	0.568422	-0.640599	0.250427
C61	C	0.570752	-0.412868	0.135435
C62	C	0.571017	-0.387657	0.000199
C63	C	0.571026	-0.387646	-0.270257
C64	C	0.571544	-0.337235	-0.270249
C65	C	0.571798	-0.312035	-0.135017
C66	C	0.571535	-0.337246	0.000208
C67	C	0.571002	-0.387665	0.270676
C68	C	0.571515	-0.337247	0.270670
C69	C	0.571779	-0.312036	0.135435
C70	C	0.572307	-0.261635	0.135448
N71	N	0.572566	-0.236420	0.000222
C72	C	0.572312	-0.261620	-0.135011
C73	C	0.567616	-0.720400	0.135386
C74	C	0.567102	-0.770814	0.135380
C75	C	0.567108	-0.770800	-0.135090
C76	C	0.567625	-0.720385	-0.135082
C77	C	0.567875	-0.695185	0.000160
C78	C	0.573400	-0.155753	-0.134983
C79	C	0.573920	-0.105338	-0.134963
C80	C	0.573911	-0.105356	0.135506
C81	C	0.573394	-0.155767	0.135487
C82	C	0.573137	-0.180964	0.000230
O83	O	0.572586	-0.235530	0.250395
O84	O	0.572574	-0.235537	-0.250011
C85	C	0.570245	-0.463268	-0.135041
C86	C	0.569981	-0.488479	0.000183
C87	C	0.570235	-0.463280	0.135416
C88	C	0.569467	-0.538894	0.000177
C89	C	0.569213	-0.564094	-0.135055
C90	C	0.569473	-0.538879	-0.270282
C91	C	0.569991	-0.488468	-0.270273
C92	C	0.569976	-0.488494	0.270642
C93	C	0.569458	-0.538905	0.270623
C94	C	0.569204	-0.564105	0.135390
C95	C	0.658915	0.057740	0.000252
C96	C	0.712569	0.058296	0.000265
C97	C	0.566305	0.150330	0.000173
C98	C	0.566848	0.203986	0.000148
N99	N	0.570505	0.061931	0.353255
N100	N	0.570520	0.061914	-0.352825
C101	C	0.535910	0.096497	0.450530
C102	C	0.579520	0.105553	0.549959
C103	C	0.526915	0.052878	0.549954
C104	C	0.614137	0.071009	0.450495
C105	C	0.561503	0.018315	0.450481
C106	C	0.605144	0.027353	0.549865
H107	H	0.057749	-0.062439	0.000291
H108	H	0.573188	-0.176262	-0.245122
H109	H	0.574120	-0.084830	0.245609
C110	C	-0.302740	0.150838	0.000234
C111	C	-0.300845	0.187278	-0.128594
C112	C	-0.335279	0.235482	-0.128594
C113	C	-0.371607	0.247246	0.000234
C114	C	-0.373503	0.210805	0.129072
C115	C	-0.339069	0.162601	0.129072
H116	H	-0.273952	0.178571	-0.223969
H117	H	-0.333876	0.262458	-0.223969
H118	H	-0.397097	0.282929	0.000234
H119	H	-0.400397	0.219512	0.224447
H120	H	-0.340473	0.135626	0.224447
H121	H	0.567839	-0.699861	-0.245203
H122	H	0.569268	-0.559406	-0.380393
C123	C	0.496424	0.136019	0.391590
C124	C	0.498421	0.189781	0.430889
C125	C	0.458938	0.229303	0.371946
C126	C	0.417458	0.215063	0.273702
C127	C	0.415460	0.161298	0.234397
C128	C	0.454943	0.121776	0.293341
H129	H	0.529128	0.200325	0.503620
H130	H	0.460417	0.269104	0.401043
H131	H	0.388230	0.244320	0.230069
H132	H	0.384752	0.150754	0.161667
H133	H	0.453463	0.081975	0.264244
H134	H	0.208998	-0.060900	0.000272
H135	H	0.574136	-0.084813	-0.245093
C136	C	-0.196861	0.151912	0.000211
C137	C	-0.208813	0.188210	0.129015
C138	C	-0.187781	0.236979	0.128997
C139	C	-0.154797	0.249451	0.000175
C140	C	-0.142843	0.213152	-0.128639
C141	C	-0.163875	0.164383	-0.128621
H142	H	-0.233231	0.178978	0.224385
H143	H	-0.196630	0.263849	0.224354
H144	H	-0.139228	0.285552	0.000161
H145	H	-0.118425	0.222383	-0.224009
H146	H	-0.155026	0.137512	-0.223978
C147	C	0.551185	-0.031487	0.391391
C148	C	0.585314	-0.077800	0.432793
C149	C	0.574990	-0.127601	0.373699
C150	C	0.530536	-0.131090	0.273203
C151	C	0.496403	-0.084775	0.231795
C152	C	0.506728	-0.034974	0.290889
H153	H	0.618225	-0.075219	0.507191
H154	H	0.600257	-0.161886	0.404352
H155	H	0.522893	-0.167956	0.229458
H156	H	0.463493	-0.087356	0.157397
H157	H	0.481461	-0.000689	0.260236
H158	H	0.571758	-0.316712	-0.380372
C159	C	0.644715	-0.012148	0.608438
C160	C	0.630554	-0.053673	0.706651
C161	C	0.670126	-0.093171	0.765231
C162	C	0.723859	-0.091145	0.725598
C163	C	0.738022	-0.049619	0.627380
C164	C	0.698450	-0.010121	0.568800
H165	H	0.590776	-0.055174	0.735995
H166	H	0.659642	-0.123911	0.837939
H167	H	0.753152	-0.120383	0.768962
H168	H	0.777800	-0.048117	0.598036
H169	H	0.708935	0.020620	0.496092
H170	H	0.587145	0.142431	0.593654
H171	H	0.343358	-0.015402	0.000195
H172	H	0.570818	-0.408158	-0.380386
H173	H	0.566901	-0.791326	-0.245201
H174	H	0.490044	0.045230	0.593647
H175	H	0.651015	0.078702	0.406989
C176	C	0.074322	0.198799	0.000177
C177	C	0.037988	0.210572	-0.128653
C178	C	0.003571	0.258787	-0.128690
C179	C	0.005488	0.295227	0.000104
C180	C	0.041823	0.283455	0.128944
C181	C	0.076240	0.235241	0.128981
H182	H	0.036568	0.183596	-0.224003
H183	H	-0.023327	0.267501	-0.224067
H184	H	-0.019990	0.330919	0.000077
H185	H	0.043243	0.310431	0.224294
H186	H	0.103138	0.226526	0.224358
H187	H	-0.271697	-0.021635	0.000284
H188	H	-0.033699	-0.063367	0.000294
C189	C	-0.171300	-0.033234	0.000295
C190	C	-0.134963	-0.045016	0.129112
C191	C	-0.100545	-0.093229	0.129113
C192	C	-0.102463	-0.129661	0.000296
C193	C	-0.138802	-0.117881	-0.128531
C194	C	-0.173221	-0.069667	-0.128531
H195	H	-0.133541	-0.018046	0.224479
H196	H	-0.073644	-0.101950	0.224480
H197	H	-0.076985	-0.165352	0.000297
H198	H	-0.140224	-0.144851	-0.223897
H199	H	-0.200121	-0.060947	-0.223898
C200	C	0.418181	0.158149	0.000109
C201	C	0.406227	0.194443	0.128922
C202	C	0.427248	0.243218	0.128903
C203	C	0.460223	0.255700	0.000070
C204	C	0.472178	0.219405	-0.128753
C205	C	0.451158	0.170630	-0.128733
H206	H	0.381815	0.185204	0.224301
H207	H	0.418397	0.270086	0.224267
H208	H	0.475783	0.291806	0.000055
H209	H	0.496590	0.228644	-0.224131
H210	H	0.460008	0.143762	-0.224097
H211	H	0.117537	-0.061833	0.000283
C212	C	0.312323	0.157078	0.000143
C213	C	0.314232	0.193510	-0.128701
C214	C	0.279815	0.241724	-0.128720
C215	C	0.243490	0.253508	0.000106
C216	C	0.241580	0.217075	0.128960
C217	C	0.275997	0.168860	0.128978
H218	H	0.341123	0.184788	-0.224074
H219	H	0.281230	0.268694	-0.224106
H220	H	0.218013	0.289199	0.000092
H221	H	0.214689	0.225797	0.224333
H222	H	0.274583	0.141891	0.224365
H223	H	0.174713	0.187204	0.000178
H224	H	0.023467	0.185677	0.000219
H225	H	-0.067984	0.184746	0.000260
H226	H	0.566894	-0.791338	0.245502
H227	H	0.434824	-0.014470	0.000184
H228	H	0.567822	-0.699887	0.245523
H229	H	0.570787	-0.408183	0.380799
H230	H	0.573183	-0.176296	0.245606
H231	H	0.571711	-0.316731	0.380803
H232	H	0.569247	-0.559428	0.380756
H233	H	0.570206	-0.467946	-0.380396
H234	H	0.570183	-0.467981	0.380767
