data_functionalizedCrystal
_audit_creation_method	'MofGen! by Chris Wilmer'
_symmetry_space_group_name_H-M	'P1'
_symmetry_Int_Tables_number	1
_symmetry_cell_setting	triclinic
loop_
_symmetry_equiv_pos_as_xyz
  x,y,z
_cell_length_a	16.992694
_cell_length_b	22.010155
_cell_length_c	23.532407
_cell_angle_alpha	89.995744
_cell_angle_beta	93.241514
_cell_angle_gamma	90.003362
loop_
_atom_site_label
_atom_site_type_symbol
_atom_site_fract_x
_atom_site_fract_y
_atom_site_fract_z
O1	O	1.039457	0.050468	-0.120707
O2	O	1.372790	0.383802	0.212626
O3	O	1.706124	0.717135	0.545959
O4	O	0.811182	0.050486	-0.119383
O5	O	1.144515	0.383819	0.213950
O6	O	1.477849	0.717153	0.547284
O7	O	0.932203	0.050460	-0.037455
O8	O	1.265536	0.383793	0.295878
O9	O	1.598870	0.717126	0.629212
O10	O	0.918436	0.050495	-0.202635
O11	O	1.251769	0.383828	0.130698
O12	O	1.585103	0.717161	0.464031
O13	O	0.932181	-0.050591	-0.037467
O14	O	1.265514	0.282743	0.295866
O15	O	1.598848	0.616076	0.629199
O16	O	0.811160	-0.050564	-0.119395
O17	O	1.144493	0.282769	0.213938
O18	O	1.477827	0.616102	0.547272
O19	O	1.039435	-0.050582	-0.120719
O20	O	1.372768	0.282751	0.212614
O21	O	1.706102	0.616085	0.545947
Cu22	Cu	0.925296	-0.059800	-0.120058
Cu23	Cu	1.258629	0.273533	0.213275
Cu24	Cu	1.591962	0.606867	0.546608
Cu25	Cu	0.925321	0.059704	-0.120044
Cu26	Cu	1.258655	0.393037	0.213289
Cu27	Cu	1.591988	0.726371	0.546623
O28	O	0.918414	-0.050556	-0.202647
O29	O	1.251747	0.282778	0.130686
O30	O	1.585081	0.616111	0.464019
C31	C	0.781972	-0.000037	-0.117685
C32	C	1.115305	0.333296	0.215648
C33	C	1.448638	0.666629	0.548981
C34	C	0.694967	-0.000031	-0.112602
C35	C	1.028300	0.333302	0.220731
C36	C	1.361634	0.666635	0.554065
N37	N	0.925283	-0.143852	-0.120068
N38	N	1.258616	0.189481	0.213265
N39	N	1.591950	0.522814	0.546598
C40	C	0.644345	-0.000021	-0.161648
C41	C	0.977678	0.333312	0.171685
C42	C	1.311011	0.666645	0.505018
C43	C	0.562595	-0.000031	-0.156869
C44	C	0.895929	0.333303	0.176464
C45	C	1.229262	0.666636	0.509798
C46	C	0.531470	-0.000046	-0.103042
C47	C	0.864803	0.333288	0.230291
C48	C	1.198137	0.666621	0.563624
C49	C	0.582099	-0.000058	-0.053992
C50	C	0.915432	0.333276	0.279341
C51	C	1.248766	0.666609	0.612674
C52	C	0.663847	-0.000052	-0.058773
C53	C	0.997180	0.333281	0.274561
C54	C	1.330513	0.666614	0.607894
C55	C	0.288027	-0.000066	-0.083231
C56	C	0.621360	0.333267	0.250103
C57	C	0.954693	0.666600	0.583436
C58	C	0.206272	-0.000069	-0.078454
C59	C	0.539606	0.333264	0.254879
C60	C	0.872939	0.666597	0.588213
C61	C	0.186774	-0.000044	-0.181331
C62	C	0.520108	0.333290	0.152002
C63	C	0.853441	0.666623	0.485336
C64	C	0.268525	-0.000035	-0.186106
C65	C	0.601858	0.333298	0.147227
C66	C	0.935191	0.666632	0.480560
C67	C	0.319146	-0.000050	-0.137056
C68	C	0.652480	0.333283	0.196277
C69	C	0.985813	0.666617	0.529610
N70	N	0.447909	-0.000053	-0.098156
N71	N	0.781243	0.333280	0.235178
N72	N	1.114576	0.666613	0.568511
N73	N	0.402705	-0.000047	-0.141944
N74	N	0.736039	0.333287	0.191390
N75	N	1.069372	0.666620	0.524723
C76	C	0.978913	-0.563643	-0.083772
C77	C	1.312246	-0.230310	0.249561
C78	C	1.645579	0.103023	0.582895
C79	C	0.978916	-0.627251	-0.083768
C80	C	1.312250	-0.293918	0.249565
C81	C	1.645583	0.039416	0.582898
O82	O	1.024483	-0.660152	-0.052914
O83	O	1.357816	-0.326819	0.280420
O84	O	1.691149	0.006514	0.613753
N85	N	0.925321	-0.659059	-0.120032
N86	N	1.258654	-0.325726	0.213301
N87	N	1.591988	0.007607	0.546634
C88	C	0.871713	-0.627257	-0.156298
C89	C	1.205047	-0.293924	0.177035
C90	C	1.538380	0.039410	0.510369
O91	O	0.826126	-0.660153	-0.187143
O92	O	1.159460	-0.326820	0.146191
O93	O	1.492793	0.006513	0.479524
C94	C	0.871707	-0.563651	-0.156298
C95	C	1.205040	-0.230317	0.177035
C96	C	1.538373	0.103016	0.510368
C97	C	0.925311	-0.531845	-0.120036
C98	C	1.258644	-0.198512	0.213297
C99	C	1.591977	0.134821	0.546630
C100	C	1.032512	-0.531838	-0.047512
C101	C	1.365845	-0.198505	0.285821
C102	C	1.699178	0.134828	0.619154
C103	C	1.032509	-0.468235	-0.047517
C104	C	1.365842	-0.134902	0.285816
C105	C	1.699176	0.198432	0.619150
C106	C	0.978907	-0.436437	-0.083781
C107	C	1.312240	-0.103104	0.249552
C108	C	1.645574	0.230230	0.582885
C109	C	0.925308	-0.468242	-0.120041
C110	C	1.258641	-0.134909	0.213292
C111	C	1.591974	0.198424	0.546626
C112	C	0.818096	-0.531849	-0.192561
C113	C	1.151429	-0.198516	0.140772
C114	C	1.484763	0.134817	0.474106
C115	C	0.818093	-0.468238	-0.192558
C116	C	1.151427	-0.134905	0.140775
C117	C	1.484760	0.198428	0.474109
C118	C	0.871697	-0.436433	-0.156296
C119	C	1.205031	-0.103100	0.177038
C120	C	1.538364	0.230233	0.510371
C121	C	0.871703	-0.372841	-0.156310
C122	C	1.205036	-0.039508	0.177023
C123	C	1.538370	0.293826	0.510357
N124	N	0.925298	-0.341033	-0.120046
N125	N	1.258631	-0.007699	0.213287
N126	N	1.591965	0.325634	0.546621
C127	C	0.978900	-0.372831	-0.083782
C128	C	1.312233	-0.039497	0.249552
C129	C	1.645567	0.293836	0.582885
C130	C	0.871731	-0.760835	-0.156294
C131	C	1.205064	-0.427501	0.177040
C132	C	1.538397	-0.094168	0.510373
C133	C	0.871741	-0.824440	-0.156297
C134	C	1.205074	-0.491107	0.177037
C135	C	1.538407	-0.157773	0.510370
C136	C	0.978943	-0.824430	-0.083766
C137	C	1.312276	-0.491096	0.249567
C138	C	1.645609	-0.157763	0.582901
C139	C	0.978936	-0.760823	-0.083766
C140	C	1.312269	-0.427490	0.249567
C141	C	1.645603	-0.094157	0.582900
C142	C	0.925326	-0.729026	-0.120030
C143	C	1.258659	-0.395693	0.213304
C144	C	1.591993	-0.062360	0.546637
C145	C	0.978890	-0.239259	-0.083795
C146	C	1.312224	0.094074	0.249539
C147	C	1.645557	0.427407	0.582872
C148	C	0.978885	-0.175650	-0.083804
C149	C	1.312218	0.157683	0.249529
C150	C	1.645552	0.491016	0.582863
C151	C	0.871680	-0.175666	-0.156332
C152	C	1.205014	0.157667	0.177001
C153	C	1.538347	0.491000	0.510334
C154	C	0.871688	-0.239270	-0.156325
C155	C	1.205022	0.094064	0.177008
C156	C	1.538355	0.427397	0.510341
C157	C	0.925296	-0.271064	-0.120052
C158	C	1.258630	0.062269	0.213282
C159	C	1.591963	0.395602	0.546615
O160	O	0.826158	-0.339899	-0.187147
O161	O	1.159491	-0.006566	0.146186
O162	O	1.492824	0.326767	0.479520
O163	O	1.024473	-0.339927	-0.052937
O164	O	1.357806	-0.006593	0.280396
O165	O	1.691139	0.326740	0.613730
C166	C	1.068645	-0.000058	-0.122417
C167	C	1.401979	0.333276	0.210916
C168	C	1.735312	0.666609	0.544250
C169	C	1.155650	-0.000059	-0.127500
C170	C	1.488983	0.333274	0.205833
C171	C	1.822317	0.666607	0.539166
C172	C	0.931841	-0.000069	-0.016228
C173	C	1.265175	0.333265	0.317106
C174	C	1.598508	0.666598	0.650439
C175	C	0.930787	-0.000078	0.047042
C176	C	1.264121	0.333256	0.380375
C177	C	1.597454	0.666589	0.713708
N178	N	0.925340	0.143756	-0.120030
N179	N	1.258674	0.477090	0.213303
N180	N	1.592007	0.810423	0.546637
C181	C	0.918776	-0.000026	-0.223875
C182	C	1.252109	0.333307	0.109459
C183	C	1.585442	0.666641	0.442792
C184	C	0.919830	-0.000013	-0.287144
C185	C	1.253163	0.333320	0.046189
C186	C	1.586496	0.666654	0.379523
C187	C	0.854823	-0.000034	0.316979
C188	C	1.188156	0.333299	0.650312
C189	C	1.521490	0.666633	0.983645
C190	C	0.855802	-0.000039	0.257530
C191	C	1.189135	0.333295	0.590863
C192	C	1.522469	0.666628	0.924196
O193	O	0.795540	-0.000015	0.223776
O194	O	1.128874	0.333318	0.557109
O195	O	1.462207	0.666652	0.890442
N196	N	0.927749	-0.000051	0.231333
N197	N	1.261082	0.333282	0.564667
N198	N	1.594416	0.666615	0.898000
C199	C	0.998722	-0.000053	0.264589
C200	C	1.332055	0.333280	0.597922
C201	C	1.665388	0.666614	0.931256
O202	O	1.060008	-0.000063	0.236848
O203	O	1.393341	0.333270	0.570182
O204	O	1.726675	0.666603	0.903515
C205	C	0.997742	-0.000044	0.324037
C206	C	1.331075	0.333289	0.657370
C207	C	1.664408	0.666623	0.990703
C208	C	0.925790	-0.000037	0.350230
C209	C	1.259123	0.333296	0.683563
C210	C	1.592457	0.666629	1.016897
C211	C	0.782877	-0.000027	0.343172
C212	C	1.116210	0.333306	0.676505
C213	C	1.449544	0.666640	1.009839
C214	C	0.781898	-0.000023	0.402617
C215	C	1.115232	0.333310	0.735950
C216	C	1.448565	0.666643	1.069283
C217	C	0.852865	-0.000027	0.435868
C218	C	1.186199	0.333307	0.769201
C219	C	1.519532	0.666640	1.102535
C220	C	0.924811	-0.000034	0.409675
C221	C	1.258144	0.333299	0.743008
C222	C	1.591478	0.666633	1.076341
C223	C	1.068713	-0.000041	0.357291
C224	C	1.402047	0.333292	0.690625
C225	C	1.735380	0.666626	1.023958
C226	C	1.067727	-0.000032	0.416743
C227	C	1.401060	0.333302	0.750076
C228	C	1.734394	0.666635	1.083410
C229	C	0.995775	-0.000025	0.442936
C230	C	1.329109	0.333308	0.776269
C231	C	1.662442	0.666641	1.109603
C232	C	0.994799	-0.000034	0.502371
C233	C	1.328133	0.333300	0.835704
C234	C	1.661466	0.666633	1.169037
N235	N	0.922852	-0.000021	0.528567
N236	N	1.256186	0.333312	0.861900
N237	N	1.589519	0.666646	1.195234
C238	C	0.851885	-0.000018	0.495316
C239	C	1.185219	0.333316	0.828649
C240	C	1.518552	0.666649	1.161982
C241	C	1.000774	-0.000071	0.139745
C242	C	1.334107	0.333262	0.473078
C243	C	1.667441	0.666596	0.806411
C244	C	1.001755	-0.000084	0.080298
C245	C	1.335088	0.333249	0.413631
C246	C	1.668422	0.666582	0.746965
C247	C	0.858835	-0.000069	0.073243
C248	C	1.192168	0.333264	0.406576
C249	C	1.525502	0.666598	0.739910
C250	C	0.857855	-0.000060	0.132691
C251	C	1.191188	0.333273	0.466024
C252	C	1.524522	0.666607	0.799357
C253	C	0.928827	-0.000058	0.165941
C254	C	1.262160	0.333275	0.499274
C255	C	1.595494	0.666608	0.832608
C256	C	0.849835	-0.000011	0.620154
C257	C	1.183168	0.333323	0.953488
C258	C	1.516502	0.666656	1.286821
C259	C	0.848863	-0.000010	0.679605
C260	C	1.182196	0.333324	1.012938
C261	C	1.515529	0.666657	1.346271
C262	C	0.991782	-0.000022	0.686655
C263	C	1.325115	0.333312	1.019988
C264	C	1.658449	0.666645	1.353321
C265	C	0.992755	-0.000026	0.627210
C266	C	1.326088	0.333307	0.960543
C267	C	1.659422	0.666641	1.293876
C268	C	0.921775	-0.000018	0.593960
C269	C	1.255108	0.333315	0.927294
C270	C	1.588442	0.666648	1.260627
O271	O	1.055029	-0.000055	0.536161
O272	O	1.388363	0.333278	0.869494
O273	O	1.721696	0.666612	1.202828
O274	O	0.790609	0.000001	0.523064
O275	O	1.123942	0.333334	0.856398
O276	O	1.457276	0.666668	1.189731
H277	H	0.669680	-0.000009	-0.205480
H278	H	1.003013	0.333325	0.127854
H279	H	1.336347	0.666658	0.461187
H280	H	0.828047	-0.265166	-0.185859
H281	H	1.161380	0.068168	0.147474
H282	H	1.494713	0.401501	0.480808
Cl283	Cl	0.123132	-0.000027	-0.242990
Cl284	Cl	0.456465	0.333306	0.090344
Cl285	Cl	0.789799	0.666639	0.423677
Cl286	Cl	0.760602	-0.000003	0.578365
Cl287	Cl	1.093935	0.333330	0.911698
Cl288	Cl	1.427269	0.666664	1.245031
Cl289	Cl	0.498958	-0.000014	-0.218530
Cl290	Cl	0.832292	0.333319	0.114803
Cl291	Cl	1.165625	0.666652	0.448136
H292	H	0.705063	-0.000060	-0.018834
H293	H	1.038397	0.333273	0.314500
H294	H	1.371730	0.666606	0.647833
H295	H	0.180934	-0.000081	-0.034620
H296	H	0.514267	0.333252	0.298713
H297	H	0.847601	0.666586	0.632047
Cl298	Cl	1.046279	-0.135670	-0.038215
Cl299	Cl	1.379612	0.197663	0.295118
Cl300	Cl	1.712946	0.530996	0.628451
H301	H	1.051344	-0.000040	0.605882
H302	H	1.384677	0.333293	0.939215
H303	H	1.718010	0.666627	1.272549
H304	H	0.774435	-0.442352	-0.222087
H305	H	1.107768	-0.109019	0.111246
H306	H	1.441102	0.224314	0.444579
H307	H	1.022542	-0.265140	-0.054257
H308	H	1.355875	0.068194	0.279077
H309	H	1.689209	0.401527	0.612410
H310	H	1.022588	-0.850331	-0.054237
H311	H	1.355921	-0.516998	0.279097
H312	H	1.689254	-0.183665	0.612430
Cl313	Cl	0.307647	-0.000012	-0.253777
Cl314	Cl	0.640980	0.333321	0.079557
Cl315	Cl	0.974314	0.666655	0.412890
H316	H	1.076156	-0.442343	-0.017988
H317	H	1.409489	-0.109010	0.315346
H318	H	1.742822	0.224324	0.648679
Cl319	Cl	1.099906	-0.571802	-0.001917
Cl320	Cl	1.433240	-0.238469	0.331416
Cl321	Cl	1.766573	0.094864	0.664749
Cl322	Cl	0.351655	-0.000084	-0.021567
Cl323	Cl	0.684988	0.333249	0.311767
Cl324	Cl	1.018321	0.666582	0.645100
H325	H	0.556750	-0.000078	-0.010166
H326	H	0.890084	0.333255	0.323168
H327	H	1.223417	0.666588	0.656501
Cl328	Cl	1.046325	-0.720847	-0.038177
Cl329	Cl	1.379658	-0.387513	0.295157
Cl330	Cl	1.712991	-0.054180	0.628490
Cl331	Cl	1.156955	-0.000028	0.458540
Cl332	Cl	1.490288	0.333306	0.791873
Cl333	Cl	1.823622	0.666639	1.125207
H334	H	1.127304	-0.000046	0.335976
H335	H	1.460637	0.333287	0.669309
H336	H	1.793970	0.666621	1.002642
H337	H	0.828100	-0.850331	-0.185831
H338	H	1.161433	-0.516998	0.147503
H339	H	1.494766	-0.183665	0.480836
H340	H	0.828077	-0.734949	-0.185828
H341	H	1.161410	-0.401616	0.147505
H342	H	1.494744	-0.068282	0.480838
Cl343	Cl	0.804298	-0.135682	-0.201920
Cl344	Cl	1.137632	0.197652	0.131413
Cl345	Cl	1.470965	0.530985	0.464746
H346	H	0.790268	-0.000007	0.700928
H347	H	1.123602	0.333326	1.034261
H348	H	1.456935	0.666660	1.367594
H349	H	0.774446	-0.557736	-0.222088
H350	H	1.107780	-0.224403	0.111245
H351	H	1.441113	0.108930	0.444578
H352	H	0.723308	-0.000013	0.423938
H353	H	1.056641	0.333320	0.757271
H354	H	1.389975	0.666654	1.090604
H355	H	0.725084	-0.000022	0.316105
H356	H	1.058417	0.333311	0.649438
H357	H	1.391750	0.666645	0.982771
H358	H	0.799266	-0.000057	0.154013
H359	H	1.132599	0.333276	0.487346
H360	H	1.465932	0.666609	0.820679
H361	H	0.801050	-0.000067	0.046159
H362	H	1.134383	0.333267	0.379492
H363	H	1.467716	0.666600	0.712825
H364	H	1.060345	-0.000099	0.058977
H365	H	1.393678	0.333234	0.392310
H366	H	1.727012	0.666568	0.725644
H367	H	1.058572	-0.000074	0.166814
H368	H	1.391905	0.333259	0.500148
H369	H	1.725238	0.666593	0.833481
H370	H	1.049561	-0.000027	0.713738
H371	H	1.382895	0.333306	1.047072
H372	H	1.716228	0.666639	1.380405
