data_functionalizedCrystal
_audit_creation_method	'MofGen! by Chris Wilmer'
_symmetry_space_group_name_H-M	'P1'
_symmetry_Int_Tables_number	1
_symmetry_cell_setting	triclinic
loop_
_symmetry_equiv_pos_as_xyz
  x,y,z
_cell_length_a	12.645331
_cell_length_b	12.645330
_cell_length_c	16.625539
_cell_angle_alpha	90.026386
_cell_angle_beta	90.013841
_cell_angle_gamma	90.011881
loop_
_atom_site_label
_atom_site_type_symbol
_atom_site_fract_x
_atom_site_fract_y
_atom_site_fract_z
Zn1	Zn	1.620748	-0.422059	0.455775
Zn2	Zn	1.620652	-0.599345	0.320947
Zn3	Zn	1.443469	-0.422094	0.320972
Zn4	Zn	1.443460	-0.599279	0.455753
O5	O	1.532082	-0.510694	0.388362
O6	O	1.769083	-0.445590	0.437889
O7	O	1.597111	-0.575875	0.208118
O8	O	1.467030	-0.273742	0.338873
O9	O	1.769012	-0.575841	0.338832
O10	O	1.597276	-0.273716	0.437913
O11	O	1.466936	-0.445649	0.208136
O12	O	1.295121	-0.445584	0.338852
O13	O	1.467015	-0.575728	0.568588
O14	O	1.295114	-0.575761	0.437875
O15	O	1.597268	-0.445525	0.568605
O16	O	1.597103	-0.747684	0.338810
O17	O	1.466921	-0.747635	0.437851
C18	C	1.256653	-0.510670	0.388364
C19	C	1.138823	-0.510685	0.388384
C20	C	0.971290	-0.593029	0.450354
C21	C	1.093850	-0.592763	0.450614
C22	C	1.094334	-0.399031	0.411601
C23	C	0.971736	-0.399533	0.412038
C24	C	0.971583	-0.539098	0.302999
C25	C	1.094189	-0.541539	0.303460
C26	C	1.532029	-0.786124	0.388343
C27	C	1.532104	-0.903954	0.388361
C28	C	1.613869	-1.071505	0.325928
C29	C	1.614136	-0.948944	0.326081
C30	C	1.562400	-0.948338	0.473351
C31	C	1.563049	-1.070936	0.473020
C32	C	1.420009	-1.071280	0.366642
C33	C	1.420547	-0.948675	0.364736
C34	C	1.808588	-0.510719	0.388360
C35	C	1.926418	-0.510730	0.388359
C36	C	1.532151	-0.510615	0.598671
C37	C	1.532181	-0.510582	0.688292
C38	C	1.532165	-0.234189	0.388399
C39	C	1.532200	-0.116359	0.388414
C40	C	1.532075	-0.510696	0.178871
C41	C	1.532251	-0.510431	0.089250
C42	C	1.532230	-0.510463	1.016468
C43	C	1.532213	-0.510499	0.925159
C44	C	1.532206	-0.510523	0.852383
C45	C	1.532188	-0.510558	0.761068
H46	H	0.943156	-0.375472	0.474440
C47	C	1.133645	-0.313945	0.352486
N48	N	1.163241	-0.249863	0.307950
C49	C	0.931451	-0.705258	0.430920
N50	N	0.901435	-0.789792	0.416281
H51	H	0.942051	-0.336017	0.368954
C52	C	1.133498	-0.567437	0.536067
N53	N	1.163360	-0.548373	0.600436
C54	C	1.382794	-1.113160	0.284372
N55	N	1.354775	-1.144704	0.222402
C56	C	1.389675	-0.909487	0.280245
N57	N	1.366424	-0.879960	0.216607
H58	H	1.125054	-0.374531	0.473328
H59	H	0.940495	-0.574498	0.513235
H60	H	0.940669	-0.619127	0.281897
H61	H	1.124803	-0.485945	0.254790
H62	H	1.356414	-0.918061	0.406912
C63	C	1.133513	-0.652525	0.279791
N64	N	1.163152	-0.736112	0.261960
C65	C	0.932369	-0.458120	0.240594
N66	N	0.902826	-0.397125	0.193597
C67	C	1.486189	-1.111018	0.538068
N68	N	1.428308	-1.141203	0.587067
C69	C	1.588489	-0.908407	0.240952
N70	N	1.569162	-0.877880	0.176830
H71	H	1.643479	-0.917551	0.492102
H72	H	1.645054	-1.099450	0.491463
H73	H	1.595151	-1.101056	0.262725
C74	C	1.725523	-1.113040	0.345150
N75	N	1.809618	-1.144335	0.359626
H76	H	1.697231	-0.919538	0.340481
H77	H	1.359159	-1.100287	0.412154
C78	C	1.134490	-0.704622	0.430960
N79	N	1.165094	-0.788879	0.416160
C80	C	1.484492	-0.908957	0.537936
N81	N	1.425812	-0.879292	0.586580
