data_functionalizedCrystal
_audit_creation_method	'MofGen! by Chris Wilmer'
_symmetry_space_group_name_H-M	'P1'
_symmetry_Int_Tables_number	1
_symmetry_cell_setting	triclinic
loop_
_symmetry_equiv_pos_as_xyz
  x,y,z
_cell_length_a	10.723024
_cell_length_b	10.654550
_cell_length_c	9.130313
_cell_angle_alpha	90.000276
_cell_angle_beta	89.996649
_cell_angle_gamma	95.523600
loop_
_atom_site_label
_atom_site_type_symbol
_atom_site_fract_x
_atom_site_fract_y
_atom_site_fract_z
O1	O	0.175275	-1.667813	-0.121686
O2	O	0.191974	-1.302332	-0.121712
O3	O	0.002049	-1.493503	-0.121693
O4	O	0.365199	-1.476642	-0.121705
O5	O	0.002044	-1.493490	0.121906
O6	O	0.191968	-1.302319	0.121886
O7	O	0.175269	-1.667800	0.121913
Cu8	Cu	0.183618	-1.485058	0.144142
Cu9	Cu	0.183625	-1.485074	-0.143942
O10	O	0.365194	-1.476629	0.121894
C11	C	0.190745	-1.255528	0.000084
C12	C	0.187077	-1.116085	0.000073
C13	C	-0.044453	-1.492269	0.000104
C14	C	-0.183008	-1.488598	0.000099
N15	N	0.183613	-1.485056	0.346765
C16	C	-0.257975	-1.595567	0.000105
C17	C	-0.401179	-1.591776	0.000099
C18	C	0.411696	-1.477863	0.000093
C19	C	0.550251	-1.481534	0.000089
C20	C	0.176498	-1.714604	0.000114
C21	C	0.180167	-1.854047	0.000114
C22	C	0.298901	-1.036583	0.000074
C23	C	0.295447	-0.905562	0.000100
C24	C	0.068334	-0.933560	0.000118
C25	C	0.071789	-1.064577	0.000103
N26	N	0.183620	-1.485085	-0.346564
C27	C	0.099550	-1.569736	0.423425
C28	C	0.099550	-1.569748	0.576762
C29	C	0.267687	-1.400397	0.576765
C30	C	0.267680	-1.400380	0.423431
H31	H	-0.216138	-1.689955	0.000121
O32	O	-0.056006	-0.878000	0.000148
H33	H	-0.109802	-0.909860	-0.099129
H34	H	0.386506	-0.840836	0.000103
O35	O	0.358372	-1.309084	0.659451
H36	H	0.344267	-1.323331	0.778954
O37	O	-0.238417	-1.363567	0.000097
H38	H	-0.206842	-1.309397	-0.099196
H39	H	-0.385337	-1.389955	0.000094
H40	H	-0.465598	-1.683350	0.000111
H41	H	0.392775	-1.078515	0.000061
O42	O	-0.048826	-1.150342	0.000106
H43	H	-0.129573	-1.092517	0.000109
O44	O	0.358345	-1.309043	0.340721
H45	H	0.455784	-1.325878	0.370109
O46	O	0.008869	-1.661046	0.340728
H47	H	-0.049594	-1.719920	0.419802
H48	H	0.031097	-1.638700	0.639175
