data_functionalizedCrystal
_audit_creation_method	'MofGen! by Chris Wilmer'
_symmetry_space_group_name_H-M	'P1'
_symmetry_Int_Tables_number	1
_symmetry_cell_setting	triclinic
loop_
_symmetry_equiv_pos_as_xyz
  x,y,z
_cell_length_a	29.839125
_cell_length_b	19.121102
_cell_length_c	19.121063
_cell_angle_alpha	90.126902
_cell_angle_beta	87.571153
_cell_angle_gamma	92.451796
loop_
_atom_site_label
_atom_site_type_symbol
_atom_site_fract_x
_atom_site_fract_y
_atom_site_fract_z
Zn1	Zn	-0.291758	-1.059799	0.325059
Zn2	Zn	0.208242	-0.559799	0.825059
Zn3	Zn	-0.219686	-1.054718	0.442259
Zn4	Zn	0.280314	-0.554718	0.942259
Zn5	Zn	-0.213308	-0.942575	0.320031
Zn6	Zn	0.286692	-0.442575	0.820031
Zn7	Zn	-0.291457	-0.937524	0.437249
Zn8	Zn	0.208543	-0.437524	0.937249
O9	O	-0.254052	-0.998654	0.381149
O10	O	0.245948	-0.498654	0.881149
O11	O	-0.284992	-1.157230	0.344807
O12	O	0.215008	-0.657230	0.844807
O13	O	-0.155973	-1.039829	0.426037
O14	O	0.344027	-0.539829	0.926037
O15	O	-0.221171	-0.962366	0.222593
O16	O	0.278829	-0.462366	0.722593
O17	O	-0.232042	-1.153496	0.430913
O18	O	0.267958	-0.653496	0.930913
O19	O	-0.278808	-1.048490	0.226287
O20	O	0.221192	-0.548490	0.726287
O21	O	-0.151287	-0.957438	0.336237
O22	O	0.348713	-0.457438	0.836237
O23	O	-0.220880	-0.843801	0.331379
O24	O	0.279120	-0.343801	0.831379
O25	O	-0.354365	-0.953757	0.422374
O26	O	0.145635	-0.453757	0.922374
O27	O	-0.278295	-0.840090	0.417499
O28	O	0.221705	-0.340090	0.917499
O29	O	-0.354586	-1.043592	0.339949
O30	O	0.145414	-0.543592	0.839949
O31	O	-0.231750	-1.034931	0.539699
O32	O	0.268250	-0.534931	1.039699
O33	O	-0.284480	-0.948830	0.536018
O34	O	0.215520	-0.448830	1.036018
C35	C	-0.248863	-0.816508	0.373350
C36	C	0.251137	-0.316508	0.873350
C37	C	-0.246654	-0.738584	0.370031
C38	C	0.253346	-0.238584	0.870031
C39	C	-0.258785	-0.990800	0.563297
C40	C	0.241215	-0.490800	1.063297
C41	C	-0.260826	-0.987504	0.641223
C42	C	0.239174	-0.487504	1.141223
C43	C	-0.371232	-0.998678	0.381164
C44	C	0.128768	-0.498678	0.881164
C45	C	-0.421167	-0.998688	0.381170
C46	C	0.078833	-0.498688	0.881170
C47	C	-0.777636	-0.951966	0.423930
C48	C	-0.277636	-0.451966	0.923930
C49	C	-0.589964	-0.951938	0.424010
C50	C	-0.089964	-0.451938	0.924010
O51	O	-0.565601	-0.912139	0.460495
O52	O	-0.065601	-0.412139	0.960495
N53	N	-0.566611	-0.998706	0.381105
N54	N	-0.066611	-0.498706	0.881105
C55	C	-0.590177	-1.045482	0.338175
C56	C	-0.090177	-0.545482	0.838175
O57	O	-0.566007	-1.085256	0.301679
O58	O	-0.066007	-0.585256	0.801679
C59	C	-0.777848	-1.045507	0.338092
C60	C	-0.277848	-0.545507	0.838092
C61	C	-0.801200	-0.998740	0.381004
C62	C	-0.301200	-0.498740	0.881004
C63	C	-0.800988	-0.905203	0.466838
C64	C	-0.300988	-0.405203	0.966838
C65	C	-0.847903	-0.905213	0.466821
C66	C	-0.347903	-0.405213	0.966821
C67	C	-0.871467	-0.951987	0.423895
C68	C	-0.371467	-0.451987	0.923895
C69	C	-0.848115	-0.998750	0.380987
C70	C	-0.348115	-0.498750	0.880987
C71	C	-0.801414	-1.092279	0.295158
C72	C	-0.301414	-0.592279	0.795158
C73	C	-0.848334	-1.092279	0.295140
C74	C	-0.348334	-0.592279	0.795140
C75	C	-0.871686	-1.045513	0.338052
C76	C	-0.371686	-0.545513	0.838052
C77	C	-0.918594	-1.045534	0.338043
C78	C	-0.418594	-0.545534	0.838043
N79	N	-0.941948	-0.998765	0.380947
N80	N	-0.441948	-0.498765	0.880947
C81	C	-0.918384	-0.951992	0.423873
C82	C	-0.418384	-0.451992	0.923873
C83	C	-0.491648	-1.045467	0.338222
C84	C	0.008352	-0.545467	0.838222
C85	C	-0.444730	-1.045461	0.338244
C86	C	0.055270	-0.545461	0.838244
C87	C	-0.444520	-0.951916	0.424078
C88	C	0.055480	-0.451916	0.924078
C89	C	-0.491439	-0.951925	0.424060
C90	C	0.008561	-0.451925	0.924060
C91	C	-0.515001	-0.998698	0.381127
C92	C	-0.015001	-0.498698	0.881127
C93	C	-1.016910	-0.952017	0.423834
C94	C	-0.516910	-0.452017	0.923834
C95	C	-1.063829	-0.952033	0.423814
C96	C	-0.563829	-0.452033	0.923814
C97	C	-1.064035	-1.045576	0.337978
C98	C	-0.564035	-0.545576	0.837978
C99	C	-1.017119	-1.045563	0.338000
C100	C	-0.517119	-0.545563	0.838000
C101	C	-0.993558	-0.998777	0.380929
C102	C	-0.493558	-0.498777	0.880929
O103	O	-0.942986	-1.085307	0.301571
O104	O	-0.442986	-0.585307	0.801571
O105	O	-0.942562	-0.912213	0.460353
O106	O	-0.442562	-0.412213	0.960353
C107	C	-0.730721	-0.951956	0.423947
C108	C	-0.230721	-0.451956	0.923947
C109	C	-0.707369	-0.998719	0.381039
C110	C	-0.207369	-0.498719	0.881039
C111	C	-0.730933	-1.045493	0.338113
C112	C	-0.230933	-0.545493	0.838113
C113	C	-0.660452	-0.998714	0.381061
C114	C	-0.160452	-0.498714	0.881061
C115	C	-0.636888	-0.951941	0.423987
C116	C	-0.136888	-0.451941	0.923987
C117	C	-0.660242	-0.905172	0.466891
C118	C	-0.160242	-0.405172	0.966891
C119	C	-0.707157	-0.905182	0.466873
C120	C	-0.207157	-0.405182	0.966873
C121	C	-0.707579	-1.092262	0.295209
C122	C	-0.207579	-0.592262	0.795209
C123	C	-0.660664	-1.092248	0.295231
C124	C	-0.160664	-0.592248	0.795231
C125	C	-0.637100	-1.045474	0.338157
C126	C	-0.137100	-0.545474	0.838157
C127	C	-0.137329	-0.998673	0.381086
C128	C	0.362671	-0.498673	0.881086
C129	C	-0.087393	-0.998807	0.380889
C130	C	0.412607	-0.498807	0.880889
C131	C	-0.259262	-1.181512	0.388979
C132	C	0.240738	-0.681512	0.888979
C133	C	-0.261482	-1.259435	0.392316
C134	C	0.238518	-0.759435	0.892316
C135	C	-0.275466	-0.700058	0.413377
C136	C	0.224534	-0.200058	0.913377
C137	C	-0.273393	-0.626841	0.410248
C138	C	0.226607	-0.126841	0.910248
C139	C	-0.242505	-0.592151	0.363777
C140	C	0.257495	-0.092151	0.863777
C141	C	-0.213691	-0.630681	0.320426
C142	C	0.286309	-0.130681	0.820426
C143	C	-0.215767	-0.703897	0.323552
C144	C	0.284233	-0.203897	0.823552
C145	C	-0.234745	-0.371181	0.352091
C146	C	0.265255	0.128819	0.852091
C147	C	-0.232670	-0.297960	0.348970
C148	C	0.267330	0.202040	0.848970
C149	C	-0.292372	-0.294125	0.438792
C150	C	0.207628	0.205875	0.938792
C151	C	-0.294444	-0.367343	0.441916
C152	C	0.205556	0.132657	0.941916
C153	C	-0.265632	-0.405867	0.398563
C154	C	0.234368	0.094133	0.898563
C155	C	-0.240383	-0.517311	0.360580
C156	C	0.259617	-0.017311	0.860580
C157	C	-0.267756	-0.480706	0.401757
C158	C	0.232244	0.019294	0.901757
C159	C	-0.249312	-1.006558	0.198291
C160	C	0.250688	-0.506558	0.698291
C161	C	-0.247291	-1.009926	0.120368
C162	C	0.252709	-0.509926	0.620368
C163	C	-0.234357	-1.030819	0.679728
C164	C	0.265643	-0.530819	1.179728
C165	C	-0.236280	-1.027723	0.752948
C166	C	0.263720	-0.527723	1.252948
C167	C	-0.264670	-0.981309	0.787662
C168	C	0.235330	-0.481309	1.287662
C169	C	-0.291142	-0.937992	0.749152
C170	C	0.208858	-0.437992	1.249152
C171	C	-0.289222	-0.941092	0.675934
C172	C	0.210778	-0.441092	1.175934
C173	C	-0.271843	-0.969709	1.008640
C174	C	0.228157	-0.469709	1.508640
C175	C	-0.273761	-0.966611	1.081864
C176	C	0.226239	-0.466611	1.581864
C177	C	-0.218899	-1.056344	1.085654
C178	C	0.281101	-0.556344	1.585654
C179	C	-0.216978	-1.059436	1.012434
C180	C	0.283022	-0.559436	1.512434
C181	C	-0.243453	-1.016122	0.973931
C182	C	0.256547	-0.516122	1.473931
C183	C	-0.266635	-0.978142	0.862504
C184	C	0.233365	-0.478142	1.362504
C185	C	-0.241490	-1.019293	0.899090
C186	C	0.258510	-0.519293	1.399090
H187	H	-0.997731	-0.913914	0.458785
H188	H	-0.497731	-0.413914	0.958785
C189	C	-0.322373	-0.886938	0.787332
C190	C	0.177627	-0.386938	1.287332
H191	H	-0.337866	-0.861590	0.753912
H192	H	0.162134	-0.361590	1.253912
H193	H	-0.305054	-0.855199	0.814625
H194	H	0.194946	-0.355199	1.314625
H195	H	-0.343475	-0.912534	0.817006
H196	H	0.156525	-0.412534	1.317006
H197	H	-0.782409	-1.130362	0.260215
H198	H	-0.282409	-0.630362	0.760215
H199	H	-0.296888	-0.928823	1.110126
H200	H	0.203112	-0.428823	1.610126
H201	H	-0.867517	-1.130366	0.260174
H202	H	-0.367517	-0.630366	0.760174
H203	H	-0.218376	-1.057086	0.870824
H204	H	0.281624	-0.557086	1.370824
H205	H	-0.315830	-0.262751	0.474086
H206	H	0.184170	0.237249	0.974086
H207	H	-0.425327	-0.913832	0.459031
H208	H	0.074673	-0.413832	0.959031
H209	H	-0.211281	-0.402539	0.316795
H210	H	0.288719	0.097461	0.816795
H211	H	-0.425722	-1.083551	0.303308
H212	H	0.074278	-0.583551	0.803308
C213	C	-0.991432	-1.097002	0.290796
C214	C	-0.491432	-0.597002	0.790796
H215	H	-1.012187	-1.124857	0.265225
H216	H	-0.512187	-0.624857	0.765225
H217	H	-0.974695	-1.126388	0.318917
H218	H	-0.474695	-0.626388	0.818917
H219	H	-0.971572	-1.071488	0.259105
H220	H	-0.471572	-0.571488	0.759105
C221	C	-0.179714	-0.592523	0.269311
C222	C	0.320286	-0.092523	0.769311
H223	H	-0.182600	-0.543400	0.273663
H224	H	0.317400	-0.043400	0.773663
H225	H	-0.185453	-0.606552	0.222735
H226	H	0.314547	-0.106552	0.722735
H227	H	-0.150122	-0.604070	0.280013
H228	H	0.349878	-0.104070	0.780013
C229	C	-1.089960	-1.097018	0.290758
C230	C	-0.589960	-0.597018	0.790758
H231	H	-1.121246	-1.090315	0.296890
H232	H	-0.621246	-0.590315	0.796890
H233	H	-1.083887	-1.143682	0.303025
H234	H	-0.583887	-0.643682	0.803025
H235	H	-1.080747	-1.088778	0.243216
H236	H	-0.580747	-0.588778	0.743216
H237	H	-0.214725	-1.062995	0.784295
H238	H	0.285275	-0.562995	1.284295
H239	H	-0.866912	-0.867129	0.501762
H240	H	-0.366912	-0.367129	1.001762
H241	H	-0.292907	-0.508954	0.439590
H242	H	0.207093	-0.008954	0.939590
C243	C	-0.189781	-1.103990	1.128006
C244	C	0.310219	-0.603990	1.628006
H245	H	-0.172596	-1.132073	1.096844
H246	H	0.327404	-0.632073	1.596844
H247	H	-0.208600	-1.133310	1.157839
H248	H	0.291400	-0.633310	1.657839
H249	H	-0.170177	-1.075979	1.155454
H250	H	0.329823	-0.575979	1.655454
C251	C	-0.198689	-0.259798	0.297857
C252	C	0.301311	0.240202	0.797857
H253	H	-0.201575	-0.210675	0.302215
H254	H	0.298425	0.289325	0.802215
H255	H	-0.204426	-0.273820	0.251278
H256	H	0.295574	0.226180	0.751278
H257	H	-0.169097	-0.271346	0.308560
H258	H	0.330903	0.228654	0.808560
C259	C	-0.732838	-0.853733	0.514072
C260	C	-0.232838	-0.353733	1.014072
H261	H	-0.712079	-0.825875	0.539631
H262	H	-0.212079	-0.325875	1.039631
H263	H	-0.752705	-0.879228	0.545761
H264	H	-0.252705	-0.379228	1.045761
H265	H	-0.749566	-0.824343	0.485936
H266	H	-0.249566	-0.324343	0.985936
H267	H	-1.082840	-0.913950	0.458761
H268	H	-0.582840	-0.413950	0.958761
H269	H	-0.310777	-0.905821	0.644584
H270	H	0.189223	-0.405821	1.144584
H271	H	-0.781807	-0.867110	0.501793
H272	H	-0.281807	-0.367110	1.001793
C273	C	-0.517121	-0.900477	0.471257
C274	C	-0.017121	-0.400477	0.971257
H275	H	-0.496364	-0.872620	0.496820
H276	H	0.003636	-0.372620	0.996820
H277	H	-0.536990	-0.925973	0.502943
H278	H	-0.036990	-0.425973	1.002943
H279	H	-0.533848	-0.871086	0.443120
H280	H	-0.033848	-0.371086	0.943120
H281	H	-0.293399	-0.934439	0.977296
H282	H	0.206601	-0.434439	1.477296
H283	H	-0.510828	-1.083558	0.303260
H284	H	-0.010828	-0.583558	0.803260
C285	C	-0.297862	-0.927086	0.900689
C286	C	0.202138	-0.427086	1.400689
H287	H	-0.313354	-0.901731	0.867273
H288	H	0.186646	-0.401731	1.367273
H289	H	-0.280541	-0.895351	0.927985
H290	H	0.219459	-0.395351	1.427985
H291	H	-0.318963	-0.952683	0.930361
H292	H	0.181037	-0.452683	1.430361
C293	C	-0.203128	-1.081877	0.641549
C294	C	0.296872	-0.581877	1.141549
H295	H	-0.187642	-1.107234	0.674970
H296	H	0.312358	-0.607234	1.174970
H297	H	-0.182027	-1.056290	0.611873
H298	H	0.317973	-0.556290	1.111873
H299	H	-0.220452	-1.113618	0.614258
H300	H	0.279548	-0.613618	1.114258
H301	H	-0.192308	-0.735264	0.288251
H302	H	0.307692	-0.235264	0.788251
H303	H	-0.641048	-0.867090	0.501845
H304	H	-0.141048	-0.367090	1.001845
C305	C	-0.185752	-1.110497	0.974254
C306	C	0.314248	-0.610497	1.474254
H307	H	-0.170266	-1.135855	1.007673
H308	H	0.329734	-0.635855	1.507673
H309	H	-0.164652	-1.084909	0.944577
H310	H	0.335348	-0.584909	1.444577
H311	H	-0.203077	-1.142237	0.946963
H312	H	0.296923	-0.642237	1.446963
H313	H	-0.215233	-0.489057	0.322744
H314	H	0.284767	0.010943	0.822744
C315	C	-0.634982	-1.143694	0.248022
C316	C	-0.134982	-0.643694	0.748022
H317	H	-0.655739	-1.171544	0.222452
H318	H	-0.155739	-0.671544	0.722452
H319	H	-0.618248	-1.173083	0.276144
H320	H	-0.118248	-0.673083	0.776144
H321	H	-0.615120	-1.118183	0.216332
H322	H	-0.115120	-0.618183	0.716332
H323	H	-0.726760	-1.130351	0.260253
H324	H	-0.226760	-0.630351	0.760253
H325	H	-0.300617	-0.728298	0.451221
H326	H	0.199383	-0.228298	0.951221
H327	H	-0.296854	-0.595477	0.445546
H328	H	0.203146	-0.095477	0.945546
C329	C	-0.328424	-0.405498	0.493030
C330	C	0.171576	0.094502	0.993030
H331	H	-0.345289	-0.372066	0.518393
H332	H	0.154711	0.127934	1.018393
H333	H	-0.312810	-0.432737	0.524751
H334	H	0.187190	0.067263	1.024751
H335	H	-0.348142	-0.435221	0.467474
H336	H	0.151858	0.064779	0.967474
