data_functionalizedCrystal
_audit_creation_method	'MofGen! by Chris Wilmer'
_symmetry_space_group_name_H-M	'P1'
_symmetry_Int_Tables_number	1
_symmetry_cell_setting	triclinic
loop_
_symmetry_equiv_pos_as_xyz
  x,y,z
_cell_length_a	6.817900
_cell_length_b	16.305550
_cell_length_c	11.102294
_cell_angle_alpha	93.871473
_cell_angle_beta	108.605785
_cell_angle_gamma	103.455250
loop_
_atom_site_label
_atom_site_type_symbol
_atom_site_fract_x
_atom_site_fract_y
_atom_site_fract_z
V1	V	-4.052585	-0.263030	-0.176911
O2	O	-4.012740	-0.258024	0.007398
O3	O	-4.029765	-0.261230	-0.349724
O4	O	-4.003658	-0.377747	-0.174674
O5	O	-4.039027	-0.140701	-0.168864
V6	V	-4.532967	-0.248399	-0.154809
O7	O	-4.320734	-0.295126	-0.225396
O8	O	-4.715015	-0.216304	-0.106325
O9	O	-4.332580	-0.250199	0.018004
O10	O	-4.690209	-0.253405	-0.339118
O11	O	-4.663921	-0.370728	-0.162856
O12	O	-4.358687	-0.133682	-0.157046
C13	C	-3.881006	-0.257081	-0.391837
C14	C	-3.943631	-0.256374	-0.533117
C15	C	-4.214956	-0.259598	-0.738739
C16	C	-4.156122	-0.260252	-0.605990
C17	C	-3.789959	-0.251832	-0.592997
C18	C	-3.848790	-0.251171	-0.725743
C19	C	-3.847702	-0.405709	-0.168542
C20	C	-3.889152	-0.499491	-0.167857
C21	C	-4.039843	-0.840236	-0.165200
C22	C	-3.802621	-0.799308	-0.157314
C23	C	-3.759612	-0.701813	-0.158554
C24	C	-3.965082	-0.671188	-0.166517
C25	C	-4.150802	-0.721814	-0.292033
C26	C	-4.192560	-0.819363	-0.291323
C27	C	-4.077235	-0.794393	-0.048574
C28	C	-4.029157	-0.696551	-0.047580
C29	C	-3.922844	-0.575650	-0.167266
C30	C	-4.082092	-0.935775	-0.164460
C31	C	-4.144682	-0.254346	0.060110
C32	C	-4.061295	-0.255059	0.201389
C33	C	-4.177985	-0.105716	-0.163182
C34	C	-4.115773	-0.011934	-0.163861
H35	H	-3.619679	-0.666790	-0.068308
Cl36	Cl	-3.655595	-0.245454	-0.801014
H37	H	-4.387986	-0.262761	-0.798065
Cl38	Cl	-4.157050	-0.866273	-0.427634
H39	H	-3.705805	-0.685519	-0.243311
Cl40	Cl	-3.617895	-0.818253	-0.017198
H41	H	-4.281252	-0.263947	-0.557248
H42	H	-3.616938	-0.248668	-0.533652
H43	H	-3.770006	-0.830819	-0.241106
H44	H	-4.368035	-0.847355	-0.302331
Cl45	Cl	-4.389656	-0.692620	-0.308044
Cl46	Cl	-4.085528	-0.695859	-0.428386
Cl47	Cl	-3.914262	-0.815034	0.098258
Cl48	Cl	-4.343954	-0.835798	-0.055763
Cl49	Cl	-3.820928	-0.643480	0.095760
H50	H	-4.176213	-0.675203	-0.046019
