data_functionalizedCrystal
_audit_creation_method	'MofGen! by Chris Wilmer'
_symmetry_space_group_name_H-M	'P1'
_symmetry_Int_Tables_number	1
_symmetry_cell_setting	triclinic
loop_
_symmetry_equiv_pos_as_xyz
  x,y,z
_cell_length_a	19.188925
_cell_length_b	19.188930
_cell_length_c	12.996460
_cell_angle_alpha	89.988736
_cell_angle_beta	89.993464
_cell_angle_gamma	83.143665
loop_
_atom_site_label
_atom_site_type_symbol
_atom_site_fract_x
_atom_site_fract_y
_atom_site_fract_z
O1	O	0.926148	0.087151	-0.085600
O2	O	1.176148	0.337151	0.164400
O3	O	1.426148	0.587151	0.414400
O4	O	1.676148	0.837151	0.664400
O5	O	0.722836	0.098889	-0.085599
O6	O	0.972836	0.348889	0.164401
O7	O	1.222836	0.598889	0.414401
O8	O	1.472836	0.848889	0.664401
O9	O	0.830359	-0.008636	-0.085580
O10	O	1.080359	0.241364	0.164420
O11	O	1.330359	0.491364	0.414420
O12	O	1.580359	0.741364	0.664420
O13	O	0.818625	0.194676	-0.085620
O14	O	1.068625	0.444676	0.164380
O15	O	1.318625	0.694676	0.414380
O16	O	1.568625	0.944676	0.664380
O17	O	0.830348	-0.008642	0.085554
O18	O	1.080348	0.241358	0.335554
O19	O	1.330348	0.491358	0.585554
O20	O	1.580348	0.741358	0.835554
O21	O	0.722825	0.098883	0.085535
O22	O	0.972825	0.348883	0.335535
O23	O	1.222825	0.598883	0.585535
O24	O	1.472825	0.848883	0.835535
O25	O	0.926137	0.087145	0.085533
O26	O	1.176137	0.337145	0.335533
O27	O	1.426137	0.587145	0.585533
O28	O	1.676137	0.837145	0.835533
Cu29	Cu	0.824480	0.093013	0.101160
Cu30	Cu	1.074480	0.343013	0.351160
Cu31	Cu	1.324480	0.593013	0.601160
Cu32	Cu	1.574480	0.843013	0.851160
Cu33	Cu	0.824493	0.093020	-0.101226
Cu34	Cu	1.074493	0.343020	0.148774
Cu35	Cu	1.324493	0.593020	0.398774
Cu36	Cu	1.574493	0.843020	0.648774
O37	O	0.818614	0.194670	0.085514
O38	O	1.068614	0.444670	0.335514
O39	O	1.318614	0.694670	0.585514
O40	O	1.568614	0.944670	0.835514
C41	C	0.696820	0.098507	-0.000032
C42	C	0.946820	0.348507	0.249968
C43	C	1.196820	0.598507	0.499968
C44	C	1.446820	0.848507	0.749968
C45	C	0.619315	0.097367	-0.000031
C46	C	0.869315	0.347367	0.249969
C47	C	1.119315	0.597367	0.499969
C48	C	1.369315	0.847367	0.749969
C49	C	0.057545	0.152831	-0.000044
C50	C	0.307545	0.402831	0.249956
C51	C	0.557545	0.652831	0.499956
C52	C	0.807545	0.902831	0.749956
C53	C	0.130368	0.153908	-0.000050
C54	C	0.380368	0.403908	0.249950
C55	C	0.630368	0.653908	0.499950
C56	C	0.880368	0.903908	0.749950
C57	C	0.175302	0.090816	-0.000035
C58	C	0.425302	0.340816	0.249965
C59	C	0.675302	0.590816	0.499965
C60	C	0.925302	0.840816	0.749965
C61	C	0.147408	0.026642	-0.000042
C62	C	0.397408	0.276642	0.249958
C63	C	0.647408	0.526642	0.499958
C64	C	0.897408	0.776642	0.749958
C65	C	0.074586	0.025568	-0.000046
C66	C	0.324586	0.275568	0.249954
C67	C	0.574586	0.525568	0.499954
C68	C	0.824586	0.775568	0.749954
N69	N	0.295976	0.045138	0.058229
N70	N	0.545976	0.295138	0.308229
N71	N	0.795976	0.545138	0.558229
N72	N	1.045976	0.795138	0.808229
N73	N	0.365153	0.046163	0.058235
N74	N	0.615153	0.296163	0.308235
N75	N	0.865153	0.546163	0.558235
N76	N	1.115153	0.796163	0.808235
C77	C	0.394712	0.094050	-0.000024
C78	C	0.644712	0.344050	0.249976
C79	C	0.894712	0.594050	0.499976
C80	C	1.144712	0.844050	0.749976
N81	N	0.352478	0.140884	-0.058277
N82	N	0.602478	0.390884	0.191723
N83	N	0.852478	0.640884	0.441723
N84	N	1.102478	0.890884	0.691723
N85	N	0.283294	0.139860	-0.058279
N86	N	0.533294	0.389860	0.191721
N87	N	0.783294	0.639860	0.441721
N88	N	1.033294	0.889860	0.691721
C89	C	0.254267	0.091974	-0.000031
C90	C	0.504267	0.341974	0.249969
C91	C	0.754267	0.591974	0.499969
C92	C	1.004267	0.841974	0.749969
C93	C	0.501561	0.159386	-0.000031
C94	C	0.751561	0.409386	0.249969
C95	C	1.001561	0.659386	0.499969
C96	C	1.251561	0.909386	0.749969
C97	C	0.574385	0.160460	-0.000043
C98	C	0.824385	0.410460	0.249957
C99	C	1.074385	0.660460	0.499957
C100	C	1.324385	0.910460	0.749957
C101	C	0.591425	0.033193	-0.000025
C102	C	0.841425	0.283193	0.249975
C103	C	1.091425	0.533193	0.499975
C104	C	1.341425	0.783193	0.749975
C105	C	0.518601	0.032121	-0.000023
C106	C	0.768601	0.282121	0.249977
C107	C	1.018601	0.532121	0.499977
C108	C	1.268601	0.782121	0.749977
C109	C	0.473673	0.095220	-0.000021
C110	C	0.723673	0.345220	0.249979
C111	C	0.973673	0.595220	0.499979
C112	C	1.223673	0.845220	0.749979
C113	C	0.829974	-0.034650	-0.000010
C114	C	1.079974	0.215350	0.249990
C115	C	1.329974	0.465350	0.499990
C116	C	1.579974	0.715350	0.749990
C117	C	0.828833	-0.112154	-0.000001
C118	C	1.078833	0.137846	0.249999
C119	C	1.328833	0.387846	0.499999
C120	C	1.578833	0.637846	0.749999
C121	C	0.891924	-0.157079	0.000003
C122	C	1.141924	0.092921	0.250003
C123	C	1.391924	0.342921	0.500003
C124	C	1.641924	0.592921	0.750003
C125	C	0.890852	-0.229903	-0.000013
C126	C	1.140852	0.020097	0.249987
C127	C	1.390852	0.270097	0.499987
C128	C	1.640852	0.520097	0.749987
C129	C	0.826686	-0.257799	-0.000013
C130	C	1.076686	-0.007799	0.249987
C131	C	1.326686	0.242201	0.499987
C132	C	1.576686	0.492201	0.749987
C133	C	0.763587	-0.212864	-0.000024
C134	C	1.013587	0.037136	0.249976
C135	C	1.263587	0.287136	0.499976
C136	C	1.513587	0.537136	0.749976
C137	C	0.764660	-0.140041	-0.000018
C138	C	1.014660	0.109959	0.249982
C139	C	1.264660	0.359959	0.499982
C140	C	1.514660	0.609959	0.749982
N141	N	0.777635	-0.365805	0.058227
N142	N	1.027635	-0.115805	0.308227
N143	N	1.277635	0.134195	0.558227
N144	N	1.527635	0.384195	0.808227
N145	N	0.776620	-0.434983	0.058223
N146	N	1.026620	-0.184983	0.308223
N147	N	1.276620	0.065017	0.558223
N148	N	1.526620	0.315017	0.808223
C149	C	0.823448	-0.477207	-0.000034
C150	C	1.073448	-0.227207	0.249966
C151	C	1.323448	0.022793	0.499966
C152	C	1.573448	0.272793	0.749966
N153	N	0.871341	-0.447641	-0.058275
N154	N	1.121341	-0.197641	0.191725
N155	N	1.371341	0.052359	0.441725
N156	N	1.621341	0.302359	0.691725
N157	N	0.872359	-0.378456	-0.058267
N158	N	1.122359	-0.128456	0.191733
N159	N	1.372359	0.121544	0.441733
N160	N	1.622359	0.371544	0.691733
C161	C	0.825515	-0.336761	-0.000021
C162	C	1.075515	-0.086761	0.249979
C163	C	1.325515	0.163239	0.499979
C164	C	1.575515	0.413239	0.749979
C165	C	0.885381	-0.601097	-0.000049
C166	C	1.135381	-0.351097	0.249951
C167	C	1.385381	-0.101097	0.499951
C168	C	1.635381	0.148903	0.749951
C169	C	0.884307	-0.673922	-0.000072
C170	C	1.134307	-0.423922	0.249928
C171	C	1.384307	-0.173922	0.499928
C172	C	1.634307	0.076078	0.749928
C173	C	0.757040	-0.656880	-0.000072
C174	C	1.007040	-0.406880	0.249928
C175	C	1.257040	-0.156880	0.499928
C176	C	1.507040	0.093120	0.749928
C177	C	0.758116	-0.584057	-0.000060
C178	C	1.008116	-0.334057	0.249940
C179	C	1.258116	-0.084057	0.499940
C180	C	1.508116	0.165943	0.749940
C181	C	0.822289	-0.556170	-0.000043
C182	C	1.072289	-0.306170	0.249957
C183	C	1.322289	-0.056170	0.499957
C184	C	1.572289	0.193830	0.749957
C185	C	0.952154	0.087527	-0.000036
C186	C	1.202154	0.337527	0.249964
C187	C	1.452154	0.587527	0.499964
C188	C	1.702154	0.837527	0.749964
C189	C	1.029658	0.088666	-0.000044
C190	C	1.279658	0.338666	0.249956
C191	C	1.529658	0.588666	0.499956
C192	C	1.779658	0.838666	0.749956
C193	C	0.819000	0.220684	-0.000058
C194	C	1.069000	0.470684	0.249942
C195	C	1.319000	0.720684	0.499942
C196	C	1.569000	0.970684	0.749942
C197	C	0.820140	0.298188	-0.000074
C198	C	1.070140	0.548188	0.249926
C199	C	1.320140	0.798188	0.499926
C200	C	1.570140	1.048188	0.749926
N201	N	0.824476	0.093008	0.243507
N202	N	1.074476	0.343008	0.493507
N203	N	1.324476	0.593008	0.743507
N204	N	1.574476	0.843008	0.993507
N205	N	0.824503	0.093020	-0.243573
N206	N	1.074503	0.343020	0.006427
N207	N	1.324503	0.593020	0.256427
N208	N	1.574503	0.843020	0.506427
C209	C	0.824492	0.093021	0.663321
C210	C	1.074492	0.343021	0.913321
C211	C	1.324492	0.593021	1.163321
C212	C	1.574492	0.843021	1.413321
C213	C	0.824486	0.093020	0.546516
C214	C	1.074486	0.343020	0.796516
C215	C	1.324486	0.593020	1.046516
C216	C	1.574486	0.843020	1.296516
C217	C	0.824484	0.093015	0.453418
C218	C	1.074484	0.343015	0.703418
C219	C	1.324484	0.593015	0.953418
C220	C	1.574484	0.843015	1.203418
C221	C	0.824477	0.093013	0.336605
C222	C	1.074477	0.343013	0.586605
C223	C	1.324477	0.593013	0.836605
C224	C	1.574477	0.843013	1.086605
H225	H	0.628010	-0.018178	-0.000021
H226	H	0.878010	0.231822	0.249979
H227	H	1.128010	0.481822	0.499979
H228	H	1.378010	0.731822	0.749979
Cl229	Cl	0.678797	-0.527576	-0.000061
Cl230	Cl	0.928797	-0.277576	0.249939
Cl231	Cl	1.178797	-0.027576	0.499939
Cl232	Cl	1.428797	0.222424	0.749939
H233	H	0.704794	-0.679592	-0.000078
H234	H	0.954794	-0.429592	0.249922
H235	H	1.204794	-0.179592	0.499922
H236	H	1.454794	0.070408	0.749922
Cl237	Cl	0.609442	0.241132	-0.000053
Cl238	Cl	0.859442	0.491132	0.249947
Cl239	Cl	1.109442	0.741132	0.499947
Cl240	Cl	1.359442	0.991132	0.749947
H241	H	0.495896	-0.020129	-0.000017
H242	H	0.745896	0.229871	0.249983
H243	H	0.995896	0.479871	0.499983
H244	H	1.245896	0.729871	0.749983
H245	H	0.942230	-0.266488	-0.000013
H246	H	1.192230	-0.016488	0.249987
H247	H	1.442230	0.233512	0.499987
H248	H	1.692230	0.483512	0.749987
Cl249	Cl	0.001068	0.232156	-0.000056
Cl250	Cl	0.251068	0.482156	0.249944
Cl251	Cl	0.501068	0.732156	0.499944
Cl252	Cl	0.751068	0.982156	0.749944
Cl253	Cl	0.966054	-0.566035	-0.000022
Cl254	Cl	1.216054	-0.316035	0.249978
Cl255	Cl	1.466054	-0.066035	0.499978
Cl256	Cl	1.716054	0.183965	0.749978
Cl257	Cl	0.685339	-0.083561	-0.000023
Cl258	Cl	0.935339	0.166439	0.249977
Cl259	Cl	1.185339	0.416439	0.499977
Cl260	Cl	1.435339	0.666439	0.749977
Cl261	Cl	0.972598	-0.122025	-0.000005
Cl262	Cl	1.222598	0.127975	0.249995
Cl263	Cl	1.472598	0.377975	0.499995
Cl264	Cl	1.722598	0.627975	0.749995
Cl265	Cl	0.203896	-0.052674	-0.000028
Cl266	Cl	0.453896	0.197326	0.249972
Cl267	Cl	0.703896	0.447326	0.499972
Cl268	Cl	0.953896	0.697326	0.749972
H269	H	0.153078	0.206160	-0.000040
H270	H	0.403078	0.456160	0.249960
H271	H	0.653078	0.706160	0.499960
H272	H	0.903078	0.956160	0.749960
Cl273	Cl	0.682921	-0.247931	-0.000032
Cl274	Cl	0.932921	0.002069	0.249968
Cl275	Cl	1.182921	0.252069	0.499968
Cl276	Cl	1.432921	0.502069	0.749968
H277	H	0.051883	-0.026685	-0.000047
H278	H	0.301883	0.223315	0.249953
H279	H	0.551883	0.473315	0.499953
H280	H	0.801883	0.723315	0.749953
Cl281	Cl	0.445077	0.238709	-0.000033
Cl282	Cl	0.695077	0.488709	0.249967
Cl283	Cl	0.945077	0.738709	0.499967
Cl284	Cl	1.195077	0.988709	0.749967
H285	H	0.935686	-0.710500	-0.000074
H286	H	1.185686	-0.460500	0.249926
H287	H	1.435686	-0.210500	0.499926
H288	H	1.685686	0.039500	0.749926
