data_functionalizedCrystal
_audit_creation_method	'MofGen! by Chris Wilmer'
_symmetry_space_group_name_H-M	'P1'
_symmetry_Int_Tables_number	1
_symmetry_cell_setting	triclinic
loop_
_symmetry_equiv_pos_as_xyz
  x,y,z
_cell_length_a	19.188930
_cell_length_b	16.992695
_cell_length_c	16.053802
_cell_angle_alpha	87.258926
_cell_angle_beta	92.586369
_cell_angle_gamma	86.906501
loop_
_atom_site_label
_atom_site_type_symbol
_atom_site_fract_x
_atom_site_fract_y
_atom_site_fract_z
O1	O	-0.934644	-0.094549	-0.069701
O2	O	-0.601310	0.238784	0.263632
O3	O	-0.267977	0.572118	0.596966
O4	O	-0.732101	-0.107727	-0.069644
O5	O	-0.398768	0.225606	0.263689
O6	O	-0.065434	0.558940	0.597023
O7	O	-0.832560	0.013002	-0.069666
O8	O	-0.499227	0.346335	0.263668
O9	O	-0.165893	0.679668	0.597001
O10	O	-0.834185	-0.215277	-0.069679
O11	O	-0.500851	0.118056	0.263654
O12	O	-0.167518	0.451389	0.596987
O13	O	-0.827029	0.006384	0.069194
O14	O	-0.493696	0.339717	0.402528
O15	O	-0.160362	0.673050	0.735861
O16	O	-0.726570	-0.114345	0.069216
O17	O	-0.393237	0.218989	0.402549
O18	O	-0.059903	0.552322	0.735883
O19	O	-0.929113	-0.101167	0.069159
O20	O	-0.595779	0.232167	0.402492
O21	O	-0.262446	0.565500	0.735826
Zn22	Zn	-0.826963	-0.108807	0.091235
Zn23	Zn	-0.493630	0.224527	0.424568
Zn24	Zn	-0.160296	0.557860	0.757901
Zn25	Zn	-0.834250	-0.100087	-0.091720
Zn26	Zn	-0.500917	0.233246	0.241614
Zn27	Zn	-0.167584	0.566580	0.574947
O28	O	-0.828653	-0.221895	0.069181
O29	O	-0.495320	0.111438	0.402514
O30	O	-0.161987	0.444771	0.735847
C31	C	-0.703299	-0.110610	-0.000207
C32	C	-0.369966	0.222724	0.333127
C33	C	-0.036633	0.556057	0.666460
C34	C	-0.625719	-0.109330	-0.000185
C35	C	-0.292386	0.224004	0.333149
C36	C	0.040948	0.557337	0.666482
C37	C	-0.827705	0.038898	-0.000235
C38	C	-0.494372	0.372231	0.333098
C39	C	-0.161039	0.705565	0.666432
C40	C	-0.821472	0.125921	-0.000234
C41	C	-0.488139	0.459254	0.333100
C42	C	-0.154806	0.792587	0.666433
C43	C	-0.957914	-0.098284	-0.000280
C44	C	-0.624581	0.235049	0.333053
C45	C	-0.291248	0.568383	0.666387
C46	C	-1.035495	-0.099564	-0.000308
C47	C	-0.702162	0.233770	0.333026
C48	C	-0.368828	0.567103	0.666359
C49	C	-0.584941	-0.180168	-0.000202
C50	C	-0.251608	0.153165	0.333131
C51	C	0.081726	0.486499	0.666465
C52	C	-0.512047	-0.178964	-0.000211
C53	C	-0.178714	0.154369	0.333122
C54	C	0.154620	0.487702	0.666456
C55	C	-0.479935	-0.106918	-0.000220
C56	C	-0.146601	0.226416	0.333114
C57	C	0.186732	0.559749	0.666447
C58	C	-0.520722	-0.036070	-0.000198
C59	C	-0.187389	0.297263	0.333136
C60	C	0.145945	0.630596	0.666469
C61	C	-0.593614	-0.037276	-0.000180
C62	C	-0.260281	0.296057	0.333153
C63	C	0.073053	0.629390	0.666487
N64	N	-0.370616	-0.049593	-0.047510
N65	N	-0.037282	0.283740	0.285823
N66	N	0.296051	0.617073	0.619157
N67	N	-0.301371	-0.048452	-0.047528
N68	N	0.031962	0.284881	0.285805
N69	N	0.365295	0.618214	0.619138
C70	C	-0.260316	-0.103279	-0.000271
C71	C	0.073018	0.230054	0.333063
C72	C	0.406351	0.563387	0.666396
N73	N	-0.291120	-0.159302	0.046996
N74	N	0.042213	0.174031	0.380329
N75	N	0.375547	0.507365	0.713663
N76	N	-0.360371	-0.160445	0.047011
N77	N	-0.027038	0.172888	0.380344
N78	N	0.306296	0.506222	0.713677
C79	C	-0.400896	-0.105602	-0.000238
C80	C	-0.067563	0.227732	0.333095
C81	C	0.265771	0.561065	0.666429
C82	C	-0.140497	-0.172817	-0.000297
C83	C	0.192836	0.160516	0.333037
C84	C	0.526169	0.493849	0.666370
C85	C	-0.067602	-0.171611	-0.000300
C86	C	0.265731	0.161723	0.333033
C87	C	0.599065	0.495056	0.666366
C88	C	-0.076279	-0.028714	-0.000295
C89	C	0.257054	0.304619	0.333038
C90	C	0.590388	0.637952	0.666371
C91	C	-0.149172	-0.029923	-0.000283
C92	C	0.184161	0.303410	0.333050
C93	C	0.517494	0.636743	0.666384
C94	C	-0.181277	-0.101977	-0.000288
C95	C	0.152056	0.231357	0.333046
C96	C	0.485390	0.564690	0.666379
C97	C	-0.833508	-0.247792	-0.000252
C98	C	-0.500175	0.085542	0.333082
C99	C	-0.166841	0.418875	0.666415
C100	C	-0.839741	-0.334814	-0.000259
C101	C	-0.506408	-0.001481	0.333075
C102	C	-0.173075	0.331853	0.666408
N103	N	-0.821995	-0.114757	0.216096
N104	N	-0.488661	0.218577	0.549429
N105	N	-0.155328	0.551910	0.882763
C106	C	-0.881613	0.176368	-0.000250
C107	C	-0.548279	0.509702	0.333084
C108	C	-0.214946	0.843035	0.666417
C109	C	-0.875752	0.258135	-0.000256
C110	C	-0.542419	0.591468	0.333077
C111	C	-0.209086	0.924802	0.666411
C112	C	-0.809751	0.289453	-0.000240
C113	C	-0.476417	0.622786	0.333093
C114	C	-0.143084	0.956119	0.666426
C115	C	-0.749606	0.238999	-0.000227
C116	C	-0.416273	0.572332	0.333107
C117	C	-0.082940	0.905665	0.666440
C118	C	-0.755467	0.157234	-0.000226
C119	C	-0.422134	0.490567	0.333107
C120	C	-0.088801	0.823900	0.666440
C121	C	-0.785458	0.532967	-0.000245
C122	C	-0.452125	0.866300	0.333088
C123	C	-0.118791	1.199634	0.666422
C124	C	-0.779601	0.614738	-0.000243
C125	C	-0.446268	0.948072	0.333091
C126	C	-0.112934	1.281405	0.666424
C127	C	-0.905748	0.633869	-0.000273
C128	C	-0.572415	0.967203	0.333060
C129	C	-0.239081	1.300536	0.666393
C130	C	-0.911603	0.552102	-0.000268
C131	C	-0.578270	0.885435	0.333065
C132	C	-0.244937	1.218768	0.666399
C133	C	-0.851459	0.501655	-0.000259
C134	C	-0.518125	0.834989	0.333074
C135	C	-0.184792	1.168322	0.666408
N136	N	-0.803759	0.373031	-0.000244
N137	N	-0.470425	0.706364	0.333089
N138	N	-0.137092	1.039698	0.666423
N139	N	-0.857452	0.418079	-0.000261
N140	N	-0.524118	0.751412	0.333072
N141	N	-0.190785	1.084745	0.666405
N142	N	-0.839224	-0.094131	-0.216581
N143	N	-0.505891	0.239203	0.116752
N144	N	-0.172557	0.572536	0.450086
C145	C	-0.864758	-0.063405	0.259781
C146	C	-0.531424	0.269929	0.593114
C147	C	-0.198091	0.603262	0.926447
C148	C	-0.861289	-0.067575	0.347188
C149	C	-0.527956	0.265759	0.680522
C150	C	-0.194623	0.599092	1.013855
C151	C	-0.815061	-0.123101	0.390909
C152	C	-0.481727	0.210233	0.724243
C153	C	-0.148394	0.543566	1.057576
C154	C	-0.772293	-0.174455	0.347219
C155	C	-0.438959	0.158878	0.680552
C156	C	-0.105626	0.492212	1.013885
C157	C	-0.775758	-0.170281	0.259813
C158	C	-0.442425	0.163053	0.593146
C159	C	-0.109092	0.496386	0.926479
C160	C	-0.799922	-0.141311	0.652322
C161	C	-0.466588	0.192022	0.985656
C162	C	-0.133255	0.525356	1.318989
C163	C	-0.796461	-0.145483	0.739734
C164	C	-0.463128	0.187851	1.073068
C165	C	-0.129794	0.521184	1.406401
C166	C	-0.885457	-0.038601	0.739698
C167	C	-0.552123	0.294733	1.073031
C168	C	-0.218790	0.628066	1.406365
C169	C	-0.888921	-0.034435	0.652290
C170	C	-0.555588	0.298898	0.985624
C171	C	-0.222255	0.632232	1.318957
C172	C	-0.846151	-0.085786	0.608607
C173	C	-0.512817	0.247547	0.941940
C174	C	-0.179484	0.580880	1.275274
N175	N	-0.811516	-0.127366	0.480254
N176	N	-0.478182	0.205968	0.813587
N177	N	-0.144849	0.539301	1.146921
N178	N	-0.849693	-0.081517	0.519264
N179	N	-0.516359	0.251816	0.852598
N180	N	-0.183026	0.585150	1.185931
H181	H	-0.478839	-0.236651	-0.000223
H182	H	-0.145506	0.096682	0.333110
H183	H	0.187828	0.430016	0.666444
H184	H	-0.758814	-0.190702	0.775328
H185	H	-0.425481	0.142631	1.108661
H186	H	-0.092147	0.475965	1.441995
C187	C	-0.620256	-0.259421	-0.000203
C188	C	-0.286922	0.073912	0.333131
C189	C	0.046411	0.407245	0.666464
H190	H	-0.669509	-0.249996	-0.000197
H191	H	-0.336176	0.083337	0.333137
H192	H	-0.002842	0.416670	0.666470
H193	H	-0.604581	-0.290891	0.048214
H194	H	-0.271247	0.042442	0.381547
H195	H	0.062086	0.375775	0.714880
H196	H	-0.608474	-0.286265	-0.048640
H197	H	-0.275141	0.047068	0.284694
H198	H	0.058193	0.380402	0.618027
H199	H	-0.896110	-0.025759	0.382756
H200	H	-0.562776	0.307574	0.716089
H201	H	-0.229443	0.640907	1.049423
C202	C	-0.194031	0.048000	-0.000277
C203	C	0.139303	0.381334	0.333056
C204	C	0.472636	0.714667	0.666390
H205	H	-0.164468	0.091083	-0.000290
H206	H	0.168865	0.424416	0.333043
H207	H	0.502198	0.757749	0.666377
H208	H	-0.220702	0.048195	0.048152
H209	H	0.112631	0.381528	0.381485
H210	H	0.445965	0.714861	0.714819
H211	H	-0.224590	0.052805	-0.048701
H212	H	0.108743	0.386138	0.284632
H213	H	0.442076	0.719471	0.617965
H214	H	-0.740935	-0.212096	0.224245
H215	H	-0.407602	0.121237	0.557579
H216	H	-0.074268	0.454571	0.890912
H217	H	-0.765098	-0.183125	0.616762
H218	H	-0.431764	0.150208	0.950096
H219	H	-0.098431	0.483542	1.283429
C220	C	-0.022743	-0.249535	-0.000320
C221	C	0.310591	0.083799	0.333013
C222	C	0.643924	0.417132	0.666346
H223	H	0.025268	-0.238499	-0.000321
H224	H	0.358602	0.094834	0.333013
H225	H	0.691935	0.428167	0.666346
H226	H	-0.034851	-0.276776	-0.048746
H227	H	0.298482	0.056557	0.284587
H228	H	0.631815	0.389891	0.617921
H229	H	-0.030962	-0.281400	0.048107
H230	H	0.302372	0.051934	0.381441
H231	H	0.635705	0.385267	0.714774
H232	H	-0.695866	0.264504	-0.000219
H233	H	-0.362533	0.597837	0.333114
H234	H	-0.029200	0.931171	0.666448
H235	H	-0.706495	0.116159	-0.000213
H236	H	-0.373161	0.449493	0.333120
H237	H	-0.039828	0.782826	0.666453
C238	C	-0.721444	-0.235534	0.395309
C239	C	-0.388110	0.097800	0.728643
C240	C	-0.054777	0.431133	1.061976
H241	H	-0.725509	-0.230671	0.453622
H242	H	-0.392176	0.102662	0.786956
H243	H	-0.058842	0.435995	1.120289
H244	H	-0.674947	-0.226468	0.381015
H245	H	-0.341614	0.106865	0.714348
H246	H	-0.008281	0.440198	1.047682
H247	H	-0.732516	-0.287151	0.380967
H248	H	-0.399183	0.046183	0.714300
H249	H	-0.065849	0.379516	1.047634
C250	C	-0.954215	0.141926	-0.000267
C251	C	-0.620882	0.475260	0.333066
C252	C	-0.287548	0.808593	0.666400
H253	H	-0.989192	0.183685	-0.000285
H254	H	-0.655859	0.517018	0.333048
H255	H	-0.322526	0.850352	0.666381
H256	H	-0.957197	0.108123	0.048155
H257	H	-0.623863	0.441456	0.381489
H258	H	-0.290530	0.774789	0.714822
H259	H	-0.961052	0.112734	-0.048698
H260	H	-0.627718	0.446067	0.284635
H261	H	-0.294385	0.779400	0.617969
C262	C	-0.941906	0.313624	-0.000265
C263	C	-0.608573	0.646957	0.333068
C264	C	-0.275240	0.980290	0.666402
H265	H	-0.982053	0.283261	-0.000262
H266	H	-0.648719	0.616594	0.333071
H267	H	-0.315386	0.949928	0.666405
H268	H	-0.944178	0.348224	-0.048688
H269	H	-0.610845	0.681557	0.284645
H270	H	-0.277511	1.014891	0.617978
H271	H	-0.940307	0.343611	0.048165
H272	H	-0.606974	0.676944	0.381498
H273	H	-0.273640	1.010278	0.714832
H274	H	-0.494572	0.022591	-0.000216
H275	H	-0.161239	0.355925	0.333117
H276	H	0.172095	0.689258	0.666451
C277	C	-0.638472	0.040649	-0.000171
C278	C	-0.305139	0.373983	0.333162
C279	C	0.028195	0.707316	0.666496
H280	H	-0.608910	0.083732	-0.000182
H281	H	-0.275577	0.417066	0.333152
H282	H	0.057756	0.750399	0.666485
H283	H	-0.665146	0.040843	0.048256
H284	H	-0.331813	0.374176	0.381589
H285	H	0.001521	0.707510	0.714922
H286	H	-0.669029	0.045453	-0.048598
H287	H	-0.335696	0.378787	0.284736
H288	H	-0.002362	0.712120	0.618069
C289	C	-0.915609	-0.002324	0.211695
C290	C	-0.582275	0.331009	0.545028
C291	C	-0.248942	0.664342	0.878362
H292	H	-0.940575	0.027666	0.250234
H293	H	-0.607241	0.361000	0.583567
H294	H	-0.273908	0.694333	0.916901
H295	H	-0.947593	-0.028813	0.177574
H296	H	-0.614259	0.304521	0.510908
H297	H	-0.280926	0.637854	0.844241
H298	H	-0.890024	0.031870	0.177621
H299	H	-0.556691	0.365203	0.510954
H300	H	-0.223357	0.698537	0.844288
H301	H	-0.926564	0.010779	0.616694
H302	H	-0.593231	0.344112	0.950028
H303	H	-0.259897	0.677445	1.283361
C304	C	-0.706997	0.649187	-0.000240
C305	C	-0.373664	0.982520	0.333094
C306	C	-0.040330	1.315853	0.666427
H307	H	-0.672016	0.607433	-0.000245
H308	H	-0.338683	0.940767	0.333089
H309	H	-0.005350	1.274100	0.666422
H310	H	-0.700153	0.678382	0.048183
H311	H	-0.366819	1.011716	0.381516
H312	H	-0.033486	1.345049	0.714849
H313	H	-0.704030	0.682990	-0.048671
H314	H	-0.370696	1.016323	0.284663
H315	H	-0.037363	1.349656	0.617996
C316	C	-0.175819	-0.252069	-0.000291
C317	C	0.157514	0.081264	0.333042
C318	C	0.490848	0.414598	0.666375
H319	H	-0.225072	-0.242642	-0.000290
H320	H	0.108261	0.090691	0.333043
H321	H	0.441595	0.424025	0.666377
H322	H	-0.160147	-0.283535	0.048129
H323	H	0.173186	0.049798	0.381462
H324	H	0.506520	0.383132	0.714796
H325	H	-0.164035	-0.278919	-0.048724
H326	H	0.169298	0.054415	0.284609
H327	H	0.502632	0.387748	0.617943
C328	C	-0.719304	0.477483	-0.000235
C329	C	-0.385970	0.810817	0.333098
C330	C	-0.052637	1.144150	0.666431
H331	H	-0.732243	0.424301	-0.000249
H332	H	-0.398910	0.757635	0.333084
H333	H	-0.065576	1.090968	0.666418
H334	H	-0.690495	0.484645	0.048193
H335	H	-0.357162	0.817978	0.381526
H336	H	-0.023828	1.151312	0.714860
H337	H	-0.694364	0.489265	-0.048660
H338	H	-0.361030	0.822598	0.284673
H339	H	-0.027697	1.155931	0.618006
C340	C	-0.932493	0.017888	0.787751
C341	C	-0.599160	0.351221	1.121084
C342	C	-0.265826	0.684554	1.454418
H343	H	-0.923806	0.007456	0.846068
H344	H	-0.590472	0.340790	1.179402
H345	H	-0.257139	0.674123	1.512735
H346	H	-0.980125	0.010192	0.773399
H347	H	-0.646792	0.343526	1.106732
H348	H	-0.313458	0.676859	1.440066
H349	H	-0.922554	0.070872	0.773439
H350	H	-0.589221	0.404206	1.106772
H351	H	-0.255888	0.737539	1.440105
H352	H	-0.954714	0.674951	-0.000282
H353	H	-0.621381	1.008284	0.333051
H354	H	-0.288047	1.341618	0.666384
C355	C	-0.040965	0.050536	-0.000310
C356	C	0.292369	0.383869	0.333024
C357	C	0.625702	0.717203	0.666357
H358	H	0.008288	0.041110	-0.000329
H359	H	0.341621	0.374443	0.333005
H360	H	0.674955	0.707777	0.666338
H361	H	-0.052746	0.077391	0.048115
H362	H	0.280587	0.410724	0.381448
H363	H	0.613921	0.744058	0.714782
H364	H	-0.056640	0.081996	-0.048738
H365	H	0.276693	0.415330	0.284595
H366	H	0.610027	0.748663	0.617928
H367	H	-0.965348	0.526610	-0.000281
H368	H	-0.632015	0.859943	0.333053
H369	H	-0.298682	1.193276	0.666386
