data_functionalizedCrystal
_audit_creation_method	'MofGen! by Chris Wilmer'
_symmetry_space_group_name_H-M	'P1'
_symmetry_Int_Tables_number	1
_symmetry_cell_setting	triclinic
loop_
_symmetry_equiv_pos_as_xyz
  x,y,z
_cell_length_a	16.974897
_cell_length_b	12.784905
_cell_length_c	16.053802
_cell_angle_alpha	92.294724
_cell_angle_beta	83.774775
_cell_angle_gamma	78.265036
loop_
_atom_site_label
_atom_site_type_symbol
_atom_site_fract_x
_atom_site_fract_y
_atom_site_fract_z
O1	O	1.047167	0.126519	-0.140107
O2	O	0.814955	0.144770	-0.124435
O3	O	0.948053	-0.019180	-0.133415
O4	O	0.914068	0.290469	-0.131126
O5	O	0.940730	-0.010193	0.005938
O6	O	0.807632	0.153757	0.014918
O7	O	1.039843	0.135506	-0.000754
Zn8	Zn	0.922575	0.146059	0.029208
Zn9	Zn	0.932224	0.134218	-0.154396
O10	O	0.906745	0.299457	0.008227
C11	C	0.781776	0.148734	-0.052766
C12	C	0.693825	0.147142	-0.046830
C13	C	0.656489	0.141498	-0.119997
C14	C	0.573846	0.140020	-0.114407
C15	C	0.528541	0.144178	-0.035650
C16	C	0.565882	0.149826	0.037522
C17	C	0.648522	0.151311	0.031932
C18	C	0.280955	0.140267	-0.010784
C19	C	0.198309	0.138778	-0.005199
C20	C	0.206279	0.128974	-0.157129
C21	C	0.288922	0.130454	-0.162712
C22	C	0.326254	0.136107	-0.089541
N23	N	0.444067	0.142664	-0.029934
N24	N	0.410725	0.137629	-0.095257
C25	C	0.946602	-0.054299	-0.063889
C26	C	0.953179	-0.172331	-0.064336
C27	C	0.819189	-0.367945	-0.055285
C28	C	0.825365	-0.478846	-0.055705
C29	C	0.971705	-0.505034	-0.065591
C30	C	0.965529	-0.394133	-0.065171
C31	C	0.889269	-0.325592	-0.060019
C32	C	0.883094	-0.214690	-0.059605
C33	C	1.029433	-0.240880	-0.069484
C34	C	1.035609	-0.351781	-0.069905
C35	C	1.073022	0.131542	-0.072424
C36	C	1.160974	0.133134	-0.078366
C37	C	0.908196	0.334575	-0.061301
C38	C	0.901620	0.452606	-0.060859
N39	N	0.915995	0.154139	0.154512
N40	N	0.938810	0.126129	-0.279701
C41	C	0.972646	0.084403	0.194383
C42	C	0.968050	0.090065	0.282100
C43	C	0.906807	0.165470	0.329944
C44	C	0.850150	0.235210	0.290067
C45	C	0.854743	0.229541	0.202351
C46	C	0.886746	0.190200	0.592707
C47	C	0.882159	0.195865	0.680428
C48	C	1.000059	0.050719	0.672455
C49	C	1.004649	0.045061	0.584739
C50	C	0.947990	0.114797	0.544869
N51	N	0.902109	0.171262	0.419604
N52	N	0.952685	0.108999	0.455211
H53	H	0.543452	0.135424	-0.173987
H54	H	0.325805	0.127060	-0.226845
C55	C	1.029443	0.014233	0.325436
C56	C	0.989043	-0.047428	0.378341
C57	C	1.045575	-0.117310	0.418263
H58	H	1.058068	0.054411	0.357658
H59	H	1.066567	-0.031538	0.284402
H60	H	0.951933	-0.001662	0.419369
H61	H	0.960421	-0.087628	0.346140
H62	H	1.082699	-0.163082	0.377230
H63	H	1.074197	-0.077124	0.450481
H64	H	1.018173	-0.159163	0.454158
H65	H	1.097697	-0.407601	-0.074096
H66	H	0.311342	0.144863	0.048798
H67	H	1.033791	-0.560858	-0.069775
H68	H	0.528987	0.153218	0.101648
C69	C	0.815569	0.277764	0.732230
C70	C	0.766916	0.337599	0.678542
C71	C	0.705561	0.413037	0.726233
H72	H	0.839159	0.324205	0.764728
H73	H	0.783351	0.241898	0.768494
H74	H	0.799129	0.373463	0.642293
H75	H	0.743306	0.291187	0.646044
H76	H	0.673343	0.377171	0.762497
H77	H	0.729158	0.459470	0.758729
H78	H	0.672538	0.453638	0.689813
C79	C	0.825369	0.265975	0.549317
C80	C	0.865787	0.327584	0.496380
C81	C	0.809274	0.397399	0.456386
H82	H	0.788221	0.311792	0.590285
H83	H	0.796772	0.225716	0.517112
H84	H	0.894371	0.367840	0.528583
H85	H	0.902932	0.281795	0.455397
H86	H	0.780677	0.357140	0.424181
H87	H	0.772128	0.443209	0.497360
H88	H	0.836690	0.439202	0.420458
H89	H	0.808611	0.286327	0.169889
H90	H	1.054519	-0.016339	0.545786
C91	C	0.165818	0.123017	-0.236634
C92	C	0.173115	0.211886	-0.282802
C93	C	0.135861	0.206433	-0.356055
H94	H	0.110097	0.122777	-0.222145
H95	H	0.191332	0.059276	-0.269508
H96	H	0.147599	0.275610	-0.249935
H97	H	0.228827	0.212144	-0.297313
H98	H	0.161375	0.142692	-0.388929
H99	H	0.080142	0.206191	-0.341558
H100	H	0.140814	0.266723	-0.387393
C101	C	0.705526	0.137033	-0.205584
C102	C	0.655131	0.131807	-0.268462
C103	C	0.700269	0.127713	-0.347316
H104	H	0.748259	0.075417	-0.211742
H105	H	0.727587	0.199435	-0.210268
H106	H	0.633082	0.069411	-0.263780
H107	H	0.612398	0.193416	-0.262331
H108	H	0.722330	0.190115	-0.352001
H109	H	0.743000	0.066096	-0.353466
H110	H	0.666081	0.124176	-0.389988
C111	C	0.149248	0.143358	0.080392
C112	C	0.199624	0.148655	0.143278
C113	C	0.154455	0.152885	0.222130
H114	H	0.127157	0.081001	0.085154
H115	H	0.106530	0.205009	0.086466
H116	H	0.242326	0.087009	0.137207
H117	H	0.221715	0.211009	0.138544
H118	H	0.111737	0.214536	0.228204
H119	H	0.132366	0.090526	0.226883
H120	H	0.188626	0.156489	0.264807
H121	H	1.046187	-0.006058	0.704925
H122	H	0.678919	0.155912	0.091512
H123	H	0.820999	-0.158885	-0.055412
C124	C	0.736321	-0.293697	-0.049654
C125	C	0.676267	-0.354525	-0.045584
C126	C	0.599919	-0.286165	-0.040386
H127	H	0.733313	-0.252997	-0.097860
H128	H	0.728271	-0.246772	-0.000667
H129	H	0.684315	-0.401431	-0.094565
H130	H	0.679250	-0.395222	0.002621
H131	H	0.591869	-0.239240	0.008600
H132	H	0.596919	-0.245469	-0.088594
H133	H	0.559163	-0.327426	-0.037617
H134	H	0.800281	0.296603	0.329026
C135	C	1.105429	-0.194688	-0.074578
C136	C	1.083702	-0.082894	-0.073092
C137	C	1.153685	-0.040305	-0.077777
H138	H	1.139105	-0.221259	-0.125264
H139	H	1.133959	-0.215048	-0.028065
H140	H	1.055185	-0.062544	-0.119602
H141	H	1.050036	-0.056293	-0.022410
H142	H	1.182215	-0.060665	-0.031263
H143	H	1.187356	-0.066884	-0.128463
H144	H	1.138952	0.035551	-0.076761
H145	H	0.768298	-0.513324	-0.051846
H146	H	1.022520	0.023004	0.155434
