data_functionalizedCrystal
_audit_creation_method	'MofGen! by Chris Wilmer'
_symmetry_space_group_name_H-M	'P1'
_symmetry_Int_Tables_number	1
_symmetry_cell_setting	triclinic
loop_
_symmetry_equiv_pos_as_xyz
  x,y,z
_cell_length_a	14.519709
_cell_length_b	13.596369
_cell_length_c	8.597275
_cell_angle_alpha	97.698824
_cell_angle_beta	84.510331
_cell_angle_gamma	90.012081
loop_
_atom_site_label
_atom_site_type_symbol
_atom_site_fract_x
_atom_site_fract_y
_atom_site_fract_z
O1	O	1.225510	-0.064224	0.205738
O2	O	0.957228	-0.062201	0.229966
O3	O	1.096647	-0.082569	-0.010598
O4	O	1.086091	-0.043855	0.446302
O5	O	1.096664	0.081012	-0.010611
O6	O	0.957245	0.101381	0.229953
O7	O	1.225527	0.099358	0.205725
Zn8	Zn	1.091389	0.126341	0.217837
Zn9	Zn	1.091366	-0.089185	0.217854
O10	O	1.086108	0.119726	0.446289
C11	C	0.922868	0.019491	0.228831
C12	C	0.820459	0.019193	0.225447
C13	C	0.445463	0.018182	0.212991
C14	C	0.549799	0.018462	0.216450
C15	C	0.632958	0.018686	0.219218
C16	C	0.737300	0.018969	0.222678
N17	N	1.091351	-0.236276	0.217855
C18	C	1.091354	-0.325274	0.217856
C19	C	1.091368	-0.436926	0.217852
C20	C	1.091383	-0.525917	0.217841
C21	C	1.091396	-0.637576	0.217835
C22	C	1.259887	0.017664	0.206861
C23	C	1.362296	0.017956	0.210244
C24	C	1.095521	-0.005735	-0.069079
C25	C	1.092130	-0.020506	-0.243313
N26	N	1.091411	0.273432	0.217824
C27	C	1.087234	0.042890	0.504770
C28	C	1.090625	0.057654	0.679005
H29	H	1.090825	-0.098718	-0.310102
Br30	Br	1.092818	0.188024	-0.209682
