data_functionalizedCrystal
_audit_creation_method	'MofGen! by Chris Wilmer'
_symmetry_space_group_name_H-M	'P1'
_symmetry_Int_Tables_number	1
_symmetry_cell_setting	triclinic
loop_
_symmetry_equiv_pos_as_xyz
  x,y,z
_cell_length_a	19.288864
_cell_length_b	23.532407
_cell_length_c	22.610064
_cell_angle_alpha	90.009150
_cell_angle_beta	90.029123
_cell_angle_gamma	82.992461
loop_
_atom_site_label
_atom_site_type_symbol
_atom_site_fract_x
_atom_site_fract_y
_atom_site_fract_z
O1	O	0.921140	0.071043	0.049380
O2	O	1.254474	0.404376	0.382713
O3	O	1.587807	0.737710	0.716047
O4	O	0.718850	0.080627	0.049341
O5	O	1.052183	0.413960	0.382674
O6	O	1.385517	0.747294	0.716007
O7	O	0.826095	-0.007084	0.049351
O8	O	1.159429	0.326249	0.382684
O9	O	1.492762	0.659583	0.716017
O10	O	0.813895	0.158754	0.049370
O11	O	1.147228	0.492087	0.382703
O12	O	1.480562	0.825421	0.716037
O13	O	0.826064	-0.007084	-0.049019
O14	O	1.159397	0.326249	0.284315
O15	O	1.492731	0.659583	0.617648
O16	O	0.718819	0.080627	-0.049029
O17	O	1.052152	0.413960	0.284305
O18	O	1.385485	0.747294	0.617638
O19	O	0.921109	0.071043	-0.048989
O20	O	1.254442	0.404376	0.284344
O21	O	1.587776	0.737710	0.617678
Zn22	Zn	0.819959	0.075835	-0.064627
Zn23	Zn	1.153292	0.409168	0.268706
Zn24	Zn	1.486626	0.742502	0.602040
Zn25	Zn	0.820000	0.075835	0.064979
Zn26	Zn	1.153333	0.409168	0.398312
Zn27	Zn	1.486667	0.742502	0.731645
O28	O	0.813864	0.158754	-0.048999
O29	O	1.147197	0.492087	0.284334
O30	O	1.480531	0.825421	0.617667
C31	C	0.692959	0.080319	0.000151
C32	C	1.026292	0.413652	0.333484
C33	C	1.359626	0.746985	0.666817
C34	C	0.615858	0.079393	0.000135
C35	C	0.949192	0.412726	0.333468
C36	C	1.282525	0.746060	0.666802
C37	C	0.825769	-0.028301	0.000165
C38	C	1.159102	0.305033	0.333498
C39	C	1.492436	0.638366	0.666831
C40	C	0.824835	-0.091520	0.000160
C41	C	1.158168	0.241814	0.333493
C42	C	1.491502	0.575147	0.666826
C43	C	0.571003	0.130858	0.000150
C44	C	0.904337	0.464191	0.333484
C45	C	1.237670	0.797524	0.666817
C46	C	0.498559	0.129988	0.000157
C47	C	0.831892	0.463321	0.333490
C48	C	1.165226	0.796655	0.666823
C49	C	0.470973	0.077651	0.000160
C50	C	0.804306	0.410984	0.333493
C51	C	1.137639	0.744317	0.666827
C52	C	0.515838	0.026179	0.000141
C53	C	0.849171	0.359512	0.333475
C54	C	1.182504	0.692846	0.666808
C55	C	0.588280	0.027050	0.000129
C56	C	0.921614	0.360383	0.333462
C57	C	1.254947	0.693717	0.666796
C58	C	0.362849	0.036508	0.034638
C59	C	0.696182	0.369841	0.367971
C60	C	1.029515	0.703174	0.701305
C61	C	0.290407	0.035639	0.034654
C62	C	0.623740	0.368972	0.367987
C63	C	0.957073	0.702305	0.701321
C64	C	0.247535	0.074961	0.000195
C65	C	0.580869	0.408295	0.333529
C66	C	0.914202	0.741628	0.666862
C67	C	0.277113	0.115163	-0.034272
C68	C	0.610447	0.448496	0.299062
C69	C	0.943780	0.781830	0.632395
C70	C	0.349556	0.116034	-0.034284
C71	C	0.682889	0.449368	0.299049
C72	C	1.016223	0.782701	0.632383
C73	C	0.392422	0.076700	0.000173
C74	C	0.725755	0.410033	0.333506
C75	C	1.059088	0.743367	0.666840
C76	C	0.124127	0.125487	0.000217
C77	C	0.457461	0.458820	0.333550
C78	C	0.790794	0.792154	0.666883
C79	C	0.051682	0.124615	0.000220
C80	C	0.385015	0.457948	0.333553
C81	C	0.718349	0.791282	0.666886
C82	C	0.068962	0.020805	0.000210
C83	C	0.402296	0.354138	0.333543
C84	C	0.735629	0.687471	0.666877
C85	C	0.141406	0.021678	0.000201
C86	C	0.474739	0.355011	0.333534
C87	C	0.808073	0.688345	0.666868
C88	C	0.168984	0.074021	0.000207
C89	C	0.502317	0.407354	0.333541
C90	C	0.835651	0.740687	0.666874
C91	C	0.882442	-0.490503	0.000204
C92	C	1.215775	-0.157170	0.333537
C93	C	1.549108	0.176163	0.666870
C94	C	0.881574	-0.549905	0.000208
C95	C	1.214907	-0.216572	0.333541
C96	C	1.548241	0.116761	0.666874
O97	O	0.934976	-0.586539	0.000240
O98	O	1.268309	-0.253206	0.333573
O99	O	1.601643	0.080127	0.666907
N100	N	0.817817	-0.572664	0.000195
N101	N	1.151150	-0.239330	0.333528
N102	N	1.484483	0.094003	0.666862
C103	C	0.754923	-0.536017	0.000184
C104	C	1.088257	-0.202683	0.333517
C105	C	1.421590	0.130650	0.666850
O106	O	0.700613	-0.560829	0.000174
O107	O	1.033946	-0.227495	0.333507
O108	O	1.367280	0.105838	0.666840
C109	C	0.755792	-0.476616	0.000184
C110	C	1.089125	-0.143282	0.333517
C111	C	1.422458	0.190051	0.666850
C112	C	0.819553	-0.453861	0.000190
C113	C	1.152886	-0.120528	0.333524
C114	C	1.486220	0.212806	0.666857
C115	C	0.946198	-0.467748	0.000211
C116	C	1.279531	-0.134415	0.333544
C117	C	1.612865	0.198919	0.666878
C118	C	0.947065	-0.408350	0.000206
C119	C	1.280399	-0.075017	0.333539
C120	C	1.613732	0.258317	0.666872
C121	C	0.884177	-0.371707	0.000193
C122	C	1.217510	-0.038374	0.333526
C123	C	1.550843	0.294959	0.666859
C124	C	0.820420	-0.394463	0.000185
C125	C	1.153754	-0.061130	0.333518
C126	C	1.487087	0.272204	0.666852
C127	C	0.692899	-0.439970	0.000177
C128	C	1.026232	-0.106636	0.333510
C129	C	1.359565	0.226697	0.666843
C130	C	0.693773	-0.380565	0.000177
C131	C	1.027106	-0.047232	0.333510
C132	C	1.360439	0.286101	0.666844
C133	C	0.757534	-0.357810	0.000184
C134	C	1.090867	-0.024477	0.333517
C135	C	1.424201	0.308856	0.666851
C136	C	0.758399	-0.298422	0.000167
C137	C	1.091732	0.034911	0.333500
C138	C	1.425066	0.368244	0.666833
N139	N	0.822156	-0.275664	0.000180
N140	N	1.155490	0.057669	0.333513
N141	N	1.488823	0.391003	0.666846
C142	C	0.885045	-0.312307	0.000193
C143	C	1.218378	0.021027	0.333526
C144	C	1.551712	0.354360	0.666859
C145	C	0.753104	-0.660763	0.000185
C146	C	1.086438	-0.327430	0.333518
C147	C	1.419771	0.005904	0.666852
C148	C	0.752235	-0.720163	0.000181
C149	C	1.085568	-0.386829	0.333514
C150	C	1.418902	-0.053496	0.666847
C151	C	0.878886	-0.734047	0.000206
C152	C	1.212220	-0.400714	0.333539
C153	C	1.545553	-0.067381	0.666873
C154	C	0.879755	-0.674647	0.000206
C155	C	1.213088	-0.341313	0.333539
C156	C	1.546421	-0.007980	0.666873
C157	C	0.816861	-0.638005	0.000198
C158	C	1.150195	-0.304671	0.333531
C159	C	1.483528	0.028662	0.666864
C160	C	0.886862	-0.187566	0.000181
C161	C	1.220195	0.145767	0.333514
C162	C	1.553528	0.479101	0.666847
C163	C	0.887724	-0.128162	0.000173
C164	C	1.221057	0.205171	0.333506
C165	C	1.554390	0.538504	0.666839
C166	C	0.761073	-0.114283	0.000151
C167	C	1.094406	0.219051	0.333484
C168	C	1.427740	0.552384	0.666817
C169	C	0.760211	-0.173681	0.000155
C170	C	1.093544	0.159652	0.333489
C171	C	1.426877	0.492985	0.666822
C172	C	0.823111	-0.210322	0.000172
C173	C	1.156444	0.123011	0.333506
C174	C	1.489777	0.456345	0.666839
O175	O	0.705025	-0.261754	0.000137
O176	O	1.038358	0.071579	0.333470
O177	O	1.371692	0.404913	0.666803
O178	O	0.939346	-0.287486	0.000210
O179	O	1.272680	0.045847	0.333544
O180	O	1.606013	0.379181	0.666877
C181	C	0.947000	0.071351	0.000202
C182	C	1.280333	0.404685	0.333535
C183	C	1.613667	0.738018	0.666869
C184	C	1.024101	0.072277	0.000222
C185	C	1.357434	0.405610	0.333555
C186	C	1.690768	0.738944	0.666888
C187	C	0.814190	0.179971	0.000188
C188	C	1.147523	0.513304	0.333522
C189	C	1.480857	0.846637	0.666855
C190	C	0.815124	0.243190	0.000197
C191	C	1.148458	0.576523	0.333530
C192	C	1.481791	0.909856	0.666864
N193	N	0.819936	0.075835	-0.153080
N194	N	1.153269	0.409168	0.180254
N195	N	1.486603	0.742501	0.513587
C196	C	0.861888	0.110282	-0.561708
C197	C	1.195221	0.443616	-0.228375
C198	C	1.528554	0.776949	0.104959
C199	C	0.861896	0.110281	-0.623628
C200	C	1.195230	0.443614	-0.290295
C201	C	1.528563	0.776948	0.043039
O202	O	0.897537	0.139566	-0.655636
O203	O	1.230871	0.472899	-0.322302
O204	O	1.564204	0.806233	0.011031
N205	N	0.820014	0.075828	-0.654617
N206	N	1.153347	0.409162	-0.321283
N207	N	1.486680	0.742495	0.012050
C208	C	0.778125	0.041371	-0.623682
C209	C	1.111458	0.374704	-0.290349
C210	C	1.444791	0.708038	0.042984
O211	O	0.742501	0.012066	-0.655726
O212	O	1.075835	0.345399	-0.322393
O213	O	1.409168	0.678733	0.010940
C214	C	0.778120	0.041370	-0.561764
C215	C	1.111453	0.374703	-0.228430
C216	C	1.444787	0.708036	0.104903
C217	C	0.820000	0.075829	-0.530778
C218	C	1.153334	0.409162	-0.197445
C219	C	1.486667	0.742495	0.135889
C220	C	0.903765	0.144738	-0.530722
C221	C	1.237098	0.478071	-0.197389
C222	C	1.570432	0.811405	0.135944
C223	C	0.903755	0.144740	-0.468807
C224	C	1.237088	0.478073	-0.135473
C225	C	1.570422	0.811407	0.197860
C226	C	0.861868	0.110286	-0.437877
C227	C	1.195201	0.443620	-0.104543
C228	C	1.528534	0.776953	0.228790
C229	C	0.819990	0.075831	-0.468862
C230	C	1.153324	0.409164	-0.135529
C231	C	1.486657	0.742497	0.197804
C232	C	0.736235	0.006909	-0.530830
C233	C	1.069569	0.340243	-0.197497
C234	C	1.402902	0.673576	0.135836
C235	C	0.736235	0.006911	-0.468907
C236	C	1.069568	0.340244	-0.135574
C237	C	1.402902	0.673577	0.197759
C238	C	0.778115	0.041370	-0.437922
C239	C	1.111448	0.374703	-0.104588
C240	C	1.444782	0.708036	0.228745
C241	C	0.778093	0.041379	-0.376017
C242	C	1.111427	0.374713	-0.042683
C243	C	1.444760	0.708046	0.290650
N244	N	0.819976	0.075832	-0.345028
N245	N	1.153309	0.409165	-0.011695
N246	N	1.486643	0.742498	0.321639
C247	C	0.861863	0.110285	-0.375958
C248	C	1.195197	0.443619	-0.042625
C249	C	1.528530	0.776952	0.290709
C250	C	0.778138	0.041375	-0.753716
C251	C	1.111471	0.374709	-0.420383
C252	C	1.444805	0.708042	-0.087049
C253	C	0.778138	0.041379	-0.815634
C254	C	1.111472	0.374713	-0.482300
C255	C	1.444805	0.708046	-0.148967
C256	C	0.861911	0.110289	-0.815575
C257	C	1.195245	0.443622	-0.482242
C258	C	1.528578	0.776955	-0.148908
C259	C	0.861907	0.110287	-0.753656
C260	C	1.195240	0.443621	-0.420323
C261	C	1.528573	0.776954	-0.086989
C262	C	0.820021	0.075828	-0.722727
C263	C	1.153354	0.409161	-0.389394
C264	C	1.486688	0.742494	-0.056060
C265	C	0.861839	0.110287	-0.245931
C266	C	1.195172	0.443621	0.087403
C267	C	1.528506	0.776954	0.420736
C268	C	0.861823	0.110288	-0.184010
C269	C	1.195157	0.443621	0.149324
C270	C	1.528490	0.776955	0.482657
C271	C	0.778053	0.041377	-0.184074
C272	C	1.111387	0.374710	0.149260
C273	C	1.444720	0.708043	0.482593
C274	C	0.778066	0.041378	-0.245989
C275	C	1.111399	0.374711	0.087344
C276	C	1.444733	0.708045	0.420677
C277	C	0.819964	0.075835	-0.276916
C278	C	1.153298	0.409168	0.056417
C279	C	1.486631	0.742502	0.389750
O280	O	0.742472	0.012107	-0.343970
O281	O	1.075806	0.345441	-0.010636
O282	O	1.409139	0.678774	0.322697
O283	O	0.897488	0.139580	-0.343906
O284	O	1.230821	0.472913	-0.010573
O285	O	1.564154	0.806246	0.322760
N286	N	0.820029	0.075831	0.153431
N287	N	1.153362	0.409164	0.486764
N288	N	1.486695	0.742498	0.820098
H289	H	0.593452	0.173479	0.000157
H290	H	0.926785	0.506812	0.333490
H291	H	1.260119	0.840146	0.666823
H292	H	0.266330	0.002906	0.062722
H293	H	0.599663	0.336240	0.396055
H294	H	0.932997	0.669573	0.729388
C295	C	0.449207	0.186600	0.000176
C296	C	0.782540	0.519933	0.333510
C297	C	1.115873	0.853266	0.666843
H298	H	0.402113	0.178583	0.000180
H299	H	0.735446	0.511916	0.333513
H300	H	1.068780	0.845250	0.666846
H301	H	0.457558	0.208067	0.034482
H302	H	0.790891	0.541400	0.367815
H303	H	1.124224	0.874733	0.701148
H304	H	0.457497	0.208071	-0.034130
H305	H	0.790831	0.541405	0.299204
H306	H	1.124164	0.874738	0.632537
C307	C	0.731990	0.003474	-0.150043
C308	C	1.065323	0.336807	0.183291
C309	C	1.398656	0.670140	0.516624
H310	H	0.737994	0.008406	-0.108729
H311	H	1.071327	0.341740	0.224604
H312	H	1.404661	0.675073	0.557937
H313	H	0.684391	0.014143	-0.160206
H314	H	1.017724	0.347477	0.173127
H315	H	1.351057	0.680810	0.506461
H316	H	0.745183	-0.035522	-0.160191
H317	H	1.078516	0.297812	0.173143
H318	H	1.411849	0.631145	0.506476
H319	H	0.373635	0.148766	-0.062350
H320	H	0.706969	0.482099	0.270983
H321	H	1.040302	0.815433	0.604316
C322	C	0.949891	-0.649621	0.000219
C323	C	1.283224	-0.316288	0.333552
C324	C	1.616558	0.017045	0.666886
H325	H	0.987217	-0.679957	0.000230
H326	H	1.320551	-0.346623	0.333563
H327	H	1.653884	-0.013290	0.666897
H328	H	0.952856	-0.626741	-0.034082
H329	H	1.286189	-0.293407	0.299251
H330	H	1.619522	0.039926	0.632584
H331	H	0.952876	-0.626737	0.034529
H332	H	1.286209	-0.293403	0.367862
H333	H	1.619542	0.039930	0.701196
C334	C	0.002338	0.181228	0.000237
C335	C	0.335671	0.514561	0.333570
C336	C	0.669004	0.847894	0.666904
H337	H	-0.044757	0.173214	0.000237
H338	H	0.288576	0.506547	0.333570
H339	H	0.621910	0.839880	0.666903
H340	H	0.010687	0.202694	0.034543
H341	H	0.344021	0.536027	0.367876
H342	H	0.677354	0.869360	0.701210
H343	H	0.010633	0.202699	-0.034068
H344	H	0.343967	0.536033	0.299265
H345	H	0.677300	0.869366	0.632598
H346	H	0.640978	-0.458486	0.000175
H347	H	0.974311	-0.125152	0.333508
H348	H	1.307644	0.208181	0.666841
H349	H	0.709871	-0.084438	0.000138
H350	H	1.043204	0.248896	0.333471
H351	H	1.376537	0.582229	0.666805
H352	H	0.242208	0.147183	-0.062332
H353	H	0.575542	0.480517	0.271001
H354	H	0.908875	0.813850	0.604335
C355	C	0.038630	-0.036767	0.000210
C356	C	0.371963	0.296566	0.333544
C357	C	0.705296	0.629899	0.666877
H358	H	0.075723	-0.067294	0.000197
H359	H	0.409056	0.266039	0.333531
H360	H	0.742390	0.599373	0.666864
H361	H	0.010755	-0.039267	0.034516
H362	H	0.344088	0.294066	0.367850
H363	H	0.677421	0.627400	0.701183
H364	H	0.010704	-0.039263	-0.034095
H365	H	0.344037	0.294070	0.299238
H366	H	0.677370	0.627404	0.632572
H367	H	0.642556	-0.350733	0.000171
H368	H	0.975889	-0.017400	0.333505
H369	H	1.309223	0.315933	0.666838
C370	C	0.410000	-0.006746	0.072550
C371	C	0.743333	0.326587	0.405884
C372	C	1.076667	0.659920	0.739217
H373	H	0.382010	-0.030805	0.093087
H374	H	0.715343	0.302528	0.426420
H375	H	1.048676	0.635861	0.759753
H376	H	0.442071	-0.029404	0.047704
H377	H	0.775404	0.303929	0.381037
H378	H	1.108737	0.637262	0.714370
H379	H	0.435000	0.013292	0.100260
H380	H	0.768333	0.346625	0.433594
H381	H	1.101666	0.679959	0.766927
H382	H	0.708291	-0.192209	0.000133
H383	H	1.041624	0.141124	0.333467
H384	H	1.374958	0.474458	0.666800
H385	H	0.146582	0.168107	0.000213
H386	H	0.479916	0.501441	0.333546
H387	H	0.813249	0.834774	0.666880
C388	C	0.907898	0.148191	-0.149929
C389	C	1.241231	0.481524	0.183405
C390	C	1.574564	0.814858	0.516738
H391	H	0.932850	0.168704	-0.177221
H392	H	1.266184	0.502037	0.156112
H393	H	1.599517	0.835371	0.489445
H394	H	0.879254	0.174463	-0.125784
H395	H	1.212587	0.507797	0.207549
H396	H	1.545920	0.841130	0.540882
H397	H	0.940025	0.124782	-0.125763
H398	H	1.273359	0.458115	0.207571
H399	H	1.606692	0.791449	0.540904
C400	C	0.190749	-0.034934	0.000193
C401	C	0.524082	0.298399	0.333527
C402	C	0.857415	0.631733	0.666860
H403	H	0.163946	-0.066230	0.000201
H404	H	0.497279	0.267103	0.333534
H405	H	0.830613	0.600437	0.666868
H406	H	0.219341	-0.036754	-0.034114
H407	H	0.552675	0.296579	0.299220
H408	H	0.886008	0.629913	0.632553
H409	H	0.219393	-0.036750	0.034498
H410	H	0.552727	0.296584	0.367831
H411	H	0.886060	0.629917	0.701164
H412	H	0.998986	-0.389829	0.000214
H413	H	1.332320	-0.056496	0.333547
H414	H	1.665653	0.276838	0.666880
H415	H	0.493372	-0.016435	0.000152
H416	H	0.826706	0.316899	0.333485
H417	H	1.160039	0.650232	0.666818
H418	H	0.624802	-0.014860	0.000117
H419	H	0.958135	0.318473	0.333450
H420	H	1.291469	0.651807	0.666783
H421	H	0.896009	0.138347	-0.728432
H422	H	1.229342	0.471681	-0.395098
H423	H	1.562676	0.805014	-0.061765
H424	H	0.939648	-0.109639	0.000177
H425	H	1.272981	0.223694	0.333510
H426	H	1.606315	0.557028	0.666844
C427	C	0.683917	-0.620461	0.000165
C428	C	1.017250	-0.287128	0.333498
C429	C	1.350584	0.046206	0.666831
H430	H	0.645826	-0.642527	0.000152
H431	H	0.979159	-0.309194	0.333485
H432	H	1.312493	0.024140	0.666818
H433	H	0.681626	-0.596993	0.034466
H434	H	1.014959	-0.263660	0.367799
H435	H	1.348292	0.069674	0.701133
H436	H	0.681612	-0.597008	-0.034145
H437	H	1.014946	-0.263674	0.299188
H438	H	1.348279	0.069659	0.632521
C439	C	0.956050	-0.227863	0.000194
C440	C	1.289383	0.105471	0.333528
C441	C	1.622717	0.438804	0.666861
H442	H	0.994140	-0.205795	0.000193
H443	H	1.327474	0.127538	0.333526
H444	H	1.660807	0.460871	0.666859
H445	H	0.958365	-0.251319	0.034499
H446	H	1.291698	0.082014	0.367832
H447	H	1.625032	0.415347	0.701165
H448	H	0.958334	-0.251327	-0.034113
H449	H	1.291667	0.082006	0.299221
H450	H	1.625000	0.415339	0.632554
H451	H	0.997413	-0.497577	0.000224
H452	H	1.330746	-0.164244	0.333557
H453	H	1.664079	0.169089	0.666891
C454	C	0.907920	0.148194	-0.279942
C455	C	1.241253	0.481527	0.053392
C456	C	1.574586	0.814861	0.386725
H457	H	0.932850	0.168717	-0.252613
H458	H	1.266183	0.502050	0.080721
H459	H	1.599517	0.835383	0.414054
H460	H	0.940056	0.124796	-0.304085
H461	H	1.273389	0.458129	0.029248
H462	H	1.606723	0.791463	0.362582
H463	H	0.879272	0.174467	-0.304104
H464	H	1.212605	0.507801	0.029229
H465	H	1.545938	0.841134	0.362563
H466	H	0.937861	0.172798	-0.443584
H467	H	1.271195	0.506131	-0.110251
H468	H	1.604528	0.839464	0.223083
C469	C	0.948065	-0.774359	0.000225
C470	C	1.281399	-0.441026	0.333558
C471	C	1.614732	-0.107693	0.666891
H472	H	0.986166	-0.752303	0.000227
H473	H	1.319499	-0.418970	0.333560
H474	H	1.652832	-0.085637	0.666894
H475	H	0.950365	-0.797815	0.034530
H476	H	1.283698	-0.464481	0.367863
H477	H	1.617032	-0.131148	0.701196
H478	H	0.950345	-0.797825	-0.034082
H479	H	1.283679	-0.464492	0.299252
H480	H	1.617012	-0.131159	0.632585
C481	C	0.682098	-0.745187	0.000168
C482	C	1.015431	-0.411853	0.333502
C483	C	1.348765	-0.078520	0.666835
H484	H	0.644772	-0.714851	0.000164
H485	H	0.978105	-0.381518	0.333498
H486	H	1.311438	-0.048185	0.666831
H487	H	0.679110	-0.768078	-0.034133
H488	H	1.012443	-0.434744	0.299201
H489	H	1.345777	-0.101411	0.632534
H490	H	0.679137	-0.768061	0.034479
H491	H	1.012470	-0.434727	0.367812
H492	H	1.345803	-0.101394	0.701145
H493	H	0.937878	0.172794	-0.555899
H494	H	1.271212	0.506128	-0.222566
H495	H	1.604545	0.839461	0.110768
H496	H	0.896017	0.138343	-0.840769
H497	H	1.229351	0.471677	-0.507436
H498	H	1.562684	0.805010	-0.174103
H499	H	0.744027	0.013326	-0.840857
H500	H	1.077360	0.346659	-0.507523
H501	H	1.410694	0.679993	-0.174190
H502	H	0.744023	0.013316	-0.728537
H503	H	1.077356	0.346650	-0.395204
H504	H	1.410690	0.679983	-0.061871
H505	H	0.702133	-0.021152	-0.556048
H506	H	1.035466	0.312182	-0.222715
H507	H	1.368800	0.645515	0.110619
H508	H	0.702126	-0.021151	-0.443728
H509	H	1.035459	0.312182	-0.110395
H510	H	1.368793	0.645515	0.222939
H511	H	0.743955	0.013326	-0.271219
H512	H	1.077288	0.346659	0.062114
H513	H	1.410622	0.679993	0.395448
