data_functionalizedCrystal
_audit_creation_method	'MofGen! by Chris Wilmer'
_symmetry_space_group_name_H-M	'P1'
_symmetry_Int_Tables_number	1
_symmetry_cell_setting	triclinic
loop_
_symmetry_equiv_pos_as_xyz
  x,y,z
_cell_length_a	6.817900
_cell_length_b	16.418055
_cell_length_c	10.773894
_cell_angle_alpha	96.342875
_cell_angle_beta	96.645922
_cell_angle_gamma	103.389726
loop_
_atom_site_label
_atom_site_type_symbol
_atom_site_fract_x
_atom_site_fract_y
_atom_site_fract_z
V1	V	-3.948412	-0.112804	-0.389366
O2	O	-3.937980	0.008588	-0.381508
O3	O	-3.899924	-0.226718	-0.387131
O4	O	-3.866087	-0.109679	-0.558986
O5	O	-3.972050	-0.109261	-0.208464
V6	V	-4.436447	-0.098448	-0.367676
O7	O	-4.199773	-0.144295	-0.436943
O8	O	-4.635284	-0.066958	-0.320099
O9	O	-4.261729	0.015465	-0.369911
O10	O	-4.564277	-0.219840	-0.375534
O11	O	-4.530206	-0.101992	-0.548578
O12	O	-4.295565	-0.101573	-0.198056
C13	C	-3.746001	-0.254531	-0.381099
C14	C	-3.787417	-0.347648	-0.380403
C15	C	-4.102420	-0.653602	-0.384454
C16	C	-4.063521	-0.566107	-0.385088
C17	C	-3.701800	-0.557662	-0.372588
C18	C	-3.740699	-0.645154	-0.371945
C19	C	-3.941015	-0.693122	-0.377885
C20	C	-3.863217	-0.518135	-0.379162
C21	C	-3.821039	-0.423270	-0.379850
C22	C	-3.983196	-0.787994	-0.377195
C23	C	-3.702839	-0.105236	-0.600316
C24	C	-3.716812	-0.103435	-0.738984
C25	C	-3.894884	-0.106556	-0.806858
C26	C	-3.909331	-0.104695	-0.950179
C27	C	-4.078995	0.043274	-0.375939
C28	C	-4.016816	0.136390	-0.376644
C29	C	-4.122158	-0.106020	-0.156720
C30	C	-4.087423	-0.107817	-0.018050
H31	H	-4.036641	-0.110601	-0.758861
H32	H	-3.767556	-0.100638	-0.998168
H33	H	-4.265527	-0.692655	-0.389288
O34	O	-3.583935	-0.683566	-0.365341
C35	C	-3.401555	-0.766989	-0.248781
C36	C	-3.579119	-0.723510	-0.256096
H37	H	-3.397630	-0.799310	-0.160477
H38	H	-3.251631	-0.717706	-0.244571
H39	H	-3.424042	-0.816192	-0.335943
H40	H	-3.556830	-0.674312	-0.168955
H41	H	-3.728979	-0.772843	-0.260368
O42	O	-4.256586	-0.112801	-0.960794
C43	C	-4.485748	-0.192243	-0.838053
C44	C	-4.294175	-0.186711	-0.902863
H45	H	-4.516175	-0.251986	-0.791177
H46	H	-4.622163	-0.194363	-0.911412
H47	H	-4.460644	-0.134433	-0.763511
H48	H	-4.319080	-0.244507	-0.977398
H49	H	-4.157827	-0.184551	-0.829429
O50	O	-4.220209	-0.527657	-0.391250
C51	C	-4.369706	-0.423246	-0.290653
C52	C	-4.192155	-0.466734	-0.283504
H53	H	-4.347064	-0.373968	-0.203565
H54	H	-4.519600	-0.472519	-0.294708
H55	H	-4.373828	-0.391016	-0.379040
H56	H	-4.187842	-0.498962	-0.195126
H57	H	-4.042346	-0.417425	-0.279518
H58	H	-3.575050	-0.099378	-0.786978
H59	H	-3.538705	-0.518595	-0.367754
