data_functionalizedCrystal
_audit_creation_method	'MofGen! by Chris Wilmer'
_symmetry_space_group_name_H-M	'P1'
_symmetry_Int_Tables_number	1
_symmetry_cell_setting	triclinic
loop_
_symmetry_equiv_pos_as_xyz
  x,y,z
_cell_length_a	15.995350
_cell_length_b	14.044191
_cell_length_c	12.503552
_cell_angle_alpha	93.842477
_cell_angle_beta	86.478069
_cell_angle_gamma	88.342076
loop_
_atom_site_label
_atom_site_type_symbol
_atom_site_fract_x
_atom_site_fract_y
_atom_site_fract_z
O1	O	0.197463	1.263177	0.089259
O2	O	0.697463	1.763177	0.589259
O3	O	0.190172	0.987208	0.089273
O4	O	0.690172	1.487208	0.589273
O5	O	0.072493	1.132736	0.089264
O6	O	0.572493	1.632736	0.589264
O7	O	0.315141	1.117649	0.089267
O8	O	0.815141	1.617649	0.589267
O9	O	0.081351	1.121779	-0.089378
O10	O	0.581351	1.621779	0.410622
O11	O	0.199029	0.976251	-0.089369
O12	O	0.699029	1.476251	0.410631
O13	O	0.206321	1.252220	-0.089383
O14	O	0.706321	1.752220	0.410617
Cu15	Cu	0.203484	1.113235	-0.105688
Cu16	Cu	0.703484	1.613235	0.394312
Cu17	Cu	0.193009	1.126193	0.105577
Cu18	Cu	0.693009	1.626193	0.605577
O19	O	0.323999	1.106692	-0.089375
O20	O	0.823999	1.606692	0.410625
C21	C	0.191411	0.946415	-0.000046
C22	C	0.691411	1.446415	0.499954
C23	C	0.181898	0.841190	-0.000041
C24	C	0.681898	1.341190	0.499959
C25	C	0.231977	0.590903	-0.000051
C26	C	0.731977	1.090903	0.499949
C27	C	0.164519	0.648532	-0.000050
C28	C	0.664519	1.148532	0.499950
C29	C	0.174191	0.755736	-0.000045
C30	C	0.674191	1.255736	0.499955
C31	C	0.222306	0.483688	-0.000056
C32	C	0.722306	0.983688	0.499944
C33	C	0.045681	1.126634	-0.000055
C34	C	0.545681	1.626634	0.499945
C35	C	-0.047410	1.124765	-0.000048
C36	C	0.452590	1.624765	0.499952
C37	C	-0.385659	1.118049	-0.000052
C38	C	0.114341	1.618049	0.499948
C39	C	-0.345988	1.014431	0.000354
C40	C	0.154012	1.514431	0.500354
C41	C	-0.249138	1.016276	-0.000049
C42	C	0.250862	1.516276	0.499951
C43	C	-0.217849	1.121380	-0.000049
C44	C	0.282151	1.621380	0.499951
C45	C	-0.250049	1.166243	-0.102063
C46	C	0.249951	1.666243	0.397937
C47	C	-0.346876	1.163634	-0.102149
C48	C	0.153124	1.663634	0.397851
C49	C	-0.357146	1.178236	0.101000
C50	C	0.142854	1.678236	0.601000
C51	C	-0.260270	1.178294	0.102349
C52	C	0.239730	1.678294	0.602349
C53	C	-0.123011	1.123268	-0.000052
C54	C	0.376989	1.623268	0.499948
C55	C	-0.480497	1.116163	-0.000057
C56	C	0.019503	1.616163	0.499943
C57	C	0.350811	1.112794	-0.000054
C58	C	0.850811	1.612794	0.499946
C59	C	0.443902	1.114664	-0.000053
C60	C	0.943902	1.614664	0.499947
C61	C	0.205081	1.293013	-0.000062
C62	C	0.705081	1.793013	0.499938
C63	C	0.214594	1.398239	-0.000060
C64	C	0.714594	1.898239	0.499940
N65	N	0.210851	1.104128	-0.254280
N66	N	0.710851	1.604128	0.245720
C67	C	0.174794	1.148700	-0.526716
C68	C	0.674794	1.648700	-0.026716
C69	C	0.221690	1.090739	-0.473388
C70	C	0.721690	1.590739	0.026612
C71	C	0.215658	1.098190	-0.351465
C72	C	0.715658	1.598190	0.148535
C73	C	0.180825	1.141249	-0.648650
C74	C	0.680825	1.641249	-0.148650
N75	N	0.185635	1.135308	0.254169
N76	N	0.685635	1.635308	0.754169
H77	H	0.099499	0.617361	0.000025
H78	H	0.599499	1.117361	0.500025
H79	H	0.130118	1.203915	-0.480808
H80	H	0.630118	1.703915	0.019192
H81	H	-0.239487	1.255317	0.108507
H82	H	0.260513	1.755317	0.608507
H83	H	0.266370	1.035521	-0.519301
H84	H	0.766370	1.535521	-0.019301
H85	H	-0.364181	1.121680	-0.178405
H86	H	0.135819	1.621680	0.321595
H87	H	-0.383232	1.254693	0.101685
H88	H	0.116768	1.754693	0.601685
C89	C	0.319804	0.633018	-0.000039
C90	C	0.819804	1.133018	0.499961
N91	N	0.385955	0.664751	-0.000026
N92	N	0.885955	1.164751	0.499974
H93	H	-0.227344	0.980578	0.073079
H94	H	0.272656	1.480578	0.573079
H95	H	-0.365056	0.968728	-0.072391
H96	H	0.134944	1.468728	0.427609
C97	C	-0.380114	0.964520	0.099178
C98	C	0.119886	1.464520	0.599178
N99	N	-0.405826	0.926926	0.173612
N100	N	0.094174	1.426926	0.673612
C101	C	-0.210667	0.955558	-0.099007
C102	C	0.289333	1.455558	0.400993
N103	N	-0.181691	0.909824	-0.173548
N104	N	0.318309	1.409824	0.326452
H105	H	-0.229967	1.243227	-0.105858
H106	H	0.270033	1.743227	0.394142
C107	C	-0.210214	1.111982	-0.204623
C108	C	0.289786	1.611982	0.295377
N109	N	-0.180211	1.071106	-0.281868
N110	N	0.319789	1.571106	0.218132
C111	C	-0.382452	1.266045	-0.108419
C112	C	0.117548	1.766045	0.391581
N113	N	-0.409245	1.343180	-0.113149
N114	N	0.090755	1.843180	0.386851
H115	H	-0.384052	1.149092	0.178321
H116	H	0.115948	1.649092	0.678321
H117	H	-0.239555	1.145547	0.177816
H118	H	0.260445	1.645547	0.677816
