data_functionalizedCrystal
_audit_creation_method	'MofGen! by Chris Wilmer'
_symmetry_space_group_name_H-M	'P1'
_symmetry_Int_Tables_number	1
_symmetry_cell_setting	triclinic
loop_
_symmetry_equiv_pos_as_xyz
  x,y,z
_cell_length_a	27.731994
_cell_length_b	27.732064
_cell_length_c	9.130313
_cell_angle_alpha	90.007423
_cell_angle_beta	89.992718
_cell_angle_gamma	97.364882
loop_
_atom_site_label
_atom_site_type_symbol
_atom_site_fract_x
_atom_site_fract_y
_atom_site_fract_z
O1	O	-0.057555	0.640908	-0.121513
O2	O	-0.066292	0.500114	-0.121569
O3	O	0.008475	0.574897	-0.121561
O4	O	-0.132322	0.566125	-0.121520
O5	O	0.008473	0.574896	0.122038
O6	O	-0.066294	0.500113	0.122030
O7	O	-0.057557	0.640907	0.122086
Cu8	Cu	-0.061925	0.570510	0.144301
Cu9	Cu	-0.061923	0.570511	-0.143783
O10	O	-0.132324	0.566124	0.122078
C11	C	-0.066108	0.482107	0.000223
C12	C	-0.065552	0.428453	0.000200
C13	C	-0.017584	0.051389	0.000269
C14	C	-0.019630	0.253049	0.000232
O15	O	0.017592	0.284309	0.000276
N16	N	-0.063966	0.272168	0.000238
C17	C	-0.107793	0.240868	0.000263
O18	O	-0.145550	0.261757	0.000283
C19	C	-0.105746	0.039209	0.000311
C20	C	-0.061407	0.020093	0.000290
C21	C	0.026751	0.032273	0.000250
C22	C	0.027262	-0.018139	0.000251
C23	C	-0.016562	-0.049435	0.000272
C24	C	-0.060896	-0.030319	0.000292
C25	C	-0.149572	0.007911	0.000347
C26	C	-0.149057	-0.042506	0.000363
C27	C	-0.104718	-0.061622	0.000342
C28	C	-0.104209	-0.112026	0.000314
N29	N	-0.059873	-0.131145	0.000308
C30	C	-0.016050	-0.099849	0.000287
C31	C	-0.108864	0.346743	0.000235
C32	C	-0.109376	0.397157	0.000221
C33	C	-0.021213	0.409334	0.000192
C34	C	-0.020702	0.358919	0.000196
C35	C	-0.064529	0.327624	0.000229
C36	C	-0.014980	-0.205719	0.000288
C37	C	-0.014473	-0.256136	0.000284
C38	C	-0.102635	-0.268308	0.000320
C39	C	-0.103142	-0.217896	0.000317
C40	C	-0.059311	-0.186602	0.000306
O41	O	-0.141411	-0.143314	0.000287
O42	O	0.021702	-0.120748	0.000300
C43	C	-0.018095	0.101801	0.000268
C44	C	-0.062430	0.120918	0.000288
C45	C	-0.106253	0.089622	0.000308
C46	C	-0.062941	0.171332	0.000273
C47	C	-0.019118	0.202628	0.000252
C48	C	0.025218	0.183509	0.000246
C49	C	0.025729	0.133097	0.000247
C50	C	-0.150589	0.108741	0.000315
C51	C	-0.151096	0.159154	0.000312
C52	C	-0.107273	0.190449	0.000291
C53	C	-0.150330	0.566304	0.000285
C54	C	-0.203986	0.566847	0.000301
C55	C	-0.536704	0.570263	-0.132548
C56	C	-0.738362	0.572324	-0.132568
O57	O	-0.764434	0.572612	-0.245498
N58	N	-0.763578	0.572580	0.000217
C59	C	-0.738376	0.572323	0.133016
O60	O	-0.764450	0.572593	0.245958
C61	C	-0.536718	0.570265	0.133036
C62	C	-0.511505	0.570005	0.000242
C63	C	-0.511491	0.570003	-0.265331
C64	C	-0.461080	0.569485	-0.265324
C65	C	-0.435881	0.569227	-0.132535
C66	C	-0.461094	0.569487	0.000248
C67	C	-0.511516	0.570012	0.265834
C68	C	-0.461099	0.569499	0.265827
C69	C	-0.435886	0.569238	0.133033
C70	C	-0.385485	0.568711	0.133044
N71	N	-0.360269	0.568455	0.000259
C72	C	-0.385467	0.568713	-0.132530
C73	C	-0.844249	0.573403	0.132997
C74	C	-0.894664	0.573916	0.132993
C75	C	-0.894646	0.573918	-0.132593
C76	C	-0.844232	0.573401	-0.132587
C77	C	-0.819033	0.573147	0.000212
C78	C	-0.279600	0.567625	-0.132506
C79	C	-0.229185	0.567105	-0.132488
C80	C	-0.229206	0.567106	0.133096
C81	C	-0.279617	0.567623	0.133079
C82	C	-0.304813	0.567884	0.000266
O83	O	-0.359381	0.568428	0.245915
O84	O	-0.359383	0.568454	-0.245455
C85	C	-0.587115	0.570781	-0.132554
C86	C	-0.612328	0.571041	0.000229
C87	C	-0.587129	0.570783	0.133018
C88	C	-0.662742	0.571554	0.000224
C89	C	-0.687941	0.571812	-0.132565
C90	C	-0.662725	0.571557	-0.265350
C91	C	-0.612313	0.571039	-0.265344
C92	C	-0.612345	0.571038	0.265803
C93	C	-0.662757	0.571555	0.265786
C94	C	-0.687955	0.571814	0.132997
C95	C	0.026482	0.574717	0.000229
C96	C	0.080138	0.574174	0.000203
C97	C	-0.057740	0.658914	0.000291
C98	C	-0.058296	0.712569	0.000305
N99	N	-0.061927	0.570513	0.346923
N100	N	-0.061918	0.570512	-0.346406
C101	C	-0.028831	0.603635	0.423579
C102	C	-0.028825	0.603634	0.576915
C103	C	-0.095015	0.537386	0.576928
C104	C	-0.095018	0.537386	0.423594
C105	C	0.004261	0.636762	0.346908
C106	C	0.037359	0.669887	0.423564
C107	C	0.037365	0.669886	0.576900
C108	C	0.004272	0.636760	0.653582
H109	H	-0.184747	-0.067985	0.000397
C110	C	0.073760	0.706324	0.339223
C111	C	0.073753	0.706332	0.170562
C112	C	0.110156	0.742769	0.086226
C113	C	0.146566	0.779198	0.170551
C114	C	0.146575	0.779191	0.339222
C115	C	0.110172	0.742754	0.423558
H116	H	0.046799	0.679364	0.108131
H117	H	0.110150	0.742774	-0.038636
H118	H	0.173514	0.806171	0.108120
H119	H	0.173529	0.806159	0.401653
H120	H	0.110179	0.742749	0.548420
C121	C	-0.922369	0.574206	-0.278666
C122	C	-0.951221	0.616554	-0.315143
C123	C	-0.978946	0.616846	-0.461207
C124	C	-0.977819	0.574790	-0.570795
C125	C	-0.948965	0.532439	-0.534321
C126	C	-0.921241	0.532147	-0.388256
H127	H	-0.952057	0.647689	-0.234017
H128	H	-1.000305	0.648197	-0.488207
H129	H	-0.998342	0.575006	-0.678921
H130	H	-0.948130	0.501304	-0.615447
H131	H	-0.899882	0.500796	-0.361256
H132	H	0.060900	0.208998	0.000220
H133	H	-0.121968	0.510414	0.361181
H134	H	-0.683281	0.571763	0.373931
H135	H	-0.208659	0.566891	-0.240629
C136	C	-0.201477	0.566820	0.279150
C137	C	-0.172621	0.524476	0.315633
C138	C	-0.144887	0.524193	0.461683
C139	C	-0.146008	0.566255	0.571251
C140	C	-0.174865	0.608603	0.534772
C141	C	-0.202599	0.608885	0.388722
H142	H	-0.171789	0.493336	0.234521
H143	H	-0.123525	0.492845	0.488687
H144	H	-0.125478	0.566046	0.679366
H145	H	-0.175697	0.639743	0.615883
H146	H	-0.223961	0.640234	0.361718
H147	H	0.004258	0.636767	0.222054
C148	C	-0.198798	0.074319	0.000326
C149	C	-0.210579	0.037991	0.126820
C150	C	-0.258791	0.003570	0.126821
C151	C	-0.295222	0.005478	0.000328
C152	C	-0.283443	0.041808	-0.126174
C153	C	-0.235230	0.076228	-0.126175
H154	H	-0.183609	0.036577	0.220466
H155	H	-0.267511	-0.023324	0.220467
H156	H	-0.330912	-0.020002	0.000329
H157	H	-0.310412	0.043222	-0.219820
H158	H	-0.226510	0.103122	-0.219822
C159	C	0.033234	-0.171300	0.000266
C160	C	0.069674	-0.173207	0.126736
C161	C	0.117888	-0.138788	0.126702
C162	C	0.129661	-0.102463	0.000196
C163	C	0.093221	-0.100555	-0.126284
C164	C	0.045007	-0.134973	-0.126250
H165	H	0.060959	-0.200098	0.220392
H166	H	0.144863	-0.140200	0.220332
H167	H	0.165352	-0.076984	0.000171
H168	H	0.101936	-0.073664	-0.219940
H169	H	0.018031	-0.133561	-0.219879
C170	C	-0.199872	0.180178	0.000342
C171	C	-0.212358	0.213157	-0.126135
C172	C	-0.261132	0.234180	-0.126086
C173	C	-0.297419	0.222225	0.000439
C174	C	-0.284934	0.189245	0.126925
C175	C	-0.236160	0.168222	0.126876
H176	H	-0.185496	0.222008	-0.219805
H177	H	-0.270375	0.258594	-0.219721
H178	H	-0.333525	0.237788	0.000475
H179	H	-0.311797	0.180394	0.220595
H180	H	-0.226918	0.143808	0.220511
H181	H	0.064317	0.696855	0.639312
C182	C	-0.922395	0.574197	0.279069
C183	C	-0.962857	0.532560	0.315592
C184	C	-0.990585	0.532845	0.461674
C185	C	-0.977851	0.574766	0.571233
C186	C	-0.937387	0.616405	0.534713
C187	C	-0.909659	0.616121	0.388631
H188	H	-0.972285	0.501525	0.234487
H189	H	-1.020539	0.502020	0.488708
H190	H	-0.998377	0.574976	0.679372
H191	H	-0.927958	0.647440	0.615818
H192	H	-0.879704	0.646946	0.361597
C193	C	-0.131418	0.500953	0.661272
C194	C	-0.131480	0.501016	0.829933
C195	C	-0.167885	0.464583	0.914274
C196	C	-0.204229	0.428086	0.829954
C197	C	-0.204169	0.428021	0.661283
C198	C	-0.167763	0.464455	0.576942
H199	H	-0.104575	0.528034	0.892360
H200	H	-0.167930	0.464631	1.039136
H201	H	-0.231178	0.401116	0.892388
H202	H	-0.231074	0.401003	0.598856
H203	H	-0.167719	0.464406	0.452081
H204	H	0.021635	-0.271697	0.000263
H205	H	0.063367	-0.033699	0.000240
H206	H	0.062439	0.057749	0.000238
H207	H	-0.145481	0.412716	0.000218
H208	H	0.004283	0.636758	0.778439
H209	H	0.014470	0.434824	0.000170
C210	C	0.028070	0.337893	0.000187
C211	C	0.064365	0.349864	0.126668
C212	C	0.113139	0.328842	0.126663
C213	C	0.125619	0.295849	0.000178
C214	C	0.089324	0.283877	-0.126312
C215	C	0.040550	0.304899	-0.126307
H216	H	0.055127	0.374288	0.220308
H217	H	0.140007	0.337704	0.220300
H218	H	0.161725	0.280288	0.000175
H219	H	0.098562	0.259453	-0.219952
H220	H	0.013681	0.296037	-0.219944
H221	H	-0.144555	0.321266	0.000260
H222	H	-0.185677	0.023466	0.000358
H223	H	-0.139246	-0.202331	0.000333
H224	H	-0.138315	-0.293798	0.000330
H225	H	-0.300108	0.567838	-0.240656
C226	C	0.074502	0.112074	0.000234
C227	C	0.110796	0.124044	0.126716
C228	C	0.159573	0.103026	0.126705
C229	C	0.172056	0.070038	0.000212
C230	C	0.135761	0.058067	-0.126280
C231	C	0.086985	0.079085	-0.126269
H232	H	0.101556	0.148465	0.220363
H233	H	0.186441	0.111888	0.220344
H234	H	0.208163	0.054480	0.000204
H235	H	0.145001	0.033646	-0.219927
H236	H	0.060117	0.070223	-0.219908
H237	H	-0.440556	0.569276	-0.373459
H238	H	-0.532002	0.570215	-0.373470
H239	H	-0.823707	0.573188	-0.240719
H240	H	-0.823738	0.573196	0.241144
H241	H	-0.532035	0.570229	0.373969
H242	H	-0.440585	0.569292	0.373970
H243	H	-0.591790	0.570827	-0.373478
H244	H	-0.300149	0.567816	0.241210
H245	H	-0.683250	0.571764	-0.373472
H246	H	-0.591834	0.570829	0.373939
