data_functionalizedCrystal
_audit_creation_method	'MofGen! by Chris Wilmer'
_symmetry_space_group_name_H-M	'P1'
_symmetry_Int_Tables_number	1
_symmetry_cell_setting	triclinic
loop_
_symmetry_equiv_pos_as_xyz
  x,y,z
_cell_length_a	17.640112
_cell_length_b	18.050589
_cell_length_c	17.640968
_cell_angle_alpha	78.773118
_cell_angle_beta	92.139080
_cell_angle_gamma	101.252307
loop_
_atom_site_label
_atom_site_type_symbol
_atom_site_fract_x
_atom_site_fract_y
_atom_site_fract_z
Zn1	Zn	1.247776	-0.021338	-0.195082
Zn2	Zn	1.747776	0.478662	0.304918
Zn3	Zn	1.221993	-0.174558	-0.068112
Zn4	Zn	1.721993	0.325442	0.431888
Zn5	Zn	1.095104	-0.069647	-0.093732
Zn6	Zn	1.595104	0.430353	0.406268
Zn7	Zn	1.120735	-0.164782	-0.220693
Zn8	Zn	1.620735	0.335218	0.279307
O9	O	1.171402	-0.107581	-0.144405
O10	O	1.671402	0.392419	0.355595
O11	O	1.350627	-0.025537	-0.156798
O12	O	1.850627	0.474463	0.343202
O13	O	1.183644	-0.184950	0.034761
O14	O	1.683644	0.315050	0.534761
O15	O	1.115420	0.040699	-0.107180
O16	O	1.615420	0.540699	0.392820
O17	O	1.331684	-0.138107	-0.063514
O18	O	1.831684	0.361893	0.436486
O19	O	1.227588	0.076191	-0.181641
O20	O	1.727588	0.576191	0.318359
O21	O	1.090420	-0.107872	0.015938
O22	O	1.590420	0.392128	0.515938
O23	O	0.992234	-0.098393	-0.132014
O24	O	1.492234	0.401607	0.367986
O25	O	1.159104	-0.121445	-0.323567
O26	O	1.659104	0.378555	0.176433
O27	O	1.011064	-0.168289	-0.225292
O28	O	1.511064	0.331711	0.274708
O29	O	1.252441	-0.016058	-0.304750
O30	O	1.752441	0.483942	0.195250
O31	O	1.208498	-0.277199	-0.088349
O32	O	1.708498	0.222801	0.411651
O33	O	1.134104	-0.270016	-0.200449
O34	O	1.634104	0.229984	0.299551
C35	C	0.974094	-0.137523	-0.184213
C36	C	1.474094	0.362477	0.315787
C37	C	0.889689	-0.150346	-0.201261
C38	C	1.389689	0.349654	0.298739
C39	C	0.563038	-0.010153	-0.014899
C40	C	1.063038	0.489847	0.485101
C41	C	0.483728	-0.022215	-0.030928
C42	C	0.983728	0.477785	0.469072
C43	C	0.503357	-0.095166	-0.127891
C44	C	1.003357	0.404834	0.372109
C45	C	0.582671	-0.083107	-0.111873
C46	C	1.082671	0.416893	0.388127
C47	C	0.612505	-0.040601	-0.055375
C48	C	1.112505	0.459399	0.444625
C49	C	0.632138	-0.113555	-0.152349
C50	C	1.132138	0.386445	0.347651
C51	C	0.711444	-0.101501	-0.136328
C52	C	1.211444	0.398499	0.363672
C53	C	0.741283	-0.058998	-0.079832
C54	C	1.241283	0.441002	0.420168
C55	C	0.691811	-0.028547	-0.039354
C56	C	1.191811	0.471453	0.460646
C57	C	0.602302	-0.156066	-0.208842
C58	C	1.102302	0.343934	0.291158
C59	C	0.651768	-0.186514	-0.249318
C60	C	1.151768	0.313486	0.250682
C61	C	0.731077	-0.174455	-0.233302
C62	C	1.231077	0.325545	0.266698
C63	C	0.760916	-0.131952	-0.176805
C64	C	1.260916	0.368048	0.323195
C65	C	0.780549	-0.204906	-0.273779
C66	C	1.280549	0.295094	0.226221
C67	C	0.859855	-0.192852	-0.257758
C68	C	1.359855	0.307148	0.242242
C69	C	0.840222	-0.119898	-0.160785
C70	C	1.340222	0.380102	0.339215
C71	C	1.171308	-0.300550	-0.144411
C72	C	1.671308	0.199450	0.355589
C73	C	1.171342	-0.383087	-0.144424
C74	C	1.671342	0.116913	0.355576
C75	C	1.130933	-0.578655	-0.205357
C76	C	1.630933	-0.078655	0.294643
C77	C	1.098407	-0.646737	-0.139793
C78	C	1.598407	-0.146737	0.360207
C79	C	1.171419	-0.534204	-0.144419
C80	C	1.671419	-0.034204	0.355581
C81	C	1.203984	-0.613197	-0.209983
C82	C	1.703984	-0.113197	0.290017
C83	C	1.171493	-0.680174	-0.144421
C84	C	1.671493	-0.180174	0.355579
C85	C	1.138849	-0.601212	-0.078826
C86	C	1.638849	-0.101212	0.421174
C87	C	1.244468	-0.567652	-0.149057
C88	C	1.744468	-0.067652	0.350943
C89	C	1.211958	-0.635718	-0.083440
C90	C	1.711958	-0.135718	0.416560
C91	C	1.171375	-0.450114	-0.144420
C92	C	1.671375	0.049886	0.355580
C93	C	1.171536	-0.764264	-0.144412
C94	C	1.671536	-0.264264	0.355588
C95	C	1.369481	-0.077524	-0.104442
C96	C	1.869481	0.422476	0.395558
C97	C	1.453890	-0.064715	-0.087412
C98	C	1.953890	0.435285	0.412588
C99	C	1.211508	-0.062272	-0.342484
C100	C	1.711508	0.437728	0.157516
C101	C	1.228598	-0.042964	-0.426893
C102	C	1.728598	0.457036	0.073107
C103	C	1.171521	0.086148	-0.144411
C104	C	1.671521	0.586148	0.355589
C105	C	1.171572	0.168704	-0.144414
C106	C	1.671572	0.668704	0.355586
C107	C	1.041859	-0.253814	-0.753484
C108	C	1.541859	0.246186	-0.253484
C109	C	1.057934	-0.235659	-0.832796
C110	C	1.557934	0.264341	-0.332796
C111	C	1.155117	-0.125928	-0.813194
C112	C	1.655117	0.374072	-0.313194
C113	C	1.139048	-0.144071	-0.733879
C114	C	1.639048	0.355929	-0.233879
C115	C	1.082418	-0.208016	-0.704030
C116	C	1.582418	0.291984	-0.204030
C117	C	1.179607	-0.098273	-0.684425
C118	C	1.679607	0.401727	-0.184425
C119	C	1.163541	-0.116418	-0.605116
C120	C	1.663541	0.383582	-0.105116
C121	C	1.106916	-0.180360	-0.575261
C122	C	1.606916	0.319640	-0.075261
C123	C	1.066352	-0.226160	-0.624721
C124	C	1.566352	0.273840	-0.124721
C125	C	1.236240	-0.034333	-0.714274
C126	C	1.736240	0.465667	-0.214274
C127	C	1.276799	0.011465	-0.664820
C128	C	1.776799	0.511465	-0.164820
C129	C	1.260730	-0.006676	-0.585511
C130	C	1.760730	0.493324	-0.085511
C131	C	1.204105	-0.070618	-0.555656
C132	C	1.704105	0.429382	-0.055656
C133	C	1.301293	0.039124	-0.536051
C134	C	1.801293	0.539124	-0.036051
C135	C	1.285228	0.020980	-0.456742
C136	C	1.785228	0.520980	0.043258
C137	C	1.188039	-0.088763	-0.476347
C138	C	1.688039	0.411237	0.023653
C139	C	1.131497	-0.152654	0.052913
C140	C	1.631497	0.347346	0.552913
C141	C	1.114553	-0.171730	0.137352
C142	C	1.614553	0.328270	0.637352
H143	H	0.537725	-0.165879	-0.221884
H144	H	1.037725	0.334121	0.278116
N145	N	1.326237	-0.522249	-0.154293
N146	N	1.826237	-0.022249	0.345707
H147	H	1.338228	-0.498158	-0.107062
H148	H	1.838228	0.001842	0.392938
H149	H	1.363327	-0.557737	-0.157213
H150	H	1.863327	-0.057737	0.342787
H151	H	1.231497	-0.619082	-0.265429
H152	H	1.731497	-0.119082	0.234571
N153	N	0.619587	-0.232363	-0.310248
N154	N	1.119587	0.267637	0.189752
H155	H	0.561841	-0.235381	-0.314255
H156	H	1.061841	0.264619	0.185745
H157	H	0.644450	-0.206363	-0.361702
H158	H	1.144450	0.293637	0.138298
H159	H	0.995727	-0.305868	-0.729184
H160	H	1.495727	0.194132	-0.229184
N161	N	0.748365	-0.250761	-0.334704
N162	N	1.248365	0.249239	0.165296
H163	H	0.690618	-0.253782	-0.338707
H164	H	1.190618	0.246218	0.161293
H165	H	0.773224	-0.224767	-0.386160
H166	H	1.273224	0.275233	0.113840
N167	N	1.089582	-0.199909	-0.489722
N168	N	1.589582	0.300091	0.010278
H169	H	1.033625	-0.198524	-0.481146
H170	H	1.533625	0.301476	0.018854
H171	H	1.099680	-0.253103	-0.467834
H172	H	1.599680	0.246897	0.032166
H173	H	0.805860	-0.049186	-0.066787
H174	H	1.305860	0.450814	0.433213
N175	N	1.126956	-0.157728	-0.444149
N176	N	1.626956	0.342272	0.055851
H177	H	1.141512	-0.205851	-0.455568
H178	H	1.641512	0.294149	0.044432
H179	H	1.122963	-0.162201	-0.386411
H180	H	1.622963	0.337799	0.113589
N181	N	1.016617	-0.692100	-0.134589
N182	N	1.516617	-0.192100	0.365411
H183	H	1.004973	-0.717011	-0.181334
H184	H	1.504973	-0.217011	0.318666
H185	H	1.010704	-0.733193	-0.086185
H186	H	1.510704	-0.233193	0.413815
H187	H	1.020221	-0.278215	-0.600421
H188	H	1.520221	0.221785	-0.100421
N189	N	0.913214	-0.225693	-0.301409
N190	N	1.413214	0.274307	0.198591
H191	H	0.882282	-0.254448	-0.339632
H192	H	1.382282	0.245552	0.160368
H193	H	0.953263	-0.182461	-0.329952
H194	H	1.453263	0.317539	0.170048
N195	N	1.014188	-0.285061	-0.886138
N196	N	1.514188	0.214939	-0.386138
H197	H	0.975878	-0.328322	-0.855191
H198	H	1.475878	0.171678	-0.355191
H199	H	0.985727	-0.252635	-0.926139
H200	H	1.485727	0.247365	-0.426139
N201	N	1.216189	-0.056957	-0.845388
N202	N	1.716189	0.443043	-0.345388
H203	H	1.267646	-0.063412	-0.820632
H204	H	1.767646	0.436588	-0.320632
H205	H	1.220147	-0.052446	-0.903133
H206	H	1.720147	0.447554	-0.403133
H207	H	1.096620	-0.553748	-0.256842
H208	H	1.596620	-0.053748	0.243158
N209	N	1.253547	-0.014763	-0.799819
N210	N	1.753547	0.485237	-0.299819
H211	H	1.243486	0.038442	-0.821732
H212	H	1.743486	0.538442	-0.321732
H213	H	1.309498	-0.016184	-0.808363
H214	H	1.809498	0.483816	-0.308363
N215	N	1.337871	0.080432	-0.697024
N216	N	1.837871	0.580432	-0.197024
H217	H	1.323307	0.128552	-0.685605
H218	H	1.823307	0.628552	-0.185605
H219	H	1.389304	0.073908	-0.672258
H220	H	1.889304	0.573908	-0.172258
N221	N	1.102314	-0.593563	-0.005375
N222	N	1.602314	-0.093563	0.494625
H223	H	1.102490	-0.537489	-0.005837
H224	H	1.602490	-0.037489	0.494163
H225	H	1.047332	-0.623220	-0.001767
H226	H	1.547332	-0.123220	0.498233
H227	H	1.246217	-0.660517	-0.031858
H228	H	1.746217	-0.160517	0.468142
H229	H	1.347406	0.091183	-0.560365
H230	H	1.847406	0.591183	-0.060365
H231	H	1.318254	0.058274	-0.416475
H232	H	1.818254	0.558274	0.083525
H233	H	0.587332	0.024473	0.031096
H234	H	1.087332	0.524473	0.531096
N235	N	0.872404	-0.074048	-0.099849
N236	N	1.372404	0.425952	0.400151
H237	H	0.898155	-0.107239	-0.057961
H238	H	1.398155	0.392761	0.442039
H239	H	0.911553	-0.027609	-0.124186
H240	H	1.411553	0.472391	0.375814
N241	N	0.723999	0.017307	0.021576
N242	N	1.223999	0.517307	0.521576
H243	H	0.680630	0.034772	0.044787
H244	H	1.180630	0.534772	0.544787
H245	H	0.749760	-0.015923	0.063416
H246	H	1.249760	0.484077	0.563416
H247	H	0.479055	-0.129777	-0.173889
H248	H	0.979055	0.370223	0.326111
N249	N	0.430372	0.010624	0.012733
N250	N	0.930372	0.510624	0.512733
H251	H	0.461309	0.039379	0.050954
H252	H	0.961309	0.539379	0.550954
H253	H	0.403754	0.047032	-0.024880
H254	H	0.903754	0.547032	0.475120
