data_functionalizedCrystal
_audit_creation_method	'MofGen! by Chris Wilmer'
_symmetry_space_group_name_H-M	'P1'
_symmetry_Int_Tables_number	1
_symmetry_cell_setting	triclinic
loop_
_symmetry_equiv_pos_as_xyz
  x,y,z
_cell_length_a	14.519731
_cell_length_b	14.519709
_cell_length_c	10.268362
_cell_angle_alpha	89.993769
_cell_angle_beta	89.995325
_cell_angle_gamma	83.684499
loop_
_atom_site_label
_atom_site_type_symbol
_atom_site_fract_x
_atom_site_fract_y
_atom_site_fract_z
O1	O	1.223855	0.120985	-0.108306
O2	O	1.473855	0.370985	0.141694
O3	O	1.723855	0.620985	0.391694
O4	O	1.973855	0.870985	0.641694
O5	O	0.955381	0.135202	-0.108308
O6	O	1.205381	0.385202	0.141692
O7	O	1.455381	0.635202	0.391692
O8	O	1.705381	0.885202	0.641692
O9	O	1.096737	-0.006144	-0.108295
O10	O	1.346737	0.243856	0.141705
O11	O	1.596737	0.493856	0.391705
O12	O	1.846737	0.743856	0.641705
O13	O	1.082500	0.262331	-0.108319
O14	O	1.332500	0.512331	0.141681
O15	O	1.582500	0.762331	0.391681
O16	O	1.832500	1.012331	0.641681
O17	O	1.096724	-0.006150	0.108305
O18	O	1.346724	0.243850	0.358305
O19	O	1.596724	0.493850	0.608305
O20	O	1.846724	0.743850	0.858305
O21	O	0.955369	0.135196	0.108292
O22	O	1.205369	0.385196	0.358292
O23	O	1.455369	0.635196	0.608292
O24	O	1.705369	0.885196	0.858292
O25	O	1.223843	0.120980	0.108295
O26	O	1.473843	0.370980	0.358295
O27	O	1.723843	0.620980	0.608295
O28	O	1.973843	0.870980	0.858295
Cu29	Cu	1.089605	0.128087	0.128071
Cu30	Cu	1.339605	0.378087	0.378071
Cu31	Cu	1.589605	0.628087	0.628071
Cu32	Cu	1.839605	0.878087	0.878071
Cu33	Cu	1.089619	0.128094	-0.128084
Cu34	Cu	1.339619	0.378094	0.121916
Cu35	Cu	1.589619	0.628094	0.371916
Cu36	Cu	1.839619	0.878094	0.621916
O37	O	1.082488	0.262326	0.108282
O38	O	1.332488	0.512326	0.358282
O39	O	1.582488	0.762326	0.608282
O40	O	1.832488	1.012326	0.858282
C41	C	0.921016	0.134532	-0.000008
C42	C	1.171016	0.384532	0.249992
C43	C	1.421016	0.634532	0.499992
C44	C	1.671016	0.884532	0.749992
C45	C	0.818635	0.132536	-0.000009
C46	C	1.068635	0.382536	0.249991
C47	C	1.318635	0.632536	0.499991
C48	C	1.568635	0.882536	0.749991
C49	C	1.096067	-0.040507	0.000005
C50	C	1.346067	0.209493	0.250005
C51	C	1.596067	0.459493	0.500005
C52	C	1.846067	0.709493	0.750005
C53	C	1.094079	-0.142889	0.000006
C54	C	1.344079	0.107111	0.250006
C55	C	1.594079	0.357111	0.500006
C56	C	1.844079	0.607111	0.750006
C57	C	0.735491	0.130915	-0.000014
C58	C	0.985491	0.380915	0.249986
C59	C	1.235491	0.630915	0.499986
C60	C	1.485491	0.880915	0.749986
C61	C	0.631182	0.128888	-0.000014
C62	C	0.881182	0.378888	0.249986
C63	C	1.131182	0.628888	0.499986
C64	C	1.381182	0.878888	0.749986
C65	C	0.548043	0.127280	-0.000014
C66	C	0.798043	0.377280	0.249986
C67	C	1.048043	0.627280	0.499986
C68	C	1.298043	0.877280	0.749986
C69	C	0.443728	0.125253	-0.000017
C70	C	0.693728	0.375253	0.249983
C71	C	0.943728	0.625253	0.499983
C72	C	1.193728	0.875253	0.749983
C73	C	1.086759	-0.517785	-0.000028
C74	C	1.336759	-0.267785	0.249972
C75	C	1.586759	-0.017785	0.499972
C76	C	1.836759	0.232215	0.749972
C77	C	1.088792	-0.413477	-0.000018
C78	C	1.338792	-0.163477	0.249982
C79	C	1.588792	0.086523	0.499982
C80	C	1.838792	0.336523	0.749982
C81	C	1.090419	-0.330340	-0.000010
C82	C	1.340419	-0.080340	0.249990
C83	C	1.590419	0.169660	0.499990
C84	C	1.840419	0.419660	0.749990
C85	C	1.092452	-0.226025	-0.000002
C86	C	1.342452	0.023975	0.249998
C87	C	1.592452	0.273975	0.499998
C88	C	1.842452	0.523975	0.749998
C89	C	1.258209	0.121649	-0.000008
C90	C	1.508209	0.371649	0.249992
C91	C	1.758209	0.621649	0.499992
C92	C	2.008209	0.871649	0.749992
C93	C	1.360589	0.123645	-0.000016
C94	C	1.610589	0.373645	0.249984
C95	C	1.860589	0.623645	0.499984
C96	C	2.110589	0.873645	0.749984
C97	C	1.083157	0.296688	-0.000022
C98	C	1.333157	0.546688	0.249978
C99	C	1.583157	0.796688	0.499978
C100	C	1.833157	1.046688	0.749978
C101	C	1.085146	0.399070	-0.000031
C102	C	1.335146	0.649070	0.249969
C103	C	1.585146	0.899070	0.499969
C104	C	1.835146	1.149070	0.749969
N105	N	1.089601	0.128082	0.308237
N106	N	1.339601	0.378082	0.558237
N107	N	1.589601	0.628082	0.808237
N108	N	1.839601	0.878082	1.058237
N109	N	1.089630	0.128092	-0.308250
N110	N	1.339630	0.378092	-0.058250
N111	N	1.589630	0.628092	0.191750
N112	N	1.839630	0.878092	0.441750
C113	C	1.089615	0.128092	0.573907
C114	C	1.339615	0.378092	0.823907
C115	C	1.589615	0.628092	1.073907
C116	C	1.839615	0.878092	1.323907
C117	C	1.089604	0.128089	0.426069
C118	C	1.339604	0.378089	0.676069
C119	C	1.589604	0.628089	0.926069
C120	C	1.839604	0.878089	1.176069
