data_functionalizedCrystal
_audit_creation_method	'MofGen! by Chris Wilmer'
_symmetry_space_group_name_H-M	'P1'
_symmetry_Int_Tables_number	1
_symmetry_cell_setting	triclinic
loop_
_symmetry_equiv_pos_as_xyz
  x,y,z
_cell_length_a	23.096457
_cell_length_b	23.096457
_cell_length_c	14.560438
_cell_angle_alpha	60.000511
_cell_angle_beta	89.996893
_cell_angle_gamma	59.996769
loop_
_atom_site_label
_atom_site_type_symbol
_atom_site_fract_x
_atom_site_fract_y
_atom_site_fract_z
Zr1	Zr	0.557764	0.633738	-0.120525
O2	O	0.465313	0.754531	-0.267166
O3	O	0.586107	0.512947	-0.075574
O4	O	0.586107	0.633738	-0.267174
O5	O	0.465311	0.633740	0.075573
O6	O	0.681389	0.633735	-0.267177
O7	O	0.465313	0.633740	-0.075567
O8	O	0.681390	0.417664	0.075559
O9	O	0.465311	0.849812	-0.267163
O10	O	0.669301	0.562628	-0.056403
O11	O	0.598192	0.562630	0.056394
O12	O	0.598191	0.704845	-0.169190
O13	O	0.527082	0.704846	-0.056394
Zr14	Zr	0.709725	0.633734	0.120520
Zr15	Zr	0.709729	0.633735	-0.120530
Zr16	Zr	0.557761	0.633738	0.120525
Zr17	Zr	0.557761	0.785701	-0.120521
Zr18	Zr	0.709729	0.481772	0.120516
O19	O	0.681383	0.754525	0.075569
O20	O	0.681387	0.754525	-0.267173
O21	O	0.465309	0.754530	0.075577
O22	O	0.802177	0.512942	0.267161
O23	O	0.802181	0.512942	-0.075582
O24	O	0.586103	0.512947	0.267168
O25	O	0.802178	0.633732	-0.075578
O26	O	0.681383	0.633735	0.267169
O27	O	0.586100	0.633737	0.267172
O28	O	0.802176	0.633732	0.075562
O29	O	0.586103	0.849809	-0.267167
O30	O	0.681387	0.417663	0.267162
O31	O	0.802179	0.417660	0.267158
O32	O	0.802181	0.417661	0.075555
O33	O	0.465309	0.849812	-0.075560
O34	O	0.586100	0.849809	-0.075564
O35	O	0.669298	0.562628	0.169185
O36	O	0.740408	0.562626	0.056389
O37	O	0.669298	0.704843	-0.056398
O38	O	0.598189	0.704844	0.056398
C39	C	0.633749	0.443654	-0.000008
C40	C	0.633750	0.379142	-0.000010
C41	C	0.670865	-0.081377	-0.058862
C42	C	0.670863	-0.020757	-0.058872
C43	C	0.633745	0.009557	0.000006
C44	C	0.596612	-0.020740	0.058876
C45	C	0.596609	-0.081353	0.058876
N46	N	0.638897	0.071950	0.095824
N47	N	0.638904	0.129529	0.095822
C48	C	0.633751	0.192182	0.000010
N49	N	0.628605	0.195074	-0.095800
N50	N	0.628602	0.137488	-0.095796
C51	C	0.633744	0.075282	0.000013
C52	C	0.670876	0.288207	-0.058874
C53	C	0.670869	0.348832	-0.058888
C54	C	0.596623	0.348841	0.058872
C55	C	0.596625	0.288224	0.058874
C56	C	0.633755	0.257907	0.000004
C57	C	0.443661	0.633741	0.000004
C58	C	0.379148	0.633742	0.000006
C59	C	0.348846	0.633748	-0.083263
C60	C	0.288234	0.633741	-0.083263
C61	C	0.257917	0.633744	-0.000002
C62	C	0.288229	0.633733	0.083282
C63	C	0.348844	0.633732	0.083286
N64	N	0.139564	0.680100	0.025206
N65	N	0.081981	0.680103	0.025196
C66	C	0.075288	0.633744	-0.000008
N67	N	0.128348	0.587393	-0.025222
N68	N	0.185934	0.587395	-0.025216
C69	C	0.192191	0.633744	0.000003
C70	C	-0.020736	0.633741	-0.083282
C71	C	-0.081347	0.633729	-0.083274
C72	C	-0.081355	0.633729	0.083267
C73	C	-0.020741	0.633733	0.083264
C74	C	0.009563	0.633743	-0.000016
C75	C	0.823829	0.633732	-0.000009
C76	C	0.888342	0.633730	-0.000011
C77	C	0.633749	0.633737	-0.301520
C78	C	0.633750	0.633737	-0.403852
C79	C	0.633741	0.823818	0.000003
C80	C	0.633740	0.888330	0.000005
C81	C	0.686238	0.633739	-0.451938
C82	C	0.686235	0.633735	-0.548087
C83	C	0.581248	0.633731	-0.548058
C84	C	0.581255	0.633729	-0.451906
C85	C	0.738733	0.633747	-0.403883
C86	C	0.791225	0.633750	-0.451970
C87	C	0.791222	0.633747	-0.548119
C88	C	0.738726	0.633740	-0.596181
C89	C	0.633741	0.633736	0.301515
C90	C	0.633740	0.633736	0.403847
C91	C	0.823833	0.443650	-0.000014
C92	C	0.888347	0.379136	-0.000019
C93	C	0.633745	0.443654	0.301509
C94	C	0.633745	0.379141	0.403839
C95	C	0.823829	0.443649	0.301503
C96	C	0.888342	0.379135	0.403831
C97	C	0.443661	0.823823	-0.301508
C98	C	0.379148	0.888337	-0.403836
C99	C	0.443657	0.823823	0.000010
C100	C	0.379143	0.888336	0.000014
C101	C	0.633745	0.823819	-0.301514
C102	C	0.633745	0.888331	-0.403844
C103	C	0.881527	0.348841	-0.058907
C104	C	0.942139	0.288231	-0.058933
C105	C	1.009571	0.257915	-0.000064
C106	C	1.016390	0.288216	0.058826
C107	C	0.955778	0.348828	0.058845
C108	C	0.670862	0.348845	0.510781
C109	C	0.670859	0.288237	0.606940
C110	C	0.633744	0.257923	0.596156
C111	C	0.596622	0.288226	0.489203
C112	C	0.596621	0.348836	0.393046
C113	C	0.955763	0.348838	0.393007
C114	C	1.016385	0.288229	0.489146
C115	C	1.009586	0.257914	0.596108
C116	C	0.942158	0.288217	0.606930
C117	C	0.881537	0.348829	0.510792
C118	C	0.311727	0.918642	-0.393012
C119	C	0.251104	0.979269	-0.489150
C120	C	0.257904	1.009588	-0.596112
C121	C	0.325332	0.979281	-0.606934
C122	C	0.385953	0.918658	-0.510797
C123	C	0.385963	0.918638	0.058892
C124	C	0.325351	0.979264	0.058892
C125	C	0.257919	1.009583	0.000019
C126	C	0.251100	0.979279	-0.058866
C127	C	0.311711	0.918658	-0.058872
C128	C	0.670868	0.918626	-0.393024
C129	C	0.670882	0.979234	-0.489165
C130	C	0.633768	1.009550	-0.596125
C131	C	0.596643	0.979249	-0.606943
C132	C	0.596634	0.918638	-0.510804
H133	H	0.701107	0.263525	-0.106814
C134	C	0.963253	0.382179	0.275359
H135	H	0.917497	0.422614	0.219642
H136	H	0.988435	0.405829	0.266927
H137	H	0.988443	0.338659	0.266924
H138	H	0.961342	0.373487	0.106805
C139	C	0.711682	0.382190	0.522666
H140	H	0.733775	0.355468	0.600135
H141	H	0.746813	0.372258	0.487613
H142	H	0.679631	0.439421	0.487603
H143	H	0.701111	1.003898	-0.480334
H144	H	1.071283	0.263562	0.480314
C145	C	0.555771	1.012650	-0.724600
H146	H	0.533646	0.985941	-0.717287
H147	H	0.520660	1.069876	-0.764483
H148	H	0.587782	1.002740	-0.764613
H149	H	1.058953	0.208560	0.674380
C150	C	0.523516	0.633708	-0.600908
H151	H	0.492262	0.633693	-0.558487
H152	H	0.497577	0.681193	-0.676083
H153	H	0.545096	0.586204	-0.600733
C154	C	0.555795	0.254890	0.123639
H155	H	0.561105	0.214454	0.115199
H156	H	0.574122	0.231244	0.201098
H157	H	0.506959	0.298414	0.094554
C158	C	0.012590	0.633738	0.174849
H159	H	0.053034	0.633732	0.162932
H160	H	-0.021093	0.681230	0.171399
H161	H	0.026404	0.586241	0.246730
H162	H	0.538515	0.633726	-0.412754
C163	C	0.332806	1.012625	-0.724593
H164	H	0.381642	0.985900	-0.717282
H165	H	0.310694	1.002691	-0.764535
H166	H	0.310702	1.069857	-0.764545
H167	H	0.196208	1.003935	-0.480317
C168	C	0.807360	0.382183	-0.123674
H169	H	0.811989	0.355459	-0.158756
H170	H	0.782165	0.372248	-0.072862
H171	H	0.782174	0.439414	-0.179390
C172	C	0.934625	0.254902	-0.123700
H173	H	0.885784	0.281631	-0.158737
H174	H	0.956718	0.264840	-0.179432
H175	H	0.956730	0.197671	-0.072876
C176	C	0.555786	0.885330	-0.522720
H177	H	0.533680	0.912076	-0.600193
H178	H	0.587812	0.828101	-0.487668
H179	H	0.520652	0.895282	-0.487670
C180	C	0.012608	0.633744	-0.174875
H181	H	0.053042	0.633754	-0.162956
H182	H	0.026425	0.586252	-0.171425
H183	H	-0.021076	0.681241	-0.246755
C184	C	0.555774	-0.114683	0.123636
H185	H	0.561087	-0.155121	0.115199
H186	H	0.574100	-0.138327	0.201095
H187	H	0.506937	-0.071160	0.094549
H188	H	0.701095	0.003912	-0.106811
C189	C	0.934687	0.254858	0.724590
H190	H	0.980450	0.214414	0.780287
H191	H	0.909501	0.298361	0.733051
H192	H	0.909511	0.231197	0.733029
H193	H	1.058919	0.208560	-0.000088
H194	H	1.071301	0.263523	0.106754
H195	H	0.566397	0.373526	0.106806
C196	C	0.738741	0.633748	-0.298120
H197	H	0.777524	0.633747	-0.276381
H198	H	0.695606	0.681236	-0.314026
H199	H	0.743110	0.586247	-0.238695
H200	H	0.826642	0.373490	0.519621
C201	C	0.711709	-0.114728	-0.123609
H202	H	0.706398	-0.155173	-0.115170
H203	H	0.693391	-0.071221	-0.201070
H204	H	0.760545	-0.138385	-0.094510
H205	H	-0.106016	0.633728	-0.151080
H206	H	0.701091	0.263572	0.694016
H207	H	0.208537	1.058950	-0.674385
H208	H	0.566389	0.003947	0.106813
H209	H	0.440864	0.893957	0.106840
C210	C	0.191253	1.076261	0.000038
H211	H	0.204979	1.089956	0.043547
H212	H	0.163827	1.123561	-0.074969
H213	H	0.163831	1.056393	0.031575
C214	C	0.176923	1.012629	-0.123611
H215	H	0.141808	1.053064	-0.115156
H216	H	0.171592	1.036280	-0.201074
H217	H	0.171603	0.969112	-0.094520
H218	H	0.306148	0.893988	-0.106814
H219	H	0.701090	0.893952	-0.305940
C220	C	0.382182	0.633749	-0.174859
H221	H	0.355454	0.633745	-0.224446
H222	H	0.382085	0.681238	-0.215984
H223	H	0.429576	0.586249	-0.140650
C224	C	0.633777	1.076227	-0.701869
H225	H	0.661198	1.089930	-0.680095
H226	H	0.653651	1.056368	-0.745377
H227	H	0.586484	1.123530	-0.745360
H228	H	0.633750	0.208570	0.674462
H229	H	0.701098	0.373500	-0.106831
H230	H	0.833969	0.633749	-0.412827
H231	H	0.306177	0.893960	-0.305926
H232	H	0.263558	0.633746	-0.151073
H233	H	0.263543	0.633733	0.151076
C234	C	0.555807	0.254866	0.477355
H235	H	0.561137	0.214422	0.549944
H236	H	0.506971	0.298369	0.437408
H237	H	0.574151	0.231204	0.437417
C238	C	0.460114	0.885297	-0.522711
H239	H	0.495249	0.844846	-0.450142
H240	H	0.465399	0.861663	-0.562671
H241	H	0.465448	0.928802	-0.562663
H242	H	0.566398	0.373496	0.305973
C243	C	0.382172	0.633736	0.174879
H244	H	0.355436	0.633741	0.224465
H245	H	0.429567	0.586248	0.216005
H246	H	0.382062	0.681237	0.140666
C247	C	-0.114696	0.633734	0.174852
H248	H	-0.155139	0.633740	0.162921
H249	H	-0.081018	0.586244	0.246731
H250	H	-0.128515	0.681233	0.171391
H251	H	0.330917	1.003927	0.106847
H252	H	0.738732	0.633729	-0.674466
C253	C	0.848961	0.633748	-0.601010
H254	H	0.880220	0.633758	-0.558621
H255	H	0.874891	0.586257	-0.600856
H256	H	0.827388	0.681246	-0.676187
