data_functionalizedCrystal
_audit_creation_method	'MofGen! by Chris Wilmer'
_symmetry_space_group_name_H-M	'P1'
_symmetry_Int_Tables_number	1
_symmetry_cell_setting	triclinic
loop_
_symmetry_equiv_pos_as_xyz
  x,y,z
_cell_length_a	15.944551
_cell_length_b	17.019294
_cell_length_c	15.021413
_cell_angle_alpha	86.125043
_cell_angle_beta	89.997174
_cell_angle_gamma	83.446674
loop_
_atom_site_label
_atom_site_type_symbol
_atom_site_fract_x
_atom_site_fract_y
_atom_site_fract_z
O1	O	1.114401	0.101727	-0.081736
O2	O	0.869836	0.114270	-0.082720
O3	O	0.998941	-0.006833	-0.073420
O4	O	0.985297	0.222829	-0.091036
O5	O	0.998920	-0.006816	0.074643
O6	O	0.869816	0.114287	0.065343
O7	O	1.114381	0.101744	0.066327
Zn8	Zn	0.992095	0.108018	0.089343
Zn9	Zn	0.992122	0.107996	-0.105736
O10	O	0.985276	0.222847	0.057027
C11	C	0.838533	0.113758	-0.008651
C12	C	0.745288	0.112197	-0.008540
C13	C	0.530530	0.033400	-0.002479
C14	C	0.469475	0.069982	-0.078288
C15	C	0.574566	0.109372	-0.008313
C16	C	0.469477	0.070017	0.067689
C17	C	0.409657	0.106639	-0.008089
C18	C	0.514738	0.145975	-0.084184
C19	C	0.514747	0.146000	0.061859
C20	C	0.453709	0.182637	-0.013972
C21	C	0.669566	0.110945	-0.008442
C22	C	0.314658	0.105072	-0.007966
C23	C	0.998413	-0.036213	0.002863
C24	C	0.996860	-0.123783	0.009574
C25	C	0.996144	-0.164928	-0.067982
C26	C	0.994680	-0.247208	-0.061674
C27	C	0.993938	-0.288343	0.022191
C28	C	0.994652	-0.247191	0.099753
C29	C	0.996110	-0.164912	0.093444
C30	C	0.989529	-0.536773	0.045278
C31	C	0.988073	-0.619058	0.051581
C32	C	0.988100	-0.619069	-0.109846
C33	C	0.989563	-0.536789	-0.116148
C34	C	0.990272	-0.495644	-0.038586
C35	C	0.992444	-0.372446	0.028641
C36	C	0.991760	-0.411541	-0.045037
C37	C	1.145684	0.102256	-0.007744
C38	C	1.238929	0.103817	-0.007861
C39	C	0.985804	0.252227	-0.019259
C40	C	0.987357	0.339797	-0.025975
N41	N	0.992083	0.108033	0.222480
N42	N	0.992141	0.107974	-0.238872
C43	C	0.932376	0.164005	0.457865
C44	C	1.008257	0.179319	0.516031
C45	C	0.992104	0.108014	0.404088
C46	C	0.916243	0.092717	0.522662
C47	C	0.992118	0.107996	0.579513
C48	C	1.068024	0.123363	0.460945
C49	C	0.975960	0.036730	0.467573
C50	C	1.051897	0.052014	0.525715
C51	C	0.992095	0.108026	0.303030
C52	C	0.992136	0.107984	0.680569
H53	H	0.420471	0.245753	-0.018854
H54	H	0.534694	0.178077	-0.148432
H55	H	0.449413	0.037842	-0.137542
O56	O	1.026377	0.259147	0.544492
H57	H	1.026823	0.258201	0.618446
O58	O	1.118877	-0.010717	0.564796
H59	H	1.181752	0.002166	0.539905
O60	O	0.957831	-0.043085	0.439098
H61	H	0.894788	-0.055640	0.463793
O62	O	0.831261	0.075578	0.558521
H63	H	0.781792	0.122144	0.531205
O64	O	0.996938	-0.120569	-0.158441
H65	H	1.054828	-0.090114	-0.164642
H66	H	0.563942	-0.029651	0.002267
O67	O	0.541371	0.188534	0.140349
H68	H	0.523461	0.156881	0.203292
H69	H	0.449422	0.037877	0.131871
O70	O	1.153029	0.140589	0.425231
H71	H	1.202582	0.094351	0.453065
O72	O	0.987316	-0.663442	-0.193500
H73	H	1.043867	-0.707963	-0.193952
O74	O	0.993865	-0.291585	-0.145323
H75	H	0.994621	-0.249158	-0.204698
H76	H	0.990168	-0.503303	-0.184439
H77	H	0.987465	-0.652547	0.119877
H78	H	0.994042	-0.280688	0.168037
O79	O	0.990316	-0.492401	0.128929
H80	H	0.989570	-0.534832	0.188303
O81	O	0.992560	-0.367174	-0.135487
H82	H	0.935062	-0.375935	-0.173525
H83	H	0.996681	-0.131411	0.156598
H84	H	0.991842	-0.405947	0.096924
O85	O	0.865536	0.226768	0.418570
H86	H	0.879152	0.285877	0.437825
