data_functionalizedCrystal
_audit_creation_method	'MofGen! by Chris Wilmer'
_symmetry_space_group_name_H-M	'P1'
_symmetry_Int_Tables_number	1
_symmetry_cell_setting	triclinic
loop_
_symmetry_equiv_pos_as_xyz
  x,y,z
_cell_length_a	15.944493
_cell_length_b	15.944545
_cell_length_c	15.021413
_cell_angle_alpha	90.001915
_cell_angle_beta	89.993251
_cell_angle_gamma	83.485608
loop_
_atom_site_label
_atom_site_type_symbol
_atom_site_fract_x
_atom_site_fract_y
_atom_site_fract_z
O1	O	1.114557	0.108089	-0.074024
O2	O	0.870000	0.121496	-0.074029
O3	O	0.998960	-0.007484	-0.074016
O4	O	0.985597	0.237069	-0.074038
O5	O	0.998939	-0.007465	0.074048
O6	O	0.869980	0.121515	0.074035
O7	O	1.114536	0.108108	0.074040
Zn8	Zn	0.992255	0.114814	0.097546
Zn9	Zn	0.992282	0.114790	-0.097535
O10	O	0.985577	0.237088	0.074027
C11	C	0.838695	0.120958	0.000002
C12	C	0.745447	0.119315	0.000001
C13	C	0.509685	0.195235	-0.000007
C14	C	0.459117	0.154303	0.073004
C15	C	0.574726	0.116271	0.000003
C16	C	0.459142	0.154267	-0.072975
C17	C	0.409816	0.113336	0.000001
C18	C	0.525386	0.075360	0.073074
C19	C	0.525414	0.075335	-0.072971
C20	C	0.474880	0.034345	0.000057
C21	C	0.669725	0.117963	0.000005
C22	C	0.314819	0.111637	0.000005
C23	C	0.998395	-0.038768	0.000017
C24	C	0.996735	-0.132014	0.000019
C25	C	1.145841	0.108646	0.000006
C26	C	1.239090	0.110289	0.000002
C27	C	0.911839	-0.402630	-0.000000
C28	C	0.952779	-0.352062	-0.073003
C29	C	0.990814	-0.467657	-0.000006
C30	C	0.952780	-0.352071	0.072976
C31	C	0.993719	-0.302744	0.000008
C32	C	1.031733	-0.418317	-0.073069
C33	C	1.031723	-0.418330	0.072976
C34	C	1.072721	-0.367795	-0.000045
C35	C	0.989139	-0.562659	-0.000015
C36	C	0.995401	-0.207745	0.000010
C37	C	0.986141	0.268373	-0.000008
C38	C	0.987801	0.361618	-0.000017
N39	N	0.992242	0.114830	0.230683
N40	N	0.992301	0.114767	-0.230673
C41	C	0.932602	0.174443	0.470360
C42	C	1.008504	0.190734	0.529695
C43	C	0.992264	0.114809	0.412290
C44	C	0.916382	0.098537	0.529698
C45	C	0.992278	0.114791	0.587714
C46	C	1.068204	0.131138	0.470318
C47	C	0.976032	0.038908	0.470316
C48	C	1.051989	0.055167	0.529623
C49	C	0.992255	0.114822	0.311233
C50	C	0.992296	0.114777	0.688769
H51	H	0.430212	0.187623	-0.134692
H52	H	1.022246	0.254914	0.555776
C53	C	0.821140	-0.423449	-0.000280
C54	C	0.780177	-0.389762	-0.076900
C55	C	0.696631	-0.408938	-0.077200
H56	H	0.792701	-0.399784	0.050994
H57	H	0.820694	-0.482980	0.000200
H58	H	0.780618	-0.330243	-0.077372
H59	H	0.808590	-0.413422	-0.128187
H60	H	0.696186	-0.468469	-0.076720
H61	H	0.668201	-0.385271	-0.025922
H62	H	0.668830	-0.386091	-0.129189
H63	H	0.962267	-0.025251	0.444213
C64	C	0.865279	0.241680	0.435776
C65	C	0.786086	0.225249	0.467169
C66	C	0.724055	0.287176	0.435336
H67	H	0.865292	0.240937	0.372545
H68	H	0.876903	0.295580	0.456135
H69	H	0.774465	0.171362	0.446805
H70	H	0.786045	0.225999	0.530396
H71	H	0.735678	0.341077	0.455695
H72	H	0.724076	0.286429	0.372106
H73	H	0.670316	0.276041	0.456637
C74	C	1.076090	-0.456609	-0.155569
C75	C	1.034902	-0.422169	-0.231738
C76	C	1.075742	-0.457415	-0.307752
H77	H	1.074767	-0.516018	-0.155210
H78	H	1.133060	-0.444455	-0.155829
H79	H	0.977947	-0.434329	-0.231478
H80	H	1.036224	-0.362764	-0.232126
H81	H	1.132711	-0.445262	-0.308012
H82	H	1.074416	-0.516823	-0.307384
H83	H	1.047806	-0.434048	-0.359441
H84	H	0.919405	-0.323142	0.134693
C85	C	0.454298	-0.056432	0.000301
C86	C	0.488125	-0.097370	0.076875
C87	C	0.469170	-0.180989	0.077140
H88	H	0.477999	-0.084785	-0.051005
H89	H	0.394785	-0.057031	-0.000139
H90	H	0.547626	-0.096776	0.077307
H91	H	0.464430	-0.069043	0.128194
H92	H	0.409657	-0.181587	0.076700
H93	H	0.492872	-0.209333	0.025831
H94	H	0.492112	-0.208773	0.129098
C95	C	1.153706	0.149681	0.435520
C96	C	1.152673	0.149561	0.342318
C97	C	1.231405	0.166682	0.310230
H98	H	1.196217	0.107623	0.456172
H99	H	1.165297	0.203448	0.456314
H100	H	1.141092	0.095801	0.321533
H101	H	1.110178	0.191618	0.321643
H102	H	1.242996	0.220449	0.331024
H103	H	1.273910	0.124622	0.330888
H104	H	1.230712	0.166610	0.246990
C105	C	1.119468	-0.011986	0.564063
C106	C	1.198734	0.005441	0.533830
C107	C	1.260917	-0.056391	0.565550
H108	H	1.108505	-0.065799	0.542852
H109	H	1.118852	-0.011927	0.627306
H110	H	1.199348	0.005374	0.470599
H111	H	1.209723	0.059243	0.555038
H112	H	1.260302	-0.056332	0.628793
H113	H	1.249946	-0.110199	0.544337
H114	H	1.314707	-0.044570	0.545048
H115	H	0.852205	0.084782	0.555783
H116	H	1.065038	-0.447279	0.134698
C117	C	0.563961	0.031007	0.155433
C118	C	0.651501	0.033139	0.154502
C119	C	0.687064	-0.007697	0.230361
H120	H	0.551936	-0.025992	0.155727
H121	H	0.540734	0.058873	0.207234
H122	H	0.674720	0.005272	0.102714
H123	H	0.663550	0.090128	0.154221
H124	H	0.663837	0.020168	0.282162
H125	H	0.675033	-0.064694	0.230648
H126	H	0.746462	-0.006249	0.229744
C127	C	0.530484	0.285942	0.000260
C128	C	0.496780	0.326918	0.076877
C129	C	0.515935	0.410471	0.077164
H130	H	0.506817	0.314361	-0.051016
H131	H	0.590013	0.286402	-0.000225
H132	H	0.437263	0.326463	0.077354
H133	H	0.520441	0.298525	0.128166
H134	H	0.575465	0.410931	0.076678
H135	H	0.492268	0.438882	0.025884
H136	H	0.493077	0.438282	0.129151
C137	C	0.563980	0.031043	-0.155374
C138	C	0.530268	0.072679	-0.231612
C139	C	0.565785	0.031917	-0.307544
H140	H	0.551484	-0.025803	-0.156021
H141	H	0.623442	0.032009	-0.154527
H142	H	0.470819	0.071704	-0.232459
H143	H	0.542762	0.129522	-0.230994
H144	H	0.625248	0.032883	-0.306697
H145	H	0.553287	-0.024928	-0.308182
H146	H	0.542923	0.060165	-0.359280
C147	C	0.420631	0.198683	0.155402
C148	C	0.455508	0.158034	0.231672
C149	C	0.420081	0.198903	0.307587
H150	H	0.361291	0.196860	0.155197
H151	H	0.432296	0.255807	0.155373
H152	H	0.443837	0.100924	0.231701
H153	H	0.514845	0.159855	0.231907
H154	H	0.431746	0.256027	0.307558
H155	H	0.360742	0.197077	0.307372
H156	H	0.443745	0.171333	0.359345
C157	C	0.908386	-0.313312	-0.155259
C158	C	0.911216	-0.225868	-0.154561
C159	C	0.870331	-0.190145	-0.230319
H160	H	0.851241	-0.324874	-0.155255
H161	H	0.935890	-0.336826	-0.207131
H162	H	0.883710	-0.202362	-0.102703
H163	H	0.968350	-0.214282	-0.154578
H164	H	0.897835	-0.213660	-0.282191
H165	H	0.813188	-0.201714	-0.230309
H166	H	0.872253	-0.130813	-0.229860
H167	H	1.140788	-0.352318	-0.000085
