data_functionalizedCrystal
_audit_creation_method	'MofGen! by Chris Wilmer'
_symmetry_space_group_name_H-M	'P1'
_symmetry_Int_Tables_number	1
_symmetry_cell_setting	triclinic
loop_
_symmetry_equiv_pos_as_xyz
  x,y,z
_cell_length_a	11.792241
_cell_length_b	12.837942
_cell_length_c	11.295483
_cell_angle_alpha	85.469583
_cell_angle_beta	94.129266
_cell_angle_gamma	89.511178
loop_
_atom_site_label
_atom_site_type_symbol
_atom_site_fract_x
_atom_site_fract_y
_atom_site_fract_z
O1	O	-1.528213	-0.135234	-0.098907
O2	O	-1.028213	0.364766	0.401093
O3	O	-1.199360	-0.149884	-0.098935
O4	O	-0.699360	0.350116	0.401065
O5	O	-1.356494	0.008384	-0.098914
O6	O	-0.856494	0.508384	0.401086
O7	O	-1.371079	-0.293502	-0.098928
O8	O	-0.871079	0.206498	0.401072
O9	O	-1.342690	-0.005495	0.099135
O10	O	-0.842690	0.494505	0.599135
O11	O	-1.185556	-0.163764	0.099114
O12	O	-0.685556	0.336236	0.599114
O13	O	-1.514409	-0.149114	0.099142
O14	O	-1.014409	0.350886	0.599142
Cu15	Cu	-1.348722	-0.157706	0.117212
Cu16	Cu	-0.848722	0.342294	0.617212
Cu17	Cu	-1.365047	-0.141292	-0.117004
Cu18	Cu	-0.865047	0.358708	0.382996
O19	O	-1.357275	-0.307382	0.099121
O20	O	-0.857275	0.192618	0.599121
C21	C	-1.344666	0.040093	0.000109
C22	C	-0.844666	0.540093	0.500109
C23	C	-1.329972	0.155253	0.000106
C24	C	-0.829972	0.655253	0.500106
C25	C	-1.150074	-0.155903	0.000086
C26	C	-0.650074	0.344097	0.500086
C27	C	-1.023782	-0.153148	0.000076
C28	C	-0.523782	0.346852	0.500076
C29	C	-1.563695	-0.143094	0.000118
C30	C	-1.063695	0.356906	0.500118
C31	C	-1.689988	-0.145849	0.000121
C32	C	-1.189988	0.354151	0.500121
C33	C	-0.792553	-0.148085	0.000110
C34	C	-0.292553	0.351915	0.500110
C35	C	-0.921225	-0.150898	0.000091
C36	C	-0.421225	0.349102	0.500091
C37	C	-1.369104	-0.339090	0.000095
C38	C	-0.869104	0.160910	0.500095
C39	C	-1.383798	-0.454250	0.000091
C40	C	-0.883798	0.045750	0.500091
N41	N	-1.337249	-0.169250	0.281946
N42	N	-0.837249	0.330750	0.781946
C43	C	-1.506618	0.395219	0.000096
C44	C	-1.006618	0.895219	0.500096
C45	C	-1.492818	0.503423	0.000093
C46	C	-0.992818	1.003423	0.500093
C47	C	-1.288572	0.479866	0.000088
C48	C	-0.788572	0.979866	0.500088
C49	C	-1.302372	0.371663	0.000091
C50	C	-0.802372	0.871663	0.500091
C51	C	-1.411399	0.329343	0.000097
C52	C	-0.911399	0.829343	0.500097
C53	C	-1.425198	0.221137	0.000109
C54	C	-0.925198	0.721137	0.500109
C55	C	-1.220954	0.197583	0.000095
C56	C	-0.720954	0.697583	0.500095
C57	C	-1.207153	0.305787	0.000092
C58	C	-0.707153	0.805787	0.500092
N59	N	-1.376529	-0.129739	-0.281739
N60	N	-0.876529	0.370261	0.218261
C61	C	-1.459116	-0.046580	0.531252
C62	C	-0.959116	0.453420	1.031252
C63	C	-1.450454	-0.055311	0.655914
C64	C	-0.950454	0.444689	1.155914
C65	C	-1.311258	-0.195439	0.655936
C66	C	-0.811258	0.304561	1.155936
C67	C	-1.319920	-0.186707	0.531274
C68	C	-0.819920	0.313293	1.031274
C69	C	-1.393852	-0.112277	0.468936
C70	C	-0.893852	0.387723	0.968936
C71	C	-1.402519	-0.103551	0.344271
C72	C	-0.902519	0.396449	0.844271
C73	C	-1.263318	-0.243673	0.344295
C74	C	-0.763318	0.256327	0.844295
C75	C	-1.254656	-0.252404	0.468958
C76	C	-0.754656	0.247596	0.968958
H77	H	-1.513973	0.186682	0.000118
H78	H	-1.013973	0.686682	0.500118
H79	H	-1.199808	0.514343	0.000071
H80	H	-0.699808	1.014343	0.500071
H81	H	-1.251056	-0.256032	0.706708
H82	H	-0.751056	0.243968	1.206708
H83	H	-1.118387	0.340259	0.000083
H84	H	-0.618387	0.840259	0.500083
H85	H	-1.462722	-0.042948	0.293517
H86	H	-0.962722	0.457052	0.793517
F87	F	-1.193863	-0.313600	0.277962
F88	F	-0.693863	0.186400	0.777962
F89	F	-1.594164	0.573530	0.000088
F90	F	-1.094164	1.073530	0.500088
H91	H	-1.143418	0.143934	0.000106
H92	H	-0.643418	0.643934	0.500106
F93	F	-1.175972	-0.331613	0.535313
F94	F	-0.675972	0.168387	1.035313
F95	F	-1.537810	0.032625	0.464907
F96	F	-1.037810	0.532625	0.964907
H97	H	-1.595391	0.360761	0.000112
H98	H	-1.095391	0.860761	0.500112
F99	F	-1.519914	0.014614	0.722231
F100	F	-1.019914	0.514614	1.222231
