data_functionalizedCrystal
_audit_creation_method	'MofGen! by Chris Wilmer'
_symmetry_space_group_name_H-M	'P1'
_symmetry_Int_Tables_number	1
_symmetry_cell_setting	triclinic
loop_
_symmetry_equiv_pos_as_xyz
  x,y,z
_cell_length_a	15.944551
_cell_length_b	15.021413
_cell_length_c	15.944480
_cell_angle_alpha	90.010117
_cell_angle_beta	96.515708
_cell_angle_gamma	90.002826
loop_
_atom_site_label
_atom_site_type_symbol
_atom_site_fract_x
_atom_site_fract_y
_atom_site_fract_z
O1	O	1.114501	0.073927	-0.108324
O2	O	0.869948	0.073948	-0.121681
O3	O	0.998934	0.073945	0.007276
O4	O	0.985516	0.073930	-0.237282
O5	O	0.998913	-0.074120	0.007258
O6	O	0.869928	-0.074117	-0.121700
O7	O	1.114481	-0.074137	-0.108343
Zn8	Zn	0.992201	-0.097635	-0.115024
Zn9	Zn	0.992228	0.097446	-0.115000
O10	O	0.985495	-0.074134	-0.237300
C11	C	0.838644	-0.000082	-0.121136
C12	C	0.745399	-0.000073	-0.119473
N13	N	0.992189	-0.230773	-0.115040
C14	C	0.932537	-0.470455	-0.174642
C15	C	1.008433	-0.529797	-0.190950
C16	C	0.992210	-0.412380	-0.115019
C17	C	0.916335	-0.529779	-0.098730
C18	C	0.992224	-0.587804	-0.115001
C19	C	1.068145	-0.470416	-0.131365
C20	C	0.975997	-0.470393	-0.039112
C21	C	1.051948	-0.529708	-0.055388
C22	C	0.992201	-0.311322	-0.115032
C23	C	0.992242	-0.688859	-0.114987
C24	C	0.530563	-0.000085	-0.035566
C25	C	0.469543	0.072916	-0.074521
C26	C	0.574674	-0.000083	-0.116466
C27	C	0.469545	-0.073064	-0.074558
C28	C	0.409762	-0.000097	-0.113555
C29	C	0.514882	0.072978	-0.155443
C30	C	0.514890	-0.073067	-0.155469
C31	C	0.453888	-0.000048	-0.194482
C32	C	0.669675	-0.000075	-0.118141
C33	C	0.314761	-0.000100	-0.111887
C34	C	1.145785	-0.000106	-0.108888
C35	C	1.239031	-0.000109	-0.110551
C36	C	0.998377	-0.000083	0.038562
C37	C	0.996739	-0.000072	0.131811
N38	N	0.992247	0.230583	-0.114977
C39	C	1.072670	-0.000094	0.367572
C40	C	1.031741	0.072913	0.418150
C41	C	0.993702	-0.000082	0.302533
C42	C	1.031703	-0.073067	0.418108
C43	C	0.990775	-0.000095	0.467444
C44	C	0.952795	0.072985	0.351882
C45	C	0.952768	-0.073060	0.351837
C46	C	0.911781	-0.000036	0.402381
C47	C	0.995391	-0.000073	0.207533
C48	C	0.989081	-0.000097	0.562441
C49	C	0.986063	-0.000103	0.731416
C50	C	0.987736	-0.000106	0.638171
H51	H	0.882124	-0.444438	-0.225104
Br52	Br	0.436066	-0.175926	-0.017518
Br53	Br	0.398589	0.000007	-0.306500
Br54	Br	0.548418	-0.175946	-0.212468
H55	H	0.563913	0.000009	0.031574
H56	H	1.132331	-0.444449	-0.145210
H57	H	0.919473	0.134772	0.323070
H58	H	0.962246	-0.444279	0.025052
H59	H	0.852162	-0.555858	-0.084962
Br60	Br	0.436057	0.175793	-0.017482
Br61	Br	1.087336	0.175778	0.466409
Br62	Br	0.798328	0.000035	0.428163
Br63	Br	1.186034	0.000012	0.341521
H64	H	0.534869	0.134762	-0.189627
H65	H	1.102473	-0.555562	-0.004956
H66	H	1.022159	-0.555890	-0.255134
Br67	Br	0.897235	-0.175931	0.303529
Br68	Br	1.087297	-0.175933	0.466316
