data_functionalizedCrystal
_audit_creation_method	'MofGen! by Chris Wilmer'
_symmetry_space_group_name_H-M	'P1'
_symmetry_Int_Tables_number	1
_symmetry_cell_setting	triclinic
loop_
_symmetry_equiv_pos_as_xyz
  x,y,z
_cell_length_a	10.967926
_cell_length_b	15.944493
_cell_length_c	10.065875
_cell_angle_alpha	98.793649
_cell_angle_beta	93.120479
_cell_angle_gamma	84.105668
loop_
_atom_site_label
_atom_site_type_symbol
_atom_site_fract_x
_atom_site_fract_y
_atom_site_fract_z
O1	O	1.612854	0.146480	0.265864
O2	O	1.262810	0.148879	0.183534
O3	O	1.447429	0.025700	0.226945
O4	O	1.428235	0.269658	0.222453
O5	O	1.412225	0.049288	0.445656
O6	O	1.227605	0.172466	0.402244
O7	O	1.577650	0.170067	0.484575
Zn8	Zn	1.397038	0.175011	0.478135
Zn9	Zn	1.443422	0.143934	0.189974
O10	O	1.393031	0.293245	0.441164
C11	C	1.200415	0.158715	0.282353
C12	C	1.066946	0.152875	0.250961
C13	C	0.989204	0.162490	0.350263
C14	C	0.851257	0.156453	0.317820
C15	C	1.429043	0.006174	0.336110
C16	C	1.426695	-0.087150	0.335540
C17	C	1.535361	-0.319505	0.361125
C18	C	1.494116	-0.383537	0.239506
C19	C	1.422335	-0.258006	0.334532
C20	C	1.459381	-0.360259	0.455132
C21	C	1.418131	-0.423045	0.333565
C22	C	1.381135	-0.320818	0.212831
C23	C	1.346401	-0.297526	0.428558
C24	C	1.305078	-0.361531	0.306894
C25	C	1.424760	-0.162931	0.335088
C26	C	1.415698	-0.518117	0.332997
C27	C	1.640046	0.160230	0.385752
C28	C	1.773516	0.166070	0.417137
C29	C	1.411417	0.312772	0.331996
C30	C	1.413767	0.406095	0.332557
N31	N	1.365392	0.196220	0.674799
N32	N	1.475078	0.122719	-0.006688
C33	C	1.432403	0.151308	0.758335
C34	C	1.408056	0.167638	0.909777
H35	H	1.632737	-0.300841	0.383915
O36	O	0.808929	0.141153	0.187714
C37	C	0.816808	0.045221	-0.021942
C38	C	0.864825	0.062431	0.125380
H39	H	0.861998	-0.018416	-0.072391
H40	H	0.713120	0.042989	-0.025011
H41	H	0.839821	0.098389	-0.077517
H42	H	0.841901	0.009284	0.181044
H43	H	0.968503	0.064696	0.128350
H44	H	1.507795	0.100764	0.717738
H45	H	1.332651	0.218179	0.950368
H46	H	1.024774	0.175185	0.459299
O47	O	1.564799	0.062317	0.944635
C48	C	1.670471	-0.009318	0.749217
C49	C	1.568992	0.059229	0.804203
H50	H	1.673877	-0.011850	0.635668
H51	H	1.762728	0.007133	0.798605
H52	H	1.649876	-0.074033	0.772673
H53	H	1.589469	0.123970	0.780762
H54	H	1.476767	0.042704	0.754816
H55	H	1.556524	-0.420821	0.159565
H56	H	1.289991	0.246758	0.715396
H57	H	1.207653	-0.380053	0.283918
O58	O	0.816126	0.181251	0.547152
C59	C	0.992486	0.201019	0.698034
C60	C	0.944391	0.183844	0.550737
H61	H	1.096196	0.203102	0.700982
H62	H	0.947500	0.264709	0.748536
H63	H	0.969366	0.147893	0.753640
H64	H	0.967499	0.236917	0.495018
H65	H	0.989374	0.120126	0.500338
O66	O	1.498642	-0.381189	0.577388
C67	C	1.466586	-0.359430	0.815614
C68	C	1.421963	-0.335668	0.677247
H69	H	1.404628	-0.322625	0.896391
H70	H	1.463481	-0.430791	0.814429
H71	H	1.564753	-0.342422	0.838463
H72	H	1.323785	-0.352622	0.654312
H73	H	1.425159	-0.264310	0.678502
H74	H	1.031377	0.140172	0.141925
H75	H	1.348120	-0.303334	0.110347
H76	H	1.284034	-0.260226	0.508512
