data_functionalizedCrystal
_audit_creation_method	'MofGen! by Chris Wilmer'
_symmetry_space_group_name_H-M	'P1'
_symmetry_Int_Tables_number	1
_symmetry_cell_setting	triclinic
loop_
_symmetry_equiv_pos_as_xyz
  x,y,z
_cell_length_a	18.050591
_cell_length_b	25.639240
_cell_length_c	18.050582
_cell_angle_alpha	89.968180
_cell_angle_beta	89.980240
_cell_angle_gamma	90.029204
loop_
_atom_site_label
_atom_site_type_symbol
_atom_site_fract_x
_atom_site_fract_y
_atom_site_fract_z
Zn1	Zn	1.135269	-0.208234	-0.419961
Zn2	Zn	1.135170	-0.295661	-0.295751
Zn3	Zn	1.011088	-0.208236	-0.295774
Zn4	Zn	1.011026	-0.295634	-0.419889
O5	O	1.073138	-0.251941	-0.357844
O6	O	1.239180	-0.219841	-0.403504
O7	O	1.118695	-0.284077	-0.191829
O8	O	1.027629	-0.135071	-0.312288
O9	O	1.239108	-0.284074	-0.312248
O10	O	1.118864	-0.135069	-0.403527
O11	O	1.027532	-0.219846	-0.191846
O12	O	0.907156	-0.219820	-0.312218
O13	O	1.027523	-0.284028	-0.523823
O14	O	0.907110	-0.284031	-0.403404
O15	O	1.118804	-0.219815	-0.523876
O16	O	1.118635	-0.368823	-0.312178
O17	O	1.027427	-0.368803	-0.403381
C18	C	0.880186	-0.251923	-0.357806
C19	C	0.797641	-0.251928	-0.357808
C20	C	0.548818	-0.216974	-0.308338
C21	C	0.598252	-0.204244	-0.376117
C22	C	0.500520	-0.251954	-0.357869
C23	C	0.598168	-0.264646	-0.290064
C24	C	0.646505	-0.251940	-0.357835
C25	C	0.548866	-0.239200	-0.425684
C26	C	0.548779	-0.299624	-0.339585
C27	C	0.598190	-0.286913	-0.407410
C28	C	0.416422	-0.251961	-0.357887
C29	C	0.730602	-0.251933	-0.357825
C30	C	1.073033	-0.387784	-0.357785
C31	C	1.073057	-0.445898	-0.357785
C32	C	1.120668	-0.806221	-0.405437
C33	C	1.120690	-0.860826	-0.405453
O34	O	1.161046	-0.889029	-0.445908
N35	N	1.073241	-0.888180	-0.357915
C36	C	1.025763	-0.860928	-0.310365
O37	O	0.985405	-0.889209	-0.269933
C38	C	1.025738	-0.806325	-0.310354
C39	C	1.073194	-0.778973	-0.357889
C40	C	1.168121	-0.778870	-0.452969
C41	C	1.168100	-0.724269	-0.452953
C42	C	1.120626	-0.697020	-0.405405
C43	C	1.073173	-0.724372	-0.357873
C44	C	0.978255	-0.779073	-0.262809
C45	C	0.978234	-0.724466	-0.262802
C46	C	1.025691	-0.697114	-0.310337
C47	C	1.025679	-0.642523	-0.310309
N48	N	1.073127	-0.615168	-0.357846
C49	C	1.120601	-0.642417	-0.405394
C50	C	1.025818	-0.975599	-0.310392
C51	C	1.025846	-1.030201	-0.310399
C52	C	1.120773	-1.030095	-0.405487
C53	C	1.120748	-0.975492	-0.405477
C54	C	1.073267	-0.948244	-0.357930
C55	C	1.120553	-0.527752	-0.405356
C56	C	1.120530	-0.473147	-0.405333
C57	C	1.025601	-0.473257	-0.310248
C58	C	1.025627	-0.527858	-0.310267
C59	C	1.073105	-0.555104	-0.357827
O60	O	0.985341	-0.614285	-0.269876
O61	O	1.160944	-0.614129	-0.445826
C62	C	1.266844	-0.251960	-0.357881
C63	C	1.349390	-0.251968	-0.357897
C64	C	1.073168	-0.251918	-0.551549
C65	C	1.073180	-0.251908	-0.634095
C66	C	1.073264	-0.115568	-0.357918
C67	C	1.073318	-0.057454	-0.357950
C68	C	1.023580	-0.286780	-0.833517
C69	C	1.091333	-0.299563	-0.882911
C70	C	1.073217	-0.251868	-0.785225
C71	C	1.005500	-0.239070	-0.882913
C72	C	1.073246	-0.251831	-0.931211
C73	C	1.141006	-0.264677	-0.833532
C74	C	1.055127	-0.204162	-0.833530
C75	C	1.122927	-0.216927	-0.882902
C76	C	1.073199	-0.251891	-0.701127
C77	C	1.073272	-0.251808	-1.015307
C78	C	1.073152	-0.251927	-0.164891
C79	C	1.073284	-0.251789	-0.082346
H80	H	0.619731	-0.316489	-0.449331
H81	H	0.619969	-0.163923	-0.391582
H82	H	0.981643	-0.316342	-0.811834
C83	C	1.161307	-0.127272	-0.885942
C84	C	1.179675	-0.177048	-0.911985
H85	H	1.196346	-0.102655	-0.903892
H86	H	1.113250	-0.118117	-0.902950
H87	H	1.161880	-0.127286	-0.833318
H88	H	1.179096	-0.177036	-0.964609
H89	H	1.227745	-0.186206	-0.894981
C90	C	0.929187	-0.224153	-0.989762
C91	C	0.928177	-0.224475	-0.912197
H92	H	0.881449	-0.215149	-1.007837
H93	H	0.964395	-0.199303	-1.006665
H94	H	0.942390	-0.257793	-1.007387
H95	H	0.914979	-0.190834	-0.894571
H96	H	0.892958	-0.249326	-0.895287
C97	C	0.670062	-0.324623	-0.217499
C98	C	0.627407	-0.279150	-0.212676
H99	H	0.688113	-0.333571	-0.169722
H100	H	0.640361	-0.352280	-0.236031
H101	H	0.710648	-0.318852	-0.250006
H102	H	0.586818	-0.284922	-0.180172
H103	H	0.657109	-0.251487	-0.194133
H104	H	1.159178	-0.450879	-0.444042
H105	H	1.159427	-1.052291	-0.444205
C106	C	0.545435	-0.390779	-0.369822
C107	C	0.519421	-0.354039	-0.318694
H108	H	0.527314	-0.424373	-0.356914
H109	H	0.528580	-0.381804	-0.418010
H110	H	0.598056	-0.391083	-0.369204
H111	H	0.466799	-0.353733	-0.319315
H112	H	0.536272	-0.363017	-0.270493
C113	C	1.130841	-0.589090	-0.505295
C114	C	1.172742	-0.557697	-0.457632
H115	H	1.163062	-0.607574	-0.537567
H116	H	1.102593	-0.613196	-0.476991
H117	H	1.098458	-0.567786	-0.533660
H118	H	1.205121	-0.579002	-0.429263
H119	H	1.201002	-0.533588	-0.485939
C120	C	0.544520	-0.127117	-0.271201
C121	C	0.519543	-0.177020	-0.251886
H122	H	0.526441	-0.102452	-0.236354
H123	H	0.597135	-0.126620	-0.271110
H124	H	0.526911	-0.118434	-0.319234
H125	H	0.537157	-0.185704	-0.203854
H126	H	0.466917	-0.177519	-0.251968
C127	C	0.963433	-0.136433	-0.829095
C128	C	1.034421	-0.149738	-0.804214
H129	H	0.950644	-0.102836	-0.810990
H130	H	0.962850	-0.136098	-0.881709
H131	H	0.928661	-0.161338	-0.811447
H132	H	1.069194	-0.124835	-0.821865
H133	H	1.035010	-0.150069	-0.751588
C134	C	1.261925	-0.729666	-0.546947
C135	C	1.220260	-0.694209	-0.505212
H136	H	1.294124	-0.711110	-0.579215
H137	H	1.290360	-0.750961	-0.514621
H138	H	1.229545	-0.750969	-0.575318
H139	H	1.252640	-0.672908	-0.476836
H140	H	1.191822	-0.672905	-0.537542
H141	H	0.987210	-1.052466	-0.271683
H142	H	0.527299	-0.228413	-0.483028
C143	C	1.178420	-0.840212	-0.552904
C144	C	1.220312	-0.808815	-0.505239
H145	H	1.210648	-0.858692	-0.585175
H146	H	1.150177	-0.864321	-0.524602
H147	H	1.146034	-0.818912	-0.581271
H148	H	1.252695	-0.830115	-0.476868
H149	H	1.248568	-0.784702	-0.533544
C150	C	1.220618	-0.914027	-0.415894
C151	C	1.172910	-0.945431	-0.457733
H152	H	1.252823	-0.895474	-0.448160
H153	H	1.192342	-0.889981	-0.387588
H154	H	1.249052	-0.935331	-0.383569
H155	H	1.144471	-0.924126	-0.490055
H156	H	1.201188	-0.969479	-0.486053
C157	C	0.931997	-0.981196	-0.216394
C158	C	0.973631	-0.945650	-0.258114
H159	H	0.899783	-0.962709	-0.184118
H160	H	0.903579	-1.002492	-0.248728
H161	H	0.964395	-1.002491	-0.188032
H162	H	0.941233	-0.924359	-0.286481
H163	H	1.002051	-0.924346	-0.225775
C164	C	0.884409	-0.773670	-0.168838
C165	C	0.926082	-0.809128	-0.210561
H166	H	0.852193	-0.792225	-0.136585
H167	H	0.916776	-0.752372	-0.140457
H168	H	0.855984	-0.752369	-0.201177
H169	H	0.954511	-0.830426	-0.178222
H170	H	0.893711	-0.830435	-0.238944
H171	H	0.939567	-0.702284	-0.224084
H172	H	0.986989	-0.550129	-0.271555
C173	C	0.983420	-0.389596	-0.268023
C174	C	0.973416	-0.443298	-0.257988
H175	H	0.951196	-0.371101	-0.235766
H176	H	1.033315	-0.380630	-0.257196
H177	H	0.972521	-0.380638	-0.317914
H178	H	0.984321	-0.452258	-0.208099
H179	H	0.923509	-0.452269	-0.268810
H180	H	1.106652	-0.339891	-0.904602
H181	H	1.198302	-0.275531	-0.811932
