data_functionalizedCrystal
_audit_creation_method	'MofGen! by Chris Wilmer'
_symmetry_space_group_name_H-M	'P1'
_symmetry_Int_Tables_number	1
_symmetry_cell_setting	triclinic
loop_
_symmetry_equiv_pos_as_xyz
  x,y,z
_cell_length_a	12.759401
_cell_length_b	21.295417
_cell_length_c	12.759393
_cell_angle_alpha	89.961880
_cell_angle_beta	89.981287
_cell_angle_gamma	90.032032
loop_
_atom_site_label
_atom_site_type_symbol
_atom_site_fract_x
_atom_site_fract_y
_atom_site_fract_z
Zn1	Zn	1.606128	-0.250553	-0.593965
Zn2	Zn	1.605977	-0.355835	-0.418261
Zn3	Zn	1.430433	-0.250587	-0.418300
Zn4	Zn	1.430370	-0.355791	-0.593899
O5	O	1.518227	-0.303191	-0.506106
O6	O	1.753129	-0.264523	-0.570669
O7	O	1.582655	-0.341906	-0.271245
O8	O	1.453829	-0.162493	-0.441646
O9	O	1.753018	-0.341874	-0.441580
O10	O	1.582911	-0.162468	-0.570706
O11	O	1.453683	-0.264580	-0.271274
O12	O	1.283404	-0.264538	-0.441582
O13	O	1.453721	-0.341799	-0.740929
O14	O	1.283357	-0.341831	-0.570594
O15	O	1.582850	-0.264481	-0.740977
O16	O	1.582593	-0.443919	-0.441516
O17	O	1.453575	-0.443886	-0.570556
C18	C	1.245260	-0.303184	-0.506085
C19	C	1.128483	-0.303196	-0.506101
C20	C	1.518089	-0.466743	-0.506048
C21	C	1.518127	-0.536711	-0.506058
C22	C	1.073624	-0.343503	-0.573172
C23	C	0.963900	-0.343506	-0.573193
C24	C	0.963903	-0.262891	-0.439063
C25	C	1.073626	-0.262886	-0.439048
C26	C	0.813989	-0.366093	-0.697048
C27	C	0.759127	-0.406411	-0.764110
C28	C	0.794696	-0.467844	-0.780044
C29	C	0.885125	-0.488971	-0.728901
C30	C	0.939982	-0.448657	-0.661832
C31	C	0.904415	-0.387215	-0.645918
C32	C	1.223539	-0.240305	-0.315192
C33	C	1.278397	-0.199993	-0.248116
C34	C	1.242831	-0.138559	-0.232171
C35	C	1.152398	-0.117434	-0.283295
C36	C	1.097539	-0.157746	-0.350371
C37	C	1.133113	-0.219179	-0.366317
C38	C	1.585366	-0.569574	-0.438936
C39	C	1.585415	-0.635316	-0.438960
C40	C	1.518206	-0.668194	-0.506094
C41	C	1.450962	-0.635323	-0.573230
C42	C	1.450922	-0.569582	-0.573212
N43	N	1.426299	-0.771460	-0.514097
N44	N	1.426340	-0.833912	-0.514108
C45	C	1.518324	-0.866268	-0.506155
N46	N	1.610268	-0.833814	-0.498169
N47	N	1.610226	-0.771357	-0.498153
C48	C	1.518243	-0.739479	-0.506122
C49	C	1.585622	-0.970416	-0.439054
C50	C	1.585673	-1.036160	-0.439085
C51	C	1.451211	-1.036166	-0.573350
C52	C	1.451170	-0.970423	-0.573325
C53	C	1.518374	-0.937553	-0.506171
C54	C	1.792260	-0.303200	-0.506128
C55	C	1.909037	-0.303203	-0.506137
C56	C	1.518295	-0.303131	-0.780140
C57	C	1.518324	-0.303105	-0.896916
C58	C	1.518394	-0.139001	-0.506188
C59	C	1.518465	-0.069033	-0.506222
C60	C	1.451110	-0.343346	-0.951755
C61	C	1.451147	-0.343322	-1.061479
C62	C	1.585617	-0.262812	-1.061517
C63	C	1.585584	-0.262839	-0.951794
C64	C	1.413576	-0.417523	-1.211397
C65	C	1.346345	-0.457758	-1.266239
C66	C	1.243810	-0.467428	-1.230621
C67	C	1.208485	-0.436853	-1.140163
C68	C	1.275710	-0.396613	-1.085327
C69	C	1.378260	-0.386956	-1.120943
C70	C	1.623144	-0.188638	-0.801875
C71	C	1.690365	-0.148394	-0.747036
C72	C	1.792901	-0.138718	-0.782652
C73	C	1.828223	-0.169282	-0.873113
C74	C	1.761002	-0.209526	-0.927952
C75	C	1.658466	-0.219202	-0.892329
C76	C	1.518220	-0.303206	-0.233139
C77	C	1.518395	-0.303055	-0.116363
H78	H	1.118286	-0.376325	-0.627773
C79	C	0.903550	-0.218556	-0.365303
N80	N	0.858092	-0.185163	-0.309744
C81	C	1.659381	-0.671472	-0.365111
N82	N	1.715090	-0.698703	-0.309486
H83	H	1.396242	-0.662096	-0.627893
H84	H	1.911714	-0.161400	-0.902117
C85	C	1.799862	-0.243150	-1.027459
N86	N	1.829131	-0.268477	-1.102406
C87	C	1.262672	-0.307886	-0.332729
N88	N	1.292147	-0.358788	-0.345933
H89	H	0.914071	-0.538998	-0.741872
C90	C	1.659282	-0.533420	-0.365054
N91	N	1.714951	-0.506188	-0.309400
H92	H	1.396413	-0.943665	-0.627977
H93	H	1.396493	-1.062934	-0.628017
C94	C	1.376964	-0.533432	-0.647068
N95	N	1.321261	-0.506203	-0.702702
H96	H	1.396336	-0.376129	-0.907076
C97	C	1.510346	-0.199280	-0.762688
N98	N	1.425386	-0.207292	-0.733173
H99	H	1.640348	-0.943652	-0.384377
C100	C	1.039452	-0.471892	-0.605582
N101	N	1.114379	-0.489394	-0.563220
C102	C	0.734344	-0.512191	-0.853816
N103	N	0.688886	-0.545590	-0.909386
C104	C	0.659662	-0.383167	-0.820371
N105	N	0.584744	-0.365662	-0.862746
C106	C	1.866842	-0.094446	-0.722325
N107	N	1.922536	-0.061103	-0.676889
H108	H	1.246948	-0.371717	-1.011680
H109	H	1.497072	-0.409661	-1.240398
C110	C	1.659645	-1.072309	-0.365241
N111	N	1.715360	-1.099537	-0.309617
H112	H	1.124986	-0.444723	-1.111178
H113	H	1.023909	-0.140539	-0.392006
C114	C	1.169871	-0.511706	-1.290929
N115	N	1.114190	-0.545066	-1.336348
H116	H	1.123426	-0.067414	-0.270296
C117	C	1.385210	-0.491395	-1.365734
N118	N	1.414479	-0.516730	-1.440673
H119	H	1.287502	-0.105740	-0.177544
H120	H	1.661594	-0.123503	-0.673383
C121	C	1.377887	-0.223231	-0.191891
N122	N	1.452827	-0.240731	-0.149551
H123	H	0.785027	-0.316068	-0.684091
C124	C	1.659583	-0.218513	-1.121893
N125	N	1.715291	-0.185143	-1.167367
