data_functionalizedCrystal
_audit_creation_method	'MofGen! by Chris Wilmer'
_symmetry_space_group_name_H-M	'P1'
_symmetry_Int_Tables_number	1
_symmetry_cell_setting	triclinic
loop_
_symmetry_equiv_pos_as_xyz
  x,y,z
_cell_length_a	19.288859
_cell_length_b	17.699092
_cell_length_c	17.766277
_cell_angle_alpha	90.003535
_cell_angle_beta	90.010268
_cell_angle_gamma	83.210047
loop_
_atom_site_label
_atom_site_type_symbol
_atom_site_fract_x
_atom_site_fract_y
_atom_site_fract_z
O1	O	0.921470	0.094393	0.062606
O2	O	1.421470	0.594393	0.562606
O3	O	0.719224	0.107135	0.062604
O4	O	1.219224	0.607135	0.562604
O5	O	0.826058	-0.009433	0.062604
O6	O	1.326058	0.490567	0.562604
O7	O	0.814636	0.210961	0.062607
O8	O	1.314636	0.710961	0.562607
O9	O	0.826039	-0.009436	-0.062585
O10	O	1.326039	0.490564	0.437415
O11	O	0.719205	0.107132	-0.062584
O12	O	1.219205	0.607132	0.437416
O13	O	0.921451	0.094390	-0.062582
O14	O	1.421451	0.594390	0.437418
Cu15	Cu	0.820326	0.100761	-0.074014
Cu16	Cu	1.320326	0.600761	0.425986
Cu17	Cu	0.820349	0.100764	0.074036
Cu18	Cu	1.320349	0.600764	0.574036
O19	O	0.814617	0.210958	-0.062582
O20	O	1.314617	0.710958	0.437418
C21	C	0.693338	0.106724	0.000010
C22	C	1.193338	0.606724	0.500010
C23	C	0.616233	0.105496	0.000009
C24	C	1.116233	0.605496	0.500009
C25	C	0.052265	0.165583	0.000011
C26	C	0.552265	0.665583	0.500011
C27	C	0.124712	0.166743	0.000015
C28	C	0.624712	0.666743	0.500015
C29	C	0.169336	0.098347	0.000012
C30	C	0.669336	0.598347	0.500012
C31	C	0.141507	0.028784	0.000025
C32	C	0.641507	0.528784	0.500025
C33	C	0.069060	0.027625	0.000029
C34	C	0.569060	0.527625	0.500029
C35	C	0.290538	0.047336	-0.043850
C36	C	0.790538	0.547336	0.456150
C37	C	0.362983	0.048498	-0.043858
C38	C	0.862983	0.548498	0.456142
C39	C	0.392787	0.101918	0.000005
C40	C	0.892787	0.601918	0.500005
C41	C	0.350134	0.154190	0.043866
C42	C	0.850134	0.654190	0.543866
C43	C	0.277688	0.153031	0.043870
C44	C	0.777688	0.653031	0.543870
C45	C	0.247894	0.099596	0.000009
C46	C	0.747894	0.599596	0.500009
C47	C	0.499164	0.172735	0.000001
C48	C	0.999164	0.672735	0.500001
C49	C	0.571613	0.173893	0.000010
C50	C	1.071613	0.673893	0.500010
C51	C	0.588407	0.035932	0.000013
C52	C	1.088407	0.535932	0.500013
C53	C	0.515959	0.034776	0.000012
C54	C	1.015959	0.534776	0.500012
C55	C	0.471341	0.103180	0.000003
C56	C	0.971341	0.603180	0.500003
C57	C	0.825638	-0.037631	0.000010
C58	C	1.325638	0.462369	0.500010
C59	C	0.824408	-0.121647	0.000014
C60	C	1.324408	0.378353	0.500014
C61	C	0.823842	-0.161112	0.068255
C62	C	1.323842	0.338888	0.568255
C63	C	0.822681	-0.240053	0.068256
C64	C	1.322681	0.259947	0.568256
C65	C	0.822091	-0.279529	0.000015
C66	C	1.322091	0.220471	0.500015
C67	C	0.822655	-0.240058	-0.068232
C68	C	1.322655	0.259942	0.431768
C69	C	0.823811	-0.161117	-0.068232
C70	C	1.323811	0.338883	0.431768
C71	C	0.817993	-0.558416	-0.068233
C72	C	1.317993	-0.058416	0.431767
C73	C	0.816839	-0.637363	-0.068227
C74	C	1.316839	-0.137363	0.431773
C75	C	0.816862	-0.637352	0.068255
C76	C	1.316862	-0.137352	0.568255
C77	C	0.818018	-0.558411	0.068255
C78	C	1.318018	-0.058411	0.568255
C79	C	0.818579	-0.518947	0.000009
C80	C	1.318579	-0.018947	0.500009
C81	C	0.819836	-0.433350	0.000009
C82	C	1.319836	0.066650	0.500009
C83	C	0.820839	-0.365125	0.000014
C84	C	1.320839	0.134875	0.500014
C85	C	0.947338	0.094801	0.000014
C86	C	1.447338	0.594801	0.500014
C87	C	1.024443	0.096029	0.000020
C88	C	1.524443	0.596029	0.500020
C89	C	0.815037	0.239156	0.000013
C90	C	1.315037	0.739156	0.500013
C91	C	0.816268	0.323172	0.000015
C92	C	1.316268	0.823172	0.500015
N93	N	0.820316	0.100757	-0.178144
N94	N	1.320316	0.600757	0.321856
C95	C	0.862359	0.146548	-0.217524
C96	C	1.362359	0.646548	0.282476
C97	C	0.862370	0.146545	-0.296326
C98	C	1.362370	0.646545	0.203674
C99	C	0.820325	0.100762	-0.335745
C100	C	1.320325	0.600762	0.164255
C101	C	0.778279	0.054962	-0.296356
C102	C	1.278279	0.554962	0.203644
C103	C	0.778275	0.054960	-0.217556
C104	C	1.278275	0.554960	0.282444
C105	C	0.757710	0.098849	-0.460605
C106	C	1.257710	0.598849	0.039395
C107	C	0.757713	0.098856	-0.539404
C108	C	1.257713	0.598856	-0.039404
C109	C	0.820339	0.100764	-0.578791
C110	C	1.320339	0.600764	-0.078791
C111	C	0.882963	0.102680	-0.539370
C112	C	1.382963	0.602680	-0.039370
C113	C	0.882959	0.102678	-0.460570
C114	C	1.382959	0.602678	0.039430
C115	C	0.820325	0.100759	-0.421191
C116	C	1.320325	0.600759	0.078809
C117	C	0.862397	0.146554	-0.703617
C118	C	1.362397	0.646554	-0.203617
C119	C	0.862410	0.146547	-0.782420
C120	C	1.362410	0.646547	-0.282420
C121	C	0.778313	0.054968	-0.782449
C122	C	1.278313	0.554968	-0.282449
C123	C	0.778307	0.054971	-0.703647
C124	C	1.278307	0.554971	-0.203647
C125	C	0.820348	0.100768	-0.664236
C126	C	1.320348	0.600768	-0.164236
N127	N	0.820365	0.100762	0.178166
N128	N	1.320365	0.600762	0.678166
H129	H	0.242963	0.195591	0.079585
H130	H	0.742963	0.695591	0.579585
H131	H	0.374398	0.197692	0.079582
H132	H	0.874398	0.697692	0.579582
O133	O	0.696879	0.096871	-0.577655
O134	O	1.196879	0.596871	-0.077655
C135	C	0.667531	0.030201	-0.558403
C136	C	1.167531	0.530201	-0.058403
H137	H	0.710296	-0.014481	-0.536745
H138	H	1.210296	0.485519	-0.036745
H139	H	0.642060	0.007353	-0.610233
H140	H	1.142060	0.507353	-0.110233
H141	H	0.626506	0.043817	-0.512665
H142	H	1.126506	0.543817	-0.012665
H143	H	0.933950	0.104236	-0.428477
H144	H	1.433950	0.604236	0.071523
H145	H	0.493307	-0.021862	0.000015
H146	H	0.993307	0.478138	0.500015
O147	O	0.818515	-0.519967	-0.134456
O148	O	1.318515	-0.019967	0.365544
C149	C	0.819676	-0.441829	-0.119831
C150	C	1.319676	0.058171	0.380169
H151	H	0.797860	-0.427831	-0.061184
H152	H	1.297860	0.072169	0.438816
H153	H	0.786401	-0.406913	-0.163418
H154	H	1.286401	0.093087	0.336582
H155	H	0.875706	-0.427557	-0.123066
H156	H	1.375706	0.072443	0.376934
H157	H	0.933959	0.104237	-0.571438
H158	H	1.433959	0.604237	-0.071438
O159	O	0.737558	0.010420	-0.665350
O160	O	1.237558	0.510420	-0.165350
C161	C	0.779983	-0.041332	-0.619739
C162	C	1.279983	0.458668	-0.119739
H163	H	0.835266	-0.049631	-0.643472
H164	H	1.335266	0.450369	-0.143472
H165	H	0.757872	-0.098277	-0.618845
H166	H	1.257872	0.401723	-0.118845
H167	H	0.781116	-0.017938	-0.560020
H168	H	1.281116	0.482062	-0.060020
O169	O	0.404391	-0.002378	-0.086376
O170	O	0.904391	0.497622	0.413624
C171	C	0.395722	-0.076928	-0.063394
C172	C	0.895722	0.423072	0.436606
H173	H	0.375642	-0.075761	-0.003011
H174	H	0.875642	0.424239	0.496989
H175	H	0.448004	-0.114276	-0.066621
H176	H	0.948004	0.385724	0.433379
H177	H	0.356512	-0.101031	-0.101966
H178	H	0.856512	0.398969	0.398034
H179	H	0.896630	0.183845	-0.671526
H180	H	1.396630	0.683845	-0.171526
H181	H	0.822223	-0.272182	0.123825
H182	H	1.322223	0.227818	0.623825
H183	H	0.816403	-0.669493	0.123824
H184	H	1.316403	-0.169493	0.623824
O185	O	0.903272	0.191100	-0.820559
O186	O	1.403272	0.691100	-0.320559
C187	C	0.940386	0.231505	-0.768872
C188	C	1.440386	0.731505	-0.268872
H189	H	0.911621	0.236000	-0.712708
H190	H	1.411621	0.736000	-0.212708
H191	H	0.944589	0.291011	-0.791635
H192	H	1.444589	0.791011	-0.291635
H193	H	0.994960	0.200178	-0.760476
H194	H	1.494960	0.700178	-0.260476
O195	O	0.041999	-0.039923	0.000167
O196	O	0.541999	0.460077	0.500167
C197	C	0.000590	-0.044707	0.064993
C198	C	0.500590	0.455293	0.564993
H199	H	0.017665	-0.005210	0.110309
H200	H	0.517665	0.494790	0.610309
H201	H	0.007198	-0.105725	0.086760
H202	H	0.507198	0.394275	0.586760
H203	H	-0.056574	-0.027054	0.050333
H204	H	0.443426	0.472946	0.550333
O205	O	0.816232	-0.675589	-0.134588
O206	O	1.316232	-0.175589	0.365412
C207	C	0.816990	-0.623832	-0.194825
C208	C	1.316990	-0.123832	0.305175
H209	H	0.795836	-0.564350	-0.174821
H210	H	1.295836	-0.064350	0.325179
H211	H	0.782936	-0.641728	-0.242547
H212	H	1.282936	-0.141728	0.257453
H213	H	0.872809	-0.623568	-0.215815
H214	H	1.372809	-0.123568	0.284185
O215	O	0.696836	0.097130	-0.422378
O216	O	1.196836	0.597130	0.077622
C217	C	0.649971	0.161477	-0.441651
C218	C	1.149971	0.661477	0.058349
H219	H	0.680491	0.208387	-0.463304
H220	H	1.180491	0.708387	0.036696
H221	H	0.618626	0.182601	-0.389832
H222	H	1.118626	0.682601	0.110168
H223	H	0.612903	0.145476	-0.487399
H224	H	1.112903	0.645476	0.012601
O225	O	0.903110	0.191076	-0.334671
O226	O	1.403110	0.691076	0.165329
C227	C	0.860663	0.242848	-0.380242
C228	C	1.360663	0.742848	0.119758
H229	H	0.809173	0.219429	-0.392059
H230	H	1.309173	0.719429	0.107941
H231	H	0.888568	0.251208	-0.435648
H232	H	1.388568	0.751208	0.064352
H233	H	0.849926	0.299770	-0.349869
H234	H	1.349926	0.799770	0.150131
H235	H	0.266280	0.003830	-0.079570
H236	H	0.766280	0.503830	0.420430
H237	H	0.177845	-0.026905	0.000025
H238	H	0.677845	0.473095	0.500025
O239	O	0.824382	-0.122880	0.134613
O240	O	1.324382	0.377120	0.634613
C241	C	0.823650	-0.174648	0.194844
C242	C	1.323650	0.325352	0.694844
H243	H	0.800841	-0.227711	0.174836
H244	H	1.300841	0.272289	0.674836
H245	H	0.790282	-0.146918	0.242572
H246	H	1.290282	0.353082	0.742572
H247	H	0.879232	-0.191173	0.215828
H248	H	1.379232	0.308827	0.715828
H249	H	0.822171	-0.272205	-0.123795
H250	H	1.322171	0.227795	0.376205
O251	O	0.824455	-0.122713	-0.134475
O252	O	1.324455	0.377287	0.365525
C253	C	0.885261	-0.085840	-0.138576
C254	C	1.385261	0.414160	0.361424
H255	H	0.905495	-0.076932	-0.079328
H256	H	1.405495	0.423068	0.420672
H257	H	0.872541	-0.028358	-0.167462
H258	H	1.372541	0.471642	0.332538
H259	H	0.926917	-0.122411	-0.172254
H260	H	1.426917	0.377589	0.327746
O261	O	0.818558	-0.520178	0.134611
O262	O	1.318558	-0.020178	0.634611
C263	C	0.817826	-0.571941	0.194845
C264	C	1.317826	-0.071941	0.694845
H265	H	0.795019	-0.625007	0.174840
H266	H	1.295019	-0.125007	0.674840
H267	H	0.784456	-0.544209	0.242571
H268	H	1.284456	-0.044209	0.742571
H269	H	0.873408	-0.588465	0.215831
H270	H	1.373408	-0.088465	0.715831
O271	O	0.903236	0.190923	-0.179155
O272	O	1.403236	0.690923	0.320845
C273	C	0.950719	0.144641	-0.133578
C274	C	1.450719	0.644641	0.366422
H275	H	0.929205	0.088538	-0.121786
H276	H	1.429205	0.588538	0.378214
H277	H	0.958395	0.175045	-0.078159
H278	H	1.458395	0.675045	0.421841
H279	H	1.002952	0.132917	-0.163932
H280	H	1.502952	0.632917	0.336068
H281	H	0.744080	0.017689	-0.814543
H282	H	1.244080	0.517689	-0.314543
H283	H	0.744046	0.017684	-0.328456
H284	H	1.244046	0.517684	0.171544
O285	O	0.455845	0.239198	0.000136
O286	O	0.955845	0.739198	0.500136
C287	C	0.468461	0.281454	0.064964
C288	C	0.968461	0.781454	0.564964
H289	H	0.493299	0.241413	0.110280
H290	H	0.993299	0.741413	0.610280
H291	H	0.417011	0.311979	0.086729
H292	H	0.917011	0.811979	0.586729
H293	H	0.505274	0.325138	0.050307
H294	H	1.005274	0.825138	0.550307
O295	O	0.737321	0.010569	-0.179336
O296	O	1.237321	0.510569	0.320664
C297	C	0.666791	0.031726	-0.198630
C298	C	1.166791	0.531726	0.301370
H299	H	0.659977	0.092782	-0.220290
H300	H	1.159977	0.592782	0.279710
H301	H	0.632621	0.027413	-0.146821
H302	H	1.132621	0.527413	0.353179
H303	H	0.650743	-0.007907	-0.244379
H304	H	1.150743	0.492093	0.255621
O305	O	0.009024	0.232098	0.000042
O306	O	0.509024	0.732098	0.500042
C307	C	0.049121	0.293737	0.000016
C308	C	0.549121	0.793737	0.500016
H309	H	0.103231	0.274342	0.023714
H310	H	0.603231	0.774342	0.523714
H311	H	0.022325	0.341650	0.036360
H312	H	0.522325	0.841650	0.536360
H313	H	0.054232	0.315063	-0.060045
H314	H	0.554232	0.815063	0.439955
H315	H	0.147369	0.223384	0.000001
H316	H	0.647369	0.723384	0.500001
H317	H	0.624739	-0.019758	0.000017
H318	H	1.124739	0.480242	0.500017
O319	O	0.598669	0.241445	0.000146
O320	O	1.098669	0.741445	0.500146
C321	C	0.640089	0.246240	0.064979
C322	C	1.140089	0.746240	0.564979
H323	H	0.623030	0.206744	0.110291
H324	H	1.123030	0.706744	0.610291
H325	H	0.633478	0.307260	0.086746
H326	H	1.133478	0.807260	0.586746
H327	H	0.697252	0.228595	0.050326
H328	H	1.197252	0.728595	0.550326
