data_functionalizedCrystal
_audit_creation_method	'MofGen! by Chris Wilmer'
_symmetry_space_group_name_H-M	'P1'
_symmetry_Int_Tables_number	1
_symmetry_cell_setting	triclinic
loop_
_symmetry_equiv_pos_as_xyz
  x,y,z
_cell_length_a	10.967874
_cell_length_b	11.026607
_cell_length_c	9.798715
_cell_angle_alpha	89.998891
_cell_angle_beta	77.867610
_cell_angle_gamma	96.380181
loop_
_atom_site_label
_atom_site_type_symbol
_atom_site_fract_x
_atom_site_fract_y
_atom_site_fract_z
O1	O	1.694011	0.170514	-0.511882
O2	O	1.334377	0.186837	-0.427306
O3	O	1.484388	0.001775	-0.462579
O4	O	1.544000	0.355577	-0.476608
O5	O	1.484374	0.001774	-0.235594
O6	O	1.334363	0.186837	-0.200320
O7	O	1.693996	0.170514	-0.284896
Zn8	Zn	1.514177	0.178675	-0.206569
Zn9	Zn	1.514196	0.178676	-0.505633
O10	O	1.543986	0.355576	-0.249623
C11	C	1.287614	0.185649	-0.302817
C12	C	1.148291	0.182096	-0.270053
C13	C	1.086184	0.180512	-0.373030
C14	C	0.942187	0.176839	-0.339169
C15	C	1.473383	-0.043528	-0.346502
C16	C	1.440600	-0.178515	-0.338797
C17	C	1.531121	-0.251567	-0.360087
C18	C	1.497240	-0.391084	-0.352124
C19	C	1.740760	0.171702	-0.409388
C20	C	1.880083	0.175255	-0.442161
C21	C	1.554990	0.400879	-0.365703
C22	C	1.587774	0.535866	-0.373417
N23	N	1.514174	0.178674	-0.002469
N24	N	1.514208	0.178667	-0.709735
C25	C	1.577085	0.100629	0.050515
C26	C	1.577104	0.100625	0.207674
H27	H	1.094858	0.180740	-0.156821
C28	C	0.911235	0.071961	-0.660365
C29	C	0.952194	0.177094	-0.595035
H30	H	0.955749	0.073102	-0.754743
H31	H	0.926252	0.001747	-0.613026
H32	H	0.823925	0.069745	-0.657651
H33	H	1.039502	0.179305	-0.597740
H34	H	0.937186	0.247327	-0.642388
C35	C	0.892219	0.071474	-0.116535
C36	C	0.870077	0.174999	-0.186295
H37	H	0.847706	0.070344	-0.022157
H38	H	0.864438	0.000169	-0.160869
H39	H	0.979531	0.073713	-0.119251
H40	H	0.782765	0.172755	-0.183588
H41	H	0.897851	0.246322	-0.141948
C42	C	1.277752	-0.305622	-0.417188
C43	C	1.302114	-0.233508	-0.306233
H44	H	1.192256	-0.339575	-0.397078
H45	H	1.294304	-0.256685	-0.500216
H46	H	1.330162	-0.369527	-0.429502
H47	H	1.249710	-0.169598	-0.293926
H48	H	1.285549	-0.282448	-0.223181
C49	C	1.785880	-0.447923	-0.536690
C50	C	1.726268	-0.409152	-0.405986
H51	H	1.871377	-0.413973	-0.556797
H52	H	1.781276	-0.534456	-0.535597
H53	H	1.745425	-0.421615	-0.606320
H54	H	1.766718	-0.435469	-0.336354
H55	H	1.730880	-0.322601	-0.407068
C56	C	1.676366	-0.069010	-0.394230
C57	C	1.669607	-0.196576	-0.392648
H58	H	1.761864	-0.035067	-0.414323
H59	H	1.635930	-0.042720	-0.463871
H60	H	1.635902	-0.042731	-0.305556
H61	H	1.710063	-0.222856	-0.481325
H62	H	1.710060	-0.222877	-0.323003
C63	C	1.334385	-0.518185	-0.430514
C64	C	1.358747	-0.446071	-0.319558
H65	H	1.248889	-0.552138	-0.410403
H66	H	1.350937	-0.469248	-0.513542
H67	H	1.386795	-0.582090	-0.442827
H68	H	1.306343	-0.382161	-0.307251
H69	H	1.342182	-0.495011	-0.236507
C70	C	1.707968	-0.061745	0.162820
C71	C	1.649817	0.010415	0.269247
H72	H	1.752863	-0.117434	0.200836
H73	H	1.646026	-0.105827	0.121670
H74	H	1.764469	-0.010909	0.093786
H75	H	1.593308	-0.040421	0.338277
H76	H	1.711766	0.054500	0.310419
C77	C	1.524799	0.343784	0.126931
C78	C	1.441493	0.268879	0.228698
H79	H	1.479904	0.399471	0.088911
H80	H	1.586726	0.387867	0.168102
H81	H	1.564249	0.294809	0.054750
H82	H	1.402049	0.317853	0.300885
H83	H	1.379544	0.224792	0.187527
C84	C	1.286994	0.185627	-0.529850
C85	C	1.158304	0.182347	-0.525895
H86	H	1.331512	0.186752	-0.624225
H87	H	1.314758	0.256944	-0.485524
H88	H	1.301987	0.115395	-0.482500
H89	H	1.143309	0.252584	-0.573236
H90	H	1.130531	0.111023	-0.570240
H91	H	1.630927	0.033809	-0.020468
H92	H	1.460321	0.245484	0.068519
