data_functionalizedCrystal
_audit_creation_method	'MofGen! by Chris Wilmer'
_symmetry_space_group_name_H-M	'P1'
_symmetry_Int_Tables_number	1
_symmetry_cell_setting	triclinic
loop_
_symmetry_equiv_pos_as_xyz
  x,y,z
_cell_length_a	10.686220
_cell_length_b	18.050589
_cell_length_c	10.686551
_cell_angle_alpha	94.403861
_cell_angle_beta	89.691918
_cell_angle_gamma	94.409750
loop_
_atom_site_label
_atom_site_type_symbol
_atom_site_fract_x
_atom_site_fract_y
_atom_site_fract_z
Zn1	Zn	1.972217	-0.181059	0.562396
Zn2	Zn	1.955936	-0.315479	0.352644
Zn3	Zn	1.746328	-0.200057	0.368714
Zn4	Zn	1.762366	-0.313974	0.578422
O5	O	1.859212	-0.252642	0.465544
O6	O	2.145602	-0.191569	0.521139
O7	O	1.914605	-0.308749	0.179231
O8	O	1.776395	-0.093607	0.394425
O9	O	2.133640	-0.290327	0.367036
O10	O	1.942354	-0.079649	0.536722
O11	O	1.760607	-0.223949	0.191038
O12	O	1.572911	-0.222489	0.409965
O13	O	1.803729	-0.287762	0.751841
O14	O	1.584694	-0.306184	0.564036
O15	O	1.957906	-0.190110	0.740067
O16	O	1.930156	-0.419209	0.382576
O17	O	1.787942	-0.418104	0.548454
C18	C	1.533286	-0.266235	0.490484
C19	C	1.393856	-0.272067	0.501183
C20	C	1.859059	-0.445602	0.465535
C21	C	1.859111	-0.528144	0.465564
C22	C	1.781855	-0.727018	0.555733
C23	C	1.742482	-0.783311	0.443604
C24	C	1.859236	-0.679268	0.465571
C25	C	1.898671	-0.770054	0.577708
C26	C	1.859354	-0.825247	0.465588
C27	C	1.819798	-0.734480	0.353387
C28	C	1.976046	-0.721212	0.487563
C29	C	1.936711	-0.777484	0.375352
C30	C	1.859164	-0.595174	0.465563
C31	C	1.859425	-0.909341	0.465583
C32	C	2.186411	-0.238997	0.440508
C33	C	2.325843	-0.233182	0.429838
C34	C	1.884423	-0.236649	0.792743
C35	C	1.895166	-0.229833	0.932176
C36	C	1.859402	-0.058926	0.465578
C37	C	1.859483	0.023624	0.465593
C38	C	1.834171	-0.268517	0.139612
C39	C	1.823671	-0.275113	0.000161
H40	H	1.345409	-0.309826	0.570447
C41	C	1.943003	-0.791347	0.704078
C42	C	1.943529	-0.868972	0.702053
C43	C	1.984333	-0.888613	0.818449
H44	H	2.025432	-0.769266	0.720430
H45	H	1.887875	-0.774105	0.768060
H46	H	1.998656	-0.886206	0.638090
H47	H	1.861113	-0.891072	0.685722
H48	H	1.929204	-0.871371	0.882432
H49	H	2.066760	-0.866527	0.834792
H50	H	1.984684	-0.941283	0.817095
C51	C	1.774993	-0.713438	0.227032
C52	C	1.667089	-0.674474	0.244122
C53	C	1.625766	-0.655087	0.127756
H54	H	1.838982	-0.682816	0.189998
H55	H	1.756146	-0.757346	0.173540
H56	H	1.685941	-0.630573	0.297594
H57	H	1.603075	-0.705082	0.281136
H58	H	1.606918	-0.698994	0.074264
H59	H	1.689762	-0.624467	0.090732
H60	H	1.552542	-0.628654	0.139335
C61	C	1.390579	-0.182956	0.337393
C62	C	1.459585	-0.225758	0.251189
C63	C	1.519258	-0.179514	0.166019
H64	H	1.329353	-0.159326	0.293937
H65	H	1.445497	-0.146188	0.381557
H66	H	1.404672	-0.262512	0.207030
H67	H	1.520832	-0.249388	0.294609
H68	H	1.574177	-0.142746	0.210183
H69	H	1.458024	-0.155886	0.122572
H70	H	1.566095	-0.208547	0.107527
C71	C	1.694247	-0.697556	0.657127
C72	C	1.572133	-0.729243	0.633503
C73	C	1.491391	-0.702112	0.726864
H74	H	1.721241	-0.710320	0.736696
H75	H	1.695302	-0.644890	0.656895
H76	H	1.571082	-0.781898	0.633748
H77	H	1.545100	-0.716482	0.553951
H78	H	1.492446	-0.649445	0.726632
H79	H	1.518396	-0.714877	0.806428
H80	H	1.408525	-0.723602	0.710842
H81	H	1.643756	-0.810397	0.425021
H82	H	1.964605	-0.185853	0.980647
C83	C	2.023845	-0.806811	0.273407
C84	C	1.982059	-0.788905	0.156301
C85	C	2.062279	-0.815918	0.062356
H86	H	2.106520	-0.784705	0.288177
H87	H	2.023914	-0.859396	0.274335
H88	H	1.982004	-0.736330	0.155375
H89	H	1.899395	-0.811010	0.141490
H90	H	2.062347	-0.868503	0.063285
H91	H	2.144949	-0.793810	0.077139
H92	H	2.033932	-0.803779	-0.017111
H93	H	2.074755	-0.694126	0.506203
H94	H	1.754245	-0.319095	0.951696
