data_functionalizedCrystal
_audit_creation_method	'MofGen! by Chris Wilmer'
_symmetry_space_group_name_H-M	'P1'
_symmetry_Int_Tables_number	1
_symmetry_cell_setting	triclinic
loop_
_symmetry_equiv_pos_as_xyz
  x,y,z
_cell_length_a	27.731993
_cell_length_b	26.210047
_cell_length_c	16.992695
_cell_angle_alpha	89.995910
_cell_angle_beta	93.355692
_cell_angle_gamma	90.004884
loop_
_atom_site_label
_atom_site_type_symbol
_atom_site_fract_x
_atom_site_fract_y
_atom_site_fract_z
O1	O	0.644976	0.042292	-0.093047
O2	O	0.894976	0.292292	0.156953
O3	O	1.144976	0.542292	0.406953
O4	O	1.394976	0.792292	0.656953
O5	O	0.504794	0.042323	-0.107271
O6	O	0.754794	0.292323	0.142729
O7	O	1.004794	0.542323	0.392729
O8	O	1.254794	0.792323	0.642729
O9	O	0.574323	0.042303	0.013977
O10	O	0.824323	0.292303	0.263977
O11	O	1.074323	0.542303	0.513977
O12	O	1.324323	0.792303	0.763977
O13	O	0.575447	0.042311	-0.214294
O14	O	0.825447	0.292311	0.035706
O15	O	1.075447	0.542311	0.285706
O16	O	1.325447	0.792311	0.535706
O17	O	0.574299	-0.042555	0.013977
O18	O	0.824299	0.207445	0.263977
O19	O	1.074299	0.457445	0.513977
O20	O	1.324299	0.707445	0.763977
O21	O	0.504770	-0.042535	-0.107271
O22	O	0.754770	0.207465	0.142729
O23	O	1.004770	0.457465	0.392729
O24	O	1.254770	0.707465	0.642729
O25	O	0.644953	-0.042566	-0.093047
O26	O	0.894953	0.207434	0.156953
O27	O	1.144953	0.457434	0.406953
O28	O	1.394953	0.707434	0.656953
Cu29	Cu	0.574859	-0.050299	-0.100159
Cu30	Cu	0.824859	0.199701	0.149841
Cu31	Cu	1.074859	0.449701	0.399841
Cu32	Cu	1.324859	0.699701	0.649841
Cu33	Cu	0.574887	0.050055	-0.100159
Cu34	Cu	0.824887	0.300055	0.149841
Cu35	Cu	1.074887	0.550055	0.399841
Cu36	Cu	1.324887	0.800055	0.649841
O37	O	0.575423	-0.042547	-0.214295
O38	O	0.825423	0.207453	0.035705
O39	O	1.075423	0.457453	0.285705
O40	O	1.325423	0.707453	0.535705
C41	C	0.486762	-0.000102	-0.106979
C42	C	0.736762	0.249898	0.143021
C43	C	0.986762	0.499898	0.393021
C44	C	1.236762	0.749898	0.643021
C45	C	0.433068	-0.000091	-0.106100
C46	C	0.683068	0.249909	0.143900
C47	C	0.933068	0.499909	0.393900
C48	C	1.183068	0.749909	0.643900
N49	N	0.574843	-0.120883	-0.100158
N50	N	0.824843	0.129117	0.149842
N51	N	1.074843	0.379117	0.399842
N52	N	1.324843	0.629117	0.649842
C53	C	0.049645	0.046141	-0.099727
C54	C	0.299645	0.296141	0.150273
C55	C	0.549645	0.546141	0.400273
C56	C	0.799645	0.796141	0.650273
C57	C	0.251447	0.046155	-0.103078
C58	C	0.501447	0.296155	0.146922
C59	C	0.751447	0.546155	0.396922
C60	C	1.001447	0.796155	0.646922
O61	O	0.277548	0.085495	-0.103480
O62	O	0.527548	0.335495	0.146520
O63	O	0.777548	0.585495	0.396520
O64	O	1.027548	0.835495	0.646520
N65	N	0.276673	-0.000101	-0.103497
N66	N	0.526673	0.249899	0.146503
N67	N	0.776673	0.499899	0.396503
N68	N	1.026673	0.749899	0.646503
C69	C	0.251445	-0.046362	-0.103074
C70	C	0.501445	0.203638	0.146926
C71	C	0.751445	0.453638	0.396926
C72	C	1.001445	0.703638	0.646926
O73	O	0.277532	-0.085705	-0.103499
O74	O	0.527532	0.164295	0.146501
O75	O	0.777532	0.414295	0.396501
O76	O	1.027532	0.664295	0.646501
C77	C	0.049644	-0.046376	-0.099717
C78	C	0.299644	0.203624	0.150283
C79	C	0.549644	0.453624	0.400283
C80	C	0.799644	0.703624	0.650283
C81	C	0.024420	-0.000118	-0.099306
C82	C	0.274420	0.249882	0.150694
C83	C	0.524420	0.499882	0.400694
C84	C	0.774420	0.749882	0.650694
C85	C	0.024421	0.092395	-0.099315
C86	C	0.274421	0.342395	0.150685
C87	C	0.524421	0.592395	0.400685
C88	C	0.774421	0.842395	0.650685
C89	C	-0.026026	0.092391	-0.098481
C90	C	0.223974	0.342391	0.151519
C91	C	0.473974	0.592391	0.401519
C92	C	0.723974	0.842391	0.651519
C93	C	-0.051251	0.046133	-0.098060
C94	C	0.198749	0.296133	0.151940
C95	C	0.448749	0.546133	0.401940
C96	C	0.698749	0.796133	0.651940
C97	C	-0.026027	-0.000122	-0.098472
C98	C	0.223973	0.249878	0.151528
C99	C	0.473973	0.499878	0.401528
C100	C	0.723973	0.749878	0.651528
C101	C	0.024417	-0.092637	-0.099288
C102	C	0.274417	0.157363	0.150712
C103	C	0.524417	0.407363	0.400712
C104	C	0.774417	0.657363	0.650712
C105	C	-0.026036	-0.092636	-0.098446
C106	C	0.223964	0.157364	0.151554
C107	C	0.473964	0.407364	0.401554
C108	C	0.723964	0.657364	0.651554
C109	C	-0.051260	-0.046378	-0.098035
C110	C	0.198740	0.203622	0.151965
C111	C	0.448740	0.453622	0.401965
C112	C	0.698740	0.703622	0.651965
C113	C	-0.101699	-0.046384	-0.097217
C114	C	0.148301	0.203616	0.152783
C115	C	0.398301	0.453616	0.402783
C116	C	0.648301	0.703616	0.652783
N117	N	-0.126925	-0.000129	-0.096798
N118	N	0.123075	0.249871	0.153202
N119	N	0.373075	0.499871	0.403202
N120	N	0.623075	0.749871	0.653202
C121	C	-0.101701	0.046129	-0.097219
C122	C	0.148299	0.296129	0.152781
C123	C	0.398299	0.546129	0.402781
C124	C	0.648299	0.796129	0.652781
C125	C	0.357393	-0.046352	-0.104838
C126	C	0.607393	0.203648	0.145162
C127	C	0.857393	0.453648	0.395162
C128	C	1.107393	0.703648	0.645162
C129	C	0.407843	-0.046349	-0.105678
C130	C	0.657843	0.203651	0.144322
C131	C	0.907843	0.453651	0.394322
C132	C	1.157843	0.703651	0.644322
C133	C	0.407842	0.046168	-0.105681
C134	C	0.657842	0.296168	0.144319
C135	C	0.907842	0.546168	0.394319
C136	C	1.157842	0.796168	0.644319
C137	C	0.357391	0.046165	-0.104846
C138	C	0.607391	0.296165	0.145154
C139	C	0.857391	0.546165	0.395154
C140	C	1.107391	0.796165	0.645154
C141	C	0.332168	-0.000097	-0.104418
C142	C	0.582168	0.249903	0.145582
C143	C	0.832168	0.499903	0.395582
C144	C	1.082168	0.749903	0.645582
C145	C	-0.207645	0.046118	-0.095470
C146	C	0.042355	0.296118	0.154530
C147	C	0.292355	0.546118	0.404530
C148	C	0.542355	0.796118	0.654530
C149	C	-0.258097	0.046110	-0.094639
C150	C	-0.008097	0.296110	0.155361
C151	C	0.241903	0.546110	0.405361
C152	C	0.491903	0.796110	0.655361
C153	C	-0.258091	-0.046407	-0.094632
C154	C	-0.008091	0.203593	0.155368
C155	C	0.241909	0.453593	0.405368
C156	C	0.491909	0.703593	0.655368
C157	C	-0.207643	-0.046399	-0.095467
C158	C	0.042357	0.203601	0.154533
C159	C	0.292357	0.453601	0.404533
C160	C	0.542357	0.703601	0.654533
C161	C	-0.182421	-0.000133	-0.095883
C162	C	0.067579	0.249867	0.154117
C163	C	0.317579	0.499867	0.404117
C164	C	0.567579	0.749867	0.654117
O165	O	-0.127832	-0.085703	-0.096806
O166	O	0.122168	0.164297	0.153194
O167	O	0.372168	0.414297	0.403194
O168	O	0.622168	0.664297	0.653194
O169	O	-0.127796	0.085466	-0.096776
O170	O	0.122204	0.335466	0.153224
O171	O	0.372204	0.585466	0.403224
O172	O	0.622204	0.835466	0.653224
C173	C	0.100092	0.046145	-0.100560
C174	C	0.350092	0.296145	0.149440
C175	C	0.600092	0.546145	0.399440
C176	C	0.850092	0.796145	0.649440
C177	C	0.125316	-0.000110	-0.100972
C178	C	0.375316	0.249890	0.149028
C179	C	0.625316	0.499890	0.399028
C180	C	0.875316	0.749890	0.649028
C181	C	0.100091	-0.046368	-0.100551
C182	C	0.350091	0.203632	0.149449
C183	C	0.600091	0.453632	0.399449
C184	C	0.850091	0.703632	0.649449
C185	C	0.175766	-0.000107	-0.101813
C186	C	0.425766	0.249893	0.148187
C187	C	0.675766	0.499893	0.398187
C188	C	0.925766	0.749893	0.648187
C189	C	0.200990	0.046152	-0.102234
C190	C	0.450990	0.296152	0.147766
C191	C	0.700990	0.546152	0.397766
C192	C	0.950990	0.796152	0.647766
C193	C	0.175765	0.092407	-0.101815
C194	C	0.425765	0.342407	0.148185
C195	C	0.675765	0.592407	0.398185
C196	C	0.925765	0.842407	0.648185
C197	C	0.125317	0.092403	-0.100982
C198	C	0.375317	0.342403	0.149018
C199	C	0.625317	0.592403	0.399018
C200	C	0.875317	0.842403	0.649018
C201	C	0.125317	-0.092623	-0.100971
C202	C	0.375317	0.157377	0.149029
C203	C	0.625317	0.407377	0.399029
C204	C	0.875317	0.657377	0.649029
C205	C	0.175765	-0.092615	-0.101805
C206	C	0.425765	0.157385	0.148195
C207	C	0.675765	0.407385	0.398195
C208	C	0.925765	0.657385	0.648195
C209	C	0.200989	-0.046357	-0.102226
C210	C	0.450989	0.203643	0.147774
C211	C	0.700989	0.453643	0.397774
C212	C	0.950989	0.703643	0.647774
C213	C	0.606020	-0.473402	-0.147347
C214	C	0.856020	-0.223402	0.102653
C215	C	1.106020	0.026598	0.352653
C216	C	1.356020	0.276598	0.602653
C217	C	0.606034	-0.687061	-0.147346
C218	C	0.856034	-0.437061	0.102654
C219	C	1.106034	-0.187061	0.352654
C220	C	1.356034	0.062939	0.602654
O221	O	0.632530	-0.714687	-0.187459
O222	O	0.882530	-0.464687	0.062541
O223	O	1.132530	-0.214687	0.312541
O224	O	1.382530	0.035313	0.562541
N225	N	0.574898	-0.713777	-0.100151
N226	N	0.824898	-0.463777	0.149849
N227	N	1.074898	-0.213777	0.399849
N228	N	1.324898	0.036223	0.649849
C229	C	0.543758	-0.687075	-0.052948
C230	C	0.793758	-0.437075	0.197052
C231	C	1.043758	-0.187075	0.447052
C232	C	1.293758	0.062925	0.697052
O233	O	0.517279	-0.714701	-0.012800
O234	O	0.767279	-0.464701	0.237200
O235	O	1.017279	-0.214701	0.487200
O236	O	1.267279	0.035299	0.737200
C237	C	0.543747	-0.473417	-0.052945
C238	C	0.793747	-0.223417	0.197055
C239	C	1.043747	0.026583	0.447055
C240	C	1.293747	0.276583	0.697055
C241	C	0.574882	-0.446704	-0.100150
C242	C	0.824882	-0.196704	0.149850
C243	C	1.074882	0.053296	0.399850
C244	C	1.324882	0.303296	0.649850
C245	C	0.637153	-0.446689	-0.194547
C246	C	0.887153	-0.196689	0.055453
C247	C	1.137153	0.053311	0.305453
C248	C	1.387153	0.303311	0.555453
C249	C	0.637147	-0.393277	-0.194550
C250	C	0.887147	-0.143277	0.055450
C251	C	1.137147	0.106723	0.305450
C252	C	1.387147	0.356723	0.555450
C253	C	0.606008	-0.366579	-0.147353
C254	C	0.856008	-0.116579	0.102647
C255	C	1.106008	0.133421	0.352647
C256	C	1.356008	0.383421	0.602647
C257	C	0.574876	-0.393293	-0.100153
C258	C	0.824876	-0.143293	0.149847
C259	C	1.074876	0.106707	0.399847
C260	C	1.324876	0.356707	0.649847
C261	C	0.512610	-0.446717	-0.005739
C262	C	0.762610	-0.196717	0.244261
C263	C	1.012610	0.053283	0.494261
C264	C	1.262610	0.303283	0.744261
C265	C	0.512611	-0.393299	-0.005741
C266	C	0.762611	-0.143299	0.244259
C267	C	1.012611	0.106701	0.494259
C268	C	1.262611	0.356701	0.744259
C269	C	0.543746	-0.366586	-0.052946
C270	C	0.793746	-0.116586	0.197054
C271	C	1.043746	0.133414	0.447054
C272	C	1.293746	0.383414	0.697054
C273	C	0.543732	-0.313183	-0.052959
C274	C	0.793732	-0.063183	0.197041
C275	C	1.043732	0.186817	0.447041
C276	C	1.293732	0.436817	0.697041
N277	N	0.574868	-0.286467	-0.100154
N278	N	0.824868	-0.036467	0.149846
N279	N	1.074868	0.213533	0.399846
N280	N	1.324868	0.463533	0.649846
C281	C	0.606006	-0.313165	-0.147351
C282	C	0.856006	-0.063165	0.102649
C283	C	1.106006	0.186835	0.352649
C284	C	1.356006	0.436835	0.602649
C285	C	0.543766	-0.799248	-0.052954
C286	C	0.793766	-0.549248	0.197046
C287	C	1.043766	-0.299248	0.447046
C288	C	1.293766	-0.049248	0.697046
C289	C	0.543768	-0.852663	-0.052956
C290	C	0.793768	-0.602663	0.197044
C291	C	1.043768	-0.352663	0.447044
C292	C	1.293768	-0.102663	0.697044
C293	C	0.606045	-0.852645	-0.147353
C294	C	0.856045	-0.602645	0.102647
C295	C	1.106045	-0.352645	0.352647
C296	C	1.356045	-0.102645	0.602647
C297	C	0.606040	-0.799230	-0.147355
C298	C	0.856040	-0.549230	0.102645
C299	C	1.106040	-0.299230	0.352645
C300	C	1.356040	-0.049230	0.602645
C301	C	0.574902	-0.772532	-0.100150
C302	C	0.824902	-0.522532	0.149850
C303	C	1.074902	-0.272532	0.399850
C304	C	1.324902	-0.022532	0.649850
C305	C	0.605992	-0.200997	-0.147354
C306	C	0.855992	0.049003	0.102646
C307	C	1.105992	0.299003	0.352646
C308	C	1.355992	0.549003	0.602646
C309	C	0.605982	-0.147581	-0.147355
C310	C	0.855982	0.102419	0.102645
C311	C	1.105982	0.352419	0.352645
C312	C	1.355982	0.602419	0.602645
C313	C	0.543707	-0.147604	-0.052956
C314	C	0.793707	0.102396	0.197044
C315	C	1.043707	0.352396	0.447044
C316	C	1.293707	0.602396	0.697044
C317	C	0.543715	-0.201015	-0.052957
C318	C	0.793715	0.048985	0.197043
C319	C	1.043715	0.298985	0.447043
C320	C	1.293715	0.548985	0.697043
C321	C	0.574861	-0.227711	-0.100159
C322	C	0.824861	0.022289	0.149841
C323	C	1.074861	0.272289	0.399841
C324	C	1.324861	0.522289	0.649841
O325	O	0.517254	-0.285524	-0.012860
O326	O	0.767254	-0.035524	0.237140
O327	O	1.017254	0.214476	0.487140
O328	O	1.267254	0.464476	0.737140
O329	O	0.632489	-0.285530	-0.187481
O330	O	0.882489	-0.035530	0.062519
O331	O	1.132489	0.214470	0.312519
O332	O	1.382489	0.464470	0.562519
C333	C	0.606026	-0.526814	-0.147344
C334	C	0.856026	-0.276814	0.102656
C335	C	1.106026	-0.026814	0.352656
C336	C	1.356026	0.223186	0.602656
C337	C	0.574893	-0.553527	-0.100144
C338	C	0.824893	-0.303527	0.149856
C339	C	1.074893	-0.053527	0.399856
C340	C	1.324893	0.196473	0.649856
C341	C	0.543755	-0.526829	-0.052947
C342	C	0.793755	-0.276829	0.197053
C343	C	1.043755	-0.026829	0.447053
C344	C	1.293755	0.223171	0.697053
C345	C	0.574895	-0.606941	-0.100146
C346	C	0.824895	-0.356941	0.149854
C347	C	1.074895	-0.106941	0.399854
C348	C	1.324895	0.143059	0.649854
C349	C	0.606034	-0.633639	-0.147343
C350	C	0.856034	-0.383639	0.102657
C351	C	1.106034	-0.133639	0.352657
C352	C	1.356034	0.116361	0.602657
C353	C	0.637170	-0.606923	-0.194538
C354	C	0.887170	-0.356923	0.055462
C355	C	1.137170	-0.106923	0.305462
C356	C	1.387170	0.143077	0.555462
C357	C	0.637164	-0.553512	-0.194541
C358	C	0.887164	-0.303512	0.055459
C359	C	1.137164	-0.053512	0.305459
C360	C	1.387164	0.196488	0.555459
C361	C	0.512619	-0.553545	-0.005752
C362	C	0.762619	-0.303545	0.244248
C363	C	1.012619	-0.053545	0.494248
C364	C	1.262619	0.196455	0.744248
C365	C	0.512627	-0.606957	-0.005753
C366	C	0.762627	-0.356957	0.244247
C367	C	1.012627	-0.106957	0.494247
C368	C	1.262627	0.143043	0.744247
C369	C	0.543765	-0.633655	-0.052950
C370	C	0.793765	-0.383655	0.197050
C371	C	1.043765	-0.133655	0.447050
C372	C	1.293765	0.116345	0.697050
C373	C	0.662984	-0.000140	-0.093339
C374	C	0.912984	0.249860	0.156661
C375	C	1.162984	0.499860	0.406661
C376	C	1.412984	0.749860	0.656661
C377	C	0.716679	-0.000149	-0.094218
C378	C	0.966679	0.249851	0.155782
C379	C	1.216679	0.499851	0.405782
C380	C	1.466679	0.749851	0.655782
C381	C	0.572865	-0.000125	0.043171
C382	C	0.822865	0.249875	0.293171
C383	C	1.072865	0.499875	0.543171
C384	C	1.322865	0.749875	0.793171
C385	C	0.568551	-0.000124	0.130162
C386	C	0.818551	0.249876	0.380162
C387	C	1.068551	0.499876	0.630162
C388	C	1.318551	0.749876	0.880162
N389	N	0.574906	0.120639	-0.100153
N390	N	0.824906	0.370639	0.149847
N391	N	1.074906	0.620639	0.399847
N392	N	1.324906	0.870639	0.649847
C393	C	0.576881	-0.000117	-0.243489
C394	C	0.826881	0.249883	0.006511
C395	C	1.076881	0.499883	0.256511
C396	C	1.326881	0.749883	0.506511
C397	C	0.581195	-0.000115	-0.330480
C398	C	0.831195	0.249885	-0.080480
C399	C	1.081195	0.499885	0.169520
C400	C	1.331195	0.749885	0.419520
C401	C	0.610175	-0.000134	0.180920
C402	C	0.860175	0.249866	0.430920
C403	C	1.110175	0.499866	0.680920
C404	C	1.360175	0.749866	0.930920
C405	C	0.606119	-0.000128	0.262656
C406	C	0.856119	0.249872	0.512656
C407	C	1.106119	0.499872	0.762656
C408	C	1.356119	0.749872	1.012656
C409	C	0.560438	-0.000116	0.293633
C410	C	0.810438	0.249884	0.543633
C411	C	1.060438	0.499884	0.793633
C412	C	1.310438	0.749884	1.043633
C413	C	0.518811	-0.000105	0.242868
C414	C	0.768811	0.249895	0.492868
C415	C	1.018811	0.499895	0.742868
C416	C	1.268811	0.749895	0.992868
C417	C	0.522868	-0.000107	0.161134
C418	C	0.772868	0.249893	0.411134
C419	C	1.022868	0.499893	0.661134
C420	C	1.272868	0.749893	0.911134
C421	C	0.543625	-0.000106	0.537021
C422	C	0.793625	0.249894	0.787021
C423	C	1.043625	0.499894	1.037021
C424	C	1.293625	0.749894	1.287021
C425	C	0.539571	-0.000105	0.618762
C426	C	0.789571	0.249895	0.868762
C427	C	1.039571	0.499895	1.118762
C428	C	1.289571	0.749895	1.368762
C429	C	0.626879	-0.000127	0.638545
C430	C	0.876879	0.249873	0.888545
C431	C	1.126879	0.499873	1.138545
C432	C	1.376879	0.749873	1.388545
C433	C	0.630932	-0.000133	0.556808
C434	C	0.880932	0.249867	0.806808
C435	C	1.130932	0.499867	1.056808
C436	C	1.380932	0.749867	1.306808
C437	C	0.589305	-0.000119	0.506050
C438	C	0.839305	0.249881	0.756050
C439	C	1.089305	0.499881	1.006050
C440	C	1.339305	0.749881	1.256050
N441	N	0.556291	-0.000112	0.377180
N442	N	0.806291	0.249888	0.627180
N443	N	1.056291	0.499888	0.877180
N444	N	1.306291	0.749888	1.127180
N445	N	0.593453	-0.000119	0.422505
N446	N	0.843453	0.249881	0.672505
N447	N	1.093453	0.499881	0.922505
N448	N	1.343453	0.749881	1.172505
H449	H	-0.187115	0.083792	-0.095809
H450	H	0.062885	0.333792	0.154191
H451	H	0.312885	0.583792	0.404191
H452	H	0.562885	0.833792	0.654191
H453	H	0.647373	-0.000147	0.155706
H454	H	0.897373	0.249853	0.405706
H455	H	1.147373	0.499853	0.655706
H456	H	1.397373	0.749853	0.905706
H457	H	0.518354	-0.125856	-0.014531
H458	H	0.768354	0.124144	0.235469
H459	H	1.018354	0.374144	0.485469
H460	H	1.268354	0.624144	0.735469
H461	H	0.336857	0.083832	-0.104511
H462	H	0.586857	0.333832	0.145489
H463	H	0.836857	0.583832	0.395489
H464	H	1.086857	0.833832	0.645489
H465	H	0.487262	-0.531813	0.032684
H466	H	0.737262	-0.281813	0.282684
H467	H	0.987262	-0.031813	0.532684
H468	H	1.237262	0.218187	0.782684
H469	H	0.104784	0.130071	-0.100647
H470	H	0.354784	0.380071	0.149353
H471	H	0.604784	0.630071	0.399353
H472	H	0.854784	0.880071	0.649353
H473	H	0.502371	-0.000104	0.643980
H474	H	0.752371	0.249896	0.893980
H475	H	1.002371	0.499896	1.143980
H476	H	1.252371	0.749896	1.393980
H477	H	0.640014	-0.000137	0.303981
H478	H	0.890014	0.249863	0.553981
H479	H	1.140014	0.499863	0.803981
H480	H	1.390014	0.749863	1.053981
H481	H	0.518410	-0.874408	-0.014527
H482	H	0.768410	-0.624408	0.235473
H483	H	1.018410	-0.374408	0.485473
H484	H	1.268410	-0.124408	0.735473
H485	H	0.668130	-0.000142	0.531593
H486	H	0.918130	0.249858	0.781593
H487	H	1.168130	0.499858	1.031593
H488	H	1.418130	0.749858	1.281593
O489	O	0.510177	-0.770464	-0.002032
O490	O	0.760177	-0.520464	0.247968
O491	O	1.010177	-0.270464	0.497968
O492	O	1.260177	-0.020464	0.747968
H493	H	0.531710	-0.746134	0.040368
H494	H	0.781710	-0.496134	0.290368
H495	H	1.031710	-0.246134	0.540368
H496	H	1.281710	0.003866	0.790368
H497	H	0.044945	-0.130305	-0.099620
H498	H	0.294945	0.119695	0.150380
H499	H	0.544945	0.369695	0.400380
H500	H	0.794945	0.619695	0.650380
H501	H	0.509729	-0.000094	0.495704
H502	H	0.759729	0.249906	0.745704
H503	H	1.009729	0.499906	0.995704
H504	H	1.259729	0.749906	1.245704
O505	O	0.202975	0.142302	-0.102270
O506	O	0.452975	0.392302	0.147730
O507	O	0.702975	0.642302	0.397730
O508	O	0.952975	0.892302	0.647730
H509	H	0.195537	0.164481	-0.048675
H510	H	0.445537	0.414481	0.201325
H511	H	0.695537	0.664481	0.451325
H512	H	0.945537	0.914481	0.701325
H513	H	0.660769	-0.000138	0.679880
H514	H	0.910769	0.249862	0.929880
H515	H	1.160769	0.499862	1.179880
H516	H	1.410769	0.749862	1.429880
H517	H	0.662517	-0.531767	-0.232980
H518	H	0.912517	-0.281767	0.017020
H519	H	1.162517	-0.031767	0.267020
H520	H	1.412517	0.218233	0.517020
H521	H	0.336861	-0.084026	-0.104487
H522	H	0.586861	0.165974	0.145513
H523	H	0.836861	0.415974	0.395513
H524	H	1.086861	0.665974	0.645513
H525	H	-0.046571	-0.130309	-0.098105
H526	H	0.203429	0.119691	0.151895
H527	H	0.453429	0.369691	0.401895
H528	H	0.703429	0.619691	0.651895
H529	H	0.631397	-0.874391	-0.185786
H530	H	0.881397	-0.624391	0.064214
H531	H	1.131397	-0.374391	0.314214
H532	H	1.381397	-0.124391	0.564214
O533	O	0.098113	-0.142518	-0.100526
O534	O	0.348113	0.107482	0.149474
O535	O	0.598113	0.357482	0.399474
O536	O	0.848113	0.607482	0.649474
H537	H	0.124134	-0.174677	-0.100965
H538	H	0.374134	0.075323	0.149035
H539	H	0.624134	0.325323	0.399035
H540	H	0.874134	0.575323	0.649035
O541	O	0.477972	-0.000102	0.106387
O542	O	0.727972	0.249898	0.356387
O543	O	0.977972	0.499898	0.606387
O544	O	1.227972	0.749898	0.856387
H545	H	0.477738	0.034487	0.068676
H546	H	0.727738	0.284487	0.318676
H547	H	0.977738	0.534487	0.568676
H548	H	1.227738	0.784487	0.818676
H549	H	-0.187106	-0.084067	-0.095817
H550	H	0.062894	0.165933	0.154183
H551	H	0.312894	0.415933	0.404183
H552	H	0.562894	0.665933	0.654183
O553	O	0.469540	-0.000098	0.276272
O554	O	0.719540	0.249902	0.526272
O555	O	0.969540	0.499902	0.776272
O556	O	1.219540	0.749902	1.026272
H557	H	0.473711	-0.000105	0.341635
H558	H	0.723711	0.249895	0.591635
H559	H	0.973711	0.499895	0.841635
H560	H	1.223711	0.749895	1.091635
O561	O	0.479051	-0.475522	0.045213
O562	O	0.729051	-0.225522	0.295213
O563	O	0.979051	0.024478	0.545213
O564	O	1.229051	0.274478	0.795213
H565	H	0.457413	-0.447975	0.078047
H566	H	0.707413	-0.197975	0.328047
H567	H	0.957413	0.052025	0.578047
H568	H	1.207413	0.302025	0.828047
O569	O	0.479035	-0.364490	0.045174
O570	O	0.729035	-0.114490	0.295174
O571	O	0.979035	0.135510	0.545174
O572	O	1.229035	0.385510	0.795174
H573	H	0.441075	-0.374736	0.027688
H574	H	0.691075	-0.124736	0.277688
H575	H	0.941075	0.125264	0.527688
H576	H	1.191075	0.375264	0.777688
O577	O	0.639620	-0.770420	-0.198269
O578	O	0.889620	-0.520420	0.051731
O579	O	1.139620	-0.270420	0.301731
O580	O	1.389620	-0.020420	0.551731
H581	H	0.664136	-0.746080	-0.160403
H582	H	0.914136	-0.496080	0.089597
H583	H	1.164136	-0.246080	0.339597
H584	H	1.414136	0.003920	0.589597
H585	H	-0.046559	0.130059	-0.098143
H586	H	0.203441	0.380059	0.151857
H587	H	0.453441	0.630059	0.401857
H588	H	0.703441	0.880059	0.651857
O589	O	-0.285296	0.096008	-0.094173
O590	O	-0.035296	0.346008	0.155827
O591	O	0.214704	0.596008	0.405827
O592	O	0.464704	0.846008	0.655827
H593	H	-0.277855	0.118199	-0.147761
H594	H	-0.027855	0.368199	0.102239
H595	H	0.222145	0.618199	0.352239
H596	H	0.472145	0.868199	0.602239
O597	O	0.051624	0.142292	-0.099775
O598	O	0.301624	0.392292	0.150225
O599	O	0.551624	0.642292	0.400225
O600	O	0.801624	0.892292	0.650225
H601	H	0.025601	0.174449	-0.099353
H602	H	0.275601	0.424449	0.150647
H603	H	0.525601	0.674449	0.400647
H604	H	0.775601	0.924449	0.650647
H605	H	0.518357	-0.222766	-0.014530
H606	H	0.768357	0.027234	0.235470
H607	H	1.018357	0.277234	0.485470
H608	H	1.268357	0.527234	0.735470
O609	O	0.670761	-0.635723	-0.245437
O610	O	0.920761	-0.385723	0.004563
O611	O	1.170761	-0.135723	0.254563
O612	O	1.420761	0.114277	0.504563
H613	H	0.665534	-0.677352	-0.237491
H614	H	0.915534	-0.427352	0.012509
H615	H	1.165534	-0.177352	0.262509
H616	H	1.415534	0.072648	0.512509
O617	O	0.670741	-0.475476	-0.245461
O618	O	0.920741	-0.225476	0.004539
O619	O	1.170741	0.024524	0.254539
O620	O	1.420741	0.274524	0.504539
H621	H	0.695266	-0.499807	-0.207599
H622	H	0.945266	-0.249807	0.042401
H623	H	1.195266	0.000193	0.292401
H624	H	1.445266	0.250193	0.542401
H625	H	0.428388	0.083834	-0.106027
H626	H	0.678388	0.333834	0.143973
H627	H	0.928388	0.583834	0.393973
H628	H	1.178388	0.833834	0.643973
H629	H	0.196297	-0.130287	-0.102146
H630	H	0.446297	0.119713	0.147854
H631	H	0.696297	0.369713	0.397854
H632	H	0.946297	0.619713	0.647854
H633	H	0.487268	-0.628702	0.032685
H634	H	0.737268	-0.378702	0.282685
H635	H	0.987268	-0.128702	0.532685
H636	H	1.237268	0.121298	0.782685
O637	O	0.639562	-0.118768	-0.198273
O638	O	0.889562	0.131232	0.051727
O639	O	1.139562	0.381232	0.301727
O640	O	1.389562	0.631232	0.551727
H641	H	0.677521	-0.129009	-0.180772
H642	H	0.927521	0.120991	0.069228
H643	H	1.177521	0.370991	0.319228
H644	H	1.427521	0.620991	0.569228
O645	O	0.435046	-0.096241	-0.106148
O646	O	0.685046	0.153759	0.143852
O647	O	0.935046	0.403759	0.393852
O648	O	1.185046	0.653759	0.643852
H649	H	0.409025	-0.128405	-0.105712
H650	H	0.659025	0.121595	0.144288
H651	H	0.909025	0.371595	0.394288
H652	H	1.159025	0.621595	0.644288
H653	H	-0.278638	-0.084069	-0.094293
H654	H	-0.028638	0.165931	0.155707
H655	H	0.221362	0.415931	0.405707
H656	H	0.471362	0.665931	0.655707
H657	H	0.631354	-0.222726	-0.185790
H658	H	0.881354	0.027274	0.064210
H659	H	1.131354	0.277274	0.314210
H660	H	1.381354	0.527274	0.564210
H661	H	0.662502	-0.371532	-0.232985
H662	H	0.912502	-0.121532	0.017015
H663	H	1.162502	0.128468	0.267015
H664	H	1.412502	0.378468	0.517015
