data_functionalizedCrystal
_audit_creation_method	'MofGen! by Chris Wilmer'
_symmetry_space_group_name_H-M	'P1'
_symmetry_Int_Tables_number	1
_symmetry_cell_setting	triclinic
loop_
_symmetry_equiv_pos_as_xyz
  x,y,z
_cell_length_a	9.065215
_cell_length_b	15.995350
_cell_length_c	15.072220
_cell_angle_alpha	89.994173
_cell_angle_beta	89.995699
_cell_angle_gamma	84.253536
loop_
_atom_site_label
_atom_site_type_symbol
_atom_site_fract_x
_atom_site_fract_y
_atom_site_fract_z
O1	O	1.957513	0.122764	-0.073767
O2	O	1.527991	0.132837	-0.073771
O3	O	1.754493	0.006002	-0.073768
O4	O	1.731011	0.249599	-0.073770
O5	O	1.754474	0.005989	0.073797
O6	O	1.527971	0.132825	0.073794
O7	O	1.957494	0.122752	0.073798
Zn8	Zn	1.742729	0.127786	0.097225
Zn9	Zn	1.742755	0.127802	-0.097198
O10	O	1.730991	0.249587	0.073795
C11	C	1.473017	0.131863	0.000011
C12	C	1.309242	0.128970	0.000010
C13	C	1.753513	-0.025207	0.000013
C14	C	1.750602	-0.118179	0.000008
C15	C	1.740150	-0.456006	0.000011
C16	C	1.578839	-0.409794	-0.000322
C17	C	1.581750	-0.313082	0.000011
C18	C	1.745334	-0.288406	0.000009
C19	C	1.824888	-0.328887	0.084275
C20	C	1.820835	-0.425554	0.084345
C21	C	1.824190	-0.425873	-0.083464
C22	C	1.824152	-0.328928	-0.084578
C23	C	1.748273	-0.193686	0.000011
C24	C	1.737216	-0.550726	0.000015
C25	C	2.012467	0.123725	0.000014
C26	C	2.176242	0.126618	0.000010
C27	C	1.731972	0.280795	0.000012
C28	C	1.734882	0.373767	0.000012
N29	N	1.742722	0.127775	0.229914
N30	N	1.742774	0.127807	-0.229887
C31	C	1.742739	0.127786	0.410911
C32	C	1.863965	0.059943	0.448554
C33	C	1.864405	0.060129	0.551380
C34	C	1.742757	0.127796	0.589116
C35	C	1.775740	0.215518	0.551770
C36	C	1.776601	0.215116	0.448912
C37	C	1.588167	0.108692	0.448829
C38	C	1.589213	0.106720	0.551694
C39	C	1.742763	0.127807	0.689829
C40	C	1.742736	0.127781	0.310198
H41	H	1.519215	-0.285129	-0.060394
C42	C	1.661816	0.285473	0.415267
N43	N	1.575368	0.338469	0.389929
H44	H	1.979126	0.072487	0.575981
C45	C	1.750214	-0.291125	0.168994
N46	N	1.693960	-0.262685	0.232803
H47	H	1.514643	-0.429879	0.059769
C48	C	1.837992	-0.028380	0.415157
N49	N	1.818425	-0.094906	0.389997
C50	C	2.018081	0.076421	0.413651
N51	N	2.134162	0.088841	0.387367
H52	H	1.514373	-0.428809	-0.060750
H53	H	1.556314	0.046009	0.422897
H54	H	1.943445	-0.312661	-0.089667
C55	C	1.928871	0.237530	0.416492
N56	N	2.043567	0.254409	0.392077
H57	H	1.939267	-0.456905	0.088167
H58	H	1.518779	-0.285699	0.060518
H59	H	1.689769	0.267284	0.576211
C60	C	1.926270	0.238437	0.586556
N61	N	2.039655	0.255695	0.612755
H62	H	1.564170	0.042181	0.576103
H63	H	1.844858	-0.005030	0.576631
C64	C	1.461698	0.169011	0.586373
N65	N	1.365658	0.215941	0.612486
H66	H	1.945068	-0.313851	0.087407
H67	H	1.497962	0.158149	0.424485
C68	C	1.742427	-0.450880	0.169439
N69	N	1.683362	-0.469951	0.233531
C70	C	1.752946	-0.454150	-0.169748
N71	N	1.699269	-0.475446	-0.234733
C72	C	1.984860	-0.467568	-0.084235
N73	N	2.105871	-0.498977	-0.084811
C74	C	1.745650	-0.292656	-0.168797
N75	N	1.686508	-0.265339	-0.232229
