data_functionalizedCrystal
_audit_creation_method	'MofGen! by Chris Wilmer'
_symmetry_space_group_name_H-M	'P1'
_symmetry_Int_Tables_number	1
_symmetry_cell_setting	triclinic
loop_
_symmetry_equiv_pos_as_xyz
  x,y,z
_cell_length_a	21.295420
_cell_length_b	21.295418
_cell_length_c	21.295411
_cell_angle_alpha	89.972970
_cell_angle_beta	89.983421
_cell_angle_gamma	90.025651
loop_
_atom_site_label
_atom_site_type_symbol
_atom_site_fract_x
_atom_site_fract_y
_atom_site_fract_z
Zn1	Zn	0.962319	-0.250666	-0.355921
Zn2	Zn	1.212319	-0.000666	-0.105921
Zn3	Zn	1.462319	0.249334	0.144079
Zn4	Zn	1.712319	0.499334	0.394079
Zn5	Zn	0.962242	-0.355931	-0.250650
Zn6	Zn	1.212242	-0.105931	-0.000650
Zn7	Zn	1.462242	0.144069	0.249350
Zn8	Zn	1.712242	0.394069	0.499350
Zn9	Zn	0.857057	-0.250677	-0.250666
Zn10	Zn	1.107057	-0.000677	-0.000666
Zn11	Zn	1.357057	0.249323	0.249334
Zn12	Zn	1.607057	0.499323	0.499334
Zn13	Zn	0.857017	-0.355898	-0.355881
Zn14	Zn	1.107017	-0.105898	-0.105881
Zn15	Zn	1.357017	0.144102	0.144119
Zn16	Zn	1.607017	0.394102	0.394119
O17	O	0.909658	-0.303293	-0.303279
O18	O	1.159658	-0.053293	-0.053279
O19	O	1.409658	0.196707	0.196721
O20	O	1.659658	0.446707	0.446721
O21	O	1.050398	-0.264639	-0.341966
O22	O	1.300398	-0.014639	-0.091966
O23	O	1.550398	0.235361	0.158034
O24	O	1.800398	0.485361	0.408034
O25	O	0.948273	-0.341987	-0.162562
O26	O	1.198273	-0.091987	0.087438
O27	O	1.448273	0.158013	0.337438
O28	O	1.698273	0.408013	0.587438
O29	O	0.871069	-0.162586	-0.264652
O30	O	1.121069	0.087414	-0.014652
O31	O	1.371069	0.337414	0.235348
O32	O	1.621069	0.587414	0.485348
O33	O	1.050341	-0.341977	-0.264624
O34	O	1.300341	-0.091977	-0.014624
O35	O	1.550341	0.158023	0.235376
O36	O	1.800341	0.408023	0.485376
O37	O	0.948404	-0.162578	-0.341982
O38	O	1.198404	0.087422	-0.091982
O39	O	1.448404	0.337422	0.158018
O40	O	1.698404	0.587422	0.408018
O41	O	0.870994	-0.264657	-0.162574
O42	O	1.120994	-0.014657	0.087426
O43	O	1.370994	0.235343	0.337426
O44	O	1.620994	0.485343	0.587426
O45	O	0.768962	-0.264625	-0.264613
O46	O	1.018962	-0.014625	-0.014613
O47	O	1.268962	0.235375	0.235387
O48	O	1.518962	0.485375	0.485387
O49	O	0.871001	-0.341921	-0.443976
O50	O	1.121001	-0.091921	-0.193976
O51	O	1.371001	0.158079	0.056024
O52	O	1.621001	0.408079	0.306024
O53	O	0.768933	-0.341931	-0.341914
O54	O	1.018933	-0.091931	-0.091914
O55	O	1.268933	0.158069	0.158086
O56	O	1.518933	0.408069	0.408086
O57	O	0.948366	-0.264608	-0.444005
O58	O	1.198366	-0.014608	-0.194005
O59	O	1.448366	0.235392	0.055995
O60	O	1.698366	0.485392	0.305995
O61	O	0.948234	-0.444016	-0.264585
O62	O	1.198234	-0.194016	-0.014585
O63	O	1.448234	0.055984	0.235415
O64	O	1.698234	0.305984	0.485415
O65	O	0.870926	-0.443992	-0.341898
O66	O	1.120926	-0.193992	-0.091898
O67	O	1.370926	0.056008	0.158102
O68	O	1.620926	0.306008	0.408102
C69	C	0.746107	-0.303276	-0.303261
C70	C	0.996107	-0.053276	-0.053261
C71	C	1.246107	0.196724	0.196739
C72	C	1.496107	0.446724	0.446739
C73	C	0.676139	-0.303284	-0.303268
C74	C	0.926139	-0.053284	-0.053268
C75	C	1.176139	0.196716	0.196732
C76	C	1.426139	0.446716	0.446732
C77	C	0.176682	-0.343620	-0.343491
C78	C	0.426682	-0.093620	-0.093491
C79	C	0.676682	0.156380	0.156509
C80	C	0.926682	0.406380	0.406509
C81	C	0.242425	-0.343621	-0.343484
C82	C	0.492425	-0.093621	-0.093484
C83	C	0.742425	0.156379	0.156516
C84	C	0.992425	0.406379	0.406516
C85	C	0.275299	-0.303307	-0.303299
C86	C	0.525299	-0.053307	-0.053299
C87	C	0.775299	0.196693	0.196701
C88	C	1.025299	0.446693	0.446701
C89	C	0.242426	-0.263002	-0.263106
C90	C	0.492426	-0.013002	-0.013106
C91	C	0.742426	0.236998	0.236894
C92	C	0.992426	0.486998	0.486894
C93	C	0.176685	-0.263008	-0.263109
C94	C	0.426685	-0.013008	-0.013109
C95	C	0.676685	0.236992	0.236891
C96	C	0.926685	0.486992	0.486891
N97	N	0.378538	-0.248191	-0.298565
N98	N	0.628538	0.001809	-0.048565
N99	N	0.878538	0.251809	0.201435
N100	N	1.128538	0.501809	0.451435
N101	N	0.440989	-0.248187	-0.298565
N102	N	0.690989	0.001813	-0.048565
N103	N	0.940989	0.251813	0.201435
N104	N	1.190989	0.501813	0.451435
C105	C	0.473374	-0.303290	-0.303286
C106	C	0.723374	-0.053290	-0.053286
C107	C	0.973374	0.196710	0.196714
C108	C	1.223374	0.446710	0.446714
N109	N	0.440948	-0.358397	-0.308018
N110	N	0.690948	-0.108397	-0.058018
N111	N	0.940948	0.141603	0.191982
N112	N	1.190948	0.391603	0.441982
N113	N	0.378491	-0.358400	-0.308021
N114	N	0.628491	-0.108400	-0.058021
N115	N	0.878491	0.141600	0.191979
N116	N	1.128491	0.391600	0.441979
C117	C	0.346585	-0.303297	-0.303291
C118	C	0.596585	-0.053297	-0.053291
C119	C	0.846585	0.196703	0.196709
C120	C	1.096585	0.446703	0.446709
C121	C	0.577525	-0.343596	-0.343466
C122	C	0.827525	-0.093596	-0.093466
C123	C	1.077525	0.156404	0.156534
C124	C	1.327525	0.406404	0.406534
C125	C	0.643269	-0.343597	-0.343455
C126	C	0.893269	-0.093597	-0.093455
C127	C	1.143269	0.156403	0.156545
C128	C	1.393269	0.406403	0.406545
C129	C	0.643269	-0.262973	-0.263080
C130	C	0.893269	-0.012973	-0.013080
C131	C	1.143269	0.237027	0.236920
C132	C	1.393269	0.487027	0.486920
C133	C	0.577526	-0.262977	-0.263088
C134	C	0.827526	-0.012977	-0.013088
C135	C	1.077526	0.237023	0.236912
C136	C	1.327526	0.487023	0.486912
C137	C	0.544658	-0.303288	-0.303284
C138	C	0.794658	-0.053288	-0.053284
C139	C	1.044658	0.196712	0.196716
C140	C	1.294658	0.446712	0.446716
C141	C	0.909585	-0.466845	-0.303249
C142	C	1.159585	-0.216845	-0.053249
C143	C	1.409585	0.033155	0.196751
C144	C	1.659585	0.283155	0.446751
C145	C	0.909611	-0.536813	-0.303257
C146	C	1.159611	-0.286813	-0.053257
C147	C	1.409611	-0.036813	0.196743
C148	C	1.659611	0.213187	0.446743
C149	C	0.950064	-1.036262	-0.263124
C150	C	1.200064	-0.786262	-0.013124
C151	C	1.450064	-0.536262	0.236876
C152	C	1.700064	-0.286262	0.486876
C153	C	0.950040	-0.970520	-0.263109
C154	C	1.200040	-0.720520	-0.013109
C155	C	1.450040	-0.470520	0.236891
C156	C	1.700040	-0.220520	0.486891
C157	C	0.909747	-0.937652	-0.303323
C158	C	1.159747	-0.687652	-0.053323
C159	C	1.409747	-0.437652	0.196677
C160	C	1.659747	-0.187652	0.446677
C161	C	0.869464	-0.970533	-0.343544
C162	C	1.119464	-0.720533	-0.093544
C163	C	1.369464	-0.470533	0.156456
C164	C	1.619464	-0.220533	0.406456
C165	C	0.869484	-1.036274	-0.343554
C166	C	1.119484	-0.786274	-0.093554
C167	C	1.369484	-0.536274	0.156446
C168	C	1.619484	-0.286274	0.406446
N169	N	0.904850	-0.834402	-0.358406
N170	N	1.154850	-0.584402	-0.108406
N171	N	1.404850	-0.334402	0.141594
N172	N	1.654850	-0.084402	0.391594
N173	N	0.904834	-0.771951	-0.358396
N174	N	1.154834	-0.521951	-0.108396
N175	N	1.404834	-0.271951	0.141604
N176	N	1.654834	-0.021951	0.391604
C177	C	0.909681	-0.739578	-0.303297
C178	C	1.159681	-0.489578	-0.053297
C179	C	1.409681	-0.239578	0.196703
C180	C	1.659681	0.010422	0.446703
N181	N	0.914557	-0.772015	-0.248208
N182	N	1.164557	-0.522015	0.001792
N183	N	1.414557	-0.272015	0.251792
N184	N	1.664557	-0.022015	0.501792
N185	N	0.914577	-0.834472	-0.248219
N186	N	1.164577	-0.584472	0.001781
N187	N	1.414577	-0.334472	0.251781
N188	N	1.664577	-0.084472	0.501781
C189	C	0.909720	-0.866367	-0.303318
C190	C	1.159720	-0.616367	-0.053318
C191	C	1.409720	-0.366367	0.196682
C192	C	1.659720	-0.116367	0.446682
C193	C	0.949933	-0.635420	-0.263059
C194	C	1.199933	-0.385420	-0.013059
C195	C	1.449933	-0.135420	0.236941
C196	C	1.699933	0.114580	0.486941
C197	C	0.949905	-0.569676	-0.263043
C198	C	1.199905	-0.319676	-0.013043
C199	C	1.449905	-0.069676	0.236957
C200	C	1.699905	0.180324	0.486957
C201	C	0.869332	-0.569690	-0.343484
C202	C	1.119332	-0.319690	-0.093484
C203	C	1.369332	-0.069690	0.156516
C204	C	1.619332	0.180310	0.406516
C205	C	0.869357	-0.635432	-0.343495
C206	C	1.119357	-0.385432	-0.093495
C207	C	1.369357	-0.135432	0.156505
C208	C	1.619357	0.114568	0.406505
C209	C	0.909661	-0.668293	-0.303283
C210	C	1.159661	-0.418293	-0.053283
C211	C	1.409661	-0.168293	0.196717
C212	C	1.659661	0.081707	0.446717
C213	C	1.073849	-0.303311	-0.303298
C214	C	1.323849	-0.053311	-0.053298
C215	C	1.573849	0.196689	0.196702
C216	C	1.823849	0.446689	0.446702
C217	C	1.143817	-0.303318	-0.303306
C218	C	1.393817	-0.053318	-0.053306
C219	C	1.643817	0.196682	0.196694
C220	C	1.893817	0.446682	0.446694
C221	C	0.909687	-0.303260	-0.467470
C222	C	1.159687	-0.053260	-0.217470
C223	C	1.409687	0.196740	0.032530
C224	C	1.659687	0.446740	0.282530
C225	C	0.909700	-0.303245	-0.537438
C226	C	1.159700	-0.053245	-0.287438
C227	C	1.409700	0.196755	-0.037438
C228	C	1.659700	0.446755	0.212562
C229	C	0.909749	-0.139103	-0.303323
C230	C	1.159749	0.110897	-0.053323
C231	C	1.409749	0.360897	0.196677
C232	C	1.659749	0.610897	0.446677
C233	C	0.909788	-0.069135	-0.303342
C234	C	1.159788	0.180865	-0.053342
C235	C	1.409788	0.430865	0.196658
C236	C	1.659788	0.680865	0.446658
C237	C	0.950009	-0.343381	-1.036890
C238	C	1.200009	-0.093381	-0.786890
C239	C	1.450009	0.156619	-0.536890
C240	C	1.700009	0.406619	-0.286890
C241	C	0.949998	-0.343401	-0.971148
C242	C	1.199998	-0.093401	-0.721148
C243	C	1.449998	0.156599	-0.471148
C244	C	1.699998	0.406599	-0.221148
C245	C	0.909759	-0.303147	-0.938277
C246	C	1.159759	-0.053147	-0.688277
C247	C	1.409759	0.196853	-0.438277
C248	C	1.659759	0.446853	-0.188277
C249	C	0.869518	-0.262882	-0.971155
C250	C	1.119518	-0.012882	-0.721155
C251	C	1.369518	0.237118	-0.471155
C252	C	1.619518	0.487118	-0.221155
C253	C	0.869526	-0.262867	-1.036896
C254	C	1.119526	-0.012867	-0.786896
C255	C	1.369526	0.237133	-0.536896
C256	C	1.619526	0.487133	-0.286896
N257	N	0.904948	-0.248068	-0.835071
N258	N	1.154948	0.001932	-0.585071
N259	N	1.404948	0.251932	-0.335071
N260	N	1.654948	0.501932	-0.085071
N261	N	0.904944	-0.248083	-0.772619
N262	N	1.154944	0.001917	-0.522619
N263	N	1.404944	0.251917	-0.272619
N264	N	1.654944	0.501917	-0.022619
C265	C	0.909732	-0.303190	-0.740203
C266	C	1.159732	-0.053190	-0.490203
C267	C	1.409732	0.196810	-0.240203
C268	C	1.659732	0.446810	0.009797
N269	N	0.914536	-0.358281	-0.772597
N270	N	1.164536	-0.108281	-0.522597
N271	N	1.414536	0.141719	-0.272597
N272	N	1.664536	0.391719	-0.022597
N273	N	0.914543	-0.358265	-0.835054
N274	N	1.164543	-0.108265	-0.585054
N275	N	1.414543	0.141735	-0.335054
N276	N	1.664543	0.391735	-0.085054
C277	C	0.909746	-0.303159	-0.866992
C278	C	1.159746	-0.053159	-0.616992
C279	C	1.409746	0.196841	-0.366992
C280	C	1.659746	0.446841	-0.116992
C281	C	0.949955	-0.343477	-0.636047
C282	C	1.199955	-0.093477	-0.386047
C283	C	1.449955	0.156523	-0.136047
C284	C	1.699955	0.406523	0.113953
C285	C	0.949939	-0.343498	-0.570304
C286	C	1.199939	-0.093498	-0.320304
C287	C	1.449939	0.156502	-0.070304
C288	C	1.699939	0.406502	0.179696
C289	C	0.869463	-0.262974	-0.570312
C290	C	1.119463	-0.012974	-0.320312
C291	C	1.369463	0.237026	-0.070312
C292	C	1.619463	0.487026	0.179688
C293	C	0.869475	-0.262959	-0.636055
C294	C	1.119475	-0.012959	-0.386055
C295	C	1.369475	0.237041	-0.136055
C296	C	1.619475	0.487041	0.113945
C297	C	0.909725	-0.303209	-0.668918
C298	C	1.159725	-0.053209	-0.418918
C299	C	1.409725	0.196791	-0.168918
C300	C	1.659725	0.446791	0.081082
C301	C	0.909666	-0.303281	-0.139728
C302	C	1.159666	-0.053281	0.110272
C303	C	1.409666	0.196719	0.360272
C304	C	1.659666	0.446719	0.610272
C305	C	0.909775	-0.303118	-0.069760
C306	C	1.159775	-0.053118	0.180240
C307	C	1.409775	0.196882	0.430240
C308	C	1.659775	0.446882	0.680240
H309	H	0.670035	-0.230151	-0.230358
H310	H	0.920035	0.019849	0.019642
H311	H	1.170035	0.269849	0.269642
H312	H	1.420035	0.519849	0.519642
Cl313	Cl	1.000596	-0.676734	-0.212505
Cl314	Cl	1.250596	-0.426734	0.037495
Cl315	Cl	1.500596	-0.176734	0.287495
Cl316	Cl	1.750596	0.073266	0.537495
H317	H	0.149925	-0.376447	-0.376220
H318	H	0.399925	-0.126447	-0.126220
H319	H	0.649925	0.123553	0.123780
H320	H	0.899925	0.373553	0.373780
Cl321	Cl	0.818808	-0.929214	-0.394098
Cl322	Cl	1.068808	-0.679214	-0.144098
Cl323	Cl	1.318808	-0.429214	0.105902
Cl324	Cl	1.568808	-0.179214	0.355902
H325	H	0.982699	-0.376291	-0.543542
H326	H	1.232699	-0.126291	-0.293542
H327	H	1.482699	0.123709	-0.043542
H328	H	1.732699	0.373709	0.206458
H329	H	0.982727	-0.376253	-0.662806
H330	H	1.232727	-0.126253	-0.412806
H331	H	1.482727	0.123747	-0.162806
H332	H	1.732727	0.373747	0.087194
H333	H	0.269189	-0.376440	-0.376210
H334	H	0.519189	-0.126440	-0.126210
H335	H	0.769189	0.123560	0.123790
H336	H	1.019189	0.373560	0.373790
Cl337	Cl	0.283753	-0.212325	-0.212585
Cl338	Cl	0.533753	0.037675	0.037415
Cl339	Cl	0.783753	0.287675	0.287415
Cl340	Cl	1.033753	0.537675	0.537415
H341	H	0.550767	-0.230157	-0.230367
H342	H	0.800767	0.019843	0.019633
H343	H	1.050767	0.269843	0.269633
H344	H	1.300767	0.519843	0.519633
Cl345	Cl	0.135366	-0.212336	-0.212588
Cl346	Cl	0.385366	0.037664	0.037412
Cl347	Cl	0.635366	0.287664	0.287412
Cl348	Cl	0.885366	0.537664	0.537412
Cl349	Cl	0.818884	-0.212349	-0.677379
Cl350	Cl	1.068884	0.037651	-0.427379
Cl351	Cl	1.318884	0.287651	-0.177379
Cl352	Cl	1.568884	0.537651	0.072621
Cl353	Cl	0.536202	-0.394274	-0.393994
Cl354	Cl	0.786202	-0.144274	-0.143994
Cl355	Cl	1.036202	0.105726	0.106006
Cl356	Cl	1.286202	0.355726	0.356006
Cl357	Cl	0.684586	-0.394272	-0.393974
Cl358	Cl	0.934586	-0.144272	-0.143974
Cl359	Cl	1.184586	0.105728	0.106026
Cl360	Cl	1.434586	0.355728	0.356026
H361	H	0.836698	-0.230200	-0.543550
H362	H	1.086698	0.019800	-0.293550
H363	H	1.336698	0.269800	-0.043550
H364	H	1.586698	0.519800	0.206450
Cl365	Cl	1.000729	-1.077570	-0.212570
Cl366	Cl	1.250729	-0.827570	0.037430
Cl367	Cl	1.500729	-0.577570	0.287430
Cl368	Cl	1.750729	-0.327570	0.537430
H369	H	0.982838	-0.943750	-0.230357
H370	H	1.232838	-0.693750	0.019643
H371	H	1.482838	-0.443750	0.269643
H372	H	1.732838	-0.193750	0.519643
Cl373	Cl	1.000542	-0.528350	-0.212478
Cl374	Cl	1.250542	-0.278350	0.037522
Cl375	Cl	1.500542	-0.028350	0.287522
Cl376	Cl	1.750542	0.221650	0.537522
Cl377	Cl	0.818850	-1.077601	-0.394120
Cl378	Cl	1.068850	-0.827601	-0.144120
Cl379	Cl	1.318850	-0.577601	0.105880
Cl380	Cl	1.568850	-0.327601	0.355880
H381	H	0.836522	-0.542930	-0.376225
H382	H	1.086522	-0.292930	-0.126225
H383	H	1.336522	-0.042930	0.123775
H384	H	1.586522	0.207070	0.373775
H385	H	0.836562	-0.662197	-0.376246
H386	H	1.086562	-0.412197	-0.126246
H387	H	1.336562	-0.162197	0.123754
H388	H	1.586562	0.087803	0.373754
H389	H	0.982782	-0.376158	-1.063644
H390	H	1.232782	-0.126158	-0.813644
H391	H	1.482782	0.123842	-0.563644
H392	H	1.732782	0.373842	-0.313644
Cl393	Cl	1.000581	-0.394021	-0.929817
Cl394	Cl	1.250581	-0.144021	-0.679817
Cl395	Cl	1.500581	0.105979	-0.429817
Cl396	Cl	1.750581	0.355979	-0.179817
H397	H	0.836754	-0.230108	-0.944388
H398	H	1.086754	0.019892	-0.694388
H399	H	1.336754	0.269892	-0.444388
H400	H	1.586754	0.519892	-0.194388
Cl401	Cl	0.818938	-0.212251	-1.078221
Cl402	Cl	1.068938	0.037749	-0.828221
Cl403	Cl	1.318938	0.287749	-0.578221
Cl404	Cl	1.568938	0.537749	-0.328221
