data_functionalizedCrystal
_audit_creation_method	'MofGen! by Chris Wilmer'
_symmetry_space_group_name_H-M	'P1'
_symmetry_Int_Tables_number	1
_symmetry_cell_setting	triclinic
loop_
_symmetry_equiv_pos_as_xyz
  x,y,z
_cell_length_a	13.897449
_cell_length_b	12.759400
_cell_length_c	12.759393
_cell_angle_alpha	90.031564
_cell_angle_beta	89.979470
_cell_angle_gamma	89.984036
loop_
_atom_site_label
_atom_site_type_symbol
_atom_site_fract_x
_atom_site_fract_y
_atom_site_fract_z
Zn1	Zn	1.474721	0.418168	-0.594038
Zn2	Zn	1.974721	0.918168	-0.094038
Zn3	Zn	1.474624	0.593887	-0.418359
Zn4	Zn	1.974624	1.093887	0.081641
Zn5	Zn	1.313411	0.418227	-0.418372
Zn6	Zn	1.813411	0.918227	0.081628
Zn7	Zn	1.313400	0.593810	-0.593994
Zn8	Zn	1.813400	1.093810	-0.093994
O9	O	1.394039	0.506023	-0.506191
O10	O	1.894039	1.006023	-0.006191
O11	O	1.609690	0.441486	-0.570747
O12	O	2.109690	0.941486	-0.070747
O13	O	1.453202	0.570642	-0.271339
O14	O	1.953202	1.070642	0.228661
O15	O	1.334854	0.271198	-0.441698
O16	O	1.834854	0.771198	0.058302
O17	O	1.609618	0.570586	-0.441676
O18	O	2.109618	1.070586	0.058324
O19	O	1.453368	0.271155	-0.570760
O20	O	1.953368	0.771155	-0.070760
O21	O	1.334760	0.441585	-0.271349
O22	O	1.834760	0.941585	0.228651
O23	O	1.178428	0.441510	-0.441655
O24	O	1.678428	0.941510	0.058345
O25	O	1.334836	0.570454	-0.741021
O26	O	1.834836	1.070454	-0.241021
O27	O	1.178420	0.570510	-0.570684
O28	O	1.678420	1.070510	-0.070684
O29	O	1.453358	0.441411	-0.741054
O30	O	1.953358	0.941411	-0.241054
O31	O	1.453192	0.740898	-0.441633
O32	O	1.953192	1.240898	0.058367
O33	O	1.334742	0.740841	-0.570671
O34	O	1.834742	1.240841	-0.070671
C35	C	1.393982	0.778991	-0.506169
C36	C	1.893982	1.278991	-0.006169
C37	C	1.394045	0.895767	-0.506194
C38	C	1.894045	1.395767	-0.006194
C39	C	1.143425	0.506009	-0.506167
C40	C	1.643425	1.006009	-0.006167
C41	C	1.036211	0.506028	-0.506181
C42	C	1.536211	1.006028	-0.006181
C43	C	1.394106	0.505917	-0.780224
C44	C	1.894106	1.005917	-0.280224
C45	C	1.394135	0.505872	-0.897001
C46	C	1.894135	1.005872	-0.397001
C47	C	0.839915	0.506032	-0.506209
C48	C	1.339915	1.006032	-0.006209
C49	C	0.949148	0.506027	-0.506191
C50	C	1.449148	1.006027	-0.006191
C51	C	1.645632	0.506038	-0.506215
C52	C	2.145632	1.006038	-0.006215
C53	C	1.752846	0.506044	-0.506226
C54	C	2.252846	1.006044	-0.006226
C55	C	1.394123	0.231990	-0.506236
C56	C	1.894123	0.731990	-0.006236
C57	C	1.394158	0.115213	-0.506255
C58	C	1.894158	0.615213	-0.006255
C59	C	1.455791	0.950624	-0.439078
C60	C	1.955791	1.450624	0.060922
C61	C	1.455850	1.060348	-0.439111
C62	C	1.955850	1.560348	0.060889
C63	C	1.332410	1.060349	-0.573378
C64	C	1.832410	1.560349	-0.073378
C65	C	1.332356	0.950627	-0.573350
C66	C	1.832356	1.450627	-0.073350
C67	C	1.517480	0.895764	-0.371922
C68	C	2.017480	1.395764	0.128078
C69	C	1.579230	0.950621	-0.304800
C70	C	2.079230	1.450621	0.195200
C71	C	1.579289	1.060345	-0.304833
C72	C	2.079289	1.560345	0.195167
C73	C	1.517598	1.115212	-0.371987
C74	C	2.017598	1.615212	0.128013
C75	C	1.455858	0.438673	-0.951882
C76	C	1.955858	0.938673	-0.451882
C77	C	1.455881	0.438635	-1.061606
C78	C	1.955881	0.938635	-0.561606
C79	C	1.332456	0.573004	-1.061559
C80	C	1.832456	1.073004	-0.561559
C81	C	1.332429	0.573036	-0.951836
C82	C	1.832429	1.073036	-0.451836
C83	C	1.517564	0.371509	-0.897046
C84	C	2.017564	0.871509	-0.397046
C85	C	1.579293	0.304305	-0.951927
C86	C	2.079293	0.804305	-0.451927
C87	C	1.579316	0.304267	-1.061651
C88	C	2.079316	0.804267	-0.561651
C89	C	1.517610	0.371433	-1.116494
C90	C	2.017610	0.871433	-0.616494
C91	C	1.394027	0.506053	-0.233223
C92	C	1.894027	1.006053	0.266777
C93	C	1.394185	0.505802	-0.116447
C94	C	1.894185	1.005802	0.383553
H95	H	1.517436	0.806422	-0.371886
H96	H	2.017436	1.306422	0.128114
H97	H	1.517555	0.371534	-0.807703
H98	H	2.017555	0.871534	-0.307703
Cl99	Cl	1.656788	0.881647	-0.220392
Cl100	Cl	2.156788	1.381647	0.279608
H101	H	1.517623	0.371384	-1.205839
H102	H	2.017623	0.871384	-0.705839
Cl103	Cl	1.656924	1.129305	-0.220461
Cl104	Cl	2.156924	1.629305	0.279539
H105	H	1.629571	0.249539	-1.106332
H106	H	2.129571	0.749539	-0.606332
H107	H	1.517659	1.204557	-0.372017
H108	H	2.017659	1.704557	0.127983
Cl109	Cl	1.254893	0.657439	-1.130505
Cl110	Cl	1.754893	1.157439	-0.630505
H111	H	1.282184	1.105030	-0.628051
H112	H	1.782184	1.605030	-0.128051
Cl113	Cl	1.254734	0.881659	-0.657728
Cl114	Cl	1.754734	1.381659	-0.157728
Cl115	Cl	1.656846	0.219857	-0.882983
Cl116	Cl	2.156846	0.719857	-0.382983
Cl117	Cl	1.254831	0.657515	-0.882838
Cl118	Cl	1.754831	1.157515	-0.382838
