data_functionalizedCrystal
_audit_creation_method	'MofGen! by Chris Wilmer'
_symmetry_space_group_name_H-M	'P1'
_symmetry_Int_Tables_number	1
_symmetry_cell_setting	triclinic
loop_
_symmetry_equiv_pos_as_xyz
  x,y,z
_cell_length_a	27.731993
_cell_length_b	14.519709
_cell_length_c	13.596369
_cell_angle_alpha	90.014408
_cell_angle_beta	90.006205
_cell_angle_gamma	96.849729
loop_
_atom_site_label
_atom_site_type_symbol
_atom_site_fract_x
_atom_site_fract_y
_atom_site_fract_z
O1	O	0.641468	-0.109493	-0.081544
O2	O	0.500751	-0.126230	-0.081607
O3	O	0.574841	0.016443	-0.081546
O4	O	0.567379	-0.252166	-0.081605
O5	O	0.574833	0.016450	0.082037
O6	O	0.500744	-0.126223	0.081976
O7	O	0.641461	-0.109486	0.082039
Zn8	Zn	0.571101	-0.117853	0.107980
Zn9	Zn	0.571111	-0.117863	-0.107548
O10	O	0.567371	-0.252159	0.081978
C11	C	0.482738	-0.125883	0.000177
C12	C	0.429077	-0.124849	0.000154
C13	C	0.045885	-0.117354	-0.088965
C14	C	0.247561	-0.121297	-0.088993
O15	O	0.273640	-0.121773	-0.164829
N16	N	0.272780	-0.121787	0.000174
C17	C	0.247577	-0.121284	0.089354
O18	O	0.273655	-0.121781	0.165196
C19	C	0.045902	-0.117334	0.089381
C20	C	0.020685	-0.116854	0.000208
C21	C	0.020668	-0.116873	-0.178131
C22	C	-0.029748	-0.115892	-0.178123
C23	C	-0.054948	-0.115392	-0.088950
C24	C	-0.029731	-0.115873	0.000216
C25	C	0.020700	-0.116825	0.178560
C26	C	-0.029722	-0.115835	0.178559
C27	C	-0.054938	-0.115355	0.089386
C28	C	-0.105347	-0.114393	0.089397
N29	N	-0.130566	-0.113903	0.000230
C30	C	-0.105366	-0.114403	-0.088943
C31	C	0.353459	-0.123360	0.089334
C32	C	0.403877	-0.124349	0.089328
C33	C	0.403858	-0.124360	-0.089020
C34	C	0.353439	-0.123378	-0.089012
C35	C	0.328240	-0.122870	0.000167
C36	C	-0.211244	-0.112344	-0.088920
C37	C	-0.261665	-0.111367	-0.088905
C38	C	-0.261642	-0.111351	0.089442
C39	C	-0.211225	-0.112333	0.089427
C40	C	-0.186028	-0.112826	0.000238
O41	O	-0.131456	-0.113905	0.165194
O42	O	-0.131452	-0.113885	-0.164773
C43	C	0.096301	-0.118334	-0.088973
C44	C	0.121518	-0.118815	0.000193
C45	C	0.096318	-0.118316	0.089366
C46	C	0.171936	-0.119805	0.000186
C47	C	0.197136	-0.120304	-0.088987
C48	C	0.171918	-0.119815	-0.178154
C49	C	0.121501	-0.118834	-0.178146
C50	C	0.121537	-0.118805	0.178533
C51	C	0.171953	-0.119787	0.178518
C52	C	0.197153	-0.120287	0.089344
C53	C	0.574489	0.050800	0.000250
C54	C	0.573447	0.153163	0.000264
C55	C	0.659474	-0.109833	0.000253
C56	C	0.713135	-0.110867	0.000269
N57	N	0.571098	-0.117846	0.255072
C58	C	0.569611	0.527991	0.000289
C59	C	0.570676	0.423702	0.000283
C60	C	0.571529	0.340580	0.000278
C61	C	0.572594	0.236285	0.000269
C62	C	0.567723	0.713484	0.000215
C63	C	0.568765	0.611121	0.000298
N64	N	0.571118	-0.117863	-0.254640
C65	C	0.571110	-0.117864	0.656362
C66	C	0.571105	-0.117862	0.544711
C67	C	0.571104	-0.117856	0.455721
C68	C	0.571099	-0.117852	0.344062
H69	H	0.041223	-0.117213	0.251174
H70	H	0.332911	-0.122987	-0.161625
H71	H	-0.282195	-0.110979	-0.161523
H72	H	-0.190694	-0.112742	0.162039
H73	H	-0.282169	-0.110948	0.162045
O74	O	0.097087	-0.118323	-0.264857
C75	C	0.102405	-0.118494	-0.441752
C76	C	0.130110	-0.119054	-0.343617
H77	H	0.129091	-0.119105	-0.505455
H78	H	0.083187	-0.053454	-0.446270
H79	H	0.074416	-0.182580	-0.446176
H80	H	0.158123	-0.055012	-0.339128
H81	H	0.149295	-0.184136	-0.339141
O82	O	0.196435	-0.120089	0.265173
C83	C	0.217250	-0.040461	0.417639
C84	C	0.189514	-0.040004	0.319532
H85	H	0.211655	0.024271	0.461625
H86	H	0.257625	-0.041185	0.402388
H87	H	0.202973	-0.104854	0.461566
H88	H	0.203749	0.024379	0.275557
H89	H	0.149141	-0.039328	0.334853
O90	O	-0.054271	-0.115579	-0.264722
C91	C	-0.116626	-0.194356	-0.368242
C92	C	-0.088890	-0.194841	-0.270138
H93	H	-0.144630	-0.258422	-0.372644
H94	H	-0.089972	-0.194938	-0.432006
H95	H	-0.135834	-0.129300	-0.372676
H96	H	-0.069682	-0.259886	-0.265608
H97	H	-0.115568	-0.194211	-0.206421
O98	O	0.428430	-0.124701	0.175888
C99	C	0.490749	-0.045847	0.279439
C100	C	0.462991	-0.045353	0.181361
H101	H	0.518690	0.018309	0.283905
H102	H	0.510017	-0.110828	0.283906
H103	H	0.464060	-0.045362	0.343151
H104	H	0.489647	-0.045805	0.117593
H105	H	0.443715	0.019623	0.176979
H106	H	-0.050236	-0.115430	0.251181
H107	H	0.192444	-0.120227	-0.250762
O108	O	0.096999	-0.118441	0.265096
C109	C	0.034698	-0.197276	0.368631
C110	C	0.062440	-0.197789	0.270548
H111	H	0.006758	-0.261432	0.373081
H112	H	0.015429	-0.132296	0.373125
H113	H	0.061398	-0.197746	0.432339
H114	H	0.035773	-0.197352	0.206785
H115	H	0.081716	-0.262764	0.266141
O116	O	-0.186850	-0.112872	-0.175645
C117	C	-0.192201	-0.112747	-0.352538
C118	C	-0.219888	-0.112160	-0.254396
H119	H	-0.218899	-0.112152	-0.416234
H120	H	-0.172984	-0.177789	-0.357080
H121	H	-0.164212	-0.048663	-0.356951
H122	H	-0.247900	-0.176200	-0.249917
H123	H	-0.239071	-0.047076	-0.249895
H124	H	0.332947	-0.122944	0.161959
H125	H	0.041181	-0.117277	-0.250750
H126	H	0.424384	-0.124770	-0.161628
