data_functionalizedCrystal
_audit_creation_method	'MofGen! by Chris Wilmer'
_symmetry_space_group_name_H-M	'P1'
_symmetry_Int_Tables_number	1
_symmetry_cell_setting	triclinic
loop_
_symmetry_equiv_pos_as_xyz
  x,y,z
_cell_length_a	16.625539
_cell_length_b	12.827893
_cell_length_c	12.827892
_cell_angle_alpha	90.015363
_cell_angle_beta	89.974941
_cell_angle_gamma	89.981587
loop_
_atom_site_label
_atom_site_type_symbol
_atom_site_fract_x
_atom_site_fract_y
_atom_site_fract_z
Zn1	Zn	-0.455881	1.597663	-0.416032
Zn2	Zn	0.044119	2.097663	0.083968
Zn3	Zn	-0.321056	1.597559	-0.590795
Zn4	Zn	0.178944	2.097559	-0.090795
Zn5	Zn	-0.321067	1.422906	-0.416068
Zn6	Zn	0.178933	1.922906	0.083932
Zn7	Zn	-0.455851	1.422889	-0.590732
Zn8	Zn	0.044149	1.922889	-0.090732
O9	O	-0.388464	1.510254	-0.503407
O10	O	0.111536	2.010254	-0.003407
O11	O	-0.438004	1.743885	-0.439226
O12	O	0.061996	2.243885	0.060774
O13	O	-0.208225	1.574354	-0.567659
O14	O	0.291775	2.074354	-0.067659
O15	O	-0.338967	1.446138	-0.269828
O16	O	0.161033	1.946138	0.230172
O17	O	-0.338949	1.743809	-0.567624
O18	O	0.161051	2.243809	-0.067624
O19	O	-0.438015	1.574531	-0.269801
O20	O	0.061985	2.074531	0.230199
O21	O	-0.208233	1.446038	-0.439288
O22	O	0.291767	1.946038	0.060712
O23	O	-0.338938	1.276668	-0.439227
O24	O	0.161062	1.776668	0.060773
O25	O	-0.568687	1.446110	-0.567516
O26	O	-0.068687	1.946110	-0.067516
O27	O	-0.437963	1.276656	-0.567551
O28	O	0.062037	1.776656	-0.067551
O29	O	-0.568710	1.574515	-0.439165
O30	O	-0.068710	2.074515	0.060835
O31	O	-0.338920	1.574338	-0.737023
O32	O	0.161080	2.074338	-0.237023
O33	O	-0.437953	1.446009	-0.736976
O34	O	0.062047	1.946009	-0.236976
C35	C	-0.388449	1.238744	-0.503387
C36	C	0.111551	1.738744	-0.003387
C37	C	-0.388462	1.122591	-0.503403
C38	C	0.111538	1.622591	-0.003403
C39	C	-0.339381	1.070769	-0.566841
C40	C	0.160619	1.570769	-0.066841
C41	C	-0.339393	0.950719	-0.566859
C42	C	0.160607	1.450719	-0.066859
C43	C	-0.598773	1.510322	-0.503329
C44	C	-0.098773	2.010322	-0.003329
C45	C	-0.688394	1.510351	-0.503296
C46	C	-0.188394	2.010351	-0.003296
C47	C	-1.016570	1.510399	-0.503179
C48	C	-0.516570	2.010399	-0.003179
C49	C	-0.925261	1.510383	-0.503215
C50	C	-0.425261	2.010383	-0.003215
C51	C	-0.852485	1.510376	-0.503238
C52	C	-0.352485	2.010376	-0.003238
C53	C	-0.761170	1.510358	-0.503272
C54	C	-0.261170	2.010358	-0.003272
C55	C	-0.178973	1.510247	-0.503409
C56	C	0.321027	2.010247	-0.003409
C57	C	-0.089352	1.510420	-0.503148
C58	C	0.410648	2.010420	-0.003148
C59	C	-0.388450	1.510189	-0.774917
C60	C	0.111550	2.010189	-0.274917
C61	C	-0.388470	1.510257	-0.891070
C62	C	0.111530	2.010257	-0.391070
C63	C	-0.388479	1.782824	-0.503428
C64	C	0.111521	2.282824	-0.003428
C65	C	-0.388485	1.898977	-0.503437
C66	C	0.111515	2.398977	-0.003437
C67	C	-0.339520	1.573833	-0.942843
C68	C	0.160480	2.073833	-0.442843
C69	C	-0.339540	1.573904	-1.062893
C70	C	0.160460	2.073904	-0.562893
C71	C	-0.388496	1.510348	-0.230837
C72	C	0.111504	2.010348	0.269163
C73	C	-0.388509	1.510388	-0.114683
C74	C	0.111491	2.010388	0.385317
H75	H	-0.430493	1.078081	-0.449109
H76	H	0.069507	1.578081	0.050891
N77	N	-0.441101	1.442115	-1.058846
N78	N	0.058899	1.942115	-0.558846
N79	N	-0.515518	1.448996	-1.070884
N80	N	-0.015518	1.948996	-0.570884
H81	H	-0.552663	1.400779	-1.031442
H82	H	-0.052663	1.900779	-0.531442
H83	H	-0.430504	0.943537	-0.449118
H84	H	0.069496	1.443537	0.050882
H85	H	-0.297355	1.115279	-0.621141
H86	H	0.202645	1.615279	-0.121141
N87	N	-0.286924	1.642070	-0.886984
N88	N	0.213076	2.142070	-0.386984
N89	N	-0.292333	1.738511	-0.899013
N90	N	0.207667	2.238511	-0.399013
H91	H	-0.255185	1.786707	-0.859567
H92	H	0.244815	2.286707	-0.359567
N93	N	-0.441053	1.442020	-0.946949
N94	N	0.058947	1.942020	-0.446949
N95	N	-0.435640	1.345578	-0.934931
N96	N	0.064360	1.845578	-0.434931
H97	H	-0.472777	1.297382	-0.974394
H98	H	0.027223	1.797382	-0.474394
N99	N	-0.286674	0.894805	-0.634980
N100	N	0.213326	1.394805	-0.134980
N101	N	-0.286755	0.797363	-0.634894
N102	N	0.213245	1.297363	-0.134894
H103	H	-0.249520	0.757870	-0.683005
H104	H	0.250480	1.257870	-0.183005
N105	N	-0.286962	1.642176	-1.118754
N106	N	0.213038	2.142176	-0.618754
N107	N	-0.287050	1.642133	-1.216196
N108	N	0.212950	2.142133	-0.716196
H109	H	-0.249914	1.690351	-1.255652
H110	H	0.250086	2.190351	-0.755652
