data_functionalizedCrystal
_audit_creation_method	'MofGen! by Chris Wilmer'
_symmetry_space_group_name_H-M	'P1'
_symmetry_Int_Tables_number	1
_symmetry_cell_setting	triclinic
loop_
_symmetry_equiv_pos_as_xyz
  x,y,z
_cell_length_a	14.971486
_cell_length_b	9.482900
_cell_length_c	14.971494
_cell_angle_alpha	80.652292
_cell_angle_beta	83.615843
_cell_angle_gamma	99.295927
loop_
_atom_site_label
_atom_site_type_symbol
_atom_site_fract_x
_atom_site_fract_y
_atom_site_fract_z
O1	O	1.200854	0.120721	0.102592
O2	O	0.940458	0.120760	0.116547
O3	O	1.077631	0.120736	-0.020630
O4	O	1.063681	0.120745	0.239769
O5	O	1.049768	-0.121052	0.007346
O6	O	0.912596	-0.121028	0.144522
O7	O	1.172991	-0.121067	0.130568
Cu8	Cu	1.040249	-0.143124	0.140099
Cu9	Cu	1.073200	0.142817	0.107015
O10	O	1.035818	-0.121043	0.267744
C11	C	0.893203	-0.000129	0.129910
C12	C	0.793908	-0.000114	0.128037
N13	N	1.017080	-0.344241	0.163369
C14	C	0.736685	-0.000113	0.208626
C15	C	0.643383	-0.000135	0.206865
C16	C	0.607307	-0.000147	0.124514
C17	C	0.664536	-0.000152	0.043919
C18	C	0.757835	-0.000141	0.045682
C19	C	0.470071	-0.000172	0.040251
C20	C	0.376766	-0.000181	0.038487
C21	C	0.355619	-0.000167	0.201434
C22	C	0.448918	-0.000155	0.203197
C23	C	0.506141	-0.000158	0.122601
C24	C	1.066360	-0.416448	0.113874
C25	C	1.047089	-0.583862	0.133241
C26	C	1.220247	-0.000175	0.117205
C27	C	1.319543	-0.000180	0.119076
C28	C	1.063075	-0.000155	-0.039967
C29	C	1.061202	-0.000148	-0.139264
N30	N	1.096377	0.343934	0.083739
C31	C	1.075512	0.131652	-0.201159
C32	C	1.073746	0.131654	-0.294458
C33	C	1.057676	-0.000146	-0.325862
C34	C	1.043362	-0.131956	-0.263959
C35	C	1.045122	-0.131957	-0.170661
C36	C	1.039697	-0.131946	-0.458424
C37	C	1.037939	-0.131946	-0.551728
C38	C	1.068321	0.131665	-0.582220
C39	C	1.070081	0.131664	-0.488922
C40	C	1.055769	-0.000147	-0.427026
C41	C	1.050375	-0.000148	0.287081
C42	C	1.052249	-0.000146	0.386377
H43	H	0.596795	-0.000133	0.272489
H44	H	0.635153	-0.000183	-0.023131
H45	H	0.960619	-0.406361	0.220078
H46	H	1.028023	-0.239281	-0.408027
H47	H	1.122814	-0.354330	0.057158
O48	O	0.813419	0.000124	-0.032656
C49	C	0.811457	0.125324	-0.097149
H50	H	0.789698	0.212849	-0.060091
H51	H	0.760638	0.097005	-0.145698
C52	C	0.934083	0.074612	-0.197588
C53	C	0.907365	0.182115	-0.152073
H54	H	0.993242	0.109641	-0.231472
H55	H	0.935403	-0.009742	-0.154141
H56	H	0.891726	0.051021	-0.238039
H57	H	0.949715	0.205690	-0.111616
H58	H	0.906055	0.266474	-0.195516
H59	H	0.478289	-0.000132	0.270253
H60	H	0.990625	-0.645977	0.189954
H61	H	1.088602	0.238979	-0.175599
H62	H	1.152834	-0.593952	0.027019
O63	O	1.087743	0.259815	-0.354469
C64	C	1.102307	0.376143	-0.306745
H65	H	1.127368	0.337468	-0.239426
H66	H	1.035483	0.416750	-0.292235
C67	C	1.143851	0.548105	-0.447836
C68	C	1.174639	0.500607	-0.365156
H69	H	1.188465	0.624883	-0.483867
H70	H	1.134036	0.469733	-0.479989
H71	H	1.088164	0.581934	-0.435732
H72	H	1.230319	0.466762	-0.377261
H73	H	1.184465	0.578975	-0.333007
O74	O	0.341701	0.000049	-0.041511
C75	C	0.302763	0.125246	-0.061889
H76	H	0.334965	0.212790	-0.025267
H77	H	0.225955	0.096933	-0.038047
C78	C	0.280935	0.074472	-0.210804
C79	C	0.320492	0.181999	-0.165831
H80	H	0.291867	0.109478	-0.274921
H81	H	0.307165	-0.009879	-0.197075
H82	H	0.216931	0.050888	-0.190926
H83	H	0.384496	0.205568	-0.185701
H84	H	0.294273	0.266356	-0.179566
H85	H	1.083173	0.238987	-0.463358
H86	H	0.309022	-0.000171	0.267058
O87	O	1.082061	0.259678	-0.642350
C88	C	1.004560	0.267594	-0.687204
H89	H	0.942364	0.192812	-0.643421
H90	H	1.016645	0.232197	-0.756092
C91	C	1.063986	0.516923	-0.756061
C92	C	0.987594	0.425084	-0.702282
H93	H	1.053522	0.614071	-0.765367
H94	H	1.116202	0.511590	-0.725845
H95	H	1.074049	0.487409	-0.813462
H96	H	0.977540	0.454588	-0.644879
H97	H	0.935377	0.430426	-0.732489
O98	O	1.027644	-0.259894	-0.294558
C99	C	0.948303	-0.267789	-0.337553
H100	H	0.935418	-0.153351	-0.361419
H101	H	0.887283	-0.332830	-0.287041
C102	C	0.977296	-0.483696	-0.391198
C103	C	0.961474	-0.343140	-0.420519
H104	H	0.985417	-0.530182	-0.442373
H105	H	1.030747	-0.478381	-0.362229
H106	H	0.926442	-0.537879	-0.349105
H107	H	1.012331	-0.288955	-0.462602
H108	H	0.908031	-0.348448	-0.449497
H109	H	1.024846	-0.239269	-0.577293
O110	O	1.031234	-0.260118	-0.110661
C111	C	1.016644	-0.376449	-0.158379
H112	H	1.048151	-0.337825	-0.233024
H113	H	0.940084	-0.416940	-0.154319
C114	C	1.022872	-0.548443	-0.023471
C115	C	1.061576	-0.501007	-0.115151
H116	H	1.050583	-0.625280	0.003195
H117	H	1.032698	-0.470070	0.008679
H118	H	0.959073	-0.582175	-0.020101
H119	H	1.125370	-0.467259	-0.118519
H120	H	1.051762	-0.579378	-0.147300
H121	H	0.766050	-0.000103	0.275686
H122	H	0.516661	-0.000176	-0.025379
