data_functionalizedCrystal
_audit_creation_method	'MofGen! by Chris Wilmer'
_symmetry_space_group_name_H-M	'P1'
_symmetry_Int_Tables_number	1
_symmetry_cell_setting	triclinic
loop_
_symmetry_equiv_pos_as_xyz
  x,y,z
_cell_length_a	11.169417
_cell_length_b	17.077402
_cell_length_c	17.077396
_cell_angle_alpha	90.030619
_cell_angle_beta	89.986007
_cell_angle_gamma	89.976238
loop_
_atom_site_label
_atom_site_type_symbol
_atom_site_fract_x
_atom_site_fract_y
_atom_site_fract_z
Zn1	Zn	1.834789	0.312483	-0.443768
Zn2	Zn	1.834654	0.443760	-0.312499
Zn3	Zn	1.634095	0.312514	-0.312523
Zn4	Zn	1.634038	0.443713	-0.443730
O5	O	1.734394	0.378118	-0.378130
O6	O	2.002721	0.329904	-0.426360
O7	O	1.808017	0.426383	-0.202655
O8	O	1.660797	0.202663	-0.329959
O9	O	2.002622	0.426353	-0.329917
O10	O	1.808246	0.202640	-0.426384
O11	O	1.660667	0.329957	-0.202673
O12	O	1.466138	0.329911	-0.329922
O13	O	1.660700	0.426273	-0.553582
O14	O	1.466096	0.426303	-0.426319
O15	O	1.808191	0.329859	-0.553609
O16	O	1.807962	0.553601	-0.329881
O17	O	1.660570	0.553566	-0.426295
C18	C	1.734278	0.582066	-0.378098
C19	C	1.734338	0.669315	-0.378111
C20	C	1.422569	0.378106	-0.378120
C21	C	1.289169	0.378120	-0.378134
C22	C	1.734454	0.378057	-0.582874
C23	C	1.734480	0.378031	-0.670124
C24	C	2.047436	0.378130	-0.378140
C25	C	2.180836	0.378136	-0.378145
C26	C	1.734543	0.173373	-0.378178
C27	C	1.734607	0.086124	-0.378199
C28	C	1.811164	0.710297	-0.327962
C29	C	1.811223	0.792278	-0.327982
C30	C	1.734449	0.833275	-0.378148
C31	C	1.657620	0.792287	-0.428303
C32	C	1.657568	0.710308	-0.428286
C33	C	1.657731	0.963157	-0.428332
C34	C	1.657781	1.045142	-0.428348
C35	C	1.811385	1.045127	-0.328028
C36	C	1.811334	0.963148	-0.328012
C37	C	1.734503	0.922166	-0.378166
C38	C	1.657778	0.327816	-0.711123
C39	C	1.657798	0.327798	-0.793103
C40	C	1.734526	0.377992	-0.834083
C41	C	1.811231	0.428212	-0.793079
C42	C	1.811205	0.428234	-0.711100
C43	C	1.811283	0.428163	-0.963949
C44	C	1.811312	0.428141	-1.045934
C45	C	1.657876	0.327728	-1.045952
C46	C	1.657850	0.327749	-0.963973
C47	C	1.734557	0.377969	-0.922974
C48	C	1.734403	0.378122	-0.174182
C49	C	1.734610	0.377926	-0.086932
H50	H	1.873676	0.676923	-0.287108
C51	C	1.573490	0.272490	-1.091053
N52	N	1.509935	0.230886	-1.125026
H53	H	1.873781	0.825642	-0.287145
C54	C	1.573164	0.837386	-0.483483
N55	N	1.509545	0.871355	-0.525043
C56	C	1.895708	0.483362	-1.091010
N57	N	1.959275	0.524957	-1.124962
C58	C	1.573432	0.272550	-0.838198
N59	N	1.509887	0.230932	-0.872163
C60	C	1.895769	0.918053	-0.272814
N61	N	1.959365	0.884087	-0.231236
H62	H	1.873757	0.469051	-0.930570
H63	H	1.873948	1.078498	-0.287194
C64	C	1.895361	0.483604	-0.838160
N65	N	1.958634	0.525387	-0.872114
C66	C	1.573339	1.090237	-0.483542
N67	N	1.509739	1.124202	-0.525117
H68	H	1.595172	0.929792	-0.469176
H69	H	1.595011	0.676941	-0.469124
C70	C	1.573369	0.272598	-0.666052
N71	N	1.509785	0.231009	-0.632107
H72	H	1.595376	0.286874	-0.930610
C73	C	1.895588	0.483470	-0.666001
N74	N	1.959148	0.525077	-0.632034
