data_functionalizedCrystal
_audit_creation_method	'MofGen! by Chris Wilmer'
_symmetry_space_group_name_H-M	'P1'
_symmetry_Int_Tables_number	1
_symmetry_cell_setting	triclinic
loop_
_symmetry_equiv_pos_as_xyz
  x,y,z
_cell_length_a	17.038272
_cell_length_b	17.019294
_cell_length_c	12.996460
_cell_angle_alpha	93.879262
_cell_angle_beta	90.000822
_cell_angle_gamma	87.244363
loop_
_atom_site_label
_atom_site_type_symbol
_atom_site_fract_x
_atom_site_fract_y
_atom_site_fract_z
O1	O	1.037223	0.171281	0.100612
O2	O	0.809595	0.168561	0.100401
O3	O	0.929759	0.055515	0.090364
O4	O	0.917059	0.284327	0.110649
O5	O	0.929743	0.055521	-0.080769
O6	O	0.809580	0.168567	-0.070732
O7	O	1.037208	0.171287	-0.070521
Cu8	Cu	0.923392	0.169927	-0.086252
Cu9	Cu	0.923411	0.169920	0.116132
O10	O	0.917044	0.284333	-0.060484
C11	C	0.780461	0.166090	0.014619
C12	C	0.693674	0.158710	0.013977
C13	C	0.929269	0.026096	0.002191
C14	C	0.927824	-0.061571	-0.005573
C15	C	0.643503	0.226470	0.019983
C16	C	0.561958	0.219530	0.019354
C17	C	0.530587	0.144830	0.012725
C18	C	0.580765	0.077065	0.006715
C19	C	0.662308	0.084005	0.007338
C20	C	0.284850	0.120313	0.010524
C21	C	0.203300	0.113378	0.009906
C22	C	0.184499	0.255843	0.022542
C23	C	0.266044	0.262777	0.023170
C24	C	0.316215	0.195012	0.017155
C25	C	0.447235	0.137736	0.012085
C26	C	0.399565	0.202107	0.017788
C27	C	0.927156	-0.102755	0.084063
C28	C	0.925793	-0.185128	0.076764
C29	C	0.925105	-0.226314	-0.020172
C30	C	0.925771	-0.185123	-0.109815
C31	C	0.927128	-0.102752	-0.102515
C32	C	0.921002	-0.475020	-0.046881
C33	C	0.919647	-0.557397	-0.054174
C34	C	0.919668	-0.557396	0.132406
C35	C	0.921030	-0.475024	0.139698
C36	C	0.921692	-0.433840	0.050055
C37	C	0.923714	-0.310511	-0.027635
C38	C	0.923076	-0.349644	0.057519
C39	C	1.066342	0.173757	0.015263
C40	C	1.153128	0.181138	0.015912
C41	C	0.917534	0.313751	0.027691
C42	C	0.918978	0.401418	0.035462
N43	N	0.923385	0.169932	-0.228599
C44	C	0.923389	0.169934	-0.321705
C45	C	0.923396	0.169929	-0.438510
C46	C	0.923406	0.169921	-0.531609
C47	C	0.923414	0.169917	-0.648422
N48	N	0.923424	0.169909	0.258479
H49	H	0.669038	0.287298	0.025382
H50	H	0.919127	-0.590937	0.205388
C51	C	0.919073	-0.602160	-0.159404
C52	C	0.985541	-0.653784	-0.169442
C53	C	0.985053	-0.695021	-0.266368
H54	H	0.873034	-0.631413	-0.165981
H55	H	0.919707	-0.565857	-0.211772
H56	H	0.984900	-0.690082	-0.117090
H57	H	1.031590	-0.624551	-0.162885
H58	H	0.985688	-0.658718	-0.318736
H59	H	0.939012	-0.724270	-0.272936
H60	H	1.030154	-0.730047	-0.273195
H61	H	0.555216	0.016243	0.001304
H62	H	0.521111	0.274708	0.024246
H63	H	0.921557	-0.441499	-0.119874
H64	H	0.925206	-0.218663	-0.188743
C65	C	0.927881	-0.058178	-0.199956
C66	C	0.927003	-0.111876	-0.286412
C67	C	0.927697	-0.070845	-0.376194
H68	H	0.882850	-0.023092	-0.200852
H69	H	0.973992	-0.029014	-0.201324
H70	H	0.880898	-0.141027	-0.285045
H71	H	0.972031	-0.146964	-0.285550
H72	H	0.973808	-0.041680	-0.377562
H73	H	0.882665	-0.035760	-0.377080
H74	H	0.927109	-0.107273	-0.434865
H75	H	0.923156	-0.344054	-0.106561
H76	H	0.923632	-0.316106	0.136444
H77	H	0.921591	-0.441496	0.218633
H78	H	0.291580	0.323605	0.028580
C79	C	0.130157	0.329507	0.029124
C80	C	0.175084	0.396410	0.035087
C81	C	0.125052	0.464286	0.041162
H82	H	0.097940	0.329876	-0.030507
H83	H	0.097965	0.329804	0.088851
H84	H	0.207262	0.396113	-0.024633
H85	H	0.207299	0.396067	0.094716
H86	H	0.092860	0.464583	0.100888
H87	H	0.092837	0.464647	-0.018471
H88	H	0.155527	0.509688	0.045218
C89	C	0.169343	0.032222	0.002862
C90	C	0.194865	-0.009082	0.087228
C91	C	0.163605	-0.083844	0.080772
H92	H	0.113596	0.037687	0.003402
H93	H	0.186587	0.004052	-0.059285
H94	H	0.177616	0.019080	0.149359
H95	H	0.250607	-0.014570	0.086705
H96	H	0.180850	-0.112013	0.018625
H97	H	0.107860	-0.078370	0.081310
H98	H	0.180923	-0.111880	0.138007
C99	C	0.339403	0.046805	0.004174
C100	C	0.386777	0.046631	0.092194
C101	C	0.437051	-0.021071	0.086376
H102	H	0.309134	0.001269	0.000191
H103	H	0.371652	0.046543	-0.055494
H104	H	0.354532	0.046885	0.151845
H105	H	0.417063	0.092152	0.096194
H106	H	0.469300	-0.021333	0.026708
H107	H	0.406775	-0.066602	0.082391
H108	H	0.469205	-0.021195	0.146090
H109	H	0.703158	0.028828	0.002447
H110	H	0.425111	0.262928	0.023179
C111	C	0.927736	-0.058081	0.189344
C112	C	0.860170	-0.073750	0.244222
C113	C	0.860667	-0.032607	0.341210
H114	H	0.973030	-0.074503	0.226339
H115	H	0.928597	-0.003113	0.180912
H116	H	0.859316	-0.128706	0.252659
H117	H	0.814865	-0.057325	0.207259
H118	H	0.861528	0.022361	0.332778
H119	H	0.905964	-0.049033	0.378195
H120	H	0.814821	-0.043227	0.378453
C121	C	0.924918	-0.229860	0.174063
C122	C	0.856905	-0.272773	0.175768
C123	C	0.856070	-0.313975	0.265400
H124	H	0.969905	-0.265009	0.174920
H125	H	0.925487	-0.193545	0.232855
H126	H	0.856343	-0.309084	0.116991
H127	H	0.811907	-0.237643	0.174928
H128	H	0.856639	-0.277660	0.324193
H129	H	0.901059	-0.349119	0.266249
H130	H	0.809921	-0.343090	0.266574
H131	H	0.421684	0.076914	0.006659
