data_functionalizedCrystal
_audit_creation_method	'MofGen! by Chris Wilmer'
_symmetry_space_group_name_H-M	'P1'
_symmetry_Int_Tables_number	1
_symmetry_cell_setting	triclinic
loop_
_symmetry_equiv_pos_as_xyz
  x,y,z
_cell_length_a	10.654559
_cell_length_b	16.992694
_cell_length_c	15.455301
_cell_angle_alpha	87.178730
_cell_angle_beta	92.973969
_cell_angle_gamma	92.421546
loop_
_atom_site_label
_atom_site_type_symbol
_atom_site_fract_x
_atom_site_fract_y
_atom_site_fract_z
O1	O	0.271639	-1.044933	0.072014
O2	O	0.268718	-0.816633	0.072040
O3	O	0.087893	-0.936028	0.072026
O4	O	0.452463	-0.925538	0.072028
O5	O	0.077453	-0.929833	-0.072236
O6	O	0.258278	-0.810438	-0.072222
O7	O	0.261199	-1.038738	-0.072248
Cu8	Cu	0.258786	-0.924022	-0.085407
Cu9	Cu	0.271131	-0.931349	0.085199
O10	O	0.442024	-0.919343	-0.072234
C11	C	0.259738	-0.784302	-0.000088
C12	C	0.248519	-0.697197	-0.000078
N13	N	0.250102	-0.918875	-0.205403
C14	C	0.035809	-0.932159	-0.000103
C15	C	-0.103833	-0.929850	-0.000097
C16	C	-0.161634	-0.857382	-0.000087
C17	C	-0.292844	-0.855217	-0.000093
C18	C	-0.308440	-0.997995	-0.000116
C19	C	-0.177233	-1.000159	-0.000116
C20	C	-0.088235	-0.787073	-0.000067
C21	C	-0.146036	-0.714599	-0.000056
C22	C	-0.277245	-0.712434	-0.000062
C23	C	-0.350654	-0.782743	-0.000080
C24	C	0.494108	-0.923212	-0.000103
C25	C	0.633750	-0.925521	-0.000103
C26	C	0.270179	-1.071068	-0.000118
C27	C	0.281398	-1.158174	-0.000123
C28	C	0.356770	-0.647548	-0.000078
C29	C	0.346220	-0.565703	-0.000090
C30	C	0.227419	-0.533510	-0.000096
C31	C	0.119160	-0.583166	-0.000098
C32	C	0.129711	-0.665009	-0.000092
C33	C	0.183690	-0.289672	-0.000119
C34	C	0.173148	-0.207823	-0.000122
C35	C	0.400209	-0.190366	-0.000116
C36	C	0.410749	-0.272212	-0.000105
C37	C	0.302490	-0.321860	-0.000112
N38	N	0.216632	-0.449852	-0.000105
N39	N	0.313277	-0.405516	-0.000109
C40	C	0.327848	-0.964923	-0.250798
C41	C	0.321274	-0.961041	-0.341606
C42	C	0.236959	-0.911106	-0.387017
C43	C	0.159205	-0.865056	-0.341615
C44	C	0.165773	-0.868943	-0.250808
C45	C	0.208620	-0.894339	-0.658597
C46	C	0.202060	-0.890454	-0.749410
C47	C	0.364128	-0.986440	-0.749395
C48	C	0.370694	-0.990319	-0.658587
C49	C	0.292935	-0.944272	-0.613193
N50	N	0.230241	-0.907135	-0.479837
N51	N	0.299649	-0.948248	-0.520375
N52	N	0.279806	-0.936502	0.205194
H53	H	0.018604	-0.788828	-0.000061
H54	H	0.384581	-0.998540	-0.378563
H55	H	-0.086259	-0.657356	-0.000050
H56	H	-0.457493	-0.780974	-0.000085
H57	H	0.488347	-0.149934	-0.000112
N58	N	-0.339594	-0.634270	-0.000068
H59	H	-0.273182	-0.590062	-0.000059
H60	H	-0.389831	-0.632556	0.053408
H61	H	0.439348	-1.030984	-0.621620
H62	H	-0.368219	-1.055237	-0.000129
H63	H	-0.130170	-1.059169	-0.000126
H64	H	0.090548	-0.824402	-0.378595
N65	N	0.484913	-0.682259	-0.000073
H66	H	0.490485	-0.713539	-0.053548
H67	H	0.498149	-0.718076	0.053444
N68	N	0.447991	-1.036104	-0.798355
H69	H	0.431039	-1.026067	-0.862771
H70	H	0.430091	-1.093703	-0.782478
H71	H	0.434369	-0.525281	-0.000089
N72	N	0.538886	-0.306934	-0.000083
H73	H	0.605864	-0.263061	-0.000081
H74	H	0.544356	-0.338227	-0.053555
N75	N	0.045007	-0.173098	-0.000123
H76	H	-0.021975	-0.216968	-0.000127
H77	H	0.031821	-0.137228	-0.053602
H78	H	0.102464	-0.831445	-0.213848
H79	H	0.133401	-0.849786	-0.786381
H80	H	0.041561	-0.705433	-0.000092
N81	N	0.066930	-0.343215	-0.000132
H82	H	-0.009927	-0.310399	-0.000135
H83	H	0.070220	-0.379846	0.053346
N84	N	-0.008979	-0.548447	-0.000118
H85	H	0.000761	-0.489066	-0.000121
H86	H	-0.052851	-0.568854	0.053359
H87	H	0.396513	-1.005581	-0.213832
H88	H	0.145302	-0.856844	-0.621648
