data_functionalizedCrystal
_audit_creation_method	'MofGen! by Chris Wilmer'
_symmetry_space_group_name_H-M	'P1'
_symmetry_Int_Tables_number	1
_symmetry_cell_setting	triclinic
loop_
_symmetry_equiv_pos_as_xyz
  x,y,z
_cell_length_a	12.837943
_cell_length_b	11.892095
_cell_length_c	12.811415
_cell_angle_alpha	91.507040
_cell_angle_beta	89.411917
_cell_angle_gamma	94.310562
loop_
_atom_site_label
_atom_site_type_symbol
_atom_site_fract_x
_atom_site_fract_y
_atom_site_fract_z
O1	O	1.385142	0.121163	0.265180
O2	O	1.083182	0.119797	0.251783
O3	O	1.240668	0.104992	0.107445
O4	O	1.227656	0.135968	0.409518
O5	O	1.227537	-0.081783	0.119459
O6	O	1.070051	-0.066978	0.263797
O7	O	1.372010	-0.065612	0.277194
Zn8	Zn	1.218946	-0.095950	0.272403
Zn9	Zn	1.236247	0.150135	0.256574
O10	O	1.214524	-0.050807	0.421532
C11	C	1.037943	0.025946	0.253265
C12	C	0.922711	0.024565	0.239768
C13	C	0.683625	0.041188	0.402028
C14	C	0.575353	0.039890	0.389351
C15	C	0.597892	0.020663	0.201738
C16	C	0.706164	0.021961	0.214415
C17	C	0.749026	0.032226	0.314563
C18	C	0.857301	0.033532	0.327239
C19	C	0.879837	0.014297	0.139627
C20	C	0.771565	0.012999	0.126950
N21	N	1.207146	-0.263896	0.283206
C22	C	1.330162	-0.512101	0.170532
C23	C	1.321922	-0.629667	0.178091
C24	C	1.182421	-0.616598	0.305879
C25	C	1.190661	-0.499031	0.298319
C26	C	1.264535	-0.446787	0.230645
C27	C	1.272780	-0.329218	0.223091
C28	C	1.133274	-0.316151	0.350873
C29	C	1.125034	-0.433718	0.358432
C30	C	1.417249	0.028241	0.275712
C31	C	1.532482	0.029630	0.289209
N32	N	1.248054	0.318080	0.245764
C33	C	1.232971	0.007614	0.074520
C34	C	1.229587	-0.004274	-0.041488
C35	C	1.237526	0.177031	-0.272570
C36	C	1.234347	0.165866	-0.381570
C37	C	1.220041	-0.037769	-0.368491
C38	C	1.223221	-0.026604	-0.259491
C39	C	1.231965	0.080800	-0.211534
C40	C	1.235151	0.091964	-0.102532
C41	C	1.220839	-0.111670	-0.089455
C42	C	1.217659	-0.122835	-0.198455
C43	C	1.222222	0.046573	0.454458
C44	C	1.225606	0.058469	0.570465
H45	H	0.892197	0.041888	0.408784
C46	C	0.550729	0.009362	0.091588
H47	H	0.476879	0.009874	0.096570
H48	H	0.568528	-0.059508	0.059311
H49	H	0.577673	0.070765	0.050931
C50	C	1.247153	0.295163	-0.219809
H51	H	1.248257	0.288029	-0.146151
H52	H	1.189187	0.335375	-0.238408
H53	H	1.309972	0.334960	-0.242308
C54	C	0.951781	0.004439	0.043411
H55	H	1.022404	0.006678	0.065302
H56	H	0.943241	0.065409	-0.001394
H57	H	0.934093	-0.064865	0.006978
C58	C	1.061094	-0.244303	0.417013
H59	H	1.076580	-0.166801	0.402821
H60	H	1.071829	-0.256326	0.488994
H61	H	0.990342	-0.265445	0.400014
C62	C	1.210410	-0.155902	-0.421251
H63	H	1.207544	-0.211619	-0.369290
H64	H	1.269255	-0.164693	-0.465458
H65	H	1.148469	-0.164279	-0.461541
H66	H	0.736651	0.004629	0.045413
H67	H	1.375360	-0.682843	0.129140
C68	C	1.101166	-0.674081	0.380310
H69	H	1.105663	-0.753453	0.376202
H70	H	1.033124	-0.656698	0.360832
H71	H	1.114597	-0.647565	0.449824
C72	C	1.208040	-0.240971	-0.251209
H73	H	1.205178	-0.296684	-0.199244
H74	H	1.266890	-0.249757	-0.295411
H75	H	1.146103	-0.249361	-0.291503
H76	H	1.332934	-0.286682	0.167990
C77	C	0.730778	0.052488	0.512182
H78	H	0.676319	0.057638	0.562459
H79	H	0.777126	0.118527	0.516834
H80	H	0.767966	-0.011746	0.525218
H81	H	1.064884	-0.476269	0.413529
H82	H	1.242274	0.179417	-0.063488
H83	H	0.522106	0.047185	0.460575
C84	C	1.411421	-0.454628	0.096099
H85	H	1.449325	-0.510366	0.061377
H86	H	1.458264	-0.404464	0.134990
H87	H	1.376797	-0.413611	0.045992
H88	H	1.216314	-0.190028	-0.039748
H89	H	1.238872	0.244227	-0.431261
