data_functionalizedCrystal
_audit_creation_method	'MofGen! by Chris Wilmer'
_symmetry_space_group_name_H-M	'P1'
_symmetry_Int_Tables_number	1
_symmetry_cell_setting	triclinic
loop_
_symmetry_equiv_pos_as_xyz
  x,y,z
_cell_length_a	10.723024
_cell_length_b	10.489741
_cell_length_c	9.798715
_cell_angle_alpha	89.997135
_cell_angle_beta	89.996609
_cell_angle_gamma	84.503522
loop_
_atom_site_label
_atom_site_type_symbol
_atom_site_fract_x
_atom_site_fract_y
_atom_site_fract_z
O1	O	1.657297	0.178906	-0.113481
O2	O	2.157297	0.678906	0.386519
O3	O	1.294155	0.196031	-0.113486
O4	O	1.794155	0.696031	0.386514
O5	O	1.483989	0.001865	-0.113475
O6	O	1.983989	0.501865	0.386525
O7	O	1.467463	0.373072	-0.113492
O8	O	1.967463	0.873072	0.386508
O9	O	1.483975	0.001865	0.113507
O10	O	1.983975	0.501865	0.613507
O11	O	1.294141	0.196030	0.113496
O12	O	1.794141	0.696030	0.613496
O13	O	1.657283	0.178906	0.113501
O14	O	2.157283	0.678906	0.613501
Zn15	Zn	1.475709	0.187468	0.149537
Zn16	Zn	1.975709	0.687468	0.649537
Zn17	Zn	1.475728	0.187469	-0.149522
Zn18	Zn	1.975728	0.687469	0.350478
O19	O	1.467448	0.373071	0.113490
O20	O	1.967448	0.873071	0.613490
C21	C	1.247647	0.194785	0.000005
C22	C	1.747647	0.694785	0.500005
C23	C	1.109091	0.191056	0.000003
C24	C	1.609091	0.691056	0.500003
C25	C	1.034175	0.299701	-0.000003
C26	C	1.534175	0.799701	0.499997
C27	C	0.890969	0.295850	-0.000004
C28	C	1.390969	0.795850	0.499996
C29	C	1.482734	-0.045666	0.000015
C30	C	1.982734	0.454334	0.500015
C31	C	1.478999	-0.187293	0.000012
C32	C	1.978999	0.312707	0.500012
C33	C	1.358213	-0.255356	0.000001
C34	C	1.858213	0.244644	0.500001
C35	C	1.415265	-0.347515	0.111915
C36	C	1.915265	0.152485	0.611915
C37	C	1.415307	-0.347489	-0.111871
C38	C	1.915307	0.152511	0.388129
C39	C	1.536100	-0.277587	0.112019
C40	C	2.036100	0.222413	0.612019
C41	C	1.536126	-0.277551	-0.111868
C42	C	2.036126	0.222449	0.388132
C43	C	1.593265	-0.369683	0.000074
C44	C	2.093265	0.130317	0.500074
C45	C	1.703790	0.180152	0.000007
C46	C	2.203790	0.680152	0.500007
C47	C	1.842347	0.183881	-0.000000
C48	C	2.342347	0.683881	0.500000
C49	C	1.468704	0.420602	-0.000003
C50	C	1.968704	0.920602	0.499997
C51	C	1.472438	0.562229	-0.000009
C52	C	1.972438	1.062229	0.499991
N53	N	1.475706	0.187467	0.353637
N54	N	1.975706	0.687467	0.853637
N55	N	1.475742	0.187460	-0.353622
N56	N	1.975742	0.687460	0.146378
C57	C	1.555412	0.105583	0.421418
C58	C	2.055412	0.605583	0.921418
C59	C	1.555432	0.105578	0.578581
C60	C	2.055432	0.605578	1.078581
H61	H	1.067210	0.095190	-0.000028
H62	H	1.567210	0.595190	0.499972
H63	H	1.692663	-0.419171	0.000138
H64	H	2.192663	0.080829	0.500138
H65	H	1.623632	0.035476	0.363099
H66	H	2.123632	0.535476	0.863099
H67	H	1.364191	-0.378420	-0.206495
H68	H	1.864191	0.121580	0.293505
C69	C	1.224056	-0.188182	0.000153
C70	C	1.724056	0.311818	0.500153
N71	N	1.123012	-0.137583	0.000277
N72	N	1.623012	0.362417	0.500277
H73	H	0.826593	0.388858	-0.000015
H74	H	1.326593	0.888858	0.499985
H75	H	1.407476	0.257563	0.411957
H76	H	1.907476	0.757563	0.911957
H77	H	1.364151	-0.378494	0.206530
H78	H	1.864151	0.121506	0.706530
H79	H	1.623676	0.035479	0.636870
H80	H	2.123676	0.535479	1.136870
H81	H	1.587196	-0.246539	-0.206487
H82	H	2.087196	0.253461	0.293513
C83	C	1.383546	0.282174	0.567644
C84	C	1.883546	0.782174	1.067644
N85	N	1.314102	0.353512	0.508330
N86	N	1.814102	0.853512	1.008330
C87	C	0.929305	0.058220	0.000010
C88	C	1.429305	0.558220	0.500010
N89	N	0.994811	-0.036428	0.000021
N90	N	1.494811	0.463572	0.500021
C91	C	1.605071	-0.235982	0.239988
C92	C	2.105071	0.264018	0.739988
N93	N	1.657014	-0.204642	0.336376
N94	N	2.157014	0.295358	0.836376
H95	H	1.076055	0.395567	0.000001
H96	H	1.576055	0.895567	0.500001
