data_functionalizedCrystal
_audit_creation_method	'MofGen! by Chris Wilmer'
_symmetry_space_group_name_H-M	'P1'
_symmetry_Int_Tables_number	1
_symmetry_cell_setting	triclinic
loop_
_symmetry_equiv_pos_as_xyz
  x,y,z
_cell_length_a	10.654558
_cell_length_b	22.010155
_cell_length_c	10.654551
_cell_angle_alpha	89.992869
_cell_angle_beta	84.486839
_cell_angle_gamma	90.007915
loop_
_atom_site_label
_atom_site_type_symbol
_atom_site_fract_x
_atom_site_fract_y
_atom_site_fract_z
O1	O	1.667845	0.050513	0.176431
O2	O	2.167845	0.550513	0.676431
O3	O	1.302368	0.050515	0.193226
O4	O	1.802368	0.550515	0.693226
O5	O	1.493509	0.050514	0.002090
O6	O	1.993509	0.550514	0.502090
O7	O	1.476704	0.050514	0.367568
O8	O	1.976704	0.550514	0.867568
O9	O	1.493474	-0.050536	0.002118
O10	O	1.993474	0.449464	0.502118
O11	O	1.302333	-0.050535	0.193255
O12	O	1.802333	0.449465	0.693255
O13	O	1.667810	-0.050538	0.176460
O14	O	2.167810	0.449462	0.676460
Cu15	Cu	1.485068	-0.059763	0.184860
Cu16	Cu	1.985068	0.440237	0.684860
Cu17	Cu	1.485109	0.059741	0.184826
Cu18	Cu	1.985109	0.559741	0.684826
O19	O	1.476669	-0.050537	0.367596
O20	O	1.976669	0.449463	0.867596
C21	C	1.255553	-0.000010	0.192005
C22	C	1.755553	0.499990	0.692005
C23	C	1.116110	-0.000008	0.188309
C24	C	1.616110	0.499992	0.688309
N25	N	1.485049	-0.143816	0.184883
N26	N	1.985049	0.356184	0.684883
C27	C	0.919590	0.055074	0.183098
C28	C	1.419590	0.555074	0.683098
C29	C	1.050613	0.055075	0.186560
C30	C	1.550613	0.555075	0.686560
C31	C	1.050579	-0.055096	0.186584
C32	C	1.550579	0.444904	0.686584
C33	C	0.919560	-0.055096	0.183113
C34	C	1.419560	0.444904	0.683113
C35	C	0.854099	0.110161	0.181361
C36	C	1.354099	0.610161	0.681361
C37	C	0.919621	0.165249	0.183084
C38	C	1.419621	0.665249	0.683084
C39	C	1.050643	0.165249	0.186546
C40	C	1.550643	0.665249	0.686546
C41	C	1.116144	0.110162	0.188285
C42	C	1.616144	0.610162	0.688285
C43	C	1.569752	-0.563596	0.100203
C44	C	2.069752	-0.063596	0.600203
C45	C	1.569757	-0.627203	0.100195
C46	C	2.069757	-0.127203	0.600195
O47	O	1.641725	-0.660095	0.028212
O48	O	2.141725	-0.160095	0.528212
N49	N	1.485108	-0.659023	0.184800
N50	N	1.985108	-0.159023	0.684800
C51	C	1.400440	-0.627232	0.269411
C52	C	1.900440	-0.127232	0.769411
O53	O	1.328439	-0.660137	0.341372
O54	O	1.828439	-0.160137	0.841372
C55	C	1.400429	-0.563625	0.269412
C56	C	1.900429	-0.063625	0.769412
C57	C	1.485092	-0.531809	0.184810
C58	C	1.985092	-0.031809	0.684810
C59	C	1.654407	-0.531779	0.015607
C60	C	2.154407	-0.031779	0.515607
C61	C	1.654403	-0.468176	0.015617
C62	C	2.154403	0.031824	0.515617
C63	C	1.569743	-0.436389	0.100224
C64	C	2.069743	0.063611	0.600224
C65	C	1.485087	-0.468206	0.184820
C66	C	1.985087	0.031794	0.684820
C67	C	1.315755	-0.531835	0.354016
C68	C	1.815755	-0.031835	0.854016
C69	C	1.315751	-0.468224	0.354009
C70	C	1.815751	0.031776	0.854009
C71	C	1.400414	-0.436408	0.269407
C72	C	1.900414	0.063592	0.769407
C73	C	1.400423	-0.372815	0.269438
C74	C	1.900423	0.127185	0.769438
N75	N	1.485072	-0.340996	0.184832
N76	N	1.985072	0.159004	0.684832
C77	C	1.569732	-0.372783	0.100226
C78	C	2.069732	0.127217	0.600226
C79	C	1.400467	-0.760809	0.269400
C80	C	1.900467	-0.260809	0.769400
C81	C	1.400483	-0.824415	0.269405
C82	C	1.900483	-0.324415	0.769405
C83	C	1.569800	-0.824382	0.100187
C84	C	2.069800	-0.324382	0.600187
C85	C	1.569789	-0.760775	0.100188
C86	C	2.069789	-0.260775	0.600188
C87	C	1.485116	-0.728990	0.184794
C88	C	1.985116	-0.228990	0.684794
C89	C	1.569717	-0.239211	0.100255
C90	C	2.069717	0.260789	0.600255
C91	C	1.569708	-0.175602	0.100276
C92	C	2.069708	0.324398	0.600276
C93	C	1.400388	-0.175641	0.269489
C94	C	1.900388	0.324359	0.769489
C95	C	1.400400	-0.239244	0.269473
C96	C	1.900400	0.260756	0.769473
C97	C	1.485069	-0.271028	0.184845
C98	C	1.985069	0.228972	0.684845
O99	O	1.328489	-0.339883	0.341380
O100	O	1.828489	0.160117	0.841380
O101	O	1.641710	-0.339869	0.028265
O102	O	2.141710	0.160131	0.528265
C103	C	1.714625	-0.000012	0.177681
C104	C	2.214625	0.499988	0.677681
C105	C	1.854068	-0.000009	0.181377
C106	C	2.354068	0.499991	0.681377
C107	C	1.492257	-0.000010	-0.044694
C108	C	1.992257	0.499990	0.455306
C109	C	1.488565	-0.000006	-0.184137
C110	C	1.988565	0.499994	0.315863
N111	N	1.485139	0.143793	0.184793
N112	N	1.985139	0.643793	0.684793
C113	C	1.486851	0.055076	-0.249665
C114	C	1.986851	0.555076	0.250335
C115	C	1.483371	0.055073	-0.380685
C116	C	1.983371	0.555073	0.119315
C117	C	1.483323	-0.055097	-0.380640
C118	C	1.983323	0.444903	0.119360
C119	C	1.486794	-0.055094	-0.249620
C120	C	1.986794	0.444906	0.250380
C121	C	1.488622	0.110164	-0.184182
C122	C	1.988622	0.610164	0.315818
C123	C	1.486910	0.165250	-0.249709
C124	C	1.986910	0.665250	0.250291
C125	C	1.483430	0.165248	-0.380730
C126	C	1.983430	0.665248	0.119270
C127	C	1.481661	0.110159	-0.446222
C128	C	1.981661	0.610159	0.053778
C129	C	1.477921	-0.000012	0.414380
C130	C	1.977921	0.499988	0.914380
C131	C	1.481613	-0.000012	0.553823
C132	C	1.981613	0.499988	1.053823
H133	H	0.747413	0.110167	0.178547
H134	H	1.247413	0.610167	0.678547
Cl135	Cl	1.676162	-0.279158	-0.006134
Cl136	Cl	2.176162	0.220842	0.493866
H137	H	0.866283	0.210098	0.181659
H138	H	1.366283	0.710098	0.681659
Cl139	Cl	1.493003	0.110172	-0.019471
Cl140	Cl	1.993003	0.610172	0.480529
Cl141	Cl	1.760851	-0.571729	-0.090770
Cl142	Cl	2.260851	-0.071729	0.409230
Cl143	Cl	1.676224	-0.720785	-0.006175
Cl144	Cl	2.176224	-0.220785	0.493825
H145	H	1.103919	-0.099945	0.188003
H146	H	1.603919	0.400055	0.688003
Cl147	Cl	1.133013	0.234501	0.188695
Cl148	Cl	1.633013	0.734501	0.688695
Cl149	Cl	1.280862	0.110165	0.192618
Cl150	Cl	1.780862	0.610165	0.692618
H151	H	1.488162	-0.099946	-0.196263
H152	H	1.988162	0.400054	0.303737
Cl153	Cl	0.837185	-0.124344	0.180931
Cl154	Cl	1.337185	0.375656	0.680931
H155	H	1.638656	-0.149700	0.031383
H156	H	2.138656	0.350300	0.531383
Cl157	Cl	1.760832	-0.428185	-0.090752
Cl158	Cl	2.260832	0.071815	0.409248
Cl159	Cl	1.481264	0.234497	-0.463103
Cl160	Cl	1.981264	0.734497	0.036897
Cl161	Cl	1.676226	-0.864356	-0.006179
Cl162	Cl	2.176226	-0.364356	0.493821
Cl163	Cl	1.294062	-0.864405	0.375783
Cl164	Cl	1.794062	-0.364405	0.875783
Cl165	Cl	1.294021	-0.720856	0.375782
Cl166	Cl	1.794021	-0.220856	0.875782
H167	H	1.246814	-0.557731	0.422906
H168	H	1.746814	-0.057731	0.922906
H169	H	1.246796	-0.442347	0.422904
H170	H	1.746796	0.057653	0.922904
Cl171	Cl	1.489130	0.234501	-0.167378
Cl172	Cl	1.989130	0.734501	0.332622
Cl173	Cl	1.293976	-0.279240	0.375847
Cl174	Cl	1.793976	0.220760	0.875847
H175	H	1.331462	-0.149750	0.338379
H176	H	1.831462	0.350250	0.838379
H177	H	1.478809	0.110161	-0.552906
H178	H	1.978809	0.610161	-0.052906
Cl179	Cl	1.481103	-0.124347	-0.462975
Cl180	Cl	1.981103	0.375653	0.037025
