data_functionalizedCrystal
_audit_creation_method	'MofGen! by Chris Wilmer'
_symmetry_space_group_name_H-M	'P1'
_symmetry_Int_Tables_number	1
_symmetry_cell_setting	triclinic
loop_
_symmetry_equiv_pos_as_xyz
  x,y,z
_cell_length_a	14.044220
_cell_length_b	16.992695
_cell_length_c	15.455313
_cell_angle_alpha	87.152573
_cell_angle_beta	87.075622
_cell_angle_gamma	88.071450
loop_
_atom_site_label
_atom_site_type_symbol
_atom_site_fract_x
_atom_site_fract_y
_atom_site_fract_z
O1	O	1.276018	-0.186887	-0.072131
O2	O	0.999530	-0.180030	-0.072133
O3	O	1.136665	-0.069239	-0.072125
O4	O	1.138883	-0.297678	-0.072139
O5	O	1.128821	-0.075546	0.072137
O6	O	0.991685	-0.186337	0.072129
O7	O	1.268174	-0.193194	0.072131
Cu8	Cu	1.129213	-0.190341	0.085302
Cu9	Cu	1.138490	-0.182883	-0.085304
O10	O	1.131038	-0.303985	0.072123
C11	C	0.960066	-0.180181	-0.000002
C12	C	0.854162	-0.171227	-0.000003
C13	C	1.129891	-0.042980	0.000006
C14	C	1.121383	0.044659	0.000006
C15	C	1.307638	-0.193043	-0.000002
C16	C	1.413542	-0.201997	-0.000007
C17	C	1.607444	-0.218367	-0.000007
C18	C	1.660266	-0.154861	-0.000003
C19	C	1.768160	-0.163969	-0.000003
C20	C	1.499540	-0.209259	-0.000007
C21	C	1.137812	-0.330244	-0.000010
C22	C	1.146321	-0.417883	-0.000015
N23	N	1.122696	-0.195588	0.205297
C24	C	1.203479	0.089157	0.000007
C25	C	1.195479	0.171504	-0.000001
C26	C	1.105382	0.209350	-0.000005
C27	C	1.023279	0.164846	-0.000009
C28	C	1.031280	0.082502	-0.000007
C29	C	1.072220	0.455268	-0.000017
C30	C	1.064225	0.537619	-0.000016
C31	C	1.236426	0.544271	-0.000010
C32	C	1.244419	0.461924	-0.000003
C33	C	1.162317	0.417427	-0.000012
N34	N	1.097202	0.293522	-0.000011
N35	N	1.170497	0.333258	-0.000012
N36	N	1.145015	-0.177631	-0.205299
C37	C	1.180979	-0.148540	0.250695
C38	C	1.176059	-0.152515	0.341502
C39	C	1.112860	-0.203543	0.386911
C40	C	1.054571	-0.250592	0.341507
C41	C	1.059486	-0.246612	0.250701
C42	C	1.091641	-0.220700	0.658491
C43	C	1.086732	-0.224678	0.749303
C44	C	1.208219	-0.126600	0.749293
C45	C	1.213133	-0.122628	0.658485
C46	C	1.154840	-0.169674	0.613089
N47	N	1.107832	-0.207609	0.479731
N48	N	1.159864	-0.165603	0.520271
H49	H	1.624462	-0.093648	-0.000062
H50	H	1.223517	-0.114205	0.378465
N51	N	0.983670	0.407281	-0.000023
H52	H	0.925382	0.443754	-0.000021
H53	H	0.980330	0.370635	0.053457
N54	N	1.018572	-0.279717	0.798292
H55	H	1.034633	-0.335745	0.782476
H56	H	0.951129	-0.265118	0.782499
H57	H	1.643250	-0.279572	-0.000011
N58	N	1.324975	0.592263	0.000000
H59	H	1.306239	0.650171	-0.000001
H60	H	1.366881	0.581657	-0.053478
N61	N	1.284026	0.219499	0.000005
H62	H	1.342315	0.183028	0.000016
H63	H	1.281540	0.251475	0.053485
N64	N	0.926100	0.205662	-0.000019
H65	H	0.933487	0.264579	-0.000017
H66	H	0.886993	0.187478	0.053460
H67	H	0.990852	0.568430	-0.000005
N68	N	1.249149	-0.093508	0.201722
H69	H	1.285323	-0.064306	0.244264
H70	H	1.212071	-0.054439	0.164059
H71	H	1.317786	0.431115	0.000000
N72	N	1.300657	0.048340	0.000019
H73	H	1.351450	0.089028	0.000018
H74	H	1.310637	0.016653	-0.053458
H75	H	1.044178	-0.259009	0.621537
H76	H	0.964428	0.046272	-0.000008
H77	H	1.264595	-0.081078	0.621515
H78	H	1.255678	-0.088296	0.786262
N79	N	0.986398	-0.305624	0.390478
H80	H	0.992128	-0.301008	0.454893
H81	H	1.002495	-0.361625	0.374592
N82	N	0.996620	-0.297351	0.201732
H83	H	0.955837	-0.330281	0.244275
H84	H	1.037774	-0.333118	0.164039
