data_functionalizedCrystal
_audit_creation_method	'MofGen! by Chris Wilmer'
_symmetry_space_group_name_H-M	'P1'
_symmetry_Int_Tables_number	1
_symmetry_cell_setting	triclinic
loop_
_symmetry_equiv_pos_as_xyz
  x,y,z
_cell_length_a	16.109302
_cell_length_b	16.053789
_cell_length_c	16.109301
_cell_angle_alpha	87.109773
_cell_angle_beta	96.538369
_cell_angle_gamma	92.890911
loop_
_atom_site_label
_atom_site_type_symbol
_atom_site_fract_x
_atom_site_fract_y
_atom_site_fract_z
O1	O	1.106259	0.069470	-0.109997
O2	O	1.439593	0.402803	0.223336
O3	O	1.772926	0.736137	0.556669
O4	O	0.864197	0.069464	-0.123296
O5	O	1.197530	0.402797	0.210038
O6	O	1.530864	0.736131	0.543371
O7	O	0.991877	0.069459	0.004385
O8	O	1.325211	0.402792	0.337718
O9	O	1.658544	0.736125	0.671052
O10	O	0.978579	0.069475	-0.237678
O11	O	1.311912	0.402809	0.095656
O12	O	1.645246	0.736142	0.428989
O13	O	0.985615	-0.069401	0.010640
O14	O	1.318948	0.263932	0.343973
O15	O	1.652281	0.597265	0.677306
O16	O	0.857934	-0.069396	-0.117041
O17	O	1.191267	0.263937	0.216292
O18	O	1.524601	0.597271	0.549626
O19	O	1.099996	-0.069390	-0.103743
O20	O	1.433330	0.263943	0.229591
O21	O	1.766663	0.597277	0.562924
Zn22	Zn	0.977971	-0.091440	-0.109399
Zn23	Zn	1.311304	0.241893	0.223935
Zn24	Zn	1.644638	0.575227	0.557268
Zn25	Zn	0.986223	0.091514	-0.117640
Zn26	Zn	1.319556	0.424847	0.215694
Zn27	Zn	1.652889	0.758181	0.549027
O28	O	0.972316	-0.069385	-0.231423
O29	O	1.305649	0.263949	0.101910
O30	O	1.638983	0.597282	0.435244
C31	C	0.830091	0.000033	-0.119629
C32	C	1.163424	0.333366	0.213704
C33	C	1.496757	0.666700	0.547037
C34	C	0.737795	0.000030	-0.118014
C35	C	1.071129	0.333364	0.215319
C36	C	1.404462	0.666697	0.548653
C37	C	0.522041	-0.075654	-0.110870
C38	C	0.855374	0.257679	0.222464
C39	C	1.188708	0.591012	0.555797
C40	C	0.435321	-0.075651	-0.109343
C41	C	0.768654	0.257682	0.223990
C42	C	1.101988	0.591015	0.557324
C43	C	0.442160	0.075741	-0.116167
C44	C	0.775493	0.409075	0.217167
C45	C	1.108826	0.742408	0.550500
C46	C	0.528879	0.075738	-0.117687
C47	C	0.862212	0.409071	0.215646
C48	C	1.195545	0.742404	0.548979
C49	C	0.568816	0.000037	-0.115043
C50	C	0.902150	0.333371	0.218291
C51	C	1.235483	0.666704	0.551624
C52	C	0.395377	0.000044	-0.111996
C53	C	0.728711	0.333377	0.221338
C54	C	1.062044	0.666711	0.554671
C55	C	0.301352	0.000047	-0.110340
C56	C	0.634685	0.333381	0.222993
C57	C	0.968018	0.666714	0.556326
C58	C	0.662848	0.000033	-0.116697
C59	C	0.996181	0.333367	0.216637
C60	C	1.329515	0.666700	0.549970
N61	N	0.972345	-0.216301	-0.103774
N62	N	1.305679	0.117032	0.229559
N63	N	1.639012	0.450365	0.562893
C64	C	1.020786	-0.259987	-0.152250
C65	C	1.354119	0.073346	0.181084
C66	C	1.687453	0.406680	0.514417
C67	C	1.016862	-0.347394	-0.148310
C68	C	1.350195	-0.014061	0.185024
C69	C	1.683529	0.319272	0.518357
C70	C	0.964493	-0.391115	-0.095898
C71	C	1.297826	-0.057781	0.237436
C72	C	1.631159	0.275552	0.570769
C73	C	0.916050	-0.347423	-0.047417
C74	C	1.249384	-0.014090	0.285917
C75	C	1.582717	0.319244	0.619250
C76	C	0.919979	-0.260017	-0.051353
C77	C	1.253313	0.073316	0.281981
C78	C	1.586646	0.406650	0.615314
C79	C	0.947341	-0.652527	-0.078713
C80	C	1.280675	-0.319194	0.254621
C81	C	1.614008	0.014139	0.587954
C82	C	0.943414	-0.739939	-0.074782
C83	C	1.276747	-0.406606	0.258551
C84	C	1.610081	-0.073272	0.591885
C85	C	1.044227	-0.739905	-0.175674
C86	C	1.377561	-0.406571	0.157659
C87	C	1.710894	-0.073238	0.490992
C88	C	1.048148	-0.652497	-0.179609
C89	C	1.381481	-0.319164	0.153724
C90	C	1.714815	0.014170	0.487057
C91	C	0.999709	-0.608813	-0.131125
C92	C	1.333042	-0.275480	0.202208
C93	C	1.666376	0.057854	0.535542
N94	N	0.960478	-0.480459	-0.091871
N95	N	1.293812	-0.147126	0.241462
N96	N	1.627145	0.186208	0.574796
N97	N	1.003728	-0.519470	-0.135148
N98	N	1.337061	-0.186137	0.198186
N99	N	1.670395	0.147197	0.531519
C100	C	1.134103	0.000043	-0.107409
C101	C	1.467436	0.333376	0.225925
C102	C	1.800769	0.666709	0.559258
C103	C	1.226398	0.000051	-0.109025
C104	C	1.559732	0.333384	0.224309
C105	C	1.893065	0.666718	0.557642
C106	C	0.988207	0.000028	0.038487
C107	C	1.321541	0.333362	0.371821
C108	C	1.654874	0.666695	0.705154
C109	C	0.986592	0.000027	0.130783
C110	C	1.319925	0.333360	0.464116
C111	C	1.653259	0.666694	0.797449
N112	N	0.991855	0.216375	-0.123258
N113	N	1.325188	0.549709	0.210076
N114	N	1.658521	0.883042	0.543409
C115	C	0.975986	0.000048	-0.265525
C116	C	1.309320	0.333381	0.067808
C117	C	1.642653	0.666714	0.401141
C118	C	0.977602	0.000054	-0.357821
C119	C	1.310935	0.333388	-0.024488
C120	C	1.644268	0.666721	0.308846
C121	C	1.058600	0.000042	0.353054
C122	C	1.391934	0.333375	0.686387
C123	C	1.725267	0.666709	1.019721
C124	C	1.057077	0.000049	0.439774
C125	C	1.390410	0.333382	0.773107
C126	C	1.723743	0.666716	1.106441
C127	C	0.905588	0.000042	0.419901
C128	C	1.238921	0.333375	0.753234
C129	C	1.572254	0.666708	1.086567
C130	C	0.907113	0.000041	0.333182
C131	C	1.240446	0.333374	0.666515
C132	C	1.573779	0.666708	0.999849
C133	C	0.983621	0.000037	0.299761
C134	C	1.316955	0.333370	0.633095
C135	C	1.650288	0.666703	0.966428
C136	C	0.980573	0.000044	0.473200
C137	C	1.313906	0.333378	0.806533
C138	C	1.647239	0.666711	1.139867
C139	C	0.978920	0.000052	0.567226
C140	C	1.312253	0.333385	0.900559
C141	C	1.645587	0.666719	1.233893
C142	C	0.985274	0.000031	0.205730
C143	C	1.318608	0.333364	0.539063
C144	C	1.651941	0.666698	0.872396
H145	H	0.566965	0.137379	-0.121083
H146	H	0.900298	0.470712	0.212250
H147	H	1.233632	0.804045	0.545583
C148	C	1.120046	-0.268741	-0.251574
C149	C	1.453379	0.064592	0.081759
C150	C	1.786712	0.397925	0.415092
C151	C	1.078354	-0.211934	-0.209862
C152	C	1.411687	0.121400	0.123471
C153	C	1.745021	0.454733	0.456805
H154	H	1.155591	-0.239075	-0.287137
H155	H	1.488925	0.094258	0.046197
H156	H	1.822258	0.427592	0.379530
H157	H	1.080243	-0.302834	-0.284095
H158	H	1.413576	0.030499	0.049239
H159	H	1.746909	0.363833	0.382572
H160	H	1.152590	-0.302832	-0.211777
H161	H	1.485923	0.030501	0.121556
H162	H	1.819256	0.363835	0.454890
H163	H	1.045805	-0.177847	-0.249659
H164	H	1.379138	0.155486	0.083674
H165	H	1.712472	0.488820	0.417008
H166	H	1.118162	-0.177827	-0.177340
H167	H	1.451496	0.155507	0.155994
H168	H	1.784829	0.488840	0.489327
C169	C	0.919241	-0.161738	0.056048
C170	C	1.252574	0.171595	0.389382
C171	C	1.585908	0.504929	0.722715
C172	C	0.866730	-0.211995	0.001932
C173	C	1.200063	0.121339	0.335265
C174	C	1.533397	0.454672	0.668598
H175	H	0.886367	-0.132096	0.088949
H176	H	1.219700	0.201237	0.422283
H177	H	1.553033	0.534570	0.755616
H178	H	0.950985	-0.123196	0.024270
H179	H	1.284318	0.210137	0.357604
H180	H	1.617651	0.543470	0.690937
H181	H	0.955976	-0.195842	0.091637
H182	H	1.289309	0.137491	0.424970
H183	H	1.622642	0.470824	0.758304
H184	H	0.830000	-0.177889	-0.033662
H185	H	1.163333	0.155444	0.299672
H186	H	1.496666	0.488777	0.633005
H187	H	0.834972	-0.250541	0.033712
H188	H	1.168306	0.082793	0.367046
H189	H	1.501639	0.416126	0.700379
H190	H	1.056309	-0.382959	-0.187782
H191	H	1.389642	-0.049626	0.145551
H192	H	1.722976	0.283707	0.478885
H193	H	1.118133	0.000055	0.483162
H194	H	1.451466	0.333388	0.816495
H195	H	1.784799	0.666722	1.149829
C196	C	0.651938	-0.142885	-0.110175
C197	C	0.985271	0.190449	0.223158
C198	C	1.318605	0.523782	0.556492
C199	C	0.565944	-0.158862	-0.107955
C200	C	0.899277	0.174472	0.225378
C201	C	1.232610	0.507805	0.558712
H202	H	0.679037	-0.194256	-0.108379
H203	H	1.012371	0.139077	0.224955
H204	H	1.345704	0.472410	0.558288
H205	H	0.673904	-0.111790	-0.063376
H206	H	1.007238	0.221544	0.269957
H207	H	1.340571	0.554877	0.603291
H208	H	0.661191	-0.111784	-0.160285
H209	H	0.994525	0.221550	0.173048
H210	H	1.327858	0.554883	0.506382
H211	H	0.556690	-0.189958	-0.057842
H212	H	0.890023	0.143376	0.275492
H213	H	1.223356	0.476709	0.608825
H214	H	0.543970	-0.189970	-0.154758
H215	H	0.877303	0.143363	0.178575
H216	H	1.210637	0.476696	0.511908
H217	H	0.843297	0.000043	0.447122
H218	H	1.176630	0.333377	0.780456
H219	H	1.509963	0.666710	1.113789
C220	C	0.757212	0.000025	0.322241
C221	C	1.090545	0.333359	0.655574
C222	C	1.423879	0.666692	0.988907
C223	C	0.824689	0.000032	0.274595
C224	C	1.158022	0.333365	0.607928
C225	C	1.491355	0.666699	0.941262
H226	H	0.706331	0.000017	0.286070
H227	H	1.039664	0.333350	0.619404
H228	H	1.372997	0.666684	0.952737
H229	H	0.761948	0.048446	0.354291
H230	H	1.095281	0.381779	0.687624
H231	H	1.428614	0.715113	1.020957
H232	H	0.757590	-0.048402	0.358665
H233	H	1.090923	0.284932	0.691998
H234	H	1.424256	0.618265	1.025331
H235	H	0.824315	0.048462	0.238175
H236	H	1.157648	0.381796	0.571509
H237	H	1.490981	0.715129	0.904842
H238	H	0.819951	-0.048394	0.242531
H239	H	1.153285	0.284940	0.575864
H240	H	1.486618	0.618273	0.909198
H241	H	0.409631	0.137374	-0.118320
H242	H	0.742965	0.470707	0.215013
H243	H	1.076298	0.804040	0.548346
H244	H	0.397240	-0.137287	-0.105945
H245	H	0.730573	0.196046	0.227388
H246	H	1.063906	0.529380	0.560722
H247	H	1.120899	0.000041	0.325846
H248	H	1.454232	0.333374	0.659180
H249	H	1.787565	0.666707	0.992513
H250	H	0.900764	-0.775534	-0.032102
H251	H	1.234098	-0.442200	0.301231
H252	H	1.567431	-0.108867	0.634565
H253	H	1.090795	-0.616906	-0.222286
H254	H	1.424128	-0.283573	0.111047
H255	H	1.757462	0.049761	0.444380
H256	H	1.083664	-0.775482	-0.215147
H257	H	1.416997	-0.442148	0.118187
H258	H	1.750331	-0.108815	0.451520
C259	C	0.847290	-0.661353	0.021399
C260	C	1.180623	-0.328020	0.354732
C261	C	1.513956	0.005313	0.688066
C262	C	0.894089	-0.604517	-0.025427
C263	C	1.227423	-0.271184	0.307906
C264	C	1.560756	0.062150	0.641239
H265	H	0.814409	-0.631709	0.054291
H266	H	1.147742	-0.298376	0.387625
H267	H	1.481075	0.034957	0.720958
H268	H	0.884028	-0.695439	0.056989
H269	H	1.217362	-0.362106	0.390322
H270	H	1.550695	-0.028773	0.723655
H271	H	0.811682	-0.695448	-0.015330
H272	H	1.145016	-0.362115	0.318004
H273	H	1.478349	-0.028782	0.651337
H274	H	0.929701	-0.570426	0.011302
H275	H	1.263035	-0.237093	0.344635
H276	H	1.596368	0.096241	0.677969
H277	H	0.857347	-0.570417	-0.061020
H278	H	1.190680	-0.237084	0.272313
H279	H	1.524013	0.096250	0.605646
H280	H	0.873414	-0.383027	-0.004738
H281	H	1.206748	-0.049694	0.328596
H282	H	1.540081	0.283640	0.661929
