data_functionalizedCrystal
_audit_creation_method	'MofGen! by Chris Wilmer'
_symmetry_space_group_name_H-M	'P1'
_symmetry_Int_Tables_number	1
_symmetry_cell_setting	triclinic
loop_
_symmetry_equiv_pos_as_xyz
  x,y,z
_cell_length_a	27.440280
_cell_length_b	21.606444
_cell_length_c	27.440280
_cell_angle_alpha	119.992844
_cell_angle_beta	89.993636
_cell_angle_gamma	59.997270
loop_
_atom_site_label
_atom_site_type_symbol
_atom_site_fract_x
_atom_site_fract_y
_atom_site_fract_z
Zr1	Zr	0.469497	0.677368	0.063873
O2	O	0.391678	0.806486	0.141690
O3	O	0.493353	0.548250	0.040021
O4	O	0.493354	0.677353	0.141680
O5	O	0.391676	0.677395	-0.040163
O6	O	0.573556	0.677341	0.141670
O7	O	0.391677	0.677383	0.040030
O8	O	0.573556	0.446399	-0.040180
O9	O	0.391677	0.908337	0.141687
O10	O	0.563381	0.601349	0.029838
O11	O	0.503526	0.601367	-0.030002
O12	O	0.503526	0.753369	0.089689
O13	O	0.443671	0.753387	0.029849
Zr14	Zr	0.597409	0.677368	-0.064042
Zr15	Zr	0.597411	0.677349	0.063857
Zr16	Zr	0.469495	0.677387	-0.064026
Zr17	Zr	0.469495	0.839808	0.063869
Zr18	Zr	0.597410	0.514928	-0.064038
O19	O	0.573553	0.806487	-0.040189
O20	O	0.573555	0.806459	0.141667
O21	O	0.391675	0.806514	-0.040166
O22	O	0.675228	0.548250	-0.141858
O23	O	0.675231	0.548223	0.039998
O24	O	0.493351	0.548277	-0.141835
O25	O	0.675230	0.677341	0.039995
O26	O	0.573552	0.677383	-0.141849
O27	O	0.493349	0.677395	-0.141839
O28	O	0.675228	0.677353	-0.040199
O29	O	0.493352	0.908322	0.141674
O30	O	0.573554	0.446414	-0.141843
O31	O	0.675229	0.446399	-0.141855
O32	O	0.675230	0.446384	-0.040193
O33	O	0.391675	0.908352	0.040024
O34	O	0.493350	0.908337	0.040012
O35	O	0.563379	0.601367	-0.089857
O36	O	0.623235	0.601349	-0.030017
O37	O	0.563380	0.753369	0.029834
O38	O	0.503525	0.753387	-0.030006
C39	C	0.533455	0.474180	-0.000079
C40	C	0.533455	0.405220	-0.000077
C41	C	0.373452	0.677392	-0.000064
C42	C	0.319149	0.677400	-0.000057
C43	C	0.564698	0.372813	0.031159
C44	C	0.564700	0.308013	0.031155
C45	C	0.533456	0.275626	-0.000082
C46	C	0.502212	0.308035	-0.031323
C47	C	0.502214	0.372830	-0.031322
C48	C	0.502205	0.046726	-0.031328
C49	C	0.502204	-0.018071	-0.031325
C50	C	0.564691	-0.018091	0.031150
C51	C	0.564693	0.046704	0.031151
C52	C	0.533452	0.079104	-0.000092
C53	C	0.533451	0.149367	-0.000089
C54	C	0.533453	0.205369	-0.000083
C55	C	0.013695	0.598001	-0.031342
C56	C	-0.037324	0.597996	-0.031347
O57	O	-0.037140	0.530509	-0.057935
N58	N	-0.094084	0.677348	-0.000105
C59	C	-0.099825	0.756710	0.031139
O60	O	-0.152789	0.824205	0.057712
C61	C	-0.048807	0.756714	0.031141
C62	C	0.007952	0.677357	-0.000099
C63	C	0.070452	0.518650	-0.062579
C64	C	0.121467	0.518655	-0.062573
C65	C	0.115724	0.598011	-0.031330
C66	C	0.058967	0.677362	-0.000092
C67	C	-0.054549	0.836075	0.062381
C68	C	-0.003525	0.836072	0.062380
C69	C	0.053235	0.756715	0.031141
C70	C	0.104240	0.756723	0.031158
N71	N	0.161000	0.677371	-0.000084
C72	C	0.166742	0.598015	-0.031328
C73	C	-0.206964	0.756696	0.031133
C74	C	-0.257981	0.756693	0.031135
C75	C	-0.195476	0.597978	-0.031352
C76	C	-0.144458	0.597982	-0.031351
C77	C	-0.150204	0.677344	-0.000109
C78	C	0.273875	0.598032	-0.031312
C79	C	0.324891	0.598044	-0.031301
C80	C	0.262382	0.756758	0.031184
C81	C	0.211370	0.756746	0.031176
C82	C	0.217120	0.677376	-0.000077
O83	O	0.104102	0.824175	0.057730
O84	O	0.219708	0.530532	-0.057903
C85	C	0.693454	0.677344	-0.000104
C86	C	0.747757	0.677336	-0.000111
C87	C	0.533455	0.677344	0.159898
C88	C	0.533456	0.677336	0.214195
C89	C	0.533451	0.880556	-0.000089
C90	C	0.533451	0.949516	-0.000091
C91	C	0.564704	0.598001	0.417661
C92	C	0.564706	0.597996	0.366639
O93	O	0.591295	0.530509	0.313681
N94	N	0.533460	0.677348	0.372363
C95	C	0.502214	0.756710	0.429114
O96	O	0.475638	0.824205	0.429298
C97	C	0.502216	0.756714	0.480135
C98	C	0.533459	0.677357	0.474406
C99	C	0.595945	0.518650	0.411935
C100	C	0.595942	0.518655	0.462954
C101	C	0.564697	0.598011	0.519699
C102	C	0.533456	0.677362	0.525425
C103	C	0.470975	0.836075	0.536885
C104	C	0.470979	0.836072	0.587907
C105	C	0.502223	0.756715	0.582178
C106	C	0.502208	0.756723	0.633189
N107	N	0.533455	0.677371	0.627465
C108	C	0.564699	0.598015	0.570720
C109	C	0.502214	0.756696	0.321964
C110	C	0.502209	0.756693	0.270945
C111	C	0.564701	0.597978	0.208473
C112	C	0.564703	0.597982	0.259494
C113	C	0.533460	0.677344	0.316240
C114	C	0.564690	0.598032	0.677866
C115	C	0.564682	0.598044	0.728892
C116	C	0.502192	0.756758	0.791359
C117	C	0.502197	0.756746	0.740338
C118	C	0.533450	0.677376	0.683589
O119	O	0.475636	0.824175	0.686166
O120	O	0.591278	0.530532	0.570547
C121	C	0.533447	0.677392	0.839934
C122	C	0.533437	0.677400	0.785637
C123	C	0.693456	0.474156	-0.000099
C124	C	0.747759	0.405188	-0.000104
C125	C	0.533452	0.474204	-0.160061
C126	C	0.533452	0.405252	-0.214356
C127	C	0.693453	0.474180	-0.160081
C128	C	0.747756	0.405220	-0.214383
C129	C	0.373452	0.880556	0.159913
C130	C	0.319150	0.949516	0.214215
C131	C	0.373450	0.880580	-0.000069
C132	C	0.319147	0.949548	-0.000064
C133	C	0.533454	0.880532	0.159893
C134	C	0.533454	0.949484	0.214188
C135	C	0.742018	0.372800	0.031143
C136	C	0.793037	0.308006	0.031150
C137	C	0.849797	0.275597	-0.000093
C138	C	0.855537	0.307992	-0.031341
C139	C	0.804518	0.372789	-0.031344
C140	C	0.564695	0.372872	-0.271102
C141	C	0.564692	0.308093	-0.322123
C142	C	0.533450	0.275692	-0.316396
C143	C	0.502204	0.308078	-0.259644
C144	C	0.502203	0.372860	-0.208624
C145	C	0.804506	0.372827	-0.208648
C146	C	0.855534	0.308040	-0.259665
C147	C	0.849811	0.275644	-0.316417
C148	C	0.793055	0.308044	-0.322151
C149	C	0.742028	0.372834	-0.271134
C150	C	0.262399	0.981918	0.208479
C151	C	0.211371	1.046724	0.259497
C152	C	0.217095	1.079123	0.316248
C153	C	0.273851	1.046719	0.321983
C154	C	0.324878	0.981918	0.270966
C155	C	0.324888	0.981943	-0.031306
C156	C	0.273869	1.046755	-0.031299
C157	C	0.217109	1.079166	-0.000054
C158	C	0.211369	1.046769	0.031192
C159	C	0.262387	0.981962	0.031188
C160	C	0.564702	0.981865	0.208442
C161	C	0.564714	1.046644	0.259452
C162	C	0.533474	1.079046	0.316209
C163	C	0.502224	1.046659	0.321954
C164	C	0.502216	0.981876	0.270944
H165	H	0.590137	0.399183	0.056600
H166	H	0.476767	0.281688	-0.254989
H167	H	0.695806	0.399187	0.056592
Br168	Br	-0.131570	0.943782	0.104775
H169	H	0.165148	1.073168	0.056630
Br170	Br	0.459804	0.864446	0.748111
H171	H	0.476760	-0.044440	-0.056764
H172	H	0.533456	0.222942	-0.357944
H173	H	0.278504	1.073107	0.368196
Br174	Br	0.459789	0.864396	0.278728
H175	H	0.891365	0.222888	-0.357953
H176	H	0.175541	1.131888	0.357785
H177	H	0.476769	0.073096	-0.056770
H178	H	0.788351	0.281638	0.056595
Br179	Br	0.459820	0.264066	-0.073729
Br180	Br	0.607104	0.937906	0.131421
H181	H	-0.098245	0.533362	-0.056794
Br182	Br	0.401895	0.937948	0.278760
Br183	Br	0.459815	0.416807	-0.073720
H184	H	0.371108	0.533419	-0.056742
Br185	Br	-0.187692	0.490280	-0.073754
Br186	Br	0.638348	0.410950	0.455169
H187	H	0.901743	0.281667	-0.254985
H188	H	0.788403	0.281658	-0.368365
H189	H	0.590142	0.533362	0.162260
H190	H	0.590132	0.073075	0.056589
H191	H	0.075138	0.454025	-0.088025
Br192	Br	0.281687	0.490315	-0.073726
H193	H	0.695821	0.399201	-0.275812
Br194	Br	0.401913	0.937974	-0.073713
H195	H	0.533485	1.131796	0.357740
Br196	Br	0.254615	0.937959	0.131465
Br197	Br	0.134353	1.090686	0.251701
Br198	Br	0.459800	0.416794	-0.131613
H199	H	0.476752	0.821368	0.837569
Br200	Br	0.254584	0.938002	0.073588
H201	H	0.891334	0.222834	-0.000086
Br202	Br	0.198492	0.410950	-0.104976
H203	H	-0.304194	0.821314	0.056581
H204	H	0.165152	0.821365	0.056621
H205	H	0.590160	1.073007	0.254763
H206	H	0.809178	0.399194	-0.162442
Br207	Br	0.281673	1.090708	-0.073707
Br208	Br	0.932573	0.263996	-0.073742
Br209	Br	0.607083	0.490338	0.721111
H210	H	0.175571	1.131936	-0.000055
H211	H	0.590139	0.281731	-0.368328
H212	H	-0.211650	0.821326	0.056577
Br213	Br	0.459804	0.864411	0.398976
H214	H	0.621391	0.454025	0.365733
Br215	Br	0.812321	0.416732	-0.073758
H216	H	-0.008210	0.900700	0.087813
H217	H	0.590140	0.281627	0.056590
Br218	Br	0.428579	0.943784	0.664919
Br219	Br	0.459824	1.090649	0.398985
Br220	Br	0.459798	0.937946	0.278753
H221	H	0.590131	-0.044481	0.056587
Br222	Br	0.607103	0.416826	-0.278892
H223	H	0.257716	0.821368	0.056624
H224	H	0.590139	0.533401	0.631664
Br225	Br	0.607106	0.490280	0.251712
H226	H	0.445534	0.900696	0.541562
