data_functionalizedCrystal
_audit_creation_method	'MofGen! by Chris Wilmer'
_symmetry_space_group_name_H-M	'P1'
_symmetry_Int_Tables_number	1
_symmetry_cell_setting	triclinic
loop_
_symmetry_equiv_pos_as_xyz
  x,y,z
_cell_length_a	16.625548
_cell_length_b	13.032868
_cell_length_c	13.032268
_cell_angle_alpha	103.285901
_cell_angle_beta	82.837807
_cell_angle_gamma	82.786692
loop_
_atom_site_label
_atom_site_type_symbol
_atom_site_fract_x
_atom_site_fract_y
_atom_site_fract_z
Zn1	Zn	1.119591	0.499055	0.654192
Zn2	Zn	1.119488	0.654138	0.499133
Zn3	Zn	1.004372	0.476552	0.476612
Zn4	Zn	0.965105	0.676615	0.676672
O5	O	1.052139	0.576590	0.576652
O6	O	1.232407	0.519637	0.633641
O7	O	1.120607	0.611757	0.347527
O8	O	1.036133	0.330907	0.481335
O9	O	1.232331	0.633577	0.519719
O10	O	1.120784	0.347440	0.611803
O11	O	1.036032	0.481285	0.330980
O12	O	0.886333	0.503080	0.503133
O13	O	0.969208	0.671885	0.822309
O14	O	0.857484	0.650066	0.650116
O15	O	1.082708	0.541432	0.805793
O16	O	1.082532	0.805750	0.541517
O17	O	0.969107	0.822263	0.671954
C18	C	0.842653	0.576571	0.576621
C19	C	0.753028	0.576592	0.576636
C20	C	1.021566	0.852548	0.611642
C21	C	1.008557	0.970608	0.626646
C22	C	1.058916	1.015044	0.568846
C23	C	1.045471	1.137065	0.584352
C24	C	0.424847	0.576604	0.576682
C25	C	0.516158	0.576598	0.576665
C26	C	0.588935	0.576599	0.576658
C27	C	0.680251	0.576591	0.576643
C28	C	1.262443	0.576610	0.576685
C29	C	1.352061	0.576618	0.576699
C30	C	1.021589	0.611676	0.853664
C31	C	1.008571	0.626628	0.971709
C32	C	1.082825	1.299556	0.541538
C33	C	1.095837	1.181497	0.526544
C34	C	1.082624	0.541564	0.300709
C35	C	1.095832	0.526313	0.182626
C36	C	1.058925	0.568748	1.016166
C37	C	1.045471	0.584200	1.138173
H38	H	1.111986	0.962754	0.507885
C39	C	0.929836	1.143226	0.717145
C40	C	0.973828	1.207644	0.666664
H41	H	0.885611	1.186801	0.767964
H42	H	0.908856	1.094153	0.665383
H43	H	0.965206	1.105049	0.752340
H44	H	0.938460	1.245814	0.631462
H45	H	0.994807	1.256736	0.718434
H46	H	0.955496	0.687613	1.023972
H47	H	0.955493	1.022901	0.687615
H48	H	1.148910	1.129210	0.465579
C49	C	1.099641	0.410186	0.873192
C50	C	1.130572	0.486413	0.945619
H51	H	1.143876	0.359360	0.829637
H52	H	1.064289	0.374993	0.911308
H53	H	1.069791	0.444509	0.829500
H54	H	1.160417	0.452090	0.989316
H55	H	1.165938	0.521608	0.907500
H56	H	0.992393	0.645190	1.190432
C57	C	1.136528	0.367723	1.039685
C58	C	1.167474	0.443948	1.112095
H59	H	1.180755	0.316874	0.996142
H60	H	1.101162	0.332558	1.077814
H61	H	1.106691	0.402042	0.995979
H62	H	1.197306	0.409629	1.155806
H63	H	1.202854	0.479116	1.073963
