data_functionalizedCrystal
_audit_creation_method	'MofGen! by Chris Wilmer'
_symmetry_space_group_name_H-M	'P1'
_symmetry_Int_Tables_number	1
_symmetry_cell_setting	triclinic
loop_
_symmetry_equiv_pos_as_xyz
  x,y,z
_cell_length_a	14.908783
_cell_length_b	12.594516
_cell_length_c	14.908858
_cell_angle_alpha	86.674923
_cell_angle_beta	90.167034
_cell_angle_gamma	93.302904
loop_
_atom_site_label
_atom_site_type_symbol
_atom_site_fract_x
_atom_site_fract_y
_atom_site_fract_z
Zn1	Zn	1.345376	-0.292220	-0.587861
Zn2	Zn	1.845376	0.207780	-0.087861
Zn3	Zn	1.353973	-0.479880	-0.437507
Zn4	Zn	1.853973	0.020120	0.062493
Zn5	Zn	1.203685	-0.312725	-0.428829
Zn6	Zn	1.703685	0.187275	0.071171
Zn7	Zn	1.195005	-0.480975	-0.579132
Zn8	Zn	1.695005	0.019025	-0.079132
O9	O	1.274510	-0.391450	-0.508332
O10	O	1.774510	0.108550	-0.008332
O11	O	1.472343	-0.308074	-0.575200
O12	O	1.972343	0.191926	-0.075200
O13	O	1.341268	-0.465830	-0.310530
O14	O	1.841268	0.034170	0.189470
O15	O	1.222515	-0.161056	-0.449946
O16	O	1.722515	0.338944	0.050054
O17	O	1.478660	-0.445947	-0.464736
O18	O	1.978660	0.054053	0.035264
O19	O	1.326615	-0.145990	-0.566786
O20	O	1.826615	0.354010	-0.066786
O21	O	1.230852	-0.343022	-0.304154
O22	O	1.730852	0.156978	0.195846
O23	O	1.076707	-0.344083	-0.441482
O24	O	1.576707	0.155917	0.058518
O25	O	1.207721	-0.447813	-0.706116
O26	O	1.707721	0.052187	-0.206116
O27	O	1.070330	-0.467696	-0.551910
O28	O	1.570330	0.032304	-0.051910
O29	O	1.318198	-0.309135	-0.712529
O30	O	1.818198	0.190865	-0.212529
O31	O	1.332851	-0.628975	-0.456273
O32	O	1.832851	-0.128975	0.043727
O33	O	1.216058	-0.629779	-0.560324
O34	O	1.716058	-0.129779	-0.060324
C35	C	1.040893	-0.408234	-0.494808
C36	C	1.540893	0.091766	0.005192
C37	C	0.940949	-0.415439	-0.489043
C38	C	1.440949	0.084561	0.010957
C39	C	0.746554	-0.285585	-0.593413
C40	C	1.246554	0.214415	-0.093413
C41	C	0.652648	-0.292350	-0.588000
C42	C	1.152648	0.207650	-0.088000
C43	C	0.659229	-0.435729	-0.472799
C44	C	1.159229	0.064271	0.027201
C45	C	0.753135	-0.428964	-0.478213
C46	C	1.253135	0.071036	0.021787
C47	C	0.796794	-0.353890	-0.538523
C48	C	1.296794	0.146110	-0.038523
C49	C	0.890702	-0.347130	-0.543940
C50	C	1.390702	0.152870	-0.043940
C51	C	0.897281	-0.490504	-0.428735
C52	C	1.397281	0.009496	0.071265
C53	C	0.803375	-0.497269	-0.423322
C54	C	1.303375	0.002731	0.076678
C55	C	1.274469	-0.667995	-0.508314
C56	C	1.774469	-0.167995	-0.008314
C57	C	1.274532	-0.786294	-0.508341
C58	C	1.774532	-0.286294	-0.008341
C59	C	1.338122	-0.855062	-0.451816
C60	C	1.838122	-0.355062	0.048184
C61	C	1.355358	-0.918914	-0.535154
C62	C	1.855358	-0.418914	-0.035154
C63	C	1.257405	-0.933230	-0.425062
C64	C	1.757405	-0.433230	0.074938
C65	C	1.291808	-0.848582	-0.591725
C66	C	1.791808	-0.348582	-0.091725
C67	C	1.193820	-0.862898	-0.481575
C68	C	1.693820	-0.362898	0.018425
C69	C	1.211022	-0.926716	-0.564968
C70	C	1.711022	-0.426716	-0.064968
C71	C	1.509039	-0.374601	-0.521910
C72	C	2.009039	0.125399	-0.021910
C73	C	1.608982	-0.367421	-0.527696
C74	C	2.108982	0.132579	-0.027696
C75	C	1.261033	-0.376309	-0.742860
C76	C	1.761033	0.123691	-0.242860
C77	C	1.255289	-0.369856	-0.842802
C78	C	1.755289	0.130144	-0.342802
C79	C	1.274574	-0.113822	-0.508371
C80	C	1.774574	0.386178	-0.008371
C81	C	1.274601	0.004486	-0.508388
C82	C	1.774601	0.504486	-0.008388
C83	C	1.189713	-0.296824	-0.980345
C84	C	1.689713	0.203176	-0.480345
C85	C	1.195106	-0.302885	-0.886441
C86	C	1.695106	0.197115	-0.386441
C87	C	1.310086	-0.430768	-0.893074
C88	C	1.810086	0.069232	-0.393074
C89	C	1.304693	-0.424707	-0.986978
C90	C	1.804693	0.075293	-0.486978
C91	C	1.244504	-0.357734	-1.030611
C92	C	1.744504	0.142266	-0.530611
C93	C	1.239107	-0.351680	-1.124516
C94	C	1.739107	0.148320	-0.624516
C95	C	1.354091	-0.479557	-1.131148
C96	C	1.854091	0.020443	-0.631148
C97	C	1.359484	-0.485617	-1.037244
C98	C	1.859484	0.014383	-0.537244
C99	C	1.287986	-0.406452	-0.274720
C100	C	1.787986	0.093548	0.225280
C101	C	1.293904	-0.412592	-0.174789
C102	C	1.793904	0.087408	0.325211
H103	H	0.767814	-0.558389	-0.374217
H104	H	1.267814	-0.058389	0.125783
H105	H	1.398710	-0.529149	-1.172084
H106	H	1.898710	-0.029149	-0.672084
F107	F	1.125660	-0.225544	-1.026784
F108	F	1.625660	0.274456	-0.526784
H109	H	1.150492	-0.253284	-0.845518
H110	H	1.650492	0.246716	-0.345518
F111	F	0.599182	-0.219648	-0.646420
F112	F	1.099182	0.280352	-0.146420
H113	H	0.623665	-0.496840	-0.423688
H114	H	1.123665	0.003160	0.076312
H115	H	1.242890	-0.970182	-0.354614
H116	H	1.742890	-0.470182	0.145386
H117	H	1.359095	-0.485287	-0.857532
H118	H	1.859095	0.014713	-0.357532
F119	F	0.937166	-0.267234	-0.608128
F120	F	1.437166	0.232766	-0.108128
H121	H	0.938196	-0.546131	-0.384046
H122	H	1.438196	-0.046131	0.115954
F123	F	1.423542	-0.556885	-0.990797
F124	F	1.923542	-0.056885	-0.490797
H125	H	0.782102	-0.224461	-0.642524
H126	H	1.282102	0.275539	-0.142524
F127	F	1.408415	-0.813944	-0.389394
F128	F	1.908415	-0.313944	0.110606
F129	F	1.140767	-0.967566	-0.627549
F130	F	1.640767	-0.467566	-0.127549
F131	F	1.444614	-0.951373	-0.564791
F132	F	1.944614	-0.451373	-0.064791
F133	F	1.310894	-0.800449	-0.683836
F134	F	1.810894	-0.300449	-0.183836
F135	F	1.104589	-0.830393	-0.451925
F136	F	1.604589	-0.330393	0.048075
H137	H	1.190097	-0.297148	-1.160040
H138	H	1.690097	0.202852	-0.660040
