data_functionalizedCrystal
_audit_creation_method	'MofGen! by Chris Wilmer'
_symmetry_space_group_name_H-M	'P1'
_symmetry_Int_Tables_number	1
_symmetry_cell_setting	triclinic
loop_
_symmetry_equiv_pos_as_xyz
  x,y,z
_cell_length_a	15.944545
_cell_length_b	15.944493
_cell_length_c	15.021413
_cell_angle_alpha	90.009890
_cell_angle_beta	89.995468
_cell_angle_gamma	83.485608
loop_
_atom_site_label
_atom_site_type_symbol
_atom_site_fract_x
_atom_site_fract_y
_atom_site_fract_z
O1	O	1.114510	0.108299	-0.073963
O2	O	1.614510	0.608299	0.426037
O3	O	0.869956	0.121661	-0.073976
O4	O	1.369956	0.621661	0.426024
O5	O	0.998937	-0.007299	-0.073976
O6	O	1.498937	0.492701	0.426024
O7	O	0.985529	0.237258	-0.073962
O8	O	1.485529	0.737258	0.426038
O9	O	0.998916	-0.007280	0.074088
O10	O	1.498916	0.492720	0.574088
O11	O	0.869936	0.121679	0.074089
O12	O	1.369936	0.621679	0.574089
O13	O	1.114489	0.108317	0.074102
O14	O	1.614489	0.608317	0.574102
Zn15	Zn	0.992209	0.115001	0.097603
Zn16	Zn	1.492209	0.615001	0.597603
Zn17	Zn	0.992236	0.114977	-0.097478
Zn18	Zn	1.492236	0.614977	0.402522
O19	O	0.985509	0.237276	0.074102
O20	O	1.485509	0.737276	0.574102
C21	C	0.838652	0.121116	0.000055
C22	C	1.338652	0.621116	0.500055
C23	C	0.745406	0.119456	0.000049
C24	C	1.245406	0.619456	0.500049
C25	C	0.474791	0.034560	0.000054
C26	C	0.974791	0.534560	0.500054
C27	C	0.525354	0.075499	0.073061
C28	C	1.025354	0.575499	0.573061
C29	C	0.409764	0.113535	0.000064
C30	C	0.909764	0.613535	0.500064
C31	C	0.525355	0.075502	-0.072918
C32	C	1.025355	0.575502	0.427082
C33	C	0.574677	0.116440	0.000055
C34	C	1.074677	0.616440	0.500055
C35	C	0.459098	0.154453	0.073132
C36	C	0.959098	0.654453	0.573132
C37	C	0.459096	0.154445	-0.072913
C38	C	0.959096	0.654445	0.427087
C39	C	0.509626	0.195442	0.000113
C40	C	1.009626	0.695442	0.500113
C41	C	0.314762	0.111860	0.000070
C42	C	0.814762	0.611860	0.500070
C43	C	0.669676	0.118122	0.000056
C44	C	1.169676	0.618122	0.500056
C45	C	0.998378	-0.038584	0.000052
C46	C	1.498378	0.461416	0.500052
C47	C	0.996735	-0.131833	0.000041
C48	C	1.496735	0.368167	0.500041
C49	C	1.072656	-0.367594	0.000062
C50	C	1.572656	0.132406	0.500062
C51	C	1.031725	-0.418171	-0.072944
C52	C	1.531725	0.081829	0.427056
C53	C	0.993691	-0.302554	0.000051
C54	C	1.493691	0.197446	0.500051
C55	C	1.031687	-0.418128	0.073036
C56	C	1.531687	0.081872	0.573036
C57	C	0.990757	-0.467463	0.000066
C58	C	1.490757	0.032537	0.500066
C59	C	0.952782	-0.351902	-0.073014
C60	C	1.452782	0.148098	0.426986
C61	C	0.952755	-0.351856	0.073031
C62	C	1.452755	0.148144	0.573031
C63	C	0.911766	-0.402400	0.000008
C64	C	1.411766	0.097600	0.500008
C65	C	0.995384	-0.207554	0.000042
C66	C	1.495384	0.292446	0.500042
C67	C	0.989058	-0.562460	0.000068
C68	C	1.489058	-0.062460	0.500068
C69	C	1.145793	0.108862	0.000069
C70	C	1.645793	0.608862	0.500069
C71	C	1.239039	0.110522	0.000069
C72	C	1.739039	0.610522	0.500069
C73	C	0.986067	0.268562	0.000072
C74	C	1.486067	0.768562	0.500072
C75	C	0.987710	0.361811	0.000077
C76	C	1.487710	0.861811	0.500077
N77	N	0.992197	0.115017	0.230741
N78	N	1.492197	0.615017	0.730741
N79	N	0.992255	0.114954	-0.230615
N80	N	1.492255	0.614954	0.269385
C81	C	0.932547	0.174620	0.470425
C82	C	1.432547	0.674620	0.970425
C83	C	1.008445	0.190926	0.529764
C84	C	1.508445	0.690926	1.029764
C85	C	0.992218	0.114996	0.412348
C86	C	1.492218	0.614996	0.912348
C87	C	0.916342	0.098709	0.529750
C88	C	1.416342	0.598709	1.029750
C89	C	0.992232	0.114978	0.587772
C90	C	1.492232	0.614978	1.087772
C91	C	1.068154	0.131340	0.470381
C92	C	1.568154	0.631340	0.970381
C93	C	0.976001	0.039090	0.470362
C94	C	1.476001	0.539090	0.970362
C95	C	1.051953	0.055364	0.529675
C96	C	1.551953	0.555364	1.029675
C97	C	0.992209	0.115009	0.311291
C98	C	1.492209	0.615009	0.811291
C99	C	0.992250	0.114964	0.688827
C100	C	1.492250	0.614964	1.188827
H101	H	0.554283	0.042153	0.134780
H102	H	1.054283	0.542153	0.634780
Br103	Br	0.411062	0.210017	0.176118
Br104	Br	0.911062	0.710017	0.676118
H105	H	0.919427	-0.322887	0.134751
H106	H	1.419427	0.177113	0.634751
H107	H	0.525104	0.263508	0.000159
H108	H	1.025104	0.763508	0.500159
H109	H	0.962248	-0.025073	0.444249
H110	H	1.462248	0.474927	0.944249
Br111	Br	0.448721	-0.078799	0.000159
Br112	Br	0.948721	0.421201	0.500159
H113	H	0.843695	-0.417864	-0.000035
H114	H	1.343695	0.082136	0.499965
Br115	Br	0.410849	0.209976	-0.175786
Br116	Br	0.910849	0.709976	0.324214
Br117	Br	1.136157	-0.028695	0.572770
Br118	Br	1.636157	0.471305	1.072770
H119	H	0.554288	0.042128	-0.134637
H120	H	1.054288	0.542128	0.365363
H121	H	1.065042	-0.447053	0.134752
H122	H	1.565042	0.052947	0.634752
Br123	Br	0.848525	0.258722	0.427058
Br124	Br	1.348525	0.758722	0.927058
Br125	Br	1.186022	-0.341546	-0.000048
Br126	Br	1.686022	0.158454	0.499952
H127	H	1.065082	-0.447125	-0.134661
H128	H	1.565082	0.052875	0.365339
H129	H	1.022174	0.255110	0.555856
H130	H	1.522174	0.755110	1.055856
Br131	Br	1.175141	0.154410	0.427106
Br132	Br	1.675141	0.654410	0.927106
H133	H	0.852169	0.084942	0.555830
H134	H	1.352169	0.584942	1.055830
Br135	Br	0.897247	-0.303885	-0.175998
Br136	Br	1.397247	0.196115	0.324002
