data_functionalizedCrystal
_audit_creation_method	'MofGen! by Chris Wilmer'
_symmetry_space_group_name_H-M	'P1'
_symmetry_Int_Tables_number	1
_symmetry_cell_setting	triclinic
loop_
_symmetry_equiv_pos_as_xyz
  x,y,z
_cell_length_a	9.065218
_cell_length_b	10.540539
_cell_length_c	8.140239
_cell_angle_alpha	89.998610
_cell_angle_beta	89.997198
_cell_angle_gamma	84.770688
loop_
_atom_site_label
_atom_site_type_symbol
_atom_site_fract_x
_atom_site_fract_y
_atom_site_fract_z
O1	O	1.959468	0.186143	-0.136609
O2	O	1.530107	0.201412	-0.136611
O3	O	1.754583	0.009107	-0.136608
O4	O	1.734992	0.378448	-0.136612
O5	O	1.754571	0.009105	0.136619
O6	O	1.530095	0.201409	0.136616
O7	O	1.959456	0.186141	0.136618
Zn8	Zn	1.744773	0.193775	0.179998
Zn9	Zn	1.744790	0.193778	-0.179991
O10	O	1.734980	0.378446	0.136615
C11	C	1.475122	0.199943	0.000003
C12	C	1.311301	0.195556	0.000002
C13	C	1.753108	-0.038202	0.000003
C14	C	1.748712	-0.179167	-0.000006
C15	C	1.580278	-0.363216	-0.000620
C16	C	1.584734	-0.216582	-0.000005
C17	C	1.827619	-0.240534	0.156020
C18	C	1.822022	-0.387099	0.156152
C19	C	1.825372	-0.387602	-0.154558
C20	C	1.826882	-0.240615	-0.156621
C21	C	2.014441	0.187610	0.000001
C22	C	2.178262	0.191997	-0.000009
C23	C	1.736455	0.425755	0.000001
C24	C	1.740851	0.566719	-0.000001
N25	N	1.744773	0.193772	0.425681
N26	N	1.744802	0.193771	-0.425673
H27	H	1.522646	-0.174207	-0.111851
C28	C	1.981326	-0.451318	0.165746
H29	H	2.049173	-0.387799	0.169560
H30	H	2.001136	-0.503420	0.071667
H31	H	1.991952	-0.502336	0.261967
C32	C	1.990292	-0.209730	0.163877
H33	H	2.011580	-0.159043	0.071855
H34	H	2.053450	-0.286756	0.162433
H35	H	2.006195	-0.164360	0.262186
C36	C	1.743212	-0.425492	0.313695
H37	H	1.714905	-0.351545	0.377009
H38	H	1.808517	-0.482306	0.376080
H39	H	1.657565	-0.466291	0.285182
C40	C	1.985371	-0.450806	-0.155994
H41	H	2.035888	-0.422827	-0.249657
H42	H	1.983867	-0.540747	-0.160000
H43	H	2.035075	-0.427814	-0.059201
C44	C	1.753549	-0.183284	0.312878
H45	H	1.674550	-0.121999	0.283616
H46	H	1.824419	-0.143449	0.376010
H47	H	1.715946	-0.249094	0.375764
C48	C	1.492762	-0.402185	-0.151754
H49	H	1.553358	-0.461540	-0.215830
H50	H	1.463870	-0.328876	-0.216009
H51	H	1.407069	-0.440215	-0.116656
H52	H	1.515761	-0.393663	0.110642
H53	H	1.769147	-0.199969	-0.272045
C54	C	1.753682	-0.430479	-0.314316
H55	H	1.671524	-0.476643	-0.288245
H56	H	1.824307	-0.483447	-0.375240
H57	H	1.720950	-0.357786	-0.378008
H58	H	1.522200	-0.175058	0.112027
C59	C	1.988391	-0.207308	-0.169352
H60	H	2.010364	-0.155267	-0.078909
H61	H	2.001364	-0.162672	-0.268935
H62	H	2.053096	-0.283451	-0.168026
