data_functionalizedCrystal
_audit_creation_method	'MofGen! by Chris Wilmer'
_symmetry_space_group_name_H-M	'P1'
_symmetry_Int_Tables_number	1
_symmetry_cell_setting	triclinic
loop_
_symmetry_equiv_pos_as_xyz
  x,y,z
_cell_length_a	10.489741
_cell_length_b	10.654550
_cell_length_c	9.730223
_cell_angle_alpha	90.004253
_cell_angle_beta	90.000594
_cell_angle_gamma	84.512052
loop_
_atom_site_label
_atom_site_type_symbol
_atom_site_fract_x
_atom_site_fract_y
_atom_site_fract_z
O1	O	-1.693966	-0.177192	-0.114205
O2	O	-1.322762	-0.193824	-0.114226
O3	O	-1.516899	-0.002773	-0.114206
O4	O	-1.499829	-0.368243	-0.114224
O5	O	-1.516886	-0.002767	0.114374
O6	O	-1.322750	-0.193819	0.114354
O7	O	-1.693953	-0.177186	0.114375
Zn8	Zn	-1.508349	-0.185502	0.150657
Zn9	Zn	-1.508366	-0.185509	-0.150507
O10	O	-1.499817	-0.368238	0.114356
C11	C	-1.515639	0.044029	0.000083
C12	C	-1.511889	0.183474	0.000081
C13	C	-1.275225	-0.192565	0.000061
C14	C	-1.133597	-0.188807	0.000053
C15	C	-1.741491	-0.178445	0.000085
C16	C	-1.883118	-0.182204	0.000084
C17	C	-1.065516	-0.067246	0.000072
C18	C	-0.973367	-0.124673	-0.112629
C19	C	-0.973389	-0.124697	0.112733
C20	C	-1.043314	-0.246283	-0.112741
C21	C	-1.043345	-0.246290	0.112722
C22	C	-0.951224	-0.303805	-0.000008
C23	C	-1.501076	-0.415039	0.000063
C24	C	-1.504826	-0.554484	0.000057
N25	N	-1.508347	-0.185496	0.356193
C26	C	-1.626194	0.262906	0.000087
C27	C	-1.622663	0.393928	0.000070
C28	C	-1.390513	0.366074	0.000047
C29	C	-1.394045	0.235054	0.000054
N30	N	-1.508378	-0.185504	-0.356044
C31	C	-1.594341	-0.100935	0.428128
C32	C	-1.594353	-0.100935	0.572011
C33	C	-1.422376	-0.270070	0.572012
C34	C	-1.422358	-0.270062	0.428131
H35	H	-1.115254	0.032684	-0.000064
Br36	Br	-1.305682	-0.384836	0.669647
H37	H	-1.294568	0.408087	0.000027
Br38	Br	-1.305635	-0.384822	0.330494
H39	H	-0.942383	-0.073240	-0.207907
Br40	Br	-1.786124	0.192907	0.000125
Br41	Br	-1.711038	0.013835	0.330502
Br42	Br	-1.094653	-0.331951	-0.271730
Br43	Br	-1.238906	0.127243	0.000027
H44	H	-1.074361	-0.297681	0.208004
Br45	Br	-1.711057	0.013837	0.669634
Br46	Br	-1.777798	0.501725	0.000070
Br47	Br	-0.921788	-0.038933	0.271542
H48	H	-0.901752	-0.403841	-0.000074
