data_functionalizedCrystal
_audit_creation_method	'MofGen! by Chris Wilmer'
_symmetry_space_group_name_H-M	'P1'
_symmetry_Int_Tables_number	1
_symmetry_cell_setting	triclinic
loop_
_symmetry_equiv_pos_as_xyz
  x,y,z
_cell_length_a	16.098557
_cell_length_b	17.019352
_cell_length_c	10.489741
_cell_angle_alpha	96.036277
_cell_angle_beta	92.764338
_cell_angle_gamma	88.851737
loop_
_atom_site_label
_atom_site_type_symbol
_atom_site_fract_x
_atom_site_fract_y
_atom_site_fract_z
O1	O	0.005772	-1.047300	0.162915
O2	O	-0.010615	-0.818580	0.182294
O3	O	-0.002044	-0.938144	-0.013050
O4	O	-0.002799	-0.927735	0.358258
O5	O	0.135970	-0.931187	-0.001639
O6	O	0.127399	-0.811623	0.193704
O7	O	0.143786	-1.040343	0.174326
Zn8	Zn	0.157505	-0.924878	0.185827
Zn9	Zn	-0.024334	-0.934044	0.170793
O10	O	0.135215	-0.920779	0.369669
C11	C	0.056294	-0.785814	0.187041
C12	C	0.050041	-0.698546	0.184173
N13	N	0.281606	-0.918628	0.196087
C14	C	0.010850	-0.205172	0.167589
C15	C	0.016736	-0.287169	0.170285
C16	C	0.094911	-0.324367	0.177863
C17	C	0.167205	-0.279564	0.182731
C18	C	0.161318	-0.197569	0.180026
C19	C	0.116449	-0.571748	0.186335
C20	C	0.122330	-0.653749	0.189045
C21	C	-0.028140	-0.661348	0.176596
C22	C	-0.034020	-0.579351	0.173898
C23	C	0.038274	-0.534556	0.178760
C24	C	0.100929	-0.408180	0.180623
C25	C	0.032255	-0.450745	0.175991
C26	C	0.804340	-0.889543	0.243438
C27	C	0.717466	-0.893932	0.236286
C28	C	0.677819	-0.949086	0.146248
C29	C	0.725050	-0.999848	0.063349
C30	C	0.811923	-0.995455	0.070496
C31	C	0.415710	-0.964997	0.120335
C32	C	0.328832	-0.969389	0.113196
C33	C	0.321253	-0.863471	0.286133
C34	C	0.408128	-0.859085	0.293277
C35	C	0.455351	-0.909845	0.210374
C36	C	0.589020	-0.953575	0.138937
C37	C	0.544149	-0.905351	0.217679
N38	N	0.851566	-0.940303	0.160548
C39	C	0.076880	-0.073108	0.169582
C40	C	0.083139	-0.160375	0.172461
C41	C	0.066907	-0.933879	-0.054867
C42	C	0.066737	-0.931527	-0.196471
C43	C	0.061280	-0.855452	-0.263785
C44	C	0.131903	-0.887959	-0.350672
C45	C	-0.004167	-0.894836	-0.361897
C46	C	0.137418	-0.964063	-0.281489
C47	C	0.001286	-0.970932	-0.292709
C48	C	0.071930	-1.003494	-0.379568
C49	C	0.066263	-0.925043	0.411487
C50	C	0.066427	-0.927395	0.553090
H51	H	-0.052809	-0.174892	0.161427
O52	O	-0.061231	-0.335489	0.165037
H53	H	-0.116580	-0.295846	0.159331
O54	O	0.205059	-0.841490	-0.384989
H55	H	0.200521	-0.780057	-0.338187
H56	H	0.197316	-0.993321	-0.246244
H57	H	0.556732	-0.998484	0.065628
O58	O	0.077915	-1.086413	-0.445955
H59	H	0.136704	-1.114942	-0.413590
H60	H	-0.064009	-0.865538	-0.397268
H61	H	0.220183	-0.161095	0.184006
O62	O	-0.118349	-0.539256	0.165700
H63	H	-0.125125	-0.495568	0.251021
O64	O	0.055430	-0.772603	-0.197081
H65	H	0.052976	-0.729577	-0.269738
H66	H	-0.053942	-1.005994	-0.266771
H67	H	0.164580	-0.438476	0.186796
H68	H	0.836615	-0.844634	0.316762
H69	H	-0.086997	-0.697829	0.172636
H70	H	0.185993	-0.684031	0.195224
H71	H	0.576432	-0.860442	0.290984
O72	O	0.666533	-0.839187	0.325701
H73	H	0.624185	-0.802680	0.268562
H74	H	-0.031394	-0.420455	0.169816
H75	H	0.440406	-0.814175	0.366593
H76	H	0.282796	-0.822144	0.353627
H77	H	0.296556	-1.014305	0.039873
H78	H	0.454153	-1.006330	0.052834
O79	O	0.682293	-1.059316	-0.033804
H80	H	0.613951	-1.053842	-0.024854
H81	H	0.230857	-0.309857	0.188893
O82	O	0.194418	-0.523436	0.191600
H83	H	0.249765	-0.563078	0.197343
O84	O	0.862866	-1.050209	-0.018894
H85	H	0.820704	-1.089307	-0.082694
