data_functionalizedCrystal
_audit_creation_method	'MofGen! by Chris Wilmer'
_symmetry_space_group_name_H-M	'P1'
_symmetry_Int_Tables_number	1
_symmetry_cell_setting	triclinic
loop_
_symmetry_equiv_pos_as_xyz
  x,y,z
_cell_length_a	16.109302
_cell_length_b	17.038272
_cell_length_c	15.186229
_cell_angle_alpha	89.995962
_cell_angle_beta	89.994701
_cell_angle_gamma	87.286668
loop_
_atom_site_label
_atom_site_type_symbol
_atom_site_fract_x
_atom_site_fract_y
_atom_site_fract_z
O1	O	1.110267	0.100498	-0.073269
O2	O	0.869094	0.113004	-0.073263
O3	O	0.988247	-0.007065	-0.073259
O4	O	0.991114	0.220566	-0.073273
O5	O	0.988239	-0.007066	0.073198
O6	O	0.869085	0.113002	0.073195
O7	O	1.110259	0.100496	0.073188
Zn8	Zn	0.989671	0.106749	0.096445
Zn9	Zn	0.989682	0.106751	-0.096519
O10	O	0.991105	0.220564	0.073184
C11	C	0.838079	0.112496	-0.000033
C12	C	0.745675	0.110977	-0.000030
C13	C	0.533080	0.107464	0.079795
C14	C	0.446258	0.106028	0.079792
C15	C	0.446278	0.106034	-0.079884
C16	C	0.533099	0.107464	-0.079880
C17	C	0.576498	0.108183	-0.000038
C18	C	0.402855	0.105317	-0.000045
C19	C	0.308719	0.103760	-0.000048
C20	C	0.670640	0.109738	-0.000034
C21	C	0.985636	-0.036194	-0.000030
C22	C	0.977856	-0.122987	-0.000030
C23	C	1.049277	-0.173101	-0.000031
C24	C	1.041963	-0.254652	-0.000040
C25	C	0.963227	-0.286086	-0.000040
C26	C	0.891801	-0.235965	-0.000042
C27	C	0.899116	-0.154416	-0.000040
C28	C	0.937385	-0.531844	-0.000052
C29	C	0.930075	-0.613399	-0.000051
C30	C	1.080238	-0.632080	-0.000050
C31	C	1.087546	-0.550529	-0.000043
C32	C	1.016120	-0.500415	-0.000049
C33	C	0.955749	-0.369444	-0.000046
C34	C	1.023599	-0.417059	-0.000050
C35	C	1.141274	0.101003	-0.000044
C36	C	1.233677	0.102523	-0.000052
C37	C	0.993717	0.249693	-0.000046
C38	C	1.001496	0.336486	-0.000052
N39	N	0.989669	0.106747	0.228137
N40	N	0.989690	0.106747	-0.228212
C41	C	1.042451	0.053598	0.453862
C42	C	1.042453	0.053596	0.546051
C43	C	0.936902	0.159898	0.546057
C44	C	0.936896	0.159895	0.453869
C45	C	0.989675	0.106746	0.407774
C46	C	0.989684	0.106747	0.592151
C47	C	0.989686	0.106745	0.692108
C48	C	0.989672	0.106747	0.307811
H49	H	1.113392	-0.147514	-0.000025
C50	C	0.580820	0.108251	0.167619
C51	C	0.533057	0.107459	0.255433
C52	C	0.580794	0.108246	0.343259
C53	C	0.676293	0.109826	0.343271
C54	C	0.724061	0.110618	0.255453
C55	C	0.676324	0.109830	0.167627
H56	H	0.462358	0.106290	0.255427
H57	H	0.545433	0.107660	0.408268
H58	H	0.711631	0.110409	0.408285
H59	H	0.794760	0.111787	0.255459
H60	H	0.711686	0.110417	0.102618
C61	C	0.398500	0.105239	0.167611
C62	C	0.405783	0.173285	0.233472
C63	C	0.358026	0.172494	0.321294
C64	C	0.302986	0.103656	0.343257
C65	C	0.295701	0.035604	0.277394
C66	C	0.343458	0.036395	0.189571
H67	H	0.446529	0.224248	0.217215
H68	H	0.363419	0.222871	0.370050
H69	H	0.267633	0.103070	0.408268
H70	H	0.254955	-0.015359	0.293650
H71	H	0.338065	-0.013982	0.140815
C72	C	1.120530	-0.309775	-0.000038
C73	C	1.183465	-0.306275	0.076017
C74	C	1.262037	-0.361397	0.076017
C75	C	1.277673	-0.420018	-0.000039
C76	C	1.214737	-0.423520	-0.076100
C77	C	1.136165	-0.368399	-0.076100
H78	H	1.171891	-0.262878	0.132324
H79	H	1.308626	-0.358804	0.132323
H80	H	1.335837	-0.460823	-0.000039
H81	H	1.226311	-0.466918	-0.132406
H82	H	1.089575	-0.370991	-0.132406
C83	C	0.580864	0.108255	-0.167703
C84	C	0.573578	0.040211	-0.233566
C85	C	0.621342	0.040999	-0.321385
C86	C	0.676393	0.109831	-0.343340
C87	C	0.683682	0.177880	-0.277474
C88	C	0.635917	0.177092	-0.189656
H89	H	0.532824	-0.010747	-0.217316
H90	H	0.615947	-0.009376	-0.370143
H91	H	0.711751	0.110414	-0.408348
H92	H	0.724436	0.228838	-0.293725
H93	H	0.641313	0.227467	-0.140898
H94	H	0.410933	0.105449	-0.144888
C95	C	0.878840	0.218362	0.403164
C96	C	0.820818	0.276854	0.453862
C97	C	0.762763	0.335315	0.403156
C98	C	0.762730	0.335285	0.301753
C99	C	0.820754	0.276791	0.251050
C100	C	0.878810	0.218330	0.301756
H101	H	0.820840	0.276878	0.528931
H102	H	0.719809	0.378616	0.440690
H103	H	0.719754	0.378561	0.264217
H104	H	0.820732	0.276767	0.175980
H105	H	0.921763	0.175029	0.264221
H106	H	0.893932	0.203171	0.583597
C107	C	0.869138	-0.404019	-0.000041
C108	C	0.808207	-0.385093	-0.076088
C109	C	0.721595	-0.419669	-0.076086
C110	C	0.695915	-0.473171	-0.000036
C111	C	0.756849	-0.492100	0.076017
C112	C	0.843460	-0.457524	0.076015
H113	H	0.827215	-0.345485	-0.132390
H114	H	0.676488	-0.405656	-0.132386
H115	H	0.631800	-0.498766	-0.000034
H116	H	0.737840	-0.531707	0.132319
H117	H	0.888567	-0.471536	0.132315
C118	C	1.100509	-0.004865	0.596749
C119	C	1.158569	-0.063317	0.546044
C120	C	1.216627	-0.121782	0.596742
C121	C	1.216625	-0.121794	0.698145
C122	C	1.158563	-0.063339	0.748856
C123	C	1.100505	-0.004875	0.698158
H124	H	1.158573	-0.063310	0.470974
H125	H	1.259608	-0.165054	0.559202
H126	H	1.259603	-0.165073	0.735675
H127	H	1.158559	-0.063346	0.823926
H128	H	1.057524	0.038397	0.735698
H129	H	1.151661	-0.524942	-0.000042
C130	C	1.158802	-0.687207	-0.000054
C131	C	1.174422	-0.745848	0.075992
C132	C	1.252990	-0.800975	0.075984
C133	C	1.315938	-0.797460	-0.000070
C134	C	1.300320	-0.738816	-0.076122
C135	C	1.221752	-0.683690	-0.076114
H136	H	1.127822	-0.748452	0.132297
H137	H	1.264551	-0.844387	0.132284
H138	H	1.374099	-0.838268	-0.000076
H139	H	1.346920	-0.736212	-0.132427
H140	H	1.210191	-0.640278	-0.132413
H141	H	0.865956	-0.638989	-0.000037
H142	H	0.879224	-0.491050	-0.000057
C143	C	0.805192	-0.270543	-0.000049
C144	C	0.779505	-0.324042	0.076001
C145	C	0.692894	-0.358619	0.075995
C146	C	0.631970	-0.339697	-0.000061
C147	C	0.657655	-0.286196	-0.076116
C148	C	0.744266	-0.251618	-0.076110
H149	H	0.824606	-0.338052	0.132307
H150	H	0.673880	-0.398225	0.132296
H151	H	0.567855	-0.365293	-0.000065
H152	H	0.612555	-0.272186	-0.132422
H153	H	0.763280	-0.212013	-0.132411
H154	H	1.085425	0.010320	0.416333
C155	C	0.820553	-0.099286	-0.000037
C156	C	0.757614	-0.102787	-0.076089
C157	C	0.679048	-0.047657	-0.076092
C158	C	0.663422	0.010974	-0.000043
C159	C	0.726363	0.014477	0.076014
C160	C	0.804928	-0.040653	0.076017
H161	H	0.769180	-0.146191	-0.132390
H162	H	0.632455	-0.050251	-0.132395
H163	H	0.605263	0.051784	-0.000045
H164	H	0.714796	0.057881	0.132315
H165	H	0.851521	-0.038059	0.132320
H166	H	1.087705	-0.391462	-0.000069
