data_functionalizedCrystal
_audit_creation_method	'MofGen! by Chris Wilmer'
_symmetry_space_group_name_H-M	'P1'
_symmetry_Int_Tables_number	1
_symmetry_cell_setting	triclinic
loop_
_symmetry_equiv_pos_as_xyz
  x,y,z
_cell_length_a	15.944551
_cell_length_b	10.654546
_cell_length_c	15.021413
_cell_angle_alpha	89.997007
_cell_angle_beta	90.001333
_cell_angle_gamma	96.008869
loop_
_atom_site_label
_atom_site_type_symbol
_atom_site_fract_x
_atom_site_fract_y
_atom_site_fract_z
O1	O	1.115462	-0.161972	0.073929
O2	O	0.871027	-0.181941	0.073950
O3	O	0.998866	0.010856	0.073945
O4	O	0.987623	-0.354769	0.073935
O5	O	0.998852	0.010873	-0.074120
O6	O	0.871014	-0.181924	-0.074114
O7	O	1.115448	-0.161955	-0.074135
Zn8	Zn	0.993229	-0.171937	-0.097633
Zn9	Zn	0.993247	-0.171959	0.097448
O10	O	0.987609	-0.354752	-0.074129
C11	C	0.839722	-0.181103	-0.000079
C12	C	0.746461	-0.178618	-0.000071
C13	C	0.998034	0.057652	-0.000084
C14	C	0.995566	0.197063	-0.000074
N15	N	0.993223	-0.171920	-0.230770
C16	C	0.530880	-0.053173	-0.000085
C17	C	0.470203	-0.111434	0.072917
C18	C	0.575709	-0.174122	-0.000081
C19	C	0.470212	-0.111446	-0.073062
C20	C	0.410772	-0.169770	-0.000095
C21	C	0.516261	-0.232416	0.072981
C22	C	0.516276	-0.232411	-0.073064
C23	C	0.455618	-0.290759	-0.000044
C24	C	0.670726	-0.176625	-0.000072
C25	C	0.315756	-0.167276	-0.000097
C26	C	1.146753	-0.162793	-0.000104
C27	C	1.240014	-0.165278	-0.000106
C28	C	1.070835	0.277523	-0.000080
C29	C	1.068511	0.408514	-0.000068
C30	C	0.915642	0.378572	-0.000047
C31	C	0.917967	0.247584	-0.000054
C32	C	1.148434	0.227002	-0.000101
C33	C	1.223709	0.307463	-0.000108
C34	C	1.221385	0.438454	-0.000095
C35	C	1.143786	0.488984	-0.000076
C36	C	0.988443	0.598453	-0.000087
C37	C	0.990917	0.459043	-0.000056
N38	N	0.993259	-0.171965	0.230586
C39	C	1.052488	-0.082943	0.529574
C40	C	0.976504	-0.058335	0.470215
C41	C	0.993233	-0.171935	0.587623
C42	C	1.069228	-0.196499	0.470241
C43	C	0.993250	-0.171947	0.412199
C44	C	0.917210	-0.147271	0.529569
C45	C	1.009984	-0.285485	0.529601
C46	C	0.933945	-0.260925	0.470268
C47	C	0.993224	-0.171925	0.688680
C48	C	0.993250	-0.171957	0.311143
H49	H	0.563632	0.047204	0.000008
F50	F	0.957981	0.067171	0.436125
H51	H	0.449803	-0.060285	0.134638
H52	H	0.536697	-0.283518	-0.134788
H53	H	0.449824	-0.060260	-0.134778
F54	F	1.301498	0.524083	-0.000093
H55	H	0.852934	-0.126390	0.555521
F56	F	1.150914	0.087592	-0.000117
F57	F	1.306291	0.253683	-0.000118
H58	H	1.141900	0.595647	-0.000056
H59	H	0.852464	0.419725	-0.000033
F60	F	1.117901	0.015493	0.563614
F61	F	0.868387	-0.359307	0.436444
F62	F	0.837857	0.161948	-0.000047
H63	H	1.024174	-0.381476	0.555705
F64	F	0.542777	-0.299240	0.153739
F65	F	0.413033	-0.422093	0.000004
F66	F	1.153219	-0.223648	0.436172
