data_functionalizedCrystal
_audit_creation_method	'MofGen! by Chris Wilmer'
_symmetry_space_group_name_H-M	'P1'
_symmetry_Int_Tables_number	1
_symmetry_cell_setting	triclinic
loop_
_symmetry_equiv_pos_as_xyz
  x,y,z
_cell_length_a	19.188930
_cell_length_b	16.974800
_cell_length_c	17.666332
_cell_angle_alpha	93.650238
_cell_angle_beta	89.993235
_cell_angle_gamma	83.267966
loop_
_atom_site_label
_atom_site_type_symbol
_atom_site_fract_x
_atom_site_fract_y
_atom_site_fract_z
O1	O	0.088938	1.048841	0.001320
O2	O	0.100283	0.818595	-0.012793
O3	O	-0.007034	0.940362	-0.005314
O4	O	0.196255	0.927074	-0.006159
O5	O	-0.007030	0.940346	0.120581
O6	O	0.100287	0.818579	0.113103
O7	O	0.088942	1.048825	0.127216
Cu8	Cu	0.094615	0.933700	0.131654
Cu9	Cu	0.094610	0.933720	-0.017232
O10	O	0.196259	0.927058	0.119737
C11	C	0.099855	0.789130	0.048350
C12	C	0.098566	0.701358	0.042970
C13	C	0.097961	0.660119	0.109070
C14	C	0.096738	0.577649	0.104018
C15	C	0.096126	0.536420	0.032865
C16	C	0.096729	0.577666	-0.033240
C17	C	0.097947	0.660134	-0.028187
C18	C	0.092480	0.289776	0.010394
C19	C	0.091265	0.207301	0.005346
C20	C	0.091272	0.207291	0.142605
C21	C	0.092494	0.289761	0.147651
C22	C	0.093093	0.330999	0.081546
N23	N	0.094879	0.452123	0.027699
N24	N	0.094336	0.415296	0.086713
C25	C	-0.033044	0.939924	0.057609
C26	C	-0.110550	0.938632	0.057537
C27	C	-0.155353	1.010081	0.061920
C28	C	-0.228179	1.008868	0.061833
C29	C	-0.256199	0.936201	0.057378
C30	C	-0.211386	0.864743	0.052990
C31	C	-0.138562	0.865958	0.053070
N32	N	-0.364296	0.880650	0.096819
N33	N	-0.433477	0.879500	0.096745
C34	C	-0.475614	0.932534	0.057138
N35	N	-0.445958	0.986773	0.017618
N36	N	-0.376771	0.987925	0.017694
C37	C	-0.335163	0.934875	0.057292
C38	C	-0.599383	1.002672	0.061427
C39	C	-0.672210	1.001455	0.061335
C40	C	-0.655415	0.857328	0.052500
C41	C	-0.582590	0.858547	0.052584
C42	C	-0.554579	0.931221	0.057051
C43	C	0.222269	0.927496	0.056812
C44	C	0.299775	0.928788	0.056879
C45	C	0.089370	1.078290	0.066071
C46	C	0.090659	1.166062	0.071446
N47	N	0.094617	0.933693	0.236373
N48	N	0.094602	0.933733	-0.121950
C49	C	0.136919	0.981540	0.841349
C50	C	0.136926	0.981532	0.762101
C51	C	0.094603	0.933727	0.719557
C52	C	0.052284	0.885911	0.756267
C53	C	0.052284	0.885914	0.835513
N54	N	0.033440	0.931812	0.595024
N55	N	0.033442	0.931814	0.519744
C56	C	0.094603	0.933713	0.480792
N57	N	0.155763	0.935626	0.519966
N58	N	0.155760	0.935629	0.595253
C59	C	0.094599	0.933718	0.633627
C60	C	0.136931	0.981513	0.358162
C61	C	0.136939	0.981500	0.278912
C62	C	0.052291	0.885883	0.273079
C63	C	0.052289	0.885892	0.352327
C64	C	0.094608	0.933711	0.394864
H65	H	0.096233	0.544077	0.157844
Cl66	Cl	0.190116	1.041650	0.715954
H67	H	0.017826	0.846985	0.721622
Cl68	Cl	-0.690633	0.765974	0.046896
H69	H	0.098465	0.693681	0.167011
H70	H	0.096226	0.544091	-0.091175
Cl71	Cl	-0.526263	0.768720	0.047077
Cl72	Cl	0.190158	1.041587	0.232773
H73	H	0.098441	0.693710	-0.082013
Cl74	Cl	-0.000919	0.825809	0.881653
Cl75	Cl	0.093268	0.341585	0.237105
H76	H	0.171393	1.020447	0.392797
H77	H	-0.132552	1.069258	0.065554
H78	H	0.090783	0.173705	0.196424
H79	H	0.092966	0.323343	-0.043434
Cl80	Cl	-0.284514	1.098696	0.067343
Cl81	Cl	-0.246609	0.773390	0.047384
H82	H	0.017835	0.846954	0.238441
Cl83	Cl	0.090497	0.155471	-0.084111
Cl84	Cl	-0.082234	0.776129	0.047559
H85	H	0.017827	0.846966	0.382209
H86	H	-0.576575	1.061847	0.065061
Cl87	Cl	-0.728536	1.091285	0.066841
Cl88	Cl	0.190125	1.041650	0.894819
