data_functionalizedCrystal
_audit_creation_method	'MofGen! by Chris Wilmer'
_symmetry_space_group_name_H-M	'P1'
_symmetry_Int_Tables_number	1
_symmetry_cell_setting	triclinic
loop_
_symmetry_equiv_pos_as_xyz
  x,y,z
_cell_length_a	22.010155
_cell_length_b	16.992694
_cell_length_c	16.992695
_cell_angle_alpha	90.668223
_cell_angle_beta	89.995697
_cell_angle_gamma	90.003362
loop_
_atom_site_label
_atom_site_type_symbol
_atom_site_fract_x
_atom_site_fract_y
_atom_site_fract_z
O1	O	-0.050450	-1.050856	-0.166906
O2	O	-0.050467	-0.822456	-0.165075
O3	O	-0.050454	-0.935740	-0.051790
O4	O	-0.050463	-0.937571	-0.280190
O5	O	0.050597	-0.935719	-0.051807
O6	O	0.050583	-0.822435	-0.165092
O7	O	0.050601	-1.050835	-0.166923
Cu8	Cu	0.059819	-0.936633	-0.166009
Cu9	Cu	-0.059685	-0.936658	-0.165989
O10	O	0.050587	-0.937550	-0.280207
C11	C	0.000055	-0.793085	-0.162727
C12	C	0.000049	-0.705600	-0.155699
N13	N	0.143871	-0.936621	-0.166022
N14	N	-0.143738	-0.936675	-0.165969
C15	C	0.563656	-0.986823	-0.115834
C16	C	0.627264	-0.986827	-0.115829
O17	O	0.660161	-1.029479	-0.073166
N18	N	0.659078	-0.936656	-0.165972
C19	C	0.627281	-0.886473	-0.216118
O20	O	0.660182	-0.843799	-0.258768
C21	C	0.563675	-0.886466	-0.216119
C22	C	0.531864	-0.936646	-0.165978
C23	C	0.531846	-1.036998	-0.065697
C24	C	0.468242	-1.036996	-0.065703
C25	C	0.436450	-0.986819	-0.115847
C26	C	0.468261	-0.936644	-0.165985
C27	C	0.531879	-0.836280	-0.266260
C28	C	0.468268	-0.836277	-0.266256
C29	C	0.436458	-0.886457	-0.216115
C30	C	0.372865	-0.886464	-0.216135
N31	N	0.341051	-0.936634	-0.165992
C32	C	0.372844	-0.986812	-0.115848
C33	C	0.760859	-0.886490	-0.216112
C34	C	0.824464	-0.886500	-0.216116
C35	C	0.824443	-0.986853	-0.115826
C36	C	0.760836	-0.986846	-0.115827
C37	C	0.729045	-0.936661	-0.165969
C38	C	0.239272	-0.986803	-0.115866
C39	C	0.175663	-0.986799	-0.115879
C40	C	0.175691	-0.886443	-0.216166
C41	C	0.239294	-0.886450	-0.216156
C42	C	0.271083	-0.936633	-0.165999
O43	O	0.339928	-0.843830	-0.258774
O44	O	0.339935	-1.029472	-0.073198
C45	C	0.000071	-0.933374	-0.022439
C46	C	0.000070	-0.926345	0.065046
C47	C	0.000077	-1.080205	-0.169270
C48	C	0.000079	-1.167690	-0.176299
C49	C	0.000046	-0.659610	-0.223517
C50	C	0.000055	-0.577409	-0.216908
C51	C	0.000062	-0.541201	-0.142480
C52	C	0.000066	-0.587198	-0.074657
C53	C	0.000062	-0.669397	-0.081267
C54	C	0.000079	-0.295886	-0.115086
C55	C	0.000082	-0.213681	-0.108481
C56	C	0.000072	-0.203898	-0.250732
C57	C	0.000064	-0.286099	-0.257336
C58	C	0.000071	-0.332089	-0.189512
N59	N	0.000069	-0.457178	-0.135723
N60	N	0.000069	-0.416110	-0.196270
C61	C	0.000061	-0.939917	-0.309559
C62	C	0.000058	-0.946945	-0.397044
C63	C	0.000076	-0.994163	0.111037
C64	C	0.000070	-0.987554	0.193238
C65	C	0.000062	-0.913127	0.229446
C66	C	0.000054	-0.845303	0.183449
C67	C	0.000056	-0.851913	0.101250
C68	C	0.000052	-0.885732	0.474760
C69	C	0.000052	-0.879127	0.556966
C70	C	0.000066	-1.021379	0.566749
C71	C	0.000072	-1.027982	0.484547
C72	C	0.000061	-0.960159	0.438558
N73	N	0.000058	-0.906369	0.313468
N74	N	0.000061	-0.966917	0.354537
H75	H	0.149765	-1.027664	-0.075048
N76	N	0.000079	-1.108264	0.445508
H77	H	-0.037379	-1.138213	0.461959
H78	H	0.000103	-1.102103	0.386465
N79	N	0.000032	-0.698660	-0.303793
H80	H	0.000032	-0.657049	-0.345751
H81	H	0.037490	-0.732554	-0.309643
N82	N	0.000041	-0.812582	0.425165
H83	H	0.037498	-0.812142	0.390835
H84	H	-0.037445	-0.812207	0.390899
H85	H	0.000086	-0.333322	-0.059859
N86	N	0.273601	-0.832329	-0.270242
H87	H	0.299987	-0.795590	-0.237953
H88	H	0.299961	-0.864642	-0.306989
H89	H	0.000051	-0.796688	0.063804
H90	H	0.442346	-1.077854	-0.024872
N91	N	0.726538	-1.040959	-0.061729
H92	H	0.700154	-1.008691	-0.024968
H93	H	0.700177	-1.077692	-0.094056
H94	H	0.557725	-1.077859	-0.024860
N95	N	0.858739	-1.040975	-0.061740
H96	H	0.903860	-1.033359	-0.069350
H97	H	0.847620	-1.028384	-0.005320
N98	N	0.000061	-0.325137	-0.337617
H99	H	0.037518	-0.359024	-0.343541
H100	H	-0.037426	-0.358980	-0.343478
H101	H	0.850360	-0.845648	-0.256954
H102	H	0.000044	-0.784703	0.212936
N103	N	0.000121	-0.527803	-0.290054
H104	H	0.000135	-0.563214	-0.338206
H105	H	-0.037314	-0.493443	-0.290459
N106	N	0.726572	-0.832361	-0.270201
H107	H	0.756382	-0.800583	-0.301962
H108	H	0.700180	-0.864669	-0.306912
N109	N	0.000065	-0.154296	-0.323881
H110	H	0.000069	-0.096729	-0.308403
H111	H	0.037524	-0.166528	-0.356101
H112	H	0.557771	-0.795419	-0.307089
N113	N	0.000085	-0.174625	-0.028202
H114	H	0.000089	-0.216231	0.013762
H115	H	0.037545	-0.140728	-0.022372
N116	N	0.433982	-0.782152	-0.320347
H117	H	0.388859	-0.789759	-0.312746
H118	H	0.445105	-0.725741	-0.307716
N119	N	0.000083	-0.548149	0.005620
H120	H	0.000085	-0.489097	-0.000482
H121	H	-0.037375	-0.564653	0.035536
N122	N	0.141394	-0.832325	-0.270248
H123	H	0.096274	-0.839939	-0.262635
H124	H	0.152515	-0.775915	-0.257615
N125	N	0.000069	-0.719005	-0.008121
H126	H	0.000073	-0.683596	0.040032
H127	H	-0.037392	-0.753326	-0.007755
H128	H	0.000087	-1.054770	0.081563
H129	H	0.000076	-1.042779	0.230680
N130	N	0.000077	-1.094523	0.616357
H131	H	-0.037383	-1.094960	0.650682
H132	H	0.000105	-1.142635	0.580896
N133	N	0.000042	-0.798848	0.596022
H134	H	0.000034	-0.756885	0.554415
H135	H	-0.037419	-0.793024	0.629919
H136	H	0.265148	-1.027666	-0.075023
