data_functionalizedCrystal
_audit_creation_method	'MofGen! by Chris Wilmer'
_symmetry_space_group_name_H-M	'P1'
_symmetry_Int_Tables_number	1
_symmetry_cell_setting	triclinic
loop_
_symmetry_equiv_pos_as_xyz
  x,y,z
_cell_length_a	19.077105
_cell_length_b	12.759400
_cell_length_c	19.076919
_cell_angle_alpha	92.274856
_cell_angle_beta	90.076224
_cell_angle_gamma	87.711168
loop_
_atom_site_label
_atom_site_type_symbol
_atom_site_fract_x
_atom_site_fract_y
_atom_site_fract_z
Zn1	Zn	1.058328	-0.508276	-0.440436
Zn2	Zn	1.558328	-0.008276	0.059564
Zn3	Zn	1.062987	-0.677203	-0.322935
Zn4	Zn	1.562987	-0.177203	0.177065
Zn5	Zn	0.945544	-0.494202	-0.318229
Zn6	Zn	1.445544	0.005798	0.181771
Zn7	Zn	0.940808	-0.676569	-0.435688
Zn8	Zn	1.440808	-0.176569	0.064312
O9	O	1.001917	-0.589062	-0.379322
O10	O	1.501917	-0.089062	0.120678
O11	O	1.157278	-0.536840	-0.428806
O12	O	1.657278	-0.036840	0.071194
O13	O	1.051339	-0.647302	-0.223980
O14	O	1.551339	-0.147302	0.276020
O15	O	0.960537	-0.349051	-0.334457
O16	O	1.460537	0.150949	0.165543
O17	O	1.160701	-0.660950	-0.342479
O18	O	1.660701	-0.160950	0.157521
O19	O	1.043399	-0.359391	-0.424243
O20	O	1.543399	0.140609	0.075757
O21	O	0.965055	-0.512852	-0.220522
O22	O	1.465055	-0.012852	0.279478
O23	O	0.846583	-0.512238	-0.329853
O24	O	1.346583	-0.012238	0.170147
O25	O	0.952466	-0.659870	-0.534649
O26	O	1.452466	-0.159870	-0.034649
O27	O	0.843104	-0.646223	-0.416150
O28	O	1.343104	-0.146223	0.083850
O29	O	1.038807	-0.536225	-0.538138
O30	O	1.538807	-0.036225	-0.038138
O31	O	1.046747	-0.824137	-0.337875
O32	O	1.546747	-0.324137	0.162125
O33	O	0.956983	-0.823671	-0.420714
O34	O	1.456983	-0.323671	0.079286
C35	C	0.819347	-0.577635	-0.371976
C36	C	1.319347	-0.077635	0.128024
C37	C	0.741242	-0.572772	-0.368850
C38	C	1.241242	-0.072772	0.131150
C39	C	0.702758	-0.640344	-0.412241
C40	C	1.202758	-0.140344	0.087759
C41	C	0.629371	-0.635761	-0.409307
C42	C	1.129371	-0.135761	0.090693
C43	C	0.594468	-0.563612	-0.362979
C44	C	1.094468	-0.063612	0.137021
C45	C	0.632957	-0.496033	-0.319586
C46	C	1.132957	0.003967	0.180414
C47	C	0.706344	-0.500611	-0.322524
C48	C	1.206344	-0.000611	0.177476
C49	C	0.375179	-0.542424	-0.349385
C50	C	0.875179	-0.042424	0.150615
C51	C	0.301787	-0.537853	-0.346449
C52	C	0.801787	-0.037853	0.153551
C53	C	0.298205	-0.677581	-0.436172
C54	C	0.798205	-0.177581	0.063828
C55	C	0.371593	-0.682157	-0.439102
C56	C	0.871593	-0.182157	0.060898
C57	C	0.410076	-0.614574	-0.395712
C58	C	0.910076	-0.114574	0.104288
N59	N	0.519454	-0.558928	-0.359977
N60	N	1.019454	-0.058928	0.140023
N61	N	0.485088	-0.619253	-0.398718
N62	N	0.985088	-0.119253	0.101282
C63	C	1.001876	-0.862026	-0.379306
C64	C	1.501876	-0.362026	0.120694
C65	C	1.001921	-0.978807	-0.379325
C66	C	1.501921	-0.478807	0.120675
C67	C	1.048709	-1.033882	-0.336242
C68	C	1.548709	-0.533882	0.163758
C69	C	1.048751	-1.143610	-0.336266
C70	C	1.548751	-0.643610	0.163734
C71	C	0.955212	-1.143177	-0.422456
C72	C	1.455212	-0.643177	0.077544
C73	C	0.955173	-1.033452	-0.422436
C74	C	1.455173	-0.533452	0.077564
C75	C	1.095457	-0.979237	-0.293132
C76	C	1.595457	-0.479237	0.206868
C77	C	1.142248	-1.034313	-0.250045
C78	C	1.642248	-0.534313	0.249955
C79	C	1.142290	-1.144041	-0.250068
C80	C	1.642290	-0.644041	0.249932
C81	C	1.095542	-1.198693	-0.293178
C82	C	1.595542	-0.698693	0.206822
C83	C	1.185199	-0.600535	-0.386697
C84	C	1.685199	-0.100535	0.113303
C85	C	1.263303	-0.605424	-0.389840
C86	C	1.763303	-0.105424	0.110160
C87	C	0.994588	-0.599547	-0.562603
C88	C	1.494588	-0.099547	-0.062603
C89	C	0.991465	-0.604015	-0.640706
C90	C	1.491465	-0.104015	-0.140706
C91	C	1.001976	-0.315035	-0.379355
C92	C	1.501976	0.184965	0.120645
C93	C	1.002002	-0.198260	-0.379368
C94	C	1.502002	0.301740	0.120632
C95	C	1.034949	-0.541742	-0.679216
C96	C	1.534949	-0.041742	-0.179216
C97	C	1.032006	-0.545935	-0.752602
C98	C	1.532006	-0.045935	-0.252602
C99	C	0.985583	-0.612408	-0.787477
C100	C	1.485583	-0.112408	-0.287477
C101	C	0.942094	-0.674683	-0.748961
C102	C	1.442094	-0.174683	-0.248961
C103	C	0.945034	-0.670484	-0.675576
C104	C	1.445034	-0.170484	-0.175576
C105	C	0.971967	-0.631866	-1.006758
C106	C	1.471967	-0.131866	-0.506758
C107	C	0.969032	-0.636063	-1.080148
C108	C	1.469032	-0.136063	-0.580148
C109	C	1.058943	-0.507313	-1.083785
C110	C	1.558943	-0.007313	-0.583785
C111	C	1.061882	-0.503124	-1.010398
C112	C	1.561882	-0.003124	-0.510398
C113	C	1.018391	-0.565395	-0.971889
C114	C	1.518391	-0.065395	-0.471889
N115	N	0.982575	-0.616698	-0.862489
N116	N	1.482575	-0.116698	-0.362489
N117	N	1.021396	-0.561099	-0.896878
N118	N	1.521396	-0.061099	-0.396878
C119	C	1.009257	-0.578545	-0.196756
C120	C	1.509257	-0.078545	0.303244
C121	C	1.012516	-0.573790	-0.118659
C122	C	1.512516	-0.073790	0.381341
H123	H	0.406503	-0.487401	-0.314049
H124	H	0.906503	0.012599	0.185951
H125	H	1.095426	-0.889891	-0.293106
H126	H	1.595426	-0.389891	0.206894
C127	C	1.106774	-0.438813	-1.126146
C128	C	1.606774	0.061187	-0.626146
H129	H	1.098372	-0.450825	-1.174846
H130	H	1.598372	0.049175	-0.674846
H131	H	1.154465	-0.456452	-1.116020
H132	H	1.654465	0.043548	-0.616020
H133	H	1.096980	-0.366889	-1.113712
H134	H	1.596980	0.133111	-0.613712
H135	H	0.917151	-1.187684	-0.457553
H136	H	1.417151	-0.687684	0.042447
H137	H	0.931226	-0.690196	-1.108541
H138	H	1.431226	-0.190196	-0.608541
H139	H	0.604534	-0.437283	-0.281867
H140	H	1.104534	0.062717	0.218133
C141	C	0.903711	-0.972865	-0.469829
C142	C	1.403711	-0.472865	0.030171
H143	H	0.875870	-1.021122	-0.495501
H144	H	1.375870	-0.521122	0.004499
H145	H	0.929333	-0.933444	-0.501536
H146	H	1.429333	-0.433444	-0.001536
H147	H	0.874173	-0.926660	-0.441685
H148	H	1.374173	-0.426660	0.058315
H149	H	0.936564	-0.682588	-0.975413
H150	H	1.436564	-0.182588	-0.475413
C151	C	1.095592	-1.319392	-0.293207
C152	C	1.595592	-0.819392	0.206793
H153	H	1.130152	-1.344368	-0.261373
H154	H	1.630152	-0.844368	0.238627
H155	H	1.105901	-1.347520	-0.339054
H156	H	1.605901	-0.847520	0.160946
H157	H	1.050750	-1.340749	-0.279195
H158	H	1.550750	-0.840749	0.220805
C159	C	1.086012	-0.468616	-0.640861
C160	C	1.586012	0.031384	-0.140861
H161	H	1.111482	-0.432121	-0.674309
H162	H	1.611482	0.067879	-0.174309
H163	H	1.117769	-0.509075	-0.613460
H164	H	1.617769	-0.009075	-0.113460
H165	H	1.060281	-0.419516	-0.611158
H166	H	1.560281	0.080484	-0.111158
H167	H	0.266865	-0.732601	-0.471498
H168	H	0.766865	-0.232601	0.028502
H169	H	1.180395	-1.188881	-0.214990
H170	H	1.680395	-0.688881	0.285010
H171	H	1.067417	-0.495228	-0.783954
H172	H	1.567417	0.004772	-0.283954
C173	C	1.112948	-0.430004	-0.972042
C174	C	1.612948	0.069996	-0.472042
H175	H	1.138422	-0.393511	-1.005488
H176	H	1.638422	0.106489	-0.505488
H177	H	1.144701	-0.470476	-0.944644
H178	H	1.644701	0.029524	-0.444644
H179	H	1.087223	-0.380902	-0.942336
H180	H	1.587223	0.119098	-0.442336
H181	H	0.909618	-0.721182	-0.644221
H182	H	1.409618	-0.221182	-0.144221
C183	C	0.891030	-0.747803	-0.787321
C184	C	1.391030	-0.247803	-0.287321
H185	H	0.895512	-0.741395	-0.836542
H186	H	1.395512	-0.241395	-0.336542
H187	H	0.844302	-0.728786	-0.773395
H188	H	1.344302	-0.228786	-0.273395
H189	H	0.901786	-0.818351	-0.775698
H190	H	1.401786	-0.318351	-0.275698
H191	H	0.737676	-0.445582	-0.287194
H192	H	1.237676	0.054418	0.212806
H193	H	0.731171	-0.699099	-0.449965
H194	H	1.231171	-0.199099	0.050035
H195	H	0.400006	-0.740911	-0.476826
H196	H	0.900006	-0.240911	0.023174
C197	C	0.587043	-0.710152	-0.456994
C198	C	1.087043	-0.210152	0.043006
H199	H	0.618341	-0.753804	-0.484987
H200	H	1.118341	-0.253804	0.015013
H201	H	0.557179	-0.670064	-0.486527
H202	H	1.057179	-0.170064	0.013473
H203	H	0.559503	-0.752518	-0.428872
H204	H	1.059503	-0.252518	0.071128
H205	H	0.273372	-0.479088	-0.308727
H206	H	0.773372	0.020912	0.191273
C207	C	1.193665	-0.974200	-0.202626
C208	C	1.693665	-0.474200	0.297374
H209	H	1.186935	-0.900962	-0.208775
H210	H	1.686935	-0.400962	0.291225
H211	H	1.240466	-0.995653	-0.214845
H212	H	1.740466	-0.495653	0.285155
H213	H	1.185304	-0.988890	-0.154995
H214	H	1.685304	-0.488890	0.345005
