data_functionalizedCrystal
_audit_creation_method	'MofGen! by Chris Wilmer'
_symmetry_space_group_name_H-M	'P1'
_symmetry_Int_Tables_number	1
_symmetry_cell_setting	triclinic
loop_
_symmetry_equiv_pos_as_xyz
  x,y,z
_cell_length_a	12.759395
_cell_length_b	12.759387
_cell_length_c	12.759400
_cell_angle_alpha	89.969031
_cell_angle_beta	90.013853
_cell_angle_gamma	89.980267
loop_
_atom_site_label
_atom_site_type_symbol
_atom_site_fract_x
_atom_site_fract_y
_atom_site_fract_z
Zn1	Zn	1.606262	-0.594038	-0.418180
Zn2	Zn	1.606163	-0.418361	-0.593900
Zn3	Zn	1.430566	-0.418372	-0.418238
Zn4	Zn	1.430558	-0.593998	-0.593819
O5	O	1.518387	-0.506192	-0.506034
O6	O	1.753270	-0.570747	-0.441499
O7	O	1.582831	-0.271342	-0.570656
O8	O	1.453917	-0.441696	-0.271209
O9	O	1.753197	-0.441678	-0.570600
O10	O	1.583001	-0.570757	-0.271166
O11	O	1.453821	-0.271349	-0.441598
O12	O	1.283544	-0.441657	-0.441520
O13	O	1.453903	-0.741024	-0.570462
O14	O	1.283538	-0.570688	-0.570518
O15	O	1.582993	-0.741054	-0.441420
O16	O	1.582823	-0.441639	-0.740910
O17	O	1.453807	-0.570678	-0.740851
C18	C	1.245420	-0.506170	-0.506017
C19	C	1.128643	-0.506185	-0.506035
C20	C	0.909252	-0.640368	-0.640603
C21	C	0.964140	-0.707435	-0.707865
C22	C	1.073861	-0.707421	-0.707853
C23	C	1.128697	-0.640332	-0.640572
C24	C	1.073809	-0.573265	-0.573310
C25	C	0.964085	-0.573288	-0.573328
C26	C	1.073755	-0.439119	-0.438773
C27	C	0.964033	-0.439136	-0.438779
C28	C	1.128591	-0.372029	-0.371493
C29	C	1.073703	-0.304966	-0.304224
C30	C	0.963975	-0.304983	-0.304239
C31	C	0.909145	-0.372069	-0.371517
C32	C	1.518458	-0.780226	-0.505926
C33	C	1.518489	-0.897003	-0.505879
C34	C	1.384159	-0.897030	-0.371482
C35	C	1.317013	-0.951904	-0.304262
C36	C	1.317045	-1.061626	-0.304224
C37	C	1.384227	-1.116476	-0.371416
C38	C	1.451373	-1.061601	-0.438635
C39	C	1.451336	-0.951877	-0.438664
C40	C	1.585695	-1.061574	-0.573036
C41	C	1.585671	-0.951853	-0.573071
C42	C	1.652878	-1.116424	-0.640227
C43	C	1.720030	-1.061550	-0.707443
C44	C	1.719997	-0.951822	-0.707478
C45	C	1.652817	-0.896978	-0.640290
C46	C	1.792421	-0.506215	-0.506052
C47	C	1.909197	-0.506225	-0.506059
C48	C	1.518332	-0.506176	-0.779002
C49	C	1.518405	-0.506204	-0.895778
C50	C	1.518377	-0.233225	-0.506066
C51	C	1.518550	-0.116449	-0.505817
C52	C	1.585585	-0.573461	-0.950538
C53	C	1.585634	-0.573486	-1.060262
C54	C	1.451319	-0.438989	-1.060457
C55	C	1.451266	-0.438969	-0.950734
C56	C	1.652723	-0.640695	-0.895582
C57	C	1.719910	-0.707957	-0.950342
C58	C	1.719959	-0.707983	-1.060066
C59	C	1.652821	-0.640747	-1.115030
C60	C	1.518471	-0.506232	-0.232001
C61	C	1.518507	-0.506249	-0.115224
H62	H	1.118551	-0.762030	-0.762626
O63	O	1.384304	-1.234818	-0.371388
H64	H	1.305074	-1.263778	-0.392599
H65	H	1.774720	-1.106217	-0.762149
H66	H	1.396561	-0.384203	-0.906148
H67	H	1.262367	-1.106304	-0.249490
O68	O	0.790909	-0.640371	-0.640624
H69	H	0.762000	-0.698278	-0.698714
H70	H	1.652854	-0.640785	-1.204375
H71	H	1.218039	-0.640318	-0.640577
O72	O	1.652679	-0.640669	-0.777237
H73	H	1.594690	-0.582598	-0.748391
H74	H	1.396660	-0.384248	-1.105217
H75	H	1.652893	-1.205765	-0.640197
O76	O	0.905015	-0.779773	-0.780466
H77	H	0.926121	-0.862263	-0.762572
H78	H	0.819804	-0.372094	-0.371531
O79	O	1.246934	-0.372001	-0.371488
H80	H	1.275914	-0.451271	-0.350337
O81	O	1.792410	-0.780531	-1.119136
H82	H	1.874868	-0.762572	-1.098042
O83	O	1.132842	-0.232612	-0.231662
H84	H	1.218359	-0.243870	-0.242954
H85	H	0.919291	-0.250368	-0.249467
O86	O	1.384134	-0.778687	-0.371519
H87	H	1.326138	-0.749765	-0.313510
O88	O	1.244561	-0.892749	-0.231785
H89	H	1.255824	-0.807233	-0.243091
H90	H	1.652786	-0.807637	-0.640308
O91	O	1.792428	-0.892635	-0.779971
H92	H	1.839151	-0.949213	-0.826674
O93	O	1.792322	-0.780473	-0.891070
H94	H	1.781012	-0.769150	-0.805572
