data_functionalizedCrystal
_audit_creation_method	'MofGen! by Chris Wilmer'
_symmetry_space_group_name_H-M	'P1'
_symmetry_Int_Tables_number	1
_symmetry_cell_setting	triclinic
loop_
_symmetry_equiv_pos_as_xyz
  x,y,z
_cell_length_a	6.817900
_cell_length_b	14.125469
_cell_length_c	14.125465
_cell_angle_alpha	96.223606
_cell_angle_beta	100.398878
_cell_angle_gamma	100.398878
loop_
_atom_site_label
_atom_site_type_symbol
_atom_site_fract_x
_atom_site_fract_y
_atom_site_fract_z
V1	V	-3.975811	-0.132289	-0.299607
O2	O	-3.980353	0.007207	-0.294286
O3	O	-3.912231	-0.263124	-0.297190
O4	O	-3.912235	-0.129880	-0.430444
O5	O	-3.980349	-0.126958	-0.160110
V6	V	-4.463372	-0.115647	-0.282967
O7	O	-4.228211	-0.168792	-0.336109
O8	O	-4.661169	-0.079143	-0.246465
O9	O	-4.303745	0.015188	-0.285384
O10	O	-4.576227	-0.255143	-0.288288
O11	O	-4.576231	-0.120977	-0.422464
O12	O	-4.303741	-0.118055	-0.152130
C13	C	-3.754030	-0.295030	-0.292369
C14	C	-3.783232	-0.401987	-0.291265
C15	C	-3.836763	-0.597818	-0.289258
C16	C	-4.021786	-0.650129	-0.293319
C17	C	-4.051573	-0.759096	-0.292203
C18	C	-3.806968	-0.488841	-0.290375
C19	C	-3.754035	-0.125064	-0.462346
C20	C	-3.783238	-0.123961	-0.569303
C21	C	-3.836765	-0.121938	-0.765132
C22	C	-4.021787	-0.125996	-0.817442
C23	C	-4.051572	-0.124870	-0.926408
C24	C	-3.806972	-0.123063	-0.656156
C25	C	-4.125288	0.047089	-0.290202
C26	C	-4.075323	0.154046	-0.291313
C27	C	-4.125284	-0.122875	-0.120223
C28	C	-4.075320	-0.123973	-0.013265
H29	H	-4.157823	-0.130325	-0.780391
O30	O	-3.674719	-0.116839	-0.809487
C31	C	-3.741008	-0.116825	-0.909984
H32	H	-3.910122	-0.151379	-0.932471
H33	H	-3.715431	-0.038795	-0.926404
C34	C	-3.411814	-0.133095	-0.939584
C35	C	-3.619520	-0.175544	-0.967205
H36	H	-3.336870	-0.169312	-0.974882
H37	H	-3.367150	-0.133101	-0.871877
H38	H	-3.390529	-0.068072	-0.953269
H39	H	-3.640805	-0.240561	-0.953510
H40	H	-3.664185	-0.175550	-1.034912
H41	H	-4.157817	-0.613077	-0.297633
H42	H	-3.700742	-0.634868	-0.284941
