data_functionalizedCrystal
_audit_creation_method	'MofGen! by Chris Wilmer'
_symmetry_space_group_name_H-M	'P1'
_symmetry_Int_Tables_number	1
_symmetry_cell_setting	triclinic
loop_
_symmetry_equiv_pos_as_xyz
  x,y,z
_cell_length_a	8.965430
_cell_length_b	16.109301
_cell_length_c	16.109301
_cell_angle_alpha	83.461481
_cell_angle_beta	90.001002
_cell_angle_gamma	90.001088
loop_
_atom_site_label
_atom_site_type_symbol
_atom_site_fract_x
_atom_site_fract_y
_atom_site_fract_z
O1	O	-0.123950	-1.103132	-0.106861
O2	O	0.376050	-0.603132	0.393139
O3	O	-0.123974	-0.861070	-0.120160
O4	O	0.376026	-0.361070	0.379840
O5	O	-0.123946	-0.988750	0.007520
O6	O	0.376054	-0.488750	0.507520
O7	O	-0.123978	-0.975451	-0.234542
O8	O	0.376022	-0.475451	0.265458
O9	O	0.124133	-0.988740	0.007512
O10	O	0.624133	-0.488740	0.507512
O11	O	0.124105	-0.861059	-0.120169
O12	O	0.624105	-0.361059	0.379831
O13	O	0.124129	-1.103121	-0.106869
O14	O	0.624129	-0.603121	0.393131
Cu15	Cu	0.146768	-0.982089	-0.113520
Cu16	Cu	0.646768	-0.482089	0.386480
Cu17	Cu	-0.146614	-0.982102	-0.113510
Cu18	Cu	0.353386	-0.482102	0.386490
O19	O	0.124101	-0.975440	-0.234550
O20	O	0.624101	-0.475440	0.265450
C21	C	0.000062	-0.830090	-0.119626
C22	C	0.500062	-0.330090	0.380374
C23	C	0.000054	-0.737794	-0.118011
C24	C	0.500054	-0.237794	0.381989
N25	N	0.353118	-0.982086	-0.113526
N26	N	0.853118	-0.482086	0.386474
N27	N	-0.352963	-0.982111	-0.113497
N28	N	0.147037	-0.482111	0.386503
C29	C	0.450411	-0.923020	-0.172555
C30	C	0.950411	-0.423020	0.327445
C31	C	0.549829	-0.998145	-0.188668
C32	C	1.049829	-0.498145	0.311332
C33	C	0.549826	-0.906992	-0.097421
C34	C	1.049826	-0.406992	0.402579
C35	C	0.450348	-1.057249	-0.129676
C36	C	0.950348	-0.557249	0.370324
C37	C	0.450336	-0.966047	-0.038397
C38	C	0.950336	-0.466047	0.461603
C39	C	0.549710	-1.041227	-0.054477
C40	C	1.049710	-0.541227	0.445523
C41	C	0.000094	-0.988206	0.038491
C42	C	0.500094	-0.488206	0.538491
C43	C	0.000096	-0.986591	0.130786
C44	C	0.500096	-0.486591	0.630786
C45	C	0.000089	-1.134101	-0.107404
C46	C	0.500089	-0.634101	0.392596
C47	C	0.000088	-1.226397	-0.109019
C48	C	0.500088	-0.726397	0.390981
C49	C	0.000061	-0.515522	-0.190018
C50	C	0.500061	-0.015522	0.309982
C51	C	0.000071	-0.428801	-0.188494
C52	C	0.500071	0.071199	0.311506
C53	C	0.000085	-0.448676	-0.037006
C54	C	0.500085	0.051324	0.462994
C55	C	0.000086	-0.535394	-0.038530
C56	C	0.500086	-0.035394	0.461470
C57	C	0.000067	-0.568815	-0.115039
C58	C	0.500067	-0.068815	0.384961
C59	C	0.000075	-0.395376	-0.111990
C60	C	0.500075	0.104624	0.388010
C61	C	0.000086	-0.301350	-0.110337
C62	C	0.500086	0.198650	0.389663
C63	C	0.000059	-0.662847	-0.116693
C64	C	0.500059	-0.162847	0.383307
C65	C	0.000058	-0.975984	-0.265521
C66	C	0.500058	-0.475984	0.234479
C67	C	0.000046	-0.977600	-0.357816
C68	C	0.500046	-0.477600	0.142184
C69	C	0.000080	-1.058599	0.353059
C70	C	0.500080	-0.558599	0.853059
C71	C	0.000067	-1.057075	0.439779
C72	C	0.500067	-0.557075	0.939779
C73	C	0.000058	-0.905586	0.419905
C74	C	0.500058	-0.405586	0.919905
C75	C	0.000060	-0.907111	0.333186
C76	C	0.500060	-0.407111	0.833186
C77	C	0.000078	-0.983620	0.299766
C78	C	0.500078	-0.483620	0.799766
C79	C	0.000064	-0.980571	0.473205
C80	C	0.500064	-0.480571	0.973205
C81	C	0.000050	-0.978918	0.567231
C82	C	0.500050	-0.478918	1.067231
C83	C	0.000089	-0.985273	0.205734
C84	C	0.500089	-0.485273	0.705734
H85	H	0.406811	-0.873115	-0.222519
H86	H	0.906811	-0.373115	0.277481
C87	C	0.000099	-1.206966	0.450707
C88	C	0.500099	-0.706966	0.950707
C89	C	0.000079	-1.139494	0.498359
C90	C	0.500079	-0.639494	0.998359
H91	H	0.000114	-1.257849	0.486874
H92	H	0.500114	-0.757849	0.986874
H93	H	-0.086404	-1.204414	0.416471
H94	H	0.413596	-0.704414	0.916471
H95	H	0.086618	-1.204397	0.416470
H96	H	0.586618	-0.704397	0.916470
H97	H	-0.086446	-1.142059	0.532592
H98	H	0.413554	-0.642059	1.032592
H99	H	0.086591	-1.142047	0.532610
H100	H	0.586591	-0.642047	1.032610
H101	H	0.000070	-0.385413	-0.249550
H102	H	0.500070	0.114587	0.250450
C103	C	0.000074	-0.324566	0.032597
C104	C	0.500074	0.175434	0.532597
C105	C	0.000086	-0.411936	0.047090
C106	C	0.500086	0.088064	0.547090
H107	H	0.000062	-0.301888	0.084517
H108	H	0.500062	0.198112	0.584517
H109	H	0.086578	-0.306274	0.001732
H110	H	0.586578	0.193726	0.501732
H111	H	-0.086444	-0.306283	0.001724
H112	H	0.413556	0.193717	0.501724
H113	H	0.086611	-0.430220	0.077958
H114	H	0.586611	0.069780	0.577958
H115	H	-0.086426	-0.430236	0.077968
H116	H	0.413574	0.069764	0.577968
H117	H	0.406599	-0.952440	0.025105
H118	H	0.906599	-0.452440	0.525105
H119	H	0.000094	-0.578788	0.022530
H120	H	0.500094	-0.078788	0.522530
C121	C	-0.127442	-1.148194	0.267059
C122	C	0.372558	-0.648194	0.767059
C123	C	0.000082	-1.142694	0.316318
C124	C	0.500082	-0.642694	0.816318
H125	H	-0.127437	-1.200110	0.244375
H126	H	0.372563	-0.700110	0.744375
H127	H	-0.213937	-1.144454	0.300476
H128	H	0.286063	-0.644454	0.800476
H129	H	-0.127423	-1.103752	0.222910
H130	H	0.372577	-0.603752	0.722910
H131	H	0.000056	-1.187132	0.360471
H132	H	0.500056	-0.687132	0.860471
H133	H	0.086599	-1.146442	0.282899
H134	H	0.586599	-0.646442	0.782899
H135	H	0.000054	-0.846050	0.289792
H136	H	0.500054	-0.346050	0.789792
H137	H	0.593527	-0.843477	-0.083812
H138	H	1.093527	-0.343477	0.416188
C139	C	0.000067	-0.487163	-0.339604
C140	C	0.500067	0.012837	0.160396
C141	C	0.000061	-0.552259	-0.274115
C142	C	0.500061	-0.052259	0.225885
H143	H	0.000079	-0.509843	-0.391522
H144	H	0.500079	-0.009843	0.108478
H145	H	-0.086439	-0.453757	-0.335860
H146	H	0.413561	0.046243	0.164140
H147	H	0.086583	-0.453751	-0.335850
H148	H	0.586583	0.046249	0.164150
H149	H	-0.086461	-0.585667	-0.277866
H150	H	0.413539	-0.085667	0.222134
H151	H	0.086576	-0.585679	-0.277861
H152	H	0.586576	-0.085679	0.222139
H153	H	0.000046	-0.843295	0.447127
H154	H	0.500046	-0.343295	0.947127
H155	H	0.593531	-1.011729	-0.252190
H156	H	1.093531	-0.511729	0.247810
H157	H	0.406834	-1.120779	-0.143362
H158	H	0.906834	-0.620779	0.356638
H159	H	0.593036	-1.091242	-0.004543
H160	H	1.093036	-0.591242	0.495457
