data_functionalizedCrystal
_audit_creation_method	'MofGen! by Chris Wilmer'
_symmetry_space_group_name_H-M	'P1'
_symmetry_Int_Tables_number	1
_symmetry_cell_setting	triclinic
loop_
_symmetry_equiv_pos_as_xyz
  x,y,z
_cell_length_a	10.489716
_cell_length_b	10.489716
_cell_length_c	16.176319
_cell_angle_alpha	89.997268
_cell_angle_beta	89.992978
_cell_angle_gamma	84.529136
loop_
_atom_site_label
_atom_site_type_symbol
_atom_site_fract_x
_atom_site_fract_y
_atom_site_fract_z
O1	O	1.694061	0.179824	-0.068732
O2	O	1.322860	0.196750	-0.068734
O3	O	1.516923	0.002686	-0.068736
O4	O	1.499998	0.373887	-0.068730
O5	O	1.516896	0.002674	0.068757
O6	O	1.322833	0.196737	0.068759
O7	O	1.694034	0.179811	0.068761
Cu8	Cu	1.508431	0.188273	0.081314
Cu9	Cu	1.508463	0.188288	-0.081287
O10	O	1.499971	0.373875	0.068763
C11	C	1.275314	0.195472	0.000012
C12	C	1.133684	0.191667	0.000011
C13	C	1.035999	0.310673	0.000011
C14	C	0.958646	0.247781	0.067805
C15	C	0.958679	0.247766	-0.067753
C16	C	1.058195	0.128825	0.067861
C17	C	1.058234	0.128827	-0.067758
C18	C	0.980929	0.065848	0.000053
C19	C	1.515638	-0.044852	0.000008
C20	C	1.511833	-0.186483	0.000001
C21	C	1.630839	-0.284167	0.000009
C22	C	1.567967	-0.361516	-0.067781
C23	C	1.567913	-0.361493	0.067777
C24	C	1.449011	-0.261966	-0.067845
C25	C	1.448974	-0.261937	0.067774
C26	C	1.386015	-0.339237	-0.000033
C27	C	1.741580	0.181089	0.000013
C28	C	1.883210	0.184894	0.000009
C29	C	1.501256	0.421413	0.000017
C30	C	1.505061	0.563044	0.000019
N31	N	1.508418	0.188262	0.195680
N32	N	1.508486	0.188289	-0.195652
C33	C	1.594375	0.102366	0.238943
C34	C	1.594382	0.102365	0.325490
C35	C	1.508436	0.188266	0.368772
C36	C	1.422469	0.274166	0.325503
C37	C	1.422457	0.274160	0.238957
C38	C	1.422513	0.274190	0.674531
C39	C	1.422534	0.274192	0.761083
C40	C	1.594437	0.102395	0.761064
C41	C	1.594426	0.102389	0.674518
C42	C	1.508455	0.188284	0.631257
C43	C	1.508447	0.188282	0.537412
C44	C	1.508449	0.188275	0.462615
H45	H	1.734354	-0.259500	-0.000059
N46	N	1.068696	0.447780	0.000101
H47	H	1.119715	0.464216	-0.051119
H48	H	0.987135	0.507298	0.000700
N49	N	0.901033	0.314304	0.143731
H50	H	0.920649	0.406717	0.143684
H51	H	0.805206	0.310384	0.143405
H52	H	1.101505	0.078612	0.125232
N53	N	0.948573	-0.071368	0.000094
H54	H	0.985129	-0.116158	0.051319
H55	H	0.852479	-0.073121	-0.000421
H56	H	1.101745	0.078634	-0.125076
H57	H	1.398770	-0.218420	0.125087
H58	H	1.664436	0.032451	0.796297
H59	H	1.618164	-0.404975	0.125086
H60	H	0.915202	0.298033	-0.125059
H61	H	1.664368	0.032421	0.203708
N62	N	1.687137	0.009765	0.372154
H63	H	1.741602	-0.044633	0.331602
H64	H	1.743949	0.059203	0.408035
N65	N	1.382542	-0.204606	-0.143854
H66	H	1.349803	-0.274929	-0.178252
H67	H	1.308309	-0.141833	-0.126601
N68	N	1.687129	0.009745	0.627835
H69	H	1.741584	-0.044673	0.668376
H70	H	1.637779	-0.047123	0.591938
H71	H	1.618215	-0.405010	-0.125092
N72	N	1.248812	-0.371635	-0.000105
H73	H	1.189359	-0.290023	-0.000627
H74	H	1.232994	-0.423966	-0.050845
H75	H	1.352460	0.344103	0.203733
N76	N	1.329821	0.366834	0.807771
H77	H	1.345308	0.457517	0.792703
H78	H	1.239199	0.351138	0.792708
N79	N	1.329785	0.366822	0.627876
H80	H	1.275345	0.421239	0.668430
H81	H	1.379110	0.423692	0.591952
N82	N	1.329759	0.366810	0.372181
H83	H	1.342809	0.353784	0.433572
H84	H	1.345305	0.457447	0.357044
