data_functionalizedCrystal
_audit_creation_method	'MofGen! by Chris Wilmer'
_symmetry_space_group_name_H-M	'P1'
_symmetry_Int_Tables_number	1
_symmetry_cell_setting	triclinic
loop_
_symmetry_equiv_pos_as_xyz
  x,y,z
_cell_length_a	14.971475
_cell_length_b	14.519709
_cell_length_c	14.048226
_cell_angle_alpha	89.992623
_cell_angle_beta	90.005580
_cell_angle_gamma	96.355088
loop_
_atom_site_label
_atom_site_type_symbol
_atom_site_fract_x
_atom_site_fract_y
_atom_site_fract_z
O1	O	-1.187021	0.120136	-0.079143
O2	O	-0.926627	0.134539	-0.079150
O3	O	-1.063728	-0.006906	-0.079138
O4	O	-1.049920	0.261580	-0.079155
O5	O	-1.063711	-0.006914	0.079184
O6	O	-0.926611	0.134530	0.079172
O7	O	-1.187004	0.120128	0.079178
Zn8	Zn	-1.056805	0.127328	0.104312
Zn9	Zn	-1.056827	0.127339	-0.104283
O10	O	-1.049903	0.261572	0.079166
C11	C	-0.893294	0.133892	0.000010
C12	C	-0.793995	0.131967	0.000008
C13	C	-0.747341	0.131056	0.086310
C14	C	-0.654041	0.129233	0.086310
C15	C	-0.607396	0.128327	0.000008
C16	C	-0.654057	0.129236	-0.086300
C17	C	-0.747356	0.131052	-0.086300
C18	C	-0.459593	0.125452	-0.086295
C19	C	-0.366287	0.123636	-0.086296
C20	C	-0.366277	0.123632	0.086315
C21	C	-0.459576	0.125449	0.086316
C22	C	-0.506231	0.126359	0.000007
C23	C	-1.063076	-0.041269	0.000023
C24	C	-1.061148	-0.143649	0.000024
C25	C	-1.054049	-0.518540	-0.000001
C26	C	-1.056020	-0.414234	0.000006
C27	C	-1.057598	-0.331098	0.000012
C28	C	-1.059570	-0.226785	0.000017
C29	C	-0.220337	0.120781	0.000015
C30	C	-0.319633	0.122725	0.000006
C31	C	-1.050555	0.295935	0.000003
C32	C	-1.052484	0.398315	-0.000003
N33	N	-1.056796	0.127320	0.246672
N34	N	-1.056842	0.127339	-0.246644
C35	C	-1.117524	0.064714	0.296496
C36	C	-1.117530	0.064713	0.396153
C37	C	-1.056812	0.127324	0.445986
C38	C	-0.996078	0.189932	0.396156
C39	C	-0.996069	0.189928	0.296500
C40	C	-0.996104	0.189939	0.603870
C41	C	-0.996115	0.189945	0.703533
C42	C	-1.117565	0.064725	0.703524
C43	C	-1.117556	0.064720	0.603868
C44	C	-1.056823	0.127330	0.554044
H45	H	-0.497551	0.126192	0.156591
H46	H	-0.616073	0.128492	-0.156569
H47	H	-1.167001	0.013743	0.563294
C48	C	-0.798680	0.132057	-0.181229
H49	H	-0.860927	0.133259	-0.168869
H50	H	-0.776656	0.185497	-0.216697
H51	H	-0.790131	0.078014	-0.216682
H52	H	-0.946646	0.240920	0.563307
C53	C	-1.184313	-0.004160	0.241689
H54	H	-1.220474	-0.041451	0.285639
H55	H	-1.221594	0.029072	0.202797
H56	H	-1.152068	-0.042609	0.202830
H57	H	-0.497576	0.126193	-0.156577
C58	C	-0.929262	0.258776	0.450964
H59	H	-0.893080	0.296048	0.407015
H60	H	-0.961471	0.297235	0.489841
H61	H	-0.891991	0.225507	0.489839
C62	C	-0.929272	0.258797	0.241694
H63	H	-0.893118	0.296093	0.285644
H64	H	-0.891986	0.225559	0.202832
H65	H	-0.961508	0.297243	0.202805
H66	H	-0.328287	0.122891	0.156591
H67	H	-0.328312	0.122900	-0.156571
H68	H	-1.166978	0.013735	0.436719
H69	H	-0.946671	0.240928	0.744101
C70	C	-0.798644	0.132036	0.181244
H71	H	-0.757494	0.131218	0.232641
H72	H	-0.828308	0.186477	0.184842
H73	H	-0.841772	0.078993	0.184823
C74	C	-0.602724	0.128238	0.181242
H75	H	-0.643865	0.129050	0.232640
H76	H	-0.573067	0.073791	0.184842
H77	H	-0.559589	0.181275	0.184820
H78	H	-1.167016	0.013746	0.744096
