data_functionalizedCrystal
_audit_creation_method	'MofGen! by Chris Wilmer'
_symmetry_space_group_name_H-M	'P1'
_symmetry_Int_Tables_number	1
_symmetry_cell_setting	triclinic
loop_
_symmetry_equiv_pos_as_xyz
  x,y,z
_cell_length_a	14.853568
_cell_length_b	14.586319
_cell_length_c	16.109301
_cell_angle_alpha	90.005770
_cell_angle_beta	96.451666
_cell_angle_gamma	89.998669
loop_
_atom_site_label
_atom_site_type_symbol
_atom_site_fract_x
_atom_site_fract_y
_atom_site_fract_z
O1	O	-1.196185	0.076184	0.108550
O2	O	-0.933704	0.076199	0.121480
O3	O	-1.072155	0.076182	-0.006006
O4	O	-1.057734	0.076201	0.236035
O5	O	-1.072144	-0.076299	-0.006009
O6	O	-0.933693	-0.076282	0.121477
O7	O	-1.196174	-0.076297	0.108546
Cu8	Cu	-1.064932	-0.090212	0.115011
Cu9	Cu	-1.064945	0.090114	0.115015
O10	O	-1.057723	-0.076280	0.236032
C11	C	-0.900111	-0.000040	0.120892
C12	C	-0.800030	-0.000034	0.119136
N13	N	-1.064930	-0.217044	0.115008
C14	C	-0.387633	-0.000063	0.035984
C15	C	-0.366102	-0.000049	0.187440
C16	C	-0.460133	-0.000046	0.189091
C17	C	-0.517919	-0.000050	0.114188
C18	C	-0.481673	-0.000056	0.037633
C19	C	-0.496386	-0.000030	0.265645
C20	C	-0.590422	-0.000026	0.267299
C21	C	-0.648210	-0.000036	0.192394
C22	C	-0.611959	-0.000044	0.115836
C23	C	-0.669744	-0.000047	0.040933
C24	C	-0.633496	-0.000061	-0.035626
C25	C	-0.539461	-0.000066	-0.037272
C26	C	-0.742244	-0.000031	0.194040
C27	C	-0.763784	-0.000041	0.042581
C28	C	-1.126259	-0.548045	0.058576
C29	C	-1.126257	-0.452064	0.058576
C30	C	-1.003622	-0.452059	0.171450
C31	C	-1.003629	-0.548039	0.171452
C32	C	-1.064947	-0.596029	0.115011
C33	C	-1.064938	-0.404069	0.115008
C34	C	-1.064935	-0.300002	0.115009
C35	C	-1.064951	-0.700103	0.115011
C36	C	-0.229767	-0.000057	0.109133
C37	C	-0.329848	-0.000059	0.110888
C38	C	-1.071565	-0.000059	-0.036984
C39	C	-1.069814	-0.000061	-0.129281
N40	N	-1.064955	0.216946	0.115011
C41	C	-1.147896	-0.000051	-0.351444
C42	C	-1.146243	-0.000043	-0.438167
C43	C	-0.981976	-0.000037	-0.418523
C44	C	-0.983629	-0.000038	-0.331802
C45	C	-1.066592	-0.000049	-0.298265
C46	C	-1.063286	-0.000041	-0.471709
C47	C	-1.061493	-0.000032	-0.565737
C48	C	-1.068385	-0.000056	-0.204231
C49	C	-1.058312	-0.000037	0.267010
C50	C	-1.060064	-0.000030	0.359307
H51	H	-0.810828	-0.000047	-0.018416
C52	C	-1.245060	-0.078439	-0.265329
C53	C	-1.239088	-0.000053	-0.314581
H54	H	-1.301363	-0.078439	-0.242579
H55	H	-1.196884	-0.078434	-0.221247
H56	H	-1.240999	-0.131606	-0.298766
H57	H	-1.243142	0.053114	-0.281143
H58	H	-1.287277	-0.000050	-0.358669
C59	C	-1.145863	-0.655994	-0.054545
C60	C	-1.193662	-0.600799	-0.003459
H61	H	-1.187478	-0.688556	-0.092845
H62	H	-1.109357	-0.698306	-0.020934
H63	H	-1.108348	-0.618549	-0.084511
H64	H	-1.231172	-0.638246	0.026513
H65	H	-1.230184	-0.558483	-0.037073
C66	C	-1.247466	-0.461716	-0.053000
C67	C	-1.193650	-0.399320	-0.003463
H68	H	-1.289069	-0.429152	-0.091305
H69	H	-1.279886	-0.499142	-0.018340
H70	H	-1.209938	-0.499160	-0.082963
H71	H	-1.231177	-0.361880	0.026504
H72	H	-1.161227	-0.361879	-0.038128
H73	H	-0.449331	-0.000018	0.326627
C74	C	-0.841447	-0.078411	-0.428480
C75	C	-0.890784	-0.000031	-0.455386
H76	H	-0.785145	-0.078404	-0.451233
H77	H	-0.874918	-0.131576	-0.446738
H78	H	-0.830806	-0.078401	-0.369221
H79	H	-0.901430	-0.000045	-0.514646
H80	H	-0.857305	0.053147	-0.437133
H81	H	-0.953701	-0.587110	0.217413
C82	C	-0.835504	-0.078396	0.283759
C83	C	-0.782092	-0.000015	0.278184
H84	H	-0.860106	-0.078382	0.335707
H85	H	-0.799265	-0.131560	0.279974
H86	H	-0.883373	-0.078392	0.239381
H87	H	-0.734218	-0.000022	0.322558
H88	H	-0.818332	0.053164	0.281977
H89	H	-0.917418	-0.000034	-0.288501
H90	H	-0.358115	-0.000078	-0.026348
H91	H	-0.953698	-0.412976	0.217402
C92	C	-0.751740	0.078327	-0.121625
C93	C	-0.697022	-0.000063	-0.117958
H94	H	-0.790964	0.078322	-0.172450
H95	H	-0.714602	0.131485	-0.119130
H96	H	-0.786774	0.078328	-0.075788
H97	H	-0.661983	-0.000061	-0.163792
H98	H	-0.734165	-0.053235	-0.120461
C99	C	-0.404874	-0.000068	-0.107046
C100	C	-0.499614	-0.000072	-0.121420
H101	H	-0.380274	-0.000064	-0.158995
H102	H	-0.385046	-0.053237	-0.076209
H103	H	-0.385052	0.053111	-0.076196
H104	H	-0.519437	-0.053254	-0.152264
H105	H	-0.519450	0.053102	-0.152270
C106	C	-0.212395	-0.000055	0.252158
C107	C	-0.302587	-0.000049	0.269772
H108	H	-0.173183	-0.000062	0.302989
H109	H	-0.201413	0.053114	0.220783
H110	H	-0.201420	-0.053233	0.220767
H111	H	-0.313564	0.053133	0.301158
H112	H	-0.313574	-0.053224	0.301160
H113	H	-0.619928	-0.000014	0.329638
C114	C	-1.308778	-0.000063	-0.448866
C115	C	-1.235615	-0.000050	-0.496621
H116	H	-1.363954	-0.000072	-0.484955
H117	H	-1.306011	0.053106	-0.414629
H118	H	-1.305993	-0.053241	-0.414637
H119	H	-1.238396	0.053132	-0.530846
H120	H	-1.238383	-0.053225	-0.530872
