data_functionalizedCrystal
_audit_creation_method	'MofGen! by Chris Wilmer'
_symmetry_space_group_name_H-M	'P1'
_symmetry_Int_Tables_number	1
_symmetry_cell_setting	triclinic
loop_
_symmetry_equiv_pos_as_xyz
  x,y,z
_cell_length_a	19.121102
_cell_length_b	12.759394
_cell_length_c	12.759387
_cell_angle_alpha	89.968340
_cell_angle_beta	92.461874
_cell_angle_gamma	92.430742
loop_
_atom_site_label
_atom_site_type_symbol
_atom_site_fract_x
_atom_site_fract_y
_atom_site_fract_z
Zn1	Zn	1.073810	0.486838	0.662508
Zn2	Zn	1.073736	0.662550	0.486822
Zn3	Zn	0.956351	0.479384	0.479351
Zn4	Zn	0.956345	0.654969	0.654971
O5	O	1.015061	0.570935	0.570913
O6	O	1.172085	0.516439	0.645484
O7	O	1.058136	0.638306	0.338808
O8	O	0.971965	0.333354	0.503676
O9	O	1.172031	0.645535	0.516408
O10	O	1.058261	0.338830	0.638240
O11	O	0.971894	0.503735	0.333319
O12	O	0.858065	0.496383	0.496367
O13	O	0.971956	0.632612	0.802994
O14	O	0.858061	0.625384	0.625394
O15	O	1.058256	0.509088	0.808532
O16	O	1.058131	0.808564	0.509099
O17	O	0.971885	0.802993	0.632638
C18	C	1.015018	0.843900	0.570885
C19	C	1.015065	0.960680	0.570912
C20	C	0.832578	0.559253	0.559253
C21	C	0.754512	0.554280	0.554289
C22	C	1.015114	0.570836	0.844950
C23	C	1.015136	0.570793	0.961728
C24	C	0.717852	0.619210	0.619029
C25	C	0.644500	0.614524	0.614370
C26	C	0.607809	0.544913	0.544966
C27	C	0.644474	0.479976	0.480223
C28	C	0.717825	0.484658	0.484888
C29	C	0.386337	0.527407	0.527531
C30	C	0.312981	0.522733	0.522869
C31	C	0.313013	0.657280	0.657018
C32	C	0.386365	0.661959	0.661672
C33	C	0.423023	0.597019	0.596933
C34	C	0.532832	0.540123	0.540200
C35	C	0.497999	0.601804	0.601705
C36	C	1.198255	0.582664	0.582620
C37	C	1.276322	0.587662	0.587609
C38	C	1.015122	0.296906	0.570966
C39	C	1.015148	0.180131	0.570988
C40	C	1.104941	0.966431	0.442376
C41	C	1.149897	1.024169	0.378122
C42	C	1.149938	1.133893	0.378153
C43	C	1.105019	1.185882	0.442448
C44	C	1.060063	1.128144	0.506702
C45	C	1.060025	1.018418	0.506662
C46	C	0.970192	1.122393	0.635242
C47	C	0.970146	1.012669	0.635207
C48	C	0.925274	1.174382	0.699537
C49	C	0.880313	1.116644	0.763788
C50	C	0.880273	1.006913	0.763753
C51	C	0.925190	0.954931	0.699462
C52	C	1.015048	0.570961	0.297945
C53	C	1.015162	0.570716	0.181176
C54	C	1.105007	0.442176	0.967515
C55	C	1.149952	0.377853	1.025270
C56	C	1.149969	0.377815	1.134992
C57	C	1.105035	0.442106	1.186963
C58	C	1.060090	0.506430	1.129208
C59	C	1.060079	0.506463	1.019483
C60	C	0.970216	0.635040	1.123421
C61	C	0.970202	0.635084	1.013699
C62	C	0.925282	0.699331	1.175391
C63	C	0.880339	0.763662	1.117637
C64	C	0.880325	0.763697	1.007907
C65	C	0.925257	0.699408	0.955944
H66	H	0.614655	0.667397	0.667088
C67	C	0.538356	0.678376	0.678048
C68	C	0.528318	0.669314	0.796862
C69	C	0.568683	0.745890	0.873201
C70	C	0.619084	0.831529	0.830726
C71	C	0.629124	0.840594	0.711905
C72	C	0.588760	0.764018	0.635566
H73	H	0.491006	0.605916	0.828311
H74	H	0.561250	0.739179	0.961161
H75	H	0.648964	0.888215	0.887237
H76	H	0.666437	0.903992	0.680457
H77	H	0.596193	0.770730	0.547607
C78	C	1.199389	1.197409	0.307474
C79	C	1.254543	1.276264	0.356606
C80	C	1.303994	1.339780	0.285927
C81	C	1.298291	1.324442	0.166115
C82	C	1.243135	1.245584	0.116976
C83	C	1.193684	1.182068	0.187656
H84	H	1.258767	1.287621	0.445303
H85	H	1.344824	1.398156	0.322303
H86	H	1.334897	1.371460	0.113794
H87	H	1.238911	1.234226	0.028279
H88	H	1.152854	1.123692	0.151279
C89	C	0.758155	0.413235	0.413675
C90	C	0.748086	0.293167	0.421820
C91	C	0.788416	0.221736	0.350611
C92	C	0.838814	0.270374	0.271256
C93	C	0.848885	0.390448	0.263107
C94	C	0.808555	0.461878	0.334316
H95	H	0.710776	0.257157	0.480566
H96	H	0.780960	0.132849	0.356643
H97	H	0.868669	0.217496	0.218542
H98	H	0.886195	0.426457	0.204361
H99	H	0.816011	0.550765	0.328284
C100	C	0.830909	1.173831	0.834508
C101	C	0.830960	1.294524	0.834554
C102	C	0.781556	1.351716	0.905276
C103	C	0.732101	1.288214	0.975953
C104	C	0.732049	1.167514	0.975910
C105	C	0.781453	1.110323	0.905188
H106	H	0.867571	1.341538	0.782232
H107	H	0.781594	1.441066	0.905307
H108	H	0.695529	1.330551	1.028306
H109	H	0.695438	1.120500	1.028231
H110	H	0.781414	1.020972	0.905156
H111	H	0.747721	0.675898	0.675543
H112	H	0.843667	0.959909	0.816081
H113	H	0.843717	0.816066	0.960889
C114	C	1.199380	0.307140	0.968100
C115	C	1.168964	0.222730	0.890734
C116	C	1.218391	0.152017	0.833568
C117	C	1.298235	0.165713	0.853768
C118	C	1.328655	0.250127	0.931137
C119	C	1.279228	0.320840	0.988303
H120	H	1.109855	0.212588	0.875778
H121	H	1.195871	0.089528	0.776294
H122	H	1.334824	0.113367	0.811450
H123	H	1.387764	0.260269	0.946093
H124	H	1.301748	0.383328	1.045577
C125	C	0.830916	0.834374	1.174803
C126	C	0.830928	0.834327	1.295494
C127	C	0.781505	0.905042	1.352665
C128	C	0.732068	0.975804	1.289145
C129	C	0.732054	0.975854	1.168447
C130	C	0.781477	0.905139	1.111276
H131	H	0.867526	0.781942	1.342522
H132	H	0.781516	0.905005	1.442014
H133	H	0.695482	1.028151	1.331466
H134	H	0.695456	1.028238	1.121419
H135	H	0.781466	0.905176	1.021927
H136	H	0.925252	0.699435	0.866602
H137	H	0.614594	0.423293	0.423717
H138	H	1.105047	0.442061	1.276305
C139	C	0.426719	0.738535	0.738021
C140	C	0.477115	0.824186	0.695555
C141	C	0.517467	0.900768	0.771900
C142	C	0.507424	0.891699	0.890713
C143	C	0.457025	0.806044	0.933186
C144	C	0.416673	0.729462	0.856840
H145	H	0.484552	0.830902	0.607597
H146	H	0.554776	0.964175	0.740459
H147	H	0.537295	0.948390	0.947229
H148	H	0.449588	0.799328	1.021144
H149	H	0.379365	0.666055	0.888282
C150	C	0.272688	0.728701	0.728236
C151	C	0.192005	0.723555	0.723117
C152	C	0.151681	0.794976	0.794343
C153	C	0.192039	0.871543	0.870689
C154	C	0.272726	0.876692	0.875812
C155	C	0.313051	0.805271	0.804586
H156	H	0.162125	0.666873	0.666598
H157	H	0.091950	0.791164	0.790550
H158	H	0.162188	0.924413	0.923415
H159	H	0.302606	0.933374	0.932330
H160	H	0.372781	0.809083	0.808378
H161	H	0.283110	0.466035	0.466357
H162	H	1.186470	0.981830	0.325776
H163	H	0.416176	0.474536	0.474808
C164	C	0.492464	0.463560	0.463854
C165	C	0.442062	0.377922	0.506328
C166	C	0.401689	0.301357	0.429986
C167	C	0.411720	0.310429	0.311171
C168	C	0.462125	0.396071	0.268690
C169	C	0.502498	0.472636	0.345032
H170	H	0.434634	0.371202	0.594287
H171	H	0.364376	0.237959	0.461433
H172	H	0.381834	0.253751	0.254658
H173	H	0.469553	0.402790	0.180731
H174	H	0.539811	0.536033	0.313585
H175	H	1.105063	1.275226	0.442477
H176	H	1.104902	0.877088	0.442330
H177	H	0.925157	0.865588	0.699420
H178	H	0.925313	1.263726	0.699563
H179	H	1.105004	0.442210	0.878174
H180	H	0.925296	0.699292	1.264733
H181	H	1.186563	0.325431	1.182016
