data_functionalizedCrystal
_audit_creation_method	'MofGen! by Chris Wilmer'
_symmetry_space_group_name_H-M	'P1'
_symmetry_Int_Tables_number	1
_symmetry_cell_setting	triclinic
loop_
_symmetry_equiv_pos_as_xyz
  x,y,z
_cell_length_a	9.065215
_cell_length_b	16.109301
_cell_length_c	14.586319
_cell_angle_alpha	90.000787
_cell_angle_beta	90.002835
_cell_angle_gamma	84.238089
loop_
_atom_site_label
_atom_site_type_symbol
_atom_site_fract_x
_atom_site_fract_y
_atom_site_fract_z
O1	O	0.189629	1.104587	0.076180
O2	O	0.213228	0.862706	0.076195
O3	O	-0.013335	0.988647	0.076183
O4	O	0.416192	0.978645	0.076192
O5	O	-0.013339	0.988638	-0.076297
O6	O	0.213224	0.862697	-0.076286
O7	O	0.189625	1.104578	-0.076300
Cu8	Cu	0.201425	0.983637	-0.090216
Cu9	Cu	0.201429	0.983647	0.090110
O10	O	0.416189	0.978636	-0.076289
C11	C	-0.068301	0.987682	-0.000056
C12	C	-0.232074	0.984810	-0.000053
C13	C	0.212270	0.831719	-0.000044
C14	C	0.209404	0.739402	-0.000038
C15	C	0.337178	0.518110	-0.000046
C16	C	0.334474	0.431369	-0.000052
C17	C	0.065665	0.449180	-0.000054
C18	C	0.068370	0.535919	-0.000054
C19	C	0.204132	0.570382	-0.000046
C20	C	0.198721	0.396901	-0.000051
C21	C	0.195788	0.302853	-0.000058
C22	C	0.207066	0.664437	-0.000041
C23	C	0.471154	0.979602	-0.000048
C24	C	0.634927	0.982474	-0.000045
C25	C	0.190583	1.135564	-0.000060
C26	C	0.193449	1.227882	-0.000059
N27	N	0.201421	0.983635	-0.217048
C28	C	0.101132	1.039421	-0.452059
C29	C	0.101129	1.039423	-0.548040
C30	C	0.301714	0.927863	-0.548040
C31	C	0.301709	0.927857	-0.452060
C32	C	0.201420	0.983641	-0.404072
C33	C	0.201421	0.983649	-0.596033
C34	C	0.201418	0.983651	-0.700100
C35	C	0.201421	0.983638	-0.299999
N36	N	0.201421	0.983655	0.216942
H37	H	0.447724	0.546167	-0.000047
C38	C	0.480821	0.373870	-0.000048
H39	H	0.459772	0.317275	-0.000058
H40	H	0.536490	0.384426	0.053127
H41	H	0.536484	0.384429	-0.053227
C42	C	0.412039	0.866504	-0.399267
H43	H	0.397662	0.874487	-0.335233
H44	H	0.510504	0.876276	-0.414990
H45	H	0.395988	0.810894	-0.414998
H46	H	-0.044868	0.421109	-0.000066
C47	C	-0.077988	0.593422	-0.000050
H48	H	-0.159230	0.560476	-0.000041
H49	H	-0.082524	0.627630	-0.053223
H50	H	-0.082508	0.627628	0.053131
H51	H	0.019469	1.084842	-0.412990
C52	C	-0.009182	1.100785	-0.600822
H53	H	-0.068899	1.134008	-0.558493
H54	H	-0.070614	1.070422	-0.638269
H55	H	0.043919	1.135794	-0.638257
H56	H	0.383369	0.882446	-0.587121
