data_functionalizedCrystal
_audit_creation_method	'MofGen! by Chris Wilmer'
_symmetry_space_group_name_H-M	'P1'
_symmetry_Int_Tables_number	1
_symmetry_cell_setting	triclinic
loop_
_symmetry_equiv_pos_as_xyz
  x,y,z
_cell_length_a	17.640112
_cell_length_b	13.897447
_cell_length_c	17.640968
_cell_angle_alpha	78.769972
_cell_angle_beta	92.139080
_cell_angle_gamma	101.244075
loop_
_atom_site_label
_atom_site_type_symbol
_atom_site_fract_x
_atom_site_fract_y
_atom_site_fract_z
Zn1	Zn	1.247780	-0.027714	-0.195081
Zn2	Zn	1.581113	0.305619	0.138253
Zn3	Zn	1.914446	0.638952	0.471586
Zn4	Zn	1.222020	-0.226719	-0.068102
Zn5	Zn	1.555353	0.106614	0.265231
Zn6	Zn	1.888686	0.439947	0.598565
Zn7	Zn	1.095115	-0.090459	-0.093728
Zn8	Zn	1.428448	0.242874	0.239606
Zn9	Zn	1.761781	0.576208	0.572939
Zn10	Zn	1.120760	-0.214022	-0.220684
Zn11	Zn	1.454093	0.119311	0.112650
Zn12	Zn	1.787427	0.452644	0.445983
O13	O	1.171418	-0.139729	-0.144399
O14	O	1.504752	0.193605	0.188935
O15	O	1.838085	0.526938	0.522268
O16	O	1.350631	-0.033168	-0.156797
O17	O	1.683964	0.300166	0.176536
O18	O	2.017297	0.633499	0.509870
O19	O	1.183672	-0.240217	0.034771
O20	O	1.517005	0.093117	0.368104
O21	O	1.850339	0.426450	0.701438
O22	O	1.115414	0.052860	-0.107182
O23	O	1.448747	0.386193	0.226151
O24	O	1.782081	0.719527	0.559485
O25	O	1.331705	-0.179376	-0.063506
O26	O	1.665038	0.153958	0.269827
O27	O	1.998372	0.487291	0.603160
O28	O	1.227576	0.098958	-0.181645
O29	O	1.560910	0.432291	0.151688
O30	O	1.894243	0.765625	0.485021
O31	O	1.090436	-0.140107	0.015944
O32	O	1.423769	0.193227	0.349277
O33	O	1.757102	0.526560	0.682611
O34	O	0.992248	-0.127795	-0.132008
O35	O	1.325582	0.205538	0.201325
O36	O	1.658915	0.538872	0.534658
O37	O	1.159123	-0.157736	-0.323560
O38	O	1.492456	0.175598	0.009773
O39	O	1.825789	0.508931	0.343107
O40	O	1.011090	-0.218577	-0.225282
O41	O	1.344423	0.114757	0.108051
O42	O	1.677756	0.448090	0.441384
O43	O	1.252443	-0.020856	-0.304749
O44	O	1.585777	0.312477	0.028584
O45	O	1.919110	0.645811	0.361917
O46	O	1.208539	-0.360031	-0.088333
O47	O	1.541873	-0.026697	0.245000
O48	O	1.875206	0.306636	0.578334
O49	O	1.134144	-0.350702	-0.200434
O50	O	1.467477	-0.017369	0.132899
O51	O	1.800811	0.315964	0.466233
C52	C	0.974115	-0.178617	-0.184205
C53	C	1.307448	0.154716	0.149129
C54	C	1.640782	0.488049	0.482462
C55	C	0.889711	-0.195272	-0.201252
C56	C	1.223045	0.138062	0.132081
C57	C	1.556378	0.471395	0.465415
C58	C	0.563040	-0.013187	-0.014898
C59	C	0.896373	0.320146	0.318435
C60	C	1.229706	0.653479	0.651768
C61	C	0.483732	-0.028853	-0.030927
C62	C	0.817065	0.304480	0.302406
C63	C	1.150398	0.637813	0.635740
C64	C	0.503372	-0.123604	-0.127886
C65	C	0.836705	0.209730	0.205448
C66	C	1.170038	0.543063	0.538781
C67	C	0.582684	-0.107942	-0.111868
C68	C	0.916017	0.225392	0.221466
C69	C	1.249350	0.558725	0.554799
C70	C	0.612511	-0.052734	-0.055373
C71	C	0.945844	0.280600	0.277961
C72	C	1.279177	0.613933	0.611294
C73	C	0.632155	-0.147488	-0.152342
C74	C	0.965488	0.185846	0.180991
C75	C	1.298821	0.519179	0.514325
C76	C	0.711459	-0.131831	-0.136322
C77	C	1.044792	0.201502	0.197011
C78	C	1.378126	0.534836	0.530344
C79	C	0.741292	-0.076628	-0.079828
C80	C	1.074625	0.256705	0.253505
C81	C	1.407959	0.590038	0.586839
C82	C	0.691815	-0.037077	-0.039353
C83	C	1.025148	0.296256	0.293981
C84	C	1.358482	0.629590	0.627314
C85	C	0.602325	-0.202701	-0.208833
C86	C	0.935658	0.130632	0.124500
C87	C	1.268992	0.463965	0.457834
C88	C	0.651796	-0.242247	-0.249307
C89	C	0.985129	0.091086	0.084026
C90	C	1.318463	0.424419	0.417359
C91	C	0.731103	-0.226585	-0.233292
C92	C	1.064436	0.106748	0.100042
C93	C	1.397769	0.440082	0.433375
C94	C	0.760936	-0.171382	-0.176798
C95	C	1.094269	0.161951	0.156536
C96	C	1.427603	0.495284	0.489869
C97	C	0.780580	-0.266136	-0.273767
C98	C	1.113913	0.067197	0.059566
C99	C	1.447246	0.400530	0.392900
C100	C	0.859884	-0.250480	-0.257747
C101	C	1.193217	0.082854	0.075586
C102	C	1.526551	0.416187	0.408919
C103	C	0.840240	-0.155726	-0.160778
C104	C	1.173574	0.177608	0.172556
C105	C	1.506907	0.510941	0.505889
C106	C	1.171353	-0.390361	-0.144393
C107	C	1.504686	-0.057027	0.188940
C108	C	1.838020	0.276306	0.522273
C109	C	1.171400	-0.497561	-0.144403
C110	C	1.504733	-0.164227	0.188931
C111	C	1.838066	0.169106	0.522264
C112	C	1.171440	-0.584618	-0.144412
C113	C	1.504773	-0.251285	0.188921
C114	C	1.838107	0.082049	0.522254
C115	C	1.171497	-0.693834	-0.144421
C116	C	1.504831	-0.360501	0.188912
C117	C	1.838164	-0.027168	0.522245
C118	C	1.369492	-0.100689	-0.104437
C119	C	1.702826	0.232644	0.228896
C120	C	2.036159	0.565978	0.562229
C121	C	1.453900	-0.084053	-0.087408
C122	C	1.787233	0.249281	0.245925
C123	C	2.120567	0.582614	0.579258
C124	C	1.211517	-0.080881	-0.342480
C125	C	1.544850	0.252453	-0.009147
C126	C	1.878184	0.585786	0.324186
C127	C	1.228605	-0.055803	-0.426891
C128	C	1.561938	0.277530	-0.093558
C129	C	1.895271	0.610864	0.239776
C130	C	1.171508	0.111891	-0.144416
C131	C	1.504841	0.445224	0.188917
C132	C	1.838175	0.778557	0.522251
C133	C	1.171546	0.219116	-0.144424
C134	C	1.504880	0.552449	0.188910
C135	C	1.838213	0.885783	0.522243
C136	C	1.041897	-0.329658	-0.753469
C137	C	1.375230	0.003675	-0.420136
C138	C	1.708564	0.337009	-0.086803
C139	C	1.057969	-0.306078	-0.832783
C140	C	1.391303	0.027255	-0.499449
C141	C	1.724636	0.360588	-0.166116
C142	C	1.155136	-0.163558	-0.813187
C143	C	1.488469	0.169775	-0.479853
C144	C	1.821803	0.503109	-0.146520
C145	C	1.139069	-0.187123	-0.733870
C146	C	1.472403	0.146211	-0.400537
C147	C	1.805736	0.479544	-0.067204
C148	C	1.082449	-0.270175	-0.704018
C149	C	1.415783	0.063159	-0.370685
C150	C	1.749116	0.396492	-0.037352
C151	C	1.179622	-0.127639	-0.684419
C152	C	1.512955	0.205694	-0.351086
C153	C	1.846288	0.539027	-0.017753
C154	C	1.163559	-0.151206	-0.605110
C155	C	1.496892	0.182128	-0.271776
C156	C	1.830225	0.515461	0.061557
C157	C	1.106943	-0.234255	-0.575251
C158	C	1.440276	0.099078	-0.241917
C159	C	1.773610	0.432411	0.091416
C160	C	1.066386	-0.293741	-0.624709
C161	C	1.399720	0.039592	-0.291375
C162	C	1.733053	0.372926	0.041958
C163	C	1.236245	-0.044592	-0.714272
C164	C	1.569578	0.288741	-0.380939
C165	C	1.902912	0.622075	-0.047605
C166	C	1.276797	0.014891	-0.664821
C167	C	1.610131	0.348225	-0.331488
C168	C	1.943464	0.681558	0.001846
C169	C	1.260731	-0.008670	-0.585511
C170	C	1.594064	0.324663	-0.252177
C171	C	1.927398	0.657996	0.081156
C172	C	1.204115	-0.091720	-0.555652
C173	C	1.537449	0.241613	-0.222318
C174	C	1.870782	0.574947	0.111015
C175	C	1.301288	0.050815	-0.536053
C176	C	1.634621	0.384149	-0.202719
C177	C	1.967954	0.717482	0.130614
C178	C	1.285224	0.027249	-0.456743
C179	C	1.618558	0.360582	-0.123410
C180	C	1.951891	0.693916	0.209924
C181	C	1.188052	-0.115286	-0.476342
C182	C	1.521386	0.218047	-0.143009
C183	C	1.854719	0.551380	0.190325
C184	C	1.131520	-0.198270	0.052921
C185	C	1.464853	0.135064	0.386255
C186	C	1.798186	0.468397	0.719588
C187	C	1.114579	-0.223046	0.137361
C188	C	1.447912	0.110287	0.470695
C189	C	1.781246	0.443620	0.804028
H190	H	0.805867	-0.063884	-0.066784
H191	H	1.139200	0.269449	0.266549
H192	H	1.472534	0.602783	0.599882
H193	H	1.020263	-0.361351	-0.600405
H194	H	1.353596	-0.028017	-0.267072
H195	H	1.686929	0.305316	0.066261
H196	H	0.995773	-0.397268	-0.729166
H197	H	1.329107	-0.063934	-0.395833
H198	H	1.662440	0.269399	-0.062500
H199	H	0.443455	0.003362	0.002031
H200	H	0.776788	0.336696	0.335364
H201	H	1.110121	0.670029	0.668698
Br202	Br	1.002926	-0.386815	-0.899895
Br203	Br	1.336260	-0.053482	-0.566562
Br204	Br	1.669593	0.279852	-0.233228
H205	H	1.249323	-0.025409	-0.778852
H206	H	1.582657	0.307924	-0.445518
H207	H	1.915990	0.641258	-0.112185
Br208	Br	1.378136	0.163512	-0.576574
Br209	Br	1.711470	0.496845	-0.243241
Br210	Br	2.044803	0.830179	0.090093
H211	H	1.322899	0.082510	-0.689137
H212	H	1.656233	0.415843	-0.355804
H213	H	1.989566	0.749177	-0.022471
Br214	Br	0.880729	-0.080788	-0.084112
Br215	Br	1.214063	0.252545	0.249221
Br216	Br	1.547396	0.585879	0.582555
Br217	Br	0.462882	-0.198544	-0.204543
Br218	Br	0.796215	0.134789	0.128790
Br219	Br	1.129549	0.468122	0.462123
Br220	Br	1.231978	-0.050853	-0.853707
Br221	Br	1.565312	0.282481	-0.520373
Br222	Br	1.898645	0.615814	-0.187040
H223	H	0.537750	-0.215447	-0.221874
H224	H	0.871083	0.117886	0.111459
H225	H	1.204416	0.451219	0.444792
Br226	Br	0.611306	-0.317188	-0.325965
Br227	Br	0.944640	0.016145	0.007368
Br228	Br	1.277973	0.349479	0.340702
Br229	Br	0.740086	-0.341086	-0.350418
Br230	Br	1.073420	-0.007753	-0.017085
Br231	Br	1.406753	0.325581	0.316249
H232	H	0.900165	-0.282681	-0.290706
H233	H	1.233499	0.050652	0.042627
H234	H	1.566832	0.383986	0.375960
Br235	Br	0.732304	0.037860	0.037313
Br236	Br	1.065637	0.371194	0.370646
Br237	Br	1.398971	0.704527	0.703980
Br238	Br	0.603529	0.061750	0.061767
Br239	Br	0.936862	0.395083	0.395101
Br240	Br	1.270195	0.728417	0.728434
Br241	Br	1.085147	-0.266249	-0.467614
Br242	Br	1.418480	0.067085	-0.134280
Br243	Br	1.751813	0.400418	0.199053
Br244	Br	1.340265	0.107971	-0.389625
Br245	Br	1.673598	0.441304	-0.056291
Br246	Br	2.006932	0.774638	0.277042
H247	H	1.141929	-0.182896	-0.452039
H248	H	1.475262	0.150437	-0.118706
H249	H	1.808595	0.483771	0.214628
