data_functionalizedCrystal
_audit_creation_method	'MofGen! by Chris Wilmer'
_symmetry_space_group_name_H-M	'P1'
_symmetry_Int_Tables_number	1
_symmetry_cell_setting	triclinic
loop_
_symmetry_equiv_pos_as_xyz
  x,y,z
_cell_length_a	17.077404
_cell_length_b	14.908520
_cell_length_c	14.908308
_cell_angle_alpha	96.360765
_cell_angle_beta	93.278091
_cell_angle_gamma	93.320938
loop_
_atom_site_label
_atom_site_type_symbol
_atom_site_fract_x
_atom_site_fract_y
_atom_site_fract_z
Zn1	Zn	1.153728	-0.389871	-0.532571
Zn2	Zn	1.653728	0.110129	-0.032571
Zn3	Zn	1.153639	-0.532516	-0.389942
Zn4	Zn	1.653639	-0.032516	0.110058
Zn5	Zn	1.030499	-0.381174	-0.381229
Zn6	Zn	1.530499	0.118826	0.118771
Zn7	Zn	1.014395	-0.541189	-0.541250
Zn8	Zn	1.514395	-0.041189	-0.041250
O9	O	1.088065	-0.461187	-0.461248
O10	O	1.588065	0.038813	0.038752
O11	O	1.263562	-0.408803	-0.513665
O12	O	1.763562	0.091197	-0.013665
O13	O	1.144006	-0.505170	-0.262125
O14	O	1.644006	-0.005170	0.237875
O15	O	1.053622	-0.255663	-0.394026
O16	O	1.553622	0.244337	0.105974
O17	O	1.263496	-0.513604	-0.408876
O18	O	1.763496	-0.013604	0.091124
O19	O	1.144158	-0.262052	-0.505217
O20	O	1.644158	0.237948	-0.005217
O21	O	1.053536	-0.393980	-0.255724
O22	O	1.553536	0.106020	0.244276
O23	O	0.918517	-0.402390	-0.402442
O24	O	1.418517	0.097610	0.097558
O25	O	1.026175	-0.528386	-0.666759
O26	O	1.526175	-0.028386	-0.166759
O27	O	0.906685	-0.519953	-0.520009
O28	O	1.406685	-0.019953	-0.020009
O29	O	1.128542	-0.417213	-0.660383
O30	O	1.628542	0.082787	-0.160383
O31	O	1.128391	-0.660331	-0.417291
O32	O	1.628391	-0.160331	0.082709
O33	O	1.026089	-0.666704	-0.528457
O34	O	1.526089	-0.166704	-0.028457
C35	C	0.884119	-0.461170	-0.461222
C36	C	1.384119	0.038830	0.038778
C37	C	0.796868	-0.461185	-0.461234
C38	C	1.296868	0.038815	0.038766
C39	C	0.749738	-0.522482	-0.522363
C40	C	1.249738	-0.022482	-0.022363
C41	C	0.667757	-0.522485	-0.522378
C42	C	1.167757	-0.022485	-0.022378
C43	C	0.632907	-0.461194	-0.461258
C44	C	1.132907	0.038806	0.038742
C45	C	0.680043	-0.399891	-0.400125
C46	C	1.180043	0.100109	0.099875
C47	C	0.762023	-0.399884	-0.400116
C48	C	1.262023	0.100116	0.099884
C49	C	0.509171	-0.399910	-0.400148
C50	C	1.009171	0.100090	0.099852
C51	C	0.427186	-0.399917	-0.400156
C52	C	0.927186	0.100083	0.099844
C53	C	0.414905	-0.522510	-0.522410
C54	C	0.914905	-0.022510	-0.022410
C55	C	0.496885	-0.522504	-0.522400
C56	C	0.996885	-0.022504	-0.022400
C57	C	0.544015	-0.461201	-0.461267
C58	C	1.044015	0.038799	0.038733
C59	C	1.075503	-0.696361	-0.474781
C60	C	1.575503	-0.196361	0.025219
C61	C	1.070199	-0.796971	-0.480601
C62	C	1.570199	-0.296971	0.019399
C63	C	1.166857	-0.979337	-0.375874
C64	C	1.666857	-0.479337	0.124126
C65	C	1.161876	-1.073869	-0.381339
C66	C	1.661876	-0.573869	0.118661
C67	C	1.055261	-1.080569	-0.497001
C68	C	1.555261	-0.580569	0.002999
C69	C	1.060242	-0.986037	-0.491536
C70	C	1.560242	-0.486037	0.008464
C71	C	1.116041	-0.935424	-0.430969
C72	C	1.616041	-0.435424	0.069031
C73	C	1.121017	-0.840891	-0.425500
C74	C	1.621017	-0.340891	0.074500
C75	C	1.014406	-0.847592	-0.541166
C76	C	1.514406	-0.347592	-0.041166
C77	C	1.009425	-0.942124	-0.546631
C78	C	1.509425	-0.442124	-0.046631
C79	C	1.292807	-0.461206	-0.461274
C80	C	1.792807	0.038794	0.038726
C81	C	1.380056	-0.461214	-0.461286
C82	C	1.880056	0.038786	0.038714
C83	C	1.075572	-0.474737	-0.697331
C84	C	1.575572	0.025263	-0.197331
C85	C	1.070249	-0.480512	-0.797936
C86	C	1.570249	0.019488	-0.297936
C87	C	1.100697	-0.225096	-0.447681
C88	C	1.600697	0.274904	0.052319
C89	C	1.106079	-0.124488	-0.441900
C90	C	1.606079	0.375512	0.058100
C91	C	1.166839	-0.375576	-0.980343
C92	C	1.666839	0.124424	-0.480343
C93	C	1.161840	-0.380998	-1.074870
C94	C	1.661840	0.119002	-0.574870
C95	C	1.055248	-0.496773	-1.081518
C96	C	1.555248	0.003227	-0.581518
C97	C	1.060247	-0.491351	-0.986991
C98	C	1.560247	0.008649	-0.486991
C99	C	1.116045	-0.430751	-0.936407
C100	C	1.616045	0.069249	-0.436407
C101	C	1.121048	-0.425334	-0.841879
C102	C	1.621048	0.074666	-0.341879
C103	C	1.014452	-0.541104	-0.848528
C104	C	1.514452	-0.041104	-0.348528
C105	C	1.009453	-0.546526	-0.943054
C106	C	1.509453	-0.046526	-0.443054
C107	C	1.100558	-0.447625	-0.226079
C108	C	1.600558	0.052375	0.273921
C109	C	1.106047	-0.441596	-0.125461
C110	C	1.606047	0.058404	0.374539
H111	H	0.778106	-0.572395	-0.572131
H112	H	1.278106	-0.072395	-0.072131
O113	O	1.227028	-0.310228	-0.925783
O114	O	1.727028	0.189772	-0.425783
H115	H	1.221975	-0.315734	-0.852672
H116	H	1.721975	0.184266	-0.352672
H117	H	1.166450	-0.799682	-0.376181
H118	H	1.666450	-0.299682	0.123819
O119	O	0.949236	-0.996722	-0.611940
O120	O	1.449236	-0.496722	-0.111940
H121	H	0.979622	-1.042393	-0.660516
H122	H	1.479622	-0.542393	-0.160516
O123	O	0.959630	-0.600595	-0.801153
O124	O	1.459630	-0.100595	-0.301153
H125	H	0.968316	-0.672683	-0.823374
H126	H	1.468316	-0.172683	-0.323374
O127	O	0.959581	-0.800224	-0.600578
O128	O	1.459581	-0.300224	-0.100578
H129	H	0.919937	-0.851303	-0.643598
H130	H	1.419937	-0.351303	-0.143598
H131	H	0.629386	-0.572400	-0.572154
H132	H	1.129386	-0.072400	-0.072154
O133	O	0.364012	-0.588689	-0.588224
O134	O	0.864012	-0.088689	-0.088224
H135	H	0.376793	-0.658773	-0.576557
H136	H	0.876793	-0.158773	-0.076557
H137	H	0.398814	-0.349999	-0.350398
H138	H	0.898814	0.150001	0.149602
O139	O	0.534478	-0.588605	-0.588323
O140	O	1.034478	-0.088605	-0.088323
H141	H	0.487934	-0.631227	-0.630842
H142	H	0.987934	-0.131227	-0.130842
H143	H	1.166483	-0.375992	-0.800695
H144	H	1.666483	0.124008	-0.300695
H145	H	1.212286	-0.938127	-0.326552
H146	H	1.712286	-0.438127	0.173448
O147	O	1.216618	-0.321491	-1.122271
O148	O	1.716618	0.178509	-0.622271
H149	H	1.278358	-0.335977	-1.105039
H150	H	1.778358	0.164023	-0.605039
O151	O	0.560010	-0.333800	-0.334205
O152	O	1.060010	0.166200	0.165795
H153	H	0.522006	-0.291191	-0.291696
H154	H	1.022006	0.208809	0.208304
H155	H	1.009819	-0.546110	-1.122719
H156	H	1.509819	-0.046110	-0.622719
O157	O	0.995086	-1.135179	-0.562319
O158	O	1.495086	-0.635179	-0.062319
H159	H	1.005695	-1.121086	-0.632323
H160	H	1.505695	-0.621086	-0.132323
O161	O	0.949269	-0.611882	-0.997613
O162	O	1.449269	-0.111882	-0.497613
H163	H	0.954327	-0.606386	-1.070725
H164	H	1.454327	-0.106386	-0.570725
O165	O	1.216680	-1.121237	-0.321911
O166	O	1.716680	-0.621237	0.178089
H167	H	1.256311	-1.070157	-0.278875
H168	H	1.756311	-0.570157	0.221125
H169	H	0.651662	-0.349983	-0.350364
H170	H	1.151662	0.150017	0.149636
O171	O	0.812863	-0.333782	-0.334174
O172	O	1.312863	0.166218	0.165826
H173	H	0.774858	-0.291171	-0.291666
H174	H	1.274858	0.208829	0.208334
