data_functionalizedCrystal
_audit_creation_method	'MofGen! by Chris Wilmer'
_symmetry_space_group_name_H-M	'P1'
_symmetry_Int_Tables_number	1
_symmetry_cell_setting	triclinic
loop_
_symmetry_equiv_pos_as_xyz
  x,y,z
_cell_length_a	18.426585
_cell_length_b	23.196402
_cell_length_c	18.426585
_cell_angle_alpha	60.001289
_cell_angle_beta	90.001513
_cell_angle_gamma	60.001912
loop_
_atom_site_label
_atom_site_type_symbol
_atom_site_fract_x
_atom_site_fract_y
_atom_site_fract_z
Zr1	Zr	0.699128	0.631025	-0.095223
O2	O	0.583249	0.751290	-0.211095
O3	O	0.734648	0.510759	-0.059707
O4	O	0.734644	0.631030	-0.211105
O5	O	0.583259	0.631015	0.059735
O6	O	0.854070	0.631034	-0.211108
O7	O	0.583253	0.631019	-0.059696
O8	O	0.854076	0.415892	0.059716
O9	O	0.583253	0.846157	-0.211090
O10	O	0.838926	0.560229	-0.044556
O11	O	0.749805	0.560223	0.044576
O12	O	0.749800	0.701826	-0.133676
O13	O	0.660679	0.701820	-0.044544
Zr14	Zr	0.889608	0.631025	0.095251
Zr15	Zr	0.889598	0.631031	-0.095228
Zr16	Zr	0.699137	0.631018	0.095256
Zr17	Zr	0.699133	0.782327	-0.095215
Zr18	Zr	0.889603	0.479722	0.095243
O19	O	0.854088	0.751290	0.059734
O20	O	0.854074	0.751299	-0.211102
O21	O	0.583263	0.751281	0.059741
O22	O	1.005486	0.510759	0.211123
O23	O	1.005472	0.510768	-0.059713
O24	O	0.734662	0.510750	0.211129
O25	O	1.005476	0.631034	-0.059707
O26	O	0.854092	0.631019	0.211133
O27	O	0.734666	0.631015	0.211136
O28	O	1.005482	0.631030	0.059724
O29	O	0.734651	0.846162	-0.211093
O30	O	0.854084	0.415887	0.211121
O31	O	1.005483	0.415892	0.211117
O32	O	1.005475	0.415897	0.059712
O33	O	0.583261	0.846152	-0.059685
O34	O	0.734659	0.846157	-0.059688
O35	O	0.838935	0.560223	0.133704
O36	O	0.928057	0.560229	0.044572
O37	O	0.838931	0.701826	-0.044548
O38	O	0.749809	0.701820	0.044584
C39	C	0.794361	0.441768	0.000004
C40	C	0.794359	0.377536	0.000000
C41	C	0.840873	0.347369	-0.046529
C42	C	0.840882	0.287008	-0.046522
C43	C	0.794359	0.256828	0.000003
C44	C	0.747842	0.286999	0.046542
C45	C	0.747842	0.347354	0.046541
C46	C	0.716431	0.194797	-0.006635
C47	C	0.716429	0.134447	-0.006641
C48	C	0.794360	0.070673	0.000012
C49	C	0.872293	0.067264	0.006651
C50	C	0.872293	0.127618	0.006650
C51	C	0.794354	0.191384	0.000010
C52	C	0.840888	-0.024945	-0.046512
C53	C	0.840899	-0.085311	-0.046499
C54	C	0.747851	-0.085312	0.046560
C55	C	0.747848	-0.024954	0.046552
C56	C	0.794365	0.005229	0.000011
C57	C	0.556118	0.631016	0.000020
C58	C	0.475258	0.631014	0.000022
C59	C	0.179144	0.631038	0.000006
C60	C	0.261530	0.631035	0.000008
C61	C	0.327198	0.631026	0.000013
C62	C	0.409590	0.631022	0.000017
C63	C	1.032617	0.631033	0.000008
C64	C	1.113477	0.631035	0.000006
C65	C	0.794355	0.631033	-0.238246
C66	C	0.794351	0.631035	-0.319109
C67	C	0.794374	0.820281	0.000024
C68	C	0.794377	0.884513	0.000028
C69	C	0.794385	0.631011	-0.615193
C70	C	0.794377	0.631014	-0.532811
C71	C	0.794367	0.631023	-0.467153
C72	C	0.794361	0.631027	-0.384767
C73	C	0.794380	0.631016	0.238274
C74	C	0.794384	0.631014	0.319137
C75	C	1.032611	0.441776	-0.000002
C76	C	1.113468	0.377547	-0.000008
C77	C	0.794374	0.441760	0.238263
C78	C	0.794376	0.377526	0.319123
C79	C	1.032623	0.441768	0.238257
C80	C	1.113485	0.377536	0.319115
C81	C	0.556112	0.820281	-0.238229
C82	C	0.475251	0.884513	-0.319087
C83	C	0.556125	0.820273	0.000030
C84	C	0.475267	0.884502	0.000036
C85	C	0.794362	0.820289	-0.238236
C86	C	0.794360	0.884523	-0.319095
C87	C	1.104914	0.347384	-0.046542
C88	C	1.180881	0.287043	-0.046565
C89	C	1.265401	0.256861	-0.000048
C90	C	1.273953	0.287029	0.046488
C91	C	1.197987	0.347374	0.046505
C92	C	0.840902	0.347360	0.403627
C93	C	0.840900	0.287014	0.479611
C94	C	0.794377	0.256829	0.471088
C95	C	0.747845	0.287000	0.386575
C96	C	0.747842	0.347350	0.310593
C97	C	1.197987	0.347376	0.310560
C98	C	1.273972	0.287031	0.386527
C99	C	1.265454	0.256845	0.471048
C100	C	1.180943	0.287012	0.479601
C101	C	1.104959	0.347359	0.403635
C102	C	0.390749	0.914681	-0.310533
C103	C	0.314763	0.975044	-0.386500
C104	C	0.323282	1.005233	-0.471020
C105	C	0.407793	0.975063	-0.479573
C106	C	0.483776	0.914705	-0.403607
C107	C	0.483821	0.914671	0.046562
C108	C	0.407854	0.975029	0.046564
C109	C	0.323334	1.005213	0.000044
C110	C	0.314782	0.975042	-0.046488
C111	C	0.390748	0.914689	-0.046494
C112	C	0.840892	0.914689	-0.310544
C113	C	0.840908	0.975036	-0.386513
C114	C	0.794385	1.005221	-0.471032
C115	C	0.747852	0.975049	-0.479582
C116	C	0.747842	0.914699	-0.403614
H117	H	0.935749	0.124838	0.012058
Br118	Br	0.904003	0.388329	-0.109691
H119	H	1.174020	0.262425	0.548428
H120	H	1.036157	0.371908	0.410612
Br121	Br	0.684696	0.388278	0.195912
H122	H	1.342780	0.262446	0.084360
Br123	Br	0.794390	0.174925	0.574217
H124	H	0.878795	0.262455	0.548418
Br125	Br	0.684709	1.016030	-0.594294
Br126	Br	0.794406	1.087127	-0.574124
H127	H	0.709967	0.262415	0.379649
Br128	Br	0.684713	-0.126266	0.109703
H129	H	0.878787	0.371930	0.410584
H130	H	1.036101	0.371958	-0.084433
Br131	Br	0.419482	1.015961	0.109722
H132	H	0.245956	0.999627	-0.084363
H133	H	0.261404	1.054380	-0.532870
H134	H	1.173901	0.262487	-0.084460
H135	H	0.709962	0.371916	0.084431
Br136	Br	0.379123	0.873749	-0.109639
H137	H	0.414718	0.999651	-0.548399
H138	H	1.204940	0.371945	0.241746
Br139	Br	1.388654	0.246102	0.374899
H140	H	1.327332	0.207706	0.532897
H141	H	0.709967	-0.000388	0.084438
H142	H	0.878776	0.890122	-0.241731
Br143	Br	1.368490	0.174963	-0.000081
H144	H	0.383796	0.890104	-0.241718
H145	H	0.878799	0.999595	-0.379534
H146	H	0.552580	0.890143	-0.410583
Br147	Br	0.904026	0.246047	-0.109661
Br148	Br	0.978063	-0.019277	0.015671
H149	H	0.878768	-0.000372	-0.084405
Br150	Br	0.904029	-0.126252	-0.109654
Br151	Br	0.200082	1.015975	-0.374871
H152	H	0.261485	1.054357	0.000057
Br153	Br	0.610663	0.139083	-0.015659
Br154	Br	0.610658	0.281344	-0.015662
H155	H	0.552635	0.890099	0.084450
H156	H	0.709964	0.262423	0.084424
Br157	Br	0.684676	0.873774	-0.415235
H158	H	1.204964	0.371925	0.084404
