data_functionalizedCrystal
_audit_creation_method	'MofGen! by Chris Wilmer'
_symmetry_space_group_name_H-M	'P1'
_symmetry_Int_Tables_number	1
_symmetry_cell_setting	triclinic
loop_
_symmetry_equiv_pos_as_xyz
  x,y,z
_cell_length_a	17.038272
_cell_length_b	15.500215
_cell_length_c	15.995343
_cell_angle_alpha	93.187659
_cell_angle_beta	87.300371
_cell_angle_gamma	92.981713
loop_
_atom_site_label
_atom_site_type_symbol
_atom_site_fract_x
_atom_site_fract_y
_atom_site_fract_z
O1	O	1.040645	0.071852	0.185522
O2	O	1.540645	0.571852	0.685522
O3	O	0.813014	0.071877	0.182636
O4	O	1.313014	0.571877	0.682636
O5	O	0.933054	0.071848	0.062633
O6	O	1.433054	0.571848	0.562633
O7	O	0.920605	0.071882	0.305524
O8	O	1.420605	0.571882	0.805524
O9	O	0.926560	-0.072041	0.055223
O10	O	1.426560	0.427959	0.555223
O11	O	0.806520	-0.072012	0.175226
O12	O	1.306520	0.427988	0.675226
O13	O	1.034150	-0.072037	0.178112
O14	O	1.534150	0.427963	0.678112
Cu15	Cu	0.919742	-0.085163	0.175992
Cu16	Cu	1.419742	0.414837	0.675992
Cu17	Cu	0.927423	0.085003	0.184755
Cu18	Cu	1.427423	0.585003	0.684755
O19	O	0.914110	-0.072008	0.298114
O20	O	1.414110	0.427992	0.798114
C21	C	0.780638	-0.000064	0.176305
C22	C	1.280638	0.499936	0.676305
C23	C	0.693844	-0.000055	0.168471
C24	C	1.193844	0.499945	0.668471
N25	N	0.914345	-0.204848	0.169829
N26	N	1.414345	0.295152	0.669829
C27	C	0.643746	-0.000046	0.240400
C28	C	1.143746	0.499954	0.740400
C29	C	0.562193	-0.000059	0.233033
C30	C	1.062193	0.499941	0.733033
C31	C	0.530741	-0.000075	0.153737
C32	C	1.030741	0.499925	0.653737
C33	C	0.580845	-0.000087	0.081802
C34	C	1.080845	0.499913	0.581802
C35	C	0.662396	-0.000080	0.089170
C36	C	1.162396	0.499920	0.589170
C37	C	0.284976	-0.000102	0.127709
C38	C	0.784976	0.499898	0.627709
C39	C	0.203419	-0.000106	0.120347
C40	C	0.703419	0.499894	0.620347
C41	C	0.184773	-0.000080	0.271579
C42	C	0.684773	0.499920	0.771579
C43	C	0.266326	-0.000068	0.278940
C44	C	0.766326	0.499932	0.778940
C45	C	0.316423	-0.000084	0.207005
C46	C	0.816423	0.499916	0.707005
C47	C	0.447381	-0.000086	0.146205
C48	C	0.947381	0.499914	0.646205
C49	C	0.399781	-0.000080	0.214537
C50	C	0.899781	0.499920	0.714537
C51	C	0.959720	-0.250120	0.221690
C52	C	1.459720	0.249880	0.721690
C53	C	0.955649	-0.340693	0.217024
C54	C	1.455649	0.159307	0.717024
C55	C	0.906199	-0.385993	0.160500
C56	C	1.406199	0.114007	0.660500
C57	C	0.860823	-0.340716	0.108633
C58	C	1.360823	0.159284	0.608633
C59	C	0.864898	-0.250144	0.113296
C60	C	1.364898	0.249856	0.613296
C61	C	0.891525	-0.659462	0.143708
C62	C	1.391525	-0.159462	0.643708
C63	C	0.887451	-0.750040	0.139051
C64	C	1.387451	-0.250040	0.639051
C65	C	0.982278	-0.750011	0.247441
C66	C	1.482278	-0.250011	0.747441
C67	C	0.986346	-0.659438	0.252102
C68	C	1.486346	-0.159438	0.752102
C69	C	0.940973	-0.614168	0.200232
C70	C	1.440973	-0.114168	0.700232
C71	C	0.902035	-0.478574	0.155731
C72	C	1.402035	0.021426	0.655731
C73	C	0.945142	-0.521589	0.204998
C74	C	1.445142	-0.021589	0.704998
C75	C	1.066526	-0.000094	0.184442
C76	C	1.566526	0.499906	0.684442
C77	C	1.153321	-0.000097	0.192277
C78	C	1.653321	0.499903	0.692277
C79	C	0.929293	-0.000099	0.027697
C80	C	1.429293	0.499901	0.527697
C81	C	0.927753	-0.000105	-0.065364
C82	C	1.427753	0.499895	0.434636
N83	N	0.932825	0.204689	0.190913
N84	N	1.432825	0.704689	0.690913
C85	C	0.924959	-0.000085	-0.235749
C86	C	1.424959	0.499915	0.264251
C87	C	0.838308	-0.000074	-0.265266
C88	C	1.338308	0.499926	0.234734
C89	C	0.836692	0.000262	-0.362043
C90	C	1.336692	0.500262	0.137957
C91	C	0.922206	-0.000067	-0.403504
C92	C	1.422206	0.499933	0.096496
C93	C	0.969477	0.081931	-0.367078
C94	C	1.469477	0.581931	0.132922
C95	C	0.970507	0.081990	-0.270210
C96	C	1.470507	0.581990	0.229790
C97	C	0.964390	-0.081645	-0.278650
C98	C	1.464390	0.418355	0.221350
C99	C	0.961143	-0.082713	-0.375428
C100	C	1.461143	0.417287	0.124572
C101	C	0.920655	-0.000053	-0.498312
C102	C	1.420655	0.499947	0.001688
C103	C	0.926512	-0.000093	-0.140940
C104	C	1.426512	0.499907	0.359060
C105	C	0.917871	-0.000059	0.333051
C106	C	1.417871	0.499941	0.833051
C107	C	0.919412	-0.000047	0.426112
C108	C	1.419412	0.499953	0.926112
H109	H	0.521406	-0.000051	0.291606
H110	H	1.021406	0.499949	0.791606
C111	C	0.168822	-0.000125	0.033118
C112	C	0.668822	0.499875	0.533118
H113	H	0.210337	-0.000141	-0.008670
H114	H	0.710337	0.499859	0.491330
H115	H	0.139656	0.050051	0.029684
H116	H	0.639656	0.550051	0.529684
H117	H	0.135136	-0.050310	0.024522
H118	H	0.635136	0.449690	0.524522
C119	C	0.340072	-0.000114	0.048584
C120	C	0.840072	0.499886	0.548584
H121	H	0.309658	-0.000115	0.000306
H122	H	0.809658	0.499885	0.500306
H123	H	0.370014	-0.050290	0.045728
H124	H	0.870014	0.449710	0.545728
H125	H	0.374531	0.050071	0.050896
H126	H	0.874531	0.550071	0.550896
C127	C	1.032191	-0.799809	0.304486
C128	C	1.532191	-0.299809	0.804486
H129	H	1.022689	-0.860238	0.293611
H130	H	1.522689	-0.360238	0.793611
H131	H	1.018332	-0.784958	0.361497
H132	H	1.518332	-0.284958	0.861497
H133	H	1.086355	-0.784962	0.293527
H134	H	1.586355	-0.284962	0.793527
H135	H	0.669348	-0.000032	0.304972
H136	H	1.169348	0.499968	0.804972
H137	H	0.802067	-0.058868	-0.242683
H138	H	1.302067	0.441132	0.257317
H139	H	0.854579	-0.622614	0.101471
H140	H	1.354579	-0.122614	0.601471
C141	C	0.806416	-0.390540	0.046469
C142	C	1.306416	0.109460	0.546469
H143	H	0.779978	-0.350603	0.016249
H144	H	1.279978	0.149397	0.516249
H145	H	0.768846	-0.425861	0.076388
H146	H	1.268846	0.074139	0.576388
H147	H	0.836860	-0.425882	0.008410
H148	H	1.336860	0.074118	0.508410
C149	C	1.040745	-0.609609	0.314272
C150	C	1.540745	-0.109609	0.814272
H151	H	1.036669	-0.549184	0.309625
H152	H	1.536669	-0.049184	0.809625
H153	H	1.093571	-0.624451	0.301794
H154	H	1.593571	-0.124451	0.801794
H155	H	1.025543	-0.624443	0.369758
H156	H	1.525543	-0.124443	0.869758
C157	C	0.923656	-0.165638	-0.247444
C158	C	1.423656	0.334362	0.252556
H159	H	0.882216	-0.151748	-0.207953
H160	H	1.382216	0.348252	0.292047
H161	H	0.960807	-0.197882	-0.221568
H162	H	1.460807	0.302118	0.278432
H163	H	0.902792	-0.199094	-0.293565
H164	H	1.402792	0.300906	0.206435
H165	H	0.985407	-0.484702	0.251016
H166	H	1.485407	0.015298	0.751016
H167	H	0.942347	0.143195	-0.386138
H168	H	1.442347	0.643195	0.113862
H169	H	0.992599	-0.377549	0.259254
H170	H	1.492599	0.122451	0.759254
H171	H	0.827949	-0.213285	0.071065
H172	H	1.327949	0.286715	0.571065
H173	H	0.847179	-0.786921	0.093023
H174	H	1.347179	-0.286921	0.593023
H175	H	0.861772	-0.515468	0.109710
H176	H	1.361772	-0.015468	0.609710
C177	C	1.050500	-0.082737	-0.253636
C178	C	1.550500	0.417263	0.246364
H179	H	1.074016	-0.132161	-0.279757
H180	H	1.574016	0.367839	0.220243
H181	H	1.052045	-0.084857	-0.194501
H182	H	1.552045	0.415143	0.305499
H183	H	1.078565	-0.031861	-0.271232
H184	H	1.578565	0.468139	0.228768
C185	C	0.787031	-0.079121	-0.395118
C186	C	1.287031	0.420879	0.104882
H187	H	0.767661	-0.111865	-0.349393
H188	H	1.267661	0.388135	0.150607
H189	H	0.818719	-0.114013	-0.432318
H190	H	1.318719	0.385987	0.067682
H191	H	0.744060	-0.060456	-0.424034
H192	H	1.244060	0.439544	0.075966
C193	C	1.054681	0.085742	-0.403848
C194	C	1.554681	0.585742	0.096152
H195	H	1.062199	0.037245	-0.441835
H196	H	1.562199	0.537245	0.058165
H197	H	1.090064	0.084841	-0.359786
H198	H	1.590064	0.584841	0.140214
H199	H	1.064340	0.137489	-0.432626
H200	H	1.564340	0.637489	0.067374
C201	C	0.797247	0.079245	-0.225194
C202	C	1.297247	0.579245	0.274806
H203	H	0.832684	0.112357	-0.190557
H204	H	1.332684	0.612357	0.309443
H205	H	0.752352	0.060508	-0.192294
H206	H	1.252352	0.560508	0.307706
H207	H	0.781387	0.113813	-0.268011
H208	H	1.281387	0.613813	0.231989
H209	H	1.023318	-0.087918	-0.404199
H210	H	1.523318	0.412082	0.095801
C211	C	0.914601	-0.164667	-0.407803
C212	C	1.414601	0.335333	0.092197
H213	H	0.871620	-0.148593	-0.438305
H214	H	1.371620	0.351407	0.061695
H215	H	0.895367	-0.196878	-0.361670
H216	H	1.395367	0.303122	0.138330
H217	H	0.948109	-0.199083	-0.443431
H218	H	1.448109	0.300917	0.056569
H219	H	0.291929	-0.000045	0.343512
H220	H	0.791929	0.499955	0.843512
H221	H	0.555229	-0.000112	0.017237
H222	H	1.055229	0.499888	0.517237
C223	C	0.129665	-0.000073	0.350700
C224	C	0.629665	0.499927	0.850700
H225	H	0.076591	-0.000087	0.334958
H226	H	0.576591	0.499913	0.834958
H227	H	0.141455	0.050108	0.385562
H228	H	0.641455	0.550108	0.885562
H229	H	0.136944	-0.050253	0.380386
H230	H	0.636944	0.449747	0.880386
C231	C	0.717504	-0.000082	0.010048
C232	C	1.217504	0.499918	0.510048
H233	H	0.687094	-0.000083	-0.038233
H234	H	1.187094	0.499917	0.461767
H235	H	0.747450	-0.050255	0.007193
H236	H	1.247450	0.449745	0.507193
H237	H	0.751959	0.050106	0.012366
H238	H	1.251959	0.550106	0.512366
C239	C	0.434373	-0.000060	0.301760
C240	C	0.934373	0.499940	0.801760
H241	H	0.392859	-0.000058	0.343549
H242	H	0.892859	0.499942	0.843549
H243	H	0.468058	0.050120	0.310353
H244	H	0.968058	0.550120	0.810353
H245	H	0.463539	-0.050241	0.305194
H246	H	0.963539	0.449759	0.805194
H247	H	0.805419	0.059398	-0.379847
H248	H	1.305419	0.559398	0.120153
C249	C	0.933969	0.165112	-0.232601
C250	C	1.433969	0.665112	0.267399
H251	H	0.918633	0.198524	-0.276551
H252	H	1.418633	0.698524	0.223449
H253	H	0.971559	0.197824	-0.200307
H254	H	1.471559	0.697824	0.299693
H255	H	0.889157	0.150265	-0.197754
H256	H	1.389157	0.650265	0.302246
H257	H	0.999982	-0.213243	0.267722
H258	H	1.499982	0.286757	0.767722
C259	C	1.056557	0.086707	-0.244154
C260	C	1.556557	0.586707	0.255846
H261	H	1.057769	0.086771	-0.184831
H262	H	1.557769	0.586771	0.315169
H263	H	1.082477	0.138244	-0.263077
H264	H	1.582477	0.638244	0.236923
H265	H	1.082508	0.038007	-0.268474
H266	H	1.582508	0.538007	0.231526
H267	H	0.421762	-0.000123	0.081640
H268	H	0.921762	0.499877	0.581640
