data_functionalizedCrystal
_audit_creation_method	'MofGen! by Chris Wilmer'
_symmetry_space_group_name_H-M	'P1'
_symmetry_Int_Tables_number	1
_symmetry_cell_setting	triclinic
loop_
_symmetry_equiv_pos_as_xyz
  x,y,z
_cell_length_a	18.050591
_cell_length_b	18.050590
_cell_length_c	18.050591
_cell_angle_alpha	90.007244
_cell_angle_beta	90.008361
_cell_angle_gamma	90.014558
loop_
_atom_site_label
_atom_site_type_symbol
_atom_site_fract_x
_atom_site_fract_y
_atom_site_fract_z
Zn1	Zn	1.135250	-0.295904	0.420027
Zn2	Zn	1.468584	0.037430	0.753361
Zn3	Zn	1.801917	0.370763	1.086694
Zn4	Zn	1.135209	-0.420052	0.295836
Zn5	Zn	1.468543	-0.086719	0.629169
Zn6	Zn	1.801876	0.246615	0.962502
Zn7	Zn	1.011097	-0.295872	0.295838
Zn8	Zn	1.344430	0.037462	0.629172
Zn9	Zn	1.677763	0.370795	0.962505
Zn10	Zn	1.011038	-0.420048	0.419971
Zn11	Zn	1.344372	-0.086714	0.753304
Zn12	Zn	1.677705	0.246619	1.086638
O13	O	1.073149	-0.357969	0.357918
O14	O	1.406482	-0.024636	0.691251
O15	O	1.739815	0.308698	1.024585
O16	O	1.239169	-0.312387	0.403575
O17	O	1.572503	0.020946	0.736909
O18	O	1.905836	0.354279	1.070242
O19	O	1.118753	-0.403568	0.191911
O20	O	1.452086	-0.070234	0.525245
O21	O	1.785419	0.263099	0.858578
O22	O	1.027608	-0.191951	0.312337
O23	O	1.360941	0.141382	0.645670
O24	O	1.694274	0.474715	0.979004
O25	O	1.239139	-0.403599	0.312332
O26	O	1.572473	-0.070265	0.645666
O27	O	1.905806	0.263068	0.978999
O28	O	1.118823	-0.191975	0.403578
O29	O	1.452156	0.141358	0.736911
O30	O	1.785489	0.474692	1.070245
O31	O	1.027568	-0.312333	0.191913
O32	O	1.360901	0.021000	0.525247
O33	O	1.694234	0.354334	0.858580
O34	O	0.907164	-0.312329	0.312283
O35	O	1.240498	0.021005	0.645616
O36	O	1.573831	0.354338	0.978949
O37	O	1.027508	-0.403591	0.523903
O38	O	1.360842	-0.070258	0.857236
O39	O	1.694175	0.263075	1.190570
O40	O	0.907122	-0.403560	0.403482
O41	O	1.240455	-0.070227	0.736816
O42	O	1.573788	0.263106	1.070149
O43	O	1.118766	-0.312383	0.523944
O44	O	1.452099	0.020950	0.857278
O45	O	1.785433	0.354283	1.190611
O46	O	1.118696	-0.523976	0.312278
O47	O	1.452029	-0.190643	0.645611
O48	O	1.785363	0.142691	0.978944
O49	O	1.027468	-0.523973	0.403480
O50	O	1.360802	-0.190640	0.736813
O51	O	1.694135	0.142694	1.070146
C52	C	0.880197	-0.357941	0.357877
C53	C	1.213530	-0.024608	0.691210
C54	C	1.546863	0.308725	1.024544
C55	C	0.797651	-0.357947	0.357877
C56	C	1.130984	-0.024614	0.691210
C57	C	1.464317	0.308719	1.024544
C58	C	0.598202	-0.308278	0.308397
C59	C	0.931535	0.025055	0.641730
C60	C	1.264869	0.358389	0.975064
C61	C	0.548798	-0.376009	0.290120
C62	C	0.882131	-0.042675	0.623453
C63	C	1.215464	0.290658	0.956787
C64	C	0.646520	-0.357970	0.357911
C65	C	0.979854	-0.024636	0.691244
C66	C	1.313187	0.308697	1.024577
C67	C	0.548843	-0.290263	0.376186
C68	C	0.882176	0.043071	0.709519
C69	C	1.215510	0.376404	1.042852
C70	C	0.500535	-0.357986	0.357942
C71	C	0.833869	-0.024652	0.691275
C72	C	1.167202	0.308681	1.024608
C73	C	0.598203	-0.425736	0.339598
C74	C	0.931537	-0.092403	0.672932
C75	C	1.264870	0.240931	1.006265
C76	C	0.598253	-0.339944	0.425696
C77	C	0.931586	-0.006611	0.759029
C78	C	1.264920	0.326722	1.092362
C79	C	0.548871	-0.407722	0.407444
C80	C	0.882204	-0.074388	0.740778
C81	C	1.215538	0.258945	1.074111
C82	C	0.730619	-0.357960	0.357891
C83	C	1.063952	-0.024626	0.691224
C84	C	1.397285	0.308707	1.024558
C85	C	0.416439	-0.358003	0.357962
C86	C	0.749772	-0.024670	0.691295
C87	C	1.083105	0.308663	1.024628
C88	C	1.073092	-0.550921	0.357888
C89	C	1.406425	-0.217588	0.691222
C90	C	1.739758	0.115746	1.024555
C91	C	1.073135	-0.633467	0.357901
C92	C	1.406468	-0.300133	0.691234
C93	C	1.739802	0.033200	1.024567
C94	C	1.122848	-0.832892	0.308374
C95	C	1.456181	-0.499559	0.641708
C96	C	1.789515	-0.166225	0.975041
C97	C	1.140969	-0.882251	0.376156
C98	C	1.474302	-0.548918	0.709490
C99	C	1.807635	-0.215584	1.042823
C100	C	1.073177	-0.784597	0.357930
C101	C	1.406511	-0.451264	0.691264
C102	C	1.739844	-0.117930	1.024597
C103	C	1.055132	-0.882320	0.290179
C104	C	1.388466	-0.548986	0.623512
C105	C	1.721799	-0.215653	0.956845
C106	C	1.073219	-0.930582	0.357953
C107	C	1.406553	-0.597249	0.691286
C108	C	1.739886	-0.263916	1.024620
C109	C	1.091333	-0.832869	0.425748
C110	C	1.424666	-0.499535	0.759081
C111	C	1.757999	-0.166202	1.092415
C112	C	1.005465	-0.832933	0.339725
C113	C	1.338798	-0.499600	0.673058
C114	C	1.672132	-0.166267	1.006391
C115	C	1.023560	-0.882270	0.407553
C116	C	1.356893	-0.548936	0.740887
C117	C	1.690226	-0.215603	1.074220
C118	C	1.073155	-0.700499	0.357916
C119	C	1.406488	-0.367165	0.691250
C120	C	1.739822	-0.033832	1.024583
C121	C	1.073242	-1.014679	0.357975
C122	C	1.406575	-0.681345	0.691308
C123	C	1.739908	-0.348012	1.024641
C124	C	1.266854	-0.357997	0.357960
C125	C	1.600188	-0.024664	0.691293
C126	C	1.933521	0.308670	1.024626
C127	C	1.349400	-0.358009	0.357977
C128	C	1.682733	-0.024676	0.691311
C129	C	2.016067	0.308657	1.024644
C130	C	1.073135	-0.357990	0.551624
C131	C	1.406469	-0.024657	0.884957
C132	C	1.739802	0.308676	1.218290
C133	C	1.073130	-0.357999	0.634169
C134	C	1.406463	-0.024666	0.967503
C135	C	1.739796	0.308667	1.300836
C136	C	1.073226	-0.164263	0.357964
C137	C	1.406560	0.169070	0.691297
C138	C	1.739893	0.502403	1.024631
C139	C	1.073259	-0.081717	0.357984
C140	C	1.406593	0.251616	0.691317
C141	C	1.739926	0.584949	1.024650
C142	C	1.023491	-0.407591	0.882973
C143	C	1.356825	-0.074257	1.216306
C144	C	1.690158	0.259076	1.549639
C145	C	1.005351	-0.339837	0.833584
C146	C	1.338685	-0.006504	1.166917
C147	C	1.672018	0.326829	1.500250
C148	C	1.073123	-0.357977	0.931290
C149	C	1.406456	-0.024644	1.264623
C150	C	1.739789	0.308689	1.597956
C151	C	1.091231	-0.425737	0.833597
C152	C	1.424564	-0.092404	1.166930
C153	C	1.757898	0.240929	1.500264
C154	C	1.073124	-0.357992	0.785305
C155	C	1.406458	-0.024659	1.118638
C156	C	1.739791	0.308675	1.451971
C157	C	1.054947	-0.290189	0.882988
C158	C	1.388281	0.043145	1.216322
C159	C	1.721614	0.376478	1.549655
C160	C	1.140859	-0.376134	0.883006
C161	C	1.474192	-0.042801	1.216339
C162	C	1.807525	0.290532	1.549672
C163	C	1.122744	-0.308334	0.833639
C164	C	1.456078	0.024999	1.166973
C165	C	1.789411	0.358332	1.500306
C166	C	1.073120	-0.357970	1.015388
C167	C	1.406453	-0.024637	1.348721
C168	C	1.739786	0.308696	1.682055
C169	C	1.073127	-0.357992	0.701208
C170	C	1.406460	-0.024658	1.034541
C171	C	1.739794	0.308675	1.367875
C172	C	1.073146	-0.357968	1.164966
C173	C	1.406479	-0.024634	1.498299
C174	C	1.739812	0.308699	1.831633
C175	C	1.073119	-0.357969	1.082420
C176	C	1.406453	-0.024635	1.415753
C177	C	1.739786	0.308698	1.749087
H178	H	0.527122	-0.233004	0.391604
H179	H	0.860456	0.100329	0.724938
H180	H	1.193789	0.433662	1.058271
N181	N	0.625295	-0.497590	0.320128
N182	N	0.958628	-0.164256	0.653461
N183	N	1.291961	0.169077	0.986795
N184	N	0.665273	-0.505515	0.264150
N185	N	0.998607	-0.172181	0.597483
N186	N	1.331940	0.161152	0.930817
H187	H	0.684409	-0.556259	0.250396
H188	H	1.017742	-0.222926	0.583729
H189	H	1.351076	0.110407	0.917063
H190	H	0.948200	-0.811252	0.324291
H191	H	1.281534	-0.477919	0.657625
H192	H	1.614867	-0.144586	0.990958
H193	H	0.948069	-0.324482	0.811875
H194	H	1.281402	0.008852	1.145208
H195	H	1.614736	0.342185	1.478542
H196	H	0.527348	-0.449800	0.449330
H197	H	0.860681	-0.116466	0.782663
H198	H	1.194014	0.216867	1.115996
N199	N	1.035641	-0.218294	0.910096
N200	N	1.368974	0.115039	1.243429
N201	N	1.702307	0.448373	1.576763
N202	N	1.032493	-0.206694	0.978294
N203	N	1.365827	0.126640	1.311628
N204	N	1.699160	0.459973	1.644961
H205	H	1.018852	-0.155921	0.997442
H206	H	1.352185	0.177412	1.330775
H207	H	1.685518	0.510745	1.664109
N208	N	1.175563	-0.805699	0.255857
N209	N	1.508897	-0.472366	0.589191
N210	N	1.842230	-0.139032	0.922524
N211	N	1.242626	-0.821509	0.262755
N212	N	1.575959	-0.488176	0.596088
N213	N	1.909293	-0.154843	0.929421
H214	H	1.279858	-0.802304	0.225668
H215	H	1.613192	-0.468971	0.559001
H216	H	1.946525	-0.135638	0.892334
H217	H	1.039852	-0.904042	0.232873
H218	H	1.373186	-0.570708	0.566206
H219	H	1.706519	-0.237375	0.899539
N220	N	1.212703	-0.395414	0.910254
N221	N	1.546036	-0.062081	1.243587
N222	N	1.879370	0.271253	1.576921
N223	N	1.263869	-0.409739	0.865855
N224	N	1.597203	-0.076406	1.199188
N225	N	1.930536	0.256927	1.532522
H226	H	1.314611	-0.423362	0.885099
H227	H	1.647944	-0.090029	1.218432
H228	H	1.981277	0.243304	1.551766
H229	H	1.106548	-0.483035	0.811902
H230	H	1.439881	-0.149702	1.145236
H231	H	1.773214	0.183631	1.478569
H232	H	1.164717	-0.266336	0.812115
H233	H	1.498050	0.066997	1.145448
H234	H	1.831383	0.400331	1.478782
H235	H	0.619862	-0.266301	0.266479
H236	H	0.953195	0.067033	0.599813
H237	H	1.286528	0.400366	0.933146
H238	H	0.619994	-0.324665	0.482989
H239	H	0.953327	0.008668	0.816323
H240	H	1.286660	0.342001	1.149656
H241	H	1.106556	-0.811239	0.483103
H242	H	1.439889	-0.477906	0.816437
H243	H	1.773222	-0.144572	1.149770
N244	N	0.521543	-0.395136	0.218222
N245	N	0.854876	-0.061803	0.551556
N246	N	1.188209	0.271530	0.884889
N247	N	0.481033	-0.350884	0.183651
N248	N	0.814366	-0.017551	0.516985
N249	N	1.147700	0.315782	0.850318
H250	H	0.461787	-0.364388	0.132871
H251	H	0.795121	-0.031054	0.466205
H252	H	1.128454	0.302279	0.799538
N253	N	1.212822	-0.909463	0.395461
N254	N	1.546155	-0.576130	0.728795
N255	N	1.879488	-0.242796	1.062128
N256	N	1.267555	-0.893656	0.356099
N257	N	1.600888	-0.560322	0.689432
N258	N	1.934221	-0.226989	1.022765
H259	H	1.318300	-0.912886	0.369718
H260	H	1.651634	-0.579553	0.703051
H261	H	1.984967	-0.246219	1.036385
H262	H	0.981487	-0.449488	0.904635
H263	H	1.314820	-0.116154	1.237968
H264	H	1.648154	0.217179	1.571302
H265	H	0.981573	-0.903814	0.449519
H266	H	1.314906	-0.570480	0.782853
H267	H	1.648240	-0.237147	1.116186
