data_functionalizedCrystal
_audit_creation_method	'MofGen! by Chris Wilmer'
_symmetry_space_group_name_H-M	'P1'
_symmetry_Int_Tables_number	1
_symmetry_cell_setting	triclinic
loop_
_symmetry_equiv_pos_as_xyz
  x,y,z
_cell_length_a	16.974800
_cell_length_b	10.654541
_cell_length_c	15.455313
_cell_angle_alpha	92.691200
_cell_angle_beta	90.973911
_cell_angle_gamma	83.935819
loop_
_atom_site_label
_atom_site_type_symbol
_atom_site_fract_x
_atom_site_fract_y
_atom_site_fract_z
O1	O	1.049949	0.160091	0.001600
O2	O	0.820621	0.179269	-0.014505
O3	O	0.940558	-0.013114	-0.006077
O4	O	0.930011	0.352474	-0.006828
O5	O	0.933699	-0.002158	0.137703
O6	O	0.813762	0.190225	0.129275
O7	O	1.043090	0.171046	0.145381
Cu8	Cu	0.927800	0.181636	0.150456
Cu9	Cu	0.935911	0.168680	-0.019581
O10	O	0.923152	0.363430	0.136952
C11	C	0.787827	0.183817	0.055322
C12	C	0.700330	0.181030	0.049178
C13	C	0.655490	0.185690	0.124667
C14	C	0.573279	0.183052	0.118896
C15	C	0.535909	0.175763	0.037634
C16	C	0.580755	0.171099	-0.037861
C17	C	0.662965	0.173728	-0.032089
C18	C	0.290438	0.167250	0.011967
C19	C	0.208221	0.164625	0.006200
C20	C	0.200750	0.176576	0.162958
C21	C	0.282962	0.179212	0.168723
C22	C	0.327802	0.174542	0.093228
N23	N	0.451875	0.173070	0.031733
N24	N	0.411834	0.177225	0.099130
C25	C	0.936355	-0.054426	0.065758
C26	C	0.934039	-0.193846	0.065594
C27	C	1.077456	-0.223299	0.075678
C28	C	1.148074	-0.303524	0.080644
C29	C	1.145893	-0.434519	0.080488
C30	C	1.073087	-0.485292	0.075363
C31	C	1.002470	-0.405068	0.070396
C32	C	1.004658	-0.274071	0.070555
C33	C	0.859055	-0.375615	0.060307
C34	C	0.861233	-0.244618	0.060469
C35	C	0.786249	-0.426388	0.055181
C36	C	0.715629	-0.346163	0.050220
C37	C	0.717813	-0.215160	0.050377
C38	C	0.790616	-0.164394	0.055502
C39	C	1.075884	0.166499	0.075551
C40	C	1.163381	0.169285	0.081690
C41	C	0.927356	0.404741	0.065115
C42	C	0.929672	0.544161	0.065273
N43	N	0.922100	0.190748	0.270051
N44	N	0.941616	0.159557	-0.139175
C45	C	0.973072	0.109047	0.319027
C46	C	0.968769	0.115950	0.409533
C47	C	0.913498	0.204561	0.451061
C48	C	0.862521	0.286265	0.402078
C49	C	0.866820	0.279356	0.311574
C50	C	0.894939	0.234352	0.721338
C51	C	0.890645	0.241258	0.811849
C52	C	0.996893	0.070941	0.819297
C53	C	1.001190	0.064044	0.728791
C54	C	0.950211	0.145744	0.679816
N55	N	0.909100	0.211622	0.543572
N56	N	0.954605	0.138676	0.587306
H57	H	0.326937	0.163443	-0.049507
Br58	Br	1.246877	-0.234614	0.087592
Br59	Br	0.333672	0.189120	0.279011
H60	H	0.853430	0.300878	0.681469
Br61	Br	0.530044	0.161151	-0.148146
H62	H	0.656357	-0.387514	0.046042
H63	H	0.699473	0.169936	-0.093561
H64	H	0.817514	0.358410	0.435895
H65	H	1.079239	-0.116636	0.075817
Br66	Br	1.037943	0.005065	0.476003
Br67	Br	0.793584	0.013386	0.055725
Br68	Br	1.048093	-0.011207	0.262678
Br69	Br	0.157504	0.154741	-0.104091
Br70	Br	1.241731	-0.543402	0.087218
Br71	Br	0.706197	0.195596	0.234957
Br72	Br	0.512425	0.189397	0.221351
H73	H	0.825313	0.345884	0.271698
Br74	Br	0.139893	0.182912	0.265410
Br75	Br	1.076205	-0.056209	0.672431
H76	H	1.071319	-0.591958	0.075226
Br77	Br	0.621970	-0.106294	0.043626
Br78	Br	0.783291	-0.604174	0.054906
Br79	Br	1.066075	-0.039935	0.885766
H80	H	0.845634	0.313421	0.845656
