data_functionalizedCrystal
_audit_creation_method	'MofGen! by Chris Wilmer'
_symmetry_space_group_name_H-M	'P1'
_symmetry_Int_Tables_number	1
_symmetry_cell_setting	triclinic
loop_
_symmetry_equiv_pos_as_xyz
  x,y,z
_cell_length_a	27.440280
_cell_length_b	16.704486
_cell_length_c	16.704493
_cell_angle_alpha	60.347015
_cell_angle_beta	94.167076
_cell_angle_gamma	57.656690
loop_
_atom_site_label
_atom_site_type_symbol
_atom_site_fract_x
_atom_site_fract_y
_atom_site_fract_z
Zr1	Zr	0.419928	0.947464	-0.174225
O2	O	0.327880	1.128084	-0.315557
O3	O	0.454084	0.766858	-0.121780
O4	O	0.438119	0.947462	-0.302385
O5	O	0.349683	0.947476	-0.002861
O6	O	0.518323	0.947445	-0.302367
O7	O	0.343844	0.947479	-0.134953
O8	O	0.546881	0.624377	0.020702
O9	O	0.321125	1.270544	-0.325930
O10	O	0.521332	0.841126	-0.110417
O11	O	0.465834	0.841137	-0.011852
O12	O	0.447038	1.053775	-0.224491
O13	O	0.391540	1.053785	-0.125926
Zr14	Zr	0.557157	0.947433	0.036474
Zr15	Zr	0.547845	0.947437	-0.174197
Zr16	Zr	0.429240	0.947459	0.036445
Zr17	Zr	0.409156	1.174672	-0.190768
Zr18	Zr	0.567929	0.720224	0.053017
O19	O	0.523001	1.128039	-0.015971
O20	O	0.509761	1.128046	-0.315517
O21	O	0.341121	1.128077	-0.016011
O22	O	0.649205	0.766813	0.177806
O23	O	0.635965	0.766820	-0.121740
O24	O	0.467324	0.766851	0.177766
O25	O	0.627402	0.947420	-0.134890
O26	O	0.538966	0.947434	0.164634
O27	O	0.458762	0.947451	0.164616
O28	O	0.633241	0.947417	-0.002799
O29	O	0.422802	1.270523	-0.325908
O30	O	0.554283	0.624373	0.188157
O31	O	0.655960	0.624352	0.188179
O32	O	0.648558	0.624356	0.020724
O33	O	0.328527	1.270540	-0.158475
O34	O	0.430204	1.270519	-0.158453
O35	O	0.530047	0.841122	0.086740
O36	O	0.585545	0.841112	-0.011825
O37	O	0.511251	1.053760	-0.125899
O38	O	0.455753	1.053770	-0.027334
C39	C	0.502017	0.663245	-0.048182
C40	C	0.506591	0.566789	-0.041159
C41	C	0.412931	0.542546	-0.184983
C42	C	0.417225	0.451922	-0.178390
C43	C	0.519474	0.294917	-0.021384
C44	C	0.515180	0.385541	-0.027977
C45	C	0.461907	0.509355	-0.109779
C46	C	0.457611	0.599980	-0.116367
C47	C	0.559862	0.442974	0.040634
C48	C	0.564156	0.352350	0.047227
C49	C	0.328538	0.947482	-0.068911
C50	C	0.274234	0.947493	-0.068923
C51	C	-0.023676	0.836428	-0.009302
C52	C	-0.074694	0.836421	-0.009292
O53	O	-0.068099	0.742020	0.041379
N54	N	-0.138991	0.947420	-0.068839
C55	C	-0.152271	1.058433	-0.128390
O56	O	-0.211646	1.152846	-0.179037
C57	C	-0.101253	1.058439	-0.128393
C58	C	-0.036956	0.947432	-0.068851
C59	C	0.040618	0.725430	0.050236
C60	C	0.091632	0.725438	0.050225
C61	C	0.078352	0.836442	-0.009324
C62	C	0.014058	0.947440	-0.068862
C63	C	-0.114533	1.169450	-0.187937
C64	C	-0.063509	1.169446	-0.187934
C65	C	0.000789	1.058440	-0.128392
C66	C	0.051792	1.058451	-0.128422
N67	N	0.116089	0.947452	-0.068875
C68	C	0.129369	0.836448	-0.009326
C69	C	-0.259408	1.058413	-0.128378
C70	C	-0.310425	1.058409	-0.128382
C71	C	-0.232845	0.836396	-0.009283
C72	C	-0.181827	0.836402	-0.009285
C73	C	-0.195110	0.947414	-0.068832
C74	C	0.236500	0.836471	-0.009354
C75	C	0.287515	0.836488	-0.009374
C76	C	0.209930	1.058500	-0.128469
C77	C	0.158919	1.058484	-0.128454
C78	C	0.172209	0.947459	-0.068889
O79	O	0.045246	1.152805	-0.179063
O80	O	0.188745	0.742051	0.041323
C81	C	0.648547	0.947415	-0.068840
C82	C	0.702851	0.947404	-0.068828
C83	C	0.476894	0.947454	-0.332392
C84	C	0.472941	0.947457	-0.421827
C85	C	0.475068	1.231651	-0.089569
C86	C	0.470495	1.328107	-0.096592
C87	C	0.553902	0.947420	-0.589855
C88	C	0.550190	0.947421	-0.673887
C89	C	0.461809	0.947453	-0.673921
C90	C	0.465521	0.947451	-0.589888
C91	C	0.511568	0.947436	-0.547860
C92	C	0.515277	0.947443	-0.463831
C93	C	0.426899	0.947466	-0.463861
C94	C	0.423187	0.947468	-0.547893
C95	C	0.500191	0.947442	0.194641
C96	C	0.504144	0.947440	0.284076
C97	C	0.662022	0.663212	-0.048147
C98	C	0.720899	0.566745	-0.041112
C99	C	0.513665	0.663239	0.215334
C100	C	0.522192	0.566781	0.311793
C101	C	0.673670	0.663206	0.215370
C102	C	0.736500	0.566736	0.311840
C103	C	0.303416	1.231691	-0.353121
C104	C	0.240585	1.328160	-0.449591
C105	C	0.315064	1.231685	-0.089604
C106	C	0.256187	1.328152	-0.096640
C107	C	0.463420	1.231658	-0.353086
C108	C	0.454893	1.328116	-0.449544
C109	C	0.715029	0.521450	-0.089280
C110	C	0.770344	0.430822	-0.082691
C111	C	0.831529	0.385483	-0.027925
C112	C	0.837397	0.430786	0.020244
C113	C	0.782082	0.521419	0.013648
C114	C	0.559715	0.521476	0.408563
C115	C	0.567724	0.430856	0.499203
C116	C	0.538213	0.385537	0.493071
C117	C	0.500685	0.430851	0.396290
C118	C	0.492673	0.521475	0.305652
C119	C	0.794981	0.521428	0.305694
C120	C	0.854021	0.430798	0.396329
C121	C	0.854579	0.385471	0.493110
C122	C	0.796091	0.430788	0.499254
C123	C	0.737053	0.521423	0.408619
C124	C	0.182104	1.373480	-0.443446
C125	C	0.123063	1.464138	-0.534083
C126	C	0.122505	1.509470	-0.630864
C127	C	0.180992	1.464147	-0.637008
C128	C	0.240031	1.373496	-0.546372
C129	C	0.262055	1.373456	-0.048480
C130	C	0.206738	1.464109	-0.055095
C131	C	0.145553	1.509451	-0.109863
C132	C	0.139686	1.464144	-0.158029
C133	C	0.195002	1.373498	-0.151420
C134	C	0.484413	1.373406	-0.443378
C135	C	0.476414	1.464026	-0.534002
C136	C	0.438891	1.509361	-0.630791
C137	C	0.409371	1.464062	-0.636954
C138	C	0.417374	1.373437	-0.546331
H139	H	0.562853	0.194096	0.045205
H140	H	0.876564	0.311682	-0.022561
H141	H	0.180530	1.501067	-0.715818
H142	H	0.796556	0.393870	0.578065
H143	H	0.598284	0.393971	0.577997
Cl144	Cl	0.914320	0.373770	0.089094
Cl145	Cl	0.313548	1.316525	-0.554115
H146	H	0.591391	0.947419	-0.555641
H147	H	0.385698	0.947476	-0.582120
H148	H	0.786870	0.558286	0.052880
H149	H	0.583748	0.558364	0.413576
H150	H	0.544742	0.311745	0.566882
H151	H	0.100517	1.583261	-0.115237
Cl152	Cl	0.603412	0.947396	-0.726677
Cl153	Cl	0.573163	0.947428	-0.410998
Cl154	Cl	0.513525	1.520962	-0.526230
Cl155	Cl	0.663538	0.578364	0.416365
Cl156	Cl	0.380251	1.316523	-0.554102
Cl157	Cl	0.928805	0.271525	0.607043
Cl158	Cl	-0.216159	0.696846	0.065581
H159	H	0.190215	1.336614	-0.190635
Cl160	Cl	0.214130	1.521043	0.005468
H161	H	0.476660	0.393939	0.391312
Cl162	Cl	0.445502	0.578413	0.184002
H163	H	0.794539	0.558320	0.226898
Cl164	Cl	0.638118	0.578434	-0.158140
H165	H	0.311870	1.336545	-0.003876
H166	H	0.424322	0.947453	-0.708145
H167	H	0.089862	1.501075	-0.202621
Cl168	Cl	0.049545	1.521092	-0.526335
Cl169	Cl	0.048277	1.623430	-0.744798
Cl170	Cl	0.531589	1.316431	-0.321711
Cl171	Cl	0.927538	0.373841	0.388581
Cl172	Cl	0.345957	0.698198	-0.287808
H173	H	0.765554	0.393947	-0.121917
Cl174	Cl	0.182789	1.316510	-0.321789
H175	H	0.432380	1.583154	-0.704574
Cl176	Cl	0.362195	1.521079	-0.758642
H177	H	0.414228	0.700793	-0.182965
Cl178	Cl	-0.391253	1.197966	-0.203252
Cl179	Cl	0.631125	0.196695	0.150057
H180	H	0.599739	0.415953	0.101875
Cl181	Cl	0.355655	0.493655	-0.272938
H182	H	0.339869	0.746090	0.039116
Cl183	Cl	0.373674	0.947499	-0.411065
H184	H	0.143982	0.635045	0.098706
Cl185	Cl	0.253215	0.696896	0.065525
Cl186	Cl	-0.101000	0.696846	0.065573
Cl187	Cl	-0.276118	1.197986	-0.203254
Cl188	Cl	0.057329	0.585862	0.125111
H189	H	-0.074331	1.259848	-0.236413
Cl190	Cl	-0.195354	1.309011	-0.262785
H191	H	0.106563	1.148874	-0.176950
H192	H	0.199127	1.148877	-0.176955
