data_functionalizedCrystal
_audit_creation_method	'MofGen! by Chris Wilmer'
_symmetry_space_group_name_H-M	'P1'
_symmetry_Int_Tables_number	1
_symmetry_cell_setting	triclinic
loop_
_symmetry_equiv_pos_as_xyz
  x,y,z
_cell_length_a	12.594517
_cell_length_b	21.295417
_cell_length_c	12.594509
_cell_angle_alpha	90.036245
_cell_angle_beta	90.021327
_cell_angle_gamma	90.030306
loop_
_atom_site_label
_atom_site_type_symbol
_atom_site_fract_x
_atom_site_fract_y
_atom_site_fract_z
Zn1	Zn	1.627160	-0.250594	0.601801
Zn2	Zn	1.627006	-0.355872	0.423797
Zn3	Zn	1.449164	-0.250621	0.423830
Zn4	Zn	1.449101	-0.355829	0.601727
O5	O	1.538108	-0.303229	0.512789
O6	O	1.776085	-0.264566	0.578205
O7	O	1.603377	-0.341940	0.274856
O8	O	1.472866	-0.162528	0.447482
O9	O	1.775972	-0.341914	0.447427
O10	O	1.603639	-0.162508	0.578237
O11	O	1.472717	-0.264612	0.274879
O12	O	1.300210	-0.264570	0.447411
O13	O	1.472759	-0.341839	0.750683
O14	O	1.300164	-0.341865	0.578112
O15	O	1.603578	-0.264524	0.750737
O16	O	1.603316	-0.443956	0.447356
O17	O	1.472610	-0.443924	0.578080
C18	C	1.261567	-0.303216	0.512757
C19	C	1.143261	-0.303226	0.512769
C20	C	1.074002	-0.261127	0.441817
C21	C	1.003167	-0.318547	0.415623
C22	C	1.003298	-0.245834	0.538981
C23	C	1.073984	-0.360676	0.486525
C24	C	1.074121	-0.287924	0.609928
C25	C	1.003318	-0.345384	0.583771
C26	C	1.537968	-0.466780	0.512730
C27	C	1.538006	-0.536748	0.512740
C28	C	1.606125	-0.569611	0.444742
C29	C	1.606175	-0.635353	0.444766
C30	C	1.538087	-0.668231	0.512777
C31	C	1.469963	-0.635361	0.580789
C32	C	1.469923	-0.569619	0.580770
N33	N	1.444976	-0.771496	0.520881
N34	N	1.445018	-0.833948	0.520892
C35	C	1.538206	-0.866306	0.512838
N36	N	1.631353	-0.833853	0.504752
N37	N	1.631311	-0.771396	0.504735
C38	C	1.538123	-0.739516	0.512805
C39	C	1.606385	-0.970454	0.444862
C40	C	1.606436	-1.036197	0.444893
C41	C	1.470215	-1.036203	0.580910
C42	C	1.470173	-0.970461	0.580885
C43	C	1.538256	-0.937590	0.512855
C44	C	1.815729	-0.303242	0.512821
C45	C	1.934034	-0.303247	0.512835
C46	C	1.538179	-0.303174	0.790410
C47	C	1.538209	-0.303150	0.908715
C48	C	1.538277	-0.139038	0.512871
C49	C	1.538349	-0.069070	0.512906
C50	C	1.538098	-0.303238	0.236248
C51	C	1.538274	-0.303084	0.117943
C52	C	1.467079	-0.345178	0.977939
C53	C	1.564193	-0.360559	1.048726
C54	C	1.441171	-0.287731	1.048728
C55	C	1.635374	-0.318561	0.977944
C56	C	1.512287	-0.245707	0.977939
C57	C	1.609468	-0.261066	1.048694
H58	H	1.105039	-0.225561	0.381741
H59	H	1.669717	-0.225496	1.079565
C60	C	0.961352	-0.180255	0.568905
C61	C	0.891496	-0.171853	0.668223
C62	C	0.849554	-0.106273	0.698137
C63	C	0.877468	-0.049095	0.628734
C64	C	0.947327	-0.057495	0.529410
C65	C	0.989269	-0.123075	0.499496
H66	H	0.870829	-0.214181	0.719605
H67	H	0.797840	-0.100055	0.771663
H68	H	0.846420	-0.000549	0.650878
H69	H	0.967994	-0.015167	0.478029
H70	H	1.040983	-0.129293	0.425970
C71	C	0.961646	-0.393544	0.664869
C72	C	0.890265	-0.448056	0.627823
C73	C	0.848594	-0.496217	0.708915
C74	C	0.878303	-0.489867	0.827053
C75	C	0.949688	-0.435353	0.864105
C76	C	0.991359	-0.387191	0.783013
H77	H	0.868269	-0.452758	0.540365
H78	H	0.795750	-0.536572	0.681486
H79	H	0.847455	-0.525519	0.887082
H80	H	0.971684	-0.430650	0.951563
H81	H	1.044203	-0.346836	0.810441
C82	C	1.395228	-0.934309	0.655676
C83	C	1.311662	-0.889180	0.609465
C84	C	1.236716	-0.853029	0.684264
C85	C	1.245336	-0.862008	0.805274
C86	C	1.328906	-0.907140	0.851492
C87	C	1.403852	-0.943290	0.776693
H88	H	1.305278	-0.882531	0.519880
H89	H	1.174852	-0.819620	0.650050
H90	H	1.189857	-0.835247	0.860645
H91	H	1.335290	-0.913788	0.941076
H92	H	1.465716	-0.976700	0.810907
H93	H	1.661649	-0.662115	0.389393
C94	C	1.330274	-0.270143	1.090728
C95	C	1.233633	-0.311293	1.062786
C96	C	1.122734	-0.293711	1.104780
C97	C	1.108477	-0.234978	1.174717
C98	C	1.205121	-0.193824	1.202662
C99	C	1.316020	-0.211407	1.160668
H100	H	1.244184	-0.354774	1.011012
H101	H	1.051192	-0.324176	1.084093
H102	H	1.026383	-0.221962	1.205803
H103	H	1.194570	-0.150343	1.254436
H104	H	1.387563	-0.180941	1.181355
H105	H	1.661565	-0.542849	0.389350
C106	C	1.116267	-0.270400	0.720856
C107	C	1.088463	-0.206228	0.769906
C108	C	1.130611	-0.188695	0.880834
C109	C	1.200563	-0.235335	0.942711
C110	C	1.228371	-0.299512	0.893661
C111	C	1.186223	-0.317044	0.782733
H112	H	1.036676	-0.171698	0.724101
H113	H	1.110025	-0.141188	0.917144
H114	H	1.231764	-0.222357	1.024827
H115	H	1.280157	-0.334041	0.939467
H116	H	1.206808	-0.364552	0.746423
H117	H	1.414527	-0.662134	0.636166
H118	H	1.490297	-0.197170	0.946822
H119	H	0.972003	-0.331503	0.333486
H120	H	1.104905	-0.409235	0.464291
H121	H	1.406974	-0.380775	0.946873
H122	H	1.661826	-0.943689	0.389471
C123	C	1.394982	-0.533467	0.655569
C124	C	1.273993	-0.542575	0.646775
C125	C	1.199049	-0.506422	0.721573
C126	C	1.245096	-0.461160	0.805164
C127	C	1.366091	-0.452050	0.813961
C128	C	1.441034	-0.488203	0.739163
H129	H	1.239901	-0.576082	0.584893
H130	H	1.109480	-0.513166	0.715060
H131	H	1.189618	-0.434397	0.860534
H132	H	1.400183	-0.418543	0.875844
H133	H	1.530603	-0.481459	0.745676
H134	H	1.661914	-1.062953	0.389523
H135	H	1.414781	-1.062971	0.636291
H136	H	1.586154	-0.409109	1.079819
H137	H	1.717489	-0.331630	0.946982
