data_functionalizedCrystal
_audit_creation_method	'MofGen! by Chris Wilmer'
_symmetry_space_group_name_H-M	'P1'
_symmetry_Int_Tables_number	1
_symmetry_cell_setting	triclinic
loop_
_symmetry_equiv_pos_as_xyz
  x,y,z
_cell_length_a	13.897448
_cell_length_b	11.169417
_cell_length_c	11.169406
_cell_angle_alpha	89.969315
_cell_angle_beta	89.949141
_cell_angle_gamma	90.018942
loop_
_atom_site_label
_atom_site_type_symbol
_atom_site_fract_x
_atom_site_fract_y
_atom_site_fract_z
Zn1	Zn	-0.383759	1.835033	-0.678506
Zn2	Zn	-0.050426	2.168367	-0.345173
Zn3	Zn	0.282908	2.501700	-0.011839
Zn4	Zn	-0.545138	1.834858	-0.477812
Zn5	Zn	-0.211805	2.168191	-0.144478
Zn6	Zn	0.121529	2.501524	0.188855
Zn7	Zn	-0.383862	1.634280	-0.477841
Zn8	Zn	-0.050529	1.967613	-0.144508
Zn9	Zn	0.282805	2.300947	0.188825
Zn10	Zn	-0.545017	1.634301	-0.678458
Zn11	Zn	-0.211684	1.967634	-0.345124
Zn12	Zn	0.121649	2.300968	-0.011791
O13	O	-0.464444	1.734618	-0.578154
O14	O	-0.131111	2.067951	-0.244821
O15	O	0.202223	2.401285	0.088512
O16	O	-0.405174	2.002960	-0.651891
O17	O	-0.071840	2.336293	-0.318558
O18	O	0.261493	2.669626	0.014775
O19	O	-0.523838	1.808169	-0.309866
O20	O	-0.190504	2.141502	0.023468
O21	O	0.142829	2.474835	0.356801
O22	O	-0.248867	1.660975	-0.504493
O23	O	0.084467	1.994309	-0.171160
O24	O	0.417800	2.327642	0.162174
O25	O	-0.523738	2.002831	-0.504442
O26	O	-0.190405	2.336164	-0.171109
O27	O	0.142929	2.669497	0.162225
O28	O	-0.248791	1.808468	-0.651920
O29	O	0.084542	2.141801	-0.318587
O30	O	0.417876	2.475134	0.014746
O31	O	-0.405349	1.660805	-0.309888
O32	O	-0.072016	1.994138	0.023446
O33	O	0.261318	2.327472	0.356779
O34	O	-0.405232	1.466333	-0.504446
O35	O	-0.071899	1.799667	-0.171113
O36	O	0.261434	2.133000	0.162221
O37	O	-0.523533	1.661011	-0.846414
O38	O	-0.190199	1.994344	-0.513081
O39	O	0.143134	2.327677	-0.179747
O40	O	-0.523632	1.466349	-0.651838
O41	O	-0.190299	1.799682	-0.318504
O42	O	0.143034	2.133015	0.014829
O43	O	-0.405057	1.808488	-0.846450
O44	O	-0.071724	2.141821	-0.513116
O45	O	0.261610	2.475155	-0.179783
O46	O	-0.680104	1.808189	-0.504395
O47	O	-0.346770	2.141522	-0.171062
O48	O	-0.013437	2.474855	0.162272
O49	O	-0.680015	1.660841	-0.651809
O50	O	-0.346682	1.994174	-0.318475
O51	O	-0.013348	2.327507	0.014858
C52	C	-0.464431	1.422793	-0.578140
C53	C	-0.131098	1.756127	-0.244807
C54	C	0.202236	2.089460	0.088526
C55	C	-0.464449	1.289393	-0.578163
C56	C	-0.131115	1.622727	-0.244830
C57	C	0.202218	1.956060	0.088504
C58	C	-0.715059	1.734530	-0.578119
C59	C	-0.381725	2.067864	-0.244786
C60	C	-0.048392	2.401197	0.088547
C61	C	-0.822272	1.734603	-0.578145
C62	C	-0.488939	2.067936	-0.244811
C63	C	-0.155606	2.401269	0.088522
C64	C	-1.018567	1.734729	-0.578220
C65	C	-0.685234	2.068062	-0.244887
C66	C	-0.351901	2.401395	0.088447
C67	C	-0.909335	1.734655	-0.578182
C68	C	-0.576002	2.067989	-0.244848
C69	C	-0.242668	2.401322	0.088485
C70	C	-0.212851	1.734739	-0.578215
C71	C	0.120482	2.068072	-0.244882
C72	C	0.453816	2.401405	0.088451
C73	C	-0.105637	1.734790	-0.578241
C74	C	0.227696	2.068123	-0.244908
C75	C	0.561030	2.401457	0.088425
C76	C	-0.464270	1.734771	-0.891197
C77	C	-0.130937	2.068105	-0.557864
C78	C	0.202397	2.401438	-0.224530
C79	C	-0.464196	1.734837	-1.024597
C80	C	-0.130862	2.068170	-0.691264
C81	C	0.202471	2.401503	-0.357930
C82	C	-0.464458	2.047660	-0.578169
C83	C	-0.131125	2.380994	-0.244835
C84	C	0.202209	2.714327	0.088498
C85	C	-0.464464	2.181060	-0.578175
C86	C	-0.131130	2.514394	-0.244842
C87	C	0.202203	2.847727	0.088492
C88	C	-0.464548	1.734534	-0.266329
C89	C	-0.131215	2.067868	0.067004
C90	C	0.202119	2.401201	0.400337
C91	C	-0.464351	1.734702	-0.132930
C92	C	-0.131017	2.068035	0.200404
C93	C	0.202316	2.401368	0.533737
