data_functionalizedCrystal
_audit_creation_method	'MofGen! by Chris Wilmer'
_symmetry_space_group_name_H-M	'P1'
_symmetry_Int_Tables_number	1
_symmetry_cell_setting	triclinic
loop_
_symmetry_equiv_pos_as_xyz
  x,y,z
_cell_length_a	19.077105
_cell_length_b	19.077068
_cell_length_c	17.077396
_cell_angle_alpha	87.732878
_cell_angle_beta	92.316751
_cell_angle_gamma	90.115316
loop_
_atom_site_label
_atom_site_type_symbol
_atom_site_fract_x
_atom_site_fract_y
_atom_site_fract_z
Zn1	Zn	1.062992	-0.322976	0.505864
Zn2	Zn	1.396326	0.010357	0.839197
Zn3	Zn	1.729659	0.343691	1.172531
Zn4	Zn	1.058179	-0.440486	0.379639
Zn5	Zn	1.391512	-0.107153	0.712972
Zn6	Zn	1.724845	0.226181	1.046305
Zn7	Zn	0.945484	-0.318272	0.369142
Zn8	Zn	1.278817	0.015062	0.702476
Zn9	Zn	1.612151	0.348395	1.035809
Zn10	Zn	0.940727	-0.435717	0.505393
Zn11	Zn	1.274061	-0.102384	0.838726
Zn12	Zn	1.607394	0.230949	1.172059
O13	O	1.001846	-0.379363	0.440009
O14	O	1.335179	-0.046029	0.773343
O15	O	1.668512	0.287304	1.106676
O16	O	1.160685	-0.342528	0.493710
O17	O	1.494019	-0.009195	0.827043
O18	O	1.827352	0.324138	1.160377
O19	O	1.043206	-0.424301	0.268400
O20	O	1.376539	-0.090967	0.601733
O21	O	1.709872	0.242366	0.935066
O22	O	0.965077	-0.220566	0.383083
O23	O	1.298410	0.112768	0.716417
O24	O	1.631744	0.446101	1.049750
O25	O	1.157149	-0.428862	0.400973
O26	O	1.490482	-0.095529	0.734306
O27	O	1.823815	0.237804	1.067640
O28	O	1.051410	-0.224022	0.483532
O29	O	1.384743	0.109311	0.816866
O30	O	1.718077	0.442645	1.150199
O31	O	0.960409	-0.334510	0.260688
O32	O	1.293743	-0.001177	0.594021
O33	O	1.627076	0.332156	0.927355
O34	O	0.846522	-0.329887	0.382626
O35	O	1.179855	0.003447	0.715960
O36	O	1.513188	0.336780	1.049293
O37	O	0.956970	-0.420735	0.615302
O38	O	1.290303	-0.087402	0.948635
O39	O	1.623637	0.245931	1.281969
O40	O	0.843027	-0.416174	0.482729
O41	O	1.176360	-0.082840	0.816062
O42	O	1.509694	0.250493	1.149395
O43	O	1.046798	-0.337904	0.615648
O44	O	1.380131	-0.004571	0.948982
O45	O	1.713464	0.328762	1.282315
O46	O	1.038593	-0.538183	0.400516
O47	O	1.371927	-0.204850	0.733849
O48	O	1.705260	0.128483	1.067182
O49	O	0.952302	-0.534680	0.492906
O50	O	1.285636	-0.201347	0.826240
O51	O	1.618969	0.131987	1.159573
C52	C	0.819278	-0.372003	0.431488
C53	C	1.152611	-0.038669	0.764821
C54	C	1.485945	0.294664	1.098154
C55	C	0.741174	-0.368871	0.427861
C56	C	1.074507	-0.035538	0.761195
C57	C	1.407841	0.297796	1.094528
C58	C	0.702677	-0.412393	0.478200
C59	C	1.036010	-0.079059	0.811533
C60	C	1.369344	0.254274	1.144866
C61	C	0.629290	-0.409441	0.474796
C62	C	0.962624	-0.076107	0.808129
C63	C	1.295957	0.257226	1.141462
C64	C	0.594402	-0.362970	0.421049
C65	C	0.927735	-0.029637	0.754382
C66	C	1.261069	0.303696	1.087716
C67	C	0.632905	-0.319444	0.370709
C68	C	0.966238	0.013889	0.704042
C69	C	1.299571	0.347222	1.037375
C70	C	0.706290	-0.322393	0.374117
C71	C	1.039623	0.010940	0.707450
C72	C	1.372957	0.344274	1.040784
C73	C	0.375117	-0.349323	0.405279
C74	C	0.708450	-0.015990	0.738612
C75	C	1.041784	0.317343	1.071945
C76	C	0.301726	-0.346379	0.401873
C77	C	0.635060	-0.013046	0.735206
C78	C	0.968393	0.320287	1.068539
C79	C	0.298117	-0.436375	0.505961
C80	C	0.631451	-0.103042	0.839294
C81	C	0.964784	0.230291	1.172628
C82	C	0.371504	-0.439323	0.509361
C83	C	0.704837	-0.105989	0.842695
C84	C	1.038171	0.227344	1.176028
C85	C	0.410000	-0.395794	0.459024
C86	C	0.743334	-0.062461	0.792357
C87	C	1.076667	0.270873	1.125690
N88	N	0.519389	-0.359954	0.417567
N89	N	0.852723	-0.026620	0.750900
N90	N	1.186056	0.306713	1.084233
N91	N	0.485012	-0.398808	0.462510
N92	N	0.818345	-0.065474	0.795844
N93	N	1.151679	0.267859	1.129177
C94	C	0.994428	-0.561928	0.447817
C95	C	1.327762	-0.228595	0.781150
C96	C	1.661095	0.104739	1.114484
C97	C	0.991320	-0.640033	0.451186
C98	C	1.324653	-0.306700	0.784520
C99	C	1.657986	0.026634	1.117853
C100	C	1.034821	-0.678529	0.404709
C101	C	1.368154	-0.345196	0.738043
C102	C	1.701488	-0.011862	1.071376
C103	C	1.031901	-0.751917	0.407883
C104	C	1.365234	-0.418583	0.741217
C105	C	1.698568	-0.085250	1.074550
C106	C	0.985476	-0.786807	0.457530
C107	C	1.318809	-0.453474	0.790864
C108	C	1.652142	-0.120141	1.124197
C109	C	0.941973	-0.748306	0.504012
C110	C	1.275306	-0.414973	0.837345
C111	C	1.608639	-0.081639	1.170679
C112	C	0.944896	-0.674920	0.500842
C113	C	1.278230	-0.341586	0.834175
C114	C	1.611563	-0.008253	1.167509
C115	C	0.971913	-1.006096	0.472169
C116	C	1.305246	-0.672762	0.805502
C117	C	1.638580	-0.339429	1.138836
C118	C	0.968991	-1.079487	0.475334
C119	C	1.302324	-0.746154	0.808667
C120	C	1.635657	-0.412821	1.142001
C121	C	1.058921	-1.083093	0.379206
C122	C	1.392254	-0.749760	0.712539
C123	C	1.725587	-0.416426	1.045872
C124	C	1.061837	-1.009705	0.376037
C125	C	1.395171	-0.676371	0.709370
C126	C	1.728504	-0.343038	1.042703
C127	C	1.018337	-0.971210	0.422521
C128	C	1.351670	-0.637877	0.755855
C129	C	1.685004	-0.304544	1.089188
N130	N	0.982489	-0.861821	0.460774
N131	N	1.315822	-0.528488	0.794107
N132	N	1.649155	-0.195155	1.127440
N133	N	1.021328	-0.896198	0.419282
N134	N	1.354661	-0.562864	0.752615
N135	N	1.687995	-0.229531	1.085948
C136	C	1.185126	-0.386752	0.448565
C137	C	1.518459	-0.053419	0.781898
C138	C	1.851793	0.279915	1.115232
C139	C	1.263229	-0.389901	0.452211
C140	C	1.596563	-0.056567	0.785544
C141	C	1.929896	0.276766	1.118878
C142	C	1.001890	-0.379313	0.644754
C143	C	1.335224	-0.045979	0.978087
C144	C	1.668557	0.287354	1.311420
C145	C	1.001909	-0.379291	0.732003
C146	C	1.335243	-0.045958	1.065337
C147	C	1.668576	0.287375	1.398670
C148	C	1.009311	-0.196085	0.432190
C149	C	1.342644	0.137248	0.765523
C150	C	1.675978	0.470582	1.098856
C151	C	1.012492	-0.117983	0.428857
C152	C	1.345826	0.215350	0.762191
C153	C	1.679159	0.548684	1.095524
C154	C	1.001844	-0.379363	0.236062
C155	C	1.335177	-0.046030	0.569395
C156	C	1.668510	0.287303	0.902728
C157	C	1.001969	-0.379192	0.148810
C158	C	1.335302	-0.045859	0.482143
C159	C	1.668635	0.287474	0.815477
C160	C	1.048684	-0.336158	0.773175
C161	C	1.382018	-0.002824	1.106508
C162	C	1.715351	0.330509	1.439842
C163	C	1.048694	-0.336135	0.855155
C164	C	1.382027	-0.002801	1.188488
C165	C	1.715360	0.330532	1.521822
C166	C	1.001931	-0.379249	0.895962
C167	C	1.335264	-0.045916	1.229295
C168	C	1.668598	0.287417	1.562629
C169	C	0.955151	-0.422385	0.854784
C170	C	1.288484	-0.089051	1.188118
C171	C	1.621817	0.244282	1.521451
C172	C	0.955139	-0.422404	0.772806
C173	C	1.288472	-0.089070	1.106139
C174	C	1.621805	0.244263	1.439472
C175	C	0.955181	-0.422344	1.025654
C176	C	1.288514	-0.089010	1.358987
C177	C	1.621847	0.244323	1.692321
C178	C	0.955194	-0.422326	1.107638
C179	C	1.288527	-0.088993	1.440972
C180	C	1.621860	0.244341	1.774305
C181	C	1.048736	-0.336075	1.108003
C182	C	1.382069	-0.002741	1.441337
C183	C	1.715403	0.330592	1.774670
C184	C	1.048724	-0.336093	1.026025
C185	C	1.382057	-0.002760	1.359358
C186	C	1.715390	0.330573	1.692691
C187	C	1.001944	-0.379230	0.984853
C188	C	1.335278	-0.045897	1.318186
C189	C	1.668611	0.287437	1.651519
H190	H	0.731077	-0.450236	0.521963
H191	H	1.064411	-0.116903	0.855297
H192	H	1.397744	0.216431	1.188630
H193	H	0.604493	-0.281604	0.326950
H194	H	0.937826	0.051729	0.660284
H195	H	1.271160	0.385063	0.993617
Br196	Br	1.112194	-0.277586	0.970644
Br197	Br	1.445527	0.055747	1.303977
Br198	Br	1.778861	0.389080	1.637311
Br199	Br	0.418847	-0.502396	0.582302
Br200	Br	0.752180	-0.169063	0.915635
Br201	Br	1.085514	0.164271	1.248968
H202	H	0.597949	-0.444881	0.515786
H203	H	0.931282	-0.111548	0.849119
H204	H	1.264616	0.221785	1.182452
H205	H	0.737634	-0.286949	0.333130
H206	H	1.070967	0.046384	0.666463
H207	H	1.404300	0.379717	0.999797
H208	H	1.086766	-0.301051	0.739956
H209	H	1.420099	0.032283	1.073289
H210	H	1.753433	0.365616	1.406623
Br211	Br	0.427353	-0.290244	0.336967
Br212	Br	0.760686	0.043089	0.670300
Br213	Br	1.094020	0.376422	1.003634
Br214	Br	1.097823	-0.631184	0.337320
Br215	Br	1.431157	-0.297851	0.670654
Br216	Br	1.764490	0.035482	1.003987
H217	H	1.067324	-0.783257	0.370036
H218	H	1.400657	-0.449924	0.703370
H219	H	1.733991	-0.116590	1.036703
H220	H	1.094337	-1.114443	0.341362
H221	H	1.427671	-0.781110	0.674695
H222	H	1.761004	-0.447776	1.008028
H223	H	1.099641	-0.981299	0.335610
H224	H	1.432974	-0.647965	0.668943
H225	H	1.766307	-0.314632	1.002277
H226	H	0.936492	-0.974759	0.510017
H227	H	1.269825	-0.641426	0.843351
H228	H	1.603158	-0.308092	1.176684
Br229	Br	0.891692	-0.480884	0.969778
Br230	Br	1.225025	-0.147551	1.303111
Br231	Br	1.558358	0.185782	1.636445
Br232	Br	0.905969	-1.126838	0.542703
Br233	Br	1.239302	-0.793505	0.876036
Br234	Br	1.572636	-0.460171	1.209369
Br235	Br	0.878972	-0.795657	0.571398
Br236	Br	1.212305	-0.462323	0.904731
Br237	Br	1.545639	-0.128990	1.238065
Br238	Br	1.112225	-0.277535	1.163878
Br239	Br	1.445558	0.055798	1.497212
Br240	Br	1.778892	0.389132	1.830545
Br241	Br	0.885861	-0.622674	0.563925
Br242	Br	1.219194	-0.289341	0.897259
Br243	Br	1.552528	0.043992	1.230592
H244	H	0.917073	-0.457487	0.888016
H245	H	1.250407	-0.124154	1.221349
H246	H	1.583740	0.209180	1.554682
H247	H	0.266766	-0.471813	0.546944
H248	H	0.600099	-0.138480	0.880277
H249	H	0.933433	0.194854	1.213611
H250	H	1.086784	-0.301013	0.888674
H251	H	1.420117	0.032321	1.222007
H252	H	1.753451	0.365654	1.555340
Br253	Br	0.254378	-0.283316	0.328918
Br254	Br	0.587711	0.050017	0.662251
Br255	Br	0.921045	0.383351	0.995584
Br256	Br	0.891723	-0.480832	1.163019
Br257	Br	1.225056	-0.147499	1.496352
Br258	Br	1.558390	0.185834	1.829686
H259	H	0.917043	-0.457520	0.739284
H260	H	1.250376	-0.124187	1.072617
H261	H	1.583709	0.209146	1.405951
