data_functionalizedCrystal
_audit_creation_method	'MofGen! by Chris Wilmer'
_symmetry_space_group_name_H-M	'P1'
_symmetry_Int_Tables_number	1
_symmetry_cell_setting	triclinic
loop_
_symmetry_equiv_pos_as_xyz
  x,y,z
_cell_length_a	29.839134
_cell_length_b	12.827892
_cell_length_c	29.839125
_cell_angle_alpha	90.004568
_cell_angle_beta	90.023632
_cell_angle_gamma	90.010254
loop_
_atom_site_label
_atom_site_type_symbol
_atom_site_fract_x
_atom_site_fract_y
_atom_site_fract_z
Zn1	Zn	0.686808	-0.416386	0.254147
Zn2	Zn	1.186808	0.083614	0.754147
Zn3	Zn	0.686772	-0.591086	0.179026
Zn4	Zn	1.186772	-0.091086	0.679026
Zn5	Zn	0.611689	-0.416344	0.179017
Zn6	Zn	1.111689	0.083656	0.679017
Zn7	Zn	0.611673	-0.591070	0.254115
Zn8	Zn	1.111673	-0.091070	0.754115
O9	O	0.649236	-0.503721	0.216576
O10	O	1.149236	-0.003721	0.716576
O11	O	0.749671	-0.439584	0.244200
O12	O	1.249671	0.060416	0.744200
O13	O	0.676804	-0.567896	0.116158
O14	O	1.176804	-0.067896	0.616158
O15	O	0.621675	-0.270114	0.188992
O16	O	1.121675	0.229886	0.688992
O17	O	0.749644	-0.567936	0.189009
O18	O	1.249644	-0.067936	0.689009
O19	O	0.676865	-0.270144	0.244190
O20	O	1.176865	0.229856	0.744190
O21	O	0.621641	-0.439513	0.116151
O22	O	1.121641	0.060487	0.616151
O23	O	0.548820	-0.439498	0.188961
O24	O	1.048820	0.060502	0.688961
O25	O	0.621648	-0.567908	0.316986
O26	O	1.121648	-0.067908	0.816986
O27	O	0.548808	-0.567868	0.244135
O28	O	1.048808	-0.067868	0.744135
O29	O	0.676850	-0.439568	0.317010
O30	O	1.176850	0.060432	0.817010
O31	O	0.676789	-0.737320	0.188977
O32	O	1.176789	-0.237320	0.688977
O33	O	0.621613	-0.737308	0.244144
O34	O	1.121613	-0.237308	0.744144
C35	C	0.649207	-0.775231	0.216568
C36	C	1.149207	-0.275231	0.716568
C37	C	0.649237	-0.891384	0.216580
C38	C	1.149237	-0.391384	0.716580
C39	C	0.532513	-0.503677	0.216544
C40	C	1.032513	-0.003677	0.716544
C41	C	0.482579	-0.503683	0.216541
C42	C	0.982579	-0.003683	0.716541
C43	C	0.676571	-0.943141	0.189312
C44	C	1.176571	-0.443141	0.689312
C45	C	0.676602	-1.063191	0.189323
C46	C	1.176602	-0.563191	0.689323
C47	C	0.172939	-0.570663	0.245270
C48	C	0.672939	-0.070663	0.745270
C49	C	-0.014734	-0.570692	0.245290
C50	C	0.485266	-0.070692	0.745290
O51	O	-0.038996	-0.627591	0.269698
O52	O	0.461004	-0.127591	0.769698
N53	N	-0.038207	-0.503760	0.216610
N54	N	0.461793	-0.003760	0.716610
C55	C	-0.014757	-0.436811	0.187925
C56	C	0.485243	0.063189	0.687925
O57	O	-0.039028	-0.379874	0.163534
O58	O	0.460972	0.120126	0.663534
C59	C	0.172915	-0.436777	0.187907
C60	C	0.672915	0.063223	0.687907
C61	C	0.196384	-0.503721	0.216586
C62	C	0.696384	-0.003721	0.716586
C63	C	0.196408	-0.637600	0.273947
C64	C	0.696408	-0.137600	0.773947
C65	C	0.243324	-0.637596	0.273940
C66	C	0.743324	-0.137596	0.773940
C67	C	0.266769	-0.570655	0.245256
C68	C	0.766769	-0.070655	0.745256
C69	C	0.243300	-0.503717	0.216579
C70	C	0.743300	-0.003717	0.716579
C71	C	0.196363	-0.369823	0.159225
C72	C	0.696363	0.130177	0.659225
C73	C	0.243284	-0.369818	0.159224
C74	C	0.743284	0.130182	0.659224
C75	C	0.266754	-0.436763	0.187903
C76	C	0.766754	0.063237	0.687903
C77	C	0.313661	-0.436771	0.187888
C78	C	0.813661	0.063229	0.687888
N79	N	0.337133	-0.503703	0.216569
N80	N	0.837133	-0.003703	0.716569
C81	C	0.313687	-0.570645	0.245252
C82	C	0.813687	-0.070645	0.745252
C83	C	-0.113288	-0.436835	0.187935
C84	C	0.386712	0.063165	0.687935
C85	C	-0.160206	-0.436844	0.187939
C86	C	0.339794	0.063156	0.687939
C87	C	-0.160180	-0.570725	0.245305
C88	C	0.339820	-0.070725	0.745305
C89	C	-0.113261	-0.570719	0.245299
C90	C	0.386739	-0.070719	0.745299
C91	C	-0.089816	-0.503767	0.216616
C92	C	0.410184	-0.003767	0.716616
C93	C	0.412213	-0.570632	0.245235
C94	C	0.912213	-0.070632	0.745235
C95	C	0.459133	-0.570625	0.245224
C96	C	0.959133	-0.070625	0.745224
C97	C	0.459103	-0.436741	0.187860
C98	C	0.959103	0.063259	0.687860
C99	C	0.412187	-0.436752	0.187869
C100	C	0.912187	0.063248	0.687869
C101	C	0.388743	-0.503701	0.216560
C102	C	0.888743	-0.003701	0.716560
O103	O	0.337952	-0.379893	0.163497
O104	O	0.837952	0.120107	0.663497
O105	O	0.337966	-0.627557	0.269646
O106	O	0.837966	-0.127557	0.769646
C107	C	0.126023	-0.570667	0.245277
C108	C	0.626023	-0.070667	0.745277
C109	C	0.102553	-0.503729	0.216600
C110	C	0.602553	-0.003729	0.716600
C111	C	0.125999	-0.436787	0.187916
C112	C	0.625999	0.063213	0.687916
C113	C	0.055636	-0.503738	0.216604
C114	C	0.555636	-0.003738	0.716604
C115	C	0.032190	-0.570680	0.245288
C116	C	0.532190	-0.070680	0.745288
C117	C	0.055662	-0.637613	0.273968
C118	C	0.555662	-0.137613	0.773968
C119	C	0.102577	-0.637609	0.273961
C120	C	0.602577	-0.137609	0.773961
C121	C	0.102527	-0.369855	0.159236
C122	C	0.602527	0.130145	0.659236
C123	C	0.055612	-0.369865	0.159245
C124	C	0.555612	0.130135	0.659245
C125	C	0.032166	-0.436807	0.187929
C126	C	0.532166	0.063193	0.687929
C127	C	0.766414	-0.503767	0.216609
C128	C	1.266414	-0.003767	0.716609
C129	C	0.816348	-0.503786	0.216623
C130	C	1.316348	-0.003786	0.716623
C131	C	0.649251	-0.503741	0.333754
C132	C	1.149251	-0.003741	0.833754
C133	C	0.649258	-0.503749	0.383689
C134	C	1.149258	-0.003749	0.883689
C135	C	0.649276	-0.231151	0.216594
C136	C	1.149276	0.268849	0.716594
C137	C	0.649293	-0.114998	0.216602
C138	C	1.149293	0.385002	0.716602
C139	C	0.649246	-0.503626	0.099854
C140	C	1.149246	-0.003626	0.599854
C141	C	0.649326	-0.503324	0.049919
C142	C	1.149326	-0.003324	0.549919
C143	C	0.620545	-0.570336	0.740264
C144	C	1.120545	-0.070336	1.240264
C145	C	0.620529	-0.570457	0.552591
C146	C	1.120529	-0.070457	1.052591
O147	O	0.596073	-0.627268	0.528316
O148	O	1.096073	-0.127268	1.028316
N149	N	0.649268	-0.503653	0.529134
N150	N	1.149268	-0.003653	1.029134
C151	C	0.678010	-0.436809	0.552599
C152	C	1.178010	0.063191	1.052599
O153	O	0.702450	-0.379983	0.528341
O154	O	1.202450	0.120017	1.028341
C155	C	0.678024	-0.436684	0.740271
C156	C	1.178024	0.063316	1.240271
C157	C	0.649287	-0.503500	0.763725
C158	C	1.149287	-0.003500	1.263725
C159	C	0.591810	-0.637146	0.763718
C160	C	1.091810	-0.137146	1.263718
C161	C	0.591816	-0.637119	0.810634
C162	C	1.091816	-0.137119	1.310634
C163	C	0.620557	-0.570283	0.834095
C164	C	1.120557	-0.070283	1.334095
C165	C	0.649293	-0.503473	0.810641
C166	C	1.149293	-0.003473	1.310641
C167	C	0.706763	-0.369836	0.763735
C168	C	1.206763	0.130164	1.263735
C169	C	0.706763	-0.369809	0.810656
C170	C	1.206763	0.130191	1.310656
C171	C	0.678026	-0.436625	0.834110
C172	C	1.178026	0.063375	1.334110
C173	C	0.678040	-0.436610	0.881017
C174	C	1.178040	0.063390	1.381017
N175	N	0.649301	-0.503414	0.904474
N176	N	1.149301	-0.003414	1.404474
C177	C	0.620560	-0.570250	0.881013
C178	C	1.120560	-0.070250	1.381013
C179	C	0.678002	-0.436881	0.454068
C180	C	1.178002	0.063119	0.954068
C181	C	0.677999	-0.436913	0.407150
C182	C	1.177999	0.063087	0.907150
C183	C	0.620517	-0.570560	0.407145
C184	C	1.120517	-0.070560	0.907145
C185	C	0.620523	-0.570532	0.454064
C186	C	1.120523	-0.070532	0.954064
C187	C	0.649263	-0.503685	0.477525
C188	C	1.149263	-0.003685	0.977525
C189	C	0.620575	-0.570190	0.979539
C190	C	1.120575	-0.070190	1.479539
C191	C	0.620585	-0.570160	1.026458
C192	C	1.120585	-0.070160	1.526458
C193	C	0.678065	-0.436510	1.026459
C194	C	1.178065	0.063490	1.526459
C195	C	0.678057	-0.436543	0.979543
C196	C	1.178057	0.063457	1.479543
C197	C	0.649308	-0.503386	0.956084
C198	C	1.149308	-0.003386	1.456084
O199	O	0.702480	-0.379820	0.905321
O200	O	1.202480	0.120180	1.405321
O201	O	0.596117	-0.627051	0.905278
O202	O	1.096117	-0.127051	1.405278
C203	C	0.620539	-0.570363	0.693348
C204	C	1.120539	-0.070363	1.193348
C205	C	0.649274	-0.503553	0.669894
C206	C	1.149274	-0.003553	1.169894
C207	C	0.678016	-0.436717	0.693355
C208	C	1.178016	0.063283	1.193355
C209	C	0.649272	-0.503586	0.622976
C210	C	1.149272	-0.003586	1.122976
C211	C	0.620531	-0.570422	0.599515
C212	C	1.120531	-0.070422	1.099515
C213	C	0.591792	-0.637226	0.622972
C214	C	1.091792	-0.137226	1.122972
C215	C	0.591798	-0.637199	0.669887
C216	C	1.091798	-0.137199	1.169887
C217	C	0.706754	-0.369913	0.669899
C218	C	1.206754	0.130087	1.169899
C219	C	0.706746	-0.369946	0.622983
C220	C	1.206746	0.130054	1.122983
C221	C	0.678005	-0.436783	0.599522
C222	C	1.178005	0.063217	1.099522
H223	H	0.699953	-0.898577	0.165959
H224	H	1.199953	-0.398577	0.665959
H225	H	0.568397	-0.691607	0.688979
H226	H	1.068397	-0.191607	1.188979
Cl227	Cl	0.742900	-0.285905	0.699386
Cl228	Cl	1.242900	0.214095	1.199386
Cl229	Cl	0.272755	-0.285643	0.123163
Cl230	Cl	0.772755	0.214357	0.623163
H231	H	0.597162	-0.624610	0.960444
H232	H	1.097162	-0.124610	1.460444
H233	H	-0.179277	-0.625231	0.268661
H234	H	0.320723	-0.125231	0.768661
Cl235	Cl	-0.083821	-0.352657	0.151872
Cl236	Cl	0.416179	0.147343	0.651872
H237	H	0.625888	-1.070497	0.239946
H238	H	1.125888	-0.570497	0.739946
Cl239	Cl	0.166942	-0.721768	0.310011
Cl240	Cl	0.666942	-0.221768	0.810011
Cl241	Cl	0.555662	-0.721250	0.593468
Cl242	Cl	1.055662	-0.221250	1.093468
H243	H	0.700003	-1.107700	0.165977
H244	H	1.200003	-0.607700	0.665977
Cl245	Cl	0.742892	-0.285757	0.840146
Cl246	Cl	1.242892	0.214243	1.340146
H247	H	0.701460	-0.382144	0.960446
H248	H	1.201460	0.117856	1.460446
H249	H	0.393077	-0.382242	0.164516
H250	H	0.893077	0.117758	0.664516
Cl251	Cl	0.742878	-0.285944	0.593504
Cl252	Cl	1.242878	0.214056	1.093504
H253	H	0.701404	-0.382516	0.388058
H254	H	1.201404	0.117484	0.888058
Cl255	Cl	0.488634	-0.654792	0.281280
Cl256	Cl	0.988634	-0.154792	0.781280
Cl257	Cl	0.613141	-0.960183	0.252641
Cl258	Cl	1.113141	-0.460183	0.752641
H259	H	0.701467	-0.382097	1.045569
H260	H	1.201467	0.117903	1.545569
H261	H	0.036564	-0.692122	0.297322
H262	H	0.536564	-0.192122	0.797322
Cl263	Cl	0.272821	-0.721753	0.309998
Cl264	Cl	0.772821	-0.221753	0.809998
Cl265	Cl	0.382749	-0.654799	0.281304
Cl266	Cl	0.882749	-0.154799	0.781304
Cl267	Cl	-0.083761	-0.654878	0.281354
Cl268	Cl	0.416239	-0.154878	0.781354
Cl269	Cl	0.555687	-0.721119	0.840112
Cl270	Cl	1.055687	-0.221119	1.340112
H271	H	-0.179311	-0.382342	0.164581
H272	H	0.320689	0.117658	0.664581
Cl273	Cl	0.166870	-0.285651	0.123172
Cl274	Cl	0.666870	0.214349	0.623172
H275	H	0.478201	-0.382242	0.164505
H276	H	0.978201	0.117758	0.664505
Cl277	Cl	0.132075	-0.721770	0.310017
Cl278	Cl	0.632075	-0.221770	0.810017
H279	H	0.036507	-0.315352	0.135887
H280	H	0.536507	0.184648	0.635887
Cl281	Cl	0.131995	-0.285688	0.123174
Cl282	Cl	0.631995	0.214312	0.623174
Cl283	Cl	0.584457	-0.654166	1.055940
Cl284	Cl	1.084457	-0.154166	1.555940
H285	H	0.568403	-0.691571	0.744621
H286	H	1.068403	-0.191571	1.244621
Cl287	Cl	0.584393	-0.654529	0.483545
Cl288	Cl	1.084393	-0.154529	0.983545
Cl289	Cl	0.584386	-0.654582	0.377643
Cl290	Cl	1.084386	-0.154582	0.877643
H291	H	0.701408	-0.382444	0.473165
H292	H	1.201408	0.117556	0.973165
H293	H	0.730165	-0.315428	0.744646
H294	H	1.230165	0.184572	1.244646
