data_functionalizedCrystal
_audit_creation_method	'MofGen! by Chris Wilmer'
_symmetry_space_group_name_H-M	'P1'
_symmetry_Int_Tables_number	1
_symmetry_cell_setting	triclinic
loop_
_symmetry_equiv_pos_as_xyz
  x,y,z
_cell_length_a	18.215405
_cell_length_b	18.215407
_cell_length_c	11.169409
_cell_angle_alpha	90.022045
_cell_angle_beta	89.960202
_cell_angle_gamma	89.983379
loop_
_atom_site_label
_atom_site_type_symbol
_atom_site_fract_x
_atom_site_fract_y
_atom_site_fract_z
Zn1	Zn	-0.293087	-1.125097	-0.678551
Zn2	Zn	0.206913	-0.625097	-0.178551
Zn3	Zn	-0.416178	-1.124998	-0.477842
Zn4	Zn	0.083822	-0.624998	0.022158
Zn5	Zn	-0.293112	-1.002022	-0.477878
Zn6	Zn	0.206888	-0.502022	0.022122
Zn7	Zn	-0.416099	-1.001996	-0.678479
Zn8	Zn	0.083901	-0.501996	-0.178479
O9	O	-0.354619	-1.063528	-0.578188
O10	O	0.145381	-0.563528	-0.078188
O11	O	-0.309438	-1.228068	-0.651942
O12	O	0.190562	-0.728068	-0.151942
O13	O	-0.399897	-1.108655	-0.309897
O14	O	0.100103	-0.608655	0.190103
O15	O	-0.190125	-1.018401	-0.504543
O16	O	0.309875	-0.518401	-0.004543
O17	O	-0.399872	-1.227996	-0.504482
O18	O	0.100128	-0.727996	-0.004482
O19	O	-0.190106	-1.108824	-0.651977
O20	O	0.309894	-0.608824	-0.151977
O21	O	-0.309481	-1.018305	-0.309923
O22	O	0.190519	-0.518305	0.190077
O23	O	-0.309404	-0.899035	-0.504473
O24	O	0.190596	-0.399035	-0.004473
O25	O	-0.399737	-1.018356	-0.846439
O26	O	0.100263	-0.518356	-0.346439
O27	O	-0.399761	-0.899015	-0.651854
O28	O	0.100239	-0.399015	-0.151854
O29	O	-0.309361	-1.108798	-0.846492
O30	O	0.190639	-0.608798	-0.346492
O31	O	-0.519152	-1.108629	-0.504412
O32	O	-0.019152	-0.608629	-0.004412
O33	O	-0.519093	-1.018260	-0.651819
O34	O	-0.019093	-0.518260	-0.151819
C35	C	-0.354577	-0.872322	-0.578160
C36	C	0.145423	-0.372322	-0.078160
C37	C	-0.354577	-0.790523	-0.578177
C38	C	0.145423	-0.290523	-0.078177
C39	C	-0.307594	-0.525498	-0.655081
C40	C	0.192406	-0.025498	-0.155081
C41	C	-0.307586	-0.602357	-0.655079
C42	C	0.192414	-0.102357	-0.155079
C43	C	-0.401619	-0.602300	-0.501299
C44	C	0.098381	-0.102300	-0.001299
C45	C	-0.401630	-0.525443	-0.501308
C46	C	0.098370	-0.025443	-0.001308
C47	C	-0.354614	-0.487044	-0.578198
C48	C	0.145386	0.012956	-0.078198
C49	C	-0.354594	-0.640760	-0.578186
C50	C	0.145406	-0.140760	-0.078186
C51	C	-0.354586	-0.724093	-0.578183
C52	C	0.145414	-0.224093	-0.078183
C53	C	-0.354623	-0.403705	-0.578202
C54	C	0.145377	0.096295	-0.078202
C55	C	-0.545825	-1.063451	-0.578130
C56	C	-0.045825	-0.563451	-0.078130
C57	C	-0.627624	-1.063485	-0.578145
C58	C	-0.127624	-0.563485	-0.078145
C59	C	-0.815824	-1.110651	-0.501532
C60	C	-0.315824	-0.610651	-0.001532
C61	C	-0.892683	-1.110683	-0.501561
C62	C	-0.392683	-0.610683	-0.001561
C63	C	-0.892662	-1.016500	-0.654930
C64	C	-0.392662	-0.516500	-0.154930
C65	C	-0.815804	-1.016472	-0.654906
C66	C	-0.315804	-0.516472	-0.154906
C67	C	-0.777388	-1.063546	-0.578200
C68	C	-0.277388	-0.563546	-0.078200
C69	C	-0.931104	-1.063607	-0.578253
C70	C	-0.431104	-0.563607	-0.078253
C71	C	-1.014437	-1.063643	-0.578285
C72	C	-0.514437	-0.563643	-0.078285
C73	C	-0.694049	-1.063512	-0.578169
C74	C	-0.194049	-0.563512	-0.078169
C75	C	-0.162666	-1.063626	-0.578272
C76	C	0.337334	-0.563626	-0.078272
C77	C	-0.080867	-1.063668	-0.578308
C78	C	0.419133	-0.563668	-0.078308
C79	C	-0.354537	-1.063585	-0.891230
C80	C	0.145463	-0.563585	-0.391230
C81	C	-0.354502	-1.063609	-1.024630
C82	C	0.145498	-0.563609	-0.524630
C83	C	-0.354649	-0.255481	-0.578211
C84	C	0.145351	0.244519	-0.078211
C85	C	-0.354631	-0.337280	-0.578207
C86	C	0.145369	0.162720	-0.078207
C87	C	-0.354647	-1.063514	-0.266363
C88	C	0.145353	-0.563514	0.233637
C89	C	-0.354475	-1.063633	-0.132964
C90	C	0.145525	-0.563633	0.367036
H91	H	-0.439897	-0.633574	-0.438697
H92	H	0.060103	-0.133574	0.061303
H93	H	-0.269310	-0.494236	-0.717689
H94	H	0.230690	0.005764	-0.217689
Br95	Br	-0.763689	-1.174537	-0.397432
Br96	Br	-0.263689	-0.674537	0.102568
Br97	Br	-0.465449	-0.473250	-0.396961
Br98	Br	0.034551	0.026750	0.103039
H99	H	-0.784507	-0.978113	-0.717344
H100	H	-0.284507	-0.478113	-0.217344
H101	H	-0.923950	-0.978173	-0.717379
H102	H	-0.423950	-0.478173	-0.217379
Br103	Br	-0.243775	-0.654542	-0.759433
Br104	Br	0.256225	-0.154542	-0.259433
Br105	Br	-0.944844	-1.174618	-0.397513
Br106	Br	-0.444844	-0.674618	0.102487
