data_functionalizedCrystal
_audit_creation_method	'MofGen! by Chris Wilmer'
_symmetry_space_group_name_H-M	'P1'
_symmetry_Int_Tables_number	1
_symmetry_cell_setting	triclinic
loop_
_symmetry_equiv_pos_as_xyz
  x,y,z
_cell_length_a	10.654550
_cell_length_b	15.995350
_cell_length_c	9.730223
_cell_angle_alpha	89.997832
_cell_angle_beta	89.999957
_cell_angle_gamma	83.988653
loop_
_atom_site_label
_atom_site_type_symbol
_atom_site_fract_x
_atom_site_fract_y
_atom_site_fract_z
O1	O	1.666303	0.117602	-0.114180
O2	O	1.300678	0.128807	-0.114204
O3	O	1.493485	0.001375	-0.114190
O4	O	1.473496	0.245034	-0.114194
O5	O	1.493473	0.001371	0.114390
O6	O	1.300666	0.128803	0.114375
O7	O	1.666290	0.117599	0.114400
Zn8	Zn	1.483476	0.123201	0.150680
Zn9	Zn	1.483492	0.123205	-0.150484
O10	O	1.473483	0.245031	0.114386
C11	C	1.253884	0.127982	0.000082
C12	C	1.114473	0.125521	0.000073
C13	C	1.034008	0.200551	0.000075
C14	C	0.903017	0.198233	0.000099
C15	C	0.932971	0.045849	0.000112
C16	C	1.063959	0.048168	0.000098
C17	C	1.492652	-0.029826	0.000097
C18	C	1.490175	-0.122791	0.000089
C19	C	1.481277	-0.460590	0.000093
C20	C	1.343964	-0.413954	-0.000429
C21	C	1.346442	-0.317249	0.000087
C22	C	1.485691	-0.293004	0.000090
C23	C	1.553412	-0.333690	0.130623
C24	C	1.549962	-0.430346	0.130732
C25	C	1.552813	-0.430684	-0.129206
C26	C	1.552780	-0.333739	-0.130931
C27	C	1.488192	-0.198292	0.000093
C28	C	1.478780	-0.555303	0.000099
C29	C	1.713084	0.118423	0.000110
C30	C	1.852495	0.120885	0.000111
C31	C	1.474316	0.276232	0.000095
C32	C	1.476793	0.369197	0.000094
N33	N	1.483474	0.123197	0.356216
N34	N	1.483504	0.123202	-0.356021
C35	C	1.568878	0.066794	0.428148
C36	C	1.568890	0.066794	0.572031
C37	C	1.398091	0.179608	0.572037
C38	C	1.398074	0.179603	0.428157
H39	H	1.075132	0.263537	0.000065
H40	H	1.328522	0.225533	0.369586
H41	H	1.638414	0.020864	0.369578
H42	H	1.638432	0.020865	0.630595
C43	C	1.492175	-0.458775	-0.262868
C44	C	1.485723	-0.552939	-0.291268
C45	C	1.425070	-0.581030	-0.424921
C46	C	1.370870	-0.514957	-0.530175
C47	C	1.377321	-0.420787	-0.501778
C48	C	1.437973	-0.392696	-0.368125
H49	H	1.525846	-0.601855	-0.213350
H50	H	1.420296	-0.650741	-0.445942
H51	H	1.325972	-0.535751	-0.629113
H52	H	1.337197	-0.371871	-0.579696
H53	H	1.442748	-0.322985	-0.347104
H54	H	1.503268	-0.306776	-0.227495
C55	C	0.814506	0.280768	0.000099
C56	C	0.820146	0.343940	-0.118608
C57	C	0.731636	0.426479	-0.118606
C58	C	0.637484	0.445846	0.000103
C59	C	0.631839	0.382673	0.118819
C60	C	0.720350	0.300134	0.118817
H61	H	0.889847	0.329604	-0.206492
H62	H	0.735815	0.473244	-0.206488
H63	H	0.571963	0.506947	0.000105
H64	H	0.562139	0.397009	0.206703
H65	H	0.716171	0.253369	0.206699
C66	C	0.877398	-0.039235	0.000125
C67	C	0.791470	-0.061783	0.118825
C68	C	0.735899	-0.146869	0.118832
C69	C	0.766258	-0.209407	0.000139
C70	C	0.852191	-0.186861	-0.118570
C71	C	0.907761	-0.101775	-0.118578
H72	H	0.768993	-0.015488	0.206697
H73	H	0.672286	-0.163560	0.206710
H74	H	0.725121	-0.272393	0.000145
H75	H	0.874667	-0.233156	-0.206442
H76	H	0.971374	-0.085084	-0.206455
C77	C	1.152482	-0.034371	0.000093
C78	C	1.146838	-0.097547	0.118793
C79	C	1.235360	-0.180082	0.118794
C80	C	1.329525	-0.199440	0.000094
C81	C	1.335172	-0.136262	-0.118616
C82	C	1.246650	-0.053728	-0.118616
H83	H	1.077128	-0.083218	0.206670
H84	H	1.231179	-0.226850	0.206671
H85	H	1.395054	-0.260537	0.000094
H86	H	1.404882	-0.150591	-0.206492
H87	H	1.250831	-0.006960	-0.206493
C88	C	1.304163	0.241659	0.651173
C89	C	1.304247	0.241720	0.809435
C90	C	1.210319	0.303775	0.888566
C91	C	1.116307	0.365769	0.809434
C92	C	1.116219	0.365710	0.651162
C93	C	1.210147	0.303655	0.572032
H94	H	1.373844	0.195826	0.868022
H95	H	1.210385	0.303818	1.005729
H96	H	1.046776	0.411706	0.868011
H97	H	1.046622	0.411604	0.592576
H98	H	1.210081	0.303612	0.454868
H99	H	1.293208	-0.289135	-0.093484
C100	C	1.270139	-0.440847	0.125317
C101	C	1.318263	-0.425356	0.271401
C102	C	1.244444	-0.452253	0.397149
C103	C	1.122501	-0.494641	0.376813
C104	C	1.074372	-0.510134	0.230722
C105	C	1.148191	-0.483237	0.104975
H106	H	1.408537	-0.393976	0.286460
H107	H	1.280073	-0.440783	0.505294
H108	H	1.067856	-0.514551	0.469899
H109	H	0.984097	-0.541514	0.215663
H110	H	1.112561	-0.494707	-0.003171
H111	H	1.289086	-0.432803	-0.094036
H112	H	1.500570	-0.448936	0.228304
C113	C	1.691604	-0.313783	0.137203
C114	C	1.737922	-0.265431	0.260945
C115	C	1.876108	-0.245511	0.267522
C116	C	1.967978	-0.273943	0.150359
C117	C	1.921662	-0.322297	0.026608
C118	C	1.783475	-0.342217	0.020030
H119	H	1.669913	-0.244382	0.347684
H120	H	1.910394	-0.209716	0.359132
H121	H	2.070272	-0.259197	0.155228
H122	H	1.989671	-0.343346	-0.060132
H123	H	1.749190	-0.378012	-0.071579
H124	H	1.292840	-0.289697	0.093810
H125	H	1.650775	-0.462009	0.136657
H126	H	1.506366	-0.305584	0.227758
H127	H	1.654327	-0.317787	-0.138810
H128	H	1.654054	-0.461857	-0.130081
