data_functionalizedCrystal
_audit_creation_method	'MofGen! by Chris Wilmer'
_symmetry_space_group_name_H-M	'P1'
_symmetry_Int_Tables_number	1
_symmetry_cell_setting	triclinic
loop_
_symmetry_equiv_pos_as_xyz
  x,y,z
_cell_length_a	9.065218
_cell_length_b	14.971486
_cell_length_c	13.448316
_cell_angle_alpha	89.999879
_cell_angle_beta	90.001794
_cell_angle_gamma	95.684993
loop_
_atom_site_label
_atom_site_type_symbol
_atom_site_fract_x
_atom_site_fract_y
_atom_site_fract_z
O1	O	0.192256	-1.188378	0.082573
O2	O	0.215279	-0.928150	0.082600
O3	O	-0.010984	-1.063643	0.082584
O4	O	0.418519	-1.052885	0.082589
O5	O	-0.010986	-1.063629	-0.082800
O6	O	0.215277	-0.928136	-0.082784
O7	O	0.192254	-1.188365	-0.082811
Cu8	Cu	0.203765	-1.058249	-0.097898
Cu9	Cu	0.203767	-1.058265	0.097687
O10	O	0.418517	-1.052872	-0.082795
C11	C	-0.065951	-1.062602	-0.000106
C12	C	-0.229731	-1.059511	-0.000101
C13	C	0.214249	-0.894811	-0.000089
C14	C	0.211163	-0.795491	-0.000078
C15	C	0.193284	-1.221704	-0.000120
C16	C	0.196370	-1.321024	-0.000124
C17	C	0.473483	-1.053912	-0.000102
C18	C	0.637264	-1.057004	-0.000101
N19	N	0.203763	-1.058244	-0.235462
C20	C	0.344086	-0.739256	-0.000078
C21	C	0.341178	-0.645935	-0.000093
C22	C	0.205345	-0.608850	-0.000101
C23	C	0.072412	-0.665092	-0.000104
C24	C	0.075321	-0.758411	-0.000096
C25	C	0.066357	-0.470584	-0.000118
C26	C	0.063446	-0.377259	-0.000124
C27	C	0.332214	-0.358108	-0.000115
C28	C	0.335123	-0.451427	-0.000107
C29	C	0.202189	-0.507663	-0.000108
C30	C	0.293393	-1.113215	-0.287503
C31	C	0.293386	-1.113226	-0.391606
C32	C	0.203757	-1.058261	-0.443667
C33	C	0.114116	-1.003289	-0.391619
C34	C	0.114116	-1.003283	-0.287518
C35	C	0.114126	-1.003303	-0.608599
C36	C	0.114128	-1.003307	-0.712708
C37	C	0.293397	-1.113246	-0.712688
C38	C	0.293396	-1.113240	-0.608586
C39	C	0.203758	-1.058266	-0.556546
N40	N	0.203758	-1.058277	0.235252
H41	H	0.454697	-0.769442	-0.000071
Br42	Br	-0.114056	-0.546904	-0.000125
H43	H	0.440454	-0.312316	-0.000118
Br44	Br	0.415045	-1.187810	-0.216860
H45	H	-0.038186	-0.634890	-0.000125
Br46	Br	-0.120900	-0.326929	-0.000168
H47	H	0.041131	-0.958538	-0.566231
H48	H	0.041131	-0.958540	-0.434015
H49	H	-0.032919	-0.804197	-0.000096
Br50	Br	0.415032	-1.187832	-0.462230
Br51	Br	0.415047	-1.187855	-0.783313
Br52	Br	-0.007551	-0.928690	-0.216889
Br53	Br	-0.007519	-0.928715	-0.783361
H54	H	0.366387	-1.157993	-0.566202
H55	H	0.449418	-0.600152	-0.000092
H56	H	0.445730	-0.481618	-0.000091
