data_functionalizedCrystal
_audit_creation_method	'MofGen! by Chris Wilmer'
_symmetry_space_group_name_H-M	'P1'
_symmetry_Int_Tables_number	1
_symmetry_cell_setting	triclinic
loop_
_symmetry_equiv_pos_as_xyz
  x,y,z
_cell_length_a	17.699083
_cell_length_b	10.654551
_cell_length_c	16.176319
_cell_angle_alpha	89.994994
_cell_angle_beta	89.998611
_cell_angle_gamma	83.884222
loop_
_atom_site_label
_atom_site_type_symbol
_atom_site_fract_x
_atom_site_fract_y
_atom_site_fract_z
O1	O	1.005089	0.158809	-0.068627
O2	O	0.784842	0.179470	-0.068654
O3	O	0.900029	-0.013688	-0.068638
O4	O	0.889902	0.351967	-0.068643
O5	O	0.900013	-0.013701	0.068855
O6	O	0.784826	0.179458	0.068839
O7	O	1.005073	0.158797	0.068866
Cu8	Cu	0.894948	0.169126	0.081407
Cu9	Cu	0.894967	0.169141	-0.081195
O10	O	0.889886	0.351955	0.068850
C11	C	0.756632	0.178724	0.000089
C12	C	0.672600	0.176503	0.000079
C13	C	0.624700	0.289883	0.000078
C14	C	0.545743	0.287788	0.000088
C15	C	0.514688	0.172313	0.000094
C16	C	0.562594	0.058924	0.000098
C17	C	0.641549	0.061020	0.000093
C18	C	0.244177	0.050470	0.000119
C19	C	0.165216	0.048383	0.000121
C20	C	0.148372	0.277238	0.000114
C21	C	0.227327	0.279334	0.000109
C22	C	0.275226	0.165946	0.000117
C23	C	0.360839	0.168218	0.000107
C24	C	0.429076	0.170039	0.000099
C25	C	0.899277	-0.060479	0.000107
C26	C	0.897052	-0.199884	0.000103
C27	C	0.896016	-0.265362	-0.074846
C28	C	0.893919	-0.396346	-0.074847
C29	C	0.893896	-0.396361	0.075056
C30	C	0.895988	-0.265379	0.075056
C31	C	0.846809	-0.565586	-0.164897
C32	C	0.845787	-0.631072	-0.239850
C33	C	0.890746	-0.598312	-0.306017
C34	C	0.936747	-0.500073	-0.297235
C35	C	0.937776	-0.434595	-0.222281
C36	C	0.892799	-0.467348	-0.156117
C37	C	0.943104	-0.096138	0.165102
C38	C	0.944139	-0.030659	0.240056
C39	C	0.899184	-0.063417	0.306230
C40	C	0.853195	-0.161663	0.297456
C41	C	0.852160	-0.227143	0.222502
C42	C	0.897114	-0.194375	0.156327
C43	C	1.033283	0.159543	0.000121
C44	C	1.117315	0.161764	0.000126
C45	C	0.890638	0.398746	0.000103
C46	C	0.892863	0.538150	0.000102
N47	N	0.894940	0.169115	0.195772
N48	N	0.894981	0.169142	-0.195560
C49	C	0.945960	0.083619	0.239043
C50	C	0.945964	0.083618	0.325590
C51	C	0.894951	0.169119	0.368864
C52	C	0.843925	0.254619	0.325587
C53	C	0.843918	0.254614	0.239042
C54	C	0.843951	0.254643	0.674616
C55	C	0.843963	0.254644	0.761167
C56	C	0.945997	0.083647	0.761164
C57	C	0.945990	0.083642	0.674618
C58	C	0.894962	0.169136	0.631349
C59	C	0.894958	0.169135	0.537505
C60	C	0.894958	0.169128	0.462707
H61	H	0.109362	0.369564	0.000112
Cl62	Cl	0.126177	-0.096798	0.000129
H63	H	0.802419	0.324272	0.796400
H64	H	0.893032	-0.449704	0.136080
H65	H	0.814708	-0.307137	0.215360
Cl66	Cl	0.779806	0.362123	0.620225
Cl67	Cl	0.701767	-0.081521	0.000099
Cl68	Cl	0.304383	-0.092076	0.000128
Cl69	Cl	0.779772	0.362095	0.184644
Cl70	Cl	0.790271	-0.606759	-0.081722
H71	H	0.537303	-0.035098	0.000115
Cl72	Cl	0.897349	-0.183029	-0.169072
H73	H	0.816572	-0.188312	0.351333
Cl74	Cl	0.993279	-0.458910	-0.380418
H75	H	0.802385	0.324232	0.360826
Cl76	Cl	0.995599	-0.311102	-0.211236
H77	H	0.900037	-0.010100	0.367264
H78	H	0.649979	0.383916	0.000072
Cl79	Cl	0.889469	-0.680655	-0.400237
H80	H	0.987533	0.014023	0.639387
H81	H	0.506746	0.380114	0.000086
H82	H	0.979706	-0.069446	0.111216
Cl83	Cl	0.787957	-0.754565	-0.250890
H84	H	0.987505	0.014000	0.203815
Cl85	Cl	1.010105	-0.023865	0.379990
Cl86	Cl	0.266363	0.424509	0.000097
Cl87	Cl	1.001964	0.092840	0.251090
H88	H	0.987545	0.014029	0.796403
