data_functionalizedCrystal
_audit_creation_method	'MofGen! by Chris Wilmer'
_symmetry_space_group_name_H-M	'P1'
_symmetry_Int_Tables_number	1
_symmetry_cell_setting	triclinic
loop_
_symmetry_equiv_pos_as_xyz
  x,y,z
_cell_length_a	10.654554
_cell_length_b	10.654555
_cell_length_c	17.766277
_cell_angle_alpha	89.998012
_cell_angle_beta	90.008339
_cell_angle_gamma	95.510652
loop_
_atom_site_label
_atom_site_type_symbol
_atom_site_fract_x
_atom_site_fract_y
_atom_site_fract_z
O1	O	-1.667844	0.176459	-0.062636
O2	O	-1.167844	0.676459	0.437364
O3	O	-1.302368	0.193252	-0.062627
O4	O	-0.802368	0.693252	0.437373
O5	O	-1.493501	0.002117	-0.062631
O6	O	-0.993501	0.502117	0.437369
O7	O	-1.476710	0.367594	-0.062631
O8	O	-0.976710	0.867594	0.437369
O9	O	-1.493480	0.002112	0.062557
O10	O	-0.993480	0.502112	0.562557
O11	O	-1.302346	0.193247	0.062562
O12	O	-0.802346	0.693247	0.562562
O13	O	-1.667823	0.176454	0.062553
O14	O	-1.167823	0.676454	0.562553
Cu15	Cu	-1.485083	0.184850	0.073988
Cu16	Cu	-0.985083	0.684850	0.573988
Cu17	Cu	-1.485108	0.184856	-0.074062
Cu18	Cu	-0.985108	0.684856	0.425938
O19	O	-1.476689	0.367589	0.062557
O20	O	-0.976689	0.867589	0.562557
C21	C	-1.255559	0.192014	-0.000031
C22	C	-0.755559	0.692014	0.499969
C23	C	-1.116116	0.188317	-0.000028
C24	C	-0.616116	0.688317	0.499972
C25	C	-1.116068	0.188326	0.136456
C26	C	-0.616068	0.688326	0.636456
C27	C	-1.050535	0.186597	0.204697
C28	C	-0.550535	0.686597	0.704697
C29	C	-0.919517	0.183121	0.204696
C30	C	-0.419517	0.683121	0.704696
C31	C	-0.854030	0.181370	0.136447
C32	C	-0.354030	0.681370	0.636447
C33	C	-0.919563	0.183099	0.068206
C34	C	-0.419563	0.683099	0.568206
C35	C	-1.050584	0.186579	0.068214
C36	C	-0.550584	0.686579	0.568214
C37	C	-0.919612	0.183081	-0.068277
C38	C	-0.419612	0.683081	0.431723
C39	C	-1.050629	0.186566	-0.068277
C40	C	-0.550629	0.686566	0.431723
C41	C	-0.854125	0.181330	-0.136526
C42	C	-0.354125	0.681330	0.363474
C43	C	-0.919658	0.183068	-0.204769
C44	C	-0.419658	0.683068	0.295231
C45	C	-1.050684	0.186545	-0.204765
C46	C	-0.550684	0.686545	0.295235
C47	C	-1.116163	0.188294	-0.136518
C48	C	-0.616163	0.688294	0.363482
C49	C	-1.492255	-0.044683	-0.000039
C50	C	-0.992255	0.455317	0.499961
C51	C	-1.488557	-0.184126	-0.000043
C52	C	-0.988557	0.315874	0.499957
C53	C	-1.481595	-0.446162	0.136447
C54	C	-0.981595	0.053838	0.636447
C55	C	-1.483314	-0.380650	0.204688
C56	C	-0.983314	0.119350	0.704688
C57	C	-1.486783	-0.249631	0.204688
C58	C	-0.986783	0.250369	0.704688
C59	C	-1.488528	-0.184121	0.136440
C60	C	-0.988528	0.315879	0.636440
C61	C	-1.486808	-0.249633	0.068198
C62	C	-0.986808	0.250367	0.568198
C63	C	-1.483344	-0.380655	0.068206
C64	C	-0.983344	0.119345	0.568206
C65	C	-1.486838	-0.249638	-0.068285
C66	C	-0.986838	0.250362	0.431715
C67	C	-1.483378	-0.380658	-0.068286
C68	C	-0.983378	0.119342	0.431714
C69	C	-1.488583	-0.184127	-0.136533
C70	C	-0.988583	0.315873	0.363467
C71	C	-1.486872	-0.249640	-0.204776
C72	C	-0.986872	0.250360	0.295224
C73	C	-1.483405	-0.380667	-0.204774
C74	C	-0.983405	0.119333	0.295226
C75	C	-1.481659	-0.446170	-0.136528
C76	C	-0.981659	0.053830	0.363472
C77	C	-0.714632	0.177683	-0.000040
C78	C	-0.214632	0.677683	0.499960
C79	C	-0.854079	0.181352	-0.000036
C80	C	-0.354079	0.681352	0.499964
C81	C	-1.477936	0.414389	-0.000037
C82	C	-0.977936	0.914389	0.499963
C83	C	-1.481633	0.553832	-0.000037
C84	C	-0.981633	1.053832	0.499963
N85	N	-1.485074	0.184845	0.178118
N86	N	-0.985074	0.684845	0.678118
N87	N	-1.485126	0.184851	-0.178192
N88	N	-0.985126	0.684851	0.321808
C89	C	-1.569763	0.100240	0.782405
C90	C	-1.069763	0.600240	1.282405
C91	C	-1.569764	0.100243	0.703603
C92	C	-1.069764	0.600243	1.203603
C93	C	-1.485108	0.184845	0.664207
C94	C	-0.985108	0.684845	1.164207
C95	C	-1.400466	0.269471	0.703619
C96	C	-0.900466	0.769471	1.203619
C97	C	-1.400475	0.269475	0.782420
C98	C	-0.900475	0.769475	1.282420
C99	C	-1.370862	0.200247	0.539378
C100	C	-0.870862	0.700247	1.039378
C101	C	-1.370852	0.200235	0.460579
C102	C	-0.870852	0.700235	0.960579
C103	C	-1.485081	0.184842	0.421161
C104	C	-0.985081	0.684842	0.921161
C105	C	-1.599325	0.169434	0.460551
C106	C	-1.099325	0.669434	0.960551
C107	C	-1.599334	0.169437	0.539351
C108	C	-1.099334	0.669437	1.039351
C109	C	-1.485090	0.184851	0.578761
C110	C	-0.985090	0.684851	1.078761
C111	C	-1.569726	0.100230	0.296312
C112	C	-1.069726	0.600230	0.796312
C113	C	-1.569730	0.100241	0.217509
C114	C	-1.069730	0.600241	0.717509
C115	C	-1.400420	0.269464	0.217527
C116	C	-0.900420	0.769464	0.717527
C117	C	-1.400427	0.269458	0.296328
C118	C	-0.900427	0.769458	0.796328
C119	C	-1.485079	0.184835	0.335716
C120	C	-0.985079	0.684835	0.835716
H121	H	-1.103869	0.188019	0.260264
H122	H	-0.603869	0.688019	0.760264
H123	H	-1.491337	-0.077436	0.136446
H124	H	-0.991337	0.422564	0.636446
H125	H	-1.222748	0.191173	0.136464
H126	H	-0.722748	0.691173	0.636464
H127	H	-1.481890	-0.434003	0.260255
H128	H	-0.981890	0.065997	0.760255
H129	H	-1.331552	0.338376	0.814502
H130	H	-0.831552	0.838376	1.314502
F131	F	-1.492250	-0.044682	-0.136532
F132	F	-0.992250	0.455318	0.363468
F133	F	-1.488608	-0.179906	0.277318
F134	F	-0.988608	0.320094	0.777318
F135	F	-0.849959	0.181176	-0.277396
F136	F	-0.349959	0.681176	0.222604
F137	F	-1.249276	0.216637	0.581323
F138	F	-0.749276	0.716637	1.081323
H139	H	-1.638658	0.031345	0.185427
H140	H	-1.138658	0.531345	0.685427
H141	H	-0.866158	0.181723	0.260264
H142	H	-0.366158	0.681723	0.760264
H143	H	-1.478784	-0.552846	0.136454
H144	H	-0.978784	-0.052846	0.636454
H145	H	-0.747445	0.178491	-0.136522
H146	H	-0.247445	0.678491	0.363478
H147	H	-1.104034	0.187949	-0.260335
H148	H	-0.604034	0.687949	0.239665
F149	F	-1.488737	-0.179914	-0.277403
F150	F	-0.988737	0.320086	0.222597
H151	H	-0.747350	0.178524	0.136452
H152	H	-0.247350	0.678524	0.636452
F153	F	-1.255604	0.192002	-0.136508
F154	F	-0.755604	0.692002	0.363492
H155	H	-1.481994	-0.433998	-0.260344
H156	H	-0.981994	0.066002	0.239656
F157	F	-1.477977	-0.585613	-0.136519
F158	F	-0.977977	-0.085613	0.363481
F159	F	-1.659859	0.010182	0.824323
F160	F	-1.159859	0.510182	1.324323
F161	F	-1.310372	0.359515	0.661691
F162	F	-0.810372	0.859515	1.161691
H163	H	-1.692356	0.156895	0.571419
H164	H	-1.192356	0.656895	1.071419
F165	F	-1.659851	0.010183	0.661661
F166	F	-1.159851	0.510183	1.161661
F167	F	-1.720906	0.153043	0.418605
F168	F	-1.220906	0.653043	0.918605
H169	H	-1.277827	0.212767	0.428514
H170	H	-0.777827	0.712767	0.928514
H171	H	-1.638659	0.031328	0.328383
H172	H	-1.138659	0.531328	0.828383
H173	H	-1.331496	0.338353	0.185451
H174	H	-0.831496	0.838353	0.685451
F175	F	-1.310340	0.359507	0.338267
F176	F	-0.810340	0.859507	0.838267
