data_functionalizedCrystal
_audit_creation_method	'MofGen! by Chris Wilmer'
_symmetry_space_group_name_H-M	'P1'
_symmetry_Int_Tables_number	1
_symmetry_cell_setting	triclinic
loop_
_symmetry_equiv_pos_as_xyz
  x,y,z
_cell_length_a	16.109301
_cell_length_b	14.853567
_cell_length_c	15.186229
_cell_angle_alpha	90.000050
_cell_angle_beta	89.999362
_cell_angle_gamma	83.548205
loop_
_atom_site_label
_atom_site_type_symbol
_atom_site_fract_x
_atom_site_fract_y
_atom_site_fract_z
O1	O	1.103293	0.115881	-0.073165
O2	O	0.861252	0.130302	-0.073178
O3	O	0.988738	-0.008149	-0.073174
O4	O	0.975807	0.254332	-0.073170
O5	O	0.988729	-0.008151	0.073283
O6	O	0.861243	0.130300	0.073279
O7	O	1.103285	0.115879	0.073292
Zn8	Zn	0.982263	0.123089	0.096539
Zn9	Zn	0.982274	0.123092	-0.096425
O10	O	0.975799	0.254330	0.073288
C11	C	0.830272	0.129717	0.000048
C12	C	0.737974	0.127965	0.000043
C13	C	0.515811	0.206047	0.000055
C14	C	0.429089	0.204395	0.000060
C15	C	0.448732	0.040127	0.000054
C16	C	0.535453	0.041781	0.000054
C17	C	0.568990	0.124743	0.000050
C18	C	0.395546	0.121437	0.000055
C19	C	0.301518	0.119645	0.000061
C20	C	0.663025	0.126536	0.000046
C21	C	0.988148	-0.041738	0.000052
C22	C	0.986392	-0.141819	0.000044
C23	C	0.903241	-0.554215	0.000056
C24	C	1.054697	-0.575746	0.000064
C25	C	1.056348	-0.481715	0.000059
C26	C	0.981444	-0.423930	0.000054
C27	C	0.904889	-0.460175	0.000054
C28	C	1.132901	-0.445463	0.000068
C29	C	1.134555	-0.351426	0.000064
C30	C	1.059650	-0.293639	0.000053
C31	C	0.983093	-0.329890	0.000052
C32	C	0.908189	-0.272104	0.000046
C33	C	0.831630	-0.308353	0.000039
C34	C	0.829984	-0.402388	0.000042
C35	C	1.061296	-0.199604	0.000049
C36	C	0.909837	-0.178064	0.000044
C37	C	1.134265	0.116464	0.000063
C38	C	1.226563	0.118215	0.000063
C39	C	0.976389	0.287918	0.000060
C40	C	0.978145	0.387999	0.000062
N41	N	0.982261	0.123087	0.228231
N42	N	0.982282	0.123087	-0.228118
C43	C	1.038731	0.061801	0.453956
C44	C	1.038734	0.061799	0.546146
C45	C	0.925806	0.184375	0.546151
C46	C	0.925800	0.184372	0.453963
C47	C	0.982267	0.123086	0.407868
C48	C	0.982276	0.123087	0.592246
C49	C	0.982278	0.123085	0.692202
C50	C	0.982264	0.123087	0.307905
H51	H	0.421415	-0.027418	0.000062
C52	C	0.812672	0.203904	0.350297
C53	C	0.863732	0.251744	0.403295
H54	H	0.774352	0.245495	0.319021
H55	H	0.846297	0.167409	0.309658
H56	H	0.782726	0.166375	0.386275
H57	H	0.893683	0.289268	0.367317
H58	H	0.830103	0.288255	0.443939
H59	H	1.084709	0.011897	0.416427
H60	H	0.543114	0.273601	0.000058
C61	C	1.151857	0.042273	0.649814
C62	C	1.100801	-0.005565	0.596808
H63	H	1.190172	0.000680	0.681094
H64	H	1.181801	0.079802	0.613849
H65	H	1.118222	0.078768	0.690459
H66	H	1.134436	-0.042055	0.556160
H67	H	1.070855	-0.043110	0.632777
H68	H	0.385793	0.270600	0.000066
C69	C	0.703035	-0.261031	0.075318
C70	C	0.749297	-0.244828	0.000034
H71	H	0.652211	-0.221807	0.075316
H72	H	0.691092	-0.322213	0.075307
H73	H	0.734427	-0.250047	0.126388
H74	H	0.717908	-0.255819	-0.051036
H75	H	0.761238	-0.183633	0.000037
C76	C	0.781944	0.237264	0.574555
C77	C	0.863743	0.251739	0.596826
H78	H	0.743630	0.278849	0.605844
H79	H	0.773863	0.246038	0.513064
H80	H	0.772862	0.177088	0.589670
H81	H	0.872827	0.311913	0.581705
H82	H	0.871827	0.242972	0.658331
H83	H	0.848840	-0.131020	0.000036
C84	C	0.546167	-0.120764	0.000038
C85	C	0.593915	-0.047596	0.000046
H86	H	0.582261	-0.175937	0.000029
H87	H	0.511936	-0.117998	0.051107
H88	H	0.511933	-0.117985	-0.051039
H89	H	0.628145	-0.050371	0.051126
H90	H	0.628161	-0.050363	-0.051029
H91	H	0.840908	-0.583733	0.000047
C92	C	0.740274	-0.495662	-0.075237
C93	C	0.745839	-0.442239	0.000044
H94	H	0.688329	-0.520271	-0.075229
H95	H	0.744057	-0.459428	-0.126304
H96	H	0.784656	-0.543526	-0.075223
H97	H	0.701460	-0.394371	0.000027
H98	H	0.742047	-0.478474	0.051124
C99	C	1.119415	-0.729454	0.000076
C100	C	1.137028	-0.639262	0.000072
H101	H	1.170246	-0.768666	0.000075
H102	H	1.088033	-0.740430	0.051146
H103	H	1.088030	-0.740434	-0.051000
H104	H	1.168408	-0.628279	0.051152
H105	H	1.168424	-0.628281	-0.051003
C106	C	1.261492	-0.492773	-0.075208
C107	C	1.215231	-0.508981	0.000074
H108	H	1.312322	-0.531988	-0.075202
H109	H	1.230109	-0.503759	-0.126274
H110	H	1.273430	-0.431581	-0.075195
H111	H	1.203287	-0.570171	0.000057
H112	H	1.246620	-0.498002	0.051153
H113	H	1.196894	-0.321921	0.000069
H114	H	1.123629	-0.170094	0.000061
