data_functionalizedCrystal
_audit_creation_method	'MofGen! by Chris Wilmer'
_symmetry_space_group_name_H-M	'P1'
_symmetry_Int_Tables_number	1
_symmetry_cell_setting	triclinic
loop_
_symmetry_equiv_pos_as_xyz
  x,y,z
_cell_length_a	16.704494
_cell_length_b	16.704486
_cell_length_c	20.016444
_cell_angle_alpha	57.656344
_cell_angle_beta	90.001999
_cell_angle_gamma	54.477068
loop_
_atom_site_label
_atom_site_type_symbol
_atom_site_fract_x
_atom_site_fract_y
_atom_site_fract_z
Zr1	Zr	0.748861	0.864415	-0.107968
O2	O	0.598596	1.061704	-0.233039
O3	O	0.804618	0.677623	-0.061558
O4	O	0.790630	0.859784	-0.212575
O5	O	0.612592	0.879536	0.027924
O6	O	0.931084	0.844190	-0.205612
O7	O	0.612584	0.879543	-0.082022
O8	O	0.956106	0.518338	0.064531
O9	O	0.587570	1.205388	-0.242218
O10	O	0.921506	0.738928	-0.046317
O11	O	0.816693	0.750560	0.030538
O12	O	0.800224	0.965031	-0.147266
O13	O	0.695411	0.976663	-0.070411
Zr14	Zr	0.972881	0.839532	0.078489
Zr15	Zr	0.972868	0.839544	-0.096862
Zr16	Zr	0.748874	0.864403	0.067383
Zr17	Zr	0.731276	1.093574	-0.122608
Zr18	Zr	0.990466	0.610373	0.093128
O19	O	0.917124	1.026324	0.032078
O20	O	0.917106	1.026341	-0.217249
O21	O	0.598614	1.061687	0.016287
O22	O	1.123146	0.642243	0.203560
O23	O	1.123128	0.642261	-0.045767
O24	O	0.804636	0.677606	0.187769
O25	O	1.109150	0.824412	-0.057404
O26	O	0.931112	0.844163	0.183096
O27	O	0.790658	0.859757	0.176132
O28	O	1.109158	0.824404	0.052542
O29	O	0.765626	1.185619	-0.233391
O30	O	0.956116	0.518328	0.203912
O31	O	1.134172	0.498559	0.212739
O32	O	1.134162	0.498569	0.073358
O33	O	0.587580	1.205378	-0.102838
O34	O	0.765636	1.185609	-0.094010
O35	O	0.921518	0.738916	0.117786
O36	O	1.026331	0.727285	0.040931
O37	O	0.905049	0.953387	-0.060018
O38	O	0.800236	0.965019	0.016837
C39	C	0.882868	0.565330	0.003573
C40	C	0.890333	0.468046	0.009788
C41	C	0.737440	0.460764	-0.117487
C42	C	0.744450	0.369363	-0.111653
C43	C	0.911366	0.193840	0.027288
C44	C	0.904356	0.285242	0.021453
C45	C	0.817389	0.418704	-0.050936
C46	C	0.810376	0.510107	-0.056767
C47	C	0.977296	0.334583	0.082169
C48	C	0.984305	0.243182	0.088004
C49	C	0.580672	0.883083	-0.028631
C50	C	0.485575	0.893641	-0.033346
C51	C	0.433506	0.677409	0.063207
C52	C	0.344157	0.687323	0.058780
C53	C	0.217527	0.923383	-0.046622
C54	C	0.306876	0.913469	-0.042195
C55	C	0.414865	0.790477	0.012721
C56	C	0.504215	0.780564	0.017142
C57	C	0.377584	1.016623	-0.088254
C58	C	0.288235	1.026537	-0.092681
C59	C	1.141070	0.820864	-0.000848
C60	C	1.236167	0.810306	0.003866
C61	C	0.860855	0.851989	-0.234077
C62	C	0.860850	0.851994	-0.308518
C63	C	0.838874	1.138617	-0.033052
C64	C	0.831409	1.235901	-0.039267
C65	C	0.797561	0.970001	-0.532467
C66	C	0.797570	0.969995	-0.602407
C67	C	0.924188	0.733937	-0.497003
C68	C	0.924185	0.733943	-0.427065
C69	C	0.860865	0.851980	-0.444800
C70	C	0.860877	0.851967	-0.584679
C71	C	0.860887	0.851960	-0.660511
C72	C	0.860856	0.851988	-0.368963
C73	C	0.860887	0.851958	0.204598
C74	C	0.860892	0.851953	0.279039
C75	C	1.163067	0.534221	0.017464
C76	C	1.265629	0.426379	0.028393
C77	C	0.882883	0.565315	0.222910
C78	C	0.890354	0.468026	0.303566
C79	C	1.163083	0.534206	0.236801
C80	C	1.265650	0.426358	0.322172
C81	C	0.558659	1.169742	-0.266281
C82	C	0.456092	1.277589	-0.351652
C83	C	0.558675	1.169726	-0.046943
C84	C	0.456113	1.277569	-0.057873
C85	C	0.838859	1.138632	-0.252389
C86	C	0.831388	1.235921	-0.333046
C87	C	1.259076	0.381812	-0.012024
C88	C	1.355435	0.280497	-0.001772
C89	C	1.458346	0.223743	0.048903
C90	C	1.464897	0.268318	0.089321
C91	C	1.368538	0.369638	0.079063
C92	C	0.948580	0.416260	0.386993
C93	C	0.955595	0.324859	0.462784
C94	C	0.904390	0.285220	0.455146
C95	C	0.846156	0.336995	0.371710
C96	C	0.839136	0.428401	0.295921
C97	C	1.368538	0.369639	0.322146
C98	C	1.464919	0.268316	0.402354
C99	C	1.458410	0.223709	0.482587
C100	C	1.355512	0.280438	0.482610
C101	C	1.259133	0.381765	0.402403
C102	C	0.353203	1.334319	-0.351626
C103	C	0.256820	1.435670	-0.431836
C104	C	0.263328	1.480283	-0.512069
C105	C	0.366227	1.423547	-0.512092
C106	C	0.462608	1.322205	-0.431884
C107	C	0.462665	1.322144	-0.017464
C108	C	0.366304	1.423485	-0.027736
C109	C	0.263393	1.480242	-0.078414
C110	C	0.256843	1.435663	-0.118828
C111	C	0.353202	1.334330	-0.108560
C112	C	0.882606	1.275531	-0.325380
C113	C	0.875608	1.366930	-0.401156
C114	C	0.817384	1.418725	-0.484598
C115	C	0.766165	1.379107	-0.492262
C116	C	0.773170	1.287702	-0.416486
H117	H	0.666612	0.569435	-0.176418
H118	H	0.592141	0.680418	0.061862
O119	O	0.729269	1.097307	-0.551593
H120	H	0.784093	1.096529	-0.519372
O121	O	0.346167	1.286211	-0.265095
H122	H	0.382932	1.299501	-0.230404
O123	O	0.145845	1.496831	-0.431800
H124	H	0.157523	1.448755	-0.362530
H125	H	0.679348	0.403620	-0.165847
H126	H	0.184841	1.562803	-0.577374
O127	O	0.145843	1.496884	-0.173487
H128	H	0.079949	1.574825	-0.173825
O129	O	0.346125	1.286255	-0.152146
H130	H	0.391952	1.181191	-0.100577
H131	H	0.975740	0.637836	-0.482574
H132	H	0.791726	0.470537	0.227994
O133	O	0.573649	1.260960	0.037191
H134	H	0.624723	1.155316	0.093134
O135	O	1.063539	0.289212	0.153951
H136	H	1.023424	0.331206	0.184607
H137	H	1.373859	0.405943	0.256824
O138	O	0.945422	1.219660	-0.235384
H139	H	0.979869	1.262556	-0.242797
O140	O	0.992460	0.606645	-0.332499
H141	H	1.036477	0.524567	-0.331916
O142	O	1.575897	0.207100	0.143975
H143	H	1.588193	0.164437	0.212917
H144	H	0.371513	1.459884	-0.577428
H145	H	0.917316	1.399177	-0.394899
O146	O	0.716583	0.654051	-0.134847
H147	H	0.668469	0.704444	-0.110844
O148	O	1.005165	0.049892	0.105357
H149	H	0.996602	-0.006593	0.098230
O150	O	0.159480	1.589521	-0.089462
H151	H	0.105890	1.678079	-0.160895
O152	O	1.078100	0.099236	0.166081
H153	H	1.069541	0.042743	0.158962
H154	H	1.175289	0.428020	-0.053298
H155	H	1.350080	0.244217	-0.034687
H156	H	0.811688	1.493152	-0.546293
H157	H	1.373890	0.405911	0.111982
H158	H	0.371659	1.459764	0.005179
H159	H	0.746023	1.066099	-0.673788
O160	O	0.549982	0.544765	0.122429
H161	H	0.547934	0.467804	0.156795
H162	H	0.990279	0.448524	0.393228
H163	H	1.536799	0.141241	0.057249
H164	H	0.718760	1.421292	-0.560211
O165	O	1.018426	0.269003	0.552771
H166	H	1.052871	0.311906	0.545344
H167	H	1.175361	0.427934	0.402437
O168	O	0.911986	0.186608	0.536896
H169	H	0.961095	0.157263	0.596190
O170	O	0.790966	0.294198	0.363481
H171	H	0.805660	0.221919	0.430205
H172	H	1.548695	0.222137	0.402319
H173	H	0.731456	1.255463	-0.422740
H174	H	0.359344	0.595251	0.099892
H175	H	0.200302	1.126672	-0.137388
O176	O	0.101053	1.056030	-0.105856
H177	H	0.042059	1.043921	-0.100455
O178	O	0.357468	1.138589	-0.142725
H179	H	0.437738	1.111037	-0.130425
O180	O	1.562367	0.114406	0.569096
H181	H	1.635002	0.082456	0.555590
H182	H	1.350229	0.244103	0.547947
O183	O	0.573582	1.261003	-0.431914
H184	H	0.561905	1.309047	-0.501183
