data_functionalizedCrystal
_audit_creation_method	'MofGen! by Chris Wilmer'
_symmetry_space_group_name_H-M	'P1'
_symmetry_Int_Tables_number	1
_symmetry_cell_setting	triclinic
loop_
_symmetry_equiv_pos_as_xyz
  x,y,z
_cell_length_a	15.995350
_cell_length_b	22.610064
_cell_length_c	15.995350
_cell_angle_alpha	90.006302
_cell_angle_beta	96.507625
_cell_angle_gamma	90.004584
loop_
_atom_site_label
_atom_site_type_symbol
_atom_site_fract_x
_atom_site_fract_y
_atom_site_fract_z
O1	O	1.110991	0.049131	-0.107915
O2	O	1.610991	0.549131	0.392085
O3	O	0.867216	0.049143	-0.121243
O4	O	1.367216	0.549143	0.378757
O5	O	0.995767	0.049137	0.007309
O6	O	1.495767	0.549137	0.507309
O7	O	0.982440	0.049138	-0.236467
O8	O	1.482440	0.549138	0.263533
O9	O	0.995745	-0.049233	0.007290
O10	O	1.495745	0.450767	0.507290
O11	O	0.867193	-0.049226	-0.121261
O12	O	1.367193	0.450774	0.378739
O13	O	1.110969	-0.049238	-0.107934
O14	O	1.610969	0.450762	0.392066
Zn15	Zn	0.989077	-0.064850	-0.114601
Zn16	Zn	1.489077	0.435150	0.385399
Zn17	Zn	0.989107	0.064756	-0.114576
Zn18	Zn	1.489107	0.564756	0.385424
O19	O	0.982417	-0.049231	-0.236485
O20	O	1.482417	0.450769	0.263515
C21	C	0.836010	-0.000040	-0.120701
C22	C	1.336010	0.499960	0.379299
C23	C	0.743060	-0.000035	-0.119049
C24	C	1.243060	0.499965	0.380951
N25	N	0.989063	-0.153302	-0.114617
N26	N	1.489063	0.346698	0.385383
C27	C	0.405312	-0.000048	-0.113117
C28	C	0.905312	0.499952	0.386883
C29	C	0.452746	-0.000268	-0.021565
C30	C	0.952746	0.499732	0.478435
C31	C	0.549436	-0.000042	-0.023217
C32	C	1.049436	0.499958	0.476783
C33	C	0.572873	-0.000042	-0.116060
C34	C	1.072873	0.499958	0.383940
C35	C	0.531799	0.056130	-0.161205
C36	C	1.031799	0.556130	0.338795
C37	C	0.435163	0.056173	-0.158906
C38	C	0.935163	0.556173	0.341094
C39	C	0.434798	-0.055691	-0.160818
C40	C	0.934798	0.444309	0.339182
C41	C	0.531743	-0.056430	-0.160797
C42	C	1.031743	0.443570	0.339203
C43	C	0.667570	-0.000036	-0.117727
C44	C	1.167570	0.499964	0.382273
C45	C	0.310614	-0.000049	-0.111452
C46	C	0.810614	0.499951	0.388548
C47	C	1.046032	-0.561947	-0.057662
C48	C	1.546032	-0.061947	0.442338
C49	C	1.046037	-0.623867	-0.057656
C50	C	1.546037	-0.123867	0.442344
O51	O	1.094438	-0.655888	-0.009243
O52	O	1.594438	-0.155888	0.490757
N53	N	0.989107	-0.654840	-0.114559
N54	N	1.489107	-0.154840	0.385441
C55	C	0.932163	-0.623889	-0.171465
C56	C	1.432163	-0.123889	0.328535
O57	O	0.883739	-0.655920	-0.219864
O58	O	1.383739	-0.155920	0.280136
C59	C	0.932155	-0.561971	-0.171467
C60	C	1.432155	-0.061971	0.328533
C61	C	0.989095	-0.531001	-0.114566
C62	C	1.489095	-0.031001	0.385434
C63	C	1.102967	-0.530977	-0.000766
C64	C	1.602967	-0.030977	0.499234
C65	C	1.102963	-0.469062	-0.000773
C66	C	1.602963	0.030938	0.499227
C67	C	1.046026	-0.438116	-0.057677
C68	C	1.546026	0.061884	0.442323
C69	C	0.989091	-0.469085	-0.114573
C70	C	1.489091	0.030915	0.385427
C71	C	0.875208	-0.531021	-0.228369
C72	C	1.375208	-0.031021	0.271631
C73	C	0.875205	-0.469098	-0.228365
C74	C	1.375205	0.030902	0.271635
C75	C	0.932145	-0.438129	-0.171464
C76	C	1.432145	0.061871	0.328536
C77	C	0.932150	-0.376224	-0.171485
C78	C	1.432150	0.123776	0.328515
N79	N	0.989080	-0.345251	-0.114582
N80	N	1.489080	0.154749	0.385418
C81	C	1.046018	-0.376197	-0.057678
C82	C	1.546018	0.123803	0.442322
C83	C	0.932182	-0.753923	-0.171457
C84	C	1.432182	-0.253923	0.328543
C85	C	0.932193	-0.815841	-0.171460
C86	C	1.432193	-0.315841	0.328540
C87	C	1.046066	-0.815814	-0.057650
C88	C	1.546066	-0.315814	0.442350
C89	C	1.046059	-0.753895	-0.057651
C90	C	1.546059	-0.253895	0.442349
C91	C	0.989112	-0.722950	-0.114554
C92	C	1.489112	-0.222950	0.385446
C93	C	1.046007	-0.246170	-0.057698
C94	C	1.546007	0.253830	0.442302
C95	C	1.046001	-0.184248	-0.057713
C96	C	1.546001	0.315752	0.442287
C97	C	0.932125	-0.184281	-0.171520
C98	C	1.432125	0.315719	0.328480
C99	C	0.932134	-0.246196	-0.171509
C100	C	1.432134	0.253804	0.328491
C101	C	0.989078	-0.277139	-0.114591
C102	C	1.489078	0.222861	0.385409
O103	O	0.883771	-0.344163	-0.219870
O104	O	1.383771	0.155837	0.280130
O105	O	1.094426	-0.344159	-0.009280
O106	O	1.594426	0.155841	0.490720
C107	C	1.142175	-0.000053	-0.108476
C108	C	1.642175	0.499947	0.391524
C109	C	1.235125	-0.000054	-0.110127
C110	C	1.735125	0.499946	0.389873
C111	C	0.995205	-0.000047	0.038494
C112	C	1.495205	0.499953	0.538494
C113	C	0.993553	-0.000044	0.131444
C114	C	1.493553	0.499956	0.631444
N115	N	0.989128	0.153208	-0.114553
N116	N	1.489128	0.653208	0.385447
C117	C	0.982980	-0.000046	-0.267671
C118	C	1.482980	0.499954	0.232329
C119	C	0.984631	-0.000046	-0.360621
C120	C	1.484631	0.499954	0.139379
C121	C	0.987621	-0.000045	0.469192
C122	C	1.487621	0.499955	0.969192
C123	C	0.896069	0.000180	0.421758
C124	C	1.396069	0.500180	0.921758
C125	C	0.897721	-0.000042	0.325068
C126	C	1.397721	0.499958	0.825068
C127	C	0.990564	-0.000044	0.301631
C128	C	1.490564	0.499956	0.801631
C129	C	1.035707	-0.056219	0.342698
C130	C	1.535707	0.443781	0.842698
C131	C	1.033407	-0.056266	0.439334
C132	C	1.533407	0.443734	0.939334
C133	C	1.035325	0.055598	0.439713
C134	C	1.535325	0.555598	0.939713
C135	C	1.035303	0.056341	0.342768
C136	C	1.535303	0.556341	0.842768
C137	C	0.992231	-0.000045	0.206934
C138	C	1.492231	0.499955	0.706934
C139	C	0.985956	-0.000048	0.563890
C140	C	1.485956	0.499952	1.063890
H141	H	0.577856	-0.040308	0.012270
H142	H	1.077856	0.459692	0.512270
H143	H	0.434215	-0.040550	0.015023
H144	H	0.934215	0.459450	0.515023
N145	N	0.850184	0.050721	0.445013
N146	N	1.350184	0.550721	0.945013
N147	N	0.884417	0.087165	0.496820
N148	N	1.384417	0.587165	0.996820
H149	H	0.852011	0.122864	0.513247
H150	H	1.352011	0.622864	1.013247
N151	N	0.549504	0.058751	-0.246776
N152	N	1.049504	0.558751	0.253224
N153	N	0.525965	0.017818	-0.296484
N154	N	1.025965	0.517818	0.203516
H155	H	0.538469	0.019667	-0.356920
H156	H	1.038469	0.519667	0.143080
N157	N	1.161119	-0.437398	0.057316
N158	N	1.661119	0.062602	0.557316
N159	N	1.213061	-0.402843	0.030679
N160	N	1.713061	0.097157	0.530679
H161	H	1.254134	-0.380474	0.071697
H162	H	1.754134	0.119526	0.571697
N163	N	0.584390	0.050561	0.021622
N164	N	1.084390	0.550561	0.521622
N165	N	0.537363	0.085823	0.054230
N166	N	1.037363	0.585823	0.554230
H167	H	0.562048	0.121565	0.085899
H168	H	1.062048	0.621565	0.585899
N169	N	0.551023	-0.060682	-0.245730
N170	N	1.051023	0.439318	0.254270
N171	N	0.595585	-0.022049	-0.274803
N172	N	1.095585	0.477951	0.225197
H173	H	0.609201	-0.025048	-0.334790
H174	H	1.109201	0.474952	0.165210
N175	N	0.394967	-0.056179	-0.245501
N176	N	0.894967	0.443821	0.254499
N177	N	0.438589	-0.054770	-0.305552
N178	N	0.938589	0.445230	0.194448
H179	H	0.410455	-0.055111	-0.365357
H180	H	0.910455	0.444889	0.134643
H181	H	0.402915	0.058722	-0.226121
H182	H	0.902915	0.558722	0.273879
N183	N	1.120245	0.060587	0.323514
N184	N	1.620245	0.560587	0.823514
N185	N	1.179566	0.060729	0.381550
N186	N	1.679566	0.560729	0.881550
H187	H	1.239560	0.063722	0.367953
H188	H	1.739560	0.563722	0.867953
N189	N	0.873977	-0.152654	-0.229642
N190	N	1.373977	0.347346	0.270358
N191	N	0.873986	-0.097370	-0.229630
N192	N	1.373986	0.402630	0.270370
H193	H	0.832916	-0.075032	-0.270675
H194	H	1.332916	0.424968	0.229325
H195	H	0.433162	0.039793	0.014869
H196	H	0.933162	0.539793	0.514869
N197	N	0.567433	0.108570	-0.121867
N198	N	1.067433	0.608570	0.378133
N199	N	0.623067	0.104719	-0.060591
N200	N	1.123067	0.604719	0.439409
H201	H	0.648243	0.141753	-0.032810
H202	H	1.148243	0.641753	0.467190
N203	N	0.997803	0.109014	0.465501
N204	N	1.497803	0.609014	0.965501
N205	N	0.994324	0.118927	0.541910
N206	N	1.494324	0.618927	1.041910
H207	H	0.967820	0.156649	0.560124
H208	H	1.467820	0.656649	1.060124
N209	N	0.993989	0.108489	0.308538
N210	N	1.493989	0.608489	0.808538
N211	N	0.962149	0.143989	0.355805
N212	N	1.462149	0.643989	0.855805
H213	H	0.932979	0.180821	0.331623
H214	H	1.432979	0.680821	0.831623
N215	N	0.817045	-0.562637	-0.286504
N216	N	1.317045	-0.062637	0.213496
N217	N	0.766216	-0.534987	-0.337299
N218	N	1.266216	-0.034987	0.162701
H219	H	0.725135	-0.557314	-0.378362
H220	H	1.225135	-0.057314	0.121638
N221	N	1.104146	-0.152610	0.000427
N222	N	1.604146	0.347390	0.500427
N223	N	1.077571	-0.118057	0.052411
N224	N	1.577571	0.381943	0.552411
H225	H	1.118631	-0.095713	0.093473
H226	H	1.618631	0.404287	0.593473
N227	N	0.853199	0.050475	0.289429
N228	N	1.353199	0.550475	0.789429
N229	N	0.820685	0.086141	0.335960
N230	N	1.320685	0.586141	0.835960
H231	H	0.789235	0.121819	0.310794
H232	H	1.289235	0.621819	0.810794
N233	N	0.874048	-0.847481	-0.229588
N234	N	1.374048	-0.347481	0.270412
N235	N	0.900608	-0.882036	-0.281577
N236	N	1.400608	-0.382036	0.218423
H237	H	0.859539	-0.904382	-0.322629
H238	H	1.359539	-0.404382	0.177371
H239	H	1.149332	-0.556168	0.045576
H240	H	1.649332	-0.056168	0.545576
N241	N	1.104183	-0.722272	0.000519
N242	N	1.604183	-0.222272	0.500519
N243	N	1.154987	-0.749917	0.051345
N244	N	1.654987	-0.249917	0.551345
H245	H	1.196023	-0.727587	0.092449
H246	H	1.696023	-0.227587	0.592449
H247	H	0.859630	-0.039876	0.441344
H248	H	1.359630	0.460124	0.941344
H249	H	1.100623	-0.058816	0.471581
H250	H	1.600623	0.441184	0.971581
H251	H	1.092375	-0.271356	-0.011350
H252	H	1.592375	0.228644	0.488650
N253	N	0.996345	-0.108656	0.307081
N254	N	1.496345	0.391344	0.807081
N255	N	0.935055	-0.104801	0.251465
N256	N	1.435055	0.395199	0.751465
H257	H	0.907249	-0.141833	0.226310
H258	H	1.407249	0.358167	0.726310
N259	N	0.409018	-0.109100	-0.123278
N260	N	0.909018	0.390900	0.376722
N261	N	0.368594	-0.106800	-0.060903
N262	N	0.868594	0.393200	0.439097
H263	H	0.350384	-0.144517	-0.034382
H264	H	0.850384	0.355483	0.465618
N265	N	0.852880	-0.050642	0.290108
N266	N	1.352880	0.449358	0.790108
N267	N	0.820272	-0.085906	0.337130
N268	N	1.320272	0.414094	0.837130
H269	H	0.788602	-0.121645	0.312441
H270	H	1.288602	0.378355	0.812441
H271	H	1.092427	-0.841021	-0.011314
H272	H	1.592427	-0.341021	0.488686
H273	H	0.828830	-0.443906	-0.274701
H274	H	1.328830	0.056094	0.225299
N275	N	1.120006	0.056059	0.479549
N276	N	1.620006	0.556059	0.979549
N277	N	1.145213	0.015629	0.529445
N278	N	1.645213	0.515629	1.029445
H279	H	1.205017	0.015948	0.557579
H280	H	1.705017	0.515948	1.057579
N281	N	0.874006	-0.722325	-0.229595
N282	N	1.374006	-0.222325	0.270405
N283	N	0.823184	-0.749992	-0.280393
N284	N	1.323184	-0.249992	0.219607
H285	H	0.782096	-0.727680	-0.321452
H286	H	1.282096	-0.227680	0.178548
H287	H	0.416864	0.098162	-0.125967
H288	H	0.916864	0.598162	0.374033
H289	H	0.559050	-0.097985	-0.127841
H290	H	1.059050	0.402015	0.372159
H291	H	0.885777	-0.271412	-0.217851
H292	H	1.385777	0.228588	0.282149
H293	H	1.000469	-0.098256	0.457627
H294	H	1.500469	0.401744	0.957627
N295	N	1.121274	-0.058836	0.324977
N296	N	1.621274	0.441164	0.824977
N297	N	1.150006	-0.019235	0.281779
N298	N	1.650006	0.480765	0.781779
H299	H	1.210438	-0.021081	0.269262
H300	H	1.710438	0.478919	0.769262
