data_functionalizedCrystal
_audit_creation_method	'MofGen! by Chris Wilmer'
_symmetry_space_group_name_H-M	'P1'
_symmetry_Int_Tables_number	1
_symmetry_cell_setting	triclinic
loop_
_symmetry_equiv_pos_as_xyz
  x,y,z
_cell_length_a	9.065215
_cell_length_b	7.540329
_cell_length_c	19.288865
_cell_angle_alpha	89.991187
_cell_angle_beta	95.924528
_cell_angle_gamma	90.002426
loop_
_atom_site_label
_atom_site_type_symbol
_atom_site_fract_x
_atom_site_fract_y
_atom_site_fract_z
O1	O	1.956833	0.147486	-0.101830
O2	O	1.527255	0.147496	-0.110186
O3	O	1.754457	0.147455	-0.004974
O4	O	1.729632	0.147526	-0.207042
O5	O	1.754444	-0.147510	-0.004973
O6	O	1.527242	-0.147469	-0.110184
O7	O	1.956820	-0.147479	-0.101829
Cu8	Cu	1.742030	-0.174407	-0.106007
Cu9	Cu	1.742046	0.174423	-0.106008
O10	O	1.729618	-0.147439	-0.207041
C11	C	1.472290	0.000014	-0.109383
C12	C	1.308531	0.000016	-0.106983
N13	N	1.742029	-0.419755	-0.106005
C14	C	2.011785	0.000006	-0.102632
C15	C	2.175544	0.000016	-0.105032
C16	C	1.753652	-0.000032	0.020909
C17	C	1.751254	-0.000048	0.098031
N18	N	1.742058	0.419772	-0.106004
C19	C	1.730424	0.000053	-0.232924
C20	C	1.732822	0.000080	-0.310046
C21	C	1.884565	-0.000060	0.141693
C22	C	1.882313	-0.000032	0.214158
C23	C	1.746741	-0.000027	0.242957
C24	C	1.613411	-0.000006	0.199286
C25	C	1.615668	-0.000016	0.126823
C26	C	1.640160	-0.103345	0.352072
C27	C	1.637909	-0.103345	0.424534
C28	C	1.739775	0.000013	0.466457
C29	C	1.843917	0.103348	0.435910
C30	C	1.846173	0.103338	0.363447
C31	C	1.744279	-0.000015	0.321530
C32	C	1.870653	0.000034	0.588694
C33	C	1.868395	0.000073	0.661159
C34	C	1.599490	0.000081	0.646286
C35	C	1.601752	0.000060	0.573822
C36	C	1.737338	0.000028	0.545030
H37	H	1.990874	-0.000034	0.249714
H38	H	1.553105	-0.187477	0.449399
H39	H	1.994970	-0.000080	0.118256
C40	C	1.960706	0.217019	0.329844
C41	C	2.072759	0.330721	0.375947
C42	C	2.187286	0.444413	0.342344
C43	C	2.189759	0.444401	0.262637
C44	C	2.077701	0.330695	0.216529
C45	C	1.963175	0.217003	0.250133
H46	H	2.070932	0.330734	0.434956
H47	H	2.270239	0.528586	0.376476
H48	H	2.274539	0.528562	0.237761
H49	H	2.079529	0.330682	0.157521
H50	H	1.880222	0.132830	0.216000
C51	C	2.015047	0.000059	0.709193
C52	C	2.050494	0.153235	0.761039
C53	C	2.197147	0.153218	0.809074
C54	C	2.308352	0.000026	0.805263
C55	C	2.272907	-0.153161	0.753414
C56	C	2.126254	-0.153145	0.705379
H57	H	1.968172	0.266647	0.763863
H58	H	2.223385	0.266618	0.847456
H59	H	2.416913	0.000014	0.840821
H60	H	2.355230	-0.266574	0.750590
H61	H	2.100016	-0.266545	0.666997
H62	H	1.489104	0.000093	0.669733
H63	H	1.493195	0.000059	0.538271
H64	H	1.557205	-0.187521	0.317944
H65	H	1.503028	0.000002	0.222739
C66	C	1.469016	-0.000019	0.078790
C67	C	1.357792	0.153153	0.082603
C68	C	1.211138	0.153144	0.034568
C69	C	1.175708	-0.000036	-0.017278
C70	C	1.286934	-0.153219	-0.021092
C71	C	1.433588	-0.153211	0.026942
H72	H	1.384017	0.266557	0.120984
H73	H	1.128801	0.266542	0.037392
H74	H	1.067146	-0.000042	-0.052836
H75	H	1.260709	-0.266623	-0.059474
H76	H	1.515925	-0.266608	0.024118
C77	C	1.955979	0.217061	0.482013
C78	C	2.123580	0.184979	0.481306
C79	C	2.235642	0.298684	0.527410
C80	C	2.180104	0.444471	0.574222
C81	C	2.012495	0.476559	0.574930
C82	C	1.900433	0.362855	0.528826
H83	H	2.164700	0.077053	0.446652
H84	H	2.359718	0.274929	0.526886
H85	H	2.263059	0.528642	0.608351
H86	H	1.971375	0.584486	0.609585
H87	H	1.776358	0.386609	0.529351
H88	H	1.981055	0.000016	0.565251
