data_functionalizedCrystal
_audit_creation_method	'MofGen! by Chris Wilmer'
_symmetry_space_group_name_H-M	'P1'
_symmetry_Int_Tables_number	1
_symmetry_cell_setting	triclinic
loop_
_symmetry_equiv_pos_as_xyz
  x,y,z
_cell_length_a	13.033808
_cell_length_b	13.034595
_cell_length_c	18.215399
_cell_angle_alpha	97.162109
_cell_angle_beta	97.154779
_cell_angle_gamma	89.139010
loop_
_atom_site_label
_atom_site_type_symbol
_atom_site_fract_x
_atom_site_fract_y
_atom_site_fract_z
Zn1	Zn	1.624159	-0.209421	-0.289808
Zn2	Zn	1.645889	-0.381383	-0.180207
Zn3	Zn	1.452195	-0.231323	-0.184077
Zn4	Zn	1.473993	-0.403184	-0.320538
O5	O	1.549059	-0.306328	-0.243657
O6	O	1.770948	-0.213943	-0.260788
O7	O	1.620166	-0.361520	-0.077742
O8	O	1.456789	-0.084526	-0.186861
O9	O	1.786913	-0.340283	-0.180265
O10	O	1.583131	-0.068435	-0.264541
O11	O	1.477860	-0.251271	-0.080586
O12	O	1.311179	-0.272410	-0.216660
O13	O	1.493942	-0.377438	-0.419440
O14	O	1.327195	-0.398675	-0.316917
O15	O	1.604268	-0.235082	-0.396862
O16	O	1.641303	-0.528166	-0.210063
O17	O	1.515012	-0.544183	-0.313164
C18	C	1.281874	-0.340285	-0.270544
C19	C	1.167574	-0.354837	-0.282065
C20	C	0.990516	-0.313790	-0.249567
C21	C	1.108651	-0.298751	-0.237657
C22	C	1.582909	-0.573480	-0.264542
C23	C	1.597484	-0.687758	-0.273491
C24	C	1.541532	-0.746743	-0.239012
C25	C	1.556595	-0.864854	-0.248261
C26	C	1.817288	-0.272238	-0.216667
C27	C	1.931591	-0.257712	-0.205165
C28	C	1.549113	-0.306249	-0.435599
C29	C	1.549135	-0.306215	-0.517392
C30	C	1.515105	-0.038128	-0.222705
C31	C	1.500636	0.076162	-0.213776
C32	C	1.606598	-0.232026	-0.693824
C33	C	1.606607	-0.231994	-0.770679
C34	C	1.491725	-0.380236	-0.794179
C35	C	1.491711	-0.380263	-0.717325
C36	C	1.549154	-0.306158	-0.667149
C37	C	1.549176	-0.306100	-0.820858
C38	C	1.549185	-0.306067	-0.904188
C39	C	1.549144	-0.306190	-0.583814
C40	C	1.549055	-0.306325	-0.052451
C41	C	1.549195	-0.306043	0.029385
H42	H	0.968602	-0.198570	-0.158330
O43	O	1.152922	-0.228314	-0.181744
C44	C	1.222417	-0.278926	-0.132486
H45	H	1.248307	-0.354873	-0.162843
H46	H	1.182465	-0.295353	-0.082952
C47	C	1.285529	-0.116150	-0.067300
C48	C	1.317334	-0.209426	-0.104587
H49	H	1.344077	-0.073279	-0.050088
H50	H	1.238706	-0.082051	-0.100484
H51	H	1.252235	-0.129853	-0.026027
H52	H	1.350616	-0.195723	-0.145865
H53	H	1.364166	-0.243521	-0.071410
H54	H	1.444960	-0.440572	-0.835041
O55	O	1.662408	-0.159937	-0.645186
C56	C	1.713130	-0.094515	-0.685215
H57	H	1.670566	-0.096294	-0.743957
H58	H	1.796003	-0.122234	-0.688474
C59	C	1.766361	0.018982	-0.573037
C60	C	1.714079	0.016803	-0.645184
H61	H	1.766951	0.087647	-0.548343
H62	H	1.732193	-0.025096	-0.546068
H63	H	1.835417	-0.004123	-0.575763
H64	H	1.645021	0.039895	-0.642456
H65	H	1.748236	0.060888	-0.672151
H66	H	1.444926	-0.440630	-0.695608
H67	H	1.615657	-0.901791	-0.284627
O68	O	0.946303	-0.384208	-0.305512
C69	C	0.876765	-0.333599	-0.354744
H70	H	0.898939	-0.248526	-0.349807
H71	H	0.794927	-0.340299	-0.339856
C72	C	0.854167	-0.488676	-0.441368
C73	C	0.881407	-0.384188	-0.435308
H74	H	0.857025	-0.519883	-0.491063
H75	H	0.901012	-0.522774	-0.408198
H76	H	0.785970	-0.494245	-0.428957
H77	H	0.949606	-0.378621	-0.447710
H78	H	0.834573	-0.350091	-0.468482
O79	O	1.123374	-0.425263	-0.338013
C80	C	1.053836	-0.374664	-0.387252
H81	H	1.076002	-0.289588	-0.382316
H82	H	0.971996	-0.381372	-0.372370
C83	C	1.031264	-0.529746	-0.473872
C84	C	1.058493	-0.425256	-0.467814
H85	H	1.034132	-0.560955	-0.523566
H86	H	1.078110	-0.563837	-0.440698
H87	H	0.963066	-0.535322	-0.461466
H88	H	1.126694	-0.419682	-0.480211
H89	H	1.011659	-0.391164	-0.500992
H90	H	1.482482	-0.709803	-0.202642
H91	H	1.441581	-0.886901	-0.177404
H92	H	1.656542	-0.724699	-0.309855
O93	O	1.662247	-0.159889	-0.796628
C94	C	1.595297	-0.100916	-0.841795
H95	H	1.513496	-0.104875	-0.826284
H96	H	1.595791	-0.133130	-0.902882
C97	C	1.732468	0.017228	-0.848618
C98	C	1.632000	0.012373	-0.829562
H99	H	1.755109	0.087109	-0.841076
H100	H	1.777575	-0.022505	-0.818190
H101	H	1.732866	-0.009623	-0.899523
H102	H	1.631605	0.039211	-0.778657
H103	H	1.586893	0.052113	-0.859981
