data_functionalizedCrystal
_audit_creation_method	'MofGen! by Chris Wilmer'
_symmetry_space_group_name_H-M	'P1'
_symmetry_Int_Tables_number	1
_symmetry_cell_setting	triclinic
loop_
_symmetry_equiv_pos_as_xyz
  x,y,z
_cell_length_a	10.723023
_cell_length_b	10.868271
_cell_length_c	10.723024
_cell_angle_alpha	90.000239
_cell_angle_beta	84.467709
_cell_angle_gamma	90.003903
loop_
_atom_site_label
_atom_site_type_symbol
_atom_site_fract_x
_atom_site_fract_y
_atom_site_fract_z
O1	O	1.657189	0.102306	0.175017
O2	O	1.294037	0.102311	0.191771
O3	O	1.483990	0.102304	0.001817
O4	O	1.467237	0.102313	0.364970
O5	O	1.483973	-0.102341	0.001824
O6	O	1.294020	-0.102333	0.191777
O7	O	1.657172	-0.102338	0.175023
Zn8	Zn	1.475593	-0.134828	0.183401
Zn9	Zn	1.475616	0.134801	0.183393
O10	O	1.467219	-0.102331	0.364976
C11	C	1.247529	-0.000010	0.190555
C12	C	1.108974	-0.000009	0.186908
N13	N	1.475587	-0.318842	0.183405
C14	C	0.904016	0.106003	0.181509
C15	C	1.047219	0.106004	0.185278
C16	C	1.475596	-0.430179	0.183406
C17	C	1.475613	-0.569857	0.183394
C18	C	1.703680	-0.000014	0.176239
C19	C	1.842235	-0.000008	0.179886
C20	C	1.482762	-0.000017	-0.044679
C21	C	1.479114	-0.000012	-0.183233
N22	N	1.475632	0.318815	0.183378
C23	C	1.585402	-0.000012	-0.258216
C24	C	1.581634	-0.000008	-0.401420
C25	C	1.468447	-0.000008	0.411473
C26	C	1.472095	-0.000004	0.550027
H27	H	0.850892	0.196763	0.180100
N28	N	1.042341	-0.113879	0.185187
N29	N	0.958921	-0.138675	0.271093
H30	H	0.911853	-0.219097	0.269882
N31	N	1.113841	0.219878	0.187038
N32	N	1.088651	0.294596	0.274464
H33	H	1.135705	0.375025	0.275707
N34	N	0.908844	-0.113883	0.181667
N35	N	0.850831	-0.213550	0.180156
H36	H	0.897869	-0.293980	0.181420
N37	N	1.703052	-0.000001	-0.205744
N38	N	1.705946	0.000003	-0.089490
H39	H	1.789039	0.000013	-0.052432
N40	N	1.695788	0.000017	-0.482241
N41	N	1.772224	0.086283	-0.477108
H42	H	1.852850	0.086303	-0.534191
H43	H	1.381099	-0.000013	-0.385548
N44	N	1.361466	-0.000022	-0.235707
N45	N	1.334310	-0.086283	-0.305300
H46	H	1.251218	-0.086291	-0.342360
