data_functionalizedCrystal
_audit_creation_method	'MofGen! by Chris Wilmer'
_symmetry_space_group_name_H-M	'P1'
_symmetry_Int_Tables_number	1
_symmetry_cell_setting	triclinic
loop_
_symmetry_equiv_pos_as_xyz
  x,y,z
_cell_length_a	19.805407
_cell_length_b	14.908520
_cell_length_c	19.805399
_cell_angle_alpha	86.729391
_cell_angle_beta	90.019573
_cell_angle_gamma	93.320773
loop_
_atom_site_label
_atom_site_type_symbol
_atom_site_fract_x
_atom_site_fract_y
_atom_site_fract_z
Zn1	Zn	1.019204	-0.359181	0.398269
Zn2	Zn	1.012594	-0.510047	0.291612
Zn3	Zn	0.906017	-0.359206	0.285095
Zn4	Zn	0.899460	-0.509999	0.404757
O5	O	0.959319	-0.434608	0.344934
O6	O	1.113043	-0.379203	0.384134
O7	O	0.998435	-0.490068	0.196033
O8	O	0.926542	-0.232958	0.294665
O9	O	1.108187	-0.490044	0.305773
O10	O	1.009699	-0.232939	0.377814
O11	O	0.920133	-0.379246	0.191244
O12	O	0.810431	-0.379199	0.300956
O13	O	0.915366	-0.489962	0.498612
O14	O	0.805614	-0.489986	0.388871
O15	O	1.003341	-0.379157	0.493845
O16	O	0.992077	-0.636286	0.312064
O17	O	0.908957	-0.636250	0.395191
C18	C	0.783463	-0.434591	0.344911
C19	C	0.708231	-0.434605	0.344918
C20	C	0.670392	-0.492379	0.390629
C21	C	0.599704	-0.492380	0.390639
C22	C	0.566855	-0.434612	0.344934
C23	C	0.604699	-0.376832	0.299220
C24	C	0.675386	-0.376827	0.299214
C25	C	0.319625	-0.376852	0.299244
C26	C	0.248932	-0.376864	0.299252
C27	C	0.243942	-0.492406	0.390668
C28	C	0.314629	-0.492400	0.390662
C29	C	0.352467	-0.434618	0.344952
C30	C	0.429116	-0.434615	0.344943
C31	C	0.490208	-0.434618	0.344939
C32	C	0.949107	-0.669002	0.355053
C33	C	0.944800	-0.769277	0.359405
C34	C	1.023348	-0.957679	0.281093
C35	C	1.019304	-1.051896	0.285180
C36	C	0.932671	-1.051929	0.371669
C37	C	0.936715	-0.957712	0.367582
C38	C	0.982055	-0.910590	0.322292
C39	C	0.986095	-0.816372	0.318202
C40	C	0.899466	-0.816407	0.404694
C41	C	0.895421	-0.910624	0.408781
C42	C	1.135861	-0.434626	0.344957
C43	C	1.211092	-0.434634	0.344967
C44	C	0.959359	-0.434551	0.521474
C45	C	0.959376	-0.434527	0.596705
C46	C	0.969589	-0.199299	0.334789
C47	C	0.973966	-0.099024	0.330466
C48	C	0.959320	-0.434600	0.169077
C49	C	0.959445	-0.434370	0.093836
C50	C	1.005186	-0.376828	0.629568
C51	C	1.005194	-0.376802	0.700255
C52	C	0.959395	-0.434480	0.738078
C53	C	0.913581	-0.492182	0.705210
C54	C	0.913570	-0.492203	0.634524
C55	C	0.913622	-0.492098	0.990280
C56	C	0.913638	-0.492074	1.060971
C57	C	1.005247	-0.376697	1.056011
C58	C	1.005236	-0.376718	0.985325
C59	C	0.959419	-0.434416	0.952463
C60	C	0.959410	-0.434442	0.875816
C61	C	0.959407	-0.434459	0.814725
H62	H	0.577948	-0.329793	0.262009
H63	H	0.895762	-1.090312	0.408547
O64	O	0.869005	-0.548129	0.602567
C65	C	0.827532	-0.496781	0.559444
H66	H	0.826455	-0.425719	0.577679
H67	H	0.848583	-0.493696	0.505741
C68	C	0.756568	-0.628132	0.537854
C69	C	0.755241	-0.540854	0.560254
H70	H	0.711977	-0.655319	0.538350
H71	H	0.784511	-0.662727	0.566904
H72	H	0.774114	-0.625549	0.493103
H73	H	0.737704	-0.543438	0.605006
H74	H	0.727294	-0.506260	0.531211
H75	H	0.876325	-0.539092	0.963533
H76	H	0.876288	-0.539141	0.736011
H77	H	0.876340	-0.539044	1.091765
O78	O	1.049610	-0.320668	0.592855
C79	C	1.038753	-0.230749	0.606266
H80	H	0.984882	-0.226187	0.625488
H81	H	1.076074	-0.207160	0.646289
C82	C	1.115414	-0.176159	0.517273
C83	C	1.049247	-0.170554	0.540877
H84	H	1.121890	-0.139026	0.476939
H85	H	1.122731	-0.236739	0.508239
H86	H	1.146508	-0.156503	0.550632
H87	H	1.018155	-0.190221	0.507521
H88	H	1.041925	-0.109976	0.549903
H89	H	1.023011	-0.778006	0.281323
H90	H	0.697132	-0.539423	0.427846
O91	O	1.067441	-0.912039	0.237081
C92	C	1.103004	-0.973805	0.201575
H93	H	1.102455	-1.040941	0.232213
H94	H	1.077811	-0.983898	0.150587
C95	C	1.177302	-0.854495	0.152651
C96	C	1.176632	-0.936950	0.190284
H97	H	1.222718	-0.831760	0.145683
H98	H	1.153341	-0.812881	0.176570
H99	H	1.156304	-0.862916	0.110165
H100	H	1.197622	-0.928526	0.232772
H101	H	1.200598	-0.978562	0.166372
H102	H	0.858509	-0.949003	0.445657
O103	O	0.712041	-0.320682	0.254742
C104	C	0.667893	-0.269682	0.214411
H105	H	0.615894	-0.306632	0.213623
H106	H	0.663369	-0.201207	0.236324
C107	C	0.759888	-0.211172	0.142788
C108	C	0.696023	-0.256559	0.141816
H109	H	0.777240	-0.203073	0.098009
H110	H	0.789632	-0.245529	0.169961
H111	H	0.756109	-0.154115	0.161052
H112	H	0.699804	-0.313619	0.123561
H113	H	0.666280	-0.222211	0.114638
H114	H	0.865840	-0.778057	0.438239
O115	O	1.059507	-1.097662	0.245268
C116	C	1.100850	-1.152075	0.286225
H117	H	1.106183	-1.123636	0.338307
H118	H	1.076875	-1.223514	0.291622
C119	C	1.164643	-1.188354	0.189351
C120	C	1.171197	-1.153420	0.253317
H121	H	1.208035	-1.189188	0.169051
H122	H	1.136788	-1.151698	0.161757
H123	H	1.144661	-1.247884	0.193857
H124	H	1.191170	-1.093888	0.248809
H125	H	1.199057	-1.190066	0.280910
H126	H	0.568898	-0.539426	0.427861
O127	O	1.049623	-0.320774	0.732284
C128	C	1.039819	-0.333127	0.802784
H129	H	0.986299	-0.362674	0.813699
H130	H	1.077877	-0.381155	0.824931
C131	C	1.115732	-0.205538	0.821727
C132	C	1.049995	-0.241821	0.835133
H133	H	1.122012	-0.149218	0.841683
H134	H	1.122340	-0.197217	0.774230
H135	H	1.147439	-0.245570	0.840183
H136	H	1.018290	-0.201794	0.816670
H137	H	1.043383	-0.250133	0.882628
O138	O	0.346511	-0.548419	0.435154
C139	C	0.330105	-0.528834	0.501792
H140	H	0.313812	-0.456770	0.502185
H141	H	0.286975	-0.577236	0.521519
C142	C	0.412469	-0.627911	0.546921
C143	C	0.392463	-0.539399	0.547405
H144	H	0.450933	-0.634432	0.575058
H145	H	0.423521	-0.641110	0.502026
H146	H	0.376522	-0.668236	0.563358
H147	H	0.428407	-0.499077	0.530959
H148	H	0.381419	-0.526194	0.592298
O149	O	0.207084	-0.548446	0.435053
C150	C	0.137649	-0.536082	0.425252
H151	H	0.131016	-0.466421	0.400166
H152	H	0.115245	-0.589530	0.391451
C153	C	0.109172	-0.630036	0.524904
C154	C	0.101025	-0.544474	0.494098
H155	H	0.086579	-0.635216	0.567370
H156	H	0.155951	-0.638369	0.531506
H157	H	0.090502	-0.674567	0.496729
H158	H	0.119702	-0.499945	0.522269
H159	H	0.054247	-0.536133	0.487502
O160	O	0.356271	-0.320695	0.254778
C161	C	0.312118	-0.269696	0.214452
H162	H	0.260123	-0.306656	0.213659
H163	H	0.307585	-0.201228	0.236372
C164	C	0.404109	-0.211156	0.142836
C165	C	0.340249	-0.256554	0.141858
H166	H	0.421462	-0.203045	0.098057
H167	H	0.433856	-0.245512	0.170005
H168	H	0.400323	-0.154104	0.161106
H169	H	0.344037	-0.313609	0.123596
H170	H	0.310502	-0.222207	0.114683
H171	H	0.222189	-0.329817	0.262033
H172	H	1.042533	-0.329753	0.954533
H173	H	1.042551	-0.329713	1.082776
