data_functionalizedCrystal
_audit_creation_method	'MofGen! by Chris Wilmer'
_symmetry_space_group_name_H-M	'P1'
_symmetry_Int_Tables_number	1
_symmetry_cell_setting	triclinic
loop_
_symmetry_equiv_pos_as_xyz
  x,y,z
_cell_length_a	8.597366
_cell_length_b	14.519709
_cell_length_c	7.088929
_cell_angle_alpha	83.763835
_cell_angle_beta	103.954530
_cell_angle_gamma	84.511450
loop_
_atom_site_label
_atom_site_type_symbol
_atom_site_fract_x
_atom_site_fract_y
_atom_site_fract_z
O1	O	2.101722	0.126647	0.187220
O2	O	2.601722	0.626647	0.687220
O3	O	1.637083	0.141704	0.110676
O4	O	2.137083	0.641704	0.610676
O5	O	1.881724	-0.000086	0.150995
O6	O	2.381724	0.499914	0.650995
O7	O	1.857082	0.268437	0.146901
O8	O	2.357082	0.768437	0.646901
O9	O	1.914417	-0.019077	0.474358
O10	O	2.414417	0.480923	0.974358
O11	O	1.669777	0.122712	0.434040
O12	O	2.169777	0.622712	0.934040
O13	O	2.134415	0.107656	0.510583
O14	O	2.634415	0.607656	1.010583
Cu15	Cu	1.905081	0.113450	0.501837
Cu16	Cu	2.405081	0.613450	1.001837
Cu17	Cu	1.866417	0.135910	0.119423
Cu18	Cu	2.366417	0.635910	0.619423
O19	O	1.889775	0.249445	0.470265
O20	O	2.389775	0.749445	0.970265
C21	C	1.593965	0.131650	0.262562
C22	C	2.093965	0.631650	0.762562
C23	C	1.416780	0.129974	0.233374
C24	C	1.916780	0.629974	0.733374
C25	C	1.896922	-0.043939	0.312488
C26	C	2.396922	0.456061	0.812488
C27	C	1.893481	-0.146314	0.311922
C28	C	2.393481	0.353686	0.811922
C29	C	1.880809	-0.521185	0.309785
C30	C	2.380809	-0.021185	0.809785
C31	C	1.884328	-0.416884	0.310379
C32	C	2.384328	0.083116	0.810379
C33	C	1.887145	-0.333753	0.310855
C34	C	2.387145	0.166247	0.810855
C35	C	1.890664	-0.229445	0.311446
C36	C	2.390664	0.270555	0.811446
C37	C	2.177533	0.117710	0.358693
C38	C	2.677533	0.617710	0.858693
C39	C	2.354717	0.119386	0.387869
C40	C	2.854717	0.619386	0.887869
C41	C	1.874576	0.293299	0.308767
C42	C	2.374576	0.793299	0.808767
C43	C	1.878016	0.395675	0.309320
C44	C	2.378016	0.895675	0.809320
N45	N	1.932287	0.097652	0.770809
N46	N	2.432287	0.597652	1.270809
N47	N	1.839224	0.151700	-0.149547
N48	N	2.339224	0.651700	0.350453
H49	H	1.334362	0.137751	0.078762
H50	H	1.834362	0.637751	0.578762
N51	N	1.458131	0.109617	0.581834
N52	N	1.958131	0.609617	1.081834
N53	N	1.606750	0.111037	0.606087
N54	N	2.106750	0.611037	1.106087
H55	H	1.679790	0.104137	0.743073
H56	H	2.179790	0.604137	1.243073
N57	N	1.718240	0.221964	0.728072
N58	N	2.218240	0.721964	1.228072
N59	N	1.700002	0.232550	0.546363
N60	N	2.200002	0.732550	1.046363
H61	H	1.614556	0.282177	0.459918
H62	H	2.114556	0.782177	0.959918
N63	N	2.053289	0.027391	0.893201
N64	N	2.553289	0.527391	1.393201
N65	N	2.071532	0.016803	1.074911
N66	N	2.571532	0.516803	1.574911
H67	H	2.156984	-0.032821	1.161353
H68	H	2.656984	0.467179	1.661353
