data_functionalizedCrystal
_audit_creation_method	'MofGen! by Chris Wilmer'
_symmetry_space_group_name_H-M	'P1'
_symmetry_Int_Tables_number	1
_symmetry_cell_setting	triclinic
loop_
_symmetry_equiv_pos_as_xyz
  x,y,z
_cell_length_a	19.851628
_cell_length_b	14.560438
_cell_length_c	14.560438
_cell_angle_alpha	60.000905
_cell_angle_beta	90.004573
_cell_angle_gamma	59.997979
loop_
_atom_site_label
_atom_site_type_symbol
_atom_site_fract_x
_atom_site_fract_y
_atom_site_fract_z
Zr1	Zr	0.648976	1.005173	-0.120400
O2	O	0.541407	1.196793	-0.267062
O3	O	0.681952	0.813566	-0.075442
O4	O	0.681949	1.005170	-0.267043
O5	O	0.541413	1.005187	0.075679
O6	O	0.792810	1.005152	-0.267024
O7	O	0.541410	1.005189	-0.075462
O8	O	0.792816	0.662408	0.075714
O9	O	0.541407	1.347931	-0.267060
O10	O	0.778751	0.892358	-0.056252
O11	O	0.696018	0.892370	0.056529
O12	O	0.696014	1.117959	-0.169056
O13	O	0.613281	1.117970	-0.056275
Zr14	Zr	0.825793	1.005141	0.120682
Zr15	Zr	0.825788	1.005145	-0.120370
Zr16	Zr	0.648981	1.005169	0.120652
Zr17	Zr	0.648977	1.246220	-0.120395
Zr18	Zr	0.825792	0.764093	0.120677
O19	O	0.792817	1.196747	0.075724
O20	O	0.792811	1.196753	-0.267021
O21	O	0.541413	1.196788	0.075683
O22	O	0.933362	0.813520	0.267345
O23	O	0.933355	0.813526	-0.075400
O24	O	0.681958	0.813560	0.267303
O25	O	0.933356	1.005127	-0.075397
O26	O	0.792820	1.005143	0.267325
O27	O	0.681959	1.005161	0.267307
O28	O	0.933358	1.005124	0.075744
O29	O	0.681949	1.347909	-0.267036
O30	O	0.792820	0.662405	0.267319
O31	O	0.933362	0.662382	0.267342
O32	O	0.933358	0.662385	0.075738
O33	O	0.541411	1.347928	-0.075455
O34	O	0.681953	1.347906	-0.075432
O35	O	0.778755	0.892355	0.169338
O36	O	0.861488	0.892343	0.056557
O37	O	0.778751	1.117944	-0.056247
O38	O	0.696018	1.117955	0.056534
C39	C	0.737384	0.703643	0.000135
C40	C	0.737384	0.601312	0.000133
C41	C	0.780568	0.553230	-0.058737
C42	C	0.780571	0.457071	-0.058727
C43	C	0.694200	0.457088	0.059027
C44	C	0.694202	0.553239	0.059022
C45	C	0.516220	1.005192	0.000104
C46	C	0.441159	1.005204	0.000092
C47	C	0.214702	1.128182	-0.061376
C48	C	0.192340	1.066696	-0.105945
C49	C	0.303752	1.005170	0.000124
C50	C	0.192374	1.066665	0.044672
C51	C	0.171020	1.005147	0.000155
C52	C	0.282378	0.943684	-0.044507
C53	C	0.282410	0.943670	0.106169
C54	C	0.260101	0.882094	0.061627
C55	C	0.380214	1.005188	0.000104
C56	C	0.094563	1.005120	0.000173
C57	C	0.958549	1.005121	0.000178
C58	C	1.033610	1.005109	0.000190
C59	C	0.737379	1.005162	-0.301378
C60	C	0.737377	1.005164	-0.403711
C61	C	0.737385	1.306671	0.000147
C62	C	0.737385	1.409002	0.000149
C63	C	0.694190	1.122922	-0.510670
C64	C	0.694200	1.122916	-0.606819
C65	C	0.780584	0.887382	-0.489036
C66	C	0.780579	0.887389	-0.392890
C67	C	0.737390	1.005152	0.301661
C68	C	0.737392	1.005150	0.403993
C69	C	0.958549	0.703607	0.000172
C70	C	1.033610	0.601264	0.000183
C71	C	0.737390	0.703638	0.301655
C72	C	0.737391	0.601305	0.403986
C73	C	0.958554	0.703602	0.301692
C74	C	1.033617	0.601258	0.404035
C75	C	0.516215	1.306711	-0.301409
C76	C	0.441152	1.409056	-0.403753
C77	C	0.516220	1.306706	0.000110
C78	C	0.441159	1.409049	0.000100
C79	C	0.737379	1.306676	-0.301373
C80	C	0.737377	1.409008	-0.403704
C81	C	1.025671	0.553211	-0.058707
C82	C	1.096192	0.457062	-0.058720
C83	C	1.174651	0.408962	0.000165
C84	C	1.182588	0.457025	0.059056
C85	C	1.112068	0.553179	0.059062
C86	C	1.112061	0.553190	0.393226
C87	C	1.182597	0.457039	0.489379
C88	C	1.174688	0.408952	0.596341
C89	C	1.096236	0.457030	0.607147
C90	C	1.025702	0.553185	0.510995
C91	C	0.362708	1.457136	-0.392944
C92	C	0.292172	1.553316	-0.489097
C93	C	0.300081	1.601408	-0.596058
C94	C	0.378532	1.553324	-0.606865
C95	C	0.449067	1.457152	-0.510713
C96	C	0.449098	1.457112	0.058980
C97	C	0.378577	1.553288	0.058966
C98	C	0.300118	1.601391	0.000078
C99	C	0.292181	1.553324	-0.058810
C100	C	0.362701	1.457157	-0.058802
C101	C	0.780579	0.553219	0.510946
C102	C	0.780572	0.457076	0.607093
C103	C	0.694187	0.457109	0.489306
C104	C	0.694190	0.553257	0.393161
H105	H	0.815737	0.417923	-0.106663
C106	C	0.646675	1.252477	-0.522579
N107	N	0.610888	1.350062	-0.531553
H108	H	0.242640	1.679717	-0.674343
C109	C	0.353988	1.404261	-0.275295
N110	N	0.347413	1.364448	-0.186684
C111	C	0.828086	0.404179	0.724750
N112	N	0.863878	0.364337	0.813371
C113	C	1.120781	0.606074	0.275577
N114	N	1.127355	0.645908	0.186967
H115	H	0.659041	0.417936	0.106970
C116	C	0.222551	1.707173	0.000086
N117	N	0.164130	1.786843	0.000100
H118	H	0.815731	0.592367	-0.106686
H119	H	0.228291	1.592505	-0.106755
C120	C	0.828095	0.606078	0.522858
N121	N	0.863882	0.645892	0.531835
H122	H	0.356226	1.418026	-0.106746
C123	C	0.334853	0.873523	0.227268
N124	N	0.374354	0.820707	0.318477
C125	C	0.387218	1.606228	-0.724533
N126	N	0.393758	1.646070	-0.813164
C127	C	0.939373	0.606110	-0.123497
N128	N	0.874375	0.645955	-0.172307
C129	C	0.646679	0.606153	0.275494
N130	N	0.610894	0.645996	0.186869
H131	H	0.659036	0.592386	0.106967
H132	H	0.228300	1.592449	-0.480276
H133	H	0.961832	0.592309	0.519812
H134	H	0.153528	1.118687	-0.195614
C135	C	1.087443	0.404199	-0.123496
N136	N	1.080851	0.364382	-0.172283
C137	C	0.334647	0.873508	-0.095536
N138	N	0.374015	0.820658	-0.133975
H139	H	0.153573	1.118677	0.082335
H140	H	0.659034	1.218807	-0.693907
H141	H	0.385055	1.592408	0.106923
H142	H	1.232066	0.330666	0.000152
C143	C	0.285228	0.741469	0.131884
N144	N	0.304150	0.635553	0.184795
H145	H	0.815756	0.791495	-0.480239
H146	H	1.246478	0.417848	0.106998
H147	H	0.512937	1.418006	-0.519527
C148	C	1.268886	0.404160	0.477467
N149	N	1.333877	0.364330	0.468491
H150	H	0.659015	0.417975	0.480507
C151	C	0.535396	1.404223	0.123760
N152	N	0.600394	1.364399	0.172549
C153	C	0.189784	1.268692	-0.131737
N154	N	0.171019	1.374520	-0.184737
C155	C	1.252287	0.303169	0.702101
N156	N	1.310738	0.223487	0.781756
H157	H	0.815751	0.791490	-0.305793
H158	H	1.089809	0.417863	0.694248
H159	H	1.118543	0.592291	0.107024
