data_functionalizedCrystal
_audit_creation_method	'MofGen! by Chris Wilmer'
_symmetry_space_group_name_H-M	'P1'
_symmetry_Int_Tables_number	1
_symmetry_cell_setting	triclinic
loop_
_symmetry_equiv_pos_as_xyz
  x,y,z
_cell_length_a	12.759401
_cell_length_b	29.839131
_cell_length_c	12.759393
_cell_angle_alpha	89.963820
_cell_angle_beta	89.979541
_cell_angle_gamma	90.042945
loop_
_atom_site_label
_atom_site_type_symbol
_atom_site_fract_x
_atom_site_fract_y
_atom_site_fract_z
Zn1	Zn	1.606066	-0.178816	-0.593974
Zn2	Zn	1.605877	-0.253952	-0.418275
Zn3	Zn	1.430367	-0.178839	-0.418309
Zn4	Zn	1.430275	-0.253922	-0.593912
O5	O	1.518146	-0.216382	-0.506117
O6	O	1.753062	-0.188786	-0.570679
O7	O	1.582554	-0.244011	-0.271258
O8	O	1.453791	-0.115969	-0.441652
O9	O	1.752923	-0.243989	-0.441593
O10	O	1.582877	-0.115952	-0.570712
O11	O	1.453607	-0.188826	-0.271283
O12	O	1.283333	-0.188796	-0.441592
O13	O	1.453635	-0.243936	-0.740941
O14	O	1.283266	-0.243959	-0.570606
O15	O	1.582788	-0.188757	-0.740987
O16	O	1.582465	-0.316816	-0.441533
O17	O	1.453451	-0.316793	-0.570573
C18	C	1.245179	-0.216377	-0.506097
C19	C	1.128402	-0.216385	-0.506113
C20	C	1.073533	-0.245152	-0.573185
C21	C	0.963809	-0.245154	-0.573206
C22	C	0.963833	-0.187621	-0.439073
C23	C	1.073555	-0.187617	-0.439058
C24	C	1.517957	-0.333105	-0.506065
C25	C	1.517971	-0.383039	-0.506078
C26	C	1.585446	-0.692682	-0.439024
C27	C	1.585576	-0.880355	-0.439065
O28	O	1.642794	-0.904619	-0.382014
N29	N	1.518364	-0.903824	-0.506197
C30	C	1.451120	-0.880373	-0.573327
O31	O	1.393963	-0.904641	-0.630435
C32	C	1.450997	-0.692701	-0.573291
C33	C	1.518205	-0.669234	-0.506148
C34	C	1.652650	-0.669215	-0.371888
C35	C	1.652613	-0.622299	-0.371874
C36	C	1.585372	-0.598851	-0.438997
C37	C	1.518168	-0.622318	-0.506134
C38	C	1.383759	-0.669250	-0.640427
C39	C	1.383736	-0.622329	-0.640413
C40	C	1.450944	-0.598862	-0.573270
C41	C	1.450890	-0.551954	-0.573244
N42	N	1.518101	-0.528485	-0.506113
C43	C	1.585342	-0.551933	-0.438989
C44	C	1.451188	-0.978903	-0.573340
C45	C	1.451218	-1.025821	-0.573348
C46	C	1.585675	-1.025800	-0.439087
C47	C	1.585639	-0.978881	-0.439075
C48	C	1.518400	-0.955434	-0.506209
C49	C	1.585259	-0.453407	-0.438965
C50	C	1.585212	-0.406488	-0.438955
C51	C	1.450760	-0.406513	-0.573219
C52	C	1.450801	-0.453429	-0.573226
C53	C	1.518059	-0.476875	-0.506096
O54	O	1.393709	-0.527661	-0.630274
O55	O	1.642507	-0.527656	-0.381907
C56	C	1.585483	-0.739597	-0.439038
C57	C	1.518279	-0.763064	-0.506175
C58	C	1.451038	-0.739616	-0.573298
C59	C	1.518309	-0.809982	-0.506183
C60	C	1.585550	-0.833431	-0.439060
C61	C	1.652761	-0.809961	-0.371928
C62	C	1.652724	-0.763046	-0.371915
C63	C	1.383827	-0.763086	-0.640430
C64	C	1.383869	-0.810001	-0.640437
C65	C	1.451110	-0.833450	-0.573314
C66	C	1.792179	-0.216388	-0.506139
C67	C	1.908956	-0.216391	-0.506148
C68	C	1.518223	-0.216341	-0.780151
C69	C	1.518255	-0.216323	-0.896928
C70	C	1.518365	-0.099204	-0.506193
C71	C	1.518459	-0.049270	-0.506225
C72	C	1.585425	-0.245024	-1.061512
C73	C	1.585400	-0.245046	-0.951788
C74	C	1.451124	-0.187580	-0.951797
C75	C	1.451145	-0.187561	-1.061519
C76	C	1.518131	-0.216392	-0.233150
C77	C	1.518302	-0.216283	-0.116374
H78	H	0.919164	-0.164199	-0.384478
H79	H	1.707342	-0.603195	-0.317203
Br80	Br	1.360021	-0.148561	-1.135982
Br81	Br	1.359987	-1.057664	-0.664459
Br82	Br	1.147965	-0.284194	-0.664189
H83	H	1.640029	-0.472491	-0.384304
H84	H	0.919139	-0.268578	-0.627824
Br85	Br	1.148028	-0.148569	-0.348035
H86	H	1.707411	-0.688301	-0.317227
H87	H	1.396449	-0.164195	-0.907121
H88	H	1.639941	-0.387382	-0.384275
H89	H	1.640425	-1.044900	-0.384433
Br90	Br	1.676853	-0.947038	-0.347948
Br91	Br	1.359925	-0.947089	-0.664460
Br92	Br	1.359564	-0.485278	-0.664324
H93	H	1.329025	-0.688349	-0.695097
Br94	Br	1.359512	-0.374681	-0.664315
Br95	Br	1.292481	-0.590510	-0.731534
H96	H	1.707452	-0.743942	-0.317241
Br97	Br	1.676496	-0.284056	-0.877336
H98	H	1.707508	-0.829061	-0.317271
Br99	Br	1.292645	-0.841844	-0.731566
H100	H	1.329072	-0.743998	-0.695091
H101	H	1.640108	-0.268412	-1.106171
