data_functionalizedCrystal
_audit_creation_method	'MofGen! by Chris Wilmer'
_symmetry_space_group_name_H-M	'P1'
_symmetry_Int_Tables_number	1
_symmetry_cell_setting	triclinic
loop_
_symmetry_equiv_pos_as_xyz
  x,y,z
_cell_length_a	19.077115
_cell_length_b	18.101397
_cell_length_c	19.076919
_cell_angle_alpha	87.731459
_cell_angle_beta	89.923103
_cell_angle_gamma	87.716690
loop_
_atom_site_label
_atom_site_type_symbol
_atom_site_fract_x
_atom_site_fract_y
_atom_site_fract_z
Zn1	Zn	1.058294	-0.358273	0.440386
Zn2	Zn	1.062942	-0.477346	0.322873
Zn3	Zn	0.945511	-0.348352	0.318181
Zn4	Zn	0.940764	-0.476899	0.435627
O5	O	1.001878	-0.415217	0.379267
O6	O	1.157243	-0.378407	0.428753
O7	O	1.051297	-0.456270	0.223919
O8	O	0.960514	-0.246038	0.334420
O9	O	1.160658	-0.465889	0.342416
O10	O	1.043375	-0.253327	0.424204
O11	O	0.965021	-0.361498	0.220473
O12	O	0.846550	-0.361065	0.329806
O13	O	0.952423	-0.465128	0.534589
O14	O	0.843062	-0.455508	0.416092
O15	O	1.038772	-0.377974	0.538086
O16	O	1.046694	-0.580917	0.337802
O17	O	0.956930	-0.580588	0.420642
C18	C	0.819309	-0.407162	0.371924
C19	C	0.741205	-0.403735	0.368799
C20	C	0.301753	-0.379121	0.346395
C21	C	0.375140	-0.382345	0.349335
C22	C	0.410036	-0.433204	0.395657
C23	C	0.371542	-0.480836	0.439047
C24	C	0.298156	-0.477607	0.436110
C25	C	0.629324	-0.448138	0.409252
C26	C	0.702716	-0.451365	0.412184
C27	C	0.706309	-0.352873	0.322473
C28	C	0.632921	-0.349652	0.319538
C29	C	0.594433	-0.397281	0.362930
N30	N	0.485050	-0.436503	0.398661
N31	N	0.519420	-0.393978	0.359929
C32	C	1.001819	-0.607624	0.379230
C33	C	1.001857	-0.689940	0.379241
C34	C	1.001945	-0.989038	0.379309
C35	C	1.058276	-0.957875	0.327036
C36	C	1.058458	-0.872271	0.327185
C37	C	1.001901	-0.840652	0.379274
C38	C	1.018997	-0.875549	0.454146
C39	C	1.019428	-0.961201	0.453866
C40	C	0.928347	-0.953501	0.357344
C41	C	0.928781	-0.867801	0.355706
C42	C	1.001876	-0.756791	0.379260
C43	C	1.001972	-1.072899	0.379328
C44	C	1.185160	-0.423304	0.386639
C45	C	1.263263	-0.426751	0.389780
C46	C	0.994549	-0.422608	0.562547
C47	C	0.991426	-0.425757	0.640650
C48	C	1.001956	-0.222061	0.379320
C49	C	1.001989	-0.139749	0.379342
C50	C	1.009219	-0.407804	0.196702
C51	C	1.012478	-0.404452	0.118605
C52	C	1.034914	-0.381862	0.679164
C53	C	1.031971	-0.384818	0.752550
C54	C	0.985543	-0.431673	0.787420
C55	C	0.942050	-0.475570	0.748900
C56	C	0.944990	-0.472610	0.675516
C57	C	0.971926	-0.445389	1.006700
C58	C	0.968990	-0.448347	1.080090
C59	C	1.058910	-0.357594	1.083735
C60	C	1.061849	-0.354641	1.010349
C61	C	1.018354	-0.398535	0.971835
N62	N	0.982535	-0.434697	0.862432
N63	N	1.021359	-0.395506	0.896825
H64	H	0.273345	-0.337707	0.308674
H65	H	0.936519	-0.481142	0.975352
C66	C	0.586997	-0.500536	0.456980
C67	C	0.597300	-0.584919	0.451495
C68	C	0.554971	-0.637321	0.499225
C69	C	0.502338	-0.605339	0.552440
C70	C	0.492032	-0.520951	0.557927
C71	C	0.534362	-0.468550	0.510197
H72	H	0.636264	-0.608598	0.412100
H73	H	0.562600	-0.699790	0.495162
H74	H	0.471003	-0.644130	0.587772
H75	H	0.453068	-0.497273	0.597322
H76	H	0.526732	-0.406080	0.514260
H77	H	0.731126	-0.492781	0.449909
C78	C	1.131611	-0.990806	0.346776
C79	C	1.140522	-1.045816	0.410096
C80	C	1.213857	-1.078747	0.429838
C81	C	1.278280	-1.056668	0.386260
C82	C	1.269371	-1.001656	0.322937
C83	C	1.196037	-0.968725	0.303194
H84	H	1.092830	-1.062162	0.442358
H85	H	1.220452	-1.119471	0.476715
H86	H	1.332567	-1.081046	0.400875
H87	H	1.317063	-0.985310	0.290674
H88	H	1.189442	-0.928001	0.256317
H89	H	0.884793	-0.846035	0.390751
C90	C	1.091984	-0.992231	0.478525
C91	C	1.158275	-0.971510	0.437262
C92	C	1.230834	-1.002535	0.461920
C93	C	1.237101	-1.054282	0.527841
C94	C	1.170808	-1.075006	0.569108
C95	C	1.098250	-1.043980	0.544450
H96	H	1.153637	-0.933201	0.388460
H97	H	1.279908	-0.987194	0.431371
H98	H	1.290814	-1.077249	0.546095
H99	H	1.175446	-1.113314	0.617911
H100	H	1.049175	-1.059322	0.575000
H101	H	1.072722	-0.343710	0.650778
H102	H	0.909571	-0.508346	0.644158
C103	C	1.090719	-0.850599	0.479149
C104	C	1.150127	-0.908504	0.496487
C105	C	1.221850	-0.883555	0.521485
C106	C	1.234165	-0.800701	0.529147
C107	C	1.174755	-0.742791	0.511809
C108	C	1.103032	-0.767740	0.486810
H109	H	1.141012	-0.969842	0.490816
H110	H	1.265829	-0.926424	0.534320
H111	H	1.287259	-0.782232	0.547652
H112	H	1.183870	-0.681453	0.517480
H113	H	1.059053	-0.724870	0.473976
C114	C	0.965096	-0.848056	0.508356
C115	C	0.989498	-0.805664	0.571746
C116	C	0.935597	-0.778170	0.625955
C117	C	0.857294	-0.793068	0.616773
C118	C	0.832888	-0.835463	0.553380
C119	C	0.886789	-0.862957	0.499171
H120	H	1.047467	-0.794633	0.578545
H121	H	0.953664	-0.746787	0.672883
H122	H	0.817393	-0.772716	0.656902
H123	H	0.774920	-0.846494	0.546581
H124	H	0.868722	-0.894340	0.452243
C125	C	1.112920	-0.303099	0.971994
C126	C	1.160757	-0.254813	1.014359
C127	C	1.211832	-0.203274	0.976004
C128	C	1.215070	-0.200020	0.895284
C129	C	1.167231	-0.248307	0.852914
C130	C	1.116156	-0.299847	0.891269
H131	H	1.158361	-0.257220	1.074116
H132	H	1.247245	-0.167528	1.007369
H133	H	1.252878	-0.161867	0.866891
H134	H	1.169627	-0.245900	0.793157
H135	H	1.080743	-0.335592	0.859904
H136	H	0.399960	-0.522243	0.476766
H137	H	0.915836	-0.844663	0.300592
H138	H	0.266818	-0.516391	0.471441
C139	C	1.106746	-0.309307	1.126101
C140	C	1.159881	-0.345862	1.178766
C141	C	1.207717	-0.297571	1.221132
C142	C	1.202419	-0.212725	1.210833
C143	C	1.149283	-0.176166	1.158165
C144	C	1.101446	-0.224457	1.115799
H145	H	1.163804	-0.408674	1.186393
H146	H	1.247052	-0.324634	1.260121
H147	H	1.237830	-0.176976	1.242194
H148	H	1.145359	-0.113353	1.150538
H149	H	1.062111	-0.197393	1.076810
H150	H	1.048107	-0.848527	0.271762
H151	H	0.406475	-0.343563	0.314003
C152	C	0.906560	-0.978755	0.284653
C153	C	0.955324	-1.031979	0.244307
C154	C	0.933546	-1.057234	0.171613
C155	C	0.863004	-1.029264	0.139265
C156	C	0.814235	-0.976037	0.179611
C157	C	0.836012	-0.950783	0.252305
H158	H	1.007548	-1.052687	0.268253
H159	H	0.969649	-1.096636	0.141747
H160	H	0.846882	-1.047959	0.085453
H161	H	0.762011	-0.955330	0.155665
H162	H	0.799910	-0.911381	0.282172
C163	C	0.917938	-0.499915	1.118450
C164	C	0.870112	-0.548216	1.076089
C165	C	0.819076	-0.599795	1.114450
C166	C	0.815867	-0.603074	1.195171
C167	C	0.863695	-0.554771	1.237536
C168	C	0.914731	-0.503192	1.199175
H169	H	0.872486	-0.545791	1.016331
H170	H	0.783671	-0.635552	1.083088
H171	H	0.778087	-0.641256	1.223568
H172	H	0.861321	-0.557197	1.297295
H173	H	0.950137	-0.467436	1.230537
H174	H	0.604514	-0.308242	0.281812
C175	C	0.748648	-0.300478	0.274751
C176	C	0.797899	-0.245840	0.307326
C177	C	0.840238	-0.193440	0.259604
C178	C	0.833327	-0.195678	0.179307
C179	C	0.784074	-0.250318	0.146727
C180	C	0.741735	-0.302718	0.194449
H181	H	0.803017	-0.244182	0.366770
H182	H	0.876699	-0.152992	0.283722
H183	H	0.864669	-0.156888	0.143980
H184	H	0.778956	-0.251976	0.087283
H185	H	0.705274	-0.343166	0.170331
C186	C	0.966202	-0.989270	0.508499
C187	C	0.904285	-1.034589	0.485302
C188	C	0.851068	-1.062658	0.539940
C189	C	0.859769	-1.045408	0.617776
C190	C	0.921689	-1.000086	0.640977
C191	C	0.974906	-0.972018	0.586339
H192	H	0.897842	-1.047361	0.427679
H193	H	0.805231	-1.096208	0.522764
H194	H	0.820375	-1.066186	0.658222
H195	H	0.928132	-0.987315	0.698599
H196	H	1.020743	-0.938468	0.603515
C197	C	0.871691	-0.980655	0.408721
C198	C	0.809656	-1.023293	0.381534
C199	C	0.753006	-1.050450	0.432912
C200	C	0.758393	-1.034969	0.511477
C201	C	0.820431	-0.992328	0.538668
C202	C	0.877080	-0.965171	0.487290
H203	H	0.805666	-1.034755	0.323372
H204	H	0.707082	-1.082016	0.412784
H205	H	0.716458	-1.055072	0.549511
H206	H	0.824420	-0.980866	0.596830
H207	H	0.923005	-0.933605	0.507418
C208	C	0.890979	-0.527112	0.787255
C209	C	0.887745	-0.530374	0.867975
C210	C	0.836674	-0.581920	0.906327
C211	C	0.788836	-0.630202	0.863960
C212	C	0.792068	-0.626942	0.783236
C213	C	0.843140	-0.575396	0.744883
H214	H	0.923159	-0.494631	0.899342
H215	H	0.834281	-0.584333	0.966085
H216	H	0.751030	-0.668359	0.892351
H217	H	0.756655	-0.662685	0.751869
H218	H	0.845532	-0.572983	0.685125
H219	H	1.113035	-0.854663	0.341953
H220	H	1.048084	-0.975736	0.271455
H221	H	1.067385	-0.349076	0.783905
