data_functionalizedCrystal
_audit_creation_method	'MofGen! by Chris Wilmer'
_symmetry_space_group_name_H-M	'P1'
_symmetry_Int_Tables_number	1
_symmetry_cell_setting	triclinic
loop_
_symmetry_equiv_pos_as_xyz
  x,y,z
_cell_length_a	31.640172
_cell_length_b	14.446369
_cell_length_c	14.446369
_cell_angle_alpha	60.000250
_cell_angle_beta	89.996244
_cell_angle_gamma	59.994776
loop_
_atom_site_label
_atom_site_type_symbol
_atom_site_fract_x
_atom_site_fract_y
_atom_site_fract_z
Zr1	Zr	0.407181	1.013143	-0.121556
O2	O	0.339693	1.206270	-0.269360
O3	O	0.427870	0.820022	-0.076240
O4	O	0.427871	1.013131	-0.269359
O5	O	0.339692	1.013169	0.076088
O6	O	0.497427	1.013115	-0.269365
O7	O	0.339693	1.013161	-0.076241
O8	O	0.497425	0.667679	0.076090
O9	O	0.339694	1.358605	-0.269367
O10	O	0.488603	0.899442	-0.056925
O11	O	0.436693	0.899460	0.056761
O12	O	0.436695	1.126821	-0.170612
O13	O	0.384785	1.126838	-0.056926
Zr14	Zr	0.518115	1.013132	0.121381
Zr15	Zr	0.518116	1.013118	-0.121565
Zr16	Zr	0.407181	1.013157	0.121391
Zr17	Zr	0.407182	1.256101	-0.121567
Zr18	Zr	0.518114	0.770174	0.121392
O19	O	0.497427	1.206253	0.076065
O20	O	0.497428	1.206234	-0.269374
O21	O	0.339693	1.206289	0.076079
O22	O	0.585603	0.820006	0.269186
O23	O	0.585604	0.819987	-0.076254
O24	O	0.427869	0.820041	0.269199
O25	O	0.585604	1.013106	-0.076262
O26	O	0.497426	1.013145	0.269184
O27	O	0.427870	1.013160	0.269191
O28	O	0.585604	1.013114	0.076066
O29	O	0.427872	1.358586	-0.269375
O30	O	0.497425	0.667690	0.269200
O31	O	0.585603	0.667670	0.269192
O32	O	0.585603	0.667659	0.076082
O33	O	0.339694	1.358616	-0.076257
O34	O	0.427872	1.358596	-0.076264
O35	O	0.488602	0.899455	0.170438
O36	O	0.540511	0.899437	0.056752
O37	O	0.488603	1.126815	-0.056935
O38	O	0.436694	1.126833	0.056750
C39	C	0.462647	0.709234	-0.000073
C40	C	0.462647	0.606092	-0.000069
C41	C	0.430065	0.459094	0.071961
C42	C	0.429887	0.566714	0.071670
C43	C	0.438764	0.655087	-0.123601
C44	C	0.438519	0.547854	-0.123227
C45	C	0.519135	0.372624	0.050371
C46	C	0.519052	0.478775	0.052892
C47	C	0.323887	1.013169	-0.000075
C48	C	0.276792	1.013179	-0.000071
C49	C	-0.015213	1.013109	-0.084004
C50	C	-0.192200	1.013093	-0.084013
O51	O	-0.215072	1.013031	-0.155355
N52	N	-0.214330	1.013100	-0.000094
C53	C	-0.192210	1.013103	0.083836
O54	O	-0.215091	1.013095	0.155220
C55	C	-0.015222	1.013110	0.083848
C56	C	0.006903	1.013116	-0.000082
C57	C	0.006913	1.013114	-0.167927
C58	C	0.051155	1.013125	-0.167927
C59	C	0.073272	1.013132	-0.084005
C60	C	0.051146	1.013127	-0.000083
C61	C	0.006900	1.013103	0.167782
C62	C	0.051150	1.013102	0.167779
C63	C	0.073276	1.013108	0.083849
C64	C	0.117505	1.013145	0.083839
N65	N	0.139635	1.013138	-0.000079
C66	C	0.117519	1.013131	-0.084001
C67	C	-0.285132	1.013102	0.083822
C68	C	-0.329379	1.013102	0.083818
C69	C	-0.329365	1.013090	-0.084029
C70	C	-0.285119	1.013099	-0.084029
C71	C	-0.263001	1.013095	-0.000096
C72	C	0.210431	1.013156	-0.083997
C73	C	0.254676	1.013173	-0.083993
C74	C	0.254660	1.013178	0.083858
C75	C	0.210417	1.013169	0.083851
C76	C	0.188305	1.013153	-0.000082
O77	O	0.140408	1.013193	0.155151
O78	O	0.140415	1.013110	-0.155360
C79	C	-0.059455	1.013098	-0.084003
C80	C	-0.081581	1.013094	-0.000081
C81	C	-0.059465	1.013100	0.083841
C82	C	-0.125829	1.013094	-0.000085
C83	C	-0.147945	1.013087	-0.084007
C84	C	-0.125814	1.013080	-0.167925
C85	C	-0.081572	1.013091	-0.167925
C86	C	-0.081595	1.013108	0.167759
C87	C	-0.125838	1.013098	0.167752
C88	C	-0.147955	1.013091	0.083830
C89	C	0.601410	1.013106	-0.000099
C90	C	0.648505	1.013096	-0.000104
C91	C	0.462649	1.013121	-0.303977
C92	C	0.462649	1.013115	-0.407114
C93	C	0.462650	1.317041	-0.000101
C94	C	0.462650	1.420183	-0.000106
C95	C	0.495550	0.869723	-0.482093
C96	C	0.495408	0.869626	-0.374764
C97	C	0.406246	1.084356	-0.481672
C98	C	0.406426	1.083446	-0.588531
C99	C	0.485694	1.086381	-0.590112
C100	C	0.486836	1.083678	-0.481440
C101	C	0.462648	1.013154	0.303802
C102	C	0.462648	1.013160	0.406939
C103	C	0.601409	0.709203	-0.000085
C104	C	0.648503	0.606050	-0.000085
C105	C	0.462647	0.709251	0.303816
C106	C	0.462647	0.606115	0.406958
C107	C	0.601409	0.709220	0.303804
C108	C	0.648503	0.606073	0.406942
C109	C	0.323888	1.317055	-0.303978
C110	C	0.276794	1.420202	-0.407116
C111	C	0.323888	1.317072	-0.000089
C112	C	0.276794	1.420225	-0.000090
C113	C	0.462650	1.317024	-0.303991
C114	C	0.462650	1.420161	-0.407133
C115	C	0.643523	0.557612	-0.059433
C116	C	0.687768	0.460702	-0.059455
C117	C	0.736994	0.412227	-0.000122
C118	C	0.741973	0.460675	0.059228
C119	C	0.697728	0.557589	0.059243
C120	C	0.697719	0.557624	0.396034
C121	C	0.741973	0.460720	0.492933
C122	C	0.737010	0.412260	0.600740
C123	C	0.687788	0.460718	0.611646
C124	C	0.643535	0.557627	0.514747
C125	C	0.227578	1.468662	-0.396208
C126	C	0.183324	1.565597	-0.493108
C127	C	0.188287	1.614062	-0.600915
C128	C	0.237509	1.565598	-0.611820
C129	C	0.281762	1.468673	-0.514922
C130	C	0.281774	1.468674	0.059248
C131	C	0.237528	1.565610	0.059244
C132	C	0.188303	1.614089	-0.000093
C133	C	0.183324	1.565636	-0.059438
C134	C	0.227569	1.468708	-0.059439
C135	C	0.429749	0.459808	0.481950
C136	C	0.429888	0.566728	0.374617
C137	C	0.519050	0.479249	0.481513
C138	C	0.518873	0.371874	0.588376
C139	C	0.439606	0.546865	0.589961
C140	C	0.438461	0.655335	0.481285
H141	H	0.445907	0.530005	0.162636
H142	H	0.321835	1.429217	-0.523817
C143	C	0.075492	1.013113	-0.260242
H144	H	0.055981	1.013094	-0.310209
H145	H	0.075418	1.089040	-0.301705
H146	H	0.110090	0.937170	-0.225759
C147	C	0.553609	0.509289	0.518289
H148	H	0.533899	0.599687	0.488426
H149	H	0.566425	0.458589	0.598694
H150	H	0.581820	0.488145	0.490412
H151	H	0.465363	1.188359	-0.506958
C152	C	0.129186	1.618887	-0.481097
H153	H	0.103537	1.683566	-0.554241
H154	H	0.125307	1.549312	-0.440834
H155	H	0.125312	1.656682	-0.440818
C156	C	0.796122	0.407332	0.124499
H157	H	0.821755	0.342666	0.115995
H158	H	0.800014	0.476883	0.095209
H159	H	0.800005	0.369506	0.202579
H160	H	0.241593	1.605044	0.107574
H161	H	0.782048	0.421276	0.484033
C162	C	0.242965	1.618902	-0.730408
H163	H	0.278614	1.576168	-0.723039
H164	H	0.226822	1.603020	-0.770663
H165	H	0.226830	1.710404	-0.770680
H166	H	0.537323	0.281116	0.588105
H167	H	0.773047	0.333350	0.679632
H168	H	0.683754	0.421247	0.699435
C169	C	-0.150171	1.013089	0.260083
H170	H	-0.130655	1.013081	0.310066
H171	H	-0.184769	1.089009	0.225624
H172	H	-0.150086	0.937139	0.301541
C173	C	0.589381	0.610925	-0.124711
H174	H	0.592759	0.568197	-0.160066
H175	H	0.570989	0.595047	-0.073497
H176	H	0.570996	0.702427	-0.180870
C177	C	-0.017424	1.013075	0.260118
H178	H	0.002096	1.013059	0.310101
H179	H	-0.052022	1.088996	0.225668
H180	H	-0.017340	0.937126	0.301573
C181	C	0.382371	0.602825	-0.177806
H182	H	0.381727	0.537907	-0.178063
H183	H	0.361829	0.626903	-0.135545
H184	H	0.368920	0.677577	-0.253495
C185	C	0.222085	1.415408	-0.124699
H186	H	0.186430	1.458159	-0.160022
H187	H	0.238218	1.431270	-0.180862
H188	H	0.238214	1.323910	-0.073463
C189	C	0.682282	0.407413	-0.124728
H190	H	0.646628	0.450151	-0.160041
H191	H	0.698409	0.423295	-0.180900
H192	H	0.698418	0.315911	-0.073498
C193	C	0.471823	0.513386	0.695615
H194	H	0.457713	0.590305	0.693347
H195	H	0.471051	0.449940	0.761901
H196	H	0.506584	0.479271	0.696765
H197	H	-0.011090	1.013104	-0.236267
H198	H	0.152280	1.693014	-0.000082
H199	H	0.773017	0.333312	-0.000142
H200	H	0.143239	1.605122	-0.107748
C201	C	0.552091	0.337517	-0.020192
H202	H	0.586177	0.308861	0.010713
H203	H	0.553380	0.269552	-0.018509
H204	H	0.537045	0.412501	-0.096318
C205	C	0.589398	0.610904	0.526754
H206	H	0.563750	0.675567	0.453611
H207	H	0.585526	0.541320	0.567033
H208	H	0.585519	0.648718	0.567019
C209	C	0.139606	1.720660	-0.707493
H210	H	0.109585	1.742561	-0.685546
H211	H	0.139594	1.796284	-0.751350
H212	H	0.139601	1.688879	-0.751323
C213	C	0.703212	0.610846	0.124545
H214	H	0.738867	0.568079	0.159885
H215	H	0.687080	0.702343	0.073343
H216	H	0.687082	0.594943	0.180716
H217	H	-0.347395	1.013118	0.152152
H218	H	0.396908	0.745836	0.429865
C219	C	-0.353695	1.013075	-0.176340
H220	H	-0.334183	1.013075	-0.226327
H221	H	-0.353620	0.937144	-0.141854
H222	H	-0.388293	1.089014	-0.217800
H223	H	0.701770	0.597067	0.308261
H224	H	0.459936	0.687457	0.506804
C225	C	0.474156	0.794049	-0.480673
H226	H	0.494255	0.707489	-0.413350
H227	H	0.439196	0.837078	-0.483014
H228	H	0.475826	0.790878	-0.544777
C229	C	0.553795	0.331380	0.694534
H230	H	0.553921	0.265548	0.760503
H231	H	0.588056	0.298238	0.692218
H232	H	0.540946	0.405376	0.696378
H233	H	0.460720	0.525877	-0.179840
C234	C	0.546080	0.246034	0.171393
H235	H	0.523130	0.221001	0.192269
H236	H	0.576295	0.178273	0.173878
H237	H	0.555425	0.260747	0.222704
H238	H	0.223526	1.429207	-0.308435
C239	C	0.473791	0.793706	-0.302118
H240	H	0.473628	0.793390	-0.236199
H241	H	0.439471	0.834700	-0.344861
H242	H	0.494938	0.706187	-0.280463
H243	H	-0.267126	1.013100	0.152173
C244	C	0.335916	1.415363	0.124525
H245	H	0.332538	1.458120	0.159850
H246	H	0.354304	1.323869	0.180687
H247	H	0.354305	1.431242	0.073297
C248	C	0.186110	1.013151	-0.176326
H249	H	0.205627	1.013168	-0.226307
H250	H	0.186186	0.937221	-0.141866
H251	H	0.151512	1.089091	-0.217786
H252	H	0.537629	0.440684	0.429906
H253	H	0.388354	0.656085	0.320348
H254	H	0.272688	1.013181	-0.152343
H255	H	0.069158	1.013094	0.236131
C256	C	0.373500	0.510089	0.478808
H257	H	0.369576	0.507380	0.545141
H258	H	0.350692	0.597633	0.413732
H259	H	0.365532	0.456241	0.475643
H260	H	0.536894	0.439175	0.143899
H261	H	0.445586	0.370138	0.480917
C262	C	0.451463	0.516137	0.301927
H263	H	0.460184	0.430075	0.337965
H264	H	0.426015	0.572269	0.229334
H265	H	0.481505	0.514836	0.293649
C266	C	0.453479	1.229124	-0.695771
H267	H	0.467589	1.272868	-0.693505
H268	H	0.454253	1.230265	-0.762053
H269	H	0.418717	1.272308	-0.696927
C270	C	0.373604	0.686704	0.024370
H271	H	0.350759	0.669794	0.005248
H272	H	0.366070	0.703609	0.080076
H273	H	0.369258	0.760738	-0.041418
C274	C	0.383157	0.779818	-0.178583
H275	H	0.374411	0.802209	-0.126447
H276	H	0.380946	0.849647	-0.244825
H277	H	0.359808	0.764542	-0.198380
C278	C	0.384345	0.600344	0.595525
H279	H	0.371154	0.676756	0.593637
H280	H	0.362747	0.621423	0.532547
H281	H	0.385046	0.535840	0.663839
C282	C	0.554615	0.507801	-0.010643
H283	H	0.535442	0.598348	-0.070573
H284	H	0.582567	0.485190	0.040367
H285	H	0.567767	0.457786	-0.040950
H286	H	0.446000	0.370227	0.163153
H287	H	0.388646	0.494864	0.037260
H288	H	0.461358	0.683864	-0.179618
C289	C	0.542969	1.013525	-0.411983
H290	H	0.557389	1.056665	-0.457407
H291	H	0.543280	1.015388	-0.347192
H292	H	0.562871	0.925238	-0.388511
C293	C	-0.260781	1.013087	-0.176341
H294	H	-0.280292	1.013074	-0.226314
H295	H	-0.260852	1.089011	-0.217799
H296	H	-0.226183	0.937141	-0.141857
H297	H	0.272673	1.013189	0.152183
C298	C	0.186073	1.013185	0.176159
H299	H	0.205583	1.013191	0.226139
H300	H	0.151474	1.089109	0.141682
H301	H	0.186155	0.937239	0.217623
H302	H	0.536941	0.813733	-0.320491
C303	C	-0.057236	1.013083	-0.260242
H304	H	-0.076747	1.013065	-0.310209
H305	H	-0.057310	1.089012	-0.301704
H306	H	-0.022638	0.937142	-0.225761
H307	H	-0.143830	1.013081	-0.236261
H308	H	-0.063591	1.013111	0.236100
C309	C	0.381497	1.015086	-0.588175
H310	H	0.371359	0.988123	-0.522850
H311	H	0.351953	1.074224	-0.654358
H312	H	0.405804	0.940718	-0.587076
H313	H	0.537191	0.813420	-0.479755
H314	H	0.380667	1.189859	-0.508905
C315	C	0.371502	1.225604	-0.694690
H316	H	0.357264	1.283655	-0.672378
H317	H	0.391394	1.244494	-0.740674
H318	H	0.344290	1.236368	-0.736498
H319	H	0.526601	1.040473	-0.594229
C320	C	0.381144	1.017528	-0.411967
H321	H	0.404948	0.946223	-0.337444
H322	H	0.350890	1.078906	-0.408371
H323	H	0.372118	0.986199	-0.447076
