data_functionalizedCrystal
_audit_creation_method	'MofGen! by Chris Wilmer'
_symmetry_space_group_name_H-M	'P1'
_symmetry_Int_Tables_number	1
_symmetry_cell_setting	triclinic
loop_
_symmetry_equiv_pos_as_xyz
  x,y,z
_cell_length_a	8.597340
_cell_length_b	15.538191
_cell_length_c	14.185569
_cell_angle_alpha	97.872928
_cell_angle_beta	69.187484
_cell_angle_gamma	66.484156
loop_
_atom_site_label
_atom_site_type_symbol
_atom_site_fract_x
_atom_site_fract_y
_atom_site_fract_z
O1	O	2.056461	0.116206	-0.094334
O2	O	1.569445	0.137493	-0.052240
O3	O	1.907752	-0.011503	-0.081476
O4	O	1.718154	0.265203	-0.065098
O5	O	2.007688	-0.055514	-0.256946
O6	O	1.669381	0.093483	-0.227711
O7	O	2.156397	0.072196	-0.269804
Cu8	Cu	1.922014	0.078821	-0.264779
Cu9	Cu	1.803828	0.130868	-0.057265
O10	O	1.818090	0.221193	-0.240569
C11	C	1.558605	0.115654	-0.134719
C12	C	1.377423	0.116137	-0.119059
C13	C	1.977556	-0.068860	-0.170922
C14	C	2.036639	-0.174194	-0.176019
C15	C	1.449614	-0.454405	-0.125303
C16	C	1.505180	-0.553390	-0.130108
C17	C	1.817720	-0.579871	-0.157121
C18	C	1.762177	-0.480885	-0.152313
C19	C	1.578122	-0.418160	-0.136405
C20	C	1.890685	-0.444640	-0.163415
C21	C	1.835149	-0.345665	-0.158613
C22	C	1.651105	-0.282934	-0.142709
C23	C	1.522586	-0.319185	-0.131603
C24	C	2.074743	-0.507369	-0.179330
C25	C	2.203251	-0.471124	-0.190432
C26	C	2.147712	-0.372145	-0.185623
C27	C	1.963667	-0.309415	-0.169719
C28	C	2.276230	-0.335895	-0.196729
C29	C	2.220694	-0.236919	-0.191927
C30	C	1.908131	-0.210439	-0.164917
C31	C	2.167236	0.094036	-0.187323
C32	C	2.348414	0.093555	-0.202976
C33	C	1.748286	0.278549	-0.151120
C34	C	1.689198	0.383886	-0.146016
N35	N	2.005152	0.042213	-0.410735
C36	C	1.476473	0.274981	-0.732698
C37	C	1.539456	0.247258	-0.843162
C38	C	1.839044	0.115368	-0.869013
C39	C	1.776082	0.143078	-0.758548
C40	C	1.594796	0.222886	-0.690399
C41	C	1.894405	0.090983	-0.716249
C42	C	1.831451	0.118694	-0.605794
C43	C	1.650174	0.198500	-0.537638
C44	C	1.531842	0.250597	-0.579944
C45	C	2.075695	0.011180	-0.784401
C46	C	2.194018	-0.040916	-0.742102
C47	C	2.131060	-0.013209	-0.631645
C48	C	1.949783	0.066597	-0.563489
C49	C	2.249392	-0.065306	-0.589339
C50	C	2.186438	-0.037595	-0.478884
C51	C	1.886829	0.094308	-0.453034
N52	N	1.720708	0.167468	0.088689
H53	H	1.758251	-0.159362	-0.151955
C54	C	1.502111	0.066948	-0.316228
N55	N	1.617880	0.046914	-0.401531
H56	H	2.282792	-0.080016	-0.444445
H57	H	1.263636	0.135842	-0.035224
H58	H	1.605894	-0.202344	-0.138805
C59	C	1.320115	-0.250180	-0.114102
N60	N	1.167623	-0.198208	-0.100925
C61	C	1.247143	-0.385401	-0.107802
N62	N	1.094651	-0.333428	-0.094625
H63	H	1.598923	0.221065	-0.447700
C64	C	1.363792	-0.593252	-0.117887
N65	N	1.257300	-0.623277	-0.108682
C66	C	2.020174	-0.648878	-0.174618
N67	N	2.172664	-0.700853	-0.187793
H68	H	2.126949	-0.011376	-0.874340
C69	C	2.405705	-0.540132	-0.207929
N70	N	2.558195	-0.592107	-0.221105
C71	C	2.448806	-0.153089	-0.664318
N72	N	2.599007	-0.219209	-0.720792
H73	H	2.119949	-0.587958	-0.183230
C74	C	2.362056	-0.197046	-0.204134
N75	N	2.468535	-0.167014	-0.213330
C76	C	2.478689	-0.404907	-0.214236
N77	N	2.631184	-0.456887	-0.227423
H78	H	1.739200	0.159289	-0.397542
H79	H	1.384213	0.315578	-0.524452
H80	H	1.328844	0.339962	-0.677206
H81	H	1.443088	0.289688	-0.877594
H82	H	2.341627	-0.105894	-0.797602
C83	C	2.038452	0.027579	-0.943988
N84	N	2.188645	-0.038549	-1.000459
