data_functionalizedCrystal
_audit_creation_method	'MofGen! by Chris Wilmer'
_symmetry_space_group_name_H-M	'P1'
_symmetry_Int_Tables_number	1
_symmetry_cell_setting	triclinic
loop_
_symmetry_equiv_pos_as_xyz
  x,y,z
_cell_length_a	8.597340
_cell_length_b	15.944493
_cell_length_c	7.681481
_cell_angle_alpha	84.264607
_cell_angle_beta	103.474906
_cell_angle_gamma	84.409319
loop_
_atom_site_label
_atom_site_type_symbol
_atom_site_fract_x
_atom_site_fract_y
_atom_site_fract_z
O1	O	2.099815	0.116163	0.172176
O2	O	1.635751	0.129547	0.101768
O3	O	1.880502	0.000577	0.138887
O4	O	1.855064	0.245133	0.135057
O5	O	1.910627	-0.015333	0.436313
O6	O	1.665876	0.113637	0.399194
O7	O	2.129940	0.100253	0.469602
Zn8	Zn	1.902691	0.104419	0.481621
Zn9	Zn	1.863000	0.125381	0.089749
O10	O	1.885189	0.229223	0.432483
C11	C	1.591430	0.121041	0.241471
C12	C	1.414486	0.119389	0.214624
C13	C	1.894524	-0.038673	0.287435
C14	C	1.891404	-0.131920	0.286939
C15	C	2.035475	-0.367690	0.308831
C16	C	1.942932	-0.410409	0.150398
C17	C	1.885630	-0.302642	0.286084
C18	C	1.972598	-0.426071	0.443632
C19	C	1.880065	-0.467552	0.285269
C20	C	1.793115	-0.344126	0.127537
C21	C	1.822816	-0.359792	0.420906
C22	C	1.730160	-0.402476	0.262420
C23	C	1.888841	-0.207641	0.286554
C24	C	1.876841	-0.562550	0.284785
C25	C	2.174261	0.108759	0.329895
C26	C	2.351203	0.110412	0.356730
C27	C	1.871167	0.268473	0.283931
C28	C	1.874285	0.361720	0.284415
N29	N	1.929791	0.090112	0.749065
N30	N	1.835913	0.139681	-0.177693
H31	H	1.432394	0.103984	0.498939
C32	C	2.209821	-0.346572	0.335089
N33	N	2.341135	-0.330664	0.354857
C34	C	1.690710	-0.296221	-0.053106
N35	N	1.613586	-0.260138	-0.189166
C36	C	1.555646	-0.423358	0.235838
N37	N	1.424204	-0.439088	0.215808
C38	C	1.706441	0.208029	0.701083
N39	N	1.608918	0.259509	0.609765
H40	H	1.333288	0.125811	0.072406
C41	C	2.059269	0.021760	0.870297
N42	N	2.156788	-0.029723	0.961610
H43	H	1.993656	-0.432726	0.036019
H44	H	2.048466	-0.461637	0.577207
C45	C	1.754358	-0.329627	0.575447
N46	N	1.702805	-0.306909	0.691864
