data_functionalizedCrystal
_audit_creation_method	'MofGen! by Chris Wilmer'
_symmetry_space_group_name_H-M	'P1'
_symmetry_Int_Tables_number	1
_symmetry_cell_setting	triclinic
loop_
_symmetry_equiv_pos_as_xyz
  x,y,z
_cell_length_a	12.759401
_cell_length_b	13.031981
_cell_length_c	12.759393
_cell_angle_alpha	82.783445
_cell_angle_beta	89.979062
_cell_angle_gamma	97.193318
loop_
_atom_site_label
_atom_site_type_symbol
_atom_site_fract_x
_atom_site_fract_y
_atom_site_fract_z
Zn1	Zn	1.553159	-0.416025	-0.540846
Zn2	Zn	1.530734	-0.590838	-0.342822
Zn3	Zn	1.377451	-0.416080	-0.365174
Zn4	Zn	1.355143	-0.590765	-0.518469
O5	O	1.454122	-0.503427	-0.441828
O6	O	1.697204	-0.439221	-0.514588
O7	O	1.510352	-0.567710	-0.198759
O8	O	1.419479	-0.269807	-0.407196
O9	O	1.680729	-0.567656	-0.369101
O10	O	1.548571	-0.269766	-0.536262
O11	O	1.397735	-0.439316	-0.215181
O12	O	1.227471	-0.439245	-0.385498
O13	O	1.381459	-0.567531	-0.668465
O14	O	1.211082	-0.567585	-0.498123
O15	O	1.526941	-0.439151	-0.684905
O16	O	1.488721	-0.737094	-0.347403
O17	O	1.359715	-0.737040	-0.476450
C18	C	1.181156	-0.503414	-0.441808
C19	C	1.064377	-0.503434	-0.441822
C20	C	1.419393	-0.774992	-0.407096
C21	C	1.404632	-0.891169	-0.392272
C22	C	1.000996	-0.570362	-0.500347
C23	C	0.891271	-0.570366	-0.500367
C24	C	0.908319	-0.436511	-0.383329
C25	C	1.018042	-0.436502	-0.383315
C26	C	0.736587	-0.607871	-0.619434
C27	C	0.673200	-0.674815	-0.677948
C28	C	0.695777	-0.776820	-0.680858
C29	C	0.781736	-0.811900	-0.625236
C30	C	0.845116	-0.744961	-0.566714
C31	C	0.822544	-0.642942	-0.563826
C32	C	1.172726	-0.399008	-0.264245
C33	C	1.236108	-0.332074	-0.205717
C34	C	1.213534	-0.230068	-0.202796
C35	C	1.127571	-0.194991	-0.258399
C36	C	1.064189	-0.261925	-0.316927
C37	C	1.086771	-0.363930	-0.319850
C38	C	1.461881	-0.942861	-0.449585
C39	C	1.446627	-1.062935	-0.434266
C40	C	1.728153	-0.503440	-0.441847
C41	C	1.844929	-0.503446	-0.441856
C42	C	1.454213	-0.503327	-0.715874
C43	C	1.454252	-0.503284	-0.832656
C44	C	1.489015	-0.230801	-0.476718
C45	C	1.503884	-0.114624	-0.491587
C46	C	1.530011	-0.436425	-0.896082
C47	C	1.530034	-0.436380	-1.005812
C48	C	1.378537	-0.570061	-0.988680
C49	C	1.378509	-0.570100	-0.878952
C50	C	1.583389	-0.313060	-1.171552
C51	C	1.659162	-0.246211	-1.234980
C52	C	1.763721	-0.230183	-1.201437
C53	C	1.792525	-0.281020	-1.104466
C54	C	1.716756	-0.347877	-1.041043
C55	C	1.612185	-0.363885	-1.074586
C56	C	1.325166	-0.693421	-0.713210
C57	C	1.249400	-0.760285	-0.649784
C58	C	1.144838	-0.776323	-0.683323
C59	C	1.116036	-0.725505	-0.780295
C60	C	1.191801	-0.658642	-0.843722
C61	C	1.296362	-0.642601	-0.810175
C62	C	1.454101	-0.503451	-0.168857
C63	C	1.454303	-0.503200	-0.052113
H64	H	1.038718	-0.624860	-0.547990
Br65	Br	1.934441	-0.259283	-1.058959
Br66	Br	1.632802	-0.345744	-0.833254
Br67	Br	1.096919	-0.056555	-0.254425
H68	H	1.740209	-0.389271	-0.962093
Br69	Br	1.346093	-1.137323	-0.333580
H70	H	1.498248	-0.326096	-1.198868
Br71	Br	1.304102	-0.965560	-0.291591
Br72	Br	1.203255	-0.537511	-0.268053
Br73	Br	1.562387	-0.868469	-0.550290
H74	H	1.564192	-1.069990	-0.552004
Br75	Br	1.275751	-0.660740	-1.051517
Br76	Br	1.866556	-0.139464	-1.287523
Br77	Br	1.620074	-0.177224	-1.366580
H78	H	1.168342	-0.617263	-0.922682
H79	H	1.030894	-0.738567	-0.807606
H80	H	1.083153	-0.830778	-0.631675
Br81	Br	0.705957	-0.469422	-0.615512
H82	H	0.800102	-0.894967	-0.627601
Br83	Br	1.288493	-0.829268	-0.518185
H84	H	1.410307	-0.680360	-0.685888
H85	H	1.265145	-0.175574	-0.155126
Br86	Br	0.609754	-0.867668	-0.760276
Br87	Br	0.961766	-0.792560	-0.491227
Br88	Br	0.556548	-0.627208	-0.753434
H89	H	0.870579	-0.382019	-0.335693
H90	H	0.994200	-0.233354	-0.362211
Br91	Br	1.352760	-0.379686	-0.130233
