data_functionalizedCrystal
_audit_creation_method	'MofGen! by Chris Wilmer'
_symmetry_space_group_name_H-M	'P1'
_symmetry_Int_Tables_number	1
_symmetry_cell_setting	triclinic
loop_
_symmetry_equiv_pos_as_xyz
  x,y,z
_cell_length_a	19.805407
_cell_length_b	14.908579
_cell_length_c	19.805399
_cell_angle_alpha	93.273228
_cell_angle_beta	90.020409
_cell_angle_gamma	86.675902
loop_
_atom_site_label
_atom_site_type_symbol
_atom_site_fract_x
_atom_site_fract_y
_atom_site_fract_z
Zn1	Zn	1.019199	0.359135	0.398295
Zn2	Zn	1.012587	0.510001	0.291643
Zn3	Zn	0.906013	0.359165	0.285119
Zn4	Zn	0.899453	0.509958	0.404786
O5	O	0.959313	0.434565	0.344961
O6	O	1.113038	0.379153	0.384161
O7	O	0.998428	0.490023	0.196062
O8	O	0.926539	0.232916	0.294685
O9	O	1.108181	0.489994	0.305804
O10	O	1.009697	0.232894	0.377835
O11	O	0.920128	0.379204	0.191269
O12	O	0.810426	0.379163	0.300979
O13	O	0.915359	0.489921	0.498640
O14	O	0.805606	0.489950	0.388898
O15	O	1.003336	0.379112	0.493871
O16	O	0.992067	0.636241	0.312099
O17	O	0.908948	0.636209	0.395224
C18	C	0.783457	0.434556	0.344936
C19	C	0.708225	0.434573	0.344942
C20	C	0.248962	0.376958	0.385858
C21	C	0.319650	0.376960	0.385853
C22	C	0.352463	0.434579	0.344983
C23	C	0.314582	0.492206	0.304120
C24	C	0.243895	0.492208	0.304129
C25	C	0.599656	0.492199	0.304084
C26	C	0.670348	0.492190	0.304077
C27	C	0.675411	0.376951	0.385808
C28	C	0.604724	0.376953	0.385817
C29	C	0.566850	0.434583	0.344957
C30	C	0.490201	0.434582	0.344964
C31	C	0.429110	0.434576	0.344972
C32	C	0.949097	0.668959	0.355089
C33	C	0.944788	0.769234	0.359444
C34	C	1.023333	0.957633	0.281139
C35	C	1.019287	1.051850	0.285229
C36	C	0.932654	1.051887	0.371717
C37	C	0.936700	0.957670	0.367627
C38	C	0.982040	0.910546	0.322336
C39	C	0.986083	0.816327	0.318243
C40	C	0.899453	0.816366	0.404734
C41	C	0.895407	0.910583	0.408824
C42	C	1.135855	0.434575	0.344986
C43	C	1.211087	0.434579	0.344997
C44	C	0.969583	1.199255	0.334817
C45	C	0.973948	1.098980	0.330516
C46	C	0.959353	0.434508	0.521501
C47	C	0.959371	0.434484	0.596732
C48	C	0.959314	0.434556	0.169104
C49	C	0.959439	0.434326	0.093863
C50	C	1.005181	0.376783	0.629594
C51	C	1.005190	0.376757	0.700281
C52	C	0.959389	0.434437	0.738106
C53	C	0.913574	0.492140	0.705239
C54	C	0.913563	0.492161	0.634553
C55	C	0.913616	0.492056	0.990309
C56	C	0.913631	0.492033	1.061000
C57	C	1.005242	0.376651	1.056037
C58	C	1.005231	0.376672	0.985351
C59	C	0.959414	0.434372	0.952490
C60	C	0.959405	0.434399	0.875843
C61	C	0.959401	0.434415	0.814752
H62	H	0.350485	0.330042	0.419129
O63	O	0.868997	0.548090	0.602597
C64	C	0.777094	0.560259	0.523270
C65	C	0.827520	0.496816	0.559421
H66	H	0.743556	0.518831	0.488344
H67	H	0.744316	0.601465	0.562418
H68	H	0.806117	0.607463	0.492249
H69	H	0.798552	0.449558	0.590440
H70	H	0.860297	0.455674	0.520239
H71	H	0.222252	0.330033	0.419135
H72	H	0.341303	0.539124	0.270846
O73	O	0.562799	0.548049	0.264355
C74	C	0.482453	0.560037	0.173462
C75	C	0.524148	0.496683	0.218419
H76	H	0.451204	0.518531	0.136302
H77	H	0.447272	0.607250	0.206489
H78	H	0.518057	0.601236	0.144279
H79	H	0.488595	0.455424	0.247609
H80	H	0.559337	0.449528	0.185356
H81	H	1.042495	0.329773	0.727034
O82	O	0.869049	0.547974	0.958351
C83	C	0.777154	0.560114	0.879013
C84	C	0.827578	0.496685	0.915178
H85	H	0.743621	0.518674	0.844088
H86	H	0.744370	0.601327	0.918152
H87	H	0.806177	0.607313	0.847988
H88	H	0.798609	0.449433	0.946201
H89	H	0.860361	0.455536	0.876005
H90	H	1.022999	0.777960	0.281363
H91	H	1.060247	0.919264	0.244256
H92	H	1.052913	1.090184	0.251684
H93	H	0.876280	0.539101	0.736041
O94	O	0.572957	0.320954	0.425581
C95	C	0.585443	0.206614	0.506624
C96	C	0.621503	0.269999	0.461633
H97	H	0.624676	0.165387	0.535773
H98	H	0.550578	0.248056	0.543804
H99	H	0.554372	0.159428	0.473562
H100	H	0.652609	0.317198	0.494641
H101	H	0.656328	0.228502	0.424449
O102	O	0.888630	1.097811	0.415653
C103	C	0.844041	1.242980	0.460311
C104	C	0.893917	1.191084	0.410515
H105	H	0.848308	1.318400	0.456184
H106	H	0.790244	1.224606	0.447570
H107	H	0.856682	1.224343	0.514084
H108	H	0.881338	1.209693	0.356724
H109	H	0.947699	1.209462	0.423314
H110	H	0.865827	0.778018	0.438277
H111	H	0.213058	0.539131	0.270857
H112	H	0.858494	0.948965	0.445700
O113	O	0.702115	0.548256	0.264360
C114	C	0.689638	0.662538	0.183270
C115	C	0.653576	0.599110	0.228226
H116	H	0.650412	0.703657	0.154034
H117	H	0.720668	0.709815	0.216300
H118	H	0.724543	0.621043	0.146159
H119	H	0.618639	0.640532	0.265343
H120	H	0.622589	0.551831	0.195154
H121	H	1.042529	0.329706	0.954558
O122	O	1.049698	0.320666	0.592955
C123	C	1.140592	0.206251	0.595503
C124	C	1.090204	0.269746	0.637075
H125	H	1.173364	0.165080	0.631157
H126	H	1.111607	0.159026	0.560384
H127	H	1.174141	0.247696	0.564186
H128	H	1.056642	0.228375	0.668432
H129	H	1.119231	0.316974	0.672151
H130	H	0.706257	0.330028	0.419081
H131	H	1.042547	0.329666	1.082801
H132	H	0.876332	0.539005	1.091795
