data_functionalizedCrystal
_audit_creation_method	'MofGen! by Chris Wilmer'
_symmetry_space_group_name_H-M	'P1'
_symmetry_Int_Tables_number	1
_symmetry_cell_setting	triclinic
loop_
_symmetry_equiv_pos_as_xyz
  x,y,z
_cell_length_a	15.625950
_cell_length_b	11.792254
_cell_length_c	14.185569
_cell_angle_alpha	76.752482
_cell_angle_beta	120.545593
_cell_angle_gamma	84.222761
loop_
_atom_site_label
_atom_site_type_symbol
_atom_site_fract_x
_atom_site_fract_y
_atom_site_fract_z
O1	O	1.290822	0.029368	0.385973
O2	O	1.790822	0.529368	0.885973
O3	O	1.002965	0.079248	0.281295
O4	O	1.502965	0.579248	0.781295
O5	O	1.153874	-0.111684	0.336180
O6	O	1.653874	0.388316	0.836180
O7	O	1.139912	0.220301	0.331088
O8	O	1.639912	0.720301	0.831088
O9	O	1.198454	-0.168082	0.519227
O10	O	1.698454	0.331918	1.019227
O11	O	1.047545	0.022850	0.464343
O12	O	1.547545	0.522850	0.964343
O13	O	1.335402	-0.027029	0.569021
O14	O	1.835402	0.472971	1.069021
Cu15	Cu	1.195544	-0.007239	0.533396
Cu16	Cu	1.695544	0.492761	1.033396
Cu17	Cu	1.142823	0.059458	0.316920
Cu18	Cu	1.642823	0.559458	0.816920
O19	O	1.184492	0.163903	0.514136
O20	O	1.684492	0.663903	1.014136
C21	C	0.988402	0.054375	0.359418
C22	C	1.488402	0.554375	0.859418
C23	C	0.878594	0.064272	0.319487
C24	C	1.378594	0.564272	0.819487
C25	C	0.638827	-0.056786	0.686921
C26	C	1.138827	0.443214	1.186921
C27	C	0.535631	-0.047448	0.649348
C28	C	1.035631	0.452552	1.149348
C29	C	0.487082	0.014030	0.449815
C30	C	0.987082	0.514030	0.949815
C31	C	0.590276	0.004703	0.487371
C32	C	1.090276	0.504703	0.987371
C33	C	0.666141	-0.030707	0.605926
C34	C	1.166141	0.469293	1.105926
C35	C	0.617590	0.030781	0.406376
C36	C	1.117590	0.530781	0.906376
C37	C	0.720775	0.021449	0.443929
C38	C	1.220775	0.521449	0.943929
C39	C	0.796646	-0.013963	0.562479
C40	C	1.296646	0.486037	1.062479
C41	C	0.769326	-0.040040	0.643479
C42	C	1.269326	0.459960	1.143479
C43	C	0.541724	0.066183	0.287822
C44	C	1.041724	0.566183	0.787822
C45	C	0.569038	0.092262	0.206827
C46	C	1.069038	0.592262	0.706827
C47	C	0.672224	0.082937	0.244380
C48	C	1.172224	0.582937	0.744380
C49	C	0.748095	0.047526	0.362929
C50	C	1.248095	0.547526	0.862929
C51	C	0.699544	0.109014	0.163379
C52	C	1.199544	0.609014	0.663379
C53	C	0.802729	0.099682	0.200933
C54	C	1.302729	0.599682	0.700933
C55	C	0.851280	0.038193	0.400482
C56	C	1.351280	0.538193	0.900482
C57	C	1.175285	-0.182070	0.427383
C58	C	1.675285	0.317930	0.927383
C59	C	1.172653	-0.307774	0.426425
C60	C	1.672653	0.192226	0.926425
C61	C	1.170514	-0.409858	0.425644
C62	C	1.670514	0.090142	0.925644
C63	C	1.167837	-0.537927	0.424661
C64	C	1.667837	-0.037927	0.924661
C65	C	1.349964	-0.002156	0.490895
C66	C	1.849964	0.497844	0.990895
C67	C	1.459770	-0.012050	0.530819
C68	C	1.959770	0.487950	1.030819
C69	C	1.163081	0.234290	0.422930
C70	C	1.663081	0.734290	0.922930
C71	C	1.165711	0.359995	0.423881
C72	C	1.665711	0.859995	0.923881
N73	N	1.232632	-0.054151	0.685655
N74	N	1.732632	0.445849	1.185655
N75	N	1.105742	0.106360	0.164663
N76	N	1.605742	0.606360	0.664663
C77	C	0.996776	0.244139	0.967526
C78	C	1.496776	0.744139	1.467526
C79	C	1.024877	0.208611	1.082768
C80	C	1.524877	0.708611	1.582768
C81	C	1.158535	0.039594	1.131339
C82	C	1.658535	0.539594	1.631339
C83	C	1.130442	0.075105	1.016098
C84	C	1.630442	0.575105	1.516098
C85	C	1.049563	0.177379	0.934200
C86	C	1.549563	0.677379	1.434200
C87	C	1.183229	0.008346	0.982772
C88	C	1.683229	0.508346	1.482772
C89	C	1.155141	0.043858	0.867543
C90	C	1.655141	0.543858	1.367543
C91	C	1.074267	0.146130	0.785639
C92	C	1.574267	0.646130	1.285639
C93	C	1.021475	0.212892	0.818971
C94	C	1.521475	0.712892	1.318971
C95	C	1.264112	-0.093923	1.064674
C96	C	1.764112	0.406077	1.564674
C97	C	1.316899	-0.160683	1.031348
C98	C	1.816899	0.339317	1.531348
C99	C	1.288807	-0.125176	0.916115
C100	C	1.788807	0.374824	1.416115
C101	C	1.207933	-0.022904	0.834211
C102	C	1.707933	0.477096	1.334211
C103	C	1.341599	-0.191937	0.882783
C104	C	1.841599	0.308063	1.382783
C105	C	1.313511	-0.156425	0.767553
C106	C	1.813511	0.343575	1.267553
C107	C	1.179846	0.012609	0.718981
C108	C	1.679846	0.512609	1.218981
H109	H	0.457705	0.073786	0.257250
H110	H	0.957705	0.573786	0.757250
H111	H	0.880665	-0.021562	0.593053
H112	H	1.380665	0.478438	1.093053
Br113	Br	0.953230	0.299235	1.127986
Br114	Br	1.453230	0.799235	1.627986
H115	H	0.831099	-0.068856	0.740017
H116	H	1.331099	0.431144	1.240017
H117	H	1.407458	-0.275203	0.949481
H118	H	1.907458	0.224797	1.449481
H119	H	1.356497	-0.210788	0.740421
H120	H	1.856497	0.289212	1.240421
Br121	Br	0.886995	0.382929	0.856367
Br122	Br	1.386995	0.882929	1.356367
Br123	Br	0.741794	-0.104823	0.847818
Br124	Br	1.241794	0.395177	1.347818
H125	H	1.051402	0.175046	0.691814
H126	H	1.551402	0.675046	1.191814
H127	H	0.507256	0.121087	0.110300
H128	H	1.007256	0.621087	0.610300
Br129	Br	1.268301	-0.099198	1.242493
Br130	Br	1.768301	0.400802	1.742493
Br131	Br	0.384121	0.062039	0.288927
Br132	Br	0.884121	0.562039	0.788927
Br133	Br	1.426665	-0.299475	1.142502
Br134	Br	1.926665	0.200525	1.642502
H135	H	0.513396	-0.068660	0.715313
H136	H	1.013396	0.431340	1.215313
Br137	Br	0.596581	0.157012	0.002492
Br138	Br	1.096581	0.657012	0.502492
Br139	Br	0.954248	-0.009843	0.561379
Br140	Br	1.454248	0.490157	1.061379
H141	H	0.824967	0.120924	0.134977
H142	H	1.324967	0.620924	0.634977
H143	H	1.113979	0.095883	0.652292
H144	H	1.613979	0.595883	1.152292
H145	H	1.286981	-0.122830	1.158501
H146	H	1.786981	0.377170	1.658501
H147	H	0.955608	0.296166	0.752281
H148	H	1.455608	0.796166	1.252281
