data_functionalizedCrystal
_audit_creation_method	'MofGen! by Chris Wilmer'
_symmetry_space_group_name_H-M	'P1'
_symmetry_Int_Tables_number	1
_symmetry_cell_setting	triclinic
loop_
_symmetry_equiv_pos_as_xyz
  x,y,z
_cell_length_a	12.827893
_cell_length_b	13.031981
_cell_length_c	12.827885
_cell_angle_alpha	97.216746
_cell_angle_beta	90.019272
_cell_angle_gamma	97.191799
loop_
_atom_site_label
_atom_site_type_symbol
_atom_site_fract_x
_atom_site_fract_y
_atom_site_fract_z
Zn1	Zn	1.544847	-0.416067	0.537948
Zn2	Zn	1.522547	-0.590879	0.340982
Zn3	Zn	1.370082	-0.416117	0.363215
Zn4	Zn	1.347890	-0.590801	0.515692
O5	O	1.446341	-0.503466	0.439459
O6	O	1.688123	-0.439267	0.511830
O7	O	1.502277	-0.567750	0.197688
O8	O	1.411885	-0.269845	0.405013
O9	O	1.671740	-0.567701	0.367119
O10	O	1.540284	-0.269808	0.533388
O11	O	1.390262	-0.439354	0.214023
O12	O	1.220903	-0.439278	0.383432
O13	O	1.374061	-0.567568	0.664887
O14	O	1.204599	-0.567618	0.495456
O15	O	1.518765	-0.439192	0.681239
O16	O	1.480758	-0.737134	0.345538
O17	O	1.352438	-0.737077	0.473897
C18	C	1.174834	-0.503446	0.439442
C19	C	1.058679	-0.503462	0.439456
C20	C	0.998841	-0.567068	0.494778
C21	C	0.878788	-0.567087	0.494794
C22	C	1.411799	-0.775030	0.404913
C23	C	1.397117	-0.891207	0.390168
C24	C	1.454059	-0.942900	0.447175
C25	C	1.438886	-1.062974	0.431938
C26	C	1.718909	-0.503487	0.439477
C27	C	1.835061	-0.503496	0.439485
C28	C	1.446425	-0.503366	0.712042
C29	C	1.446461	-0.503323	0.828201
C30	C	1.481047	-0.230841	0.474163
C31	C	1.495837	-0.114665	0.488952
C32	C	1.446327	-0.503491	0.167946
C33	C	1.446532	-0.503239	0.051825
C34	C	1.518073	-0.439786	0.888078
C35	C	1.518112	-0.439740	1.008135
H36	H	0.886482	-0.449042	0.392114
C37	C	1.358818	-1.122611	0.351966
C38	C	1.283955	-1.185315	0.403177
C39	C	1.210189	-1.240277	0.329542
H40	H	1.324945	-1.074728	0.318138
H41	H	1.393436	-1.165261	0.301112
H42	H	1.249339	-1.142668	0.454012
H43	H	1.317796	-1.233217	0.437000
H44	H	1.244808	-1.282927	0.278688
H45	H	1.176325	-1.192386	0.295718
H46	H	1.159391	-1.282835	0.364277
C47	C	1.534193	-0.883529	0.527226
C48	C	1.634286	-0.909954	0.501257
C49	C	1.708129	-0.855297	0.574987
H50	H	1.533906	-0.810717	0.526892
H51	H	1.516681	-0.901356	0.595195
H52	H	1.651793	-0.892119	0.433305
H53	H	1.634607	-0.982755	0.501598
H54	H	1.690617	-0.873124	0.642957
H55	H	1.707831	-0.782488	0.574648
H56	H	1.776048	-0.873225	0.557383
H57	H	1.385222	-0.557642	1.000369
H58	H	1.337128	-0.935845	0.330087
C59	C	1.599683	-0.367121	0.838006
C60	C	1.590115	-0.263668	0.877625
C61	C	1.665270	-0.196699	0.831514
H62	H	1.668028	-0.382263	0.853872
H63	H	1.588794	-0.376718	0.763979
H64	H	1.601013	-0.254076	0.951635
H65	H	1.521787	-0.248493	0.861760
H66	H	1.654380	-0.206295	0.757487
H67	H	1.733609	-0.211850	0.847383
H68	H	1.658782	-0.126498	0.858381
C69	C	1.575979	-1.055295	0.569001
C70	C	1.676070	-1.081722	0.543024
C71	C	1.749919	-1.027061	0.616746
H72	H	1.575691	-0.982484	0.568663
H73	H	1.558474	-1.073118	0.636973
H74	H	1.693571	-1.063892	0.475070
H75	H	1.676392	-1.154523	0.543369
H76	H	1.732414	-1.044884	0.684718
H77	H	1.749622	-0.954253	0.616403
H78	H	1.817837	-1.044991	0.599137
C79	C	1.599746	-0.367239	1.076929
C80	C	1.583531	-0.381580	1.182333
C81	C	1.658703	-0.314798	1.245739
H82	H	1.668077	-0.382461	1.057287
H83	H	1.593392	-0.296979	1.068094
H84	H	1.589894	-0.451824	1.191162
H85	H	1.515214	-0.366352	1.202007
H86	H	1.652350	-0.244538	1.236904
H87	H	1.727029	-0.330025	1.226088
H88	H	1.647706	-0.324512	1.317263
H89	H	1.385174	-0.557679	0.865819
H90	H	0.827360	-0.621545	0.542154
H91	H	1.021030	-0.449017	0.392109
C92	C	1.049187	-0.639495	0.558002
C93	C	1.119419	-0.580326	0.632522
C94	C	1.165825	-0.647011	0.690775
H95	H	0.996196	-0.679428	0.592810
H96	H	1.086035	-0.684925	0.512156
H97	H	1.082572	-0.534914	0.678363
H98	H	1.172429	-0.540394	0.597743
H99	H	1.202673	-0.692442	0.644928
H100	H	1.112826	-0.686942	0.725576
H101	H	1.213489	-0.606876	0.741336
