data_functionalizedCrystal
_audit_creation_method	'MofGen! by Chris Wilmer'
_symmetry_space_group_name_H-M	'P1'
_symmetry_Int_Tables_number	1
_symmetry_cell_setting	triclinic
loop_
_symmetry_equiv_pos_as_xyz
  x,y,z
_cell_length_a	16.109318
_cell_length_b	16.109301
_cell_length_c	14.048226
_cell_angle_alpha	89.992144
_cell_angle_beta	89.997121
_cell_angle_gamma	83.465022
loop_
_atom_site_label
_atom_site_type_symbol
_atom_site_fract_x
_atom_site_fract_y
_atom_site_fract_z
O1	O	1.103125	0.106938	-0.079084
O2	O	1.603125	0.606938	0.420916
O3	O	0.861065	0.120222	-0.079104
O4	O	1.361065	0.620222	0.420896
O5	O	0.988745	-0.007451	-0.079084
O6	O	1.488745	0.492549	0.420916
O7	O	0.975445	0.234610	-0.079105
O8	O	1.475445	0.734610	0.420895
O9	O	0.988729	-0.007458	0.079237
O10	O	1.488729	0.492542	0.579237
O11	O	0.861050	0.120214	0.079217
O12	O	1.361050	0.620214	0.579217
O13	O	1.103110	0.106930	0.079237
O14	O	1.603110	0.606930	0.579237
Zn15	Zn	0.982077	0.113571	0.104364
Zn16	Zn	1.482077	0.613571	0.604364
Zn17	Zn	0.982097	0.113581	-0.104231
Zn18	Zn	1.482097	0.613581	0.395769
O19	O	0.975430	0.234603	0.079217
O20	O	1.475430	0.734603	0.579217
C21	C	0.830083	0.119677	0.000054
C22	C	1.330083	0.619677	0.500054
C23	C	0.737788	0.118057	0.000047
C24	C	1.237788	0.618057	0.500047
C25	C	0.438723	0.112826	-0.086237
C26	C	0.938723	0.612826	0.413763
C27	C	0.525444	0.114343	-0.086243
C28	C	1.025444	0.614343	0.413757
C29	C	0.525446	0.114324	0.086368
C30	C	1.025446	0.614324	0.586368
C31	C	0.438727	0.112800	0.086373
C32	C	0.938727	0.612800	0.586373
C33	C	0.395367	0.112056	0.000068
C34	C	0.895367	0.612056	0.500068
C35	C	0.568807	0.115096	0.000057
C36	C	1.068807	0.615096	0.500057
C37	C	0.662835	0.116742	0.000051
C38	C	1.162835	0.616742	0.500051
C39	C	0.301334	0.110409	0.000073
C40	C	0.801334	0.610409	0.500073
C41	C	0.988198	-0.038430	0.000077
C42	C	1.488198	0.461570	0.500077
C43	C	0.986583	-0.130725	0.000078
C44	C	1.486583	0.369275	0.500078
C45	C	1.058590	-0.352993	0.000069
C46	C	1.558590	0.147007	0.500069
C47	C	1.057066	-0.439713	0.000061
C48	C	1.557066	0.060287	0.500061
C49	C	0.905579	-0.419848	0.000053
C50	C	1.405579	0.080152	0.500053
C51	C	0.907104	-0.333130	0.000054
C52	C	1.407104	0.166870	0.500054
C53	C	0.983612	-0.299704	0.000067
C54	C	1.483612	0.200296	0.500067
C55	C	0.980563	-0.473144	0.000058
C56	C	1.480563	0.026856	0.500058
C57	C	0.978910	-0.567170	0.000049
C58	C	1.478910	-0.067170	0.500049
C59	C	0.985265	-0.205672	0.000074
C60	C	1.485265	0.294328	0.500074
C61	C	1.134092	0.107474	0.000077
C62	C	1.634092	0.607474	0.500077
C63	C	1.226387	0.109095	0.000077
C64	C	1.726387	0.609095	0.500077
C65	C	0.975976	0.265581	0.000054
C66	C	1.475976	0.765581	0.500054
C67	C	0.977592	0.357877	0.000046
C68	C	1.477592	0.857877	0.500046
N69	N	0.982070	0.113564	0.246725
N70	N	1.482070	0.613564	0.746725
N71	N	0.982112	0.113582	-0.246592
N72	N	1.482112	0.613582	0.253408
C73	C	1.038624	0.057054	0.296552
C74	C	1.538624	0.557054	0.796552
C75	C	1.038629	0.057053	0.396209
C76	C	1.538629	0.557053	0.896209
C77	C	0.982084	0.113567	0.446038
C78	C	1.482084	0.613567	0.946038
C79	C	0.925524	0.170080	0.396204
C80	C	1.425524	0.670080	0.896204
C81	C	0.925515	0.170076	0.296548
C82	C	1.425515	0.670076	0.796548
C83	C	0.925548	0.170086	0.603918
C84	C	1.425548	0.670086	1.103918
C85	C	0.925558	0.170092	0.703581
C86	C	1.425558	0.670092	1.203581
C87	C	1.038662	0.057063	0.703579
C88	C	1.538662	0.557063	1.203579
C89	C	1.038653	0.057059	0.603923
C90	C	1.538653	0.557059	1.103923
C91	C	0.982094	0.113573	0.554096
C92	C	1.482094	0.613573	1.054096
H93	H	1.120888	-0.325781	0.000078
H94	H	1.620888	0.174219	0.500078
H95	H	1.118121	-0.483098	0.000061
H96	H	1.618121	0.016902	0.500061
C97	C	0.447435	0.112992	-0.256854
C98	C	0.947435	0.612992	0.243146
C99	C	0.391062	0.111999	-0.181102
C100	C	0.891062	0.611999	0.318898
H101	H	0.418012	0.112475	-0.315420
H102	H	0.918012	0.612475	0.184580
H103	H	0.474905	0.162036	-0.253267
H104	H	0.974905	0.662036	0.246733
H105	H	0.487613	0.065128	-0.253256
H106	H	0.987613	0.565128	0.246744
H107	H	0.350887	0.159866	-0.184696
H108	H	0.850887	0.659866	0.315304
H109	H	0.363579	0.062950	-0.184690
H110	H	0.863579	0.562950	0.315310
C111	C	1.056763	-0.056096	0.815652
C112	C	1.556763	0.443904	1.315652
C113	C	1.100833	-0.005065	0.758340
C114	C	1.600833	0.494935	1.258340
H115	H	1.095147	-0.094451	0.849455
H116	H	1.595147	0.405549	1.349455
H117	H	1.023097	-0.022443	0.859589
H118	H	1.523097	0.477557	1.359589
H119	H	1.022167	-0.086014	0.776776
H120	H	1.522167	0.413986	1.276776
H121	H	1.135424	0.024858	0.797217
H122	H	1.635424	0.524858	1.297217
H123	H	1.134514	-0.038722	0.714397
H124	H	1.634514	0.461278	1.214397
C125	C	0.835977	-0.543963	0.000059
C126	C	1.335977	-0.043963	0.500059
C127	C	0.821484	-0.456593	0.000052
C128	C	1.321484	0.043407	0.500052
H129	H	0.784058	-0.566644	0.000067
H130	H	1.284058	-0.066644	0.500067
H131	H	0.866843	-0.562245	-0.055147
H132	H	1.366843	-0.062245	0.444853
H133	H	0.866848	-0.562251	0.055273
H134	H	1.366848	-0.062251	0.555273
H135	H	0.790618	-0.438304	-0.055166
H136	H	1.290618	0.061696	0.444834
H137	H	0.790604	-0.438303	0.055264
H138	H	1.290604	0.061697	0.555264
H139	H	0.846043	-0.289740	0.000049
H140	H	1.346043	0.210260	0.500049
C141	C	1.150416	-0.054675	0.306570
C142	C	1.650416	0.445325	0.806570
C143	C	1.100780	-0.005072	0.241784
C144	C	1.600780	0.494928	0.741784
H145	H	1.188784	-0.093034	0.272759
H146	H	1.688784	0.406966	0.772759
H147	H	1.180313	-0.020054	0.345423
H148	H	1.680313	0.479946	0.845423
H149	H	1.115813	-0.084589	0.345455
H150	H	1.615813	0.415411	0.845455
H151	H	1.135383	0.024847	0.202904
H152	H	1.635383	0.524847	0.702904
H153	H	1.070881	-0.039697	0.202915
H154	H	1.570881	0.460303	0.702915
C155	C	0.331827	0.182494	0.186514
C156	C	0.831827	0.682494	0.686514
C157	C	0.391060	0.111949	0.181243
C158	C	0.891060	0.611949	0.681243
H159	H	0.302396	0.181960	0.245077
H160	H	0.802396	0.681960	0.745077
H161	H	0.359302	0.231536	0.182938
H162	H	0.859302	0.731536	0.682938
H163	H	0.293601	0.181820	0.135108
H164	H	0.793601	0.681820	0.635108
H165	H	0.429289	0.112626	0.232646
H166	H	0.929289	0.612626	0.732646
H167	H	0.363583	0.062894	0.184828
H168	H	0.863583	0.562894	0.684828
C169	C	1.056736	-0.056098	0.508286
C170	C	1.556736	0.443902	1.008286
C171	C	1.100802	-0.005064	0.450972
C172	C	1.600802	0.494936	0.950972
H173	H	1.095123	-0.094452	0.542086
H174	H	1.595123	0.405548	1.042086
H175	H	1.023070	-0.022447	0.552225
H176	H	1.523070	0.477553	1.052225
H177	H	1.022140	-0.086017	0.469411
H178	H	1.522140	0.413983	0.969411
H179	H	1.135393	0.024859	0.489848
H180	H	1.635393	0.524859	0.989848
H181	H	1.134482	-0.038720	0.407027
H182	H	1.634482	0.461280	0.907027
H183	H	1.084701	0.011045	0.563353
H184	H	1.584701	0.511045	1.063353
C185	C	0.812379	0.188089	0.491870
C186	C	1.312379	0.688089	0.991870
C187	C	0.863376	0.232208	0.549149
C188	C	1.363376	0.732208	1.049149
H189	H	0.773998	0.226443	0.458063
H190	H	1.273998	0.726443	0.958063
H191	H	0.846052	0.154438	0.447936
H192	H	1.346052	0.654438	0.947936
H193	H	0.782491	0.153474	0.530770
H194	H	1.282491	0.653474	1.030770
H195	H	0.893269	0.266819	0.510248
H196	H	1.393269	0.766819	1.010248
H197	H	0.829699	0.265873	0.593088
H198	H	1.329699	0.765873	1.093088
H199	H	0.879512	0.216111	0.744147
H200	H	1.379512	0.716111	1.244147
C201	C	0.613604	0.187494	-0.186380
C202	C	1.113604	0.687494	0.313620
C203	C	0.573102	0.115194	-0.181110
C204	C	1.073102	0.615194	0.318890
H205	H	0.643029	0.188014	-0.244948
H206	H	1.143029	0.688014	0.255052
H207	H	0.573423	0.235345	-0.182792
H208	H	1.073423	0.735345	0.317208
H209	H	0.651838	0.188147	-0.134980
H210	H	1.151838	0.688147	0.365020
H211	H	0.534863	0.114544	-0.232507
H212	H	1.034863	0.614544	0.267493
H213	H	0.613287	0.067330	-0.184707
H214	H	1.113287	0.567330	0.315293
C215	C	0.876649	0.313990	0.265834
C216	C	1.376649	0.813990	0.765834
C217	C	0.863353	0.232196	0.241772
C218	C	1.363353	0.732196	0.741772
H219	H	0.838273	0.352338	0.232013
H220	H	1.338273	0.852338	0.732013
H221	H	0.868558	0.322076	0.332308
H222	H	1.368558	0.822076	0.832308
H223	H	0.932131	0.323029	0.249484
H224	H	1.432131	0.823029	0.749484
H225	H	0.807872	0.223155	0.258129
H226	H	1.307872	0.723155	0.758129
H227	H	0.871437	0.224106	0.175284
H228	H	1.371437	0.724106	0.675284
C229	C	0.658381	0.116661	0.163004
C230	C	1.158381	0.616661	0.663004
C231	C	0.573109	0.115155	0.181231
C232	C	1.073109	0.615155	0.681231
H233	H	0.687801	0.117181	0.221571
H234	H	1.187801	0.617181	0.721571
H235	H	0.678942	0.068462	0.127553
H236	H	1.178942	0.568462	0.627553
H237	H	0.666227	0.165370	0.127538
H238	H	1.166227	0.665370	0.627538
H239	H	0.565261	0.066442	0.216691
H240	H	1.065261	0.566442	0.716691
H241	H	0.552541	0.163358	0.216697
H242	H	1.052541	0.663358	0.716697
H243	H	0.879479	0.216093	0.436781
H244	H	1.379479	0.716093	0.936781
