data_functionalizedCrystal
_audit_creation_method	'MofGen! by Chris Wilmer'
_symmetry_space_group_name_H-M	'P1'
_symmetry_Int_Tables_number	1
_symmetry_cell_setting	triclinic
loop_
_symmetry_equiv_pos_as_xyz
  x,y,z
_cell_length_a	12.759401
_cell_length_b	13.031981
_cell_length_c	12.759401
_cell_angle_alpha	97.195913
_cell_angle_beta	90.006940
_cell_angle_gamma	97.193318
loop_
_atom_site_label
_atom_site_type_symbol
_atom_site_fract_x
_atom_site_fract_y
_atom_site_fract_z
Zn1	Zn	1.553000	-0.416237	0.540818
Zn2	Zn	1.530633	-0.590972	0.342805
Zn3	Zn	1.377343	-0.416224	0.365155
Zn4	Zn	1.354990	-0.590968	0.518442
O5	O	1.453992	-0.503600	0.441805
O6	O	1.697053	-0.439423	0.514562
O7	O	1.510293	-0.567788	0.198749
O8	O	1.419359	-0.269967	0.407176
O9	O	1.680620	-0.567800	0.369082
O10	O	1.548413	-0.269977	0.536234
O11	O	1.397672	-0.439401	0.215170
O12	O	1.227358	-0.439397	0.385479
O13	O	1.381263	-0.567793	0.668431
O14	O	1.210935	-0.567781	0.498098
O15	O	1.526739	-0.439419	0.684871
O16	O	1.488619	-0.737230	0.347385
O17	O	1.359575	-0.737227	0.476425
C18	C	1.181026	-0.503587	0.441786
C19	C	1.064247	-0.503607	0.441799
C20	C	1.000848	-0.570558	0.500322
C21	C	0.891124	-0.570562	0.500342
C22	C	0.908206	-0.436661	0.383309
C23	C	1.017929	-0.436652	0.383296
C24	C	0.736405	-0.608114	0.619403
C25	C	0.673001	-0.675081	0.677913
C26	C	0.695576	-0.777087	0.680823
C27	C	0.781552	-0.812145	0.625205
C28	C	0.844950	-0.745183	0.566685
C29	C	0.822377	-0.643163	0.563797
C30	C	1.172649	-0.399112	0.264232
C31	C	1.236048	-0.332154	0.205706
C32	C	1.213475	-0.230147	0.202786
C33	C	1.127495	-0.195092	0.258385
C34	C	1.064096	-0.262050	0.316911
C35	C	1.086677	-0.364056	0.319834
C36	C	1.419273	-0.775152	0.407075
C37	C	1.404516	-0.891323	0.392252
C38	C	1.461749	-0.943037	0.449562
C39	C	1.446499	-1.063106	0.434244
C40	C	1.728023	-0.503614	0.441825
C41	C	1.844799	-0.503620	0.441833
C42	C	1.454002	-0.503607	0.715837
C43	C	1.454007	-0.503610	0.832614
C44	C	1.488875	-0.230988	0.476694
C45	C	1.503740	-0.114817	0.491562
C46	C	1.529747	-0.436777	0.896036
C47	C	1.529738	-0.436775	1.005760
C48	C	1.378245	-0.570449	0.988629
C49	C	1.378250	-0.570445	0.878908
C50	C	1.583044	-0.313520	1.171492
C51	C	1.658799	-0.246695	1.234917
C52	C	1.763367	-0.230654	1.201376
C53	C	1.792200	-0.281453	1.104410
C54	C	1.716449	-0.348285	1.040990
C55	C	1.611869	-0.364307	1.074532
C56	C	1.324956	-0.693701	0.713174
C57	C	1.249209	-0.760539	0.649751
C58	C	1.144637	-0.776591	0.683288
C59	C	1.115806	-0.725811	0.780256
C60	C	1.191553	-0.658972	0.843679
C61	C	1.296124	-0.642919	0.810134
C62	C	1.453977	-0.503616	1.168836
C63	C	1.453993	-0.503612	1.052060
H64	H	0.799917	-0.895213	0.627569
H65	H	1.265099	-0.175635	0.155118
H66	H	1.739925	-0.389649	0.962044
O67	O	1.014280	-0.741316	0.813021
C68	C	0.889941	-0.699767	0.949133
C69	C	1.004960	-0.682125	0.912167
H70	H	0.882363	-0.651905	1.029286
H71	H	0.866912	-0.785978	0.956243
H72	H	0.835374	-0.674423	0.889185
H73	H	1.059605	-0.707409	0.972077
H74	H	1.027902	-0.595910	0.905027
H75	H	0.870481	-0.382151	0.335676
O76	O	0.634072	-0.842287	0.737576
C77	C	0.602691	-1.013563	0.792694
C78	C	0.672415	-0.939850	0.728353
H79	H	0.633678	-1.092452	0.785278
H80	H	0.517885	-1.024183	0.761230
H81	H	0.604933	-0.978591	0.879279
H82	H	0.670262	-0.974762	0.641756
H83	H	0.757189	-0.929234	0.759905
H84	H	0.603001	-0.646527	0.723200
H85	H	1.082967	-0.831026	0.631643
O86	O	0.980646	-0.227817	0.370906
C87	C	0.879625	-0.084823	0.416941
C88	C	0.974175	-0.123448	0.355764
H89	H	0.874350	-0.000444	0.404702
H90	H	0.890748	-0.089937	0.504708
H91	H	0.803727	-0.135533	0.386639
H92	H	1.050117	-0.072770	0.385976
H93	H	0.962960	-0.118358	0.268005
H94	H	0.718024	-0.525050	0.617052
O95	O	1.603186	-0.371794	0.850959
C96	C	1.635378	-0.230629	0.745208
C97	C	1.552099	-0.304179	0.796173
H98	H	1.594107	-0.175929	0.700920
H99	H	1.684172	-0.278550	0.687642
H100	H	1.689522	-0.182908	0.809407
H101	H	1.497884	-0.351916	0.732048
H102	H	1.503382	-0.256198	0.853763
H103	H	1.272695	-0.801897	0.570801
O104	O	1.105736	-0.095956	0.255479
C105	C	1.155258	0.067918	0.188616
C106	C	1.180033	-0.044319	0.191844
H107	H	1.215299	0.109692	0.137154
H108	H	1.159600	0.111347	0.272121
H109	H	1.072473	0.065780	0.154124
H110	H	1.262817	-0.042278	0.226290
H111	H	1.175619	-0.087703	0.108319
O112	O	1.893820	-0.265727	1.071971
C113	C	2.069652	-0.178221	1.111871
C114	C	1.954600	-0.195922	1.148728
H115	H	2.118830	-0.121802	1.173920
H116	H	2.071928	-0.144067	1.033778
H117	H	2.103390	-0.255762	1.100656
H118	H	1.920791	-0.118423	1.160005
H119	H	1.952394	-0.230124	1.226792
H120	H	1.306056	-0.360705	0.160432
O121	O	1.194391	-0.498272	0.267033
C122	C	1.131944	-0.681554	0.229387
C123	C	1.107174	-0.569311	0.226186
H124	H	1.061454	-0.739020	0.196346
H125	H	1.148449	-0.693670	0.314493
H126	H	1.204310	-0.695065	0.179620
H127	H	1.034796	-0.555722	0.275900
H128	H	1.090734	-0.557249	0.141052
O129	O	1.374643	-1.116479	0.362189
C130	C	1.293850	-1.284817	0.281308
C131	C	1.375280	-1.224501	0.362924
H132	H	1.294323	-1.372163	0.281891
H133	H	1.315051	-1.263512	0.199282
H134	H	1.211831	-1.263417	0.302383
H135	H	1.457327	-1.245868	0.341948
H136	H	1.353988	-1.245811	0.444927
O137	O	1.533663	-0.889659	0.521550
C138	C	1.614356	-0.721322	0.602531
C139	C	1.532892	-0.781638	0.520949
H140	H	1.613744	-0.633976	0.602088
H141	H	1.696429	-0.742575	0.581462
H142	H	1.593148	-0.742773	0.684502
H143	H	1.554001	-0.760219	0.438949
H144	H	1.450841	-0.760379	0.542109
H145	H	1.825048	-0.176244	1.253024
H146	H	1.497895	-0.326566	1.198807
H147	H	1.344222	-0.935939	0.331851
O148	O	1.630889	-0.197180	1.329060
C149	C	1.619412	-0.032466	1.434940
C150	C	1.651075	-0.088403	1.328284
H151	H	1.635699	0.055489	1.434340
H152	H	1.667350	-0.056037	1.501398
H153	H	1.531665	-0.055450	1.448018
H154	H	1.738803	-0.065447	1.315105
H155	H	1.603063	-0.064830	1.261884
O156	O	1.304699	-0.635520	1.033468
C157	C	1.230992	-0.813308	1.044325
C158	C	1.314315	-0.739728	0.993450
H159	H	1.238752	-0.897576	1.012007
H160	H	1.148597	-0.795034	1.025060
H161	H	1.243990	-0.801779	1.133642
H162	H	1.301416	-0.751216	0.904125
H163	H	1.396681	-0.758019	1.012800
O164	O	1.163643	-0.609473	0.937828
C165	C	1.152127	-0.444770	1.043715
C166	C	1.183799	-0.500694	0.937056
H167	H	1.168390	-0.356813	1.043119
H168	H	1.200076	-0.468331	1.110170
H169	H	1.064384	-0.467777	1.056795
H170	H	1.271524	-0.477716	0.923875
H171	H	1.135776	-0.477131	0.870659
H172	H	1.410105	-0.680629	0.685853
O173	O	1.045811	-0.635476	0.557323
C174	C	1.072850	-0.686525	0.729418
C175	C	1.021898	-0.612927	0.664989
H176	H	1.053517	-0.668335	0.816474
H177	H	1.162176	-0.675018	0.719449
H178	H	1.040515	-0.770768	0.700006
H179	H	1.054149	-0.528656	0.694358
H180	H	0.932576	-0.624524	0.674960
O181	O	0.928439	-0.779384	0.512746
C182	C	1.029356	-0.922429	0.466555
C183	C	0.934788	-0.883819	0.527712
H184	H	1.034507	-1.006875	0.478615
H185	H	1.105325	-0.871853	0.496875
H186	H	1.018201	-0.917155	0.378826
H187	H	0.945841	-0.889092	0.615450
H188	H	0.858854	-0.934400	0.497304
H189	H	1.564030	-1.070206	0.551976
