data_functionalizedCrystal
_audit_creation_method	'MofGen! by Chris Wilmer'
_symmetry_space_group_name_H-M	'P1'
_symmetry_Int_Tables_number	1
_symmetry_cell_setting	triclinic
loop_
_symmetry_equiv_pos_as_xyz
  x,y,z
_cell_length_a	17.038272
_cell_length_b	19.188924
_cell_length_c	16.098547
_cell_angle_alpha	92.711652
_cell_angle_beta	87.069359
_cell_angle_gamma	87.126761
loop_
_atom_site_label
_atom_site_type_symbol
_atom_site_fract_x
_atom_site_fract_y
_atom_site_fract_z
O1	O	1.040395	0.148678	-0.069158
O2	O	1.540395	0.648678	0.430842
O3	O	0.812773	0.146270	-0.069183
O4	O	1.312773	0.646270	0.430817
O5	O	0.933155	0.046226	-0.069160
O6	O	1.433155	0.546226	0.430840
O7	O	0.920013	0.248721	-0.069181
O8	O	1.420013	0.748721	0.430819
O9	O	0.926122	0.052046	0.069352
O10	O	1.426122	0.552046	0.569352
O11	O	0.805740	0.152090	0.069329
O12	O	1.305740	0.652090	0.569329
O13	O	1.033362	0.154498	0.069353
O14	O	1.533362	0.654498	0.569353
Zn15	Zn	0.918435	0.154218	0.091333
Zn16	Zn	1.418435	0.654218	0.591333
Zn17	Zn	0.927701	0.146550	-0.091162
Zn18	Zn	1.427701	0.646550	0.408838
O19	O	0.912980	0.254541	0.069330
O20	O	1.412980	0.754541	0.569330
C21	C	0.780136	0.146990	0.000070
C22	C	1.280136	0.646990	0.500070
C23	C	0.693364	0.140458	0.000061
C24	C	1.193364	0.640458	0.500061
C25	C	0.643061	0.200425	0.000056
C26	C	1.143061	0.700425	0.500056
C27	C	0.561529	0.194284	0.000068
C28	C	1.061529	0.694284	0.500068
C29	C	0.530302	0.128176	0.000079
C30	C	1.030302	0.628176	0.500079
C31	C	0.580611	0.068206	0.000087
C32	C	1.080611	0.568206	0.500087
C33	C	0.662141	0.074347	0.000081
C34	C	1.162141	0.574347	0.500081
C35	C	0.284611	0.106479	0.000104
C36	C	0.784611	0.606479	0.500104
C37	C	0.203075	0.100342	0.000108
C38	C	0.703075	0.600342	0.500108
C39	C	0.183998	0.226421	0.000089
C40	C	0.683998	0.726421	0.500089
C41	C	0.265531	0.232557	0.000078
C42	C	0.765531	0.732557	0.500078
C43	C	0.315833	0.172586	0.000091
C44	C	0.815833	0.672586	0.500091
C45	C	0.446964	0.121898	0.000089
C46	C	0.946964	0.621898	0.500089
C47	C	0.399169	0.178866	0.000087
C48	C	0.899169	0.678866	0.500087
C49	C	0.929214	0.023099	0.000096
C50	C	1.429214	0.523099	0.500096
C51	C	0.927939	-0.054485	0.000099
C52	C	1.427939	0.445515	0.500099
C53	C	0.931178	-0.094093	-0.075404
C54	C	1.431178	0.405907	0.424596
C55	C	0.929969	-0.166991	-0.075411
C56	C	1.429969	0.333009	0.424589
C57	C	0.925537	-0.200279	0.000090
C58	C	1.425537	0.299721	0.500090
C59	C	0.922293	-0.160661	0.075603
C60	C	1.422293	0.339339	0.575603
C61	C	0.923494	-0.087764	0.075607
C62	C	1.423494	0.412236	0.575607
N63	N	0.965281	-0.314935	0.056288
N64	N	1.465281	0.185065	0.556288
N65	N	0.964142	-0.384184	0.056279
N66	N	1.464142	0.115816	0.556279
C67	C	0.921917	-0.419914	0.000082
C68	C	1.421917	0.080086	0.500082
N69	N	0.880884	-0.383779	-0.056119
N70	N	1.380884	0.116221	0.443881
N71	N	0.882026	-0.314523	-0.056112
N72	N	1.382026	0.185477	0.443888
C73	C	0.924234	-0.279323	0.000094
C74	C	1.424234	0.220677	0.500094
C75	C	0.923844	-0.538567	-0.075434
C76	C	1.423844	-0.038567	0.424566
C77	C	0.922630	-0.611466	-0.075437
C78	C	1.422630	-0.111466	0.424563
C79	C	0.914962	-0.605134	0.075579
C80	C	1.414962	-0.105134	0.575579
C81	C	0.916168	-0.532236	0.075580
C82	C	1.416168	-0.032236	0.575580
C83	C	0.920613	-0.498957	0.000071
C84	C	1.420613	0.001043	0.500071
C85	C	1.066000	0.153777	0.000099
C86	C	1.566000	0.653777	0.500099
C87	C	1.152772	0.160308	0.000102
C88	C	1.652772	0.660308	0.500102
C89	C	0.916922	0.277668	0.000072
C90	C	1.416922	0.777668	0.500072
C91	C	0.918197	0.355252	0.000065
C92	C	1.418197	0.855252	0.500065
N93	N	0.912116	0.159451	0.215881
N94	N	1.412116	0.659451	0.715881
C95	C	0.963230	0.117006	0.259475
C96	C	1.463230	0.617006	0.759475
C97	C	0.958817	0.120674	0.346664
C98	C	1.458817	0.620674	0.846664
C99	C	0.903294	0.166791	0.390255
C100	C	1.403294	0.666791	0.890255
C101	C	0.852176	0.209237	0.346655
C102	C	1.352176	0.709237	0.846655
C103	C	0.856585	0.205565	0.259468
C104	C	1.356585	0.705565	0.759468
C105	C	0.887310	0.180090	0.653502
C106	C	1.387310	0.680090	1.153502
C107	C	0.882906	0.183760	0.740695
C108	C	1.382906	0.683760	1.240695
C109	C	0.989546	0.095195	0.740698
C110	C	1.489546	0.595195	1.240698
C111	C	0.993954	0.091530	0.653510
C112	C	1.493954	0.591530	1.153510
C113	C	0.942833	0.133974	0.609917
C114	C	1.442833	0.633974	1.109917
C115	C	0.898784	0.170543	0.479376
C116	C	1.398784	0.670543	0.979376
C117	C	0.947340	0.130218	0.520798
C118	C	1.447340	0.630218	1.020798
N119	N	0.934019	0.141315	0.784290
N120	N	1.434019	0.641315	1.284290
H121	H	0.424597	0.232691	0.000082
H122	H	0.924597	0.732691	0.500082
C123	C	0.914605	-0.417680	0.142636
C124	C	1.414605	0.082320	0.642636
C125	C	0.912617	-0.488693	0.158576
C126	C	1.412617	0.011307	0.658576
H127	H	0.912405	-0.390800	0.193878
H128	H	1.412405	0.109200	0.693878
H129	H	0.961948	-0.409657	0.111625
H130	H	1.461948	0.090343	0.611625
H131	H	0.870801	-0.404423	0.111607
H132	H	1.370801	0.095577	0.611607
H133	H	0.956425	-0.501952	0.189600
H134	H	1.456425	-0.001952	0.689600
H135	H	0.865269	-0.496721	0.189601
H136	H	1.365269	0.003279	0.689601
H137	H	0.290950	0.286388	0.000059
H138	H	0.790950	0.786388	0.500059
C139	C	1.098914	0.004348	0.662274
C140	C	1.598914	0.504348	1.162274
C141	C	1.054982	0.040832	0.605596
C142	C	1.554982	0.540832	1.105596
H143	H	1.136587	-0.026952	0.632692
H144	H	1.636587	0.473048	1.132692
H145	H	1.125209	0.036521	0.696266
H146	H	1.625209	0.536521	1.196266
H147	H	1.064736	-0.021277	0.696293
H148	H	1.564736	0.478723	1.196293
H149	H	1.089159	0.066462	0.571581
H150	H	1.589159	0.566462	1.071581
H151	H	1.028686	0.008655	0.571590
H152	H	1.528686	0.508655	1.071590
H153	H	0.925264	-0.643714	-0.136923
H154	H	1.425264	-0.143714	0.363077
H155	H	0.143034	0.275246	0.000081
H156	H	0.643034	0.775246	0.500081
C157	C	0.462380	0.257521	-0.071147
C158	C	0.962380	0.757521	0.428853
C159	C	0.506237	0.260202	0.000053
C160	C	1.006237	0.760202	0.500053
H161	H	0.428243	0.298217	-0.071152
H162	H	0.928243	0.798217	0.428848
H163	H	0.497028	0.255262	-0.119441
H164	H	0.997028	0.755262	0.380559
H165	H	0.432115	0.217271	-0.071124
H166	H	0.932115	0.717271	0.428876
H167	H	0.536507	0.300450	0.000027
H168	H	1.036507	0.800450	0.500027
H169	H	0.471585	0.262468	0.048360
H170	H	0.971585	0.762468	0.548360
C171	C	0.917055	-0.269598	0.142648
C172	C	1.417055	0.230402	0.642648
C173	C	0.917421	-0.197248	0.158595
C174	C	1.417421	0.302752	0.658595
H175	H	0.914048	-0.292183	0.193887
H176	H	1.414048	0.207817	0.693887
H177	H	0.872865	-0.280223	0.111621
H178	H	1.372865	0.219777	0.611621
H179	H	0.964012	-0.285455	0.111631
H180	H	1.464012	0.214545	0.611631
H181	H	0.870461	-0.181390	0.189607
H182	H	1.370461	0.318610	0.689607
H183	H	0.961616	-0.186618	0.189635
H184	H	1.461616	0.313382	0.689635
C185	C	0.860638	0.281882	0.838716
C186	C	1.360638	0.781882	1.338716
C187	C	0.821866	0.234455	0.788608
C188	C	1.321866	0.734455	1.288608
H189	H	0.822956	0.313179	0.868289
H190	H	1.322956	0.813179	1.368289
H191	H	0.890443	0.257131	0.877156
H192	H	1.390443	0.757131	1.377156
H193	H	0.894802	0.307507	0.804681
H194	H	1.394802	0.807507	1.304681
H195	H	0.787707	0.208825	0.822643
H196	H	1.287707	0.708825	1.322643
H197	H	0.792047	0.259208	0.750163
H198	H	1.292047	0.759208	1.250163
C199	C	0.781466	0.268006	0.662269
C200	C	1.281466	0.768006	1.162269
C201	C	0.831124	0.226750	0.605592
C202	C	1.331124	0.726750	1.105592
H203	H	0.746782	0.296816	0.632687
H204	H	1.246782	0.796816	1.132687
H205	H	0.751734	0.238696	0.696285
H206	H	1.251734	0.738696	1.196285
H207	H	0.812207	0.296494	0.696265
H208	H	1.312207	0.796494	1.196265
H209	H	0.800383	0.198258	0.571601
H210	H	1.300383	0.698258	1.071601
H211	H	0.860859	0.256063	0.571562
H212	H	1.360859	0.756063	1.071562
H213	H	0.927458	-0.511469	-0.136917
H214	H	1.427458	-0.011469	0.363083
H215	H	0.177654	0.046507	0.000116
H216	H	0.677654	0.546507	0.500116
C217	C	0.909687	-0.714063	0.142626
C218	C	1.409687	-0.214063	0.642626
C219	C	0.910068	-0.641714	0.158572
C220	C	1.410068	-0.141714	0.658572
H221	H	0.906661	-0.736647	0.193865
H222	H	1.406661	-0.236647	0.693865
H223	H	0.865502	-0.724680	0.111587
H224	H	1.365502	-0.224680	0.611587
H225	H	0.956648	-0.729930	0.111622
H226	H	1.456648	-0.229930	0.611622
H227	H	0.863104	-0.625847	0.189571
H228	H	1.363104	-0.125847	0.689571
H229	H	0.954257	-0.631093	0.189625
H230	H	1.454257	-0.131093	0.689625
H231	H	1.000437	0.086111	0.382158
H232	H	1.500437	0.586111	0.882158
H233	H	1.008445	0.079456	0.223989
H234	H	1.508445	0.579456	0.723989
H235	H	1.031166	0.060638	0.776199
H236	H	1.531166	0.560638	1.276199
C237	C	0.798071	0.254197	0.480302
C238	C	1.298071	0.754197	0.980302
C239	C	0.791145	0.259932	0.394569
C240	C	1.291145	0.759932	0.894569
H241	H	0.760396	0.285499	0.509879
H242	H	1.260396	0.785499	1.009879
H243	H	0.789020	0.207708	0.494601
H244	H	1.289020	0.707708	0.994601
H245	H	0.849493	0.265506	0.494571
H246	H	1.349493	0.765506	0.994571
H247	H	0.739725	0.248618	0.380300
H248	H	1.239725	0.748618	0.880300
H249	H	0.800191	0.306432	0.380264
H250	H	1.300191	0.806432	0.880264
H251	H	0.814962	0.240128	0.223974
H252	H	1.314962	0.740128	0.723974
H253	H	0.934794	-0.067002	-0.136889
H254	H	1.434794	0.432998	0.363111
H255	H	0.992544	0.092667	0.485303
H256	H	1.492544	0.592667	0.985303
H257	H	0.325558	0.057647	0.000115
H258	H	0.825558	0.557647	0.500115
H259	H	0.853578	0.208093	0.514875
H260	H	1.353578	0.708093	1.014875
H261	H	0.668479	0.254257	0.000045
H262	H	1.168479	0.754257	0.500045
H263	H	0.555179	0.014379	0.000109
H264	H	1.055179	0.514379	0.500109
H265	H	0.703098	0.025516	0.000085
H266	H	1.203098	0.525516	0.500085
H267	H	0.421529	0.068073	0.000122
H268	H	0.921529	0.568073	0.500122
H269	H	0.932601	-0.199247	-0.136896
H270	H	1.432601	0.300753	0.363104
H271	H	0.920854	-0.055515	0.137093
H272	H	1.420854	0.444485	0.637093
