data_functionalizedCrystal
_audit_creation_method	'MofGen! by Chris Wilmer'
_symmetry_space_group_name_H-M	'P1'
_symmetry_Int_Tables_number	1
_symmetry_cell_setting	triclinic
loop_
_symmetry_equiv_pos_as_xyz
  x,y,z
_cell_length_a	12.759401
_cell_length_b	12.759399
_cell_length_c	21.395355
_cell_angle_alpha	90.012690
_cell_angle_beta	90.021398
_cell_angle_gamma	90.016023
loop_
_atom_site_label
_atom_site_type_symbol
_atom_site_fract_x
_atom_site_fract_y
_atom_site_fract_z
Zn1	Zn	1.606277	-0.418380	0.354234
Zn2	Zn	1.606160	-0.594045	0.249467
Zn3	Zn	1.430571	-0.418381	0.249477
Zn4	Zn	1.430565	-0.594019	0.354213
O5	O	1.518393	-0.506206	0.301848
O6	O	1.753283	-0.441693	0.340341
O7	O	1.582821	-0.570754	0.161791
O8	O	1.453930	-0.271360	0.263385
O9	O	1.753196	-0.570753	0.263370
O10	O	1.583021	-0.271359	0.340350
O11	O	1.453816	-0.441695	0.161797
O12	O	1.283549	-0.441669	0.263365
O13	O	1.453920	-0.570708	0.441894
O14	O	1.283545	-0.570709	0.340315
O15	O	1.583015	-0.441668	0.441909
O16	O	1.582815	-0.741062	0.263349
O17	O	1.453806	-0.741043	0.340306
C18	C	1.245426	-0.506187	0.301839
C19	C	1.128649	-0.506205	0.301850
C20	C	1.518326	-0.779174	0.301838
C21	C	1.518393	-0.895950	0.301855
C22	C	0.964081	-0.573514	0.341859
C23	C	1.073805	-0.573502	0.341853
C24	C	1.073763	-0.438922	0.261847
C25	C	0.964041	-0.438940	0.261851
C26	C	1.223757	-0.697439	0.364107
C27	C	1.278639	-0.764710	0.404116
C28	C	1.243071	-0.780998	0.465236
C29	C	1.152622	-0.730001	0.486361
C30	C	1.097745	-0.662723	0.446356
C31	C	1.133312	-0.646454	0.385227
C32	C	0.814087	-0.315002	0.239603
C33	C	0.759209	-0.247717	0.199601
C34	C	0.794775	-0.231418	0.138479
C35	C	0.885228	-0.282397	0.117357
C36	C	0.940106	-0.349681	0.157359
C37	C	0.904532	-0.365982	0.218480
C38	C	1.451208	-0.950840	0.341897
C39	C	1.451274	-1.060564	0.341909
C40	C	1.585718	-1.060498	0.261835
C41	C	1.585647	-0.950776	0.261820
C42	C	1.327448	-1.210614	0.364252
C43	C	1.260272	-1.265507	0.404304
C44	C	1.244070	-1.229866	0.465427
C45	C	1.295058	-1.139333	0.486510
C46	C	1.362242	-1.084444	0.446462
C47	C	1.378424	-1.120084	0.385330
C48	C	1.709473	-0.800725	0.239483
C49	C	1.776663	-0.745835	0.199437
C50	C	1.792877	-0.781474	0.138314
C51	C	1.741907	-0.872011	0.117232
C52	C	1.674717	-0.926901	0.157278
C53	C	1.658502	-0.891255	0.218402
C54	C	1.792426	-0.506226	0.301857
C55	C	1.909203	-0.506234	0.301861
C56	C	1.518480	-0.506185	0.465271
C57	C	1.518517	-0.506176	0.534912
C58	C	1.518489	-0.232173	0.301871
C59	C	1.518530	-0.115396	0.301881
C60	C	1.518367	-0.506152	0.139060
C61	C	1.518533	-0.505865	0.069419
C62	C	1.585734	-0.438982	0.567634
C63	C	1.585733	-0.438936	0.633070
C64	C	1.518526	-0.506104	0.665781
C65	C	1.451296	-0.573303	0.633051
C66	C	1.451291	-0.573339	0.567617
C67	C	1.510207	-0.600703	0.769452
C68	C	1.510218	-0.600669	0.834885
C69	C	1.518532	-0.505993	0.867602
C70	C	1.526857	-0.411348	0.834877
C71	C	1.526853	-0.411384	0.769443
C72	C	1.518522	-0.506072	0.736733
C73	C	1.585751	-0.438744	0.971276
C74	C	1.585742	-0.438697	1.036713
C75	C	1.451310	-0.573074	1.036693
C76	C	1.451314	-0.573111	0.971257
C77	C	1.518540	-0.505948	0.938553
H78	H	0.919435	-0.628310	0.374437
H79	H	1.640474	-0.384291	0.541011
H80	H	1.024106	-0.621199	0.463556
H81	H	1.189373	-1.274569	0.498037
H82	H	1.640477	-0.383974	1.063354
H83	H	1.396444	-0.906203	0.374495
H84	H	1.281870	-1.110328	0.536285
C85	C	1.377390	-0.646964	1.072666
H86	H	1.387024	-0.637326	1.116324
H87	H	1.306802	-0.631599	1.061929
H88	H	1.392756	-0.717563	1.061949
C89	C	1.039596	-0.405767	0.134123
H90	H	1.052917	-0.386433	0.091990
H91	H	1.097477	-0.386023	0.159463
H92	H	1.029758	-0.479457	0.136572
C93	C	1.204180	-1.365081	0.381112
H94	H	1.223434	-1.378438	0.338967
H95	H	1.224004	-1.422909	0.406445
H96	H	1.130491	-1.355316	0.383607
H97	H	1.396584	-0.627835	0.944614
H98	H	1.818168	-0.672117	0.216608
C99	C	1.618643	-1.026486	0.134089
H100	H	1.637914	-1.039850	0.091948
H101	H	1.638461	-1.084308	0.159429
H102	H	1.544953	-1.016725	0.136573
H103	H	1.396550	-0.628055	0.540975
C104	C	1.345260	-1.249810	0.297013
H105	H	1.392561	-1.204148	0.276176
H106	H	1.373861	-1.318514	0.298108
H107	H	1.280341	-1.250934	0.275268
H108	H	1.640475	-1.105151	0.229241
H109	H	1.503155	-0.677780	0.742820
C110	C	1.303434	-0.854994	0.509246
H111	H	1.269303	-0.857384	0.548676
H112	H	1.305269	-0.923341	0.491668
H113	H	1.372975	-0.829892	0.514550
C114	C	1.659683	-0.365028	0.669072
H115	H	1.699724	-0.325040	0.640223
H116	H	1.619521	-0.319232	0.694590
H117	H	1.705444	-0.405227	0.694606
H118	H	1.352283	-0.806231	0.386910
H119	H	1.503446	-0.677735	0.861525
H120	H	0.685563	-0.206201	0.216805
C121	C	0.924345	-0.264486	0.050120
H122	H	0.878699	-0.217126	0.029319
H123	H	0.993081	-0.235921	0.051215
H124	H	0.925365	-0.329368	0.028340
C125	C	1.262882	-0.679532	0.296873
H126	H	1.324615	-0.719526	0.290028
H127	H	1.210242	-0.700730	0.268115
H128	H	1.277949	-0.607284	0.291001
H129	H	1.755113	-0.901033	0.067462
H130	H	1.533628	-0.334321	0.742801
C131	C	0.734388	-0.157434	0.094470
H132	H	0.675417	-0.129413	0.115799
H133	H	0.779078	-0.101896	0.081663
H134	H	0.711393	-0.195373	0.058799
C135	C	1.536686	-0.307262	0.870855
H136	H	1.535692	-0.320809	0.914512
H137	H	1.600824	-0.274138	0.859991
H138	H	1.479791	-0.262648	0.860267
C139	C	0.774903	-0.333019	0.306817
H140	H	0.820515	-0.380427	0.327607
H141	H	0.773830	-0.268188	0.328644
H142	H	0.706171	-0.361602	0.305659
C143	C	1.113523	-0.747890	0.553603
H144	H	1.159160	-0.795261	0.574403
H145	H	1.112508	-0.683006	0.575374
H146	H	1.044781	-0.776455	0.552514
C147	C	1.377368	-0.647189	0.669027
H148	H	1.337328	-0.687209	0.640164
H149	H	1.417542	-0.692956	0.694563
H150	H	1.331605	-0.606974	0.694541
C151	C	1.134083	-0.364888	0.217848
H152	H	1.085682	-0.324826	0.194024
H153	H	1.176905	-0.319166	0.241865
H154	H	1.176865	-0.405002	0.190502
H155	H	1.403757	-1.010735	0.463628
C156	C	1.866790	-0.721103	0.094263
H157	H	1.869145	-0.755302	0.054842
H158	H	1.841664	-0.651596	0.088957
H159	H	1.935168	-0.719186	0.111812
C160	C	1.691645	-0.761522	0.306722
H161	H	1.731638	-0.699752	0.313545
H162	H	1.619406	-0.746523	0.312630
H163	H	1.712918	-0.814109	0.335475
C164	C	1.659677	-0.364852	0.935299
H165	H	1.699697	-0.324812	0.964162
H166	H	1.705444	-0.405050	0.909784
H167	H	1.619488	-0.319088	0.909764
