data_functionalizedCrystal
_audit_creation_method	'MofGen! by Chris Wilmer'
_symmetry_space_group_name_H-M	'P1'
_symmetry_Int_Tables_number	1
_symmetry_cell_setting	triclinic
loop_
_symmetry_equiv_pos_as_xyz
  x,y,z
_cell_length_a	12.759395
_cell_length_b	19.805405
_cell_length_c	19.805398
_cell_angle_alpha	89.972363
_cell_angle_beta	89.988546
_cell_angle_gamma	90.026256
loop_
_atom_site_label
_atom_site_type_symbol
_atom_site_fract_x
_atom_site_fract_y
_atom_site_fract_z
Zn1	Zn	1.606100	-0.269493	-0.382632
Zn2	Zn	1.605980	-0.382678	-0.269440
Zn3	Zn	1.430423	-0.269508	-0.269465
Zn4	Zn	1.430355	-0.382645	-0.382596
O5	O	1.518215	-0.326081	-0.326033
O6	O	1.753105	-0.284515	-0.367621
O7	O	1.582670	-0.367686	-0.174727
O8	O	1.453806	-0.174789	-0.284503
O9	O	1.753017	-0.367671	-0.284460
O10	O	1.582875	-0.174778	-0.367646
O11	O	1.453689	-0.284540	-0.174745
O12	O	1.283393	-0.284508	-0.284467
O13	O	1.453690	-0.367615	-0.477317
O14	O	1.283343	-0.367630	-0.367584
O15	O	1.582810	-0.284483	-0.477344
O16	O	1.582604	-0.477390	-0.284425
O17	O	1.453573	-0.477366	-0.367560
C18	C	1.245247	-0.326067	-0.326025
C19	C	1.128470	-0.326078	-0.326037
C20	C	1.518096	-0.501937	-0.326001
C21	C	1.518142	-0.577169	-0.326009
C22	C	1.585393	-0.612503	-0.282766
C23	C	1.585438	-0.683192	-0.282781
C24	C	1.518225	-0.718544	-0.326036
C25	C	1.450971	-0.683205	-0.369284
C26	C	1.450932	-0.612518	-0.369272
C27	C	1.451126	-0.968278	-0.369334
C28	C	1.451167	-1.038971	-0.369341
C29	C	1.585631	-1.038952	-0.282843
C30	C	1.585593	-0.968265	-0.282831
C31	C	1.518343	-0.932932	-0.326081
C32	C	1.518297	-0.856283	-0.326065
C33	C	1.518265	-0.795192	-0.326049
C34	C	1.128543	-0.239627	-0.412773
C35	C	1.073719	-0.196410	-0.456147
C36	C	0.963998	-0.196422	-0.456155
C37	C	0.909098	-0.239654	-0.412784
C38	C	0.963922	-0.282872	-0.369411
C39	C	1.073646	-0.282856	-0.369408
C40	C	0.963849	-0.369318	-0.282672
C41	C	1.073571	-0.369311	-0.282666
C42	C	0.908949	-0.412551	-0.239301
C43	C	0.963773	-0.455772	-0.195930
C44	C	1.073502	-0.455759	-0.195924
C45	C	1.128395	-0.412528	-0.239293
C46	C	1.792248	-0.326095	-0.326042
C47	C	1.909025	-0.326101	-0.326046
C48	C	1.518256	-0.326043	-0.502576
C49	C	1.518273	-0.326027	-0.577808
C50	C	1.518362	-0.149538	-0.326081
C51	C	1.518425	-0.074306	-0.326101
C52	C	1.585632	-0.282621	-1.039614
C53	C	1.585616	-0.282641	-0.968926
C54	C	1.518381	-0.325933	-0.933570
C55	C	1.451166	-0.369212	-0.968906
C56	C	1.451188	-0.369194	-1.039594
C57	C	1.451074	-0.369286	-0.683833
C58	C	1.451055	-0.369299	-0.613141
C59	C	1.585502	-0.282733	-0.613165
C60	C	1.585525	-0.282715	-0.683852
C61	C	1.518314	-0.325996	-0.719183
C62	C	1.518334	-0.325974	-0.795831
C63	C	1.518355	-0.325952	-0.856923
C64	C	1.518234	-0.326069	-0.150177
C65	C	1.518420	-0.325895	-0.074946
H66	H	1.640121	-0.583724	-0.247540
Br67	Br	0.889263	-0.514432	-0.137070
Br68	Br	1.676718	-0.731143	-0.224096
Br69	Br	0.889588	-0.137764	-0.515012
Br70	Br	1.359867	-0.428029	-0.731772
H71	H	1.118133	-0.490950	-0.160602
Br72	Br	0.760189	-0.239659	-0.412785
H73	H	1.118431	-0.161210	-0.491457
H74	H	0.819608	-0.412555	-0.239309
Br75	Br	1.676784	-0.223965	-0.731832
H76	H	1.396366	-0.939516	-0.404548
H77	H	1.217736	-0.412509	-0.239289
Br78	Br	1.359921	-0.427969	-0.920924
Br79	Br	1.676871	-0.223854	-1.087590
Br80	Br	1.676812	-0.920289	-0.224125
H81	H	1.640350	-0.247405	-0.940162
H82	H	1.640231	-0.247493	-0.584391
H83	H	1.396249	-0.711995	-0.404506
H84	H	1.396435	-1.067753	-0.404570
H85	H	1.217885	-0.239610	-0.412768
H86	H	1.396297	-0.404552	-0.584356
H87	H	1.396171	-0.583750	-0.404486
Br88	Br	1.359973	-0.427929	-1.087544
H89	H	1.640394	-1.067729	-0.247630
