data_functionalizedCrystal
_audit_creation_method	'MofGen! by Chris Wilmer'
_symmetry_space_group_name_H-M	'P1'
_symmetry_Int_Tables_number	1
_symmetry_cell_setting	triclinic
loop_
_symmetry_equiv_pos_as_xyz
  x,y,z
_cell_length_a	10.723023
_cell_length_b	16.992695
_cell_length_c	15.455313
_cell_angle_alpha	92.847427
_cell_angle_beta	87.293778
_cell_angle_gamma	87.567885
loop_
_atom_site_label
_atom_site_type_symbol
_atom_site_fract_x
_atom_site_fract_y
_atom_site_fract_z
O1	O	1.671793	0.106629	-0.072123
O2	O	1.309547	0.117161	-0.072127
O3	O	1.489217	-0.002255	-0.072118
O4	O	1.492123	0.226045	-0.072132
O5	O	1.478940	0.004545	0.072144
O6	O	1.299270	0.123962	0.072135
O7	O	1.661516	0.113429	0.072139
Cu8	Cu	1.479455	0.119316	0.085309
Cu9	Cu	1.491608	0.111274	-0.085297
O10	O	1.481846	0.232846	0.072130
C11	C	1.480343	-0.028088	0.000013
C12	C	1.469195	-0.115192	0.000012
C13	C	1.257843	0.119795	0.000004
C14	C	1.119092	0.117502	0.000002
C15	C	1.576755	-0.164854	0.000014
C16	C	1.566274	-0.246697	0.000006
C17	C	1.448231	-0.278877	0.000002
C18	C	1.340663	-0.229208	-0.000003
C19	C	1.351146	-0.147367	-0.000001
C20	C	1.404784	-0.522708	-0.000011
C21	C	1.394309	-0.604556	-0.000010
C22	C	1.619921	-0.622039	-0.000003
C23	C	1.630393	-0.540195	0.000004
C24	C	1.522825	-0.490535	-0.000005
N25	N	1.437514	-0.362533	-0.000004
N26	N	1.533543	-0.406880	-0.000005
C27	C	0.919156	0.110587	-0.074729
C28	C	1.062563	0.112957	-0.074730
C29	C	1.713220	0.110795	0.000006
C30	C	1.851972	0.113088	0.000002
C31	C	1.490721	0.258678	-0.000003
C32	C	1.501869	0.345782	-0.000008
N33	N	1.470915	0.124972	0.205304
N34	N	1.500157	0.105612	-0.205292
C35	C	1.547275	0.074259	0.250702
C36	C	1.540830	0.078544	0.341510
C37	C	1.458029	0.133546	0.386918
C38	C	1.381661	0.184262	0.341513
C39	C	1.388101	0.179973	0.250707
C40	C	1.430229	0.152038	0.658498
C41	C	1.423797	0.156325	0.749310
C42	C	1.582965	0.050606	0.749300
C43	C	1.589403	0.046325	0.658492
C44	C	1.513030	0.097037	0.613096
N45	N	1.451441	0.137929	0.479738
N46	N	1.519612	0.092650	0.520278
H47	H	1.672878	-0.138660	0.000023
H48	H	1.653861	-0.287129	0.000010
C49	C	1.803709	-0.658653	0.074158
C50	C	1.738154	-0.676629	-0.000002
H51	H	1.876701	-0.692359	0.074156
H52	H	1.826840	-0.605313	0.074154
H53	H	1.752048	-0.666111	0.124459
H54	H	1.789812	-0.669166	-0.050304
H55	H	1.715026	-0.729982	-0.000006
H56	H	0.870506	0.106687	-0.138709
C57	C	1.210256	0.202452	0.777315
C58	C	1.332764	0.216777	0.799232
H59	H	1.154061	0.239767	0.808141
H60	H	1.203158	0.207166	0.716746
H61	H	1.190459	0.150712	0.792208
H62	H	1.352564	0.268516	0.784333
H63	H	1.339867	0.212071	0.859814
C64	C	1.640749	-0.083467	0.777265
C65	C	1.666895	-0.005145	0.799202
H66	H	1.692568	-0.117887	0.808070
H67	H	1.555529	-0.091751	0.792163
H68	H	1.656440	-0.093881	0.716685
H69	H	1.651195	0.005272	0.859782
H70	H	1.752134	0.003143	0.784310
H71	H	1.120319	0.110825	-0.138710
H72	H	1.061343	0.119644	0.063986
C73	C	1.224415	-0.346900	0.000001
C74	C	1.210906	-0.264578	-0.000004
H75	H	1.144305	-0.368732	0.000008
H76	H	1.272620	-0.366270	-0.050303
H77	H	1.265466	-0.361527	0.050312
H78	H	1.169864	-0.249951	-0.050319
H79	H	1.162682	-0.245201	0.050305
C80	C	1.831209	-0.533394	-0.074151
C81	C	1.760152	-0.504829	0.000008
H82	H	1.911315	-0.511556	-0.074146
H83	H	1.840354	-0.589236	-0.074147
H84	H	1.790155	-0.518748	-0.124453
H85	H	1.801202	-0.519480	0.050311
H86	H	1.751012	-0.448975	0.000012
H87	H	1.298178	-0.630752	0.000001
H88	H	0.900622	0.116980	0.063982
H89	H	1.263559	-0.106932	-0.000002
H90	H	1.614706	0.029474	0.213737
C91	C	1.698840	-0.026363	0.332379
C92	C	1.624788	0.022810	0.391411
H93	H	1.750683	-0.060766	0.363187
H94	H	1.646580	-0.056563	0.296980
H95	H	1.749495	0.004895	0.296942
H96	H	1.574127	-0.008447	0.426843
H97	H	1.677054	0.053013	0.426824
H98	H	1.656826	0.001537	0.621523
H99	H	1.368045	0.193332	0.621543
C100	C	1.301124	0.237785	0.480715
C101	C	1.290647	0.244724	0.391424
H102	H	1.244941	0.275118	0.511524
H103	H	1.281288	0.186058	0.495607
H104	H	1.384247	0.247486	0.495571
H105	H	1.207525	0.235017	0.376567
H106	H	1.310474	0.296463	0.376527
C107	C	1.330308	0.314046	0.222726
C108	C	1.304170	0.235721	0.200800
H109	H	1.278493	0.348460	0.191911
H110	H	1.314618	0.324468	0.283297
H111	H	1.415539	0.322331	0.207825
H112	H	1.218941	0.227434	0.215707
H113	H	1.319851	0.225295	0.140216
C114	C	1.180726	-0.513659	0.000002
C115	C	1.286545	-0.468128	-0.000004
H116	H	1.107728	-0.479958	0.000014
H117	H	1.184909	-0.548308	-0.050304
H118	H	1.177766	-0.543580	0.050311
H119	H	1.289509	-0.438211	-0.050316
H120	H	1.282360	-0.433465	0.050307
