data_functionalizedCrystal
_audit_creation_method	'MofGen! by Chris Wilmer'
_symmetry_space_group_name_H-M	'P1'
_symmetry_Int_Tables_number	1
_symmetry_cell_setting	triclinic
loop_
_symmetry_equiv_pos_as_xyz
  x,y,z
_cell_length_a	17.000383
_cell_length_b	17.019294
_cell_length_c	12.996460
_cell_angle_alpha	86.114884
_cell_angle_beta	89.991116
_cell_angle_gamma	79.506204
loop_
_atom_site_label
_atom_site_type_symbol
_atom_site_fract_x
_atom_site_fract_y
_atom_site_fract_z
O1	O	1.056069	0.028438	-0.088157
O2	O	1.389402	0.361772	0.245177
O3	O	1.722736	0.695105	0.578510
O4	O	0.824304	0.057068	-0.090680
O5	O	1.157638	0.390402	0.242654
O6	O	1.490971	0.723735	0.575987
O7	O	0.946652	-0.072528	-0.079199
O8	O	1.279985	0.260805	0.254134
O9	O	1.613319	0.594139	0.587468
O10	O	0.933721	0.158035	-0.099637
O11	O	1.267055	0.491368	0.233696
O12	O	1.600388	0.824701	0.567030
O13	O	0.946639	-0.072534	0.091935
O14	O	1.279973	0.260800	0.425269
O15	O	1.613306	0.594133	0.758602
O16	O	0.824292	0.057063	0.080455
O17	O	1.157625	0.390396	0.413788
O18	O	1.490958	0.723729	0.747121
O19	O	1.056056	0.028433	0.082978
O20	O	1.389390	0.361766	0.416311
O21	O	1.722723	0.695099	0.749644
Cu22	Cu	0.940173	0.042747	0.097342
Cu23	Cu	1.273506	0.376080	0.430675
Cu24	Cu	1.606839	0.709414	0.764009
Cu25	Cu	0.940188	0.042754	-0.105044
Cu26	Cu	1.273521	0.376087	0.228289
Cu27	Cu	1.606854	0.709421	0.561623
O28	O	0.933709	0.158029	0.071497
O29	O	1.267042	0.491362	0.404831
O30	O	1.600375	0.824696	0.738164
C31	C	0.794643	0.058603	-0.005247
C32	C	1.127976	0.391936	0.328086
C33	C	1.461309	0.725270	0.661420
C34	C	0.706279	0.063175	-0.005647
C35	C	1.039612	0.396509	0.327687
C36	C	1.372946	0.729842	0.661020
C37	C	0.206029	0.092699	-0.008302
C38	C	0.539362	0.426032	0.325031
C39	C	0.872695	0.759366	0.658365
C40	C	0.289056	0.088397	-0.007920
C41	C	0.622390	0.421730	0.325413
C42	C	0.955723	0.755063	0.658747
C43	C	0.340136	0.013720	-0.001293
C44	C	0.673469	0.347054	0.332041
C45	C	1.006802	0.680387	0.665374
C46	C	0.308184	-0.056658	0.004943
C47	C	0.641517	0.276675	0.338276
C48	C	0.974850	0.610008	0.671609
C49	C	0.225157	-0.052355	0.004553
C50	C	0.558491	0.280978	0.337886
C51	C	0.891824	0.614311	0.671220
C52	C	0.591300	-0.002900	0.000199
C53	C	0.924634	0.330433	0.333532
C54	C	1.257967	0.663766	0.666866
C55	C	0.674332	-0.007198	0.000591
C56	C	1.007665	0.326135	0.333924
C57	C	1.340999	0.659469	0.667258
C58	C	0.655199	0.137858	-0.012273
C59	C	0.988532	0.471191	0.321060
C60	C	1.321866	0.804524	0.654393
C61	C	0.572172	0.142154	-0.012656
C62	C	0.905505	0.475487	0.320677
C63	C	1.238838	0.808821	0.654010
C64	C	0.540227	0.071775	-0.006427
C65	C	0.873560	0.405109	0.326907
C66	C	1.206894	0.738442	0.660240
C67	C	0.425004	0.009321	-0.000898
C68	C	0.758337	0.342654	0.332435
C69	C	1.091670	0.675988	0.665768
C70	C	0.455360	0.076176	-0.006828
C71	C	0.788694	0.409509	0.326505
C72	C	1.122027	0.742842	0.659839
C73	C	0.946155	-0.101886	0.008968
C74	C	1.279488	0.231447	0.342301
C75	C	1.612822	0.564781	0.675635
C76	C	0.944684	-0.189355	0.016716
C77	C	1.278017	0.143979	0.350049
C78	C	1.611351	0.477312	0.683382
C79	C	0.944002	-0.230440	-0.072929
C80	C	1.277335	0.102893	0.260404
C81	C	1.610668	0.436227	0.593737
C82	C	0.942614	-0.312625	-0.065647
C83	C	1.275948	0.020708	0.267687
C84	C	1.609281	0.354042	0.601020
C85	C	0.941915	-0.353724	0.031282
C86	C	1.275248	-0.020391	0.364615
C87	C	1.608582	0.312942	0.697949
C88	C	0.942595	-0.312633	0.120934
C89	C	1.275928	0.020701	0.454267
C90	C	1.609262	0.354034	0.787600
C91	C	0.943977	-0.230448	0.113650
C92	C	1.277310	0.102885	0.446983
C93	C	1.610643	0.436219	0.780316
C94	C	0.937738	-0.601868	0.057941
C95	C	1.271071	-0.268535	0.391275
C96	C	1.604405	0.064799	0.724608
C97	C	0.936359	-0.684059	0.065218
C98	C	1.269692	-0.350726	0.398552
C99	C	1.603025	-0.017392	0.731885
C100	C	0.936377	-0.684045	-0.121363
C101	C	1.269710	-0.350712	0.211971
C102	C	1.603043	-0.017379	0.545304
C103	C	0.937763	-0.601860	-0.128638
C104	C	1.271096	-0.268527	0.204695
C105	C	1.604430	0.064807	0.538029
C106	C	0.938439	-0.560775	-0.038987
C107	C	1.271772	-0.227441	0.294347
C108	C	1.605105	0.105892	0.627680
C109	C	0.940500	-0.437731	0.038728
C110	C	1.273833	-0.104398	0.372062
C111	C	1.607166	0.228936	0.705395
C112	C	0.939849	-0.476768	-0.046434
C113	C	1.273182	-0.143435	0.286899
C114	C	1.606515	0.189898	0.620233
C115	C	1.085718	0.026898	-0.002457
C116	C	1.419051	0.360231	0.330876
C117	C	1.752385	0.693565	0.664209
C118	C	1.174082	0.022326	-0.002064
C119	C	1.507415	0.355659	0.331269
C120	C	1.840748	0.688992	0.664602
C121	C	0.934205	0.187387	-0.016672
C122	C	1.267539	0.520720	0.316661
C123	C	1.600872	0.854054	0.649994
C124	C	0.935676	0.274856	-0.024427
C125	C	1.269010	0.608189	0.308907
C126	C	1.602343	0.941522	0.642240
N127	N	0.940168	0.042741	0.239690
N128	N	1.273501	0.376075	0.573023
N129	N	1.606835	0.709408	0.906356
N130	N	0.940199	0.042753	-0.247391
N131	N	1.273532	0.376086	0.085942
N132	N	1.606866	0.709420	0.419276
C133	C	0.940187	0.042755	0.659503
C134	C	1.273520	0.376088	0.992836
C135	C	1.606853	0.709421	1.326169
C136	C	0.940179	0.042754	0.542698
C137	C	1.273512	0.376087	0.876031
C138	C	1.606846	0.709421	1.209364
C139	C	0.940178	0.042749	0.449600
C140	C	1.273511	0.376082	0.782933
C141	C	1.606844	0.709415	1.116267
C142	C	0.940169	0.042747	0.332788
C143	C	1.273503	0.376080	0.666121
C144	C	1.606836	0.709413	0.999454
H145	H	0.199148	-0.109661	0.009631
H146	H	0.532481	0.223673	0.342964
H147	H	0.865815	0.557006	0.676297
F148	F	0.151673	0.172181	-0.015348
F149	F	0.485006	0.505514	0.317985
F150	F	0.818339	0.838847	0.651319
H151	H	0.315063	0.145702	-0.013009
H152	H	0.648396	0.479036	0.320324
H153	H	0.981730	0.812369	0.653658
H154	H	0.681218	0.195156	-0.017347
H155	H	1.014551	0.528489	0.315986
H156	H	1.347884	0.861823	0.649320
H157	H	0.349779	-0.117461	0.010333
H158	H	0.683113	0.215872	0.343666
H159	H	1.016446	0.549205	0.676999
F160	F	0.400997	0.155649	-0.013888
F161	F	0.734330	0.488982	0.319446
F162	F	1.067663	0.822316	0.652779
H163	H	0.944575	-0.196984	-0.151859
H164	H	1.277909	0.136350	0.181474
H165	H	1.611242	0.469683	0.514808
H166	H	0.944521	-0.196995	0.186648
H167	H	1.277854	0.136338	0.519982
H168	H	1.611188	0.469672	0.853315
H169	H	0.940412	-0.443301	-0.125353
H170	H	1.273746	-0.109968	0.207980
H171	H	1.607079	0.223366	0.541314
F172	F	0.941842	-0.356374	0.224093
F173	F	1.275175	-0.023041	0.557426
F174	F	1.608509	0.310293	0.890759
H175	H	0.565302	-0.060207	0.005274
H176	H	0.898635	0.273126	0.338608
H177	H	1.231968	0.606459	0.671941
F178	F	0.479373	-0.070153	0.006163
F179	F	0.812706	0.263180	0.339497
F180	F	1.146040	0.596514	0.672830
F181	F	0.939752	-0.481478	0.141885
F182	F	1.273086	-0.148145	0.475218
F183	F	1.606419	0.185188	0.808551
H184	H	0.530587	0.202964	-0.018056
H185	H	0.863921	0.536297	0.315277
H186	H	1.197254	0.869630	0.648611
F187	F	0.935619	-0.727799	0.168388
F188	F	1.268952	-0.394466	0.501721
F189	F	1.602285	-0.061132	0.835054
F190	F	0.941889	-0.356348	-0.161060
F191	F	1.275222	-0.023014	0.172274
F192	F	1.608556	0.310319	0.505607
F193	F	0.728694	-0.086683	0.007644
F194	F	1.062027	0.246651	0.340977
F195	F	1.395361	0.579984	0.674311
F196	F	0.938509	-0.558125	-0.231803
F197	F	1.271842	-0.224792	0.101531
F198	F	1.605176	0.108541	0.434864
F199	F	0.935657	-0.727777	-0.216769
F200	F	1.268990	-0.394444	0.116564
F201	F	1.602324	-0.061110	0.449897
H202	H	0.938304	-0.568430	0.130942
H203	H	1.271638	-0.235096	0.464276
H204	H	1.604971	0.098237	0.797609
