data_functionalizedCrystal
_audit_creation_method	'MofGen! by Chris Wilmer'
_symmetry_space_group_name_H-M	'P1'
_symmetry_Int_Tables_number	1
_symmetry_cell_setting	triclinic
loop_
_symmetry_equiv_pos_as_xyz
  x,y,z
_cell_length_a	13.635800
_cell_length_b	16.015572
_cell_length_c	9.582860
_cell_angle_alpha	103.810114
_cell_angle_beta	68.793233
_cell_angle_gamma	104.485554
loop_
_atom_site_label
_atom_site_type_symbol
_atom_site_fract_x
_atom_site_fract_y
_atom_site_fract_z
V1	V	-2.001632	-0.269347	0.060387
O2	O	-1.975043	-0.264383	-0.153916
O3	O	-1.997253	-0.267348	0.264976
O4	O	-1.963282	-0.386890	-0.006805
O5	O	-2.009249	-0.144013	0.119746
V6	V	-2.242711	-0.254375	0.042583
O7	O	-2.133758	-0.302189	0.099440
O8	O	-2.335683	-0.221533	0.003529
O9	O	-2.135486	-0.256374	-0.162006
O10	O	-2.327998	-0.259339	0.256885
O11	O	-2.293792	-0.379709	-0.016777
O12	O	-2.169457	-0.136832	0.109774
V13	V	-1.501632	-0.269347	0.060387
O14	O	-1.475043	-0.264383	-0.153916
O15	O	-1.497253	-0.267348	0.264976
O16	O	-1.463282	-0.386890	-0.006805
O17	O	-1.509249	-0.144013	0.119746
V18	V	-1.742711	-0.254375	0.042583
O19	O	-1.633758	-0.302189	0.099440
O20	O	-1.835683	-0.221533	0.003529
O21	O	-1.635486	-0.256374	-0.162006
O22	O	-1.827998	-0.259339	0.256885
O23	O	-1.793792	-0.379709	-0.016777
O24	O	-1.669457	-0.136832	0.109774
C25	C	-1.881699	-0.415545	-0.029764
C26	C	-1.891117	-0.511636	-0.083346
C27	C	-2.081511	-0.888905	0.392251
C28	C	-2.090358	-0.979193	0.341854
C29	C	-2.026603	-0.954685	0.081114
C30	C	-2.017745	-0.864393	0.131490
C31	C	-2.045203	-0.831511	0.287060
C32	C	-1.981437	-0.806999	0.026298
C33	C	-1.972585	-0.716715	0.076671
C34	C	-2.000043	-0.683826	0.232235
C35	C	-2.036351	-0.741227	0.337432
C36	C	-1.953987	-0.839884	-0.129271
C37	C	-1.917679	-0.782489	-0.234463
C38	C	-1.908819	-0.692203	-0.184091
C39	C	-1.936277	-0.659314	-0.028527
C40	C	-1.872511	-0.634802	-0.289289
C41	C	-1.863660	-0.544518	-0.238917
C42	C	-1.927425	-0.569030	0.021845
C43	C	-1.925033	-0.263058	0.316921
C44	C	-1.962002	-0.262208	0.483749
C45	C	-2.039378	-0.260661	-0.213942
C46	C	-1.992028	-0.261517	-0.380772
C47	C	-2.082712	-0.108172	0.132741
C48	C	-2.062913	-0.012081	0.186316
C49	C	-1.425033	-0.263058	0.316921
C50	C	-1.462002	-0.262208	0.483749
C51	C	-1.381699	-0.415545	-0.029764
C52	C	-1.391117	-0.511636	-0.083346
C53	C	-1.539378	-0.260661	-0.213942
C54	C	-1.492028	-0.261517	-0.380772
C55	C	-1.582712	-0.108172	0.132741
C56	C	-1.562913	-0.012081	0.186316
C57	C	-1.486805	-0.561161	-0.103444
C58	C	-1.495663	-0.651448	-0.153809
C59	C	-1.408835	-0.692208	-0.184066
C60	C	-1.313138	-0.642675	-0.163970
C61	C	-1.304278	-0.552390	-0.113615
C62	C	-1.467507	0.028657	0.216543
C63	C	-1.448884	0.118947	0.266866
C64	C	-1.525672	0.168496	0.286970
C65	C	-1.621085	0.127752	0.256735
C66	C	-1.639703	0.037465	0.206403
H67	H	-1.949770	-0.542255	0.148525
H68	H	-1.895329	-0.809275	-0.361129
H69	H	-1.371189	0.152107	0.291477
C70	C	-1.219014	-0.687106	-0.196817
C71	C	-1.247282	-0.776778	-0.245167
C72	C	-1.160611	-0.817741	-0.275411
H73	H	-1.159602	-0.662787	-0.274101
H74	H	-1.200472	-0.678396	-0.107232
H75	H	-1.265810	-0.785482	-0.334742
H76	H	-1.306680	-0.801121	-0.167905
H77	H	-1.142069	-0.809031	-0.185825
H78	H	-1.101205	-0.793415	-0.352691
H79	H	-1.179782	-0.878588	-0.308206
H80	H	-1.834094	-0.497786	-0.324574
C81	C	-1.505630	0.266538	0.341551
C82	C	-1.593284	0.301223	0.352664
C83	C	-1.574849	0.391536	0.402927
H84	H	-1.496267	0.277611	0.438253
H85	H	-1.443031	0.293202	0.271382
H86	H	-1.655865	0.274568	0.422831
H87	H	-1.602661	0.290174	0.255981
H88	H	-1.512250	0.418201	0.332758
H89	H	-1.565485	0.402601	0.499626
H90	H	-1.634314	0.415083	0.410461
C91	C	-1.963568	-0.937881	-0.184265
C92	C	-1.931784	-0.954396	-0.343015
C93	C	-1.940607	-1.044660	-0.393727
H94	H	-1.918960	-0.960120	-0.150920
H95	H	-2.035734	-0.965669	-0.144340
H96	H	-1.859630	-0.926619	-0.382925
H97	H	-1.976384	-0.932178	-0.376401
H98	H	-2.012774	-1.072449	-0.353802
H99	H	-1.895999	-1.066891	-0.360372
H100	H	-1.919053	-1.055878	-0.501442
C101	C	-1.704618	0.181428	0.278742
C102	C	-1.800356	0.150562	0.386487
C103	C	-1.877336	0.199981	0.406799
H104	H	-1.680012	0.241044	0.313128
H105	H	-1.716513	0.176258	0.185040
H106	H	-1.788460	0.155740	0.480170
H107	H	-1.824995	0.090953	0.352130
H108	H	-1.889231	0.194811	0.313097
H109	H	-1.852720	0.259594	0.441180
H110	H	-1.942306	0.179040	0.479894
H111	H	-1.557517	-0.527987	-0.078811
C112	C	-2.129756	-1.041365	0.456308
C113	C	-2.151884	-0.993238	0.603324
C114	C	-2.188171	-1.050480	0.708792
H115	H	-2.192950	-1.079921	0.445520
H116	H	-2.076151	-1.074277	0.438925
H117	H	-2.205485	-0.960340	0.620700
H118	H	-2.088706	-0.954685	0.614160
H119	H	-2.134567	-1.083392	0.691409
H120	H	-2.251363	-1.089033	0.697991
H121	H	-2.203181	-1.017834	0.808553
C122	C	-1.599680	-0.705071	-0.175434
C123	C	-1.673830	-0.650050	-0.138094
C124	C	-1.769666	-0.699416	-0.157971
H125	H	-1.586703	-0.732654	-0.278244
H126	H	-1.627378	-0.748294	-0.111408
H127	H	-1.646137	-0.606842	-0.202120
H128	H	-1.686839	-0.622466	-0.035288
H129	H	-1.797364	-0.742638	-0.093945
H130	H	-1.756678	-0.726996	-0.260781
H131	H	-1.819991	-0.662092	-0.132626
H132	H	-1.416064	-0.765725	-0.225066
H133	H	-1.717397	0.004303	0.181803
H134	H	-1.404970	-0.011674	0.200181
C135	C	-1.990539	-0.585790	0.286731
C136	C	-2.056349	-0.553376	0.237119
C137	C	-2.047611	-0.463069	0.287276
H138	H	-2.012112	-0.574311	0.394429
H139	H	-1.918392	-0.557995	0.246682
H140	H	-2.128481	-0.581161	0.277175
H141	H	-2.034790	-0.564831	0.129428
H142	H	-1.975464	-0.435274	0.247227
H143	H	-2.069183	-0.451598	0.394972
H144	H	-2.092253	-0.441063	0.253610
C145	C	-2.065739	-0.705496	0.506316
C146	C	-2.000823	-0.730723	0.567622
C147	C	-2.027739	-0.697772	0.723160
H148	H	-2.055138	-0.643509	0.521240
H149	H	-2.138636	-0.728036	0.555321
H150	H	-1.927944	-0.708179	0.518632
H151	H	-2.011415	-0.792704	0.552740
H152	H	-2.100636	-0.720312	0.772165
H153	H	-2.017137	-0.635787	0.738068
H154	H	-1.983705	-0.714890	0.764778
H155	H	-2.004254	-0.981471	-0.045552
C156	C	-1.200314	-0.498784	-0.091798
C157	C	-1.126191	-0.553817	-0.129035
C158	C	-1.030408	-0.504474	-0.108940
H159	H	-1.172520	-0.455536	-0.155752
H160	H	-1.213416	-0.471239	0.011066
H161	H	-1.113088	-0.581348	-0.231882
H162	H	-1.153951	-0.597065	-0.065090
H163	H	-1.043510	-0.476929	-0.006076
H164	H	-1.002624	-0.461227	-0.172895
H165	H	-0.980108	-0.541808	-0.134188
H166	H	-1.850168	-0.661590	-0.415954
H167	H	-2.103856	-0.862130	0.518931
