data_functionalizedCrystal
_audit_creation_method	'MofGen! by Chris Wilmer'
_symmetry_space_group_name_H-M	'P1'
_symmetry_Int_Tables_number	1
_symmetry_cell_setting	triclinic
loop_
_symmetry_equiv_pos_as_xyz
  x,y,z
_cell_length_a	24.447405
_cell_length_b	24.446649
_cell_length_c	24.443239
_cell_angle_alpha	60.006064
_cell_angle_beta	60.011844
_cell_angle_gamma	59.992812
loop_
_atom_site_label
_atom_site_type_symbol
_atom_site_fract_x
_atom_site_fract_y
_atom_site_fract_z
O1	O	0.075907	-0.799232	0.668277
O2	O	0.575907	-0.299232	1.168277
O3	O	0.028634	-0.622262	0.538455
O4	O	0.528634	-0.122262	1.038455
O5	O	0.140702	-0.734230	0.538349
O6	O	0.640702	-0.234230	1.038349
O7	O	-0.036160	-0.687265	0.668384
O8	O	0.463840	-0.187265	1.168384
O9	O	0.177886	-0.697056	0.575424
O10	O	0.677886	-0.197056	1.075424
O11	O	0.065818	-0.585088	0.575530
O12	O	0.565818	-0.085088	1.075530
O13	O	0.113091	-0.762059	0.705353
O14	O	0.613091	-0.262059	1.205353
Cu15	Cu	0.092850	-0.670179	0.643827
Cu16	Cu	0.592850	-0.170179	1.143827
Cu17	Cu	0.048876	-0.714142	0.599981
Cu18	Cu	0.548876	-0.214142	1.099981
O19	O	0.001024	-0.650091	0.705459
O20	O	0.501024	-0.150091	1.205459
N21	N	0.123780	-0.639263	0.674669
N22	N	0.623780	-0.139263	1.174669
N23	N	0.017951	-0.745064	0.569139
N24	N	0.517951	-0.245064	1.069139
C25	C	0.170236	-0.489965	0.721065
C26	C	0.670236	0.010035	1.221065
C27	C	0.170249	-0.592837	0.721058
C28	C	0.670249	-0.092837	1.221058
C29	C	0.195989	-0.567121	0.746758
C30	C	0.695989	-0.067121	1.246758
C31	C	0.308182	-0.547773	0.687664
C32	C	0.808182	-0.047773	1.187664
C33	C	0.378316	-0.571143	0.664253
C34	C	0.878316	-0.071143	1.164253
C35	C	0.378353	-0.684626	0.707525
C36	C	0.878353	-0.184626	1.207525
C37	C	0.308220	-0.661254	0.730938
C38	C	0.808220	-0.161254	1.230938
C39	C	0.187125	-0.454882	0.652117
C40	C	0.687125	0.045118	1.152117
C41	C	0.163710	-0.384741	0.628763
C42	C	0.663710	0.115259	1.128763
C43	C	0.106523	-0.384772	0.743308
C44	C	0.606523	0.115228	1.243308
C45	C	0.129938	-0.454913	0.766662
C46	C	0.629938	0.045087	1.266662
C47	C	0.101291	-0.575906	0.738041
C48	C	0.601291	-0.075906	1.238041
C49	C	0.077897	-0.599283	0.714670
C50	C	0.577897	-0.099283	1.214670
C51	C	0.192412	-0.656523	0.657348
C52	C	0.692412	-0.156523	1.157348
C53	C	0.215809	-0.633146	0.680711
C54	C	0.715809	-0.133146	1.180711
C55	C	0.101393	-0.575928	0.859014
C56	C	0.601393	-0.075928	1.359014
C57	C	0.078071	-0.599328	0.929152
C58	C	0.578071	-0.099328	1.429152
C59	C	0.192636	-0.656582	0.929078
C60	C	0.692636	-0.156582	1.429078
C61	C	0.215955	-0.633184	0.858938
C62	C	0.715955	-0.133184	1.358938
C63	C	0.170332	-0.592855	0.823908
C64	C	0.670332	-0.092855	1.323908
C65	C	0.273137	-0.592827	0.721004
C66	C	0.773137	-0.092827	1.221004
C67	C	-0.131205	-0.791294	0.522327
C68	C	0.368795	-0.291294	1.022327
C69	C	-0.028388	-0.791420	0.522551
C70	C	0.471612	-0.291420	1.022551
C71	C	-0.054056	-0.817099	0.496741
C72	C	0.445944	-0.317099	0.996741
C73	C	-0.073479	-0.929255	0.555734
C74	C	0.426521	-0.429255	1.055734
C75	C	-0.050156	-0.999396	0.579142
C76	C	0.449844	-0.499396	1.079142
C77	C	0.063326	-0.999525	0.536064
C78	C	0.563326	-0.499525	1.036064
C79	C	0.040001	-0.929386	0.512654
C80	C	0.540001	-0.429386	1.012654
C81	C	-0.166365	-0.808188	0.591256
C82	C	0.333635	-0.308188	1.091256
C83	C	-0.236499	-0.784726	0.614512
C84	C	0.263501	-0.284726	1.114512
C85	C	-0.236309	-0.727482	0.499907
C86	C	0.263691	-0.227482	0.999907
C87	C	-0.166175	-0.750944	0.476651
C88	C	0.333825	-0.250944	0.976651
C89	C	-0.045285	-0.722468	0.505590
C90	C	0.454715	-0.222468	1.005590
C91	C	-0.021951	-0.699130	0.529061
C92	C	0.478049	-0.199130	1.029061
C93	C	0.035176	-0.813691	0.586439
C94	C	0.535176	-0.313691	1.086439
C95	C	0.011842	-0.837031	0.562976
C96	C	0.511842	-0.337031	1.062976
C97	C	-0.045097	-0.722476	0.384488
C98	C	0.454903	-0.222476	0.884488
C99	C	-0.021613	-0.699140	0.314350
C100	C	0.478387	-0.199140	0.814350
C101	C	0.035607	-0.813706	0.314419
C102	C	0.535607	-0.313706	0.814419
C103	C	0.012124	-0.837041	0.384558
C104	C	0.512124	-0.337041	0.884558
C105	C	-0.028229	-0.791425	0.419591
C106	C	0.471771	-0.291425	0.919591
C107	C	-0.028402	-0.894253	0.522492
C108	C	0.471598	-0.394253	1.022492
N109	N	0.412405	-0.639229	0.674505
N110	N	0.912405	-0.139229	1.174505
O111	O	0.626552	-0.645384	0.514503
O112	O	1.126552	-0.145384	1.014503
O113	O	0.626802	-0.775625	0.691288
O114	O	1.126802	-0.275625	1.191288
O115	O	0.626698	-0.775326	0.579168
O116	O	1.126698	-0.275326	1.079168
O117	O	0.626656	-0.645683	0.626623
O118	O	1.126656	-0.145683	1.126623
O119	O	0.515277	-0.738265	0.616407
O120	O	1.015277	-0.238265	1.116407
O121	O	0.515382	-0.738564	0.728527
O122	O	1.015382	-0.238564	1.228527
O123	O	0.515131	-0.608323	0.551742
O124	O	1.015131	-0.108323	1.051742
Cu125	Cu	0.505083	-0.670059	0.643535
Cu126	Cu	1.005083	-0.170059	1.143535
Cu127	Cu	0.636850	-0.713889	0.599495
Cu128	Cu	1.136850	-0.213889	1.099495
O129	O	0.515236	-0.608622	0.663862
O130	O	1.015236	-0.108622	1.163862
N131	N	0.729529	-0.744719	0.568518
N132	N	1.229529	-0.244719	1.068518
N133	N	0.123755	-0.350686	0.674680
N134	N	0.623755	0.149314	1.174680
O135	O	-0.036153	-0.136410	0.668391
O136	O	0.463847	0.363590	1.168391
O137	O	0.140633	-0.136380	0.538141
O138	O	0.640633	0.363620	1.038141
O139	O	0.028472	-0.136412	0.538488
O140	O	0.528472	0.363588	1.038488
O141	O	0.076007	-0.136377	0.668044
O142	O	0.576007	0.363623	1.168044
O143	O	0.065663	-0.247842	0.575621
O144	O	0.565663	0.252158	1.075621
O145	O	0.177823	-0.247810	0.575274
O146	O	0.677823	0.252190	1.075274
O147	O	0.001037	-0.247840	0.705524
O148	O	0.501037	0.252160	1.205524
Cu149	Cu	0.092826	-0.258000	0.643789
Cu150	Cu	0.592826	0.242000	1.143789
Cu151	Cu	0.048844	-0.126220	0.599875
Cu152	Cu	0.548844	0.373780	1.099875
O153	O	0.113198	-0.247808	0.705177
O154	O	0.613198	0.252192	1.205177
N155	N	0.017907	-0.033534	0.568986
N156	N	0.517907	0.466466	1.068986
N157	N	0.124013	-0.639306	0.963182
N158	N	0.624013	-0.139306	1.463182
O159	O	0.117754	-0.799195	1.177439
O160	O	0.617754	-0.299195	1.677439
O161	O	-0.012458	-0.622342	1.177485
O162	O	0.487542	-0.122342	1.677485
O163	O	-0.012155	-0.734480	1.177444
O164	O	0.487845	-0.234480	1.677444
O165	O	0.117450	-0.687057	1.177480
O166	O	0.617450	-0.187057	1.677480
O167	O	0.024954	-0.697317	1.066020
O168	O	0.524954	-0.197317	1.566020
O169	O	0.024650	-0.585179	1.066061
O170	O	0.524650	-0.085179	1.566061
O171	O	0.154862	-0.762032	1.066014
O172	O	0.654862	-0.262032	1.566014
Cu173	Cu	0.093145	-0.670212	1.055863
Cu174	Cu	0.593145	-0.170212	1.555863
Cu175	Cu	0.049259	-0.714162	1.187636
Cu176	Cu	0.549259	-0.214162	1.687636
O177	O	0.154559	-0.649894	1.066055
O178	O	0.654559	-0.149894	1.566055
N179	N	0.018389	-0.745075	1.280318
N180	N	0.518389	-0.245075	1.780318
C181	C	0.042795	-0.581375	0.539107
C182	C	0.542795	-0.081375	1.039107
C183	C	0.181576	-0.720034	0.538975
C184	C	0.681576	-0.220034	1.038975
C185	C	0.098930	-0.802946	0.704700
C186	C	0.598930	-0.302946	1.204700
C187	C	-0.039851	-0.664287	0.704832
C188	C	0.460149	-0.164287	1.204832
C189	C	0.571122	-0.775030	0.732180
C190	C	1.071122	-0.275030	1.232180
C191	C	0.570995	-0.774660	0.593332
C192	C	1.070995	-0.274660	1.093332
C193	C	0.570808	-0.608917	0.510851
C194	C	1.070808	-0.108917	1.010851
C195	C	0.570939	-0.609288	0.649698
C196	C	1.070939	-0.109288	1.149698
C197	C	0.181453	-0.191954	0.538725
C198	C	0.681453	0.308046	1.038725
C199	C	0.042602	-0.192131	0.539201
C200	C	0.542602	0.307869	1.039201
C201	C	-0.039829	-0.192128	0.704893
C202	C	0.460171	0.307872	1.204893
C203	C	0.099069	-0.192090	0.704464
C204	C	0.599069	0.307910	1.204464
C205	C	-0.011836	-0.581480	1.121779
C206	C	0.488164	-0.081480	1.621779
C207	C	-0.011453	-0.720342	1.121706
C208	C	0.488547	-0.220342	1.621706
C209	C	0.154240	-0.802894	1.121720
C210	C	0.654240	-0.302894	1.621720
C211	C	0.153865	-0.664024	1.121769
C212	C	0.653865	-0.164024	1.621769
H213	H	0.064236	-0.543084	0.830495
H214	H	0.564236	-0.043084	1.330495
O215	O	-0.100480	-0.652422	0.753530
O216	O	0.399520	-0.152422	1.253530
C217	C	-0.130175	-0.698443	0.771582
C218	C	0.369825	-0.198443	1.271582
H219	H	-0.108020	-0.717990	0.728604
H220	H	0.391980	-0.217990	1.228604
H221	H	-0.186543	-0.672442	0.782598
H222	H	0.313457	-0.172442	1.282598
H223	H	-0.119977	-0.742110	0.818142
H224	H	0.380023	-0.242110	1.318142
H225	H	0.032695	-0.530537	0.498334
H226	H	0.532695	-0.030537	0.998334
H227	H	0.570930	-0.568565	0.659852
H228	H	1.070930	-0.068565	1.159852
O229	O	-0.059925	-0.732521	1.121607
O230	O	0.440075	-0.232521	1.621607
C231	C	-0.035519	-0.798380	1.121585
C232	C	0.464481	-0.298380	1.621585
H233	H	0.021546	-0.816024	1.100523
H234	H	0.521546	-0.316024	1.600523
H235	H	-0.055891	-0.799322	1.089187
H236	H	0.444109	-0.299322	1.589187
H237	H	-0.052478	-0.833050	1.175024
H238	H	0.447522	-0.333050	1.675024
H239	H	0.232119	-0.191636	0.497733
H240	H	0.732119	0.308364	0.997733
H241	H	0.571013	-0.815386	0.583175
H242	H	1.071013	-0.315386	1.083175
H243	H	0.195123	-0.853684	1.121698
H244	H	0.695123	-0.353684	1.621698
H245	H	0.570727	-0.568026	0.460082
H246	H	1.070727	-0.068026	0.960082
H247	H	-0.090599	-0.192138	0.745784
H248	H	0.409401	0.307862	1.245784
H249	H	0.571186	-0.815915	0.782955
H250	H	1.071186	-0.315915	1.282955
O251	O	0.030369	-0.192191	0.490731
O252	O	0.530369	0.307809	0.990731
C253	C	-0.035488	-0.192198	0.515153
C254	C	0.464512	0.307802	1.015153
H255	H	-0.053088	-0.213274	0.572221
H256	H	0.446912	0.286726	1.072221
H257	H	-0.036457	-0.224578	0.494785
H258	H	0.463543	0.275422	0.994785
H259	H	-0.070171	-0.138749	0.498203
H260	H	0.429829	0.361251	0.998203
H261	H	-0.052716	-0.530687	1.121793
H262	H	0.447284	-0.030687	1.621793
H263	H	0.194582	-0.653876	1.121771
H264	H	0.694582	-0.153876	1.621771
H265	H	0.109248	-0.192079	0.745165
H266	H	0.609248	0.307921	1.245165
H267	H	0.021932	-0.585534	0.957726
H268	H	0.521932	-0.085534	1.457726
H269	H	0.232372	-0.730046	0.498140
H270	H	0.732372	-0.230046	0.998140
H271	H	-0.035357	-0.642993	0.285778
H272	H	0.464643	-0.142993	0.785778
H273	H	0.272095	-0.646975	0.830359
H274	H	0.772095	-0.146975	1.330359
O275	O	0.236982	-0.695840	0.963070
O276	O	0.736982	-0.195840	1.463070
C277	C	0.277551	-0.754647	0.945891
C278	C	0.777551	-0.254647	1.445891
H279	H	0.250451	-0.764408	0.926635
H280	H	0.750451	-0.264408	1.426635
H281	H	0.288206	-0.798834	0.991996
H282	H	0.788206	-0.298834	1.491996
H283	H	0.326798	-0.748255	0.905154
H284	H	0.826798	-0.248255	1.405154
O285	O	0.056943	-0.536731	0.777198
O286	O	0.556943	-0.036731	1.277198
C287	C	-0.008936	-0.526811	0.787183
C288	C	0.491064	-0.026811	1.287183
H289	H	-0.008843	-0.534637	0.744903
H290	H	0.491157	-0.034637	1.244903
H291	H	-0.042245	-0.473620	0.787574
H292	H	0.457755	0.026380	1.287574
H293	H	-0.028992	-0.564154	0.837146
H294	H	0.471008	-0.064154	1.337146
O295	O	0.010918	-0.582760	0.731050
O296	O	0.510918	-0.082760	1.231050
C297	C	-0.006087	-0.547453	0.672144
C298	C	0.493913	-0.047453	1.172144
H299	H	0.033424	-0.523705	0.629996
H300	H	0.533424	-0.023705	1.129996
H301	H	-0.057009	-0.506588	0.681420
H302	H	0.442991	-0.006588	1.181420
H303	H	-0.008426	-0.583514	0.657383
H304	H	0.491574	-0.083514	1.157383
O305	O	0.236762	-0.695651	0.618144
O306	O	0.736762	-0.195651	1.118144
C307	C	0.302640	-0.705595	0.608189
C308	C	0.802640	-0.205595	1.108189
H309	H	0.302514	-0.663311	0.616029
H310	H	0.802514	-0.163311	1.116029
H311	H	0.335905	-0.705950	0.554986
H312	H	0.835905	-0.205950	1.054986
H313	H	0.322771	-0.755565	0.645500
H314	H	0.822771	-0.255565	1.145500
H315	H	0.109031	-0.853782	0.745475
H316	H	0.609031	-0.353782	1.245475
H317	H	0.279688	-0.697946	0.758086
H318	H	0.779688	-0.197946	1.258086
O319	O	0.412335	-0.751122	0.717246
O320	O	0.912335	-0.251122	1.217246
C321	C	0.366364	-0.785876	0.751677
C322	C	0.866364	-0.285876	1.251677
H323	H	0.316379	-0.755287	0.780439
H324	H	0.816379	-0.255287	1.280439
H325	H	0.386667	-0.836458	0.788273
H326	H	0.886667	-0.336458	1.288273
H327	H	0.358872	-0.793987	0.714163
H328	H	0.858872	-0.293987	1.214163
O329	O	0.412257	-0.527284	0.631852
O330	O	0.912257	-0.027284	1.131852
C331	C	0.366251	-0.461878	0.628119
C332	C	0.866251	0.038122	1.128119
H333	H	0.316248	-0.459149	0.632739
H334	H	0.816248	0.040851	1.132739
H335	H	0.386482	-0.424807	0.577989
H336	H	0.886482	0.075193	1.077989
H337	H	0.358823	-0.448787	0.670609
H338	H	0.858823	0.051213	1.170609
O339	O	0.274031	-0.481330	0.678133
O340	O	0.774031	0.018670	1.178133
C341	C	0.233515	-0.471798	0.740744
C342	C	0.733515	0.028202	1.240744
H343	H	0.223035	-0.520023	0.779829
H344	H	0.723035	-0.020023	1.279829
H345	H	0.184180	-0.429685	0.736722
H346	H	0.684180	0.070315	1.236722
H347	H	0.260564	-0.457980	0.756311
H348	H	0.760564	0.042020	1.256311
O349	O	0.282785	-0.649467	0.664145
O350	O	0.782785	-0.149467	1.164145
C351	C	0.299684	-0.590518	0.628862
C352	C	0.799684	-0.090518	1.128862
H353	H	0.260111	-0.548389	0.605155
H354	H	0.760111	-0.048389	1.105155
H355	H	0.350581	-0.599736	0.587969
H356	H	0.850581	-0.099736	1.087969
H357	H	0.302024	-0.575760	0.664928
H358	H	0.802024	-0.075760	1.164928
H359	H	0.219934	-0.483420	0.614988
H360	H	0.719934	0.016580	1.114988
H361	H	0.177459	-0.356175	0.572617
H362	H	0.677459	0.143825	1.072617
H363	H	0.116177	-0.483478	0.822809
H364	H	0.616177	0.016522	1.322809
O365	O	0.067460	-0.350787	0.787660
O366	O	0.567460	0.149213	1.287660
C367	C	0.102923	-0.367903	0.828163
C368	C	0.602923	0.132097	1.328163
H369	H	0.143764	-0.418823	0.828833
H370	H	0.643764	0.081177	1.328833
H371	H	0.066971	-0.370312	0.881362
H372	H	0.566971	0.129688	1.381362
H373	H	0.126709	-0.328416	0.807049
H374	H	0.626709	0.171584	1.307049
O375	O	-0.084190	-0.678141	0.418494
O376	O	0.415810	-0.178141	0.918494
C377	C	-0.048763	-0.637640	0.401423
C378	C	0.451237	-0.137640	0.901423
H379	H	0.007347	-0.664780	0.382223
H380	H	0.507347	-0.164780	0.882223
H381	H	-0.061361	-0.627033	0.447568
H382	H	0.438639	-0.127033	0.947568
H383	H	-0.063626	-0.588359	0.360675
H384	H	0.436374	-0.088359	0.860675
O385	O	0.074812	-0.858110	0.280497
O386	O	0.574812	-0.358110	0.780497
C387	C	0.084644	-0.923969	0.326524
C388	C	0.584644	-0.423969	0.826524
H389	H	0.076736	-0.923830	0.376546
H390	H	0.576736	-0.423830	0.876546
H391	H	0.137834	-0.957327	0.306344
H392	H	0.637834	-0.457327	0.806344
H393	H	0.047313	-0.944006	0.333901
H394	H	0.547313	-0.444006	0.833901
H395	H	0.025866	-0.893188	0.413136
H396	H	0.525866	-0.393188	0.913136
H397	H	-0.035712	-0.642984	0.515253
H398	H	0.464288	-0.142984	1.015253
O399	O	-0.084463	-0.678132	0.466428
O400	O	0.415537	-0.178132	0.966428
C401	C	-0.143297	-0.637517	0.501767
C402	C	0.356703	-0.137517	1.001767
H403	H	-0.153134	-0.664581	0.557894
H404	H	0.346866	-0.164581	1.057894
H405	H	-0.187435	-0.626860	0.489118
H406	H	0.312565	-0.126860	0.989118
H407	H	-0.136899	-0.588267	0.486867
H408	H	0.363101	-0.088267	0.986867
H409	H	0.025599	-0.893178	0.576787
H410	H	0.525599	-0.393178	1.076787
O411	O	0.074227	-0.858090	0.625719
O412	O	0.574227	-0.358090	1.125719
C413	C	0.084150	-0.923951	0.635634
C414	C	0.584150	-0.423951	1.135634
H415	H	0.041900	-0.923773	0.627696
H416	H	0.541900	-0.423773	1.127696
H417	H	0.084430	-0.957240	0.688857
H418	H	0.584430	-0.457240	1.188857
H419	H	0.134144	-0.944098	0.598367
H420	H	0.634144	-0.444098	1.098367
H421	H	0.119026	-1.028132	0.528057
H422	H	0.619026	-0.528132	1.028057
O423	O	0.083878	-0.895487	0.480402
O424	O	0.583878	-0.395487	0.980402
C425	C	0.149255	-0.941540	0.476729
C426	C	0.649255	-0.441540	0.976729
H427	H	0.146522	-0.991515	0.518157
H428	H	0.646522	-0.491515	1.018157
H429	H	0.178021	-0.921313	0.483155
H430	H	0.678021	-0.421313	0.983155
H431	H	0.176087	-0.949031	0.425908
H432	H	0.676087	-0.449031	0.925908
H433	H	-0.129177	-0.900656	0.563750
H434	H	0.370823	-0.400656	1.063750
O435	O	-0.094048	-1.033295	0.611525
O436	O	0.405952	-0.533295	1.111525
C437	C	-0.159429	-0.987245	0.615217
C438	C	0.340571	-0.487245	1.115217
H439	H	-0.162109	-0.937240	0.610548
H440	H	0.337891	-0.437240	1.110548
H441	H	-0.196519	-1.007429	0.665353
H442	H	0.303481	-0.507429	1.165353
H443	H	-0.172528	-0.979828	0.572736
H444	H	0.327472	-0.479828	1.072736
H445	H	-0.137894	-0.841050	0.628449
H446	H	0.362106	-0.341050	1.128449
H447	H	-0.265127	-0.798479	0.670643
H448	H	0.234873	-0.298479	1.170643
H449	H	-0.137547	-0.737181	0.420520
H450	H	0.362453	-0.237181	0.920520
O451	O	-0.270179	-0.688277	0.455450
O452	O	0.229821	-0.188277	0.955450
C453	C	-0.224107	-0.678423	0.389621
C454	C	0.275893	-0.178423	0.889621
H455	H	-0.174135	-0.686316	0.389844
H456	H	0.325865	-0.186316	0.889844
H457	H	-0.244299	-0.625227	0.356272
H458	H	0.255701	-0.125227	0.856272
H459	H	-0.216632	-0.715756	0.369516
H460	H	0.283368	-0.215756	0.869516
