data_functionalizedCrystal
_audit_creation_method	'MofGen! by Chris Wilmer'
_symmetry_space_group_name_H-M	'P1'
_symmetry_Int_Tables_number	1
_symmetry_cell_setting	triclinic
loop_
_symmetry_equiv_pos_as_xyz
  x,y,z
_cell_length_a	12.827893
_cell_length_b	12.594516
_cell_length_c	12.827885
_cell_angle_alpha	89.971946
_cell_angle_beta	89.980728
_cell_angle_gamma	90.016023
loop_
_atom_site_label
_atom_site_type_symbol
_atom_site_fract_x
_atom_site_fract_y
_atom_site_fract_z
Zn1	Zn	1.597665	-0.423691	-0.590861
Zn2	Zn	1.597557	-0.601707	-0.416127
Zn3	Zn	1.422906	-0.423743	-0.416135
Zn4	Zn	1.422889	-0.601628	-0.590827
O5	O	1.510254	-0.512693	-0.503487
O6	O	1.743887	-0.447317	-0.567693
O7	O	1.574351	-0.578155	-0.269892
O8	O	1.446140	-0.274791	-0.439330
O9	O	1.743807	-0.578105	-0.439317
O10	O	1.574535	-0.274752	-0.567701
O11	O	1.446036	-0.447405	-0.269898
O12	O	1.276668	-0.447329	-0.439297
O13	O	1.446112	-0.577970	-0.737067
O14	O	1.276656	-0.578020	-0.567642
O15	O	1.574519	-0.447240	-0.737093
O16	O	1.574335	-0.750643	-0.439283
O17	O	1.446007	-0.750584	-0.567635
C18	C	1.238744	-0.512672	-0.503468
C19	C	1.122591	-0.512689	-0.503484
C20	C	1.070828	-0.577460	-0.566895
C21	C	0.950778	-0.577479	-0.566914
C22	C	1.510186	-0.789234	-0.503477
C23	C	1.510252	-0.907539	-0.503508
C24	C	1.440448	-0.976799	-0.573269
C25	C	1.414986	-1.047668	-0.477914
C26	C	1.535809	-1.047469	-0.598879
C27	C	1.484740	-0.976849	-0.408102
C28	C	1.605607	-0.976645	-0.529132
C29	C	1.580182	-1.047481	-0.433711
C30	C	1.782824	-0.512714	-0.503508
C31	C	1.898978	-0.512723	-0.503517
C32	C	1.510325	-0.512590	-0.776058
C33	C	1.510356	-0.512547	-0.892211
C34	C	1.510352	-0.235072	-0.503521
C35	C	1.510393	-0.116766	-0.503535
C36	C	1.573902	-0.447845	-0.944008
C37	C	1.573935	-0.447799	-1.064059
C38	C	1.510244	-0.512718	-0.231978
C39	C	1.510416	-0.512461	-0.115825
H40	H	0.943486	-0.457271	-0.449221
O41	O	1.445528	-0.578744	-0.945209
C42	C	1.468319	-0.684863	-0.918624
H43	H	1.508399	-0.687174	-0.839353
H44	H	1.392880	-0.732591	-0.914988
H45	H	1.522105	-0.720636	-0.980031
O46	O	0.897794	-0.643583	-0.631831
C47	C	0.924421	-0.620444	-0.736042
H48	H	1.003703	-0.579593	-0.738334
H49	H	0.928055	-0.697318	-0.782782
H50	H	0.863039	-0.565714	-0.771279
H51	H	1.639273	-1.078321	-0.374660
O52	O	1.124094	-0.643454	-0.631700
C53	C	1.187250	-0.582866	-0.699246
H54	H	1.203483	-0.502141	-0.662506
H55	H	1.264049	-0.626153	-0.713097
H56	H	1.145288	-0.571313	-0.776752
O57	O	1.069603	-0.446447	-0.438696
C58	C	1.141041	-0.386239	-0.379712
H59	H	1.218894	-0.382521	-0.422438
H60	H	1.109429	-0.302399	-0.368734
H61	H	1.152565	-0.425110	-0.300270
O62	O	1.369763	-0.939813	-0.643429
C63	C	1.269409	-0.976031	-0.616043
H64	H	1.267499	-0.995943	-0.529363
H65	H	1.209740	-0.911340	-0.633411
H66	H	1.249837	-1.050093	-0.663208
O67	O	1.318926	-1.084943	-0.451888
C68	C	1.326243	-1.146572	-0.360397
H69	H	1.398792	-1.122365	-0.314934
H70	H	1.254122	-1.133018	-0.310192
H71	H	1.331729	-1.234165	-0.382081
O72	O	1.458875	-0.939826	-0.311941
C73	C	1.459095	-0.827883	-0.313092
H74	H	1.447407	-0.798541	-0.396353
H75	H	1.393181	-0.797069	-0.261735
H76	H	1.536870	-0.797520	-0.282119
H77	H	1.686164	-0.945428	-0.550829
H78	H	1.557369	-1.078491	-0.679523
H79	H	1.628279	-0.392482	-0.899477
O80	O	1.638742	-0.381742	-1.117352
C81	C	1.624358	-0.396412	-1.225351
H82	H	1.543692	-0.431278	-1.240144
H83	H	1.631443	-0.316708	-1.266915
H84	H	1.686307	-0.453111	-1.256326
O85	O	1.445477	-0.578659	-1.062861
C86	C	1.386408	-0.638755	-1.134311
H87	H	1.429156	-0.642476	-1.212148
H88	H	1.375261	-0.722602	-1.102688
H89	H	1.307043	-0.599785	-1.145872
