data_functionalizedCrystal
_audit_creation_method	'MofGen! by Chris Wilmer'
_symmetry_space_group_name_H-M	'P1'
_symmetry_Int_Tables_number	1
_symmetry_cell_setting	triclinic
loop_
_symmetry_equiv_pos_as_xyz
  x,y,z
_cell_length_a	15.944499
_cell_length_b	14.519709
_cell_length_c	13.596369
_cell_angle_alpha	90.006934
_cell_angle_beta	89.992083
_cell_angle_gamma	96.421123
loop_
_atom_site_label
_atom_site_type_symbol
_atom_site_fract_x
_atom_site_fract_y
_atom_site_fract_z
O1	O	1.114724	-0.118716	-0.081852
O2	O	0.870190	-0.133430	-0.081842
O3	O	0.998941	0.008178	-0.081839
O4	O	0.985974	-0.260324	-0.081856
O5	O	0.998928	0.008186	0.081744
O6	O	0.870177	-0.133423	0.081741
O7	O	1.114711	-0.118708	0.081730
Zn8	Zn	0.992442	-0.126064	0.107708
Zn9	Zn	0.992459	-0.126074	-0.107819
O10	O	0.985961	-0.260317	0.081727
C11	C	0.838888	-0.132824	-0.000049
C12	C	0.745637	-0.131018	-0.000045
C13	C	0.454220	-0.213289	-0.000064
C14	C	0.515194	-0.170526	-0.080718
C15	C	0.409991	-0.124456	-0.000067
C16	C	0.515167	-0.170495	0.080562
C17	C	0.574905	-0.127685	-0.000054
C18	C	0.469736	-0.081669	-0.080787
C19	C	0.469703	-0.081650	0.080565
C20	C	0.530659	-0.038823	-0.000109
C21	C	0.314988	-0.122599	-0.000075
C22	C	0.669906	-0.129536	-0.000053
C23	C	0.998330	0.042540	-0.000047
C24	C	0.996519	0.144918	-0.000046
C25	C	1.146013	-0.119315	-0.000065
C26	C	1.239264	-0.121121	-0.000075
C27	C	0.986572	-0.294679	-0.000067
C28	C	0.988383	-0.397057	-0.000074
N29	N	0.992437	-0.126057	0.254800
C30	C	0.989852	0.519801	-0.000072
C31	C	0.991704	0.415497	-0.000064
C32	C	0.993185	0.332363	-0.000058
C33	C	0.995037	0.228052	-0.000052
N34	N	0.992471	-0.126074	-0.254911
C35	C	0.992458	-0.126075	0.656091
C36	C	0.992450	-0.126073	0.544440
C37	C	0.992448	-0.126067	0.455449
C38	C	0.992439	-0.126063	0.343790
H39	H	0.420997	-0.287010	-0.000147
N40	N	0.541823	-0.220272	0.170882
H41	H	0.581822	-0.176618	0.211300
H42	H	0.571047	-0.275399	0.150221
N43	N	0.541907	-0.220283	-0.171046
H44	H	0.524573	-0.187386	-0.231957
H45	H	0.513819	-0.286173	-0.170911
H46	H	0.449708	-0.044135	-0.149051
N47	N	0.574462	0.058917	-0.000143
H48	H	0.557951	0.092339	-0.061085
H49	H	0.637594	0.057088	0.000476
N50	N	0.442967	-0.031920	0.170892
H51	H	0.414691	0.023903	0.150347
H52	H	0.494245	-0.011168	0.212222
