data_functionalizedCrystal
_audit_creation_method	'MofGen! by Chris Wilmer'
_symmetry_space_group_name_H-M	'P1'
_symmetry_Int_Tables_number	1
_symmetry_cell_setting	triclinic
loop_
_symmetry_equiv_pos_as_xyz
  x,y,z
_cell_length_a	14.044220
_cell_length_b	11.026607
_cell_length_c	9.483335
_cell_angle_alpha	101.374700
_cell_angle_beta	100.175621
_cell_angle_gamma	79.112553
loop_
_atom_site_label
_atom_site_type_symbol
_atom_site_fract_x
_atom_site_fract_y
_atom_site_fract_z
O1	O	0.416189	-1.636260	0.120913
O2	O	0.370141	-1.277969	0.120912
O3	O	0.254262	-1.451738	0.120898
O4	O	0.532069	-1.462490	0.120927
O5	O	0.230670	-1.487072	-0.120880
O6	O	0.346549	-1.313302	-0.120866
O7	O	0.392597	-1.671593	-0.120866
Cu8	Cu	0.367419	-1.495674	-0.142942
Cu9	Cu	0.395319	-1.453888	0.142988
O10	O	0.508477	-1.497823	-0.120852
C11	C	0.349850	-1.249505	0.000022
C12	C	0.324526	-1.112050	0.000022
C13	C	0.206348	-1.464697	0.000008
C14	C	0.098725	-1.450653	0.000006
N15	N	0.347797	-1.525072	-0.344051
C16	C	-0.098315	-1.424975	0.000027
C17	C	-0.138952	-1.524579	0.000032
C18	C	-0.248592	-1.510291	0.000043
C19	C	0.011335	-1.439261	0.000015
C20	C	0.556391	-1.484864	0.000041
C21	C	0.664014	-1.498906	0.000053
C22	C	0.412889	-1.700056	0.000027
C23	C	0.438214	-1.837510	0.000037
C24	C	0.394451	-1.045812	0.000030
C25	C	0.368279	-0.903745	0.000029
C26	C	0.373204	-1.487026	-0.583679
C27	C	0.389535	-1.462535	-0.416271
N28	N	0.414936	-1.424498	0.344097
H29	H	-0.145864	-1.328979	0.000030
H30	H	0.462759	-1.352839	-0.593802
H31	H	0.437361	-1.390872	-0.354176
H32	H	-0.091390	-1.620568	0.000129
N33	N	0.493864	-1.106596	0.000065
N34	N	0.558406	-1.073885	0.101990
H35	H	0.628620	-1.116811	0.102017
H36	H	0.289036	-0.855277	0.000058
N37	N	0.537628	-0.898294	0.000013
N38	N	0.559964	-0.984121	-0.101908
H39	H	0.630174	-1.027049	-0.101930
N40	N	0.225118	-1.051244	-0.000007
N41	N	0.203997	-0.935925	-0.000017
H42	H	0.133788	-0.892981	-0.000040
H43	H	0.325389	-1.558695	-0.645778
H44	H	0.299979	-1.596746	-0.406146
