data_functionalizedCrystal
_audit_creation_method	'MofGen! by Chris Wilmer'
_symmetry_space_group_name_H-M	'P1'
_symmetry_Int_Tables_number	1
_symmetry_cell_setting	triclinic
loop_
_symmetry_equiv_pos_as_xyz
  x,y,z
_cell_length_a	17.000371
_cell_length_b	16.992695
_cell_length_c	16.053802
_cell_angle_alpha	87.258926
_cell_angle_beta	87.622785
_cell_angle_gamma	96.866265
loop_
_atom_site_label
_atom_site_type_symbol
_atom_site_fract_x
_atom_site_fract_y
_atom_site_fract_z
O1	O	1.061026	-0.024613	-0.069433
O2	O	0.831096	-0.052947	-0.069434
O3	O	0.945139	0.075299	-0.069427
O4	O	0.946983	-0.152859	-0.069440
O5	O	0.938860	0.068267	0.069432
O6	O	0.824817	-0.059978	0.069424
O7	O	1.054747	-0.031645	0.069426
Zn8	Zn	0.938785	-0.046928	0.091472
Zn9	Zn	0.947058	-0.037663	-0.091480
O10	O	0.940704	-0.159890	0.069418
C11	C	0.798399	-0.057984	-0.000005
C12	C	0.710329	-0.062510	-0.000005
C13	C	0.673873	0.007130	0.000000
C14	C	0.591121	0.002874	-0.000006
C15	C	0.544826	-0.071024	-0.000012
C16	C	0.581287	-0.140668	-0.000020
C17	C	0.664038	-0.136411	-0.000020
C18	C	0.294726	-0.087469	-0.000018
C19	C	0.211970	-0.091721	-0.000016
C20	C	0.221810	0.051821	-0.000004
C21	C	0.304562	0.056072	0.000001
C22	C	0.341016	-0.013572	-0.000011
C23	C	0.460240	-0.075376	-0.000016
C24	C	0.425601	-0.009218	-0.000013
C25	C	0.939628	0.100832	0.000002
C26	C	0.932552	0.187388	0.000002
C27	C	1.087444	-0.026607	-0.000005
C28	C	1.175515	-0.022081	-0.000011
C29	C	0.946215	-0.185423	-0.000013
C30	C	0.953291	-0.271979	-0.000018
N31	N	0.933145	-0.053250	0.216332
C32	C	1.000824	0.242336	0.000003
C33	C	0.994172	0.323664	-0.000005
C34	C	0.919245	0.350043	-0.000008
C35	C	0.850968	0.295089	-0.000012
C36	C	0.857622	0.213763	-0.000010
C37	C	0.891668	0.591740	-0.000020
C38	C	0.885019	0.673073	-0.000019
C39	C	1.028223	0.701643	-0.000014
C40	C	1.034870	0.620313	-0.000007
C41	C	0.966593	0.565367	-0.000015
N42	N	0.912443	0.433173	-0.000013
N43	N	0.973396	0.482239	-0.000015
N44	N	0.952704	-0.031335	-0.216340
C45	C	0.981690	0.001302	0.260029
C46	C	0.977753	-0.003128	0.347435
C47	C	0.925273	-0.062113	0.391143
C48	C	0.876722	-0.116667	0.347440
C49	C	0.880656	-0.112234	0.260035
C50	C	0.908087	-0.081456	0.652552
C51	C	0.904158	-0.085887	0.739963
C52	C	1.005188	0.027655	0.739952
C53	C	1.009121	0.032080	0.652545
C54	C	0.960567	-0.022472	0.608850
N55	N	0.921249	-0.066643	0.480487
N56	N	0.964588	-0.017938	0.519508
H57	H	0.174278	-0.151900	-0.000017
C58	C	1.117290	0.591303	-0.000014
H59	H	1.156999	0.635677	-0.000023
H60	H	1.120676	0.557721	0.048407
H61	H	1.125046	0.562623	-0.048445
C62	C	1.031161	0.056873	0.395498
H63	H	1.062988	0.092629	0.356949
H64	H	0.999062	0.085698	0.429610
H65	H	1.064398	0.029304	0.429579
C66	C	0.816565	0.531309	-0.000014
H67	H	0.770991	0.558669	-0.000005
H68	H	0.818366	0.501435	-0.048434
H69	H	0.813997	0.496543	0.048418
C70	C	0.355485	0.137357	-0.000000
H71	H	0.409989	0.129918	0.000006
H72	H	0.346134	0.168601	-0.048422
H73	H	0.341756	0.163696	0.048431
H74	H	0.693718	-0.193119	-0.000020
C75	C	1.066844	0.096968	0.604472
H76	H	1.095188	0.128828	0.643016
H77	H	1.103151	0.072871	0.570361
H78	H	1.037799	0.129247	0.570391
C79	C	0.846384	-0.150734	0.788040
H80	H	0.818012	-0.182574	0.749499
H81	H	0.875381	-0.183034	0.822146
H82	H	0.810093	-0.126585	0.822128
H83	H	0.833988	-0.164692	0.383032
H84	H	0.711561	0.067305	0.000008
H85	H	0.789962	0.316573	-0.000020
C86	C	1.103321	0.762085	-0.000017
H87	H	1.088631	0.814299	-0.000026
H88	H	1.131646	0.752180	0.048404
H89	H	1.136016	0.757072	-0.048448
H90	H	0.543587	-0.200837	-0.000030
H91	H	0.824001	0.694545	-0.000008
H92	H	1.061837	0.220866	0.000011
C93	C	1.069271	0.384103	0.000005
H94	H	1.114846	0.356744	0.000019
H95	H	1.071850	0.418873	-0.048418
H96	H	1.067456	0.413970	0.048434
C97	C	0.551023	0.079477	0.000009
H98	H	0.590446	0.124096	0.000025
H99	H	0.521136	0.083260	-0.048413
H100	H	0.516758	0.078340	0.048439
H101	H	0.324397	-0.144178	-0.000034
C102	C	0.854687	-0.141467	0.604497
H103	H	0.822877	-0.177235	0.643049
H104	H	0.821446	-0.113914	0.570414
H105	H	0.886799	-0.170289	0.570389
C106	C	0.782522	0.153320	-0.000009
H107	H	0.736945	0.180676	-0.000004
H108	H	0.784332	0.123450	-0.048432
H109	H	0.779951	0.118552	0.048421
C110	C	1.039423	0.066179	0.211954
H111	H	1.034822	0.061003	0.153639
H112	H	1.026867	0.116970	0.226287
H113	H	1.092207	0.060579	0.226268
H114	H	0.841124	-0.156655	0.224458
C115	C	1.058586	0.087664	0.788014
H116	H	1.090407	0.123426	0.749465
H117	H	1.026478	0.116483	0.822124
H118	H	1.091830	0.060106	0.822097
C119	C	0.181710	0.128424	-0.000002
H120	H	0.125796	0.115308	-0.000011
H121	H	0.195102	0.156162	0.048420
H122	H	0.199484	0.161057	-0.048432
H123	H	0.463298	0.050948	-0.000013
H124	H	0.422537	-0.135543	-0.000019
