data_functionalizedCrystal
_audit_creation_method	'MofGen! by Chris Wilmer'
_symmetry_space_group_name_H-M	'P1'
_symmetry_Int_Tables_number	1
_symmetry_cell_setting	triclinic
loop_
_symmetry_equiv_pos_as_xyz
  x,y,z
_cell_length_a	19.288864
_cell_length_b	17.666332
_cell_length_c	19.288865
_cell_angle_alpha	89.990209
_cell_angle_beta	96.863755
_cell_angle_gamma	90.019670
loop_
_atom_site_label
_atom_site_type_symbol
_atom_site_fract_x
_atom_site_fract_y
_atom_site_fract_z
O1	O	0.921350	0.063200	-0.086647
O2	O	0.719089	0.063149	-0.098336
O3	O	0.826064	0.063161	0.008639
O4	O	0.814375	0.063188	-0.193622
O5	O	0.826052	-0.062736	0.008641
O6	O	0.719077	-0.062748	-0.098333
O7	O	0.921338	-0.062697	-0.086645
Cu8	Cu	0.820206	-0.074218	-0.092489
Cu9	Cu	0.820220	0.074670	-0.092492
O10	O	0.814363	-0.062709	-0.193619
C11	C	0.693207	0.000194	-0.097959
C12	C	0.616103	0.000174	-0.096830
C13	C	0.571407	0.000194	-0.159598
C14	C	0.498960	0.000203	-0.158537
C15	C	0.471212	0.000206	-0.094705
C16	C	0.515918	0.000181	-0.031929
C17	C	0.588364	0.000165	-0.032991
C18	C	0.362954	0.044332	-0.044526
C19	C	0.290510	0.044352	-0.043467
C20	C	0.247767	0.000251	-0.091425
C21	C	0.277475	-0.043861	-0.140455
C22	C	0.349921	-0.043877	-0.141518
C23	C	0.392658	0.000222	-0.093546
C24	C	0.124514	0.000279	-0.153047
C25	C	0.052066	0.000283	-0.151984
C26	C	0.069026	0.000269	-0.025374
C27	C	0.141473	0.000258	-0.026439
C28	C	0.169212	0.000267	-0.090278
N29	N	0.820201	-0.178937	-0.092486
C30	C	0.867600	-0.780982	-0.045134
C31	C	0.867602	-0.701734	-0.045135
C32	C	0.820221	-0.662119	-0.092486
C33	C	0.772848	-0.701757	-0.139850
C34	C	0.772853	-0.781003	-0.139852
N35	N	0.758728	-0.537721	-0.101492
N36	N	0.758726	-0.462440	-0.101486
C37	C	0.820205	-0.423355	-0.092484
N38	N	0.881688	-0.462393	-0.083475
N39	N	0.881690	-0.537681	-0.083477
C40	C	0.820211	-0.576190	-0.092489
C41	C	0.867579	-0.297797	-0.045128
C42	C	0.867582	-0.218547	-0.045135
C43	C	0.772822	-0.218572	-0.139846
C44	C	0.772826	-0.297819	-0.139843
C45	C	0.820204	-0.337427	-0.092480
C46	C	0.947220	0.000260	-0.087022
C47	C	1.024324	0.000285	-0.088151
C48	C	0.825682	0.000210	0.034516
C49	C	0.824553	0.000203	0.111620
N50	N	0.820231	0.179389	-0.092489
C51	C	0.814745	0.000244	-0.219497
C52	C	0.815874	0.000255	-0.296601
C53	C	0.887321	0.000215	0.156316
C54	C	0.886260	0.000227	0.228763
C55	C	0.822428	0.000211	0.256511
C56	C	0.759652	0.000204	0.211805
C57	C	0.760714	0.000200	0.139359
C58	C	0.772244	-0.043900	0.364799
C59	C	0.771184	-0.043901	0.437244
C60	C	0.819148	0.000228	0.479956
C61	C	0.868184	0.044346	0.450217
C62	C	0.869246	0.044342	0.377772
C63	C	0.821269	0.000216	0.335065
C64	C	0.880770	0.000253	0.603209
C65	C	0.879707	0.000270	0.675657
C66	C	0.753097	0.000239	0.658697
C67	C	0.754162	0.000230	0.586250
C68	C	0.818000	0.000234	0.558511
H69	H	0.374106	-0.079796	-0.181438
N70	N	0.686464	0.000208	0.538033
H71	H	0.658607	0.046871	0.546923
H72	H	0.658655	-0.046499	0.546965
N73	N	0.231384	-0.091427	-0.192191
H74	H	0.180983	-0.084728	-0.184078
H75	H	0.244893	-0.146446	-0.185883
N76	N	0.918710	-0.823699	0.005939
H77	H	0.911528	-0.879915	-0.001247
H78	H	0.910841	-0.809863	0.055195
N79	N	0.718307	-0.091493	0.469318
H80	H	0.688079	-0.119443	0.431268
H81	H	0.688088	-0.057669	0.495385
H82	H	0.909171	0.080267	0.353561
N83	N	0.918687	-0.340515	0.005948
H84	H	0.949356	-0.373377	-0.020516
H85	H	0.892197	-0.373366	0.036626
N86	N	0.953962	0.000241	0.276984
H87	H	0.994563	0.000245	0.248418
H88	H	0.956267	-0.046429	0.307418
N89	N	0.154442	0.000275	-0.221896
H90	H	0.184142	0.046941	-0.225162
H91	H	0.115094	0.000254	-0.261460
H92	H	0.939303	0.000221	0.133736
N93	N	0.039107	0.000275	0.043474
H94	H	0.078419	0.000263	0.083078
H95	H	0.009397	-0.046391	0.046673
N96	N	0.721751	-0.823747	-0.190925
H97	H	0.691086	-0.856642	-0.164457
H98	H	0.748246	-0.856568	-0.221599
N99	N	0.918674	-0.658982	0.005965
H100	H	0.911475	-0.602770	-0.001216
H101	H	0.967932	-0.672795	-0.001908
H102	H	0.177866	0.000245	0.024674
N103	N	0.003834	0.000296	-0.219674
H104	H	-0.026616	-0.046373	-0.222038
H105	H	0.032432	0.000325	-0.260249
N106	N	0.918680	-0.175801	0.005940
H107	H	0.948691	-0.212920	0.035942
H108	H	0.892182	-0.142936	0.036575
N109	N	0.720505	-0.091494	0.318732
H110	H	0.689285	-0.119445	0.348563
H111	H	0.746501	-0.129163	0.292104
H112	H	0.707679	0.000193	0.234401
H113	H	0.930822	0.000284	0.712049
H114	H	0.734250	-0.330087	-0.178401
H115	H	0.397751	0.080249	-0.005471
N116	N	0.601326	0.000209	-0.228449
H117	H	0.562013	0.000225	-0.268051
H118	H	0.630993	-0.046466	-0.231654
N119	N	0.919924	0.091944	0.496275
H120	H	0.911810	0.085257	0.546681
H121	H	0.913621	0.146957	0.482728
N122	N	0.693012	0.000187	0.091146
H123	H	0.652411	0.000182	0.119713
H124	H	0.690690	-0.046488	0.060729
N125	N	0.949620	0.000259	0.573283
H126	H	0.977117	0.046937	0.589581
H127	H	0.940707	0.000218	0.520611
N128	N	0.450739	0.000226	-0.226239
H129	H	0.479305	0.000229	-0.266840
H130	H	0.420338	0.046907	-0.228548
H131	H	0.266327	0.080274	-0.003546
N132	N	0.485996	0.000176	0.036920
H133	H	0.433319	0.000189	0.028069
H134	H	0.502385	0.046838	0.064381
N135	N	0.636577	0.000140	0.034711
H136	H	0.608010	0.000139	0.075312
H137	H	0.667027	0.046805	0.037029
H138	H	0.701123	0.000230	0.681288
N139	N	0.721746	-0.659034	-0.190924
H140	H	0.728929	-0.602818	-0.183736
H141	H	0.672500	-0.672912	-0.183028
H142	H	0.734247	-0.186317	-0.178402
