data_functionalizedCrystal
_audit_creation_method	'MofGen! by Chris Wilmer'
_symmetry_space_group_name_H-M	'P1'
_symmetry_Int_Tables_number	1
_symmetry_cell_setting	triclinic
loop_
_symmetry_equiv_pos_as_xyz
  x,y,z
_cell_length_a	10.489741
_cell_length_b	14.044220
_cell_length_c	13.101039
_cell_angle_alpha	86.332523
_cell_angle_beta	86.605995
_cell_angle_gamma	91.135974
loop_
_atom_site_label
_atom_site_type_symbol
_atom_site_fract_x
_atom_site_fract_y
_atom_site_fract_z
O1	O	1.714058	-0.128645	-0.085266
O2	O	1.344136	-0.141208	-0.085258
O3	O	1.523544	0.003095	-0.085252
O4	O	1.534651	-0.272948	-0.085272
O5	O	1.510674	-0.007275	0.085178
O6	O	1.331266	-0.151579	0.085171
O7	O	1.701188	-0.139016	0.085163
Zn8	Zn	1.514183	-0.146944	0.112227
Zn9	Zn	1.531141	-0.133280	-0.112321
O10	O	1.521780	-0.283319	0.085157
C11	C	1.290073	-0.145445	-0.000042
C12	C	1.148155	-0.142606	-0.000039
C13	C	1.512248	0.033258	-0.000036
C14	C	1.497748	0.138582	-0.000035
C15	C	1.755251	-0.134779	-0.000055
C16	C	1.897169	-0.137617	-0.000065
C17	C	1.974622	-0.229434	-0.000061
C18	C	2.068695	-0.180947	-0.084085
C19	C	2.055969	-0.191150	0.083945
C20	C	1.989378	-0.089089	-0.084158
C21	C	1.976639	-0.099309	0.083947
C22	C	2.070679	-0.050755	-0.000097
C23	C	1.533077	-0.313481	-0.000060
C24	C	1.547577	-0.418805	-0.000069
N25	N	1.502620	-0.156269	0.265475
C26	C	1.471240	0.331425	-0.000049
C27	C	1.574079	0.388357	-0.000054
C28	C	1.559330	0.495662	-0.000062
C29	C	1.485988	0.224111	-0.000041
N30	N	1.542714	-0.123947	-0.265569
C31	C	1.486888	-0.168964	0.474517
C32	C	1.558441	-0.111255	0.525395
C33	C	1.549688	-0.118319	0.641713
C34	C	1.495640	-0.161902	0.358188
H35	H	2.109020	-0.215476	-0.155125
H36	H	1.959984	-0.045948	-0.155279
H37	H	1.372129	0.363271	-0.000049
C38	C	1.640646	-0.044305	0.360820
C39	C	1.649718	-0.037190	0.466275
H40	H	1.696911	0.001476	0.324321
H41	H	1.555461	-0.032662	0.343439
H42	H	1.663433	-0.106552	0.343179
H43	H	1.626921	0.025056	0.483918
H44	H	1.734921	-0.048826	0.483663
C45	C	1.404287	-0.235619	0.639091
C46	C	1.395332	-0.242828	0.533637
H47	H	1.347773	-0.281226	0.675595
H48	H	1.381768	-0.173293	0.656612
H49	H	1.489391	-0.247466	0.656584
H50	H	1.310230	-0.230974	0.516142
H51	H	1.417843	-0.305169	0.516109
H52	H	1.932637	-0.304920	-0.000151
H53	H	1.936288	-0.064816	0.154994
C54	C	2.209699	0.069981	-0.087339
C55	C	2.127072	0.051245	-0.000145
H56	H	2.244519	0.132948	-0.087366
H57	H	2.163751	0.064097	-0.147037
H58	H	2.276878	0.025610	-0.086735
H59	H	2.059888	0.095611	-0.000752
H60	H	2.173022	0.057137	0.059569
C61	C	1.986576	-0.283471	0.238537
C62	C	2.095864	-0.249444	0.179850
H63	H	2.011205	-0.319458	0.297744
H64	H	1.937149	-0.322935	0.198953
H65	H	1.937268	-0.231094	0.258730
H66	H	2.145168	-0.301822	0.159651
H67	H	2.145312	-0.209978	0.219442
C68	C	1.696794	0.245848	-0.000029
C69	C	1.707889	0.345371	-0.000042
H70	H	1.779400	0.219309	-0.000012
H71	H	1.656241	0.228976	-0.059459
H72	H	1.647233	0.221765	0.059406
H73	H	1.757443	0.369455	-0.059481
H74	H	1.748462	0.362251	0.059395
