data_functionalizedCrystal
_audit_creation_method	'MofGen! by Chris Wilmer'
_symmetry_space_group_name_H-M	'P1'
_symmetry_Int_Tables_number	1
_symmetry_cell_setting	triclinic
loop_
_symmetry_equiv_pos_as_xyz
  x,y,z
_cell_length_a	16.120444
_cell_length_b	12.645331
_cell_length_c	16.120297
_cell_angle_alpha	92.874661
_cell_angle_beta	84.384883
_cell_angle_gamma	87.078945
loop_
_atom_site_label
_atom_site_type_symbol
_atom_site_fract_x
_atom_site_fract_y
_atom_site_fract_z
Zn1	Zn	-0.356878	-1.566060	0.489551
Zn2	Zn	0.143122	-1.066060	0.989551
Zn3	Zn	-0.489568	-1.565924	0.356863
Zn4	Zn	0.010432	-1.065924	0.856863
Zn5	Zn	-0.349800	-1.398252	0.349787
Zn6	Zn	0.150200	-0.898252	0.849787
Zn7	Zn	-0.496594	-1.379268	0.496574
Zn8	Zn	0.003406	-0.879268	0.996574
O9	O	-0.423210	-1.477376	0.423194
O10	O	0.076790	-0.977376	0.923194
O11	O	-0.374501	-1.714387	0.471971
O12	O	0.125499	-1.214387	0.971971
O13	O	-0.465125	-1.551569	0.238963
O14	O	0.034875	-1.051569	0.738963
O15	O	-0.233774	-1.428514	0.362426
O16	O	0.266226	-0.928514	0.862426
O17	O	-0.471988	-1.714286	0.374486
O18	O	0.028012	-1.214286	0.874486
O19	O	-0.238974	-1.551802	0.465110
O20	O	0.261026	-1.051802	0.965110
O21	O	-0.362438	-1.428382	0.233764
O22	O	0.137562	-0.928382	0.733764
O23	O	-0.369251	-1.247389	0.369237
O24	O	0.130749	-0.747389	0.869237
O25	O	-0.483963	-1.396159	0.612604
O26	O	0.016037	-0.896159	1.112604
O27	O	-0.477100	-1.233442	0.477081
O28	O	0.022900	-0.733442	0.977081
O29	O	-0.381314	-1.533394	0.607444
O30	O	0.118686	-1.033394	1.107444
O31	O	-0.607465	-1.533161	0.381297
O32	O	-0.107465	-1.033161	0.881297
O33	O	-0.612627	-1.396026	0.483942
O34	O	-0.112627	-0.896026	0.983942
C35	C	-0.423170	-1.201952	0.423154
C36	C	0.076830	-0.701952	0.923154
C37	C	-0.423175	-1.084121	0.423157
C38	C	0.076825	-0.584121	0.923157
C39	C	-0.355037	-0.925293	0.355644
C40	C	0.144963	-0.425293	0.855644
C41	C	-0.355198	-1.047860	0.355377
C42	C	0.144802	-0.547860	0.855377
C43	C	-0.510001	-1.035251	0.403550
C44	C	-0.010001	-0.535251	0.903550
C45	C	-0.509616	-0.912707	0.403087
C46	C	-0.009616	-0.412707	0.903087
C47	C	-0.405311	-0.912487	0.510547
C48	C	0.094689	-0.412487	1.010547
C49	C	-0.403328	-1.035259	0.509963
C50	C	0.096672	-0.535259	1.009963
C51	C	-0.640375	-1.462547	0.434168
C52	C	-0.140375	-0.962547	0.934168
C53	C	-0.733280	-1.456298	0.438890
C54	C	-0.233280	-0.956298	0.938890
C55	C	-0.942195	-1.510041	0.398874
C56	C	-0.442195	-1.010041	0.898874
C57	C	-0.903375	-1.444907	0.447522
C58	C	-0.403375	-0.944907	0.947522
C59	C	-0.808725	-1.451247	0.442718
C60	C	-0.308725	-0.951247	0.942718
C61	C	-1.036853	-1.503703	0.403677
C62	C	-0.536853	-1.003703	0.903677
C63	C	-0.205198	-1.492291	0.412195
C64	C	0.294802	-0.992291	0.912195
C65	C	-0.112294	-1.498647	0.407508
C66	C	0.387706	-0.998647	0.907508
C67	C	-0.434212	-1.462674	0.641199
C68	C	0.065788	-0.962674	1.141199
C69	C	-0.438900	-1.456409	0.734100
C70	C	0.061100	-0.956409	1.234100
C71	C	-0.423234	-0.753878	0.423221
C72	C	0.076766	-0.253878	0.923221
C73	C	-0.423200	-0.871712	0.423198
C74	C	0.076800	-0.371712	0.923198
C75	C	-0.412191	-1.492086	0.206034
C76	C	0.087809	-0.992086	0.706034
C77	C	-0.407267	-1.498572	0.113121
C78	C	0.092733	-0.998572	0.613121
C79	C	-0.447441	-1.444933	0.904189
C80	C	0.052559	-0.944933	1.404189
C81	C	-0.398729	-1.510045	0.943037
C82	C	0.101271	-1.010045	1.443037
C83	C	-0.403481	-1.503659	1.037681
C84	C	0.096519	-1.003659	1.537681
C85	C	-0.442690	-1.451317	0.809537
C86	C	0.057310	-0.951317	1.309537
H87	H	-0.290302	-0.899267	0.367248
H88	H	0.209698	-0.399267	0.867248
H89	H	-0.455014	-0.877050	0.560825
H90	H	0.044986	-0.377050	1.060825
N91	N	-0.341935	-1.585983	0.895586
N92	N	0.158065	-1.085983	1.395586
N93	N	-0.338105	-1.591127	0.817656
N94	N	0.161895	-1.091127	1.317656
H95	H	-0.297997	-1.644757	0.784139
H96	H	0.202003	-1.144757	1.284139
H97	H	-0.904350	-1.570559	0.353620
H98	H	-0.404350	-1.070559	0.853620
H99	H	-0.941223	-1.384384	0.492778
H100	H	-0.441223	-0.884384	0.992778
H101	H	-0.525312	-0.887159	0.339363
H102	H	-0.025312	-0.387159	0.839363
N103	N	-0.504219	-1.368982	0.951634
N104	N	-0.004219	-0.868982	1.451634
N105	N	-0.477190	-1.300229	0.998860
N106	N	0.022810	-0.800229	1.498860
H107	H	-0.517287	-1.246589	1.032379
H108	H	-0.017287	-0.746589	1.532379
N109	N	-0.274242	-1.089895	0.370127
N110	N	0.225758	-0.589895	0.870127
N111	N	-0.217226	-1.028703	0.380691
N112	N	0.282774	-0.528703	0.880691
H113	H	-0.160043	-1.058386	0.391097
H114	H	0.339957	-0.558386	0.891097
H115	H	-0.366356	-0.897872	0.291202
H116	H	0.133644	-0.397872	0.791202
H117	H	-0.366666	-1.080579	0.290560
H118	H	0.133334	-0.580579	0.790560
H119	H	-0.561882	-0.876630	0.450386
H120	H	-0.061882	-0.376630	0.950386
N121	N	-0.323193	-1.075729	0.528605
N122	N	0.176807	-0.575729	1.028605
N123	N	-0.259487	-1.060544	0.480938
N124	N	0.240513	-0.560544	0.980938
H125	H	-0.202890	-1.089131	0.494099
H126	H	0.297110	-0.589131	0.994099
N127	N	-0.575172	-1.063755	0.463590
N128	N	-0.075172	-0.563755	0.963590
N129	N	-0.558313	-1.120543	0.521638
N130	N	-0.058313	-0.620543	1.021638
H131	H	-0.604339	-1.140676	0.564045
H132	H	-0.104339	-0.640676	1.064045
H133	H	-0.526063	-1.068934	0.340540
H134	H	-0.026063	-0.568934	0.840540
H135	H	-0.343334	-0.884393	0.529235
H136	H	0.156666	-0.384393	1.029235
H137	H	-0.449715	-1.059518	0.562630
H138	H	0.050285	-0.559518	1.062630
