data_functionalizedCrystal
_audit_creation_method	'MofGen! by Chris Wilmer'
_symmetry_space_group_name_H-M	'P1'
_symmetry_Int_Tables_number	1
_symmetry_cell_setting	triclinic
loop_
_symmetry_equiv_pos_as_xyz
  x,y,z
_cell_length_a	17.699083
_cell_length_b	9.130307
_cell_length_c	17.699083
_cell_angle_alpha	90.006159
_cell_angle_beta	83.283015
_cell_angle_gamma	89.997957
loop_
_atom_site_label
_atom_site_type_symbol
_atom_site_fract_x
_atom_site_fract_y
_atom_site_fract_z
O1	O	1.004075	0.121597	0.095712
O2	O	0.783697	0.121645	0.108164
O3	O	0.900112	0.121607	-0.008251
O4	O	0.887660	0.121635	0.212127
O5	O	0.900103	-0.121992	-0.008256
O6	O	0.783688	-0.121954	0.108159
O7	O	1.004066	-0.122002	0.095707
Cu8	Cu	0.893876	-0.144220	0.101933
Cu9	Cu	0.893887	0.143864	0.101939
O10	O	0.887651	-0.121964	0.212122
C11	C	0.755495	-0.000148	0.107716
C12	C	0.671477	-0.000130	0.106377
N13	N	0.893875	-0.346843	0.101928
C14	C	0.622856	-0.000122	0.174710
C15	C	0.543913	-0.000141	0.173448
C16	C	0.513592	-0.000158	0.103852
C17	C	0.562219	-0.000171	0.035513
C18	C	0.641161	-0.000162	0.036776
C19	C	0.243856	-0.000207	0.030418
C20	C	0.164908	-0.000212	0.029160
C21	C	0.146608	-0.000186	0.167090
C22	C	0.225550	-0.000178	0.168353
C23	C	0.274170	-0.000198	0.100015
C24	C	0.359769	-0.000180	0.101384
C25	C	0.427995	-0.000165	0.102481
C26	C	0.802252	-0.346894	0.010225
C27	C	0.756448	-0.423586	-0.035628
C28	C	0.756459	-0.576920	-0.035628
C29	C	0.802277	-0.653565	0.010231
C30	C	0.848080	-0.576872	0.056084
C31	C	0.848066	-0.423535	0.056078
C32	C	0.939698	-0.576821	0.147790
C33	C	0.939692	-0.423488	0.147788
C34	C	0.985516	-0.653466	0.193650
C35	C	1.031324	-0.576774	0.239500
C36	C	1.031312	-0.423431	0.239498
C37	C	0.985496	-0.346796	0.193641
C38	C	1.032268	-0.000205	0.096156
C39	C	1.116286	-0.000214	0.097494
C40	C	0.899662	-0.000193	-0.036451
C41	C	0.898323	-0.000193	-0.120469
N42	N	0.893895	0.346486	0.101937
C43	C	0.966656	-0.000210	-0.169090
C44	C	0.965394	-0.000197	-0.248033
C45	C	0.895798	-0.000177	-0.278354
C46	C	0.827459	-0.000156	-0.229727
C47	C	0.828722	-0.000158	-0.150785
C48	C	0.822364	-0.000143	-0.548090
C49	C	0.821106	-0.000144	-0.627038
C50	C	0.959036	-0.000181	-0.645338
C51	C	0.960299	-0.000184	-0.566396
C52	C	0.891961	-0.000155	-0.517776
C53	C	0.893330	-0.000166	-0.432177
C54	C	0.894427	-0.000176	-0.363951
C55	C	0.888102	-0.000161	0.240322
C56	C	0.889440	-0.000151	0.324340
H57	H	0.647537	-0.000107	0.231384
N58	N	0.094165	-0.000227	0.240799
H59	H	0.125353	-0.000221	0.285078
H60	H	0.060998	0.090060	0.243294
H61	H	0.283434	-0.000225	-0.025228
H62	H	0.140225	-0.000228	-0.027517
H63	H	0.773078	-0.000144	-0.111198
N64	N	0.693601	-0.000179	-0.036929
H65	H	0.683863	0.090116	-0.067301
H66	H	0.748190	-0.000233	-0.025508
H67	H	1.068621	-0.639190	0.276839
H68	H	0.537526	-0.000205	-0.021154
H69	H	0.504328	-0.000132	0.229092
N70	N	0.707039	-0.340918	-0.085093
H71	H	0.722084	-0.367625	-0.140178
H72	H	0.651963	-0.367642	-0.070039
H73	H	1.014680	-0.000197	-0.684934
H74	H	0.770792	-0.000130	-0.254420
H75	H	0.719158	-0.639362	-0.072962
N76	N	0.258253	-0.000139	0.243417
H77	H	0.215472	-0.000136	0.286516
H78	H	0.290614	-0.090437	0.246946
H79	H	0.802275	-0.778417	0.010234
H80	H	0.802244	-0.222042	0.010215
H81	H	0.985517	-0.778318	0.193650
H82	H	1.068607	-0.360997	0.276841
N83	N	0.985488	-0.181416	0.193634
H84	H	0.949514	-0.144505	0.157626
H85	H	0.968424	-0.144583	0.246700
H86	H	1.021038	-0.000214	-0.287618
N87	N	1.041722	-0.000245	-0.136389
H88	H	1.084819	-0.000252	-0.179172
H89	H	1.045255	0.090056	-0.104028
N90	N	1.035363	-0.000217	-0.533693
H91	H	1.078462	-0.000224	-0.576473
H92	H	1.038894	0.090086	-0.501332
N93	N	0.746038	-0.000131	-0.659743
H94	H	0.702937	-0.000112	-0.616964
H95	H	0.742517	0.090170	-0.692098
N96	N	0.748660	-0.000117	-0.495655
H97	H	0.704382	-0.000112	-0.526845
H98	H	0.746175	-0.090421	-0.462507
