data_functionalizedCrystal
_audit_creation_method	'MofGen! by Chris Wilmer'
_symmetry_space_group_name_H-M	'P1'
_symmetry_Int_Tables_number	1
_symmetry_cell_setting	triclinic
loop_
_symmetry_equiv_pos_as_xyz
  x,y,z
_cell_length_a	12.645331
_cell_length_b	12.594516
_cell_length_c	12.645324
_cell_angle_alpha	89.969158
_cell_angle_beta	89.977038
_cell_angle_gamma	90.015032
loop_
_atom_site_label
_atom_site_type_symbol
_atom_site_fract_x
_atom_site_fract_y
_atom_site_fract_z
Zn1	Zn	1.620746	-0.423690	-0.599453
Zn2	Zn	1.620632	-0.601715	-0.422196
Zn3	Zn	1.443460	-0.423748	-0.422197
Zn4	Zn	1.443448	-0.601624	-0.599411
O5	O	1.532072	-0.512694	-0.510814
O6	O	1.769078	-0.447320	-0.575956
O7	O	1.597087	-0.578169	-0.273849
O8	O	1.467030	-0.274794	-0.445729
O9	O	1.768995	-0.578114	-0.445726
O10	O	1.597282	-0.274752	-0.575958
O11	O	1.466920	-0.447417	-0.273850
O12	O	1.295111	-0.447329	-0.445688
O13	O	1.467009	-0.577959	-0.747764
O14	O	1.295102	-0.578014	-0.575887
O15	O	1.597270	-0.447231	-0.747795
O16	O	1.597075	-0.750649	-0.445686
O17	O	1.466899	-0.750582	-0.575885
C18	C	1.256642	-0.512669	-0.510784
C19	C	1.138812	-0.512684	-0.510796
C20	C	0.971218	-0.430092	-0.429340
C21	C	1.093778	-0.430305	-0.428981
C22	C	1.094295	-0.624812	-0.480283
C23	C	0.971696	-0.624361	-0.479727
C24	C	0.971662	-0.484215	-0.623079
C25	C	1.094268	-0.481710	-0.622456
C26	C	1.532002	-0.789235	-0.510804
C27	C	1.532069	-0.907541	-0.510835
C28	C	1.461259	-0.976796	-0.581601
C29	C	1.435427	-1.047669	-0.484868
C30	C	1.557998	-1.047467	-0.607585
C31	C	1.506186	-0.976855	-0.414051
C32	C	1.628802	-0.976647	-0.536833
C33	C	1.603007	-1.047488	-0.440033
C34	C	1.808577	-0.512720	-0.510846
C35	C	1.926407	-0.512731	-0.510859
C36	C	1.532151	-0.512578	-0.787320
C37	C	1.532185	-0.512529	-0.905150
C38	C	1.532170	-0.235073	-0.510848
C39	C	1.532212	-0.116768	-0.510862
C40	C	1.614451	-0.430527	-1.072734
C41	C	1.614187	-0.430231	-0.950174
C42	C	1.420502	-0.482047	-0.949628
C43	C	1.421001	-0.481424	-1.072226
C44	C	1.560696	-0.625134	-1.072350
C45	C	1.563139	-0.624567	-0.949744
C46	C	1.532053	-0.512733	-0.235385
C47	C	1.532225	-0.512482	-0.117555
H48	H	0.942054	-0.688019	-0.536513
F49	F	1.338243	-0.557676	-0.911517
H50	H	0.942685	-0.544406	-0.683818
H51	H	1.123466	-0.688031	-0.537794
F52	F	1.665324	-0.661367	-1.112778
F53	F	1.382853	-0.936222	-0.659709
F54	F	1.477476	-0.936485	-0.307090
H55	H	1.353689	-1.078888	-0.462901
H56	H	1.710522	-0.945430	-0.558846
F57	F	1.681359	-1.087804	-0.361741
H58	H	1.124950	-0.649409	-0.399125
F59	F	0.934251	-0.655965	-0.372497
F60	F	0.931279	-0.379207	-0.659351
F61	F	1.132319	-0.373866	-0.652541
H62	H	1.124928	-0.537509	-0.686442
H63	H	1.123876	-0.347158	-0.448106
H64	H	1.507603	-0.688916	-0.919093
F65	F	1.586587	-1.088013	-0.714513
F66	F	1.388381	-0.375610	-0.909515
H67	H	1.396868	-0.399077	-1.100834
H68	H	1.357651	-0.538520	-1.101874
H69	H	1.697002	-0.449321	-0.920103
F70	F	1.723057	-0.455159	-1.111287
H71	H	1.595842	-0.347538	-1.103556
F72	F	1.589547	-0.321156	-0.911852
H73	H	1.645328	-0.647553	-0.920674
H74	H	0.941752	-0.346694	-0.448260
F75	F	0.930880	-0.454438	-0.321286
H76	H	1.500811	-0.686199	-1.101343
H77	H	1.123056	-0.449154	-0.345821
