data_functionalizedCrystal
_audit_creation_method	'MofGen! by Chris Wilmer'
_symmetry_space_group_name_H-M	'P1'
_symmetry_Int_Tables_number	1
_symmetry_cell_setting	triclinic
loop_
_symmetry_equiv_pos_as_xyz
  x,y,z
_cell_length_a	14.971482
_cell_length_b	14.044220
_cell_length_c	13.448316
_cell_angle_alpha	89.992660
_cell_angle_beta	89.993798
_cell_angle_gamma	88.400743
loop_
_atom_site_label
_atom_site_type_symbol
_atom_site_fract_x
_atom_site_fract_y
_atom_site_fract_z
O1	O	1.196680	0.123521	-0.082682
O2	O	0.937445	0.138319	-0.082687
O3	O	1.063172	-0.007069	-0.082675
O4	O	1.070954	0.268909	-0.082694
O5	O	1.063154	-0.007078	0.082709
O6	O	0.937427	0.138310	0.082697
O7	O	1.196662	0.123512	0.082702
Cu8	Cu	1.067043	0.130910	0.097800
Cu9	Cu	1.067064	0.130921	-0.097785
O10	O	1.070936	0.268900	0.082690
C11	C	0.904059	0.137653	0.000004
C12	C	0.804606	0.135672	0.000003
C13	C	0.757878	0.134734	0.090155
C14	C	0.664432	0.132857	0.090156
C15	C	0.617715	0.131925	0.000004
C16	C	0.664450	0.132860	-0.090155
C17	C	0.757894	0.134730	-0.090155
C18	C	0.469681	0.128965	-0.090148
C19	C	0.376229	0.127097	-0.090148
C20	C	0.376218	0.127092	0.090163
C21	C	0.469663	0.128962	0.090163
C22	C	0.516391	0.129899	0.000003
C23	C	1.059756	-0.042392	0.000018
C24	C	1.049595	-0.147629	0.000019
C25	C	1.031018	-0.340311	0.000004
C26	C	1.103085	-0.397864	0.000002
C27	C	1.092749	-0.505079	-0.000006
C28	C	1.041353	-0.233086	0.000012
C29	C	1.230048	0.124178	0.000009
C30	C	1.329501	0.126159	0.000004
C31	C	1.074351	0.304223	-0.000005
C32	C	1.084513	0.409460	-0.000012
N33	N	1.067035	0.130902	0.235365
N34	N	1.067079	0.130921	-0.235349
C35	C	1.122727	0.066551	0.287410
C36	C	1.122733	0.066550	0.391514
C37	C	1.067050	0.130906	0.443569
C38	C	1.011351	0.195260	0.391516
C39	C	1.011341	0.195255	0.287415
C40	C	1.011376	0.195266	0.608496
C41	C	1.011387	0.195272	0.712605
C42	C	1.122768	0.066561	0.712595
C43	C	1.122758	0.066556	0.608494
C44	C	1.067060	0.130912	0.556448
H45	H	0.626391	0.132077	0.163567
H46	H	0.507697	0.129726	0.163572
C47	C	0.937188	-0.382519	0.000010
H48	H	0.942464	-0.450088	0.000016
H49	H	0.905606	-0.361756	-0.057657
H50	H	0.905612	-0.361773	0.057696
H51	H	1.168118	0.014160	0.754977
C52	C	0.324804	0.126482	0.189335
H53	H	0.262456	0.125353	0.176426
H54	H	0.337839	0.182158	0.226083
H55	H	0.342381	0.071672	0.226669
H56	H	0.966043	0.247677	0.754983
C57	C	0.950114	0.266060	0.551248
H58	H	0.916960	0.304397	0.597158
H59	H	0.910153	0.231898	0.510650
H60	H	0.985446	0.305578	0.510626
C61	C	0.950084	0.266045	0.230164
H62	H	0.916928	0.304381	0.276075
H63	H	0.910124	0.231878	0.189569
H64	H	0.985411	0.305565	0.189540
H65	H	1.172547	-0.366615	-0.000063
H66	H	0.795908	0.135500	0.163567
C67	C	1.183978	-0.004243	0.230158
H68	H	1.217141	-0.042574	0.276069
H69	H	1.223932	0.029918	0.189531
H70	H	1.148642	-0.043766	0.189567
H71	H	0.338195	0.126339	-0.163558
H72	H	1.168081	0.014150	0.433889
H73	H	0.507724	0.129728	-0.163565
H74	H	0.626405	0.132095	-0.163558
H75	H	0.795939	0.135496	-0.163566
H76	H	0.966008	0.247657	0.433906
C77	C	1.184007	-0.004233	0.551234
H78	H	1.217174	-0.042567	0.597138
H79	H	1.223957	0.029931	0.510606
H80	H	1.148669	-0.043754	0.510643
