data_functionalizedCrystal
_audit_creation_method	'MofGen! by Chris Wilmer'
_symmetry_space_group_name_H-M	'P1'
_symmetry_Int_Tables_number	1
_symmetry_cell_setting	triclinic
loop_
_symmetry_equiv_pos_as_xyz
  x,y,z
_cell_length_a	17.038272
_cell_length_b	17.038272
_cell_length_c	13.596369
_cell_angle_alpha	89.993837
_cell_angle_beta	90.000447
_cell_angle_gamma	91.111556
loop_
_atom_site_label
_atom_site_type_symbol
_atom_site_fract_x
_atom_site_fract_y
_atom_site_fract_z
O1	O	1.048755	0.170538	-0.081669
O2	O	1.548755	0.670538	0.418331
O3	O	0.820944	0.167830	-0.081698
O4	O	1.320944	0.667830	0.418302
O5	O	0.933496	0.055278	-0.081676
O6	O	1.433496	0.555278	0.418324
O7	O	0.936204	0.283090	-0.081691
O8	O	1.436204	0.783090	0.418309
O9	O	0.933483	0.055271	0.081907
O10	O	1.433483	0.555271	0.581907
O11	O	0.820931	0.167823	0.081885
O12	O	1.320931	0.667823	0.581885
O13	O	1.048743	0.170531	0.081914
O14	O	1.548743	0.670531	0.581914
Zn15	Zn	0.934835	0.169176	0.107872
Zn16	Zn	1.434835	0.669176	0.607872
Zn17	Zn	0.934852	0.169185	-0.107656
Zn18	Zn	1.434852	0.669185	0.392344
O19	O	0.936191	0.283083	0.081892
O20	O	1.436191	0.783083	0.581892
C21	C	0.791645	0.165364	0.000090
C22	C	1.291645	0.665364	0.500090
C23	C	0.704361	0.158016	0.000079
C24	C	1.204361	0.658016	0.500079
C25	C	0.658752	0.225479	0.000075
C26	C	1.158752	0.725479	0.500075
C27	C	0.576740	0.218570	0.000089
C28	C	1.076740	0.718570	0.500089
C29	C	0.540339	0.144197	0.000100
C30	C	1.040339	0.644197	0.500100
C31	C	0.585954	0.076728	0.000107
C32	C	1.085954	0.576728	0.500107
C33	C	0.667965	0.083638	0.000100
C34	C	1.167965	0.583638	0.500100
C35	C	0.292951	0.119787	0.000128
C36	C	0.792951	0.619787	0.500128
C37	C	0.210935	0.112882	0.000132
C38	C	0.710935	0.612882	0.500132
C39	C	0.201726	0.254725	0.000116
C40	C	0.701726	0.754725	0.500116
C41	C	0.283739	0.261628	0.000103
C42	C	0.783739	0.761628	0.500103
C43	C	0.329347	0.194159	0.000115
C44	C	0.829347	0.694159	0.500115
C45	C	0.456510	0.137133	0.000111
C46	C	0.956510	0.637133	0.500111
C47	C	0.413174	0.201224	0.000111
C48	C	0.913174	0.701224	0.500111
C49	C	0.931027	0.025982	0.000115
C50	C	1.431027	0.525982	0.500115
C51	C	0.923679	-0.061301	0.000114
C52	C	1.423679	0.438699	0.500114
C53	C	0.991142	-0.106911	0.000123
C54	C	1.491142	0.393089	0.500123
C55	C	0.984233	-0.188923	0.000113
C56	C	1.484233	0.311077	0.500113
C57	C	0.909860	-0.225324	0.000100
C58	C	1.409860	0.274676	0.500100
C59	C	0.842391	-0.179708	0.000088
C60	C	1.342391	0.320292	0.500088
C61	C	0.849301	-0.097698	0.000091
C62	C	1.349301	0.402302	0.500091
C63	C	0.885449	-0.472712	0.000084
C64	C	1.385449	0.027288	0.500084
C65	C	0.878545	-0.554728	0.000084
C66	C	1.378545	-0.054728	0.500084
C67	C	1.020387	-0.563937	0.000107
C68	C	1.520387	-0.063937	0.500107
C69	C	1.027291	-0.481924	0.000116
C70	C	1.527291	0.018076	0.500116
C71	C	0.959822	-0.436316	0.000098
C72	C	1.459822	0.063684	0.500098
C73	C	0.902796	-0.309153	0.000093
C74	C	1.402796	0.190847	0.500093
C75	C	0.966886	-0.352488	0.000099
C76	C	1.466886	0.147512	0.500099
C77	C	1.078042	0.172997	0.000124
C78	C	1.578042	0.672997	0.500124
C79	C	1.165326	0.180346	0.000128
C80	C	1.665326	0.680346	0.500128
C81	C	0.938660	0.312379	0.000098
C82	C	1.438660	0.812379	0.500098
C83	C	0.946008	0.399663	0.000093
C84	C	1.446008	0.899663	0.500093
N85	N	0.934830	0.169169	0.254963
N86	N	1.434830	0.669169	0.754963
N87	N	0.934863	0.169186	-0.254748
N88	N	1.434863	0.669186	0.245252
C89	C	0.934851	0.169186	0.656254
C90	C	1.434851	0.669186	1.156254
C91	C	0.934843	0.169184	0.544603
C92	C	1.434843	0.669184	1.044603
C93	C	0.934841	0.169178	0.455612
C94	C	1.434841	0.669178	0.955612
C95	C	0.934832	0.169175	0.343954
C96	C	1.434832	0.669175	0.843954
H97	H	0.688384	0.286042	0.000066
H98	H	1.188384	0.786042	0.500066
Br99	Br	0.514844	0.310133	0.000081
Br100	Br	1.014844	0.810133	0.500081
Br101	Br	1.092082	-0.057517	0.000155
Br102	Br	1.592082	0.442483	0.500155
H103	H	1.027441	-0.322847	0.000087
H104	H	1.527441	0.177153	0.500087
Br105	Br	0.536554	-0.024208	0.000131
Br106	Br	1.036554	0.475792	0.500131
Br107	Br	0.729865	-0.007923	0.000113
Br108	Br	1.229865	0.492077	0.500113
H109	H	0.442816	0.261778	0.000108
H110	H	0.942816	0.761778	0.500108
Br111	Br	0.801863	-0.358561	0.000066
Br112	Br	1.301863	0.141439	0.500066
Br113	Br	0.741455	-0.229109	0.000054
Br114	Br	1.241455	0.270891	0.500054
H115	H	0.164583	0.309653	0.000109
H116	H	0.664583	0.809653	0.500109
Br117	Br	0.333134	0.362567	0.000078
Br118	Br	0.833134	0.862567	0.500078
Br119	Br	0.161534	0.011940	0.000167
Br120	Br	0.661534	0.511940	0.500167
Br121	Br	1.111947	-0.625837	0.000131
Br122	Br	1.611947	-0.125837	0.500131
Br123	Br	1.075796	-0.250818	0.000126
Br124	Br	1.575796	0.249182	0.500126
H125	H	0.426863	0.076578	0.000148
H126	H	0.926863	0.576578	0.500148
H127	H	0.330076	0.064848	0.000138
H128	H	0.830076	0.564848	0.500138
Br129	Br	1.128229	-0.432528	0.000102
Br130	Br	1.628229	0.067472	0.500102
H131	H	0.817978	-0.584363	0.000089
H132	H	1.317978	-0.084363	0.500089
H133	H	0.830511	-0.435587	0.000070
H134	H	1.330511	0.064413	0.500070
H135	H	0.794365	-0.060564	0.000083
H136	H	1.294365	0.439436	0.500083
