data_functionalizedCrystal
_audit_creation_method	'MofGen! by Chris Wilmer'
_symmetry_space_group_name_H-M	'P1'
_symmetry_Int_Tables_number	1
_symmetry_cell_setting	triclinic
loop_
_symmetry_equiv_pos_as_xyz
  x,y,z
_cell_length_a	10.654562
_cell_length_b	14.853567
_cell_length_c	9.130313
_cell_angle_alpha	90.004594
_cell_angle_beta	89.994097
_cell_angle_gamma	84.062517
loop_
_atom_site_label
_atom_site_type_symbol
_atom_site_fract_x
_atom_site_fract_y
_atom_site_fract_z
O1	O	1.666514	0.126673	-0.121882
O2	O	1.300913	0.138726	-0.121863
O3	O	1.493479	0.001522	-0.121877
O4	O	1.473948	0.263877	-0.121867
O5	O	1.493466	0.001532	0.121722
O6	O	1.300899	0.138735	0.121736
O7	O	1.666501	0.126683	0.121717
Cu8	Cu	1.483699	0.132710	0.143969
Cu9	Cu	1.483715	0.132699	-0.144115
O10	O	1.473934	0.263886	0.121731
C11	C	1.254117	0.137843	-0.000061
C12	C	1.114703	0.135188	-0.000054
C13	C	1.049177	0.133955	0.132720
C14	C	0.918181	0.131468	0.132696
C15	C	0.918246	0.131451	-0.132889
C16	C	1.049241	0.133931	-0.132863
C17	C	1.049138	0.133970	0.286054
C18	C	0.918142	0.131482	0.286029
C19	C	1.492588	-0.032066	-0.000082
C20	C	1.489936	-0.132164	-0.000095
C21	C	1.364336	-0.545375	-0.000060
C22	C	1.593110	-0.565423	-0.000072
C23	C	1.595603	-0.471376	-0.000081
C24	C	1.482462	-0.414324	-0.000077
C25	C	1.366826	-0.451318	-0.000064
C26	C	1.711237	-0.434374	-0.000079
C27	C	1.713735	-0.340322	-0.000086
C28	C	1.600592	-0.283267	-0.000093
C29	C	1.484952	-0.320268	-0.000082
C30	C	1.371810	-0.263215	-0.000078
C31	C	1.256169	-0.300213	-0.000077
C32	C	1.253683	-0.394264	-0.000071
C33	C	1.603077	-0.189217	-0.000099
C34	C	1.374300	-0.169159	-0.000082
C35	C	1.713296	0.127566	-0.000088
C36	C	1.852711	0.130220	-0.000105
C37	C	1.474826	0.297475	-0.000067
C38	C	1.477478	0.397573	-0.000064
N39	N	1.483697	0.132718	0.346592
N40	N	1.483727	0.132684	-0.346738
C41	C	1.407464	0.077504	0.576595
C42	C	1.407452	0.077518	0.423259
C43	C	1.559968	0.187900	0.423269
C44	C	1.559986	0.187880	0.576603
C45	C	1.319405	0.013778	0.576588
C46	C	1.319393	0.013793	0.423251
H47	H	1.102589	0.134921	-0.240981
H48	H	1.803350	-0.480833	-0.000069
H49	H	1.159534	-0.424397	-0.000069
H50	H	0.864931	0.130427	-0.241018
N51	N	1.187885	0.043155	0.368160
H52	H	1.187822	0.043172	0.257540
H53	H	1.128030	-0.000194	0.405106
N54	N	1.642208	0.247439	0.340593
H55	H	1.733547	0.230262	0.367252
H56	H	1.630526	0.239055	0.231848
N57	N	1.838454	-0.300419	-0.000087
H58	H	1.909748	-0.350834	-0.000086
H59	H	1.844476	-0.261843	-0.090397
N60	N	1.087421	0.221064	0.349068
H61	H	1.009569	0.261320	0.379499
H62	H	1.143333	0.207053	0.437189
H63	H	1.359619	-0.054086	0.375655
H64	H	1.164049	-0.253749	-0.000063
H65	H	1.224536	0.042104	0.624185
N66	N	1.727787	-0.149309	-0.000084
H67	H	1.799083	-0.199723	-0.000077
H68	H	1.733817	-0.110731	-0.090392
N69	N	1.715127	-0.626962	-0.000078
H70	H	1.765573	-0.614990	-0.090386
H71	H	1.765469	-0.614945	0.090278
N72	N	1.642244	0.247377	0.659330
H73	H	1.703633	0.208509	0.722908
H74	H	1.690479	0.282344	0.587431
H75	H	0.871205	0.193791	0.344897
N76	N	1.361376	-0.080391	0.631672
H77	H	1.380099	-0.122401	0.545655
H78	H	1.439953	-0.078987	0.693140
H79	H	1.096042	0.071668	0.344934
H80	H	0.889234	0.065734	0.333606
H81	H	1.282165	-0.122712	-0.000085
H82	H	1.270184	-0.575503	-0.000065
