data_functionalizedCrystal
_audit_creation_method	'MofGen! by Chris Wilmer'
_symmetry_space_group_name_H-M	'P1'
_symmetry_Int_Tables_number	1
_symmetry_cell_setting	triclinic
loop_
_symmetry_equiv_pos_as_xyz
  x,y,z
_cell_length_a	15.297475
_cell_length_b	16.625546
_cell_length_c	15.298025
_cell_angle_alpha	99.684672
_cell_angle_beta	110.779159
_cell_angle_gamma	80.324704
loop_
_atom_site_label
_atom_site_type_symbol
_atom_site_fract_x
_atom_site_fract_y
_atom_site_fract_z
Zn1	Zn	1.512658	-0.436228	0.771442
Zn2	Zn	1.485650	-0.590899	0.615903
Zn3	Zn	1.330249	-0.436153	0.589076
Zn4	Zn	1.357098	-0.551082	0.744514
O5	O	1.421414	-0.503590	0.680234
O6	O	1.639214	-0.473440	0.773306
O7	O	1.442497	-0.587004	0.482200
O8	O	1.354512	-0.323334	0.613310
O9	O	1.619371	-0.587077	0.659033
O10	O	1.488528	-0.323389	0.747293
O11	O	1.328324	-0.473313	0.462490
O12	O	1.203672	-0.434703	0.587199
O13	O	1.400272	-0.519214	0.878231
O14	O	1.223398	-0.519141	0.701398
O15	O	1.514562	-0.434831	0.898015
O16	O	1.468531	-0.698446	0.632921
O17	O	1.374084	-0.669192	0.727411
C18	C	1.179792	-0.472594	0.638466
C19	C	1.076428	-0.459350	0.620619
C20	C	0.826184	-0.598251	0.807788
C21	C	0.923298	-0.610701	0.824553
C22	C	0.961586	-0.572864	0.773571
C23	C	0.902749	-0.522576	0.705821
C24	C	0.805624	-0.510130	0.689049
C25	C	0.941026	-0.484743	0.654833
C26	C	0.882189	-0.434455	0.587083
C27	C	0.785074	-0.422011	0.570314
C28	C	0.746787	-0.459848	0.621296
C29	C	1.038151	-0.497189	0.671605
C30	C	1.017591	-0.409068	0.552866
C31	C	0.920477	-0.396618	0.536101
C32	C	1.421319	-0.713075	0.680180
C33	C	1.421369	-0.802700	0.680202
C34	C	1.421548	-1.130884	0.680327
C35	C	1.421496	-1.039573	0.680295
C36	C	1.421458	-0.966795	0.680264
C37	C	1.421407	-0.875478	0.680233
C38	C	1.663979	-0.534708	0.722166
C39	C	1.767347	-0.547969	0.740034
C40	C	1.463425	-0.472589	0.922811
C41	C	1.481327	-0.459378	1.026183
C42	C	1.421538	-0.293288	0.680313
C43	C	1.421591	-0.203670	0.680347
C44	C	1.549243	-0.409236	1.085046
C45	C	1.566055	-0.396812	1.182167
C46	C	1.514959	-0.434534	1.220437
C47	C	1.447047	-0.484682	1.161576
C48	C	1.430227	-0.497102	1.064444
C49	C	1.395943	-0.522401	1.199835
C50	C	1.328031	-0.572549	1.140974
C51	C	1.311215	-0.584967	1.043851
C52	C	1.362311	-0.547244	1.005581
C53	C	1.412763	-0.509981	1.296968
C54	C	1.293747	-0.597847	1.276366
C55	C	1.276935	-0.610271	1.179244
C56	C	1.379561	-0.534490	1.438599
C57	C	1.361663	-0.547705	1.335228
H58	H	0.872558	-0.355673	0.480938
H59	H	1.086047	-0.538133	0.726768
H60	H	1.348629	-0.557359	0.926498
O61	O	1.639299	-0.342728	1.245650
H62	H	1.694249	-0.379225	1.298078
H63	H	1.040661	-0.583003	0.787226
H64	H	0.971196	-0.651647	0.879713
O65	O	1.604354	-0.368557	1.043773
H66	H	1.581252	-0.385624	0.966347
H67	H	0.794999	-0.629058	0.849284
O68	O	0.642029	-0.446466	0.603160
H69	H	0.625292	-0.481244	0.649976
O70	O	1.238628	-0.638540	1.317627
H71	H	1.261739	-0.621486	1.395055
O72	O	1.486004	-0.455898	1.360458
H73	H	1.555760	-0.481475	1.354444
O74	O	0.721609	-0.367776	0.497240
H75	H	0.764546	-0.343550	0.464612
H76	H	1.048764	-0.378259	0.511351
H77	H	1.528651	-0.424415	1.299519
H78	H	1.255914	-0.625798	0.995928
H79	H	1.221639	-0.651101	1.131305
