data_functionalizedCrystal
_audit_creation_method	'MofGen! by Chris Wilmer'
_symmetry_space_group_name_H-M	'P1'
_symmetry_Int_Tables_number	1
_symmetry_cell_setting	triclinic
loop_
_symmetry_equiv_pos_as_xyz
  x,y,z
_cell_length_a	11.026607
_cell_length_b	17.038272
_cell_length_c	9.482900
_cell_angle_alpha	100.012096
_cell_angle_beta	78.636152
_cell_angle_gamma	99.848786
loop_
_atom_site_label
_atom_site_type_symbol
_atom_site_fract_x
_atom_site_fract_y
_atom_site_fract_z
O1	O	1.662374	0.322506	-0.120910
O2	O	2.162374	0.822506	0.379090
O3	O	1.305163	0.284676	-0.120910
O4	O	1.805163	0.784676	0.379090
O5	O	1.481644	0.189477	-0.120899
O6	O	1.981644	0.689477	0.379101
O7	O	1.485893	0.417705	-0.120922
O8	O	1.985893	0.917705	0.379078
O9	O	1.445807	0.208914	0.120891
O10	O	1.945807	0.708914	0.620891
O11	O	1.269325	0.304112	0.120880
O12	O	1.769325	0.804112	0.620880
O13	O	1.626537	0.341943	0.120880
O14	O	2.126537	0.841943	0.620880
Cu15	Cu	1.444659	0.324802	0.142957
Cu16	Cu	1.944659	0.824802	0.642957
Cu17	Cu	1.487041	0.301816	-0.142988
Cu18	Cu	1.987041	0.801816	0.357012
O19	O	1.450056	0.437141	0.120868
O20	O	1.950056	0.937141	0.620868
C21	C	1.241313	0.287415	-0.000015
C22	C	1.741313	0.787415	0.499985
C23	C	1.104451	0.266610	-0.000015
C24	C	1.604451	0.766610	0.499985
C25	C	1.036577	0.324055	-0.000022
C26	C	1.536577	0.824055	0.499978
C27	C	0.895123	0.302554	-0.000021
C28	C	1.395123	0.802554	0.499979
C29	C	1.459863	0.169523	-0.000004
C30	C	1.959863	0.669523	0.499996
C31	C	1.448341	0.081107	-0.000004
C32	C	1.948341	0.581107	0.499996
C33	C	1.554125	0.045899	-0.000003
C34	C	2.054125	0.545899	0.499997
C35	C	1.543294	-0.037179	-0.000016
C36	C	2.043294	0.462821	0.499984
C37	C	1.426676	-0.085048	-0.000021
C38	C	1.926676	0.414952	0.499979
C39	C	1.320885	-0.049835	-0.000027
C40	C	1.820885	0.450165	0.499973
C41	C	1.331719	0.033241	-0.000024
C42	C	1.831719	0.533241	0.499976
C43	C	1.388403	-0.336201	-0.000041
C44	C	1.888403	0.163799	0.499959
C45	C	1.377576	-0.419281	-0.000040
C46	C	1.877576	0.080719	0.499960
C47	C	1.599987	-0.406621	-0.000032
C48	C	2.099987	0.093379	0.499968
C49	C	1.610809	-0.323543	-0.000020
C50	C	2.110809	0.176457	0.499980
C51	C	1.505019	-0.288338	-0.000034
C52	C	2.005019	0.211662	0.499966
C53	C	1.415602	-0.169967	-0.000031
C54	C	1.915602	0.330033	0.499969
C55	C	1.516096	-0.203421	-0.000034
C56	C	2.016096	0.296579	0.499966
C57	C	1.690388	0.339203	-0.000018
C58	C	2.190388	0.839203	0.499982
C59	C	1.827251	0.360008	-0.000028
C60	C	2.327251	0.860008	0.499972
C61	C	1.471837	0.457095	-0.000030
C62	C	1.971837	0.957095	0.499970
C63	C	1.483360	0.545511	-0.000039
C64	C	1.983360	1.045511	0.499961
N65	N	1.414859	0.340969	0.344075
N66	N	1.914859	0.840969	0.844075
N67	N	1.516850	0.285644	-0.344106
N68	N	2.016850	0.785644	0.155894
C69	C	1.478242	0.306580	0.416279
C70	C	1.978242	0.806580	0.916279
C71	C	1.453458	0.320039	0.583695
C72	C	1.953458	0.820039	1.083695
H73	H	1.057843	0.201507	-0.000046
H74	H	1.557843	0.701507	0.499954
C75	C	0.890202	0.447957	-0.000045
C76	C	1.390202	0.947957	0.499955
H77	H	0.977018	0.450872	-0.000056
H78	H	1.477018	0.950872	0.499944
H79	H	0.853724	0.480409	0.084265
H80	H	1.353724	0.980409	0.584265
H81	H	0.878718	0.466842	-0.084381
H82	H	1.378718	0.966842	0.415619
H83	H	1.550851	0.267169	0.354156
H84	H	2.050851	0.767169	0.854156
C85	C	1.644370	-0.150773	-0.000026
C86	C	2.144370	0.349227	0.499974
H87	H	1.705828	-0.183637	-0.000031
H88	H	2.205828	0.316363	0.499969
H89	H	1.640711	-0.111327	0.084292
H90	H	2.140711	0.388673	0.584292
H91	H	1.665718	-0.124879	-0.084354
H92	H	2.165718	0.375121	0.415646
C93	C	1.355360	0.373278	0.667603
C94	C	1.855360	0.873278	1.167603
H95	H	1.351577	0.375345	0.769117
H96	H	1.851577	0.875345	1.269117
H97	H	1.275900	0.351222	0.642750
H98	H	1.775900	0.851222	1.142750
H99	H	1.378102	0.426121	0.642722
H100	H	1.878102	0.926121	1.142722
C101	C	1.614981	0.232428	0.571989
C102	C	2.114981	0.732428	1.071989
H103	H	1.618787	0.230376	0.470474
H104	H	2.118787	0.730376	0.970474
H105	H	1.592286	0.179585	0.596854
H106	H	2.092286	0.679585	1.096854
H107	H	1.694431	0.254514	0.596861
H108	H	2.194431	0.754514	1.096861
H109	H	1.083189	0.389155	-0.000020
H110	H	1.583189	0.889155	0.499980
C111	C	0.832171	0.214604	-0.000021
C112	C	1.332171	0.714604	0.499979
H113	H	0.745358	0.211689	-0.000033
H114	H	1.245358	0.711689	0.499967
H115	H	0.843655	0.195706	0.084295
H116	H	1.343655	0.695706	0.584295
H117	H	0.868652	0.182159	-0.084350
H118	H	1.368652	0.682159	0.415650
H119	H	1.225934	-0.088816	-0.000041
H120	H	1.725934	0.411184	0.499959
C121	C	1.682406	0.098547	0.000003
C122	C	2.182406	0.598547	0.500003
H123	H	1.743856	0.065675	-0.000012
H124	H	2.243856	0.565675	0.499988
H125	H	1.678762	0.137993	0.084320
H126	H	2.178762	0.637993	0.584320
H127	H	1.703753	0.124440	-0.084325
H128	H	2.203753	0.624440	0.415675
H129	H	1.342241	0.380373	0.406201
H130	H	1.842241	0.880373	0.906201
H131	H	1.629434	-0.065841	-0.000012
H132	H	2.129434	0.434159	0.499988
C133	C	1.739091	-0.270895	-0.000034
C134	C	2.239091	0.229105	0.499966
H135	H	1.800545	-0.303764	-0.000050
H136	H	2.300545	0.196236	0.499950
H137	H	1.735449	-0.231447	0.084281
H138	H	2.235449	0.268553	0.584281
H139	H	1.760431	-0.245004	-0.084365
H140	H	2.260431	0.254996	0.415635
H141	H	1.302261	-0.307547	-0.000052
H142	H	1.802261	0.192453	0.499948
H143	H	1.686115	-0.435294	-0.000024
H144	H	2.186115	0.064706	0.499976
H145	H	1.282604	-0.458253	-0.000021
H146	H	1.782604	0.041747	0.499979
H147	H	1.245579	0.061906	-0.000025
H148	H	1.745579	0.561906	0.499975
H149	H	1.320650	-0.208950	-0.000032
H150	H	1.820650	0.291050	0.499968
