data_functionalizedCrystal
_audit_creation_method	'MofGen! by Chris Wilmer'
_symmetry_space_group_name_H-M	'P1'
_symmetry_Int_Tables_number	1
_symmetry_cell_setting	triclinic
loop_
_symmetry_equiv_pos_as_xyz
  x,y,z
_cell_length_a	19.188933
_cell_length_b	18.266242
_cell_length_c	10.540539
_cell_angle_alpha	89.997057
_cell_angle_beta	96.164470
_cell_angle_gamma	90.007525
loop_
_atom_site_label
_atom_site_type_symbol
_atom_site_fract_x
_atom_site_fract_y
_atom_site_fract_z
O1	O	0.927205	0.060853	-0.158481
O2	O	1.427205	0.560853	0.341519
O3	O	0.724036	0.060860	-0.179811
O4	O	1.224036	0.560860	0.320189
O5	O	0.830256	0.060855	0.015663
O6	O	1.330256	0.560855	0.515663
O7	O	0.820985	0.060857	-0.353955
O8	O	1.320985	0.560857	0.146045
O9	O	0.830237	-0.060907	0.015668
O10	O	1.330237	0.439093	0.515668
O11	O	0.724018	-0.060902	-0.179806
O12	O	1.224018	0.439098	0.320194
O13	O	0.927187	-0.060909	-0.158476
O14	O	1.427187	0.439091	0.341524
Zn15	Zn	0.825599	-0.080238	-0.169140
Zn16	Zn	1.325599	0.419762	0.330860
Zn17	Zn	0.825623	0.080189	-0.169147
Zn18	Zn	1.325623	0.580189	0.330853
O19	O	0.820967	-0.060905	-0.353949
O20	O	1.320967	0.439095	0.146051
C21	C	0.698011	-0.000021	-0.179117
C22	C	1.198011	0.499979	0.320883
C23	C	0.620493	-0.000018	-0.177043
C24	C	1.120493	0.499982	0.322957
C25	C	0.067149	0.066346	-0.162238
C26	C	0.567149	0.566346	0.337762
C27	C	0.139986	0.066349	-0.164179
C28	C	0.639986	0.566349	0.335821
C29	C	0.176400	-0.000023	-0.165153
C30	C	0.676400	0.499977	0.334847
C31	C	0.139972	-0.066403	-0.164153
C32	C	0.639972	0.433597	0.335847
C33	C	0.067137	-0.066404	-0.162198
C34	C	0.567137	0.433596	0.337802
N35	N	0.285914	-0.049426	-0.240449
N36	N	0.785914	0.450574	0.259551
N37	N	0.355104	-0.049421	-0.242309
N38	N	0.855104	0.450579	0.257691
C39	C	0.395847	-0.000024	-0.171040
C40	C	0.895847	0.499976	0.328960
N41	N	0.364786	0.049378	-0.097857
N42	N	0.864786	0.549378	0.402143
N43	N	0.295589	0.049375	-0.096003
N44	N	0.795589	0.549375	0.403997
C45	C	0.255377	-0.000029	-0.167272
C46	C	0.755377	0.499971	0.332728
C47	C	0.511245	0.066355	-0.174137
C48	C	1.011245	0.566355	0.325863
C49	C	0.584084	0.066355	-0.176071
C50	C	1.084084	0.566355	0.323929
C51	C	0.584068	-0.066399	-0.176057
C52	C	1.084068	0.433601	0.323943
C53	C	0.511231	-0.066397	-0.174110
C54	C	1.011231	0.433603	0.325890
C55	C	0.474824	-0.000018	-0.173156
C56	C	0.974824	0.499982	0.326844
N57	N	0.825588	-0.189725	-0.169134
N58	N	1.325588	0.310275	0.330866
C59	C	0.868309	-0.228029	-0.245936
C60	C	1.368309	0.271971	0.254064
C61	C	0.868320	-0.304673	-0.245933
C62	C	1.368320	0.195327	0.254067
C63	C	0.825598	-0.343012	-0.169142
C64	C	1.325598	0.156988	0.330858
C65	C	0.782874	-0.304699	-0.092324
C66	C	1.282874	0.195301	0.407676
C67	C	0.782869	-0.228055	-0.092320
C68	C	1.282869	0.271945	0.407680
N69	N	0.764429	-0.463362	-0.166014
N70	N	1.264429	0.036638	0.333986
N71	N	0.764436	-0.536170	-0.166025
N72	N	1.264436	-0.036170	0.333975
C73	C	0.825612	-0.573934	-0.169146
C74	C	1.325612	-0.073934	0.330854
N75	N	0.886782	-0.536139	-0.172282
N76	N	1.386782	-0.036139	0.327718
N77	N	0.886774	-0.463325	-0.172277
N78	N	1.386774	0.036675	0.327723
C79	C	0.825599	-0.426119	-0.169137
C80	C	1.325599	0.073881	0.330863
C81	C	0.868349	-0.695345	-0.245949
C82	C	1.368349	-0.195345	0.254051
C83	C	0.868362	-0.771991	-0.245936
C84	C	1.368362	-0.271991	0.254064
C85	C	0.782909	-0.772015	-0.092334
C86	C	1.282909	-0.272015	0.407666
C87	C	0.782903	-0.695370	-0.092340
C88	C	1.282903	-0.195370	0.407660
C89	C	0.825622	-0.657040	-0.169154
C90	C	1.325622	-0.157040	0.330846
C91	C	0.953211	-0.000027	-0.159169
C92	C	1.453211	0.499973	0.340831
C93	C	1.030730	-0.000025	-0.161244
C94	C	1.530730	0.499975	0.338756
C95	C	0.829551	-0.000024	0.062953
C96	C	1.329551	0.499976	0.562953
C97	C	0.827471	-0.000020	0.203855
C98	C	1.327471	0.499980	0.703855
N99	N	0.825640	0.189676	-0.169143
N100	N	1.325640	0.689676	0.330857
C101	C	0.821671	-0.000023	-0.401240
C102	C	1.321671	0.499977	0.098760
C103	C	0.823751	-0.000022	-0.542142
C104	C	1.323751	0.499978	-0.042142
C105	C	0.747770	0.000255	0.385527
C106	C	1.247770	0.500255	0.885527
C107	C	0.749879	-0.000019	0.238955
C108	C	1.249879	0.499981	0.738955
C109	C	0.864802	-0.069554	0.266338
C110	C	1.364802	0.430446	0.766338
C111	C	0.862154	-0.069612	0.412824
C112	C	1.362154	0.430388	0.912824
C113	C	0.863753	0.068854	0.413371
C114	C	1.363753	0.568854	0.913371
C115	C	0.864467	0.069773	0.266405
C116	C	1.364467	0.569773	0.766405
H117	H	0.613736	0.120405	-0.176870
H118	H	1.113736	0.620405	0.323130
N119	N	0.474036	-0.134202	-0.173097
N120	N	0.974036	0.365798	0.326903
N121	N	0.506554	-0.193459	-0.173960
N122	N	1.006554	0.306541	0.326040
H123	H	0.480286	-0.241350	-0.173240
H124	H	0.980286	0.258650	0.326760
N125	N	0.739214	-0.188927	-0.013889
N126	N	1.239214	0.311073	0.486111
N127	N	0.693295	-0.146172	-0.063666
N128	N	1.193295	0.353828	0.436334
H129	H	0.662461	-0.118536	-0.008276
H130	H	1.162461	0.381464	0.491724
N131	N	0.029966	0.134150	-0.161219
N132	N	0.529966	0.634150	0.338781
N133	N	-0.004676	0.148963	-0.070668
N134	N	0.495324	0.648963	0.429332
H135	H	-0.030937	0.196850	-0.069941
H136	H	0.469063	0.696850	0.430059
N137	N	0.474062	0.134162	-0.173154
N138	N	0.974062	0.634162	0.326846
N139	N	0.506593	0.193420	-0.174025
N140	N	1.006593	0.693420	0.325975
H141	H	0.480335	0.241310	-0.173330
H142	H	0.980335	0.741310	0.326670
H143	H	0.903109	-0.335866	-0.308478
H144	H	1.403109	0.164134	0.191522
N145	N	0.912008	-0.656189	-0.324367
N146	N	1.412008	-0.156189	0.175633
N147	N	0.976994	-0.664736	-0.308844
N148	N	1.476994	-0.164736	0.191156
H149	H	1.007833	-0.637081	-0.364216
H150	H	1.507833	-0.137081	0.135784
H151	H	0.838855	-0.121296	0.223170
H152	H	1.338855	0.378704	0.723170
H153	H	0.169644	0.120398	-0.164995
H154	H	0.669644	0.620398	0.335005
N155	N	0.177175	-0.134194	-0.165136
N156	N	0.677175	0.365806	0.334864
N157	N	0.242206	-0.134185	-0.166882
N158	N	0.742206	0.365815	0.333118
H159	H	0.268482	-0.182065	-0.167570
H160	H	0.768482	0.317935	0.332430
H161	H	0.613715	-0.120441	-0.176845
H162	H	1.113715	0.379559	0.323155
H163	H	0.903156	-0.803177	-0.308474
H164	H	1.403156	-0.303177	0.191526
N165	N	0.739264	-0.656230	-0.013898
N166	N	1.239264	-0.156230	0.486102
N167	N	0.766106	-0.613459	0.070148
N168	N	1.266106	-0.113459	0.570148
H169	H	0.735285	-0.585815	0.125553
H170	H	1.235285	-0.085815	0.625553
H171	H	0.720504	0.049826	0.195703
H172	H	1.220504	0.549826	0.695703
H173	H	0.717127	0.050119	0.413450
H174	H	1.217127	0.550119	0.913450
N175	N	0.911937	-0.188888	-0.324424
N176	N	1.411937	0.311112	0.175576
N177	N	0.950072	-0.223103	-0.393006
N178	N	1.450072	0.276897	0.106994
H179	H	0.980882	-0.195459	-0.448447
H180	H	1.480882	0.304541	0.051553
H181	H	0.748090	-0.335919	-0.029799
H182	H	1.248090	0.164081	0.470201
H183	H	0.037485	-0.120453	-0.161394
H184	H	0.537485	0.379547	0.338606
H185	H	0.838648	0.121556	0.444369
H186	H	1.338648	0.621556	0.944369
N187	N	0.739277	-0.811178	-0.013893
N188	N	1.239277	-0.311178	0.486107
N189	N	0.739288	-0.879609	-0.013903
N190	N	1.239288	-0.379609	0.486097
H191	H	0.708472	-0.907273	0.041501
H192	H	1.208472	-0.407273	0.541501
H193	H	0.837153	0.121212	0.224943
H194	H	1.337153	0.621212	0.724943
H195	H	0.834549	-0.121588	0.440419
H196	H	1.334549	0.378412	0.940419
N197	N	0.932157	-0.073595	0.474536
N198	N	1.432157	0.426405	0.974536
N199	N	0.970145	-0.127080	0.454708
N200	N	1.470145	0.372920	0.954708
H201	H	1.019584	-0.129899	0.498287
H202	H	1.519584	0.370101	0.998287
H203	H	0.921039	0.073970	0.243429
H204	H	1.421039	0.573970	0.743429
N205	N	0.709470	-0.061945	0.422590
N206	N	1.209470	0.438055	0.922590
N207	N	0.737890	-0.106478	0.502043
N208	N	1.237890	0.393522	1.002043
H209	H	0.710842	-0.150409	0.528224
H210	H	1.210842	0.349591	1.028224
H211	H	0.720283	-0.049944	0.196550
H212	H	1.220283	0.450056	0.696550
H213	H	0.921783	-0.072141	0.245239
H214	H	1.421783	0.427859	0.745239
N215	N	0.934062	0.069425	0.474152
N216	N	1.434062	0.569425	0.974152
N217	N	0.954702	0.019380	0.549922
N218	N	1.454702	0.519380	1.049922
H219	H	1.004357	0.019776	0.592849
H220	H	1.504357	0.519776	1.092849
