data_functionalizedCrystal
_audit_creation_method	'MofGen! by Chris Wilmer'
_symmetry_space_group_name_H-M	'P1'
_symmetry_Int_Tables_number	1
_symmetry_cell_setting	triclinic
loop_
_symmetry_equiv_pos_as_xyz
  x,y,z
_cell_length_a	15.995280
_cell_length_b	19.188924
_cell_length_c	17.666332
_cell_angle_alpha	90.008552
_cell_angle_beta	89.989927
_cell_angle_gamma	96.697219
loop_
_atom_site_label
_atom_site_type_symbol
_atom_site_fract_x
_atom_site_fract_y
_atom_site_fract_z
O1	O	-1.110697	0.089764	0.062964
O2	O	-0.860697	0.339764	0.312964
O3	O	-0.610697	0.589764	0.562964
O4	O	-0.360697	0.839764	0.812964
O5	O	-0.866872	0.100928	0.062964
O6	O	-0.616872	0.350928	0.312964
O7	O	-0.366872	0.600928	0.562964
O8	O	-0.116872	0.850928	0.812964
O9	O	-0.995824	-0.006294	0.062955
O10	O	-0.745824	0.243706	0.312955
O11	O	-0.495824	0.493706	0.562955
O12	O	-0.245824	0.743706	0.812955
O13	O	-0.981745	0.196985	0.062973
O14	O	-0.731745	0.446985	0.312973
O15	O	-0.481745	0.696985	0.562973
O16	O	-0.231745	0.946985	0.812973
O17	O	-0.995801	-0.006299	-0.062942
O18	O	-0.745801	0.243701	0.187058
O19	O	-0.495801	0.493701	0.437058
O20	O	-0.245801	0.743701	0.687058
O21	O	-0.866850	0.100923	-0.062933
O22	O	-0.616850	0.350923	0.187067
O23	O	-0.366850	0.600923	0.437067
O24	O	-0.116850	0.850923	0.687067
O25	O	-1.110674	0.089758	-0.062932
O26	O	-0.860674	0.339758	0.187068
O27	O	-0.610674	0.589758	0.437068
O28	O	-0.360674	0.839758	0.687068
Cu29	Cu	-0.988760	0.095340	-0.074428
Cu30	Cu	-0.738760	0.345340	0.175572
Cu31	Cu	-0.488760	0.595340	0.425572
Cu32	Cu	-0.238760	0.845340	0.675572
Cu33	Cu	-0.988786	0.095346	0.074459
Cu34	Cu	-0.738786	0.345346	0.324459
Cu35	Cu	-0.488786	0.595346	0.574459
Cu36	Cu	-0.238786	0.845346	0.824459
O37	O	-0.981723	0.196980	-0.062924
O38	O	-0.731723	0.446980	0.187076
O39	O	-0.481723	0.696980	0.437076
O40	O	-0.231723	0.946980	0.687076
C41	C	-0.835667	0.100473	0.000015
C42	C	-0.585667	0.350473	0.250015
C43	C	-0.335667	0.600473	0.500015
C44	C	-0.085667	0.850473	0.750015
C45	C	-0.742718	0.099115	0.000014
C46	C	-0.492718	0.349115	0.250014
C47	C	-0.242718	0.599115	0.500014
C48	C	0.007282	0.849115	0.750014
C49	C	-0.404996	0.094123	0.000025
C50	C	-0.154996	0.344123	0.250025
C51	C	0.095004	0.594123	0.500025
C52	C	0.345004	0.844123	0.750025
C53	C	-0.428023	0.171509	0.000313
C54	C	-0.178023	0.421509	0.250313
C55	C	0.071977	0.671509	0.500313
C56	C	0.321977	0.921509	0.750313
C57	C	-0.524694	0.172976	0.000025
C58	C	-0.274694	0.422976	0.250025
C59	C	-0.024694	0.672976	0.500025
C60	C	0.225306	0.922976	0.750025
C61	C	-0.572544	0.096600	0.000020
C62	C	-0.322544	0.346600	0.250020
C63	C	-0.072544	0.596600	0.500020
C64	C	0.177456	0.846600	0.750020
C65	C	-0.543572	0.057908	-0.071874
C66	C	-0.293572	0.307908	0.178126
C67	C	-0.043572	0.557908	0.428126
C68	C	0.206428	0.807908	0.678126
C69	C	-0.446784	0.056980	-0.071930
C70	C	-0.196784	0.306980	0.178070
C71	C	0.053216	0.556980	0.428070
C72	C	0.303216	0.806980	0.678070
C73	C	-0.446960	0.055406	0.071238
C74	C	-0.196960	0.305406	0.321238
C75	C	0.053040	0.555406	0.571238
C76	C	0.303040	0.805406	0.821238
C77	C	-0.543443	0.058271	0.072184
C78	C	-0.293443	0.308271	0.322184
C79	C	-0.043443	0.558271	0.572184
C80	C	0.206557	0.808271	0.822184
C81	C	-0.667235	0.097996	0.000015
C82	C	-0.417235	0.347996	0.250015
C83	C	-0.167235	0.597996	0.500015
C84	C	0.082765	0.847996	0.750015
C85	C	-0.310305	0.092725	0.000025
C86	C	-0.060305	0.342725	0.250025
C87	C	0.189695	0.592725	0.500025
C88	C	0.439695	0.842725	0.750025
C89	C	-0.995357	-0.032309	0.000006
C90	C	-0.745357	0.217691	0.250006
C91	C	-0.495357	0.467691	0.500006
C92	C	-0.245357	0.717691	0.750006
C93	C	-0.993992	-0.109817	0.000004
C94	C	-0.743992	0.140183	0.250004
C95	C	-0.493992	0.390183	0.500004
C96	C	-0.243992	0.640183	0.750004
C97	C	-0.993367	-0.146214	0.068630
C98	C	-0.743367	0.103786	0.318630
C99	C	-0.493367	0.353786	0.568630
C100	C	-0.243367	0.603786	0.818630
C101	C	-0.992071	-0.219040	0.068636
C102	C	-0.742071	0.030960	0.318636
C103	C	-0.492071	0.280960	0.568636
C104	C	-0.242071	0.530960	0.818636
C105	C	-0.991418	-0.255467	0.000012
C106	C	-0.741418	-0.005467	0.250012
C107	C	-0.491418	0.244533	0.500012
C108	C	-0.241418	0.494533	0.750012
C109	C	-0.992039	-0.219061	-0.068624
C110	C	-0.742039	0.030939	0.181376
C111	C	-0.492039	0.280939	0.431376
C112	C	-0.242039	0.530939	0.681376
C113	C	-0.993325	-0.146235	-0.068628
C114	C	-0.743325	0.103765	0.181372
C115	C	-0.493325	0.353765	0.431372
C116	C	-0.243325	0.603765	0.681372
N117	N	-1.037039	-0.375026	-0.051064
N118	N	-0.787039	-0.125026	0.198936
N119	N	-0.537039	0.124974	0.448936
N120	N	-0.287039	0.374974	0.698936
N121	N	-1.035818	-0.444207	-0.051056
N122	N	-0.785818	-0.194207	0.198944
N123	N	-0.535818	0.055793	0.448944
N124	N	-0.285818	0.305793	0.698944
C125	C	-0.987540	-0.474885	0.000019
C126	C	-0.737540	-0.224885	0.250019
C127	C	-0.487540	0.025115	0.500019
C128	C	-0.237540	0.275115	0.750019
N129	N	-0.940539	-0.433770	0.051096
N130	N	-0.690539	-0.183770	0.301096
N131	N	-0.440539	0.066230	0.551096
N132	N	-0.190539	0.316230	0.801096
N133	N	-0.941763	-0.364583	0.051090
N134	N	-0.691763	-0.114583	0.301090
N135	N	-0.441763	0.135417	0.551090
N136	N	-0.191763	0.385417	0.801090
C137	C	-0.990023	-0.334434	0.000008
C138	C	-0.740023	-0.084434	0.250008
C139	C	-0.490023	0.165566	0.500008
C140	C	-0.240023	0.415566	0.750008
C141	C	-0.985509	-0.590248	0.068656
C142	C	-0.735509	-0.340248	0.318656
C143	C	-0.485509	-0.090248	0.568656
C144	C	-0.235509	0.159752	0.818656
C145	C	-0.984209	-0.663075	0.068659
C146	C	-0.734209	-0.413075	0.318659
C147	C	-0.484209	-0.163075	0.568659
C148	C	-0.234209	0.086925	0.818659
C149	C	-0.984185	-0.663095	-0.068603
C150	C	-0.734185	-0.413095	0.181397
C151	C	-0.484185	-0.163095	0.431397
C152	C	-0.234185	0.086905	0.681397
C153	C	-0.985477	-0.590269	-0.068604
C154	C	-0.735477	-0.340269	0.181396
C155	C	-0.485477	-0.090269	0.431396
C156	C	-0.235477	0.159731	0.681396
C157	C	-0.986143	-0.553851	0.000028
C158	C	-0.736143	-0.303851	0.250028
C159	C	-0.486143	-0.053851	0.500028
C160	C	-0.236143	0.196149	0.750028
C161	C	-0.141878	0.090223	0.000020
C162	C	0.108122	0.340223	0.250020
C163	C	0.358122	0.590223	0.500020
C164	C	0.608122	0.840223	0.750020
C165	C	-0.234822	0.091608	0.000031
C166	C	0.015178	0.341608	0.250031
C167	C	0.265178	0.591608	0.500031
C168	C	0.515178	0.841608	0.750031
C169	C	-0.982189	0.222995	0.000027
C170	C	-0.732189	0.472995	0.250027
C171	C	-0.482189	0.722995	0.500027
C172	C	-0.232189	0.972995	0.750027
C173	C	-0.983554	0.300503	0.000034
C174	C	-0.733554	0.550503	0.250034
C175	C	-0.483554	0.800503	0.500034
C176	C	-0.233554	1.050503	0.750034
N177	N	-0.988747	0.095334	-0.179148
N178	N	-0.738747	0.345334	0.070852
N179	N	-0.488747	0.595334	0.320852
N180	N	-0.238747	0.845334	0.570852
C181	C	-1.045865	0.047880	-0.218761
C182	C	-0.795865	0.297880	0.031239
C183	C	-0.545865	0.547880	0.281239
C184	C	-0.295865	0.797880	0.531239
C185	C	-1.045870	0.047876	-0.298009
C186	C	-0.795870	0.297876	-0.048009
C187	C	-0.545870	0.547876	0.201991
C188	C	-0.295870	0.797876	0.451991
C189	C	-0.988765	0.095340	-0.337640
C190	C	-0.738765	0.345340	-0.087640
C191	C	-0.488765	0.595340	0.162360
C192	C	-0.238765	0.845340	0.412360
C193	C	-0.931636	0.142798	-0.298017
C194	C	-0.681636	0.392798	-0.048017
C195	C	-0.431636	0.642798	0.201983
C196	C	-0.181636	0.892798	0.451983
C197	C	-0.931627	0.142795	-0.218771
C198	C	-0.681627	0.392795	0.031229
C199	C	-0.431627	0.642795	0.281229
C200	C	-0.181627	0.892795	0.531229
N201	N	-0.977878	0.157122	-0.462053
N202	N	-0.727878	0.407122	-0.212053
N203	N	-0.477878	0.657122	0.037947
N204	N	-0.227878	0.907122	0.287947
N205	N	-0.977892	0.157122	-0.537333
N206	N	-0.727892	0.407122	-0.287333
N207	N	-0.477892	0.657122	-0.037333
N208	N	-0.227892	0.907122	0.212667
C209	C	-0.988787	0.095350	-0.576404
C210	C	-0.738787	0.345350	-0.326404
C211	C	-0.488787	0.595350	-0.076404
C212	C	-0.238787	0.845350	0.173596
N213	N	-0.999685	0.033575	-0.537350
N214	N	-0.749685	0.283575	-0.287350
N215	N	-0.499685	0.533575	-0.037350
N216	N	-0.249685	0.783575	0.212650
N217	N	-0.999675	0.033575	-0.462062
N218	N	-0.749675	0.283575	-0.212062
N219	N	-0.499675	0.533575	0.037938
N220	N	-0.249675	0.783575	0.287938
C221	C	-0.988768	0.095348	-0.423569
C222	C	-0.738768	0.345348	-0.173569
C223	C	-0.488768	0.595348	0.076431
C224	C	-0.238768	0.845348	0.326431
C225	C	-1.045913	0.047887	-0.701947
C226	C	-0.795913	0.297887	-0.451947
C227	C	-0.545913	0.547887	-0.201947
C228	C	-0.295913	0.797887	0.048053
C229	C	-1.045912	0.047883	-0.781196
C230	C	-0.795912	0.297883	-0.531196
C231	C	-0.545912	0.547883	-0.281196
C232	C	-0.295912	0.797883	-0.031196
C233	C	-0.931682	0.142811	-0.781202
C234	C	-0.681682	0.392811	-0.531202
C235	C	-0.431682	0.642811	-0.281202
C236	C	-0.181682	0.892811	-0.031202
C237	C	-0.931679	0.142809	-0.701955
C238	C	-0.681679	0.392809	-0.451955
C239	C	-0.431679	0.642809	-0.201955
C240	C	-0.181679	0.892809	0.048045
C241	C	-0.988799	0.095348	-0.662332
C242	C	-0.738799	0.345348	-0.412332
C243	C	-0.488799	0.595348	-0.162332
C244	C	-0.238799	0.845348	0.087668
N245	N	-0.988806	0.095346	0.179179
N246	N	-0.738806	0.345346	0.429179
N247	N	-0.488806	0.595346	0.679179
N248	N	-0.238806	0.845346	0.929179
H249	H	-0.543618	0.203274	0.051563
H250	H	-0.293618	0.453274	0.301563
H251	H	-0.043618	0.703274	0.551563
H252	H	0.206382	0.953274	0.801563
H253	H	-0.993831	-0.116601	-0.124513
H254	H	-0.743831	0.133399	0.125487
H255	H	-0.493831	0.383399	0.375487
H256	H	-0.243831	0.633399	0.625487
H257	H	-0.419859	0.083773	-0.125669
H258	H	-0.169859	0.333773	0.124331
H259	H	0.080141	0.583773	0.374331
H260	H	0.330141	0.833773	0.624331
Br261	Br	-0.854129	0.207208	-0.351799
Br262	Br	-0.604129	0.457208	-0.101799
Br263	Br	-0.354129	0.707208	0.148201
Br264	Br	-0.104129	0.957208	0.398201
H265	H	-0.983696	-0.692708	0.124545
H266	H	-0.733696	-0.442708	0.374545
H267	H	-0.483696	-0.192708	0.624545
H268	H	-0.233696	0.057292	0.874545
Br269	Br	-0.991142	-0.268495	-0.161758
Br270	Br	-0.741142	-0.018495	0.088242
Br271	Br	-0.491142	0.231505	0.338242
Br272	Br	-0.241142	0.481505	0.588242
Br273	Br	-0.422874	-0.037584	-0.077426
Br274	Br	-0.172874	0.212416	0.172574
Br275	Br	0.077126	0.462416	0.422574
Br276	Br	0.327126	0.712416	0.672574
H277	H	-0.885172	0.181454	-0.669699
H278	H	-0.635172	0.431454	-0.419699
H279	H	-0.385172	0.681454	-0.169699
H280	H	-0.135172	0.931454	0.080301
Br281	Br	-0.983290	-0.712524	-0.161739
Br282	Br	-0.733290	-0.462524	0.088261
Br283	Br	-0.483290	-0.212524	0.338261
Br284	Br	-0.233290	0.037476	0.588261
H285	H	-0.985993	-0.560635	-0.124487
H286	H	-0.735993	-0.310635	0.125513
H287	H	-0.485993	-0.060635	0.375513
H288	H	-0.235993	0.189365	0.625513
H289	H	-0.399926	0.201340	0.051872
H290	H	-0.149926	0.451340	0.301872
H291	H	0.100074	0.701340	0.551872
H292	H	0.350074	0.951340	0.801872
Br293	Br	-0.574276	0.105200	0.160837
Br294	Br	-0.324276	0.355200	0.410837
Br295	Br	-0.074276	0.605200	0.660837
Br296	Br	0.175724	0.855200	0.910837
H297	H	-0.885114	0.181439	-0.186517
H298	H	-0.635114	0.431439	0.063483
H299	H	-0.385114	0.681439	0.313483
H300	H	-0.135114	0.931439	0.563483
H301	H	-0.576620	0.002524	0.076523
H302	H	-0.326620	0.252524	0.326523
H303	H	-0.076620	0.502524	0.576523
H304	H	0.173380	0.752524	0.826523
H305	H	-0.398885	0.201170	-0.050951
H306	H	-0.148885	0.451170	0.199049
H307	H	0.101115	0.701170	0.449049
H308	H	0.351115	0.951170	0.699049
H309	H	-0.542975	0.203456	-0.051594
H310	H	-0.292975	0.453456	0.198406
H311	H	-0.042975	0.703456	0.448406
H312	H	0.207025	0.953456	0.698406
Br313	Br	-0.423997	-0.039534	0.072040
Br314	Br	-0.173997	0.210466	0.322040
Br315	Br	0.076003	0.460466	0.572040
Br316	Br	0.326003	0.710466	0.822040
H317	H	-0.986047	-0.560594	0.124540
H318	H	-0.736047	-0.310594	0.374540
H319	H	-0.486047	-0.060594	0.624540
H320	H	-0.236047	0.189406	0.874540
H321	H	-1.092422	0.009240	-0.669684
H322	H	-0.842422	0.259240	-0.419684
H323	H	-0.592422	0.509240	-0.169684
H324	H	-0.342422	0.759240	0.080316
Br325	Br	-0.597019	-0.035771	-0.076334
Br326	Br	-0.347019	0.214229	0.173666
Br327	Br	-0.097019	0.464229	0.423666
Br328	Br	0.152981	0.714229	0.673666
Br329	Br	-1.123380	-0.016532	-0.164986
Br330	Br	-0.873380	0.233468	0.085014
Br331	Br	-0.623380	0.483468	0.335014
Br332	Br	-0.373380	0.733468	0.585014
H333	H	-1.092422	0.009236	-0.813450
H334	H	-0.842422	0.259236	-0.563450
H335	H	-0.592422	0.509236	-0.313450
H336	H	-0.342422	0.759236	-0.063450
Br337	Br	-1.123393	-0.016533	-0.351780
Br338	Br	-0.873393	0.233467	-0.101780
Br339	Br	-0.623393	0.483467	0.148220
Br340	Br	-0.373393	0.733467	0.398220
Br341	Br	-0.854173	0.207218	-0.834981
Br342	Br	-0.604173	0.457218	-0.584981
Br343	Br	-0.354173	0.707218	-0.334981
Br344	Br	-0.104173	0.957218	-0.084981
Br345	Br	-0.399623	0.095733	0.162062
Br346	Br	-0.149623	0.345733	0.412062
Br347	Br	0.100377	0.595733	0.662062
Br348	Br	0.350377	0.845733	0.912062
Br349	Br	-0.576821	0.102681	-0.161047
Br350	Br	-0.326821	0.352681	0.088953
Br351	Br	-0.076821	0.602681	0.338953
Br352	Br	0.173179	0.852681	0.588953
Br353	Br	-0.994267	-0.096791	0.161773
Br354	Br	-0.744267	0.153209	0.411773
Br355	Br	-0.494267	0.403209	0.661773
Br356	Br	-0.244267	0.653209	0.911773
Br357	Br	-0.991220	-0.268447	0.161779
Br358	Br	-0.741220	-0.018447	0.411779
Br359	Br	-0.491220	0.231553	0.661779
Br360	Br	-0.241220	0.481553	0.911779
