data_functionalizedCrystal
_audit_creation_method	'MofGen! by Chris Wilmer'
_symmetry_space_group_name_H-M	'P1'
_symmetry_Int_Tables_number	1
_symmetry_cell_setting	triclinic
loop_
_symmetry_equiv_pos_as_xyz
  x,y,z
_cell_length_a	12.759399
_cell_length_b	12.759401
_cell_length_c	19.076919
_cell_angle_alpha	92.281660
_cell_angle_beta	92.274423
_cell_angle_gamma	90.015378
loop_
_atom_site_label
_atom_site_type_symbol
_atom_site_fract_x
_atom_site_fract_y
_atom_site_fract_z
Zn1	Zn	-0.442148	1.582341	-0.397952
Zn2	Zn	0.057852	2.082341	0.102048
Zn3	Zn	-0.610783	1.589305	-0.280263
Zn4	Zn	-0.110783	2.089305	0.219737
Zn5	Zn	-0.435120	1.413714	-0.280272
Zn6	Zn	0.064880	1.913714	0.219728
Zn7	Zn	-0.617784	1.406632	-0.397920
Zn8	Zn	-0.117784	1.906632	0.102080
O9	O	-0.526459	1.497998	-0.339102
O10	O	-0.026459	1.997998	0.160898
O11	O	-0.464529	1.730285	-0.382350
O12	O	0.035471	2.230285	0.117650
O13	O	-0.581611	1.571891	-0.181775
O14	O	-0.081611	2.071891	0.318225
O15	O	-0.289032	1.436131	-0.295899
O16	O	0.210968	1.936131	0.204101
O17	O	-0.588425	1.735402	-0.295885
O18	O	-0.088425	2.235402	0.204115
O19	O	-0.294195	1.560021	-0.382358
O20	O	0.205805	2.060021	0.117642
O21	O	-0.452552	1.442885	-0.181782
O22	O	0.047448	1.942885	0.318218
O23	O	-0.459340	1.265754	-0.295869
O24	O	0.040660	1.765754	0.204131
O25	O	-0.600356	1.424062	-0.496414
O26	O	-0.100356	1.924062	0.003586
O27	O	-0.593542	1.260551	-0.382304
O28	O	-0.093542	1.760551	0.117696
O29	O	-0.471317	1.553154	-0.496437
O30	O	0.028683	2.053154	0.003563
O31	O	-0.758732	1.565024	-0.295854
O32	O	-0.258732	2.065024	0.204146
O33	O	-0.763875	1.430815	-0.382296
O34	O	-0.263875	1.930815	0.117704
C35	C	-0.526439	1.225032	-0.339084
C36	C	-0.026439	1.725032	0.160916
C37	C	-0.526457	1.108254	-0.339094
C38	C	-0.026457	1.608254	0.160906
C39	C	-0.590859	1.056056	-0.294013
C40	C	-0.090859	1.556056	0.205987
C41	C	-0.590878	0.946331	-0.294032
C42	C	-0.090878	1.446331	0.205968
C43	C	-0.462084	0.941012	-0.384213
C44	C	0.037916	1.441012	0.115787
C45	C	-0.462071	1.050735	-0.384197
C46	C	0.037929	1.550735	0.115803
C47	C	-0.713234	0.797858	-0.268762
C48	C	-0.213234	1.297858	0.231238
C49	C	-0.777626	0.745657	-0.223670
C50	C	-0.277626	1.245657	0.276330
C51	C	-0.789497	0.785334	-0.154972
C52	C	-0.289497	1.285334	0.345028
C53	C	-0.736959	0.877211	-0.131352
C54	C	-0.236959	1.377211	0.368648
C55	C	-0.672559	0.929407	-0.176439
C56	C	-0.172559	1.429407	0.323561
C57	C	-0.660709	0.889731	-0.245147
C58	C	-0.160709	1.389731	0.254853
C59	C	-0.339713	1.199211	-0.409460
C60	C	0.160287	1.699211	0.090540
C61	C	-0.275306	1.251408	-0.454545
C62	C	0.224694	1.751408	0.045455
C63	C	-0.263425	1.211734	-0.523244
C64	C	0.236575	1.711734	-0.023244
C65	C	-0.315944	1.119853	-0.546862
C66	C	0.184056	1.619853	-0.046862
C67	C	-0.380350	1.067655	-0.501777
C68	C	0.119650	1.567655	-0.001777
C69	C	-0.392233	1.107338	-0.433079
C70	C	0.107767	1.607338	0.066921
C71	C	-0.799425	1.497935	-0.339086
C72	C	-0.299425	1.997935	0.160914
C73	C	-0.916203	1.498002	-0.339103
C74	C	-0.416203	1.998002	0.160897
C75	C	-0.968355	1.567958	-0.294143
C76	C	-0.468355	2.067958	0.205857
C77	C	-1.078080	1.568025	-0.294167
C78	C	-0.578080	2.068025	0.205833
C79	C	-1.083492	1.428169	-0.384111
C80	C	-0.583492	1.928169	0.115889
C81	C	-0.973769	1.428109	-0.384090
C82	C	-0.473769	1.928109	0.115910
C83	C	-1.226452	1.693539	-0.269123
C84	C	-0.726452	2.193539	0.230877
C85	C	-1.278607	1.763486	-0.224153
C86	C	-0.778607	2.263486	0.275847
C87	C	-1.238936	1.783777	-0.155481
C88	C	-0.738936	2.283777	0.344519
C89	C	-1.147110	1.734106	-0.131766
C90	C	-0.647110	2.234106	0.368234
C91	C	-1.094961	1.664150	-0.176733
C92	C	-0.594961	2.164150	0.323267
C93	C	-1.134631	1.643879	-0.245414
C94	C	-0.634631	2.143879	0.254586
C95	C	-0.825395	1.302593	-0.409127
C96	C	-0.325395	1.802593	0.090873
C97	C	-0.773243	1.232632	-0.454091
C98	C	-0.273243	1.732632	0.045909
C99	C	-0.812912	1.212331	-0.522763
C100	C	-0.312912	1.712331	-0.022763
C101	C	-0.904741	1.261984	-0.546476
C102	C	-0.404741	1.761984	-0.046476
C103	C	-0.956893	1.331945	-0.501512
C104	C	-0.456893	1.831945	-0.001512
C105	C	-0.917216	1.352248	-0.432841
C106	C	-0.417216	1.852248	0.067159
C107	C	-0.252427	1.498089	-0.339133
C108	C	0.247573	1.998089	0.160867
C109	C	-0.135652	1.498128	-0.339147
C110	C	0.364348	1.998128	0.160853
C111	C	-0.537401	1.487041	-0.522677
C112	C	-0.037401	1.987041	-0.022677
C113	C	-0.542064	1.482372	-0.600905
C114	C	-0.042064	1.982372	-0.100905
C115	C	-0.526480	1.772030	-0.339120
C116	C	-0.026480	2.272030	0.160880
C117	C	-0.526488	1.888806	-0.339128
C118	C	-0.026488	2.388806	0.160872
C119	C	-0.477074	1.547387	-0.637670
C120	C	0.022926	2.047387	-0.137670
C121	C	-0.481451	1.542987	-0.711174
C122	C	0.018549	2.042987	-0.211174
C123	C	-0.550825	1.473577	-0.747912
C124	C	-0.050825	1.973577	-0.247912
C125	C	-0.615818	1.408555	-0.711142
C126	C	-0.115818	1.908555	-0.211142
C127	C	-0.611434	1.412950	-0.637639
C128	C	-0.111434	1.912950	-0.137639
C129	C	-0.571134	1.453219	-0.967740
C130	C	-0.071134	1.953219	-0.467740
C131	C	-0.575514	1.448831	-1.041248
C132	C	-0.075514	1.948831	-0.541248
C133	C	-0.441146	1.583261	-1.041276
C134	C	0.058854	2.083261	-0.541276
C135	C	-0.436773	1.587655	-0.967772
C136	C	0.063227	2.087655	-0.467772
C137	C	-0.501762	1.522630	-0.931008
C138	C	-0.001762	2.022630	-0.431008
N139	N	-0.555303	1.469080	-0.823045
N140	N	-0.055303	1.969080	-0.323045
N141	N	-0.497278	1.527122	-0.855876
N142	N	0.002722	2.027122	-0.355876
C143	C	-0.515483	1.508973	-0.156241
C144	C	-0.015483	2.008973	0.343759
C145	C	-0.510524	1.513845	-0.078013
C146	C	-0.010524	2.013845	0.421987
H147	H	-0.820401	0.670849	-0.242908
H148	H	-0.320401	1.170849	0.257092
H149	H	-0.306262	1.087542	-0.602801
H150	H	0.193738	1.587542	-0.102801
H151	H	-1.130376	1.371262	-0.420737
H152	H	-0.630376	1.871262	0.079263
H153	H	-0.428532	1.595931	-0.741105
H154	H	0.071468	2.095931	-0.241105
H155	H	-0.632009	1.392306	-1.071158
H156	H	-0.132009	1.892306	-0.571158
F157	F	-0.371983	1.652459	-1.080408
F158	F	0.128017	2.152459	-0.580408
F159	F	-0.403242	1.621268	-0.598578
F160	F	0.096758	2.121268	-0.098578
H161	H	-1.114823	1.750624	-0.075844
H162	H	-0.614823	2.250624	0.424156
F163	F	-0.362937	1.661531	-0.928678
F164	F	0.137063	2.161531	-0.428678
H165	H	-0.793081	1.319127	-0.353210
H166	H	-0.293081	1.819127	0.146790
H167	H	-0.624068	1.400286	-0.937816
H168	H	-0.124068	1.900286	-0.437816
F169	F	-0.689646	1.334679	-0.750242
F170	F	-0.189646	1.834679	-0.250242
H171	H	-0.232536	1.326218	-0.435307
H172	H	0.267464	1.826218	0.064693
F173	F	-0.749581	0.919421	-0.058228
F174	F	-0.249581	1.419421	0.441772
F175	F	-1.268672	1.671962	-0.342215
F176	F	-0.768672	2.171962	0.157785
H177	H	-0.664346	1.359998	-0.607706
H178	H	-0.164346	1.859998	-0.107706
H179	H	-0.629781	1.004209	-0.157207
H180	H	-0.129781	1.504209	0.342793
F181	F	-0.659389	1.117269	-0.246013
F182	F	-0.159389	1.617269	0.253987
F183	F	-1.376331	1.816348	-0.249394
F184	F	-0.876331	2.316348	0.250606
F185	F	-0.194860	1.267282	-0.571222
F186	F	0.305140	1.767282	-0.071222
H187	H	-1.031662	1.372379	-0.520826
H188	H	-0.531662	1.872379	-0.020826
F189	F	-0.907092	1.642347	-0.246265
F190	F	-0.407092	2.142347	0.253735
F191	F	-0.700621	0.755633	-0.341883
F192	F	-0.200621	1.255633	0.158117
F193	F	-0.393563	0.879786	-0.432212
F194	F	0.106437	1.379786	0.067788
F195	F	-0.858026	0.729772	-0.106984
F196	F	-0.358026	1.229772	0.393016
F197	F	-0.352362	1.241449	-0.336343
F198	F	0.147638	1.741449	0.163657
F199	F	-0.997243	1.611283	-0.151496
F200	F	-0.497243	2.111283	0.348504
F201	F	-0.436245	0.969865	-0.526916
F202	F	0.063755	1.469865	-0.026916
H203	H	-1.281408	1.840732	-0.118867
H204	H	-0.781408	2.340732	0.381133
F205	F	-0.946964	1.240378	-0.619565
F206	F	-0.446964	1.740378	-0.119565
F207	F	-0.757438	1.137820	-0.570602
F208	F	-0.257438	1.637820	-0.070602
H209	H	-0.698466	1.192208	-0.434780
H210	H	-0.198466	1.692208	0.065220
