data_functionalizedCrystal
_audit_creation_method	'MofGen! by Chris Wilmer'
_symmetry_space_group_name_H-M	'P1'
_symmetry_Int_Tables_number	1
_symmetry_cell_setting	triclinic
loop_
_symmetry_equiv_pos_as_xyz
  x,y,z
_cell_length_a	12.759401
_cell_length_b	12.759399
_cell_length_c	12.759393
_cell_angle_alpha	90.031461
_cell_angle_beta	90.020473
_cell_angle_gamma	90.016641
loop_
_atom_site_label
_atom_site_type_symbol
_atom_site_fract_x
_atom_site_fract_y
_atom_site_fract_z
Zn1	Zn	1.606259	-0.418167	0.594017
Zn2	Zn	1.606150	-0.593884	0.418336
Zn3	Zn	1.430559	-0.418225	0.418352
Zn4	Zn	1.430548	-0.593809	0.593973
O5	O	1.518379	-0.506021	0.506170
O6	O	1.753265	-0.441484	0.570724
O7	O	1.582816	-0.570638	0.271317
O8	O	1.453916	-0.271196	0.441680
O9	O	1.753185	-0.570582	0.441652
O10	O	1.583002	-0.271154	0.570740
O11	O	1.453810	-0.441582	0.271329
O12	O	1.283536	-0.441509	0.441637
O13	O	1.453897	-0.570454	0.741000
O14	O	1.283528	-0.570510	0.570665
O15	O	1.582991	-0.441411	0.741032
O16	O	1.582806	-0.740895	0.441609
O17	O	1.453792	-0.740840	0.570649
C18	C	1.245411	-0.506008	0.506149
C19	C	1.128635	-0.506028	0.506165
C20	C	1.073796	-0.573301	0.573244
C21	C	0.964072	-0.573305	0.573265
C22	C	0.964035	-0.438760	0.439118
C23	C	1.073757	-0.438752	0.439104
C24	C	0.814175	-0.611003	0.697125
C25	C	0.759332	-0.678292	0.764195
C26	C	0.794929	-0.780823	0.780142
C27	C	0.885367	-0.816085	0.729004
C28	C	0.940203	-0.748801	0.661926
C29	C	0.904608	-0.646256	0.645999
C30	C	1.223656	-0.401065	0.315242
C31	C	1.278495	-0.333786	0.248158
C32	C	1.242900	-0.231253	0.232200
C33	C	1.152459	-0.195995	0.283320
C34	C	1.097621	-0.263274	0.350404
C35	C	1.133223	-0.365806	0.366363
C36	C	1.518314	-0.778989	0.506146
C37	C	1.518383	-0.895765	0.506171
C38	C	1.585637	-0.950621	0.439056
C39	C	1.585705	-1.060345	0.439091
C40	C	1.451255	-1.060348	0.573359
C41	C	1.451193	-0.950626	0.573328
C42	C	1.709713	-1.210221	0.401704
C43	C	1.776958	-1.265080	0.334573
C44	C	1.793122	-1.229541	0.232062
C45	C	1.742025	-1.139143	0.196662
C46	C	1.674772	-1.084290	0.263788
C47	C	1.658629	-1.119828	0.366313
C48	C	1.327183	-0.800748	0.610705
C49	C	1.259924	-0.745892	0.677826
C50	C	1.243750	-0.781430	0.780338
C51	C	1.294828	-0.871830	0.815734
C52	C	1.362087	-0.926686	0.748613
C53	C	1.378263	-0.891141	0.646102
C54	C	1.792412	-0.506035	0.506191
C55	C	1.909189	-0.506041	0.506200
C56	C	1.518455	-0.505918	0.780203
C57	C	1.518488	-0.505874	0.896980
C58	C	1.518472	-0.231988	0.506217
C59	C	1.518512	-0.115211	0.506237
C60	C	1.518363	-0.506049	0.233202
C61	C	1.518534	-0.505797	0.116426
C62	C	1.585733	-0.438630	1.061592
C63	C	1.585713	-0.438671	0.951867
C64	C	1.451285	-0.573047	0.951822
C65	C	1.451311	-0.573011	1.061544
C66	C	1.709596	-0.401190	0.801940
C67	C	1.776787	-0.334007	0.747102
C68	C	1.792962	-0.231482	0.782737
C69	C	1.741931	-0.196119	0.873209
C70	C	1.674733	-0.263297	0.928041
C71	C	1.658578	-0.365836	0.892408
C72	C	1.327427	-0.610481	1.211474
C73	C	1.260223	-0.677654	1.266308
C74	C	1.244037	-0.780181	1.230675
C75	C	1.295049	-0.815540	1.140200
C76	C	1.362253	-0.748367	1.085365
C77	C	1.378441	-0.645841	1.121006
H78	H	1.252653	-0.484553	0.328239
H79	H	1.188978	-0.736757	0.834986
H80	H	1.218340	-0.672278	0.649000
H81	H	1.118474	-0.628080	0.627852
F82	F	1.172498	-0.851665	1.289031
H83	H	1.818336	-0.362810	0.673439
F84	F	1.205913	-0.640011	1.362589
H85	H	1.696443	-0.484678	0.772924
H86	H	1.403790	-0.777166	1.011696
H87	H	1.013835	-0.777511	0.620290
H88	H	1.633173	-0.234500	1.001693
F89	F	1.344399	-0.762915	0.501599
F90	F	1.620388	-0.988092	0.226117
H91	H	1.696570	-1.239159	0.485179
F92	F	1.374742	-0.371319	0.193739
F93	F	1.379741	-0.644573	0.893404
F94	F	1.416450	-1.022900	0.786288
F95	F	1.759141	-0.086992	0.911121
H96	H	1.847670	-0.176782	0.738079
F97	F	1.864689	-1.287930	0.160618
H98	H	1.755183	-1.110220	0.113184
H99	H	1.281871	-0.899027	1.111188
H100	H	1.818562	-1.338682	0.363405
H101	H	0.685699	-0.649572	0.805832
H102	H	1.340606	-0.526996	1.240499
F103	F	1.657276	-0.367093	1.119997
F104	F	0.923236	-0.925219	0.745967
H105	H	0.785190	-0.527510	0.684158
F106	F	0.905621	-0.367165	0.367750
F107	F	1.001360	-0.225748	0.404805
F108	F	0.736562	-0.852434	0.851528
H109	H	1.123465	-0.112511	0.270310
H110	H	1.640349	-0.905956	0.384374
F111	F	1.301260	-0.159655	0.160789
F112	F	1.379748	-1.118743	0.644826
F113	F	1.277615	-0.909656	0.924839
