data_functionalizedCrystal
_audit_creation_method	'MofGen! by Chris Wilmer'
_symmetry_space_group_name_H-M	'P1'
_symmetry_Int_Tables_number	1
_symmetry_cell_setting	triclinic
loop_
_symmetry_equiv_pos_as_xyz
  x,y,z
_cell_length_a	16.109301
_cell_length_b	16.109301
_cell_length_c	15.186229
_cell_angle_alpha	89.994833
_cell_angle_beta	89.999362
_cell_angle_gamma	83.461481
loop_
_atom_site_label
_atom_site_type_symbol
_atom_site_fract_x
_atom_site_fract_y
_atom_site_fract_z
O1	O	1.103131	0.106866	-0.073176
O2	O	1.353131	0.356866	0.176824
O3	O	1.603131	0.606866	0.426824
O4	O	1.853131	0.856866	0.676824
O5	O	0.861069	0.120165	-0.073190
O6	O	1.111069	0.370165	0.176810
O7	O	1.361069	0.620165	0.426810
O8	O	1.611069	0.870165	0.676810
O9	O	0.988749	-0.007515	-0.073174
O10	O	1.238749	0.242485	0.176826
O11	O	1.488749	0.492485	0.426826
O12	O	1.738749	0.742485	0.676826
O13	O	0.975450	0.234547	-0.073192
O14	O	1.225450	0.484547	0.176808
O15	O	1.475450	0.734547	0.426808
O16	O	1.725450	0.984547	0.676808
O17	O	0.988741	-0.007517	0.073284
O18	O	1.238741	0.242483	0.323284
O19	O	1.488741	0.492483	0.573284
O20	O	1.738741	0.742483	0.823284
O21	O	0.861060	0.120164	0.073267
O22	O	1.111060	0.370164	0.323267
O23	O	1.361060	0.620164	0.573267
O24	O	1.611060	0.870164	0.823267
O25	O	1.103122	0.106864	0.073282
O26	O	1.353122	0.356864	0.323282
O27	O	1.603122	0.606864	0.573282
O28	O	1.853122	0.856864	0.823282
Zn29	Zn	0.982090	0.113514	0.096528
Zn30	Zn	1.232090	0.363514	0.346528
Zn31	Zn	1.482090	0.613514	0.596528
Zn32	Zn	1.732090	0.863514	0.846528
Zn33	Zn	0.982101	0.113516	-0.096436
Zn34	Zn	1.232101	0.363516	0.153564
Zn35	Zn	1.482101	0.613516	0.403564
Zn36	Zn	1.732101	0.863516	0.653564
O37	O	0.975441	0.234545	0.073265
O38	O	1.225441	0.484545	0.323265
O39	O	1.475441	0.734545	0.573265
O40	O	1.725441	0.984545	0.823265
C41	C	0.830090	0.119626	0.000037
C42	C	1.080090	0.369626	0.250037
C43	C	1.330090	0.619626	0.500037
C44	C	1.580090	0.869626	0.750037
C45	C	0.737794	0.118011	0.000032
C46	C	0.987794	0.368011	0.250032
C47	C	1.237794	0.618011	0.500032
C48	C	1.487794	0.868011	0.750032
C49	C	0.515522	0.190018	0.000036
C50	C	0.765522	0.440018	0.250036
C51	C	1.015522	0.690018	0.500036
C52	C	1.265522	0.940018	0.750036
C53	C	0.428801	0.188494	0.000042
C54	C	0.678801	0.438494	0.250042
C55	C	0.928801	0.688494	0.500042
C56	C	1.178801	0.938494	0.750042
C57	C	0.448676	0.037006	0.000050
C58	C	0.698676	0.287006	0.250050
C59	C	0.948676	0.537006	0.500050
C60	C	1.198676	0.787006	0.750050
C61	C	0.535394	0.038530	0.000051
C62	C	0.785394	0.288530	0.250051
C63	C	1.035394	0.538530	0.500051
C64	C	1.285394	0.788530	0.750051
C65	C	0.568815	0.115039	0.000039
C66	C	0.818815	0.365039	0.250039
C67	C	1.068815	0.615039	0.500039
C68	C	1.318815	0.865039	0.750039
C69	C	0.395376	0.111990	0.000045
C70	C	0.645376	0.361990	0.250045
C71	C	0.895376	0.611990	0.500045
C72	C	1.145376	0.861990	0.750045
C73	C	0.301350	0.110337	0.000051
C74	C	0.551350	0.360337	0.250051
C75	C	0.801350	0.610337	0.500051
C76	C	1.051350	0.860337	0.750051
C77	C	0.662847	0.116693	0.000035
C78	C	0.912847	0.366693	0.250035
C79	C	1.162847	0.616693	0.500035
C80	C	1.412847	0.866693	0.750035
C81	C	0.988206	-0.038491	0.000056
C82	C	1.238206	0.211509	0.250056
C83	C	1.488206	0.461509	0.500056
C84	C	1.738206	0.711509	0.750056
C85	C	0.986591	-0.130786	0.000057
C86	C	1.236591	0.119214	0.250057
C87	C	1.486591	0.369214	0.500057
C88	C	1.736591	0.619214	0.750057
C89	C	1.058599	-0.353059	0.000047
C90	C	1.308599	-0.103059	0.250047
C91	C	1.558599	0.146941	0.500047
C92	C	1.808599	0.396941	0.750047
C93	C	1.057075	-0.439779	0.000040
C94	C	1.307075	-0.189779	0.250040
C95	C	1.557075	0.060221	0.500040
C96	C	1.807075	0.310221	0.750040
C97	C	0.905586	-0.419905	0.000034
C98	C	1.155586	-0.169905	0.250034
C99	C	1.405586	0.080095	0.500034
C100	C	1.655586	0.330095	0.750034
C101	C	0.907111	-0.333186	0.000035
C102	C	1.157111	-0.083186	0.250035
C103	C	1.407111	0.166814	0.500035
C104	C	1.657111	0.416814	0.750035
C105	C	0.983620	-0.299766	0.000046
C106	C	1.233620	-0.049766	0.250046
C107	C	1.483620	0.200234	0.500046
C108	C	1.733620	0.450234	0.750046
C109	C	0.980571	-0.473205	0.000038
C110	C	1.230571	-0.223205	0.250038
C111	C	1.480571	0.026795	0.500038
C112	C	1.730571	0.276795	0.750038
C113	C	0.978918	-0.567231	0.000030
C114	C	1.228918	-0.317231	0.250030
C115	C	1.478918	-0.067231	0.500030
C116	C	1.728918	0.182769	0.750030
C117	C	0.985273	-0.205734	0.000052
C118	C	1.235273	0.044266	0.250052
C119	C	1.485273	0.294266	0.500052
C120	C	1.735273	0.544266	0.750052
C121	C	1.134101	0.107404	0.000053
C122	C	1.384101	0.357404	0.250053
C123	C	1.634101	0.607404	0.500053
C124	C	1.884101	0.857404	0.750053
C125	C	1.226397	0.109019	0.000052
C126	C	1.476397	0.359019	0.250052
C127	C	1.726397	0.609019	0.500052
C128	C	1.976397	0.859019	0.750052
C129	C	0.975984	0.265521	0.000034
C130	C	1.225984	0.515521	0.250034
C131	C	1.475984	0.765521	0.500034
C132	C	1.725984	1.015521	0.750034
C133	C	0.977600	0.357816	0.000027
C134	C	1.227600	0.607816	0.250027
C135	C	1.477600	0.857816	0.500027
C136	C	1.727600	1.107816	0.750027
N137	N	0.982088	0.113511	0.228220
N138	N	1.232088	0.363511	0.478220
N139	N	1.482088	0.613511	0.728220
N140	N	1.732088	0.863511	0.978220
N141	N	0.982109	0.113512	-0.228129
N142	N	1.232109	0.363512	0.021871
N143	N	1.482109	0.613512	0.271871
N144	N	1.732109	0.863512	0.521871
C145	C	1.038644	0.056994	0.453950
C146	C	1.288644	0.306994	0.703950
C147	C	1.538644	0.556994	0.953950
C148	C	1.788644	0.806994	1.203950
C149	C	1.038647	0.056992	0.546140
C150	C	1.288647	0.306992	0.796140
C151	C	1.538647	0.556992	1.046140
C152	C	1.788647	0.806992	1.296140
C153	C	0.925547	0.170032	0.546135
C154	C	1.175547	0.420032	0.796135
C155	C	1.425547	0.670032	1.046135
C156	C	1.675547	0.920032	1.296135
C157	C	0.925541	0.170030	0.453947
C158	C	1.175541	0.420030	0.703947
C159	C	1.425541	0.670030	0.953947
C160	C	1.675541	0.920030	1.203947
C161	C	0.982094	0.113511	0.407857
C162	C	1.232094	0.363511	0.657857
C163	C	1.482094	0.613511	0.907857
C164	C	1.732094	0.863511	1.157857
C165	C	0.982103	0.113512	0.592235
C166	C	1.232103	0.363512	0.842235
C167	C	1.482103	0.613512	1.092235
C168	C	1.732103	0.863512	1.342235
C169	C	0.982105	0.113510	0.692191
C170	C	1.232105	0.363510	0.942191
C171	C	1.482105	0.613510	1.192191
C172	C	1.732105	0.863510	1.442191
C173	C	0.982091	0.113512	0.307894
C174	C	1.232091	0.363512	0.557894
C175	C	1.482091	0.613512	0.807894
C176	C	1.732091	0.863512	1.057894
H177	H	0.542730	0.252317	0.000034
H178	H	0.792730	0.502317	0.250034
H179	H	1.042730	0.752317	0.500034
H180	H	1.292730	1.002317	0.750034
H181	H	1.084694	0.010969	0.583667
H182	H	1.334694	0.260969	0.833667
H183	H	1.584694	0.510969	1.083667
H184	H	1.834694	0.760969	1.333667
H185	H	0.879503	0.216049	0.583670
H186	H	1.129503	0.466049	0.833670
H187	H	1.379503	0.716049	1.083670
H188	H	1.629503	0.966049	1.333670
F189	F	0.413100	-0.044416	0.000058
F190	F	0.663100	0.205584	0.250058
F191	F	0.913100	0.455584	0.500058
F192	F	1.163100	0.705584	0.750058
F193	F	0.372086	0.268298	0.000040
F194	F	0.622086	0.518298	0.250040
F195	F	0.872086	0.768298	0.500040
F196	F	1.122086	1.018298	0.750040
H197	H	0.578788	-0.022530	0.000056
H198	H	0.828788	0.227470	0.250056
H199	H	1.078788	0.477470	0.500056
H200	H	1.328788	0.727470	0.750056
F201	F	1.136878	-0.496495	0.000039
F202	F	1.386878	-0.246495	0.250039
F203	F	1.636878	0.003505	0.500039
F204	F	1.886878	0.253505	0.750039
H205	H	0.846050	-0.289792	0.000032
H206	H	1.096050	-0.039792	0.250032
H207	H	1.346050	0.210208	0.500032
H208	H	1.596050	0.460208	0.750032
F209	F	1.140026	-0.317493	0.000058
F210	F	1.390026	-0.067493	0.250058
F211	F	1.640026	0.182507	0.500058
F212	F	1.890026	0.432507	0.750058
H213	H	0.843295	-0.447127	0.000027
H214	H	1.093295	-0.197127	0.250027
H215	H	1.343295	0.052873	0.500027
H216	H	1.593295	0.302873	0.750027
H217	H	1.084692	0.010972	0.416426
H218	H	1.334692	0.260972	0.666426
H219	H	1.584692	0.510972	0.916426
H220	H	1.834692	0.760972	1.166426
F221	F	0.865347	0.230183	0.404887
F222	F	1.115347	0.480183	0.654887
F223	F	1.365347	0.730183	0.904887
F224	F	1.615347	0.980183	1.154887
