data_functionalizedCrystal
_audit_creation_method	'MofGen! by Chris Wilmer'
_symmetry_space_group_name_H-M	'P1'
_symmetry_Int_Tables_number	1
_symmetry_cell_setting	triclinic
loop_
_symmetry_equiv_pos_as_xyz
  x,y,z
_cell_length_a	6.394984
_cell_length_b	11.792241
_cell_length_c	10.268362
_cell_angle_alpha	90.000374
_cell_angle_beta	90.003727
_cell_angle_gamma	85.344384
loop_
_atom_site_label
_atom_site_type_symbol
_atom_site_fract_x
_atom_site_fract_y
_atom_site_fract_z
O1	O	0.286339	1.510044	0.108169
O2	O	0.619672	1.843377	0.441502
O3	O	0.953006	2.176711	0.774836
O4	O	0.315849	1.180026	0.108199
O5	O	0.649182	1.513359	0.441532
O6	O	0.982516	1.846693	0.774866
O7	O	-0.002918	1.349723	0.108180
O8	O	0.330415	1.683056	0.441513
O9	O	0.663749	2.016389	0.774846
O10	O	0.605106	1.340347	0.108188
O11	O	0.938439	1.673681	0.441522
O12	O	1.271773	2.007014	0.774855
O13	O	-0.002931	1.349707	-0.108421
O14	O	0.330402	1.683041	0.224912
O15	O	0.663735	2.016374	0.558246
O16	O	0.315836	1.180011	-0.108402
O17	O	0.649169	1.513344	0.224932
O18	O	0.982502	1.846677	0.558265
O19	O	0.286326	1.510029	-0.108432
O20	O	0.619659	1.843362	0.224902
O21	O	0.952992	2.176695	0.558235
Cu22	Cu	0.301079	1.345018	-0.128194
Cu23	Cu	0.634413	1.678352	0.205139
Cu24	Cu	0.967746	2.011685	0.538473
Cu25	Cu	0.301095	1.345036	0.127961
Cu26	Cu	0.634428	1.678370	0.461295
Cu27	Cu	0.967762	2.011703	0.794628
O28	O	0.605093	1.340332	-0.108412
O29	O	0.938426	1.673665	0.224921
O30	O	1.271759	2.006999	0.558254
C31	C	0.313989	1.137707	-0.000098
C32	C	0.647322	1.471041	0.333236
C33	C	0.980655	1.804374	0.666569
C34	C	0.308440	1.011633	-0.000086
C35	C	0.641774	1.344966	0.333247
C36	C	0.975107	1.678299	0.666581
N37	N	0.301067	1.345014	-0.308360
N38	N	0.634400	1.678347	0.024973
N39	N	0.967734	2.011681	0.358307
C40	C	0.298238	0.780809	-0.000124
C41	C	0.631571	1.114142	0.333210
C42	C	0.964905	1.447475	0.666543
C43	C	0.303907	0.909256	-0.000103
C44	C	0.637240	1.242589	0.333230
C45	C	0.970573	1.575923	0.666564
C46	C	0.301091	1.345031	-0.574031
C47	C	0.634424	1.678364	-0.240697
C48	C	0.967758	2.011697	0.092636
C49	C	0.301084	1.345018	-0.426193
C50	C	0.634417	1.678351	-0.092859
C51	C	0.967750	2.011684	0.240474
C52	C	0.919236	1.347851	-0.000124
C53	C	1.252569	1.681184	0.333209
C54	C	1.585902	2.014517	0.666542
C55	C	0.682934	1.342201	-0.000121
C56	C	1.016267	1.675534	0.333212
C57	C	1.349601	2.008868	0.666545
C58	C	0.288186	1.552348	-0.000132
C59	C	0.621519	1.885681	0.333201
C60	C	0.954853	2.219014	0.666534
C61	C	0.293734	1.678422	-0.000135
C62	C	0.627068	2.011755	0.333198
C63	C	0.960401	2.345089	0.666531
N64	N	0.301091	1.345050	0.308127
N65	N	0.634424	1.678383	0.641460
N66	N	0.967758	2.011716	0.974794
