data_functionalizedCrystal
_audit_creation_method	'MofGen! by Chris Wilmer'
_symmetry_space_group_name_H-M	'P1'
_symmetry_Int_Tables_number	1
_symmetry_cell_setting	triclinic
loop_
_symmetry_equiv_pos_as_xyz
  x,y,z
_cell_length_a	14.519731
_cell_length_b	10.654541
_cell_length_c	9.130307
_cell_angle_alpha	90.000178
_cell_angle_beta	89.995718
_cell_angle_gamma	95.913609
loop_
_atom_site_label
_atom_site_type_symbol
_atom_site_fract_x
_atom_site_fract_y
_atom_site_fract_z
O1	O	0.129519	-1.666607	-0.121758
O2	O	0.141862	-1.301010	-0.121771
O3	O	0.001504	-1.493488	-0.121751
O4	O	0.269878	-1.474129	-0.121778
O5	O	0.001502	-1.493482	0.121848
O6	O	0.141861	-1.301004	0.121828
O7	O	0.129518	-1.666601	0.121841
Cu8	Cu	0.135689	-1.483802	0.144077
Cu9	Cu	0.135691	-1.483809	-0.144007
O10	O	0.269876	-1.474123	0.121821
C11	C	0.140956	-1.254218	0.000027
C12	C	0.138246	-1.114800	0.000022
C13	C	-0.032861	-1.492578	0.000049
C14	C	-0.135256	-1.489860	0.000050
C15	C	-0.218411	-1.487651	0.000046
C16	C	-0.322734	-1.484891	0.000035
C17	C	-0.405885	-1.482701	0.000025
C18	C	-0.510214	-1.479942	0.000017
C19	C	0.130424	-1.713393	0.000040
C20	C	0.133134	-1.852811	0.000035
C21	C	0.304241	-1.475033	0.000018
C22	C	0.406635	-1.477751	0.000007
N23	N	0.135687	-1.483806	0.346700
C24	C	0.306082	-1.085233	-0.000013
C25	C	0.388724	-1.004953	-0.000037
C26	C	0.386172	-0.873959	-0.000038
C27	C	0.300969	-0.823244	-0.000011
C28	C	0.218328	-0.903524	0.000012
C29	C	0.220889	-1.034519	0.000009
C30	C	0.050493	-0.933091	0.000058
C31	C	0.053043	-1.064085	0.000049
C32	C	-0.034710	-0.882376	0.000085
C33	C	-0.117353	-0.962657	0.000098
C34	C	-0.114797	-1.093658	0.000097
C35	C	-0.029598	-1.144366	0.000072
N36	N	0.135685	-1.483815	-0.346630
C37	C	0.011436	-1.654314	0.346708
C38	C	-0.050686	-1.739576	0.423378
C39	C	-0.050687	-1.739589	0.576712
C40	C	0.011440	-1.654327	0.653378
C41	C	0.073563	-1.569065	0.576707
C42	C	0.073559	-1.569064	0.423370
C43	C	0.197808	-1.398553	0.576699
C44	C	0.197815	-1.398544	0.423366
C45	C	0.259935	-1.313291	0.653366
C46	C	0.322064	-1.228033	0.576695
C47	C	0.322063	-1.228025	0.423352
C48	C	0.259937	-1.313282	0.346695
H49	H	0.308169	-1.191893	-0.000045
H50	H	-0.036782	-0.775713	0.000092
H51	H	0.372639	-1.158613	0.639126
H52	H	0.298898	-0.716581	0.000005
H53	H	0.453465	-0.808593	-0.000047
C54	C	0.011445	-1.654309	0.178045
H55	H	0.057345	-1.591326	0.143364
H56	H	-0.047617	-1.637003	0.143356
H57	H	0.024632	-1.734600	0.143362
H58	H	-0.186718	-0.921353	0.000118
H59	H	0.011428	-1.654333	0.778230
C60	C	0.259937	-1.313306	0.822028
H61	H	0.214049	-1.376304	0.856713
H62	H	0.246763	-1.233023	0.856731
H63	H	0.319007	-1.330627	0.856694
H64	H	-0.027509	-1.251026	0.000055
C65	C	0.390401	-1.134236	0.339026
H66	H	0.427401	-1.083471	0.406650
H67	H	0.356868	-1.081889	0.279213
H68	H	0.429110	-1.179496	0.279209
H69	H	0.458094	-1.046259	-0.000055
C70	C	-0.205705	-1.181957	0.000115
H71	H	-0.256808	-1.132987	0.000119
H72	H	-0.208196	-1.233679	0.085058
H73	H	-0.208201	-1.233665	-0.084849
H74	H	0.259934	-1.313287	0.221843
H75	H	-0.101272	-1.808994	0.360943
H76	H	-0.101276	-1.809012	0.639137
