data_functionalizedCrystal
_audit_creation_method	'MofGen! by Chris Wilmer'
_symmetry_space_group_name_H-M	'P1'
_symmetry_Int_Tables_number	1
_symmetry_cell_setting	triclinic
loop_
_symmetry_equiv_pos_as_xyz
  x,y,z
_cell_length_a	18.101398
_cell_length_b	18.101389
_cell_length_c	12.759400
_cell_angle_alpha	89.991647
_cell_angle_beta	89.998713
_cell_angle_gamma	89.975673
loop_
_atom_site_label
_atom_site_type_symbol
_atom_site_fract_x
_atom_site_fract_y
_atom_site_fract_z
Zn1	Zn	1.132263	-0.418891	-0.418509
Zn2	Zn	1.632263	0.081109	0.081491
Zn3	Zn	1.132219	-0.295071	-0.594177
Zn4	Zn	1.632219	0.204929	-0.094177
Zn5	Zn	1.008422	-0.295052	-0.418498
Zn6	Zn	1.508422	0.204948	0.081502
Zn7	Zn	1.008433	-0.418859	-0.594132
Zn8	Zn	1.508433	0.081141	-0.094132
O9	O	1.070334	-0.356968	-0.506329
O10	O	1.570334	0.143032	-0.006329
O11	O	1.235890	-0.402487	-0.441835
O12	O	1.735890	0.097513	0.058165
O13	O	1.115774	-0.191435	-0.570887
O14	O	1.615774	0.308565	-0.070887
O15	O	1.024864	-0.311484	-0.271479
O16	O	1.524864	0.188516	0.228521
O17	O	1.235858	-0.311517	-0.570898
O18	O	1.735858	0.188483	-0.070898
O19	O	1.115850	-0.402468	-0.271487
O20	O	1.615850	0.097532	0.228513
O21	O	1.024821	-0.191421	-0.441817
O22	O	1.524821	0.308579	0.058183
O23	O	0.904791	-0.311454	-0.441773
O24	O	1.404791	0.188546	0.058227
O25	O	1.024882	-0.522496	-0.570821
O26	O	1.524882	-0.022496	-0.070821
O27	O	0.904799	-0.402415	-0.570810
O28	O	1.404799	0.097585	-0.070810
O29	O	1.115860	-0.522519	-0.441792
O30	O	1.615860	-0.022519	0.058208
O31	O	1.115784	-0.311487	-0.741192
O32	O	1.615784	0.188513	-0.241192
O33	O	1.024839	-0.402434	-0.741159
O34	O	1.524839	0.097566	-0.241159
C35	C	0.877924	-0.356930	-0.506286
C36	C	1.377924	0.143070	-0.006286
C37	C	0.795610	-0.356931	-0.506293
C38	C	1.295610	0.143069	-0.006293
C39	C	1.070377	-0.550130	-0.506303
C40	C	1.570377	-0.050130	-0.006303
C41	C	1.070395	-0.632444	-0.506291
C42	C	1.570395	-0.132444	-0.006291
C43	C	1.070328	-0.356975	-0.779296
C44	C	1.570328	0.143025	-0.279296
C45	C	1.070393	-0.357003	-0.896073
C46	C	1.570393	0.142997	-0.396073
C47	C	0.496519	-0.356993	-0.506359
C48	C	0.996519	0.143007	-0.006359
C49	C	0.527814	-0.300042	-0.424766
C50	C	1.027814	0.199958	0.075234
C51	C	0.613433	-0.299799	-0.424985
C52	C	1.113433	0.200201	0.075015
C53	C	0.644901	-0.356962	-0.506326
C54	C	1.144901	0.143038	-0.006326
C55	C	0.613821	-0.335651	-0.616993
C56	C	1.113821	0.164349	-0.116993
C57	C	0.528176	-0.335255	-0.616540
C58	C	1.028176	0.164745	-0.116540
C59	C	0.528124	-0.435389	-0.478246
C60	C	1.028124	0.064611	0.021754
C61	C	0.613774	-0.434961	-0.475782
C62	C	1.113774	0.065039	0.024218
C63	C	0.728761	-0.356946	-0.506314
C64	C	1.228761	0.143054	-0.006314
C65	C	0.412659	-0.357007	-0.506379
C66	C	0.912659	0.142993	-0.006379
C67	C	1.263496	-0.357007	-0.506373
C68	C	1.763496	0.142993	-0.006373
C69	C	1.345810	-0.357024	-0.506391
C70	C	1.845810	0.142976	-0.006391
C71	C	1.070439	-0.931535	-0.506094
C72	C	1.570439	-0.431535	-0.006094
C73	C	1.013001	-0.900196	-0.587018
C74	C	1.513001	-0.400196	-0.087018
C75	C	1.013156	-0.814577	-0.587393
C76	C	1.513156	-0.314577	-0.087393
C77	C	1.070417	-0.783153	-0.506192
C78	C	1.570417	-0.283153	-0.006192
C79	C	1.148452	-0.814262	-0.536254
C80	C	1.648452	-0.314262	-0.036254
C81	C	1.148132	-0.899907	-0.536786
C82	C	1.648132	-0.399907	-0.036786
C83	C	1.050519	-0.899946	-0.394928
C84	C	1.550519	-0.399946	0.105072
C85	C	1.048783	-0.814295	-0.395570
C86	C	1.548783	-0.314295	0.104430
C87	C	1.070409	-0.699293	-0.506245
C88	C	1.570409	-0.199293	-0.006245
C89	C	1.070451	-1.015395	-0.506043
C90	C	1.570451	-0.515395	-0.006043
C91	C	1.070334	-0.164558	-0.506280
C92	C	1.570334	0.335442	-0.006280
C93	C	1.070460	-0.082244	-0.505995
C94	C	1.570460	0.417756	-0.005995
C95	C	1.070361	-0.356978	-0.232296
C96	C	1.570361	0.143022	0.267704
C97	C	1.070372	-0.356982	-0.115519
C98	C	1.570372	0.143018	0.384481
C99	C	1.023009	-0.309615	-0.060651
C100	C	1.523009	0.190385	0.439349
C101	C	1.023017	-0.309627	0.049073
C102	C	1.523017	0.190373	0.549073
C103	C	1.117759	-0.404374	0.049052
C104	C	1.617759	0.095626	0.549052
C105	C	1.117746	-0.404365	-0.060671
C106	C	1.617746	0.095635	0.439329
H107	H	0.634445	-0.313155	-0.342920
H108	H	1.134445	0.186845	0.157080
Cl109	Cl	1.033507	-0.782964	-0.714599
Cl110	Cl	1.533507	-0.282964	-0.214599
Cl111	Cl	0.963468	-0.250082	0.118045
Cl112	Cl	1.463468	0.249918	0.618045
H113	H	0.506525	-0.454767	-0.398953
H114	H	1.006525	0.045233	0.101047
Cl115	Cl	0.964186	-0.933263	-0.352646
Cl116	Cl	1.464186	-0.433263	0.147354
H117	H	0.506271	-0.242289	-0.443140
H118	H	1.006271	0.257711	0.056860
Cl119	Cl	0.645153	-0.459781	-0.350056
Cl120	Cl	1.145153	0.040219	0.149944
H121	H	1.156331	-0.442952	0.093720
H122	H	1.656331	0.057048	0.593720
H123	H	1.092354	-0.920214	-0.334636
H124	H	1.592354	-0.420214	0.165364
H125	H	1.165014	-0.919901	-0.618049
H126	H	1.665014	-0.419901	-0.118049
H127	H	0.954961	-0.920779	-0.568397
H128	H	1.454961	-0.420779	-0.068397
Cl129	Cl	0.963450	-0.250050	-0.129600
Cl130	Cl	1.463450	0.249950	0.370400
H131	H	1.156315	-0.442942	-0.105345
H132	H	1.656315	0.057058	0.394655
H133	H	1.087563	-0.792903	-0.332076
H134	H	1.587563	-0.292903	0.167924
H135	H	0.507216	-0.313251	-0.342451
H136	H	1.007216	0.186749	0.157549
Cl137	Cl	1.216408	-0.931922	-0.449679
Cl138	Cl	1.716408	-0.431922	0.050321
Cl139	Cl	1.033063	-0.933498	-0.713447
Cl140	Cl	1.533063	-0.433498	-0.213447
Cl141	Cl	0.645027	-0.210110	-0.453672
Cl142	Cl	1.145027	0.289890	0.046328
Cl143	Cl	0.645284	-0.397694	-0.713369
Cl144	Cl	1.145284	0.102306	-0.213369
H145	H	0.635198	-0.479666	-0.530880
H146	H	1.135198	0.020334	-0.030880
H147	H	0.507475	-0.374928	-0.679390
H148	H	1.007475	0.125072	-0.179390
Cl149	Cl	0.497288	-0.246771	-0.653348
Cl150	Cl	0.997288	0.253229	-0.153348
H151	H	0.507888	-0.477822	-0.537675
H152	H	1.007888	0.022178	-0.037675
Cl153	Cl	0.923817	-0.782098	-0.558343
Cl154	Cl	1.423817	-0.282098	-0.058343
H155	H	1.192399	-0.793909	-0.479166
H156	H	1.692399	-0.293909	0.020834
H157	H	0.635244	-0.278959	-0.641251
H158	H	1.135244	0.221041	-0.141251
H159	H	0.991356	-0.793960	-0.372900
H160	H	1.491356	-0.293960	0.127100
H161	H	1.165625	-0.792830	-0.616655
H162	H	1.665625	-0.292830	-0.116655
