data_functionalizedCrystal
_audit_creation_method	'MofGen! by Chris Wilmer'
_symmetry_space_group_name_H-M	'P1'
_symmetry_Int_Tables_number	1
_symmetry_cell_setting	triclinic
loop_
_symmetry_equiv_pos_as_xyz
  x,y,z
_cell_length_a	10.540539
_cell_length_b	19.288865
_cell_length_c	17.766277
_cell_angle_alpha	90.011603
_cell_angle_beta	90.007287
_cell_angle_gamma	83.830870
loop_
_atom_site_label
_atom_site_type_symbol
_atom_site_fract_x
_atom_site_fract_y
_atom_site_fract_z
O1	O	-1.683715	-0.097883	-0.062568
O2	O	-1.314096	-0.107106	-0.062579
O3	O	-1.509585	-0.001436	-0.062558
O4	O	-1.488225	-0.203554	-0.062589
O5	O	-1.509551	-0.001430	0.062630
O6	O	-1.314062	-0.107100	0.062610
O7	O	-1.683680	-0.097878	0.062620
Cu8	Cu	-1.498868	-0.102489	0.074046
Cu9	Cu	-1.498908	-0.102495	-0.074004
O10	O	-1.488191	-0.203548	0.062600
C11	C	-1.508881	0.024448	0.000038
C12	C	-1.506818	0.101566	0.000045
C13	C	-1.266791	-0.106411	0.000014
C14	C	-1.125889	-0.104342	0.000011
C15	C	-1.730985	-0.098572	0.000025
C16	C	-1.871887	-0.100641	0.000023
C17	C	-0.944230	-0.025053	0.000315
C18	C	-1.090801	-0.027151	0.000025
C19	C	-1.063408	-0.141493	-0.071480
C20	C	-0.916923	-0.138859	-0.071532
C21	C	-0.916360	-0.140423	0.070830
C22	C	-1.063326	-0.141134	0.071767
C23	C	-1.488895	-0.229432	0.000002
C24	C	-1.490958	-0.306549	-0.000010
N25	N	-1.498849	-0.102483	0.178176
C26	C	-1.621522	0.145496	0.000052
C27	C	-1.619584	0.217956	0.000040
C28	C	-1.502935	0.246482	0.000036
C29	C	-1.388215	0.202542	0.000025
C30	C	-1.390157	0.130083	0.000029
C31	C	-1.411223	0.355384	0.043884
C32	C	-1.409286	0.427841	0.043884
C33	C	-1.496941	0.469968	0.000019
C34	C	-1.586555	0.439630	-0.043837
C35	C	-1.588497	0.367172	-0.043833
C36	C	-1.500816	0.325051	0.000031
C37	C	-1.609552	0.592469	0.000012
C38	C	-1.607609	0.664930	-0.000005
C39	C	-1.376237	0.649513	-0.000012
C40	C	-1.378183	0.577054	-0.000003
C41	C	-1.494844	0.548536	0.000012
N42	N	-1.498938	-0.102495	-0.178135
C43	C	-1.585439	-0.055716	0.217572
C44	C	-1.585447	-0.055713	0.296374
C45	C	-1.498875	-0.102489	0.335777
C46	C	-1.412269	-0.149260	0.296371
C47	C	-1.412255	-0.149257	0.217571
C48	C	-1.481882	-0.165663	0.460605
C49	C	-1.481905	-0.165667	0.539404
C50	C	-1.498909	-0.102498	0.578823
C51	C	-1.515919	-0.039322	0.539434
C52	C	-1.515905	-0.039319	0.460633
C53	C	-1.498880	-0.102497	0.421222
C54	C	-1.585513	-0.055723	0.703665
C55	C	-1.585511	-0.055719	0.782468
C56	C	-1.412339	-0.149272	0.782464
C57	C	-1.412335	-0.149270	0.703662
C58	C	-1.498928	-0.102496	0.664267
H59	H	-1.134052	0.002081	0.051274
C60	C	-0.906498	0.016148	0.069579
N61	N	-0.878068	0.047183	0.121750
H62	H	-0.914713	0.005310	-0.050661
H63	H	-1.281259	0.672738	-0.000019
H64	H	-1.296748	0.094314	0.000024
C65	C	-1.680754	-0.004265	0.660328
N66	N	-1.752489	0.034495	0.627688
C67	C	-1.094379	-0.217159	0.077597
N68	N	-1.117776	-0.274423	0.081986
C69	C	-1.463182	-0.235161	0.582724
N70	N	-1.449072	-0.287506	0.615351
C71	C	-1.119414	-0.104448	0.143220
N72	N	-1.161657	-0.076809	0.197036
C73	C	-1.682980	0.485964	-0.092097
N74	N	-1.755605	0.520866	-0.128444
C75	C	-1.680683	-0.004256	0.174242
N76	N	-1.752417	0.034506	0.141605
C77	C	-1.148107	0.012609	-0.069320
N78	N	-1.191269	0.042557	-0.121555
H79	H	-0.867891	-0.196177	0.071305
H80	H	-1.468013	-0.217107	0.428516
C81	C	-1.251997	0.528728	-0.000006
N82	N	-1.156948	0.492328	-0.000012
C83	C	-1.680752	-0.004256	0.825803
N84	N	-1.752483	0.034510	0.858444
H85	H	-1.339840	0.321089	0.079609
C86	C	-1.534622	0.030171	0.582789
N87	N	-1.548710	0.082510	0.615447
H88	H	-1.661461	0.342473	-0.079543
H89	H	-1.655961	-0.017628	0.328456
H90	H	-0.885356	-0.115439	0.125020
C91	C	-1.749853	0.114131	0.000062
N92	N	-1.846513	0.090506	0.000068
H93	H	-0.889339	-0.111406	-0.124964
C94	C	-1.534598	0.030173	0.417308
N95	N	-1.548671	0.082516	0.384676
C96	C	-1.745772	0.266289	0.000052
N97	N	-1.840818	0.302692	0.000063
C98	C	-0.850445	-0.213855	-0.075943
N99	N	-0.800380	-0.270341	-0.079273
C100	C	-1.317110	-0.200728	0.825802
N101	N	-1.245381	-0.239485	0.858449
C102	C	-1.317035	-0.200711	0.339716
N103	N	-1.245297	-0.239463	0.372363
H104	H	-1.341829	-0.187356	0.671584
C105	C	-1.310710	0.461206	0.092127
N106	N	-1.236458	0.486334	0.128463
C107	C	-1.259901	0.233922	0.000026
N108	N	-1.163250	0.257557	0.000027
H109	H	-1.341741	-0.187342	0.185494
H110	H	-1.084499	-0.198181	-0.074149
H111	H	-1.704544	0.569249	0.000021
C112	C	-1.733800	0.713255	0.000007
N113	N	-1.828849	0.749654	0.000019
C114	C	-1.121729	-0.106632	-0.143350
N115	N	-1.165653	-0.080369	-0.197480
