data_functionalizedCrystal
_audit_creation_method	'MofGen! by Chris Wilmer'
_symmetry_space_group_name_H-M	'P1'
_symmetry_Int_Tables_number	1
_symmetry_cell_setting	triclinic
loop_
_symmetry_equiv_pos_as_xyz
  x,y,z
_cell_length_a	14.519709
_cell_length_b	10.489763
_cell_length_c	12.996460
_cell_angle_alpha	90.010880
_cell_angle_beta	90.000034
_cell_angle_gamma	95.885747
loop_
_atom_site_label
_atom_site_type_symbol
_atom_site_fract_x
_atom_site_fract_y
_atom_site_fract_z
O1	O	1.224790	-0.167202	-0.085444
O2	O	0.956421	-0.186892	-0.085477
O3	O	1.096701	0.008613	-0.085440
O4	O	1.084509	-0.362707	-0.085480
O5	O	1.096686	0.008624	0.085693
O6	O	0.956406	-0.186881	0.085657
O7	O	1.224775	-0.167191	0.085690
Cu8	Cu	1.090589	-0.177035	0.101299
Cu9	Cu	1.090607	-0.177048	-0.101086
O10	O	1.084495	-0.362696	0.085653
C11	C	0.922049	-0.185969	0.000086
C12	C	0.819652	-0.183219	0.000075
C13	C	1.095769	0.056140	0.000129
C14	C	1.093001	0.197739	0.000137
N15	N	1.090584	-0.177025	0.243646
C16	C	0.444701	-0.173096	0.000122
C17	C	0.549024	-0.175907	0.000109
C18	C	0.632173	-0.178157	0.000098
C19	C	0.736503	-0.180969	0.000086
C20	C	1.259147	-0.168114	0.000125
C21	C	1.361543	-0.170864	0.000129
C22	C	1.003733	0.264948	0.000124
C23	C	1.045888	0.357514	0.084513
C24	C	1.045923	0.357478	-0.084211
C25	C	1.135192	0.288440	0.084596
C26	C	1.135215	0.288395	-0.084204
C27	C	1.177434	0.380934	0.000205
C28	C	1.085413	0.589775	0.000099
C29	C	1.088137	0.448168	0.000138
N30	N	1.090620	-0.177048	-0.243433
C31	C	1.090605	-0.177049	0.663461
C32	C	1.090597	-0.177047	0.546656
C33	C	1.090595	-0.177038	0.453557
C34	C	1.090585	-0.177034	0.336745
H35	H	0.930344	0.214532	0.000197
O36	O	1.000735	0.394194	0.169504
C37	C	0.923420	0.456186	0.139210
H38	H	0.934763	0.495471	0.057912
H39	H	0.914268	0.538420	0.194405
H40	H	0.858710	0.384797	0.140817
O41	O	1.180294	0.252008	0.169692
C42	C	1.258143	0.191039	0.139590
H43	H	1.247317	0.151947	0.058157
H44	H	1.267580	0.108784	0.194640
H45	H	1.322481	0.263082	0.141633
O46	O	1.265078	0.440765	0.000453
C47	C	1.311781	0.405543	0.089523
H48	H	1.259051	0.372400	0.151414
H49	H	1.358793	0.491526	0.118983
H50	H	1.355265	0.324226	0.070198
H51	H	1.172960	0.257739	-0.155541
H52	H	1.008147	0.388044	-0.155555
