data_functionalizedCrystal
_audit_creation_method	'MofGen! by Chris Wilmer'
_symmetry_space_group_name_H-M	'P1'
_symmetry_Int_Tables_number	1
_symmetry_cell_setting	triclinic
loop_
_symmetry_equiv_pos_as_xyz
  x,y,z
_cell_length_a	16.120490
_cell_length_b	12.645324
_cell_length_c	12.645329
_cell_angle_alpha	89.966856
_cell_angle_beta	87.110494
_cell_angle_gamma	87.081222
loop_
_atom_site_label
_atom_site_type_symbol
_atom_site_fract_x
_atom_site_fract_y
_atom_site_fract_z
Zn1	Zn	1.274619	-0.681480	-0.504331
Zn2	Zn	1.274524	-0.504209	-0.681635
Zn3	Zn	1.135192	-0.495250	-0.495381
Zn4	Zn	1.135178	-0.672455	-0.672542
O5	O	1.204878	-0.588349	-0.588472
O6	O	1.391273	-0.665491	-0.535402
O7	O	1.256008	-0.354671	-0.656987
O8	O	1.153733	-0.519980	-0.348224
O9	O	1.391204	-0.535251	-0.665666
O10	O	1.256169	-0.656803	-0.354800
O11	O	1.153642	-0.348089	-0.520148
O12	O	1.018523	-0.511230	-0.511331
O13	O	1.153709	-0.822002	-0.650169
O14	O	1.018513	-0.641422	-0.641490
O15	O	1.256155	-0.828632	-0.526585
O16	O	1.255994	-0.526501	-0.828773
O17	O	1.153617	-0.650110	-0.822092
C18	C	0.988268	-0.574375	-0.574454
C19	C	0.895601	-0.568423	-0.568482
C20	C	0.684665	-0.619228	-0.619441
C21	C	0.725942	-0.557553	-0.557589
C22	C	0.820349	-0.563603	-0.563651
C23	C	0.590250	-0.613179	-0.613379
C24	C	1.204941	-0.864858	-0.588361
C25	C	1.204967	-0.982690	-0.588314
C26	C	1.269667	-1.154441	-0.510821
C27	C	1.269460	-1.031868	-0.510513
C28	C	1.117136	-1.021515	-0.552280
C29	C	1.117528	-1.144139	-0.551685
C30	C	1.227387	-1.151328	-0.701914
C31	C	1.229308	-1.028846	-0.701474
C32	C	1.422335	-0.602377	-0.602547
C33	C	1.515002	-0.608355	-0.608544
C34	C	1.204816	-0.588323	-0.863898
C35	C	1.204866	-0.588353	-0.981731
C36	C	1.204864	-0.312918	-0.588510
C37	C	1.204999	-0.195097	-0.588269
C38	C	1.140431	-0.666066	-1.022453
C39	C	1.140698	-0.666438	-1.145030
C40	C	1.292888	-0.624125	-1.155183
C41	C	1.292438	-0.624657	-1.032556
C42	C	1.182210	-0.474792	-1.025571
C43	C	1.180349	-0.475304	-1.148059
C44	C	1.204963	-0.588399	-0.311973
C45	C	1.204999	-0.588420	-0.194145
H46	H	0.720227	-0.676567	-0.676944
H47	H	1.334589	-1.005989	-0.533733
H48	H	1.115668	-0.448474	-1.173072
C49	C	1.097047	-0.432268	-0.978457
C50	C	1.090417	-0.329156	-0.913165
C51	C	1.005250	-0.286645	-0.866052
C52	C	0.926712	-0.347246	-0.884232
C53	C	0.933339	-0.450365	-0.949528
C54	C	1.018506	-0.492875	-0.996641
H55	H	1.148558	-0.284290	-0.899704
H56	H	1.000345	-0.210310	-0.817716
H57	H	0.863666	-0.315777	-0.849357
H58	H	0.875198	-0.495231	-0.962989
H59	H	1.023411	-0.569210	-1.044977
C60	C	1.357945	-1.199975	-0.541875
C61	C	1.397955	-1.176732	-0.652043
C62	C	1.486234	-1.222276	-0.683101
C63	C	1.534503	-1.291064	-0.603991
C64	C	1.494494	-1.314310	-0.493816
C65	C	1.406214	-1.268766	-0.462758
H66	H	1.362223	-1.125808	-0.710612
H67	H	1.515852	-1.205068	-0.764661
H68	H	1.599853	-1.324779	-0.626982
H69	H	1.530226	-1.365234	-0.435247
H70	H	1.376597	-1.285974	-0.381199
C71	C	1.249937	-1.194861	-0.397891
C72	C	1.175423	-1.264551	-0.375769
C73	C	1.155706	-1.305001	-0.262847
C74	C	1.210504	-1.275761	-0.172048
C75	C	1.285023	-1.206067	-0.194168
C76	C	1.304739	-1.165617	-0.307089
H77	H	1.134854	-1.286199	-0.442986
H78	H	1.100542	-1.356592	-0.246473
H79	H	1.195908	-1.305704	-0.088457
H80	H	1.325591	-1.184419	-0.126950
H81	H	1.359904	-1.114026	-0.323463
H82	H	1.254637	-1.001602	-0.426440
C83	C	1.091895	-1.181150	-0.439232
C84	C	1.014142	-1.245916	-0.420712
C85	C	0.988510	-1.282920	-0.308255
C86	C	1.040631	-1.255158	-0.214318
C87	C	1.118389	-1.190388	-0.232835
C88	C	1.144021	-1.153384	-0.345292
H89	H	0.975554	-1.266471	-0.490252
H90	H	0.930948	-1.330867	-0.294548
H91	H	1.021657	-1.282550	-0.131071
H92	H	1.156977	-1.169833	-0.163295
H93	H	1.201583	-1.105436	-0.358999
H94	H	0.690379	-0.500208	-0.500082
H95	H	1.293945	-1.003935	-0.728543
C96	C	1.319300	-0.735329	-1.198236
C97	C	1.337089	-0.826915	-1.120966
C98	C	1.363496	-0.938121	-1.164016
C99	C	1.372112	-0.957740	-1.284336
C100	C	1.354322	-0.866151	-1.361614
C101	C	1.327916	-0.754945	-1.318564
H102	H	1.330711	-0.812395	-1.031891
H103	H	1.376665	-1.005921	-1.106810
H104	H	1.391659	-1.040061	-1.316205
H105	H	1.360700	-0.880671	-1.450689
H106	H	1.314746	-0.687145	-1.375771
H107	H	1.067705	-1.170578	-0.605332
H108	H	1.067641	-0.989161	-0.606708
H109	H	1.097810	-0.989578	-0.469930
H110	H	1.180289	-1.177288	-0.759692
C111	C	1.312433	-1.198577	-0.744709
C112	C	1.362643	-1.277522	-0.677000
C113	C	1.447693	-1.324771	-0.719782
C114	C	1.482534	-1.293075	-0.830272
C115	C	1.432324	-1.214125	-0.897987
C116	C	1.347274	-1.166876	-0.855206
H117	H	1.336852	-1.300990	-0.595203
H118	H	1.484862	-1.383215	-0.669653
H119	H	1.545493	-1.328052	-0.861941
H120	H	1.458115	-1.190658	-0.979785
H121	H	1.310105	-1.108432	-0.905334
H122	H	1.185631	-0.995381	-0.762743
H123	H	1.075534	-0.643463	-1.171009
H124	H	1.075023	-0.643281	-0.988855
H125	H	1.155264	-0.749613	-0.992523
H126	H	1.155778	-0.750481	-1.175249
H127	H	1.311616	-0.707830	-1.005111
H128	H	1.342099	-0.570808	-1.006064
H129	H	1.342247	-0.569529	-1.187487
H130	H	1.223871	-0.413885	-1.181492
H131	H	1.229136	-0.416823	-0.999564
