data_functionalizedCrystal
_audit_creation_method	'MofGen! by Chris Wilmer'
_symmetry_space_group_name_H-M	'P1'
_symmetry_Int_Tables_number	1
_symmetry_cell_setting	triclinic
loop_
_symmetry_equiv_pos_as_xyz
  x,y,z
_cell_length_a	21.395362
_cell_length_b	25.639239
_cell_length_c	21.395355
_cell_angle_alpha	90.019334
_cell_angle_beta	90.043940
_cell_angle_gamma	90.054564
loop_
_atom_site_label
_atom_site_type_symbol
_atom_site_fract_x
_atom_site_fract_y
_atom_site_fract_z
Zn1	Zn	0.957825	-0.207990	0.354582
Zn2	Zn	1.291158	0.125344	0.687915
Zn3	Zn	1.624491	0.458677	1.021249
Zn4	Zn	0.957713	-0.295409	0.249803
Zn5	Zn	1.291046	0.037924	0.583136
Zn6	Zn	1.624379	0.371257	0.916470
Zn7	Zn	0.853040	-0.208014	0.249783
Zn8	Zn	1.186373	0.125319	0.583117
Zn9	Zn	1.519706	0.458653	0.916450
Zn10	Zn	0.852994	-0.295420	0.354508
Zn11	Zn	1.186328	0.037913	0.687841
Zn12	Zn	1.519661	0.371246	1.021174
O13	O	0.905393	-0.251708	0.302169
O14	O	1.238726	0.081625	0.635502
O15	O	1.572060	0.414958	0.968836
O16	O	1.045488	-0.219571	0.340722
O17	O	1.378821	0.113762	0.674056
O18	O	1.712154	0.447095	1.007389
O19	O	0.943800	-0.283822	0.162122
O20	O	1.277133	0.049511	0.495456
O21	O	1.610466	0.382845	0.828789
O22	O	0.867006	-0.134846	0.263708
O23	O	1.200339	0.198488	0.597041
O24	O	1.533672	0.531821	0.930375
O25	O	1.045405	-0.283798	0.263742
O26	O	1.378739	0.049535	0.597075
O27	O	1.712072	0.382868	0.930408
O28	O	0.943991	-0.134828	0.340703
O29	O	1.277324	0.198506	0.674036
O30	O	1.610657	0.531839	1.007370
O31	O	0.866897	-0.219613	0.162108
O32	O	1.200230	0.113720	0.495441
O33	O	1.533564	0.447054	0.828775
O34	O	0.765356	-0.219623	0.263636
O35	O	1.098689	0.113710	0.596969
O36	O	1.432022	0.447043	0.930303
O37	O	0.866928	-0.283817	0.442196
O38	O	1.200262	0.049517	0.775529
O39	O	1.533595	0.382850	1.108862
O40	O	0.765322	-0.283840	0.340576
O41	O	1.098656	0.049493	0.673910
O42	O	1.431989	0.382826	1.007243
O43	O	0.943947	-0.219582	0.442250
O44	O	1.277280	0.113751	0.775583
O45	O	1.610613	0.447085	1.108917
O46	O	0.943756	-0.368576	0.263669
O47	O	1.277089	-0.035243	0.597003
O48	O	1.610422	0.298091	0.930336
O49	O	0.866820	-0.368584	0.340596
O50	O	1.200153	-0.035251	0.673929
O51	O	1.533486	0.298083	1.007262
C52	C	0.742605	-0.251736	0.302096
C53	C	1.075939	0.081597	0.635430
C54	C	1.409272	0.414931	0.968763
C55	C	0.672964	-0.251760	0.302080
C56	C	1.006297	0.081573	0.635413
C57	C	1.339631	0.414906	0.968747
C58	C	0.640250	-0.285243	0.342083
C59	C	0.973583	0.048091	0.675416
C60	C	1.306916	0.381424	1.008750
C61	C	0.574814	-0.285230	0.342111
C62	C	0.908148	0.048104	0.675444
C63	C	1.241481	0.381437	1.008778
C64	C	0.542096	-0.251740	0.302125
C65	C	0.875429	0.081593	0.635458
C66	C	1.208762	0.414926	0.968791
C67	C	0.574818	-0.218252	0.262119
C68	C	0.908151	0.115082	0.595452
C69	C	1.241484	0.448415	0.928786
C70	C	0.640252	-0.218262	0.262097
C71	C	0.973585	0.115071	0.595430
C72	C	1.306918	0.448405	0.928763
C73	C	0.438372	-0.247528	0.245720
C74	C	0.771705	0.085805	0.579053
C75	C	1.105038	0.419138	0.912386
C76	C	0.372939	-0.247522	0.245741
C77	C	0.706272	0.085811	0.579074
C78	C	1.039605	0.419145	0.912407
C79	C	0.340275	-0.251706	0.302194
C80	C	0.673608	0.081627	0.635527
C81	C	1.006942	0.414960	0.968861
C82	C	0.373052	-0.255908	0.358627
C83	C	0.706386	0.077425	0.691961
C84	C	1.039719	0.410759	1.025294
C85	C	0.438486	-0.255918	0.358605
C86	C	0.771820	0.077415	0.691938
C87	C	1.105153	0.410749	1.025272
C88	C	0.471143	-0.251725	0.302145
C89	C	0.804477	0.081608	0.635478
C90	C	1.137810	0.414941	0.968811
C91	C	0.236608	-0.285176	0.342231
C92	C	0.569942	0.048157	0.675564
C93	C	0.903275	0.381490	1.008897
C94	C	0.171172	-0.285160	0.342260
C95	C	0.504505	0.048174	0.675593
C96	C	0.837838	0.381507	1.008926
C97	C	0.171176	-0.218185	0.262262
C98	C	0.504510	0.115149	0.595595
C99	C	0.837843	0.448482	0.928929
C100	C	0.236612	-0.218198	0.262239
C101	C	0.569945	0.115135	0.595572
C102	C	0.903278	0.448468	0.928905
C103	C	0.269324	-0.251697	0.302222
C104	C	0.602657	0.081636	0.635555
C105	C	0.935990	0.414970	0.968889
C106	C	0.905288	-0.387551	0.302140
C107	C	1.238621	-0.054218	0.635474
C108	C	1.571954	0.279116	0.968807
C109	C	0.905300	-0.445665	0.302149
C110	C	1.238633	-0.112332	0.635482
C111	C	1.571966	0.221002	0.968816
C112	C	0.945558	-0.806011	0.262182
C113	C	1.278891	-0.472678	0.595515
C114	C	1.612225	-0.139345	0.928849
C115	C	0.945582	-0.860616	0.262190
C116	C	1.278916	-0.527282	0.595524
C117	C	1.612249	-0.193949	0.928857
O118	O	0.979702	-0.888838	0.228177
O119	O	1.313035	-0.555505	0.561511
O120	O	1.646369	-0.222171	0.894844
N121	N	0.905503	-0.887947	0.302211
N122	N	1.238836	-0.554614	0.635544
N123	N	1.572170	-0.221281	0.968877
C124	C	0.865401	-0.860672	0.342230
C125	C	1.198735	-0.527339	0.675563
C126	C	1.532068	-0.194005	1.008896
O127	O	0.831313	-0.888934	0.376271
O128	O	1.164647	-0.555601	0.709604
O129	O	1.497980	-0.222267	1.042938
C130	C	0.865381	-0.806069	0.342224
C131	C	1.198714	-0.472735	0.675557
C132	C	1.532047	-0.139402	1.008891
C133	C	0.905458	-0.778740	0.302196
C134	C	1.238791	-0.445406	0.635530
C135	C	1.572125	-0.112073	0.968863
C136	C	0.985633	-0.778682	0.222158
C137	C	1.318966	-0.445349	0.555492
C138	C	1.652299	-0.112016	0.888825
C139	C	0.985608	-0.724082	0.222149
C140	C	1.318941	-0.390748	0.555483
C141	C	1.652274	-0.057415	0.888816
C142	C	0.945508	-0.696810	0.262164
C143	C	1.278841	-0.363477	0.595497
C144	C	1.612174	-0.030144	0.928830
C145	C	0.905433	-0.724139	0.302187
C146	C	1.238766	-0.390806	0.635521
C147	C	1.572099	-0.057473	0.968854
C148	C	0.825282	-0.778794	0.382246
C149	C	1.158616	-0.445461	0.715579
C150	C	1.491949	-0.112128	1.048912
C151	C	0.825266	-0.724187	0.382237
C152	C	1.158599	-0.390854	0.715570
C153	C	1.491932	-0.057521	1.048903
C154	C	0.865343	-0.696858	0.342209
C155	C	1.198676	-0.363525	0.675543
C156	C	1.532010	-0.030192	1.008876
C157	C	0.865308	-0.642267	0.342193
C158	C	1.198641	-0.308934	0.675526
C159	C	1.531974	0.024399	1.008860
N160	N	0.905387	-0.614935	0.302173
N161	N	1.238720	-0.281602	0.635506
N162	N	1.572054	0.051731	0.968839
C163	C	0.945487	-0.642207	0.262158
C164	C	1.278820	-0.308874	0.595491
C165	C	1.612154	0.024460	0.928825
C166	C	0.865448	-0.975343	0.342239
C167	C	1.198782	-0.642009	0.675573
C168	C	1.532115	-0.308676	1.008906
C169	C	0.865465	-1.029945	0.342242
C170	C	1.198799	-0.696612	0.675576
C171	C	1.532132	-0.363278	1.008909
C172	C	0.945648	-1.029885	0.262204
C173	C	1.278981	-0.696551	0.595537
C174	C	1.612314	-0.363218	0.928870
C175	C	0.945627	-0.975281	0.262198
C176	C	1.278960	-0.641948	0.595531
C177	C	1.612294	-0.308615	0.928865
C178	C	0.905528	-0.948011	0.302219
C179	C	1.238861	-0.614678	0.635552
C180	C	1.572194	-0.281344	0.968886
C181	C	0.945430	-0.527542	0.262142
C182	C	1.278764	-0.194209	0.595475
C183	C	1.612097	0.139125	0.928808
C184	C	0.945400	-0.472937	0.262134
C185	C	1.278733	-0.139603	0.595468
C186	C	1.612066	0.193730	0.928801
C187	C	0.865220	-0.473002	0.342175
C188	C	1.198554	-0.139668	0.675508
C189	C	1.531887	0.193665	1.008842
C190	C	0.865248	-0.527602	0.342180
C191	C	1.198582	-0.194269	0.675514
C192	C	1.531915	0.139065	1.008847
C193	C	0.905358	-0.554871	0.302162
C194	C	1.238692	-0.221538	0.635495
C195	C	1.572025	0.111796	0.968828
O196	O	0.831207	-0.614010	0.376190
O197	O	1.164540	-0.280677	0.709524
O198	O	1.497874	0.052657	1.042857
O199	O	0.979575	-0.613939	0.228128
O200	O	1.312908	-0.280605	0.561461
O201	O	1.646242	0.052728	0.894795
C202	C	1.068816	-0.251681	0.302242
C203	C	1.402150	0.081652	0.635576
C204	C	1.735483	0.414986	0.968909
C205	C	1.138458	-0.251669	0.302274
C206	C	1.471791	0.081664	0.635607
C207	C	1.805124	0.414997	0.968940
C208	C	0.905445	-0.251698	0.465592
C209	C	1.238778	0.081636	0.798926
C210	C	1.572112	0.414969	1.132259
C211	C	0.905467	-0.251693	0.535234
C212	C	1.238800	0.081640	0.868567
C213	C	1.572134	0.414973	1.201900
C214	C	0.905516	-0.115335	0.302212
C215	C	1.238849	0.217998	0.635545
C216	C	1.572182	0.551331	0.968878
C217	C	0.905568	-0.057221	0.302230
C218	C	1.238901	0.276112	0.635563
C219	C	1.572235	0.609445	0.968896
C220	C	0.905377	-0.251681	0.139381
C221	C	1.238710	0.081652	0.472715
C222	C	1.572044	0.414985	0.806048
C223	C	0.905476	-0.251538	0.069741
C224	C	1.238810	0.081795	0.403074
C225	C	1.572143	0.415128	0.736407
C226	C	0.945569	-0.218245	0.567976
C227	C	1.278902	0.115089	0.901310
C228	C	1.612236	0.448422	1.234643
C229	C	0.945568	-0.218222	0.633412
C230	C	1.278901	0.115111	0.966745
C231	C	1.612235	0.448444	1.300078
C232	C	0.905472	-0.251658	0.666102
C233	C	1.238805	0.081676	0.999435
C234	C	1.572139	0.415009	1.332769
C235	C	0.865362	-0.285108	0.633352
C236	C	1.198696	0.048225	0.966685
C237	C	1.532029	0.381558	1.300018
C238	C	0.865360	-0.285126	0.567917
C239	C	1.198693	0.048207	0.901251
C240	C	1.532027	0.381540	1.234584
C241	C	0.900488	-0.298736	0.769765
C242	C	1.233821	0.034597	1.103098
C243	C	1.567155	0.367931	1.436432
C244	C	0.900495	-0.298719	0.835198
C245	C	1.233828	0.034614	1.168531
C246	C	1.567162	0.367947	1.501865
C247	C	0.905476	-0.251602	0.867923
C248	C	1.238809	0.081731	1.201256
C249	C	1.572143	0.415064	1.534590
C250	C	0.910463	-0.204501	0.835207
C251	C	1.243796	0.128832	1.168540
C252	C	1.577130	0.462166	1.501873
C253	C	0.910461	-0.204519	0.769773
C254	C	1.243794	0.128814	1.103106
C255	C	1.577127	0.462148	1.436439
C256	C	0.905470	-0.251642	0.737054
C257	C	1.238803	0.081691	1.070388
C258	C	1.572137	0.415025	1.403721
C259	C	0.945579	-0.218127	0.971618
C260	C	1.278912	0.115207	1.304951
C261	C	1.612246	0.448540	1.638285
C262	C	0.945574	-0.218103	1.037055
C263	C	1.278907	0.115230	1.370388
C264	C	1.612240	0.448563	1.703721
C265	C	0.865371	-0.284994	1.036993
C266	C	1.198705	0.048339	1.370327
C267	C	1.532038	0.381672	1.703660
C268	C	0.865373	-0.285013	0.971558
C269	C	1.198707	0.048320	1.304891
C270	C	1.532040	0.381654	1.638225
C271	C	0.905480	-0.251580	0.938874
C272	C	1.238814	0.081753	1.272208
C273	C	1.572147	0.415087	1.605541
H274	H	0.464961	-0.244119	0.199746
H275	H	0.798294	0.089215	0.533079
H276	H	1.131628	0.422548	0.866412
C277	C	1.029747	-0.808672	0.178132
C278	C	1.363080	-0.475339	0.511465
C279	C	1.696413	-0.142006	0.844798
N280	N	1.062972	-0.831257	0.144964
N281	N	1.396305	-0.497924	0.478297
N282	N	1.729638	-0.164591	0.811630
H283	H	0.832616	-0.549855	0.374776
H284	H	1.165949	-0.216521	0.708109
H285	H	1.499283	0.116812	1.041442
H286	H	0.978036	-0.450687	0.229537
H287	H	1.311369	-0.117354	0.562870
H288	H	1.644702	0.215980	0.896204
H289	H	0.666880	-0.312519	0.374642
H290	H	1.000213	0.020814	0.707975
H291	H	1.333547	0.354148	1.041308
H292	H	0.548174	-0.190984	0.229563
H293	H	0.881507	0.142350	0.562896
H294	H	1.214840	0.475683	0.896230
C295	C	0.821265	-0.321774	1.072949
C296	C	1.154599	0.011559	1.406282
C297	C	1.487932	0.344893	1.739616
N298	N	0.788043	-0.349477	1.100034
N299	N	1.121377	-0.016144	1.433367
N300	N	1.454710	0.317189	1.766701
C301	C	0.272594	-0.322019	0.386220
C302	C	0.605927	0.011314	0.719553
C303	C	0.939261	0.344648	1.052886
N304	N	0.299696	-0.349768	0.419354
N305	N	0.633030	-0.016435	0.752688
N306	N	0.966363	0.316899	1.086021
C307	C	0.676238	-0.181430	0.218085
C308	C	1.009572	0.151903	0.551418
C309	C	1.342905	0.485237	0.884752
N310	N	0.703344	-0.153689	0.184933
N311	N	1.036678	0.179644	0.518266
N312	N	1.370011	0.512978	0.851600
C313	C	0.821371	-1.060001	0.386269
C314	C	1.154704	-0.726667	0.719603
C315	C	1.488038	-0.393334	1.052936
N316	N	0.788160	-1.082637	0.419435
N317	N	1.121493	-0.749303	0.752768
N318	N	1.454827	-0.415970	1.086102
H319	H	0.978093	-0.549738	0.229556
H320	H	1.311427	-0.216404	0.562889
H321	H	1.644760	0.116929	0.896223
C322	C	0.895009	-0.350531	0.871180
C323	C	1.228342	-0.017198	1.204513
C324	C	1.561675	0.316136	1.537846
N325	N	0.890875	-0.389557	0.898279
N326	N	1.224208	-0.056224	1.231613
N327	N	1.557541	0.277109	1.564946
H328	H	0.144537	-0.312424	0.374839
H329	H	0.477870	0.020910	0.708172
H330	H	0.811204	0.354243	1.041505
C331	C	0.821244	-0.321925	0.531900
C332	C	1.154578	0.011408	0.865233
C333	C	1.487911	0.344742	1.198566
N334	N	0.788017	-0.349643	0.504770
N335	N	1.121350	-0.016310	0.838103
N336	N	1.454683	0.317023	1.171437
C337	C	1.029691	-0.694027	0.178110
C338	C	1.363025	-0.360694	0.511444
C339	C	1.696358	-0.027360	0.844777
N340	N	1.062896	-0.671393	0.144936
N341	N	1.396229	-0.338060	0.478270
N342	N	1.729563	-0.004727	0.811603
H343	H	0.792613	-0.701986	0.414829
H344	H	1.125946	-0.368653	0.748162
H345	H	1.459279	-0.035320	1.081495
H346	H	0.832569	-0.450789	0.374753
H347	H	1.165903	-0.117455	0.708086
H348	H	1.499236	0.215878	1.041419
C349	C	0.474539	-0.260539	0.420681
C350	C	0.807872	0.072794	0.754014
C351	C	1.141206	0.406127	1.087347
N352	N	0.501694	-0.264019	0.467437
N353	N	0.835027	0.069314	0.800770
N354	N	1.168360	0.402648	1.134104
H355	H	0.914520	-0.166134	0.861850
H356	H	1.247853	0.167199	1.195183
H357	H	1.581187	0.500532	1.528516
H358	H	0.978262	-0.953033	0.229605
H359	H	1.311595	-0.619700	0.562938
H360	H	1.644928	-0.286367	0.896271
C361	C	0.989764	-1.059894	0.218191
C362	C	1.323097	-0.726561	0.551525
C363	C	1.656430	-0.393227	0.884858
N364	N	1.022991	-1.082498	0.185044
N365	N	1.356324	-0.749165	0.518378
N366	N	1.689657	-0.415832	0.851711
C367	C	0.989691	-0.181345	0.935664
C368	C	1.323025	0.151988	1.268997
C369	C	1.656358	0.485321	1.602330
N370	N	1.022917	-0.153641	0.908585
N371	N	1.356250	0.179693	1.241918
N372	N	1.689583	0.513026	1.575251
H373	H	0.978227	-0.191020	0.541369
H374	H	1.311560	0.142313	0.874702
H375	H	1.644893	0.475646	1.208036
H376	H	0.832790	-0.953142	0.374827
H377	H	1.166123	-0.619808	0.708161
H378	H	1.499456	-0.286475	1.041494
H379	H	0.263248	-0.190936	0.229661
H380	H	0.596581	0.142397	0.562994
H381	H	0.929914	0.475731	0.896327
H382	H	0.978222	-0.190982	0.660076
H383	H	1.311556	0.142352	0.993409
H384	H	1.644889	0.475685	1.326743
C385	C	0.781195	-0.808844	0.426282
C386	C	1.114528	-0.475511	0.759615
C387	C	1.447862	-0.142177	1.092948
N388	N	0.747987	-0.831477	0.459453
N389	N	1.081320	-0.498143	0.792787
N390	N	1.414653	-0.164810	1.126120
H391	H	0.978228	-0.190863	1.063713
H392	H	1.311562	0.142471	1.397046
H393	H	1.644895	0.475804	1.730379
H394	H	0.914520	-0.166167	0.743138
H395	H	1.247853	0.167166	1.076471
H396	H	1.581186	0.500499	1.409804
H397	H	0.548173	-0.312495	0.374689
H398	H	0.881507	0.020839	0.708022
H399	H	1.214840	0.354172	1.041355
H400	H	0.346256	-0.244104	0.199789
H401	H	0.679590	0.089229	0.533122
H402	H	1.012923	0.422563	0.866456
C403	C	0.821260	-0.321812	0.935540
C404	C	1.154593	0.011522	1.268873
C405	C	1.487927	0.344855	1.602206
N406	N	0.788030	-0.349529	0.908411
N407	N	1.121364	-0.016195	1.241744
N408	N	1.454697	0.317138	1.575078
C409	C	0.821254	-0.321885	0.669312
C410	C	1.154587	0.011448	1.002646
C411	C	1.487920	0.344782	1.335979
N412	N	0.788027	-0.349584	0.696398
N413	N	1.121361	-0.016251	1.029731
N414	N	1.454694	0.317082	1.363065
C415	C	0.337127	-0.260509	0.420731
C416	C	0.670461	0.072824	0.754065
C417	C	1.003794	0.406158	1.087398
N418	N	0.310066	-0.263975	0.467506
N419	N	0.643399	0.069359	0.800840
N420	N	0.976732	0.402692	1.134173
C421	C	0.135189	-0.181345	0.218277
C422	C	0.468523	0.151988	0.551610
C423	C	0.801856	0.485321	0.884943
N424	N	0.108081	-0.153596	0.185147
N425	N	0.441414	0.179737	0.518480
N426	N	0.774748	0.513070	0.851813
C427	C	0.895021	-0.350573	0.733774
C428	C	1.228354	-0.017239	1.067108
C429	C	1.561687	0.316094	1.400441
N430	N	0.890907	-0.389615	0.706667
N431	N	1.224240	-0.056282	1.040000
N432	N	1.557574	0.277052	1.373334
