data_functionalizedCrystal
_audit_creation_method	'MofGen! by Chris Wilmer'
_symmetry_space_group_name_H-M	'P1'
_symmetry_Int_Tables_number	1
_symmetry_cell_setting	triclinic
loop_
_symmetry_equiv_pos_as_xyz
  x,y,z
_cell_length_a	17.077404
_cell_length_b	11.169416
_cell_length_c	17.077396
_cell_angle_alpha	89.976843
_cell_angle_beta	89.980499
_cell_angle_gamma	90.010374
loop_
_atom_site_label
_atom_site_type_symbol
_atom_site_fract_x
_atom_site_fract_y
_atom_site_fract_z
Zn1	Zn	1.200124	-0.477800	-0.443872
Zn2	Zn	1.700124	0.022200	0.056128
Zn3	Zn	1.200060	-0.678512	-0.312618
Zn4	Zn	1.700060	-0.178512	0.187382
Zn5	Zn	1.068856	-0.477842	-0.312620
Zn6	Zn	1.568856	0.022158	0.187380
Zn7	Zn	1.068853	-0.678440	-0.443842
Zn8	Zn	1.568853	-0.178440	0.056158
O9	O	1.134473	-0.578149	-0.378238
O10	O	1.634473	-0.078149	0.121762
O11	O	1.309963	-0.504437	-0.426473
O12	O	1.809963	-0.004437	0.073527
O13	O	1.182630	-0.651940	-0.202771
O14	O	1.682630	-0.151940	0.297229
O15	O	1.086297	-0.309887	-0.330044
O16	O	1.586297	0.190113	0.169956
O17	O	1.309916	-0.651899	-0.330041
O18	O	1.809916	-0.151899	0.169959
O19	O	1.182739	-0.309856	-0.426474
O20	O	1.682739	0.190144	0.073526
O21	O	1.086235	-0.504509	-0.202773
O22	O	1.586235	-0.004509	0.297227
O23	O	0.959009	-0.504440	-0.330015
O24	O	1.459009	-0.004440	0.169985
O25	O	1.086292	-0.651778	-0.553693
O26	O	1.586292	-0.151778	-0.053693
O27	O	0.959007	-0.651818	-0.426423
O28	O	1.459007	-0.151818	0.073577
O29	O	1.182736	-0.504368	-0.553715
O30	O	1.682736	-0.004368	-0.053715
O31	O	1.182628	-0.846452	-0.330012
O32	O	1.682628	-0.346452	0.169988
O33	O	1.086230	-0.846400	-0.426421
O34	O	1.586230	-0.346400	0.073579
C35	C	0.930526	-0.578127	-0.378216
C36	C	1.430526	-0.078127	0.121784
C37	C	0.843276	-0.578146	-0.378225
C38	C	1.343276	-0.078146	0.121775
C39	C	0.802305	-0.655002	-0.428345
C40	C	1.302305	-0.155002	0.071655
C41	C	0.720325	-0.655005	-0.428357
C42	C	1.220325	-0.155005	0.071643
C43	C	0.679316	-0.578157	-0.378246
C44	C	1.179316	-0.078157	0.121754
C45	C	0.720293	-0.501292	-0.328125
C46	C	1.220293	-0.001292	0.171875
C47	C	0.802272	-0.501285	-0.328117
C48	C	1.302272	-0.001285	0.171883
C49	C	0.549423	-0.501316	-0.328143
C50	C	1.049423	-0.001316	0.171857
C51	C	0.467438	-0.501325	-0.328150
C52	C	0.967438	-0.001325	0.171850
C53	C	0.467476	-0.655036	-0.428384
C54	C	0.967476	-0.155036	0.071616
C55	C	0.549455	-0.655029	-0.428376
C56	C	1.049455	-0.155029	0.071624
C57	C	0.590425	-0.578165	-0.378253
C58	C	1.090425	-0.078165	0.121747
C59	C	1.134443	-0.889973	-0.378230
C60	C	1.634443	-0.389973	0.121770
C61	C	1.134502	-1.023373	-0.378253
C62	C	1.634502	-0.523373	0.121747
C63	C	1.339218	-0.578171	-0.378260
C64	C	1.839218	-0.078171	0.121740
C65	C	1.426467	-0.578181	-0.378269
C66	C	1.926467	-0.078181	0.121731
C67	C	1.134521	-0.578060	-0.582982
C68	C	1.634521	-0.078060	-0.082982
C69	C	1.134541	-0.578022	-0.670232
C70	C	1.634541	-0.078022	-0.170232
C71	C	1.134525	-0.265106	-0.378263
C72	C	1.634525	0.234894	0.121737
C73	C	1.134547	-0.131706	-0.378273
C74	C	1.634547	0.368294	0.121727
C75	C	1.184761	-0.501260	-0.711235
C76	C	1.684761	-0.001260	-0.211235
C77	C	1.184771	-0.501220	-0.793215
C78	C	1.684771	-0.001220	-0.293215
C79	C	1.134563	-0.577949	-0.834191
C80	C	1.634563	-0.077949	-0.334191
C81	C	1.084337	-0.654715	-0.793183
C82	C	1.584337	-0.154715	-0.293183
C83	C	1.084325	-0.654748	-0.711204
C84	C	1.584325	-0.154748	-0.211204
C85	C	1.084369	-0.654643	-0.964053
C86	C	1.584369	-0.154643	-0.464053
C87	C	1.084383	-0.654612	-1.046038
C88	C	1.584383	-0.154612	-0.546038
C89	C	1.184815	-0.501115	-1.046065
C90	C	1.684815	-0.001115	-0.546065
C91	C	1.184802	-0.501148	-0.964086
C92	C	1.684802	-0.001148	-0.464086
C93	C	1.134577	-0.577916	-0.923083
C94	C	1.634577	-0.077916	-0.423083
C95	C	1.134471	-0.578150	-0.174290
C96	C	1.634471	-0.078150	0.325710
C97	C	1.134603	-0.577850	-0.087041
C98	C	1.634603	-0.077850	0.412959
H99	H	0.582779	-0.438715	-0.287335
H100	H	1.082779	0.061285	0.212665
H101	H	0.434113	-0.717618	-0.469198
H102	H	0.934113	-0.217618	0.030802
H103	H	1.043498	-0.717090	-1.079398
H104	H	1.543498	-0.217090	-0.579398
C105	C	0.847407	-0.739543	-0.483472
C106	C	1.347407	-0.239543	0.016528
N107	N	0.881375	-0.803219	-0.524997
N108	N	1.381375	-0.303219	-0.024997
C109	C	1.029101	-0.739107	-0.838259
C110	C	1.529101	-0.239107	-0.338259
N111	N	0.987495	-0.802673	-0.872210
N112	N	1.487495	-0.302673	-0.372210
H113	H	0.582841	-0.717612	-0.469177
H114	H	1.082841	-0.217612	0.030823
C115	C	1.240063	-0.416668	-1.091169
C116	C	1.740063	0.083332	-0.591169
N117	N	1.281676	-0.353069	-1.125146
N118	N	1.781676	0.146931	-0.625146
C119	C	0.675181	-0.416755	-0.273004
C120	C	1.175181	0.083245	0.226996
N121	N	0.641203	-0.353083	-0.231483
N122	N	1.141203	0.146917	0.268517
H123	H	0.835629	-0.438694	-0.287308
H124	H	1.335629	0.061306	0.212692
C125	C	1.029080	-0.739196	-0.666101
C126	C	1.529080	-0.239196	-0.166101
N127	N	0.987466	-0.802802	-0.632130
N128	N	1.487466	-0.302802	-0.132130
C129	C	1.239994	-0.416848	-0.666169
C130	C	1.739994	0.083152	-0.166169
N131	N	1.281594	-0.353263	-0.632227
N132	N	1.781594	0.146737	-0.132227
H133	H	0.686970	-0.717590	-0.469169
H134	H	1.186970	-0.217590	0.030831
H135	H	0.434051	-0.438734	-0.287355
H136	H	0.934051	0.061266	0.212645
H137	H	1.225667	-0.438715	-0.826596
H138	H	1.725667	0.061285	-0.326596
H139	H	1.043458	-0.717137	-0.930671
H140	H	1.543458	-0.217137	-0.430671
C141	C	1.240032	-0.416739	-0.919014
C142	C	1.740032	0.083261	-0.419014
N143	N	1.281628	-0.353155	-0.885065
N144	N	1.781628	0.146845	-0.385065
