data_functionalizedCrystal
_audit_creation_method	'MofGen! by Chris Wilmer'
_symmetry_space_group_name_H-M	'P1'
_symmetry_Int_Tables_number	1
_symmetry_cell_setting	triclinic
loop_
_symmetry_equiv_pos_as_xyz
  x,y,z
_cell_length_a	16.974885
_cell_length_b	9.065218
_cell_length_c	8.140239
_cell_angle_alpha	90.002802
_cell_angle_beta	93.650314
_cell_angle_gamma	95.795794
loop_
_atom_site_label
_atom_site_type_symbol
_atom_site_fract_x
_atom_site_fract_y
_atom_site_fract_z
O1	O	0.115934	-1.957272	-0.121211
O2	O	0.615934	-1.457272	0.378789
O3	O	0.125443	-1.527730	-0.119950
O4	O	0.625443	-1.027730	0.380050
O5	O	0.005672	-1.754476	-0.135854
O6	O	0.505672	-1.254476	0.364146
O7	O	0.235704	-1.730526	-0.105307
O8	O	0.735704	-1.230526	0.394693
O9	O	0.005671	-1.754463	0.137372
O10	O	0.505671	-1.254463	0.637372
O11	O	0.125442	-1.527718	0.153277
O12	O	0.625442	-1.027718	0.653277
O13	O	0.115932	-1.957259	0.152016
O14	O	0.615932	-1.457259	0.652016
Zn15	Zn	0.120687	-1.742487	0.196027
Zn16	Zn	0.620687	-1.242487	0.696027
Zn17	Zn	0.120689	-1.742503	-0.163961
Zn18	Zn	0.620689	-1.242503	0.336039
O19	O	0.235703	-1.730514	0.167920
O20	O	0.735703	-1.230514	0.667920
C21	C	0.124528	-1.472762	0.016542
C22	C	0.624528	-0.972762	0.516542
C23	C	0.121796	-1.308993	0.016178
C24	C	0.621796	-0.808993	0.516178
C25	C	-0.023793	-1.753559	-0.003157
C26	C	0.476207	-1.253559	0.496843
C27	C	-0.111588	-1.750826	-0.014827
C28	C	0.388412	-1.250826	0.485173
C29	C	-0.152843	-1.749532	0.128620
C30	C	0.347157	-1.249532	0.628620
C31	C	-0.235336	-1.746975	0.117640
C32	C	0.264664	-1.246975	0.617640
C33	C	-0.276573	-1.745700	-0.036787
C34	C	0.223427	-1.245700	0.463213
C35	C	-0.235313	-1.746999	-0.180244
C36	C	0.264687	-1.246999	0.319756
C37	C	-0.152822	-1.749567	-0.169263
C38	C	0.347178	-1.249567	0.330737
C39	C	-0.523285	-1.738030	-0.085598
C40	C	-0.023285	-1.238030	0.414402
C41	C	-0.605782	-1.735457	-0.096568
C42	C	-0.105782	-1.235457	0.403432
C43	C	-0.605799	-1.735436	0.201318
C44	C	-0.105799	-1.235436	0.701318
C45	C	-0.523306	-1.737995	0.212285
C46	C	-0.023306	-1.237995	0.712285
C47	C	-0.482054	-1.739302	0.068828
C48	C	0.017946	-1.239302	0.568828
N49	N	-0.360895	-1.743081	-0.048013
N50	N	0.139105	-1.243081	0.451987
N51	N	-0.397735	-1.741931	0.080055
N52	N	0.102265	-1.241931	0.580055
C53	C	0.116847	-2.012227	0.015520
C54	C	0.616847	-1.512227	0.515520
C55	C	0.119579	-2.175997	0.015873
C56	C	0.619579	-1.675997	0.515873
C57	C	0.265168	-1.731431	0.035220
C58	C	0.765168	-1.231431	0.535220
C59	C	0.352963	-1.734163	0.046878
C60	C	0.852963	-1.234163	0.546878
N61	N	0.120685	-1.742486	0.441709
N62	N	0.620685	-1.242486	0.941709
N63	N	0.120684	-1.742515	-0.409644
N64	N	0.620684	-1.242515	0.090356
H65	H	-0.119272	-1.750545	0.254371
H66	H	0.380728	-1.250545	0.754371
H67	H	-0.639396	-1.734374	0.318112
H68	H	-0.139396	-1.234374	0.818112
N69	N	-0.279793	-1.745634	-0.346801
N70	N	0.220207	-1.245634	0.153199
H71	H	-0.308261	-1.653160	-0.357235
H72	H	0.191739	-1.153160	0.142765
H73	H	-0.241095	-1.746906	-0.435912
H74	H	0.258905	-1.246906	0.064088
H75	H	-0.489738	-1.739065	0.338035
H76	H	0.010262	-1.239065	0.838035
H77	H	-0.119234	-1.750622	-0.286073
H78	H	0.380766	-1.250622	0.213927
N79	N	-0.279838	-1.745547	0.272346
N80	N	0.220162	-1.245547	0.772346
H81	H	-0.319821	-1.835885	0.273682
H82	H	0.180179	-1.335885	0.773682
H83	H	-0.241150	-1.746673	0.371764
H84	H	0.258850	-1.246673	0.871764
H85	H	-0.639354	-1.734405	-0.222327
H86	H	-0.139354	-1.234405	0.277673
N87	N	-0.478798	-1.739435	-0.240319
N88	N	0.021202	-1.239435	0.259681
H89	H	-0.517441	-1.738231	-0.339809
H90	H	-0.017441	-1.238231	0.160191
H91	H	-0.438815	-1.649093	-0.241492
H92	H	0.061185	-1.149093	0.258508
