data_functionalizedCrystal
_audit_creation_method	'MofGen! by Chris Wilmer'
_symmetry_space_group_name_H-M	'P1'
_symmetry_Int_Tables_number	1
_symmetry_cell_setting	triclinic
loop_
_symmetry_equiv_pos_as_xyz
  x,y,z
_cell_length_a	11.169416
_cell_length_b	11.169417
_cell_length_c	12.759393
_cell_angle_alpha	89.981660
_cell_angle_beta	89.970865
_cell_angle_gamma	90.011027
loop_
_atom_site_label
_atom_site_type_symbol
_atom_site_fract_x
_atom_site_fract_y
_atom_site_fract_z
Zn1	Zn	-0.477708	1.834946	-0.593995
Zn2	Zn	0.022292	2.334946	-0.093995
Zn3	Zn	-0.678441	1.834842	-0.418322
Zn4	Zn	-0.178441	2.334842	0.081678
Zn5	Zn	-0.477774	1.634237	-0.418335
Zn6	Zn	0.022226	2.134237	0.081665
Zn7	Zn	-0.678351	1.634240	-0.593964
Zn8	Zn	-0.178351	2.134240	-0.093964
O9	O	-0.578068	1.734566	-0.506154
O10	O	-0.078068	2.234566	-0.006154
O11	O	-0.504346	2.002882	-0.570699
O12	O	-0.004346	2.502882	-0.070699
O13	O	-0.651887	1.808186	-0.271303
O14	O	-0.151887	2.308186	0.228697
O15	O	-0.309815	1.660904	-0.441654
O16	O	0.190185	2.160904	0.058346
O17	O	-0.651824	2.002805	-0.441633
O18	O	-0.151824	2.502805	0.058367
O19	O	-0.309767	1.808364	-0.570711
O20	O	0.190233	2.308364	-0.070711
O21	O	-0.504457	1.660803	-0.271312
O22	O	-0.004457	2.160803	0.228688
O23	O	-0.504370	1.466288	-0.441625
O24	O	-0.004370	1.966288	0.058375
O25	O	-0.651670	1.660910	-0.740989
O26	O	-0.151670	2.160910	-0.240989
O27	O	-0.651734	1.466290	-0.570659
O28	O	-0.151734	1.966290	-0.070659
O29	O	-0.504259	1.808367	-0.741012
O30	O	-0.004259	2.308367	-0.241012
O31	O	-0.846379	1.808189	-0.441604
O32	O	-0.346379	2.308189	0.058396
O33	O	-0.846313	1.660808	-0.570647
O34	O	-0.346313	2.160808	-0.070647
C35	C	-0.578050	1.422742	-0.506140
C36	C	-0.078050	1.922742	-0.006140
C37	C	-0.578071	1.289342	-0.506160
C38	C	-0.078071	1.789342	-0.006160
C39	C	-0.889893	1.734520	-0.506144
C40	C	-0.389893	2.234520	-0.006144
C41	C	-1.023293	1.734610	-0.506174
C42	C	-0.523293	2.234610	-0.006174
C43	C	-0.265026	1.734646	-0.506187
C44	C	0.234974	2.234646	-0.006187
C45	C	-0.131626	1.734680	-0.506202
C46	C	0.368374	2.234680	-0.006202
C47	C	-0.577947	1.734650	-0.780187
C48	C	-0.077947	2.234650	-0.280187
C49	C	-0.577896	1.734686	-0.896964
C50	C	-0.077896	2.234686	-0.396964
C51	C	-0.578088	2.047609	-0.506168
C52	C	-0.078088	2.547609	-0.006168
C53	C	-0.578096	2.181009	-0.506174
C54	C	-0.078096	2.681009	-0.006174
C55	C	-0.501131	1.811478	-0.951840
C56	C	-0.001131	2.311478	-0.451840
C57	C	-0.501088	1.811507	-1.061564
C58	C	-0.001088	2.311507	-0.561564
C59	C	-0.654584	1.657948	-1.061527
C60	C	-0.154584	2.157948	-0.561527
C61	C	-0.654620	1.657914	-0.951805
C62	C	-0.154620	2.157914	-0.451805
C63	C	-0.412515	1.900138	-0.951861
C64	C	0.087485	2.400138	-0.451861
C65	C	-0.412472	1.900166	-1.061586
C66	C	0.087528	2.400166	-0.561586
C67	C	-0.578102	1.734552	-0.233187
C68	C	-0.078102	2.234552	0.266813
C69	C	-0.577816	1.734748	-0.116410
C70	C	-0.077816	2.234748	0.383590
H71	H	-0.717125	1.595379	-0.907130
H72	H	-0.217125	2.095379	-0.407130
C73	C	-0.738974	1.573502	-1.121863
C74	C	-0.238974	2.073502	-0.621863
N75	N	-0.802539	1.509895	-1.167306
N76	N	-0.302539	2.009895	-0.667306
C77	C	-0.286954	1.866524	-0.911653
C78	C	0.213046	2.366524	-0.411653
N79	N	-0.192385	1.841202	-0.881368
N80	N	0.307615	2.341202	-0.381368
H81	H	-0.445835	1.988412	-0.917826
H82	H	0.054165	2.488412	-0.417826
C83	C	-0.446113	2.025739	-1.101821
C84	C	0.053887	2.525739	-0.601821
N85	N	-0.471455	2.120316	-1.132125
N86	N	0.028545	2.620316	-0.632125
H87	H	-0.324158	1.866901	-1.095630
H88	H	0.175842	2.366901	-0.595630
