data_functionalizedCrystal
_audit_creation_method	'MofGen! by Chris Wilmer'
_symmetry_space_group_name_H-M	'P1'
_symmetry_Int_Tables_number	1
_symmetry_cell_setting	triclinic
loop_
_symmetry_equiv_pos_as_xyz
  x,y,z
_cell_length_a	14.519709
_cell_length_b	11.792241
_cell_length_c	10.268362
_cell_angle_alpha	90.005428
_cell_angle_beta	89.998968
_cell_angle_gamma	83.936780
loop_
_atom_site_label
_atom_site_type_symbol
_atom_site_fract_x
_atom_site_fract_y
_atom_site_fract_z
O1	O	-1.224412	-0.148781	-0.108131
O2	O	-0.724412	0.351219	0.391869
O3	O	-0.955999	-0.166302	-0.108171
O4	O	-0.455999	0.333698	0.391829
O5	O	-1.096719	0.007665	-0.108141
O6	O	-0.596719	0.507665	0.391859
O7	O	-1.083692	-0.322748	-0.108161
O8	O	-0.583692	0.177252	0.391839
O9	O	-1.096707	0.007672	0.108460
O10	O	-0.596707	0.507672	0.608460
O11	O	-0.955987	-0.166295	0.108430
O12	O	-0.455987	0.333705	0.608430
O13	O	-1.224400	-0.148774	0.108470
O14	O	-0.724400	0.351226	0.608470
Cu15	Cu	-1.090192	-0.157534	0.128227
Cu16	Cu	-0.590192	0.342466	0.628227
Cu17	Cu	-1.090207	-0.157542	-0.127928
Cu18	Cu	-0.590207	0.342458	0.372072
O19	O	-1.083680	-0.322741	0.108440
O20	O	-0.583680	0.177259	0.608440
C21	C	-0.921630	-0.165482	0.000124
C22	C	-0.421630	0.334518	0.500124
C23	C	-0.819240	-0.163035	0.000109
C24	C	-0.319240	0.336965	0.500109
C25	C	-1.258769	-0.149594	0.000171
C26	C	-0.758769	0.350406	0.500171
C27	C	-1.361159	-0.152041	0.000178
C28	C	-0.861159	0.347959	0.500178
C29	C	-1.095895	0.049955	0.000159
C30	C	-0.595895	0.549955	0.500159
C31	C	-1.093446	0.175955	0.000157
C32	C	-0.593446	0.675955	0.500157
C33	C	-0.444311	-0.154027	0.000169
C34	C	0.055689	0.345973	0.500169
C35	C	-0.548628	-0.156528	0.000152
C36	C	-0.048628	0.343472	0.500152
C37	C	-0.631772	-0.158531	0.000138
C38	C	-0.131772	0.341469	0.500138
C39	C	-0.736096	-0.161033	0.000123
C40	C	-0.236096	0.338967	0.500123
C41	C	-1.084504	-0.365031	0.000137
C42	C	-0.584504	0.134969	0.500137
C43	C	-1.086954	-0.491031	0.000130
C44	C	-0.586954	0.008969	0.500130
N45	N	-1.090189	-0.157527	0.308393
N46	N	-0.590189	0.342473	0.808393
C47	C	-1.088942	0.406642	0.000135
C48	C	-0.588942	0.906642	0.500135
C49	C	-1.091444	0.278271	0.000147
C50	C	-0.591444	0.778271	0.500147
N51	N	-1.090218	-0.157540	-0.308094
N52	N	-0.590218	0.342460	0.191906
C53	C	-1.090202	-0.157540	0.574063
C54	C	-0.590202	0.342460	1.074063
C55	C	-1.090192	-0.157536	0.426226
C56	C	-0.590192	0.342464	0.926226
