data_functionalizedCrystal
_audit_creation_method	'MofGen! by Chris Wilmer'
_symmetry_space_group_name_H-M	'P1'
_symmetry_Int_Tables_number	1
_symmetry_cell_setting	triclinic
loop_
_symmetry_equiv_pos_as_xyz
  x,y,z
_cell_length_a	18.760487
_cell_length_b	21.606444
_cell_length_c	21.606444
_cell_angle_alpha	60.003871
_cell_angle_beta	60.019231
_cell_angle_gamma	90.036366
loop_
_atom_site_label
_atom_site_type_symbol
_atom_site_fract_x
_atom_site_fract_y
_atom_site_fract_z
Zr1	Zr	0.686675	-0.080830	0.677443
O2	O	0.572857	-0.179710	0.806558
O3	O	0.721567	-0.050522	0.548326
O4	O	0.721566	-0.179634	0.677439
O5	O	0.572858	0.051253	0.677449
O6	O	0.838869	-0.179572	0.677439
O7	O	0.572858	-0.050597	0.677445
O8	O	0.838871	0.051387	0.446480
O9	O	0.572856	-0.179706	0.908408
O10	O	0.823989	-0.037545	0.601435
O11	O	0.736447	0.038418	0.601438
O12	O	0.736445	-0.113596	0.753452
O13	O	0.648903	-0.037634	0.753455
Zr14	Zr	0.873759	0.081708	0.677450
Zr15	Zr	0.873759	-0.080731	0.677443
Zr16	Zr	0.686675	0.081608	0.677450
Zr17	Zr	0.686673	-0.080825	0.839884
Zr18	Zr	0.873761	0.081703	0.515010
O19	O	0.838867	0.051399	0.806567
O20	O	0.838867	-0.179568	0.806557
O21	O	0.572857	0.051257	0.806567
O22	O	0.987577	0.180587	0.548336
O23	O	0.987577	-0.050379	0.548326
O24	O	0.721567	0.180445	0.548336
O25	O	0.987576	-0.050375	0.677444
O26	O	0.838868	0.180512	0.677454
O27	O	0.721565	0.180449	0.677454
O28	O	0.987576	0.051474	0.677449
O29	O	0.721563	-0.179627	0.908408
O30	O	0.838871	0.180504	0.446485
O31	O	0.987578	0.180584	0.446485
O32	O	0.987579	0.051467	0.446479
O33	O	0.572856	-0.050589	0.908414
O34	O	0.721563	-0.050510	0.908414
O35	O	0.823989	0.114474	0.601441
O36	O	0.911531	0.038511	0.601438
O37	O	0.823987	-0.037540	0.753455
O38	O	0.736445	0.038423	0.753458
C39	C	0.546203	0.000314	0.677447
C40	C	0.466780	0.000271	0.677447
C41	C	0.780220	0.000432	0.474259
C42	C	0.780220	0.000430	0.405299
C43	C	0.780217	0.203625	0.677455
C44	C	0.780217	0.272584	0.677458
C45	C	0.085267	-0.039127	0.756801
C46	C	0.176668	0.040271	0.598093
C47	C	0.251290	0.040206	0.598091
C48	C	0.242903	0.000473	0.677446
C49	C	0.159894	-0.039195	0.756802
C50	C	0.334304	0.079868	0.518737
C51	C	0.408932	0.079803	0.518732
C52	C	0.400546	0.040074	0.598088
C53	C	0.317531	0.000405	0.677447
C54	C	0.309144	-0.039329	0.756802
C55	C	0.226129	-0.078994	0.836162
C56	C	0.151508	-0.078925	0.836158
C57	C	0.475167	0.040005	0.598092
C58	C	0.383771	-0.039397	0.756803
C59	C	1.014231	0.000564	0.677446
C60	C	1.093654	0.000606	0.677446
C61	C	0.780217	-0.202747	0.677438
C62	C	0.780217	-0.271707	0.677435
C63	C	0.734521	0.265285	0.756809
C64	C	0.734517	0.330083	0.756807
C65	C	0.780214	0.402178	0.677453
C66	C	0.825911	0.409475	0.598096
C67	C	0.825909	0.344679	0.598099
C68	C	0.825918	0.670793	0.598081
C69	C	0.825918	0.735591	0.598083
C70	C	0.734526	0.656198	0.756788
C71	C	0.734524	0.591401	0.756791
C72	C	0.780217	0.598703	0.677435
C73	C	0.780219	0.528442	0.677439
C74	C	0.780218	0.472438	0.677448
C75	C	0.825914	-0.039223	0.372899
C76	C	0.825917	-0.039218	0.308099
C77	C	0.780221	0.000436	0.275704
C78	C	0.734525	0.040094	0.308106
C79	C	0.734528	0.040093	0.372901
C80	C	0.734515	0.040100	0.046797
C81	C	0.734514	0.040096	-0.018000
C82	C	0.825905	-0.039210	-0.018004
C83	C	0.825907	-0.039211	0.046790
C84	C	0.780216	0.000449	0.079183
C85	C	0.780214	0.000444	0.149445
C86	C	0.780217	0.000437	0.205447
C87	C	0.780215	0.000445	0.880635
C88	C	0.780214	0.000448	0.949595
C89	C	1.014234	0.000557	0.474258
C90	C	1.093657	0.000597	0.405298
C91	C	0.780219	0.203618	0.474267
C92	C	0.780220	0.272575	0.405310
C93	C	1.014233	0.203743	0.474267
C94	C	1.093657	0.272743	0.405310
C95	C	0.546201	-0.202866	0.880626
C96	C	0.466778	-0.271865	0.949583
C97	C	0.546200	0.000320	0.880635
C98	C	0.466777	0.000280	0.949595
C99	C	0.780215	-0.202740	0.880626
C100	C	0.780214	-0.271698	0.949583
C101	C	1.085259	-0.039091	0.372912
C102	C	1.159878	-0.039068	0.308126
C103	C	1.242895	0.000647	0.275722
C104	C	1.251291	0.040337	0.308114
C105	C	1.176673	0.040310	0.372904
C106	C	0.825916	0.344666	0.372929
C107	C	0.825913	0.409464	0.308145
C108	C	0.780219	0.402171	0.275740
C109	C	0.734517	0.330073	0.308128
C110	C	0.734515	0.265276	0.372914
C111	C	1.176658	0.265494	0.372925
C112	C	1.251292	0.330320	0.308141
C113	C	1.242922	0.402394	0.275739
C114	C	1.159911	0.409642	0.308130
C115	C	1.085280	0.344816	0.372917
C116	C	0.383776	-0.264616	0.981976
C117	C	0.309142	-0.329443	1.046780
C118	C	0.317512	-0.401517	1.079185
C119	C	0.400523	-0.408764	1.046790
C120	C	0.475155	-0.343939	0.981992
C121	C	0.475175	0.039962	0.981988
C122	C	0.400556	0.039921	1.046792
C123	C	0.317539	0.000203	1.079198
C124	C	0.309143	-0.039483	1.046803
C125	C	0.383762	-0.039447	0.982004
C126	C	0.825917	-0.264380	0.981968
C127	C	0.825934	-0.329167	1.046752
C128	C	0.780241	-0.401270	1.079154
C129	C	0.734537	-0.408586	1.046763
C130	C	0.734526	-0.343800	0.981976
H131	H	0.376931	-0.071745	0.821424
O132	O	0.217093	-0.121852	0.921748
H133	H	0.146835	-0.149427	0.976934
O134	O	0.374691	-0.082243	0.947065
H135	H	0.406491	-0.126089	0.959498
H136	H	0.697317	0.650258	0.821404
O137	O	0.875214	0.487222	0.273215
H138	H	0.925714	0.518669	0.201738
H139	H	0.863127	0.676749	0.533464
H140	H	0.863126	0.350618	0.399306
O141	O	0.995755	0.352638	0.407827
H142	H	1.002483	0.413648	0.374396
H143	H	0.780257	-0.454016	1.131909
H144	H	0.697335	-0.467301	1.073155
H145	H	0.376944	-0.205936	0.955595
O146	O	0.061976	-0.121719	0.921749
H147	H	0.011497	-0.115007	0.908414
O148	O	0.685226	0.082868	0.081737
H149	H	0.614992	0.059892	0.111262
H150	H	0.697305	-0.349769	0.955615
H151	H	0.017674	-0.071419	0.821414
H152	H	0.780228	0.454939	0.222986
H153	H	0.183490	0.072618	0.533486
H154	H	0.697323	0.072385	0.281721
H155	H	0.863125	-0.205676	0.955596
H156	H	0.863113	-0.071501	-0.044389
H157	H	0.697301	0.072390	-0.044375
O158	O	0.875226	-0.321263	1.081684
H159	H	0.925751	-0.348839	1.069232
H160	H	1.183490	0.206813	0.399297
H161	H	0.476519	0.112100	0.454112
O162	O	0.343352	0.122715	0.433150
H163	H	0.277515	0.116104	0.446483
H164	H	0.542754	0.072306	0.533478
H165	H	1.303699	0.455173	0.222986
O166	O	1.340819	0.322496	0.273202
H167	H	1.334093	0.261486	0.306608
O168	O	1.340831	0.083176	0.273161
H169	H	1.377004	0.127043	0.201687
H170	H	0.697313	0.206585	0.821429
O171	O	1.185734	0.083132	0.407820
H172	H	1.255999	0.110758	0.374390
O173	O	0.685262	0.322211	0.273149
H174	H	0.692965	0.379384	0.222645
H175	H	0.697307	0.206579	0.399271
O176	O	1.323370	0.000669	0.205842
H177	H	1.382512	0.034948	0.188750
H178	H	0.697309	0.324133	0.821422
O179	O	1.150888	0.487381	0.273168
H180	H	1.216733	0.531233	0.222667
H181	H	0.241541	-0.071821	1.073198
O182	O	0.564706	0.082803	0.947050
H183	H	0.615193	0.076174	0.896542
O184	O	0.685235	0.513640	0.842379
H185	H	0.653451	0.519450	0.897558
H186	H	0.256735	-0.454296	1.131948
O187	O	0.875198	0.813357	0.512491
H188	H	0.906963	0.807550	0.457309
O189	O	0.995728	-0.081941	0.407859
H190	H	0.945241	-0.075297	0.458352
O191	O	0.219616	-0.321618	1.081698
H192	H	0.226341	-0.260609	1.048259
H193	H	1.153025	-0.071388	0.281759
O194	O	0.564668	-0.351782	0.947080
H195	H	0.600852	-0.324155	0.959528
H196	H	0.407328	-0.467455	1.073183
O197	O	0.409620	0.082738	1.081716
H198	H	0.479884	0.110374	1.048278
H199	H	0.256787	0.000180	1.131962
H200	H	0.863117	0.350626	0.533484
O201	O	0.875236	0.487245	0.512520
H202	H	0.829133	0.518670	0.508704
O203	O	0.875197	-0.081996	0.407844
H204	H	0.945432	-0.059027	0.353454
O205	O	0.875191	-0.081995	0.273161
H206	H	0.906954	-0.109579	0.306583
H207	H	0.863114	-0.071504	0.073167
H208	H	0.697317	0.072380	0.399281
