data_functionalizedCrystal
_audit_creation_method	'MofGen! by Chris Wilmer'
_symmetry_space_group_name_H-M	'P1'
_symmetry_Int_Tables_number	1
_symmetry_cell_setting	triclinic
loop_
_symmetry_equiv_pos_as_xyz
  x,y,z
_cell_length_a	11.792254
_cell_length_b	10.654559
_cell_length_c	9.130313
_cell_angle_alpha	89.999532
_cell_angle_beta	89.996834
_cell_angle_gamma	95.656359
loop_
_atom_site_label
_atom_site_type_symbol
_atom_site_fract_x
_atom_site_fract_y
_atom_site_fract_z
O1	O	-0.159464	1.667384	-0.121792
O2	O	-0.174641	1.301865	-0.121791
O3	O	-0.001904	1.493487	-0.121798
O4	O	-0.332201	1.475763	-0.121785
O5	O	-0.001908	1.493484	0.121801
O6	O	-0.174646	1.301863	0.121808
O7	O	-0.159468	1.667382	0.121807
Cu8	Cu	-0.167058	1.484622	0.144050
Cu9	Cu	-0.167052	1.484625	-0.144034
O10	O	-0.332206	1.475760	0.121814
C11	C	-0.173527	1.255069	0.000008
C12	C	-0.170186	1.115636	0.000007
C13	C	-0.065341	1.064387	0.000007
C14	C	-0.062209	0.933374	-0.000004
C15	C	-0.268777	0.904868	-0.000008
C16	C	-0.271907	1.035879	-0.000008
C17	C	0.053919	1.080844	0.000016
C18	C	0.057051	0.949831	0.000005
C19	C	-0.374497	1.476878	0.000016
C20	C	-0.500518	1.480220	0.000021
C21	C	-0.602861	1.482935	0.000013
C22	C	-0.731255	1.486330	-0.000004
C23	C	0.040387	1.492369	-0.000004
C24	C	0.166408	1.489027	-0.000018
C25	C	-0.160583	1.714178	0.000005
C26	C	-0.163923	1.853611	-0.000004
N27	N	-0.167061	1.484629	0.346673
N28	N	-0.167040	1.484628	-0.346657
C29	C	-0.090599	1.569501	0.423321
C30	C	-0.090585	1.569498	0.576658
C31	C	-0.243505	1.399747	0.576684
C32	C	-0.243513	1.399745	0.423350
C33	C	-0.002315	1.667509	0.423308
C34	C	-0.002301	1.667506	0.576645
H35	H	0.103684	0.920590	0.101949
H36	H	0.084927	1.646309	0.381684
C37	C	-0.327612	1.306378	0.339029
C38	C	-0.411764	1.213074	0.423368
C39	C	-0.495866	1.119703	0.339045
C40	C	-0.495815	1.119634	0.170384
C41	C	-0.411660	1.212941	0.086036
C42	C	-0.327558	1.306313	0.170359
H43	H	-0.411805	1.213122	0.548230
H44	H	-0.558163	1.050631	0.401486
H45	H	-0.558072	1.050515	0.107963
H46	H	-0.411619	1.212894	-0.038826
H47	H	-0.265261	1.375385	0.107918
C48	C	-0.039664	1.790585	0.359051
C49	C	0.028638	1.917664	0.394428
C50	C	-0.008718	2.040737	0.330173
C51	C	-0.114378	2.036730	0.230541
C52	C	-0.182687	1.909646	0.195159
C53	C	-0.145330	1.786573	0.259414
H54	H	0.106859	1.920635	0.468187
H55	H	0.041849	2.134814	0.356366
H56	H	-0.142031	2.127836	0.182975
H57	H	-0.260908	1.906675	0.121400
H58	H	-0.195898	1.692496	0.233221
C59	C	0.114629	1.137425	-0.137698
C60	C	0.219308	1.234990	-0.122214
C61	C	0.280015	1.291571	-0.259924
C62	C	0.236042	1.250587	-0.413118
C63	C	0.131358	1.153017	-0.428608
C64	C	0.070651	1.096436	-0.290898
H65	H	0.251864	1.265333	-0.008805
H66	H	0.357509	1.363799	-0.248457
H67	H	0.280981	1.292471	-0.515059
H68	H	0.098802	1.122673	-0.542017
H69	H	-0.006843	1.024208	-0.302365
H70	H	-0.305750	1.330635	0.639131
H71	H	0.080142	1.637222	0.624188
H72	H	0.089947	1.126585	0.105196
C73	C	-0.380665	0.817132	-0.000015
C74	C	-0.406912	0.723150	-0.126513
C75	C	-0.518803	0.635416	-0.126518
C76	C	-0.604447	0.641665	-0.000025
C77	C	-0.578203	0.735650	0.126483
C78	C	-0.466312	0.823384	0.126488
H79	H	-0.343511	0.718521	-0.220160
H80	H	-0.538230	0.565842	-0.220168
H81	H	-0.687276	0.576719	-0.000028
H82	H	-0.641604	0.740279	0.220129
H83	H	-0.446884	0.892958	0.220138
H84	H	-0.357282	1.077599	-0.000032
H85	H	0.095038	0.914308	-0.105178
H86	H	-0.021751	1.763963	0.618262
