data_functionalizedCrystal
_audit_creation_method	'MofGen! by Chris Wilmer'
_symmetry_space_group_name_H-M	'P1'
_symmetry_Int_Tables_number	1
_symmetry_cell_setting	triclinic
loop_
_symmetry_equiv_pos_as_xyz
  x,y,z
_cell_length_a	15.297979
_cell_length_b	21.395361
_cell_length_c	21.395355
_cell_angle_alpha	89.980951
_cell_angle_beta	99.716914
_cell_angle_gamma	80.309785
loop_
_atom_site_label
_atom_site_type_symbol
_atom_site_fract_x
_atom_site_fract_y
_atom_site_fract_z
Zn1	Zn	1.379413	0.083951	0.520372
Zn2	Zn	1.879413	0.583951	1.020372
Zn3	Zn	1.379273	0.188728	0.415576
Zn4	Zn	1.879273	0.688728	0.915576
Zn5	Zn	1.228512	0.102063	0.397436
Zn6	Zn	1.728512	0.602063	0.897436
Zn7	Zn	1.228468	0.206812	0.502156
Zn8	Zn	1.728468	0.706812	1.002156
O9	O	1.303916	0.145389	0.458885
O10	O	1.803916	0.645389	0.958885
O11	O	1.505659	0.082702	0.521685
O12	O	2.005659	0.582702	1.021685
O13	O	1.359234	0.177243	0.325487
O14	O	1.859234	0.677243	0.825487
O15	O	1.248606	0.011973	0.413776
O16	O	1.748606	0.511973	0.913776
O17	O	1.505556	0.159681	0.444692
O18	O	2.005556	0.659681	0.944692
O19	O	1.359472	-0.001333	0.504096
O20	O	1.859472	0.498667	1.004096
O21	O	1.248471	0.113571	0.312160
O22	O	1.748471	0.613571	0.812160
O23	O	1.102241	0.131106	0.396113
O24	O	1.602241	0.631106	0.896113
O25	O	1.248531	0.190502	0.592255
O26	O	1.748531	0.690502	1.092255
O27	O	1.102209	0.208064	0.473050
O28	O	1.602209	0.708064	0.973050
O29	O	1.359430	0.100237	0.605638
O30	O	1.859430	0.600237	1.105638
O31	O	1.359191	0.278814	0.427030
O32	O	1.859191	0.778814	0.927030
O33	O	1.248396	0.292100	0.490640
O34	O	1.748396	0.792100	0.990640
C35	C	1.303798	0.308190	0.458843
C36	C	1.803798	0.808190	0.958843
C37	C	1.303830	0.377828	0.458856
C38	C	1.803830	0.877828	0.958856
C39	C	1.069486	0.173513	0.430637
C40	C	1.569486	0.673513	0.930637
C41	C	0.969196	0.185560	0.418567
C42	C	1.469196	0.685560	0.918567
C43	C	1.303991	0.145367	0.622318
C44	C	1.803991	0.645367	1.122318
C45	C	1.304023	0.145358	0.691963
C46	C	1.804023	0.645358	1.191963
C47	C	0.922025	0.231235	0.372747
C48	C	1.422025	0.731235	0.872747
C49	C	0.827797	0.242556	0.361409
C50	C	1.327797	0.742556	0.861409
C51	C	0.780731	0.208198	0.395888
C52	C	1.280731	0.708198	0.895888
C53	C	0.827902	0.162519	0.441706
C54	C	1.327902	0.662519	0.941706
C55	C	0.922139	0.151201	0.453048
C56	C	1.422139	0.651201	0.953048
C57	C	0.780846	0.128164	0.476190
C58	C	1.280846	0.628164	0.976190
C59	C	0.828017	0.082485	0.522008
C60	C	1.328017	0.582485	1.022008
C61	C	0.922245	0.071169	0.533347
C62	C	1.422245	0.571169	1.033347
C63	C	0.969310	0.105526	0.498869
C64	C	1.469310	0.605526	0.998869
C65	C	0.686609	0.139482	0.464848
C66	C	1.186609	0.639482	0.964848
C67	C	0.686723	0.059448	0.545149
C68	C	1.186723	0.559448	1.045149
C69	C	0.780951	0.048127	0.556487
C70	C	1.280951	0.548127	1.056487
C71	C	1.539262	0.117154	0.487244
C72	C	2.039262	0.617154	0.987244
C73	C	1.639552	0.105123	0.499329
C74	C	2.139552	0.605123	0.999329
C75	C	1.361572	0.403596	0.425783
C76	C	1.861572	0.903596	0.925783
C77	C	1.361615	0.469026	0.425805
C78	C	1.861615	0.969026	0.925805
C79	C	1.303898	0.508688	0.458891
C80	C	1.803898	1.008688	0.958891
C81	C	1.246152	0.482912	0.491972
C82	C	1.746152	0.982912	0.991972
C83	C	1.246118	0.417482	0.491954
C84	C	1.746118	0.917482	0.991954
C85	C	1.222656	0.622154	0.454022
C86	C	1.722656	1.122154	0.954022
C87	C	1.222689	0.687583	0.454035
C88	C	1.722689	1.187583	0.954035
C89	C	1.304004	0.710496	0.458949
C90	C	1.804004	1.210496	0.958949
C91	C	1.385290	0.667971	0.463838
C92	C	1.885290	1.167971	0.963838
C93	C	1.385256	0.602541	0.463820
C94	C	1.885256	1.102541	0.963820
C95	C	1.303929	0.579637	0.458914
C96	C	1.803929	1.079637	0.958914
C97	C	1.361798	0.807210	0.425899
C98	C	1.861798	1.307210	0.925899
C99	C	1.361841	0.872642	0.425925
C100	C	1.861841	1.372642	0.925925
C101	C	1.246370	0.886528	0.492088
C102	C	1.746370	1.386528	0.992088
C103	C	1.246335	0.821097	0.492065
C104	C	1.746335	1.321097	0.992065
C105	C	1.304047	0.781442	0.458967
C106	C	1.804047	1.281442	0.958967
C107	C	1.304061	0.981948	0.458955
C108	C	1.804061	1.481948	0.958955
C109	C	1.304125	0.912299	0.459013
C110	C	1.804125	1.412299	0.959013
C111	C	1.303894	0.145359	0.296095
C112	C	1.803894	0.645359	0.796095
C113	C	1.304037	0.145170	0.226471
C114	C	1.804037	0.645170	0.726471
C115	C	1.361766	0.098355	0.731645
C116	C	1.861766	0.598355	1.231645
C117	C	1.361764	0.098328	0.797080
C118	C	1.861764	0.598328	1.297080
C119	C	1.304030	0.145314	0.822832
C120	C	1.804030	0.645314	1.322832
C121	C	1.246277	0.192321	0.783140
C122	C	1.746277	0.692321	1.283140
C123	C	1.246273	0.192342	0.717706
C124	C	1.746273	0.692342	1.217706
C125	C	1.296865	0.202589	0.925634
C126	C	1.796865	0.702589	1.425634
C127	C	1.296875	0.202568	0.991068
C128	C	1.796875	0.702568	1.491068
C129	C	1.304036	0.145247	1.024653
C130	C	1.804036	0.645247	1.524653
C131	C	1.311206	0.087944	0.992799
C132	C	1.811206	0.587944	1.492799
C133	C	1.311203	0.087966	0.927364
C134	C	1.811203	0.587966	1.427364
C135	C	1.304027	0.145295	0.893784
C136	C	1.804027	0.645295	1.393784
C137	C	1.361780	0.098212	1.135288
C138	C	1.861780	0.598212	1.635288
C139	C	1.361772	0.098185	1.200724
C140	C	1.861772	0.598185	1.700724
C141	C	1.246290	0.192182	1.186784
C142	C	1.746290	0.692182	1.686784
C143	C	1.246292	0.192204	1.121349
C144	C	1.746292	0.692204	1.621349
C145	C	1.304042	0.145219	1.095606
C146	C	1.804042	0.645219	1.595606
H147	H	0.648211	0.176675	0.427543
H148	H	1.148211	0.676675	0.927543
H149	H	1.156434	0.603506	0.450022
H150	H	1.656434	1.103506	0.950022
H151	H	1.451440	0.567919	0.467802
H152	H	1.951440	1.067919	0.967802
Br153	Br	1.287172	0.280387	0.880064
Br154	Br	1.787172	0.780387	1.380064
H155	H	0.819371	0.010935	0.593792
H156	H	1.319371	0.510935	1.093792
H157	H	1.408789	0.060096	0.710689
H158	H	1.908789	0.560096	1.210689
Br159	Br	1.440158	0.034398	1.254583
Br160	Br	1.940158	0.534398	1.754583
Br161	Br	1.440116	0.753390	0.380979
Br162	Br	1.940116	1.253390	0.880979
H163	H	1.199096	0.396502	0.518887
H164	H	1.699096	0.896502	1.018887
H165	H	1.408783	0.060050	0.829395
H166	H	1.908783	0.560050	1.329395
H167	H	1.199278	0.230482	1.089039
H168	H	1.699278	0.730482	1.589039
Br169	Br	0.652849	0.223563	0.380502
Br170	Br	1.152849	0.723563	0.880502
H171	H	1.199266	0.230575	0.804111
H172	H	1.699266	0.730575	1.304111
Br173	Br	1.320929	0.010202	0.884134
Br174	Br	1.820929	0.510202	1.384134
Br175	Br	0.622857	0.012820	0.591949
Br176	Br	1.122857	0.512820	1.091949
H177	H	1.408868	0.893620	0.398995
H178	H	1.908868	1.393620	0.898995
Br179	Br	1.439985	0.504007	0.380917
Br180	Br	1.939985	1.004007	0.880917
Br181	Br	1.320934	0.010145	1.038371
Br182	Br	1.820934	0.510145	1.538371
Br183	Br	1.167963	0.786123	0.536951
Br184	Br	1.667963	1.286123	1.036951
H185	H	1.199380	0.918819	0.519031
H186	H	1.699380	1.418819	1.019031
H187	H	1.291041	0.249227	1.017000
H188	H	1.791041	0.749227	1.517000
H189	H	0.789397	0.279748	0.324104
H190	H	1.289397	0.779748	0.824104
Br191	Br	1.167901	0.256136	0.663847
Br192	Br	1.667901	0.756136	1.163847
Br193	Br	1.439908	0.349780	0.380875
Br194	Br	1.939908	0.849780	0.880875
H195	H	1.408798	0.059951	1.114327
H196	H	1.908798	0.559951	1.614327
H197	H	1.156501	0.722202	0.450049
H198	H	1.656501	1.222202	0.950049
H199	H	1.199160	0.515209	0.518912
H200	H	1.699160	1.015209	1.018912
H201	H	0.960354	0.259207	0.344682
H202	H	1.460354	0.759207	0.844682
H203	H	1.199272	0.230433	1.207749
H204	H	1.699272	0.730433	1.707749
H205	H	1.046039	0.096310	0.508095
H206	H	1.546039	0.596310	1.008095
Br207	Br	1.495654	0.699058	0.470498
Br208	Br	1.995654	1.199058	0.970498
Br209	Br	0.986261	0.009187	0.595541
Br210	Br	1.486261	0.509187	1.095541
