data_functionalizedCrystal
_audit_creation_method	'MofGen! by Chris Wilmer'
_symmetry_space_group_name_H-M	'P1'
_symmetry_Int_Tables_number	1
_symmetry_cell_setting	triclinic
loop_
_symmetry_equiv_pos_as_xyz
  x,y,z
_cell_length_a	16.959455
_cell_length_b	12.645330
_cell_length_c	16.959447
_cell_angle_alpha	89.973066
_cell_angle_beta	89.983056
_cell_angle_gamma	90.009332
loop_
_atom_site_label
_atom_site_type_symbol
_atom_site_fract_x
_atom_site_fract_y
_atom_site_fract_z
Zn1	Zn	1.208446	-0.422104	-0.446928
Zn2	Zn	1.708446	0.077896	0.053072
Zn3	Zn	1.208381	-0.599396	-0.314757
Zn4	Zn	1.708381	-0.099396	0.185243
Zn5	Zn	1.076269	-0.422137	-0.314765
Zn6	Zn	1.576269	0.077863	0.185235
Zn7	Zn	1.076257	-0.599316	-0.446896
Zn8	Zn	1.576257	-0.099316	0.053104
O9	O	1.142338	-0.510738	-0.380837
O10	O	1.642338	-0.010738	0.119163
O11	O	1.319049	-0.445641	-0.429405
O12	O	1.819049	0.054359	0.070595
O13	O	1.190833	-0.575929	-0.204147
O14	O	1.690833	-0.075929	0.295853
O15	O	1.093835	-0.273786	-0.332314
O16	O	1.593835	0.226214	0.167686
O17	O	1.319000	-0.575897	-0.332300
O18	O	1.819000	-0.075897	0.167700
O19	O	1.190945	-0.273761	-0.429413
O20	O	1.690945	0.226239	0.070587
O21	O	1.093771	-0.445698	-0.204153
O22	O	1.593771	0.054302	0.295847
O23	O	0.965656	-0.445621	-0.332283
O24	O	1.465656	0.054379	0.167717
O25	O	1.093815	-0.575761	-0.557511
O26	O	1.593815	-0.075761	-0.057511
O27	O	0.965648	-0.575794	-0.429358
O28	O	1.465648	-0.075794	0.070642
O29	O	1.190934	-0.445564	-0.557534
O30	O	1.690934	0.054436	-0.057534
O31	O	1.190822	-0.747733	-0.332269
O32	O	1.690822	-0.247733	0.167731
O33	O	1.093751	-0.747674	-0.429351
O34	O	1.593751	-0.247674	0.070649
C35	C	0.936972	-0.510703	-0.380818
C36	C	1.436972	-0.010703	0.119182
C37	C	0.849115	-0.510714	-0.380829
C38	C	1.349115	-0.010714	0.119171
C39	C	0.477620	-0.442902	-0.330395
C40	C	0.977620	0.057098	0.169605
C41	C	0.477660	-0.578662	-0.431323
C42	C	0.977660	-0.078662	0.068677
C43	C	0.560206	-0.578647	-0.431319
C44	C	1.060206	-0.078647	0.068681
C45	C	0.601463	-0.510759	-0.380850
C46	C	1.101463	-0.010759	0.119150
C47	C	0.560173	-0.442887	-0.330387
C48	C	1.060173	0.057113	0.169613
C49	C	0.601501	-0.646525	-0.481776
C50	C	1.101501	-0.146525	0.018224
C51	C	0.684052	-0.646514	-0.481772
C52	C	1.184052	-0.146514	0.018228
C53	C	0.725310	-0.578620	-0.431307
C54	C	1.225310	-0.078620	0.068693
C55	C	0.684016	-0.510744	-0.380842
C56	C	1.184016	-0.010744	0.119158
C57	C	0.725273	-0.442857	-0.330374
C58	C	1.225273	0.057143	0.169626
C59	C	0.683980	-0.374975	-0.279912
C60	C	1.183980	0.125025	0.220088
C61	C	0.601432	-0.374993	-0.279922
C62	C	1.101432	0.125007	0.220078
C63	C	0.807859	-0.578602	-0.431298
C64	C	1.307859	-0.078602	0.068702
C65	C	0.807826	-0.442842	-0.330366
C66	C	1.307826	0.057158	0.169634
C67	C	1.142300	-0.786168	-0.380823
C68	C	1.642300	-0.286168	0.119177
C69	C	1.142355	-0.903998	-0.380843
C70	C	1.642355	-0.403998	0.119157
C71	C	1.203492	-0.948872	-0.319822
C72	C	1.703492	-0.448872	0.180178
C73	C	1.203352	-1.071432	-0.319604
C74	C	1.703352	-0.571432	0.180396
C75	C	1.059059	-1.072000	-0.358461
C76	C	1.559059	-0.572000	0.141539
C77	C	1.059373	-0.949402	-0.357996
C78	C	1.559373	-0.449402	0.142004
C79	C	1.163870	-0.949077	-0.464446
C80	C	1.663870	-0.449077	0.035554
C81	C	1.165748	-1.071682	-0.464022
C82	C	1.665748	-0.571682	0.035978
C83	C	1.348507	-0.510774	-0.380855
C84	C	1.848507	-0.010774	0.119145
C85	C	1.436363	-0.510790	-0.380863
C86	C	1.936363	-0.010790	0.119137
C87	C	1.142381	-0.510650	-0.587005
C88	C	1.642381	-0.010650	-0.087005
C89	C	1.142399	-0.510613	-0.674861
C90	C	1.642399	-0.010613	-0.174861
C91	C	1.142399	-0.234233	-0.380868
C92	C	1.642399	0.265767	0.119132
C93	C	1.142424	-0.116403	-0.380881
C94	C	1.642424	0.383597	0.119119
C95	C	1.091933	-0.442696	-1.046347
C96	C	1.591933	0.057304	-0.546347
C97	C	1.193004	-0.578306	-1.046328
C98	C	1.693004	-0.078306	-0.546328
C99	C	1.192990	-0.578331	-0.963782
C100	C	1.692990	-0.078331	-0.463782
C101	C	1.142446	-0.510538	-0.922515
C102	C	1.642446	-0.010538	-0.422515
C103	C	1.091916	-0.442721	-0.963793
C104	C	1.591916	0.057279	-0.463793
C105	C	1.243514	-0.646155	-0.922497
C106	C	1.743514	-0.146155	-0.422497
C107	C	1.243502	-0.646183	-0.839946
C108	C	1.743502	-0.146183	-0.339946
C109	C	1.192961	-0.578384	-0.798677
C110	C	1.692961	-0.078384	-0.298677
C111	C	1.142429	-0.510563	-0.839961
C112	C	1.642429	-0.010563	-0.339961
C113	C	1.091885	-0.442770	-0.798694
C114	C	1.591885	0.057230	-0.298694
C115	C	1.041357	-0.374943	-0.839976
C116	C	1.541357	0.125057	-0.339976
C117	C	1.041375	-0.374921	-0.922524
C118	C	1.541375	0.125079	-0.422524
C119	C	1.192943	-0.578406	-0.716129
C120	C	1.692943	-0.078406	-0.216129
C121	C	1.091868	-0.442795	-0.716140
C122	C	1.591868	0.057205	-0.216140
C123	C	1.142342	-0.510750	-0.175470
C124	C	1.642342	-0.010750	0.324530
C125	C	1.142477	-0.510489	-0.087614
C126	C	1.642477	-0.010489	0.412386
H127	H	0.717666	-0.701787	-0.522862
H128	H	1.217666	-0.201787	-0.022862
Cl129	Cl	0.859766	-0.663938	-0.494725
Cl130	Cl	1.359766	-0.163938	0.005275
Cl131	Cl	0.735855	-0.289640	-0.216464
Cl132	Cl	1.235855	0.210360	0.283536
H133	H	1.012260	-0.919719	-0.400521
H134	H	1.512260	-0.419719	0.099479
H135	H	1.012285	-1.101130	-0.401551
H136	H	1.512285	-0.601130	0.098449
Cl137	Cl	1.298779	-1.117784	-0.341238
Cl138	Cl	1.798779	-0.617784	0.158762
Cl139	Cl	1.299194	-0.903257	-0.341179
Cl140	Cl	1.799194	-0.403257	0.158821
Cl141	Cl	1.028327	-0.357558	-0.664268
Cl142	Cl	1.528327	0.142442	-0.164268
Cl143	Cl	0.977857	-0.289665	-0.974426
Cl144	Cl	1.477857	0.210335	-0.474426
Cl145	Cl	0.859685	-0.357486	-0.266920
Cl146	Cl	1.359685	0.142514	0.233080
H147	H	1.234149	-0.633508	-1.079933
H148	H	1.734149	-0.133508	-0.579933
Cl149	Cl	1.307026	-0.731445	-0.788057
Cl150	Cl	1.807026	-0.231445	-0.288057
H151	H	1.189114	-1.100840	-0.257669
H152	H	1.689114	-0.600840	0.242331
H153	H	0.567804	-0.319729	-0.238838
H154	H	1.067804	0.180271	0.261162
H155	H	1.189411	-0.918136	-0.258229
H156	H	1.689411	-0.418136	0.241771
H157	H	0.443996	-0.387631	-0.289312
H158	H	0.943996	0.112369	0.210688
Cl159	Cl	1.028417	-0.357428	-1.098241
Cl160	Cl	1.528417	0.142572	-0.598241
H161	H	1.041169	-0.920887	-0.296891
H162	H	1.541169	-0.420887	0.203109
H163	H	0.444064	-0.633939	-0.472408
H164	H	0.944064	-0.133939	0.027592
H165	H	1.000200	-0.319750	-0.806365
H166	H	1.500200	0.180250	-0.306365
Cl167	Cl	1.030495	-1.119522	-0.265170
Cl168	Cl	1.530495	-0.619522	0.234830
H169	H	1.223604	-0.918082	-0.484877
H170	H	1.723604	-0.418082	0.015123
H171	H	0.567904	-0.701803	-0.522859
H172	H	1.067904	-0.201803	-0.022859
H173	H	1.284655	-0.701360	-0.956103
H174	H	1.784655	-0.201360	-0.456103
Cl175	Cl	1.256453	-0.663675	-0.664235
Cl176	Cl	1.756453	-0.163675	-0.164235
Cl177	Cl	1.102073	-1.118935	-0.537973
Cl178	Cl	1.602073	-0.618935	-0.037973
Cl179	Cl	1.260462	-1.116491	-0.490138
Cl180	Cl	1.760462	-0.616491	0.009862
Cl181	Cl	1.095139	-0.904246	-0.534642
Cl182	Cl	1.595139	-0.404246	-0.034642
