data_functionalizedCrystal
_audit_creation_method	'MofGen! by Chris Wilmer'
_symmetry_space_group_name_H-M	'P1'
_symmetry_Int_Tables_number	1
_symmetry_cell_setting	triclinic
loop_
_symmetry_equiv_pos_as_xyz
  x,y,z
_cell_length_a	6.817900
_cell_length_b	7.190339
_cell_length_c	10.992410
_cell_angle_alpha	92.136017
_cell_angle_beta	108.764651
_cell_angle_gamma	60.611724
loop_
_atom_site_label
_atom_site_type_symbol
_atom_site_fract_x
_atom_site_fract_y
_atom_site_fract_z
V1	V	-4.174312	0.295095	-0.399685
O2	O	-4.069490	-0.014180	-0.393011
O3	O	-4.210924	0.585123	-0.396053
O4	O	-4.150981	0.290556	-0.574411
O5	O	-4.129848	0.282426	-0.213418
V6	V	-4.643676	0.258102	-0.377515
O7	O	-4.466630	0.376242	-0.448316
O8	O	-4.801557	0.176955	-0.328884
O9	O	-4.383858	-0.031927	-0.381147
O10	O	-4.865896	0.567377	-0.384189
O11	O	-4.805537	0.270770	-0.563782
O12	O	-4.443802	0.262641	-0.202789
C13	C	-3.999329	0.280073	-0.617028
C14	C	-4.062099	0.278281	-0.759862
C15	C	-4.075813	0.655829	-0.389521
C16	C	-4.189296	0.897388	-0.387685
C17	C	-3.925898	0.261951	-0.955036
C18	C	-3.860907	0.264699	-0.806544
C19	C	-4.302919	0.488578	-0.836319
C20	C	-4.366854	0.486719	-0.984891
C21	C	-4.161735	0.079506	-0.948113
C22	C	-4.090823	0.078509	-0.799103
C23	C	-4.258797	0.273131	-0.160165
C24	C	-4.175262	0.274912	-0.017330
H25	H	-3.777704	0.109698	-0.974333
O26	O	-3.982385	-0.132030	-0.975745
H27	H	-3.976203	-0.267236	-0.925883
H28	H	-3.832701	0.407049	-0.781291
O29	O	-3.623472	0.064413	-0.736508
H30	H	-3.637830	-0.080658	-0.760887
O31	O	-3.930688	0.447921	-1.018020
H32	H	-4.109904	0.549548	-1.093496
O33	O	-4.386097	0.682692	-1.045571
H34	H	-4.569782	0.783621	-1.117285
O35	O	-4.278339	0.075171	-0.756014
H36	H	-4.354350	0.216491	-0.705746
H37	H	-4.342275	0.087149	-0.988930
H38	H	-4.456863	0.506111	-0.807462
O39	O	-4.612865	0.510949	-1.041305
H40	H	-4.685693	0.523959	-0.962447
H41	H	-4.287347	0.636899	-0.810257
H42	H	-3.915904	-0.077060	-0.747224
