data_functionalizedCrystal
_audit_creation_method	'MofGen! by Chris Wilmer'
_symmetry_space_group_name_H-M	'P1'
_symmetry_Int_Tables_number	1
_symmetry_cell_setting	triclinic
loop_
_symmetry_equiv_pos_as_xyz
  x,y,z
_cell_length_a	14.853567
_cell_length_b	16.974800
_cell_length_c	16.053789
_cell_angle_alpha	89.238068
_cell_angle_beta	92.881114
_cell_angle_gamma	83.511964
loop_
_atom_site_label
_atom_site_type_symbol
_atom_site_fract_x
_atom_site_fract_y
_atom_site_fract_z
O1	O	0.114767	1.049210	-0.001497
O2	O	0.130173	0.819685	0.014018
O3	O	-0.008796	0.940579	0.005848
O4	O	0.253737	0.928317	0.006672
O5	O	-0.015553	0.934631	-0.132609
O6	O	0.123417	0.813737	-0.124439
O7	O	0.108010	1.043262	-0.139954
Zn8	Zn	0.114641	0.927555	-0.154180
Zn9	Zn	0.123543	0.935392	0.028243
O10	O	0.246980	0.922369	-0.131785
C11	C	0.126337	0.787337	-0.053225
C12	C	0.124961	0.699812	-0.047308
C13	C	0.120630	0.655455	-0.120003
C14	C	0.119322	0.573218	-0.114446
C15	C	0.122354	0.535338	-0.036193
C16	C	0.126683	0.579701	0.036507
C17	C	0.127984	0.661938	0.030949
C18	C	0.118853	0.289735	-0.011478
C19	C	0.117554	0.207492	-0.005926
C20	C	0.110192	0.201015	-0.156880
C21	C	0.111499	0.283252	-0.162431
C22	C	0.115823	0.327609	-0.089731
N23	N	0.121020	0.451278	-0.030511
N24	N	0.117150	0.411668	-0.095413
C25	C	-0.045760	0.937049	-0.063340
C26	C	-0.145833	0.935385	-0.063220
C27	C	-0.557892	0.856532	-0.057906
C28	C	-0.580040	1.000157	-0.067615
C29	C	-0.486015	1.001723	-0.067716
C30	C	-0.427925	0.930692	-0.062913
C31	C	-0.463859	0.858096	-0.058009
C32	C	-0.450074	1.074317	-0.072628
C33	C	-0.356045	1.075886	-0.072730
C34	C	-0.297952	1.004855	-0.067921
C35	C	-0.333891	0.932255	-0.063016
C36	C	-0.275801	0.861225	-0.058214
C37	C	-0.311738	0.788625	-0.053303
C38	C	-0.405766	0.787065	-0.053201
C39	C	-0.203924	1.006415	-0.068023
C40	C	-0.181767	0.862788	-0.058317
C41	C	0.283944	0.925898	-0.062595
C42	C	0.384017	0.927563	-0.062709
C43	C	0.111847	1.075610	-0.072710
C44	C	0.113223	1.163135	-0.078621
N45	N	0.108564	0.922213	-0.278679
C46	C	0.160931	0.968218	-0.325481
C47	C	0.156675	0.964491	-0.412636
C48	C	0.100056	0.914754	-0.452988
C49	C	0.047683	0.868747	-0.406180
C50	C	0.051935	0.872479	-0.319027
C51	C	0.081491	0.898465	-0.713297
C52	C	0.077245	0.894736	-0.800456
C53	C	0.186236	0.990481	-0.806906
C54	C	0.190487	0.994204	-0.719751
C55	C	0.138111	0.948201	-0.672951
N56	N	0.095706	0.910942	-0.542074
N57	N	0.142457	0.952018	-0.583867
N58	N	0.129612	0.940741	0.152742
H59	H	0.106670	0.164891	-0.216069
Cl60	Cl	-0.450950	0.695806	-0.047026
H61	H	0.001578	0.828255	-0.439042
Cl62	Cl	0.113893	0.517456	-0.205839
H63	H	-0.627343	1.057986	-0.071531
H64	H	0.109026	0.314089	-0.226153
H65	H	0.009293	0.835016	-0.280922
Cl66	Cl	-0.158749	1.097675	-0.074211
H67	H	-0.497378	1.132146	-0.076545
H68	H	0.207042	1.008714	-0.292633
Cl69	Cl	0.116824	0.703066	-0.218384
H70	H	0.120026	0.176653	0.057800
H71	H	0.129145	0.548854	0.100223
Cl72	Cl	0.124291	0.345487	0.079918
Cl73	Cl	-0.310874	1.167152	-0.078889
Cl74	Cl	0.133425	0.717702	0.122342
Cl75	Cl	-0.108746	0.773487	-0.052272
Cl76	Cl	-0.238700	0.699333	-0.047273
H77	H	-0.587156	0.797424	-0.053905
Cl78	Cl	0.222513	1.022328	-0.471468
H79	H	0.236590	1.034708	-0.686903
H80	H	0.228877	1.027935	-0.845020
Cl81	Cl	0.006060	0.832206	-0.851183
H82	H	0.038842	0.861006	-0.675203
