data_functionalizedCrystal
_audit_creation_method	'MofGen! by Chris Wilmer'
_symmetry_space_group_name_H-M	'P1'
_symmetry_Int_Tables_number	1
_symmetry_cell_setting	triclinic
loop_
_symmetry_equiv_pos_as_xyz
  x,y,z
_cell_length_a	23.532407
_cell_length_b	15.186229
_cell_length_c	16.109301
_cell_angle_alpha	89.994833
_cell_angle_beta	83.155079
_cell_angle_gamma	90.001988
loop_
_atom_site_label
_atom_site_type_symbol
_atom_site_fract_x
_atom_site_fract_y
_atom_site_fract_z
O1	O	0.755631	-0.073122	0.100924
O2	O	1.255631	0.426878	0.600924
O3	O	0.589822	-0.073148	0.115528
O4	O	1.089822	0.426852	0.615528
O5	O	0.677281	-0.073125	-0.012841
O6	O	1.177281	0.426875	0.487159
O7	O	0.668171	-0.073144	0.229293
O8	O	1.168171	0.426856	0.729293
O9	O	0.677275	0.073332	-0.012843
O10	O	1.177275	0.573332	0.487157
O11	O	0.589816	0.073310	0.115526
O12	O	1.089816	0.573310	0.615526
O13	O	0.755625	0.073336	0.100923
O14	O	1.255625	0.573336	0.600923
Zn15	Zn	0.672720	0.096576	0.108224
Zn16	Zn	1.172720	0.596576	0.608224
Zn17	Zn	0.672727	-0.096388	0.108226
Zn18	Zn	1.172727	0.403612	0.608226
O19	O	0.668165	0.073313	0.229291
O20	O	1.168165	0.573313	0.729291
C21	C	0.568601	0.000078	0.115155
C22	C	1.068601	0.500078	0.615155
C23	C	0.505380	0.000068	0.114037
C24	C	1.005380	0.500068	0.614037
N25	N	0.672718	0.228269	0.108222
N26	N	1.172718	0.728269	0.608222
N27	N	0.672733	-0.228081	0.108222
N28	N	1.172733	0.271919	0.608222
C29	C	0.106531	0.000102	0.182990
C30	C	0.606531	0.500102	0.682990
C31	C	0.047127	0.000108	0.181951
C32	C	0.547127	0.500108	0.681951
O33	O	0.010619	0.000135	0.245872
O34	O	0.510619	0.500135	0.745872
N35	N	0.024220	0.000112	0.105636
N36	N	0.524220	0.500112	0.605636
C37	C	0.060719	0.000121	0.030355
C38	C	0.560719	0.500121	0.530355
O39	O	0.035780	0.000126	-0.034652
O40	O	0.535780	0.500126	0.465348
C41	C	0.120122	0.000121	0.031395
C42	C	0.620122	0.500121	0.531395
C43	C	0.143027	0.000108	0.107715
C44	C	0.643027	0.500108	0.607715
C45	C	0.129436	0.000090	0.259304
C46	C	0.629436	0.500090	0.759304
C47	C	0.188836	0.000083	0.260342
C48	C	0.688836	0.500083	0.760342
C49	C	0.225331	0.000088	0.185066
C50	C	0.725331	0.500088	0.685066
C51	C	0.202427	0.000101	0.108753
C52	C	0.702427	0.500101	0.608753
C53	C	0.156621	0.000136	-0.043886
C54	C	0.656621	0.500136	0.456114
C55	C	0.216027	0.000137	-0.042840
C56	C	0.716027	0.500137	0.457160
C57	C	0.238932	0.000124	0.033480
C58	C	0.738932	0.500124	0.533480
C59	C	0.298322	0.000099	0.034516
C60	C	0.798322	0.500099	0.534516
N61	N	0.321229	0.000094	0.110831
N62	N	0.821229	0.500094	0.610831
C63	C	0.284734	0.000089	0.186106
C64	C	0.784734	0.500089	0.686106
C65	C	-0.064031	0.000120	0.028178
C66	C	0.435969	0.500120	0.528178
C67	C	-0.123433	0.000113	0.027138
C68	C	0.376567	0.500113	0.527138
C69	C	-0.137021	0.000102	0.178734
C70	C	0.362979	0.500102	0.678734
C71	C	-0.077618	0.000103	0.179774
C72	C	0.422382	0.500103	0.679774
C73	C	-0.041123	0.000116	0.104493
C74	C	0.458877	0.500116	0.604493
C75	C	0.409479	0.000073	0.188281
C76	C	0.909479	0.500073	0.688281
C77	C	0.468885	0.000062	0.189312
C78	C	0.968885	0.500062	0.689312
C79	C	0.482468	0.000078	0.037716
C80	C	0.982468	0.500078	0.537716
C81	C	0.423067	0.000084	0.036684
C82	C	0.923067	0.500084	0.536684
C83	C	0.386574	0.000085	0.111973
C84	C	0.886574	0.500085	0.611973
O85	O	0.334865	0.000076	-0.029371
O86	O	0.834865	0.500076	0.470629
O87	O	0.309682	0.000095	0.251102
O88	O	0.809682	0.500095	0.751102
C89	C	0.776846	0.000108	0.101295
C90	C	1.276846	0.500108	0.601295
C91	C	0.840067	0.000112	0.102414
C92	C	1.340067	0.500112	0.602414
C93	C	0.676909	0.000104	-0.043814
C94	C	1.176909	0.500104	0.456186
C95	C	0.675803	0.000105	-0.136100
C96	C	1.175803	0.500105	0.363900
C97	C	0.711459	0.454002	0.051399
C98	C	1.211459	0.954002	0.551399
C99	C	0.711461	0.546191	0.051397
C100	C	1.211461	1.046191	0.551397
C101	C	0.633988	0.546180	0.165047
C102	C	1.133988	1.046180	0.665047
C103	C	0.633984	0.453992	0.165044
C104	C	1.133984	0.953992	0.665044
C105	C	0.672723	0.407905	0.108222
C106	C	1.172723	0.907905	0.608222
C107	C	0.672729	0.592283	0.108222
C108	C	1.172729	1.092283	0.608222
C109	C	0.672730	0.692239	0.108220
C110	C	1.172730	1.192239	0.608220
C111	C	0.672720	0.307943	0.108222
C112	C	1.172720	0.807943	0.608222
C113	C	0.725127	0.000099	-0.358760
C114	C	1.225127	0.500099	0.141240
C115	C	0.724083	0.000092	-0.445473
C116	C	1.224083	0.500092	0.054527
C117	C	0.620315	0.000079	-0.424782
C118	C	1.120315	0.500079	0.075218
C119	C	0.621360	0.000080	-0.338072
C120	C	1.121360	0.500080	0.161928
C121	C	0.673768	0.000094	-0.305063
C122	C	1.173768	0.500094	0.194937
C123	C	0.671679	0.000086	-0.478486
C124	C	1.171679	0.500086	0.021514
C125	C	0.670547	0.000078	-0.572503
C126	C	1.170547	0.500078	-0.072503
C127	C	0.674900	0.000101	-0.211040
C128	C	1.174900	0.500101	0.288960
C129	C	0.668537	0.000082	0.260264
C130	C	1.168537	0.500082	0.760264
C131	C	0.669644	0.000075	0.352551
C132	C	1.169644	0.500075	0.852551
H133	H	0.379772	0.000076	0.249588
H134	H	0.879772	0.500076	0.749588
O135	O	0.753240	0.595913	-0.009888
O136	O	1.253240	1.095913	0.490112
H137	H	0.780906	0.637916	0.024909
H138	H	1.280906	1.137916	0.524909
H139	H	0.602438	0.416458	0.211316
H140	H	1.102438	0.916458	0.711316
O141	O	0.753230	0.404303	-0.009908
O142	O	1.253230	0.904303	0.490092
H143	H	0.729255	0.362313	-0.050131
H144	H	1.229255	0.862313	0.449869
O145	O	0.779478	0.000108	-0.503392
O146	O	1.279478	0.500108	-0.003392
H147	H	0.816093	0.000127	-0.465868
H148	H	1.316093	0.500127	0.034132
O149	O	-0.024673	0.000121	-0.053026
O150	O	0.475327	0.500121	0.446974
H151	H	0.002714	0.059819	-0.056191
H152	H	0.502714	0.559819	0.443809
H153	H	0.579534	0.000073	-0.294349
H154	H	1.079534	0.500073	0.205651
O155	O	-0.176389	0.000111	0.259929
O156	O	0.323611	0.500111	0.759929
H157	H	-0.221542	0.000125	0.246378
H158	H	0.278458	0.500125	0.746378
O159	O	0.493590	0.000062	0.271631
O160	O	0.993590	0.500062	0.771631
H161	H	0.458229	0.000073	0.323798
H162	H	0.958229	0.500073	0.823798
H163	H	0.602449	0.583713	0.211312
H164	H	1.102449	1.083713	0.711312
H165	H	0.577647	0.000068	-0.451669
H166	H	1.077647	0.500068	0.048331
O167	O	0.781649	0.000097	-0.323154
O168	O	1.281649	0.500097	0.176846
H169	H	0.817187	0.000087	-0.375064
H170	H	1.317187	0.500087	0.124936
H171	H	0.099727	0.000088	0.320606
H172	H	0.599727	0.500088	0.820606
H173	H	-0.058974	0.000097	0.241920
H174	H	0.441026	0.500097	0.741920
O175	O	0.213537	0.000094	0.342658
O176	O	0.713537	0.500094	0.842658
H177	H	0.178173	0.000106	0.394820
H178	H	0.678173	0.500106	0.894820
H179	H	0.137983	0.000148	-0.106033
H180	H	0.637983	0.500148	0.393967
O181	O	-0.148135	0.000126	-0.055178
O182	O	0.351865	0.500126	0.444822
H183	H	-0.112772	0.000137	-0.107342
H184	H	0.387228	0.500137	0.392658
H185	H	0.404418	0.000083	-0.025462
H186	H	0.904418	0.500083	0.474538
O187	O	0.255391	0.000147	-0.124037
O188	O	0.755391	0.500147	0.375963
H189	H	0.229480	0.000151	-0.177275
H190	H	0.729480	0.500151	0.322725
O191	O	0.521835	0.000097	-0.043473
O192	O	1.021835	0.500097	0.456527
H193	H	0.566988	0.000104	-0.029921
H194	H	1.066988	0.500104	0.470079
