data_functionalizedCrystal
_audit_creation_method	'MofGen! by Chris Wilmer'
_symmetry_space_group_name_H-M	'P1'
_symmetry_Int_Tables_number	1
_symmetry_cell_setting	triclinic
loop_
_symmetry_equiv_pos_as_xyz
  x,y,z
_cell_length_a	11.792241
_cell_length_b	14.519709
_cell_length_c	10.268362
_cell_angle_alpha	89.993769
_cell_angle_beta	89.999626
_cell_angle_gamma	83.936780
loop_
_atom_site_label
_atom_site_type_symbol
_atom_site_fract_x
_atom_site_fract_y
_atom_site_fract_z
O1	O	1.506208	0.126405	-0.108177
O2	O	1.839541	0.459738	0.225157
O3	O	2.172875	0.793071	0.558490
O4	O	1.175795	0.139432	-0.108207
O5	O	1.509128	0.472765	0.225126
O6	O	1.842461	0.806099	0.558459
O7	O	1.349762	-0.001288	-0.108180
O8	O	1.683095	0.332045	0.225154
O9	O	2.016429	0.665378	0.558487
O10	O	1.332241	0.267125	-0.108205
O11	O	1.665574	0.600458	0.225129
O12	O	1.998908	0.933791	0.558462
O13	O	1.349747	-0.001294	0.108421
O14	O	1.683080	0.332039	0.441754
O15	O	2.016413	0.665373	0.775088
O16	O	1.175780	0.139426	0.108393
O17	O	1.509113	0.472759	0.441726
O18	O	1.842446	0.806093	0.775060
O19	O	1.506193	0.126399	0.108424
O20	O	1.839526	0.459732	0.441757
O21	O	2.172860	0.793065	0.775090
Cu22	Cu	1.340985	0.132912	0.128186
Cu23	Cu	1.674318	0.466245	0.461519
Cu24	Cu	2.007652	0.799578	0.794853
Cu25	Cu	1.341003	0.132919	-0.127969
Cu26	Cu	1.674336	0.466252	0.205364
Cu27	Cu	2.007669	0.799585	0.538697
O28	O	1.332226	0.267119	0.108396
O29	O	1.665559	0.600452	0.441729
O30	O	1.998893	0.933785	0.775063
C31	C	1.133501	0.138611	0.000089
C32	C	1.466834	0.471944	0.333422
C33	C	1.800167	0.805277	0.666756
C34	C	1.007501	0.136161	0.000078
C35	C	1.340834	0.469495	0.333411
C36	C	1.674167	0.802828	0.666744
C37	C	0.776813	0.131657	0.000116
C38	C	1.110147	0.464991	0.333449
C39	C	1.443480	0.798324	0.666782
C40	C	0.905185	0.134160	0.000095
C41	C	1.238518	0.467493	0.333428
C42	C	1.571851	0.800827	0.666761
C43	C	1.348938	-0.035654	0.000121
C44	C	1.682271	0.297679	0.333454
C45	C	2.015604	0.631013	0.666788
C46	C	1.346491	-0.138044	0.000121
C47	C	1.679824	0.195289	0.333455
C48	C	2.013158	0.528623	0.666788
C49	C	1.337483	-0.512973	0.000087
C50	C	1.670816	-0.179640	0.333420
C51	C	2.004149	0.153694	0.666753
C52	C	1.339984	-0.408656	0.000097
C53	C	1.673318	-0.075322	0.333430
C54	C	2.006651	0.258011	0.666763
C55	C	1.341987	-0.325512	0.000105
C56	C	1.675320	0.007822	0.333439
C57	C	2.008653	0.341155	0.666772
C58	C	1.344489	-0.221188	0.000113
C59	C	1.677822	0.112145	0.333446
C60	C	2.011155	0.445479	0.666780
C61	C	1.548487	0.127220	0.000124
C62	C	1.881820	0.460553	0.333458
C63	C	2.215154	0.793887	0.666791
C64	C	1.674487	0.129669	0.000127
C65	C	2.007820	0.463003	0.333461
C66	C	2.341154	0.796336	0.666794
C67	C	1.333050	0.301484	0.000093
C68	C	1.666383	0.634818	0.333426
C69	C	1.999717	0.968151	0.666759
C70	C	1.335497	0.403875	0.000084
C71	C	1.668830	0.737208	0.333417
C72	C	2.002164	1.070541	0.666750
N73	N	1.340981	0.132906	0.308352
N74	N	1.674314	0.466240	0.641685
N75	N	2.007647	0.799573	0.975018
N76	N	1.341016	0.132917	-0.308135
N77	N	1.674349	0.466250	0.025198
N78	N	2.007683	0.799584	0.358531
C79	C	1.340997	0.132917	0.574022
C80	C	1.674330	0.466250	0.907356
C81	C	2.007664	0.799584	1.240689
C82	C	1.340984	0.132914	0.426184
C83	C	1.674318	0.466247	0.759518
C84	C	2.007651	0.799580	1.092851
