data_functionalizedCrystal
_audit_creation_method	'MofGen! by Chris Wilmer'
_symmetry_space_group_name_H-M	'P1'
_symmetry_Int_Tables_number	1
_symmetry_cell_setting	triclinic
loop_
_symmetry_equiv_pos_as_xyz
  x,y,z
_cell_length_a	42.795290
_cell_length_b	42.779590
_cell_length_c	42.784927
_cell_angle_alpha	119.999932
_cell_angle_beta	89.999502
_cell_angle_gamma	120.011923
loop_
_atom_site_label
_atom_site_type_symbol
_atom_site_fract_x
_atom_site_fract_y
_atom_site_fract_z
O1	O	0.214288	-0.275767	-0.009302
O2	O	0.168865	-0.211748	0.009251
O3	O	0.168848	-0.275766	-0.054754
O4	O	0.214305	-0.211749	0.054703
O5	O	0.220834	-0.223766	-0.054749
O6	O	0.220851	-0.159748	0.009256
O7	O	0.266274	-0.223768	-0.009298
Cu8	Cu	0.248309	-0.187010	-0.000021
Cu9	Cu	0.186830	-0.248505	-0.000026
O10	O	0.266291	-0.159749	0.054707
C11	C	0.079112	0.005332	0.028111
C12	C	0.098001	-0.013389	0.028378
C13	C	0.022515	-0.051278	0.028115
C14	C	0.041490	-0.069913	0.028382
C15	C	0.079101	-0.051276	0.028117
C16	C	0.041502	-0.013390	0.028377
C17	C	0.113690	0.131593	0.017853
C18	C	0.131508	0.167354	0.014952
C19	C	0.168778	0.185293	0.013497
C20	C	0.188096	0.224062	0.010345
C21	C	0.188230	0.167471	0.014946
C22	C	0.170415	0.131717	0.017851
C23	C	0.133143	0.113778	0.019304
C24	C	0.170748	-0.096093	0.017875
C25	C	0.188679	-0.116808	0.014980
C26	C	0.169338	-0.155545	0.013527
C27	C	0.188774	-0.178013	0.010383
C28	C	0.132063	-0.173564	0.014974
C29	C	0.114135	-0.152845	0.017876
C30	C	0.133481	-0.114108	0.019324
C31	C	-0.113950	-0.096099	0.017868
C32	C	-0.152599	-0.116819	0.014966
C33	C	-0.171992	-0.155556	0.013515
C34	C	-0.213898	-0.178025	0.010367
C35	C	-0.152736	-0.173573	0.014962
C36	C	-0.114089	-0.152853	0.017862
C37	C	-0.094697	-0.114113	0.019318
C38	C	0.113826	0.075006	0.022451
C39	C	0.098429	0.044101	0.024961
C40	C	-0.019389	-0.073744	0.024969
C41	C	-0.052791	-0.091650	0.022463
C42	C	0.098540	-0.073741	0.024972
C43	C	0.114037	-0.091646	0.022467
O44	O	-0.273157	-0.211746	0.054701
O45	O	-0.291722	-0.275780	-0.054757
O46	O	-0.227719	-0.211753	0.009245
O47	O	-0.337160	-0.275773	-0.009301
O48	O	-0.227710	-0.159761	0.009240
O49	O	-0.291713	-0.223788	-0.054762
O50	O	-0.273148	-0.159753	0.054696
Cu51	Cu	-0.282430	-0.187023	-0.000034
Cu52	Cu	-0.282441	-0.248510	-0.000028
O53	O	-0.337151	-0.223780	-0.009306
C54	C	0.079020	-0.384495	-0.361619
C55	C	0.041404	-0.422386	-0.380519
C56	C	0.079020	-0.384495	-0.305021
C57	C	0.041404	-0.422386	-0.324006
C58	C	0.022420	-0.441110	-0.361623
C59	C	0.097918	-0.365857	-0.324002
C60	C	0.170704	-0.282540	-0.396172
C61	C	0.188646	-0.261696	-0.413985
C62	C	0.169306	-0.279587	-0.451261
C63	C	0.188754	-0.256984	-0.470575
C64	C	0.132024	-0.318324	-0.470725
C65	C	0.114088	-0.339168	-0.452914
C66	C	0.133429	-0.321274	-0.415636
C67	C	-0.114067	-0.567386	-0.453311
C68	C	-0.152719	-0.603151	-0.471254
C69	C	-0.172110	-0.621092	-0.451917
C70	C	-0.214019	-0.659865	-0.471366
C71	C	-0.152844	-0.603267	-0.414636
C72	C	-0.114193	-0.567509	-0.396696
C73	C	-0.094806	-0.549569	-0.416038
C74	C	0.170704	-0.282540	-0.168526
C75	C	0.188643	-0.261694	-0.129871
C76	C	0.169303	-0.279584	-0.110483
C77	C	0.188752	-0.256982	-0.068571
C78	C	0.132023	-0.318318	-0.129750
C79	C	0.114086	-0.339162	-0.168403
C80	C	0.133431	-0.321271	-0.187790
C81	C	0.113976	-0.343876	-0.396324
C82	C	0.098471	-0.361893	-0.380931
C83	C	0.098470	-0.361893	-0.263110
C84	C	0.113975	-0.343877	-0.229702
C85	C	-0.019489	-0.479884	-0.381075
C86	C	-0.052895	-0.510792	-0.396581
C87	C	0.356010	-0.440874	-0.028197
C88	C	0.393621	-0.422151	-0.028460
C89	C	0.356026	-0.384258	-0.028191
C90	C	0.393638	-0.365620	-0.028454
C91	C	0.412611	-0.384259	-0.028192
C92	C	0.337123	-0.422150	-0.028459
C93	C	0.264318	-0.567153	-0.017962
C94	C	0.246372	-0.602919	-0.015069
C95	C	0.265702	-0.620860	-0.013616
C96	C	0.246248	-0.659634	-0.010471
C97	C	0.302978	-0.603035	-0.015061
C98	C	0.320919	-0.567276	-0.017959
C99	C	0.301587	-0.549335	-0.019410
C100	C	0.549075	-0.339440	-0.017942
C101	C	0.587723	-0.318722	-0.015043
C102	C	0.607121	-0.279981	-0.013583
C103	C	0.649026	-0.257511	-0.010435
C104	C	0.587865	-0.261961	-0.015027
C105	C	0.549217	-0.282681	-0.017933
C106	C	0.529825	-0.321423	-0.019388
C107	C	0.264384	-0.339434	-0.017940
C108	C	0.246456	-0.318712	-0.015035
C109	C	0.265802	-0.279971	-0.013577
C110	C	0.246366	-0.257500	-0.010426
C111	C	0.303076	-0.261951	-0.015020
C112	C	0.321002	-0.282673	-0.017923
C113	C	0.301651	-0.321418	-0.019386
C114	C	0.321046	-0.510557	-0.022550
C115	C	0.336555	-0.479649	-0.025054
C116	C	0.336589	-0.361790	-0.025042
C117	C	0.321094	-0.343882	-0.022533
C118	C	0.454516	-0.361793	-0.025043
C119	C	0.487918	-0.343886	-0.022535
O120	O	0.266145	0.327673	-0.009342
O121	O	0.220686	0.236754	0.009214
O122	O	0.220680	0.236740	-0.054792
O123	O	0.266150	0.327687	0.054665
O124	O	0.168708	0.236739	-0.054793
O125	O	0.168714	0.236753	0.009213
O126	O	0.214173	0.327672	-0.009343
Cu127	Cu	0.186698	0.282213	-0.000065
Cu128	Cu	0.248161	0.282214	-0.000063
O129	O	0.214178	0.327686	0.054663
O130	O	-0.337288	-0.763489	-0.496918
O131	O	-0.227839	-0.672558	-0.451461
O132	O	-0.291822	-0.672557	-0.451459
O133	O	-0.273305	-0.763490	-0.496920
O134	O	-0.291823	-0.672558	-0.503444
O135	O	-0.227840	-0.672559	-0.503446
O136	O	-0.337289	-0.763490	-0.548903
Cu137	Cu	-0.282565	-0.718025	-0.530921
Cu138	Cu	-0.282563	-0.718024	-0.469443
O139	O	-0.273306	-0.763491	-0.548905
O140	O	0.266276	-0.223766	-0.496636
O141	O	0.220852	-0.159746	-0.451176
O142	O	0.220834	-0.223765	-0.451183
O143	O	0.266294	-0.159747	-0.496629
O144	O	0.168849	-0.275764	-0.503171
O145	O	0.168867	-0.211745	-0.503165
O146	O	0.214291	-0.275765	-0.548624
Cu147	Cu	0.186832	-0.248503	-0.530641
Cu148	Cu	0.248311	-0.187008	-0.469159
O149	O	0.214309	-0.211746	-0.548618
C150	C	0.412476	0.005352	0.361576
C151	C	0.393493	-0.013372	0.380472
C152	C	0.355876	-0.051263	0.304974
C153	C	0.336979	-0.069901	0.323955
C154	C	0.355876	-0.051262	0.361572
C155	C	0.393493	-0.013372	0.323959
C156	C	0.548963	0.131628	0.396146
C157	C	0.587615	0.167393	0.413962
C158	C	0.607005	0.185334	0.451239
C159	C	0.648916	0.224107	0.470556
C160	C	0.587739	0.167509	0.470698
C161	C	0.549089	0.131751	0.452883
C162	C	0.529701	0.113811	0.415605
C163	C	0.321312	-0.096083	0.453248
C164	C	0.303497	-0.116800	0.471187
C165	C	0.266222	-0.155541	0.451846
C166	C	0.246904	-0.178011	0.471290
C167	C	0.246761	-0.173561	0.414565
C168	C	0.264573	-0.152840	0.396629
C169	C	0.301853	-0.114099	0.415975
C170	C	0.321310	-0.096085	0.168483
C171	C	0.303496	-0.116806	0.129828
C172	C	0.266220	-0.155547	0.110436
C173	C	0.246903	-0.178017	0.068524
C174	C	0.246761	-0.173566	0.129699
C175	C	0.264577	-0.152845	0.168352
C176	C	0.301851	-0.114101	0.187743
C177	C	0.487792	0.075034	0.396289
C178	C	0.454385	0.044126	0.380892
C179	C	0.336561	-0.073730	0.263063
C180	C	0.321165	-0.091637	0.229655
C181	C	0.336562	-0.073729	0.381020
C182	C	0.321166	-0.091636	0.396523
C183	C	-0.310620	-0.440906	-0.361623
C184	C	-0.310881	-0.422187	-0.380523
C185	C	-0.310611	-0.384290	-0.305026
C186	C	-0.310872	-0.365657	-0.324012
C187	C	-0.310610	-0.384298	-0.361628
C188	C	-0.310882	-0.422179	-0.324007
C189	C	-0.300398	-0.567171	-0.396173
C190	C	-0.297508	-0.602934	-0.413985
C191	C	-0.296056	-0.620877	-0.451261
C192	C	-0.292915	-0.659648	-0.470573
C193	C	-0.297498	-0.603058	-0.470725
C194	C	-0.300394	-0.567301	-0.452915
C195	C	-0.301844	-0.549358	-0.415637
C196	C	-0.300355	-0.339494	-0.453316
C197	C	-0.297455	-0.318781	-0.471259
C198	C	-0.295992	-0.280043	-0.451923
C199	C	-0.292841	-0.257578	-0.471372
C200	C	-0.297435	-0.262020	-0.414642
C201	C	-0.300343	-0.282736	-0.396703
C202	C	-0.301800	-0.321475	-0.416044
C203	C	-0.300361	-0.339454	-0.168532
C204	C	-0.297456	-0.318730	-0.129878
C205	C	-0.295995	-0.279991	-0.110490
C206	C	-0.292844	-0.257517	-0.068578
C207	C	-0.297436	-0.261976	-0.129758
C208	C	-0.300339	-0.282700	-0.168411
C209	C	-0.301804	-0.321443	-0.187796
C210	C	-0.304980	-0.510583	-0.396326
C211	C	-0.307481	-0.479677	-0.380934
C212	C	-0.307462	-0.361820	-0.263115
C213	C	-0.304952	-0.343910	-0.229708
C214	C	-0.307459	-0.361837	-0.381080
C215	C	-0.304949	-0.343933	-0.396587
C216	C	-0.254260	-0.050990	0.361567
C217	C	-0.253989	-0.013102	0.380462
C218	C	-0.254259	-0.050999	0.304965
C219	C	-0.253988	-0.013110	0.323945
C220	C	-0.254250	0.005617	0.361562
C221	C	-0.253998	-0.069631	0.323951
C222	C	-0.264523	-0.152929	0.396139
C223	C	-0.267424	-0.173767	0.413957
C224	C	-0.268875	-0.155874	0.451232
C225	C	-0.272027	-0.178471	0.470551
C226	C	-0.267423	-0.117138	0.470691
C227	C	-0.264517	-0.096300	0.452875
C228	C	-0.263067	-0.114197	0.415598
C229	C	-0.264474	0.131890	0.453233
C230	C	-0.267365	0.167652	0.471171
C231	C	-0.268817	0.185587	0.451829
C232	C	-0.271957	0.224359	0.471272
C233	C	-0.267374	0.167760	0.414548
C234	C	-0.264477	0.132004	0.396614
C235	C	-0.263029	0.114069	0.415961
C236	C	-0.264520	-0.152962	0.168477
C237	C	-0.267425	-0.173812	0.129822
C238	C	-0.268875	-0.155926	0.110429
C239	C	-0.272026	-0.178532	0.068517
C240	C	-0.267425	-0.117194	0.129691
C241	C	-0.264521	-0.096347	0.168344
C242	C	-0.263066	-0.114233	0.187735
C243	C	-0.259920	-0.091600	0.396281
C244	C	-0.257410	-0.073588	0.380884
C245	C	-0.257409	-0.073605	0.263054
C246	C	-0.259918	-0.091624	0.229647
C247	C	-0.257390	0.044388	0.381008
C248	C	-0.259891	0.075294	0.396510
C249	C	0.022479	-0.051362	-0.361660
C250	C	0.041452	-0.070002	-0.380557
C251	C	0.079081	0.005260	-0.305059
C252	C	0.097968	-0.013466	-0.324043
C253	C	0.079064	-0.051361	-0.361659
C254	C	0.041469	-0.013466	-0.324043
C255	C	-0.113988	-0.096186	-0.396222
C256	C	-0.152636	-0.116905	-0.414037
C257	C	-0.172033	-0.155650	-0.451313
C258	C	-0.213940	-0.178122	-0.470629
C259	C	-0.152777	-0.173672	-0.470774
C260	C	-0.114131	-0.152949	-0.452961
C261	C	-0.094736	-0.114205	-0.415683
C262	C	0.113586	-0.153326	-0.453339
C263	C	0.131390	-0.174171	-0.471279
C264	C	0.168660	-0.156281	-0.451939
C265	C	0.187966	-0.178882	-0.471385
C266	C	0.188128	-0.117540	-0.414659
C267	C	0.170327	-0.096691	-0.396722
C268	C	0.133052	-0.114591	-0.416066
C269	C	0.113674	0.131554	-0.168569
C270	C	0.131493	0.167320	-0.129914
C271	C	0.168765	0.185263	-0.110523
C272	C	0.188088	0.224042	-0.068611
C273	C	0.188214	0.167436	-0.129788
C274	C	0.170392	0.131669	-0.168441
C275	C	0.133122	0.113733	-0.187829
C276	C	-0.052830	-0.091739	-0.396369
C277	C	-0.019427	-0.073830	-0.380974
C278	C	0.098402	0.044039	-0.263149
C279	C	0.113803	0.074951	-0.229742
C280	C	0.098366	-0.073966	-0.381108
C281	C	0.113752	-0.091983	-0.396612
O282	O	-0.273128	-0.159827	-0.496921
O283	O	-0.291695	-0.223838	-0.451465
O284	O	-0.227691	-0.159835	-0.451472
O285	O	-0.337132	-0.223830	-0.496914
O286	O	-0.227720	-0.211848	-0.503462
O287	O	-0.291724	-0.275850	-0.503455
O288	O	-0.273156	-0.211840	-0.548911
Cu289	Cu	-0.282443	-0.248594	-0.530930
Cu290	Cu	-0.282409	-0.187083	-0.469446
O291	O	-0.337160	-0.275842	-0.548904
C292	C	0.356042	0.615788	0.361531
C293	C	0.393654	0.634428	0.380428
C294	C	0.356024	0.559166	0.304931
C295	C	0.393636	0.577892	0.323914
C296	C	0.412626	0.615787	0.361531
C297	C	0.337138	0.577892	0.323914
C298	C	0.264399	0.660613	0.396092
C299	C	0.246470	0.681332	0.413907
C300	C	0.265817	0.720077	0.451183
C301	C	0.246381	0.742549	0.470498
C302	C	0.303094	0.738099	0.470644
C303	C	0.321018	0.717376	0.452831
C304	C	0.301669	0.678631	0.415554
C305	C	0.549111	0.717751	0.453211
C306	C	0.587759	0.738596	0.471152
C307	C	0.607140	0.720706	0.451813
C308	C	0.649046	0.743307	0.471259
C309	C	0.587867	0.681965	0.414532
C310	C	0.549218	0.661117	0.396595
C311	C	0.529843	0.679016	0.415939
C312	C	0.264327	0.432873	0.168440
C313	C	0.246381	0.397106	0.129785
C314	C	0.265711	0.379163	0.110395
C315	C	0.246255	0.340384	0.068483
C316	C	0.302986	0.396990	0.129659
C317	C	0.320929	0.432756	0.168312
C318	C	0.301595	0.450693	0.187701
C319	C	0.321110	0.656166	0.396240
C320	C	0.336604	0.638257	0.380845
C321	C	0.336567	0.520387	0.263020
C322	C	0.321057	0.489475	0.229613
C323	C	0.454532	0.638391	0.380980
C324	C	0.487935	0.656409	0.396484
H325	H	0.186256	0.117211	0.019032
H326	H	-0.168275	-0.102147	0.013788
O327	O	0.243518	-0.381221	-0.019515
H328	H	0.236022	-0.374479	0.006924
O329	O	0.073935	-0.172278	0.019437
H330	H	0.064720	-0.151361	0.021699
H331	H	-0.098455	-0.167624	-0.468808
O332	O	0.228414	0.186784	-0.108876
H333	H	0.248105	0.198970	-0.123126
H334	H	-0.301557	-0.371001	-0.184315
H335	H	0.083343	0.116992	0.019037
H336	H	-0.263300	0.117493	0.366262
O337	O	-0.268987	-0.097839	0.510893
H338	H	-0.242547	-0.063888	0.530589
O339	O	0.608764	0.662657	0.393677
H340	H	0.588869	0.632213	0.364746
H341	H	-0.296281	-0.333399	-0.114192
H342	H	-0.268550	0.182368	0.398802
H343	H	0.533529	0.629573	0.366242
H344	H	-0.253587	-0.100126	0.308710
H345	H	0.351368	0.732052	0.468678
H346	H	0.306221	-0.437820	-0.028884
H347	H	0.248640	0.629065	0.365740
O348	O	0.608395	0.186615	0.392976
H349	H	0.632852	0.183875	0.390228
H350	H	0.128821	-0.335359	-0.308757
H351	H	-0.098412	-0.167525	0.019042
O352	O	0.206269	0.661899	0.392917
H353	H	0.206266	0.686358	0.390167
H354	H	0.248573	-0.552549	-0.019145
H355	H	-0.263338	-0.064810	0.184025
O356	O	0.413676	0.007383	0.303770
H357	H	0.443078	0.036931	0.323301
O358	O	0.228879	-0.097374	0.013420
H359	H	0.228886	-0.121835	-0.013782
O360	O	0.191615	-0.054309	0.019445
H361	H	0.220613	-0.045142	0.018143
O362	O	-0.173487	-0.622371	-0.511463
H363	H	-0.184236	-0.657690	-0.530504
H364	H	0.351267	-0.552768	-0.019137
O365	O	-0.311450	-0.442931	-0.303815
H366	H	-0.311585	-0.423529	-0.274415
H367	H	-0.268541	0.182163	0.501523
H368	H	0.408852	-0.437823	-0.028887
O369	O	0.608777	-0.220193	-0.013480
H370	H	0.588893	-0.211152	-0.014985
H371	H	0.351279	0.447268	0.183995
H372	H	0.116316	-0.205102	0.013796
H373	H	-0.296327	-0.617434	-0.398133
O374	O	-0.173756	-0.622618	-0.393779
H375	H	-0.153867	-0.604220	-0.364845
H376	H	0.319344	-0.102126	0.501540
O377	O	0.528155	-0.381231	-0.019525
H378	H	0.548033	-0.390286	-0.018041
H379	H	-0.268607	-0.102632	0.113899
H380	H	0.318724	0.382379	0.113870
H381	H	-0.301580	-0.552566	-0.365821
H382	H	-0.098284	-0.552784	-0.469063
H383	H	-0.263295	0.117290	0.468988
O384	O	0.021213	-0.443141	-0.303819
H385	H	-0.008188	-0.472687	-0.323354
O386	O	0.206550	-0.215331	0.393708
H387	H	0.197429	-0.226710	0.412443
H388	H	-0.268607	-0.205306	0.398111
O389	O	-0.301897	-0.263275	-0.189193
H390	H	-0.300397	-0.232859	-0.169221
H391	H	-0.168573	-0.205217	-0.501124
H392	H	0.319343	-0.102132	0.114147
H393	H	0.603398	-0.333396	-0.013865
H394	H	-0.268611	-0.205351	0.114140
H395	H	0.115667	0.181861	0.013772
H396	H	0.218477	-0.102969	-0.398914
H397	H	0.218995	-0.230151	-0.114185
H398	H	0.186181	-0.065147	-0.366369
O399	O	-0.093378	-0.548384	-0.356540
H400	H	-0.113340	-0.566900	-0.346122
H401	H	-0.168528	-0.205116	0.013781
O402	O	0.206252	-0.338150	-0.013486
H403	H	0.195807	-0.368575	-0.014996
H404	H	-0.296319	-0.617672	-0.501075
O405	O	0.021212	-0.443145	-0.421458
H406	H	0.040739	-0.423745	-0.431465
H407	H	-0.098163	-0.064556	0.019052
H408	H	0.128873	0.002211	-0.308802
O409	O	0.361516	-0.054302	0.189395
H410	H	0.361486	-0.027127	0.213864
H411	H	0.026202	-0.100499	-0.411463
O412	O	0.021297	0.007298	-0.303853
H413	H	-0.008104	-0.012102	-0.323382
O414	O	0.073388	-0.172628	-0.474206
H415	H	0.054403	-0.180862	-0.457878
H416	H	-0.301570	-0.552797	-0.468765
O417	O	0.528455	-0.263245	-0.019497
H418	H	0.503996	-0.287702	-0.046705
H419	H	0.186457	-0.267968	-0.184308
H420	H	0.318712	-0.617648	-0.013880
O421	O	0.110520	0.186551	-0.109136
H422	H	0.081612	0.168071	-0.129114
H423	H	0.248730	-0.167519	0.184034
O424	O	0.021303	-0.110294	0.028951
H425	H	-0.008093	-0.120169	0.029089
H426	H	0.216035	0.382601	0.114100
H427	H	0.083330	0.116959	-0.184356
H428	H	-0.263336	-0.167528	0.184263
H429	H	0.318842	0.769644	0.500995
H430	H	0.351352	-0.267999	-0.019098
H431	H	0.186457	-0.267967	-0.365820
H432	H	-0.301544	-0.371037	-0.469067
H433	H	0.306243	0.562242	0.308665
H434	H	0.083731	-0.370700	-0.184088
O435	O	-0.295890	-0.338212	-0.511462
H436	H	-0.297387	-0.368625	-0.521893
H437	H	0.216024	-0.617426	-0.013890
H438	H	0.248582	0.447476	0.184224
H439	H	0.186231	0.117157	-0.184123
O440	O	0.110395	-0.215955	-0.511484
H441	H	0.081486	-0.224899	-0.521918
H442	H	0.128905	0.002285	0.028808
O443	O	0.413818	0.557140	0.303727
H444	H	0.394286	0.527592	0.274324
O445	O	0.228850	-0.219915	-0.392993
H446	H	0.239284	-0.210973	-0.364079
O447	O	0.323943	-0.220167	-0.013451
H448	H	0.305214	-0.208789	-0.011194
O449	O	0.413853	0.674819	0.421368
H450	H	0.394334	0.684700	0.431377
H451	H	0.116282	-0.332889	-0.501076
H452	H	0.306072	-0.100391	0.308711
H453	H	0.533337	0.732326	0.468965
H454	H	-0.301518	-0.268060	-0.366350
O455	O	-0.093065	-0.054389	-0.356022
H456	H	-0.112944	-0.045334	-0.345487
O457	O	-0.295859	-0.220238	-0.393782
H458	H	-0.293592	-0.208857	-0.412517
H459	H	0.408883	-0.335128	-0.028875
O460	O	0.021320	0.007362	0.028940
H461	H	0.040851	0.036907	0.029076
O462	O	0.073880	-0.380943	-0.473902
H463	H	0.063443	-0.389881	-0.502813
O464	O	0.111160	-0.337621	-0.108843
H465	H	0.129896	-0.316625	-0.078730
H466	H	-0.263341	-0.167504	0.365787
O467	O	0.228432	0.186828	0.013391
H468	H	0.237554	0.214687	0.011130
O469	O	0.608549	0.780385	0.511354
H470	H	0.588583	0.789331	0.521787
O471	O	0.243586	-0.172284	0.356418
H472	H	0.217054	-0.173504	0.355792
O473	O	-0.253419	0.007644	0.303755
H474	H	-0.227331	0.042098	0.319865
O475	O	0.413678	0.007381	0.421412
H476	H	0.443083	0.036925	0.431422
H477	H	-0.168310	-0.102229	-0.398190
O478	O	0.528050	0.112283	0.355942
H479	H	0.547937	0.130688	0.345407
H480	H	0.533406	0.117243	0.468730
O481	O	0.608629	0.186816	0.510893
H482	H	0.619405	0.222145	0.529912
O483	O	0.361517	-0.054297	0.474112
H484	H	0.372053	-0.045246	0.503049
H485	H	-0.296244	-0.230431	-0.113970
H486	H	0.216408	-0.205112	0.113908
O487	O	-0.311432	-0.325275	-0.303832
H488	H	-0.311569	-0.315397	-0.274429
O489	O	-0.253423	0.007664	0.421401
H490	H	-0.279236	-0.016638	0.423078
O491	O	-0.311447	-0.442944	-0.421463
H492	H	-0.311583	-0.472485	-0.431469
O493	O	-0.262950	-0.054524	0.473859
H494	H	-0.264450	-0.045583	0.502771
