data_functionalizedCrystal
_audit_creation_method	'MofGen! by Chris Wilmer'
_symmetry_space_group_name_H-M	'P1'
_symmetry_Int_Tables_number	1
_symmetry_cell_setting	triclinic
loop_
_symmetry_equiv_pos_as_xyz
  x,y,z
_cell_length_a	23.532407
_cell_length_b	23.532407
_cell_length_c	9.130307
_cell_angle_alpha	90.000472
_cell_angle_beta	90.010050
_cell_angle_gamma	82.848751
loop_
_atom_site_label
_atom_site_type_symbol
_atom_site_fract_x
_atom_site_fract_y
_atom_site_fract_z
O1	O	-0.069131	-0.755259	-0.121740
O2	O	-0.079134	-0.589396	-0.121768
O3	O	0.008799	-0.677329	-0.121704
O4	O	-0.157064	-0.667326	-0.121803
O5	O	0.008793	-0.677322	0.121895
O6	O	-0.079140	-0.589389	0.121831
O7	O	-0.069137	-0.755253	0.121859
Cu8	Cu	-0.074139	-0.672320	0.144088
Cu9	Cu	-0.074132	-0.672328	-0.143996
O10	O	-0.157070	-0.667319	0.121796
C11	C	0.030012	-0.677071	0.000104
C12	C	0.093229	-0.676305	0.000132
C13	C	-0.078882	-0.568176	0.000029
C14	C	-0.078116	-0.504959	0.000021
C15	C	-0.069389	-0.776472	0.000059
C16	C	-0.070155	-0.839689	0.000058
C17	C	0.359397	-0.621110	0.000055
C18	C	0.299997	-0.621821	0.000061
O19	O	0.263252	-0.578035	0.000005
N20	N	0.277370	-0.674097	0.000085
C21	C	0.314148	-0.725666	0.000087
O22	O	0.289448	-0.770196	0.000106
C23	C	0.373547	-0.724953	0.000070
C24	C	0.396170	-0.672674	0.000062
C25	C	0.382020	-0.568834	0.000045
C26	C	0.441416	-0.568123	0.000042
C27	C	0.478189	-0.619687	0.000049
C28	C	0.455566	-0.671963	0.000059
C29	C	0.410323	-0.776521	0.000062
C30	C	0.469726	-0.775804	0.000045
C31	C	0.492348	-0.723525	0.000036
C32	C	0.551735	-0.722816	0.000062
N33	N	0.574361	-0.670539	0.000039
C34	C	0.537588	-0.618975	0.000032
C35	C	0.189405	-0.727157	0.000119
C36	C	0.130007	-0.727870	0.000146
C37	C	0.115860	-0.624025	0.000118
C38	C	0.175259	-0.623313	0.000101
C39	C	0.212031	-0.674881	0.000096
C40	C	0.662325	-0.617485	0.000026
C41	C	0.721727	-0.616779	0.000029
C42	C	0.735869	-0.720623	0.000050
C43	C	0.676472	-0.721330	0.000055
C44	C	0.639701	-0.669757	0.000038
O45	O	0.588514	-0.766579	0.000113
O46	O	0.562296	-0.574452	-0.000006
C47	C	0.821717	-0.667577	0.000006
C48	C	0.758500	-0.668343	0.000036
C49	C	-0.022921	-0.238792	0.000093
C50	C	-0.023632	-0.298192	0.000093
O51	O	0.020153	-0.334937	0.000169
N52	N	-0.075909	-0.320818	0.000052
C53	C	-0.127477	-0.284041	0.000026
O54	O	-0.172007	-0.308740	-0.000007
C55	C	-0.126765	-0.224642	0.000038
C56	C	-0.074485	-0.202019	0.000064
C57	C	0.029354	-0.216168	0.000121
C58	C	0.030066	-0.156772	0.000119
C59	C	-0.021499	-0.119999	0.000090
C60	C	-0.073774	-0.142623	0.000062
C61	C	-0.178333	-0.187865	0.000023
C62	C	-0.177616	-0.128463	0.000035
C63	C	-0.125336	-0.105840	0.000061
C64	C	-0.124627	-0.046454	0.000030
N65	N	-0.072351	-0.023828	0.000071
C66	C	-0.020787	-0.060600	0.000101
C67	C	-0.128968	-0.408783	0.000005
C68	C	-0.129681	-0.468181	-0.000017
C69	C	-0.025836	-0.482328	0.000052
C70	C	-0.025124	-0.422929	0.000064
C71	C	-0.076692	-0.386157	0.000046
C72	C	-0.019297	0.064136	0.000096
C73	C	-0.018590	0.123538	0.000088
C74	C	-0.122435	0.137680	0.000026
C75	C	-0.123142	0.078284	0.000027
C76	C	-0.071568	0.041512	0.000066
O77	O	-0.168390	-0.009675	-0.000041
O78	O	0.023737	-0.035892	0.000154
N79	N	-0.074143	-0.672319	0.346711
N80	N	-0.074123	-0.672333	-0.346619
C81	C	-0.005383	-0.603654	0.653402
C82	C	0.028980	-0.569307	0.576745
C83	C	0.028969	-0.569297	0.423412
C84	C	-0.005407	-0.603637	0.346731
C85	C	-0.039770	-0.637984	0.423388
C86	C	-0.039756	-0.637989	0.576725
C87	C	-0.108506	-0.706666	0.423367
C88	C	-0.108499	-0.706674	0.576700
C89	C	-0.142882	-0.741006	0.346686
C90	C	-0.177249	-0.775350	0.423343
C91	C	-0.177237	-0.775359	0.576685
C92	C	-0.142862	-0.741020	0.653357
H93	H	0.740143	-0.574205	0.000029
Cl94	Cl	0.047138	0.151974	0.000111
Cl95	Cl	0.045539	0.017919	0.000141
H96	H	0.632392	-0.575489	0.000012
H97	H	0.352085	-0.526842	0.000035
Cl98	Cl	0.095792	-0.128342	0.000139
H99	H	-0.142886	-0.740998	0.221834
H100	H	-0.005407	-0.603631	0.221879
Cl101	Cl	-0.195407	-0.496613	-0.000080
H102	H	0.056970	-0.541349	0.639195
Cl103	Cl	-0.193803	-0.362560	-0.000036
Cl104	Cl	0.648031	-0.787054	0.000119
H105	H	-0.220904	-0.206274	-0.000005
H106	H	0.499664	-0.817798	0.000032
Cl107	Cl	-0.142847	-0.741027	0.846120
Cl108	Cl	0.469847	-0.502396	0.000013
Cl109	Cl	-0.188865	0.049843	-0.000025
H110	H	0.219343	-0.769152	0.000125
Cl111	Cl	0.203693	-0.557588	0.000086
H112	H	-0.205232	-0.803310	0.360897
H113	H	0.391915	-0.819093	0.000068
H114	H	-0.219610	-0.098525	0.000028
H115	H	-0.205218	-0.803330	0.639090
H116	H	0.017447	-0.404515	0.000086
Cl117	Cl	-0.005374	-0.603658	0.846165
H118	H	0.071347	-0.246104	0.000150
Cl119	Cl	0.069620	-0.559201	0.000108
H120	H	0.111594	-0.770441	0.000176
Cl121	Cl	0.072176	-0.526126	0.327040
H122	H	0.765820	-0.762605	0.000062
H123	H	0.016150	-0.512280	0.000077
H124	H	-0.164417	0.167631	-0.000005
