data_functionalizedCrystal
_audit_creation_method	'MofGen! by Chris Wilmer'
_symmetry_space_group_name_H-M	'P1'
_symmetry_Int_Tables_number	1
_symmetry_cell_setting	triclinic
loop_
_symmetry_equiv_pos_as_xyz
  x,y,z
_cell_length_a	18.101398
_cell_length_b	16.625546
_cell_length_c	16.625539
_cell_angle_alpha	90.028532
_cell_angle_beta	89.977600
_cell_angle_gamma	89.982266
loop_
_atom_site_label
_atom_site_type_symbol
_atom_site_fract_x
_atom_site_fract_y
_atom_site_fract_z
Zn1	Zn	1.132151	0.321117	-0.456013
Zn2	Zn	1.465485	0.654450	-0.122679
Zn3	Zn	1.798818	0.987783	0.210654
Zn4	Zn	1.132070	0.455956	-0.321175
Zn5	Zn	1.465403	0.789289	0.012159
Zn6	Zn	1.798737	1.122622	0.345492
Zn7	Zn	1.008314	0.321129	-0.321180
Zn8	Zn	1.341648	0.654463	0.012153
Zn9	Zn	1.674981	0.987796	0.345486
Zn10	Zn	1.008280	0.455900	-0.455952
Zn11	Zn	1.341613	0.789233	-0.122619
Zn12	Zn	1.674946	1.122567	0.210715
O13	O	1.070204	0.388525	-0.388580
O14	O	1.403537	0.721859	-0.055247
O15	O	1.736871	1.055192	0.278087
O16	O	1.235773	0.339021	-0.438149
O17	O	1.569107	0.672355	-0.104816
O18	O	1.902440	1.005688	0.228518
O19	O	1.115634	0.438099	-0.208343
O20	O	1.448967	0.771432	0.124990
O21	O	1.782301	1.104766	0.458324
O22	O	1.024790	0.208295	-0.339094
O23	O	1.358124	0.541629	-0.005761
O24	O	1.691457	0.874962	0.327573
O25	O	1.235714	0.438087	-0.339084
O26	O	1.569047	0.771420	-0.005751
O27	O	1.902380	1.104753	0.327582
O28	O	1.115773	0.208286	-0.438154
O29	O	1.449106	0.541619	-0.104821
O30	O	1.782439	0.874953	0.228512
O31	O	1.024711	0.339043	-0.208347
O32	O	1.358045	0.672376	0.124986
O33	O	1.691378	1.005710	0.458319
O34	O	0.904677	0.338989	-0.339035
O35	O	1.238010	0.672322	-0.005702
O36	O	1.571344	1.005656	0.327631
O37	O	1.024731	0.437992	-0.568793
O38	O	1.358064	0.771325	-0.235459
O39	O	1.691398	1.104659	0.097874
O40	O	0.904651	0.438004	-0.438051
O41	O	1.237985	0.771338	-0.104718
O42	O	1.571318	1.104671	0.228615
O43	O	1.115739	0.338968	-0.568837
O44	O	1.449072	0.672301	-0.235504
O45	O	1.782406	1.005634	0.097830
O46	O	1.115600	0.568781	-0.339026
O47	O	1.448934	0.902114	-0.005692
O48	O	1.782267	1.235447	0.327641
O49	O	1.024652	0.568740	-0.438046
O50	O	1.357986	0.902073	-0.104713
O51	O	1.691319	1.235406	0.228621
C52	C	1.070134	0.598016	-0.388546
C53	C	1.403467	0.931350	-0.055213
C54	C	1.736800	1.264683	0.278120
C55	C	1.070172	0.687637	-0.388559
C56	C	1.403505	1.020971	-0.055225
C57	C	1.736838	1.354304	0.278108
C58	C	0.877793	0.388493	-0.388538
C59	C	1.211127	0.721826	-0.055205
C60	C	1.544460	1.055159	0.278129
C61	C	0.795479	0.388498	-0.388539
C62	C	1.128813	0.721831	-0.055206
C63	C	1.462146	1.055165	0.278128
C64	C	1.070240	0.388472	-0.598889
C65	C	1.403574	0.721806	-0.265556
C66	C	1.736907	1.055139	0.067778
C67	C	1.070256	0.388450	-0.688510
C68	C	1.403589	0.721783	-0.355177
C69	C	1.736922	1.055116	-0.021843
C70	C	0.496388	0.388548	-0.388607
C71	C	0.829722	0.721882	-0.055273
C72	C	1.163055	1.055215	0.278060
C73	C	0.527705	0.325939	-0.326612
C74	C	0.861038	0.659273	0.006721
C75	C	1.194372	0.992606	0.340054
C76	C	0.613323	0.326107	-0.326348
C77	C	0.946656	0.659441	0.006985
C78	C	1.279990	0.992774	0.340319
C79	C	0.644771	0.388523	-0.388573
C80	C	0.978104	0.721856	-0.055240
C81	C	1.311438	1.055189	0.278094
C82	C	0.613665	0.473459	-0.365354
C83	C	0.946999	0.806792	-0.032021
C84	C	1.280332	1.140126	0.301313
C85	C	0.528020	0.473111	-0.364923
C86	C	0.861353	0.806445	-0.031590
C87	C	1.194687	1.139778	0.301744
C88	C	0.527997	0.366960	-0.473966
C89	C	0.861331	0.700293	-0.140633
C90	C	1.194664	1.033626	0.192700
C91	C	0.613648	0.365068	-0.473500
C92	C	0.946981	0.698402	-0.140167
C93	C	1.280315	1.031735	0.193166
C94	C	0.728630	0.388514	-0.388556
C95	C	1.061964	0.721847	-0.055222
C96	C	1.395297	1.055180	0.278111
C97	C	0.412529	0.388563	-0.388622
C98	C	0.745862	0.721897	-0.055289
C99	C	1.079196	1.055230	0.278044
C100	C	1.263366	0.388559	-0.388623
C101	C	1.596699	0.721892	-0.055289
C102	C	1.930032	1.055226	0.278044
C103	C	1.345680	0.388573	-0.388641
C104	C	1.679013	0.721906	-0.055308
C105	C	2.012347	1.055240	0.278026
C106	C	1.070294	0.178217	-0.388632
C107	C	1.403628	0.511550	-0.055298
C108	C	1.736961	0.844883	0.278035
C109	C	1.070333	0.088595	-0.388654
C110	C	1.403666	0.421929	-0.055320
C111	C	1.737000	0.755262	0.278013
C112	C	1.070301	1.015813	-0.388643
C113	C	1.403634	1.349146	-0.055309
C114	C	1.736967	1.682480	0.278024
C115	C	1.070262	0.924505	-0.388622
C116	C	1.403596	1.257838	-0.055288
C117	C	1.736929	1.591171	0.278045
C118	C	1.070236	0.851728	-0.388600
C119	C	1.403569	1.185061	-0.055267
C120	C	1.736902	1.518395	0.278066
C121	C	1.070198	0.760414	-0.388580
C122	C	1.403532	1.093747	-0.055247
C123	C	1.736865	1.427081	0.278087
C124	C	1.070268	0.388432	-0.761293
C125	C	1.403601	0.721765	-0.427959
C126	C	1.736934	1.055098	-0.094626
C127	C	1.070285	0.388402	-0.852601
C128	C	1.403618	0.721735	-0.519268
C129	C	1.736952	1.055068	-0.185935
C130	C	1.070302	0.388373	-0.925378
C131	C	1.403636	0.721707	-0.592044
C132	C	1.736969	1.055040	-0.258711
C133	C	1.070321	0.388344	-1.016692
C134	C	1.403654	0.721678	-0.683359
C135	C	1.736988	1.055011	-0.350025
C136	C	1.070210	0.388520	-0.179089
C137	C	1.403544	0.721854	0.154244
C138	C	1.736877	1.055187	0.487577
C139	C	1.070338	0.388316	-0.089469
C140	C	1.403672	0.721649	0.243865
C141	C	1.737005	1.054983	0.577198
H142	H	0.507125	0.262763	-0.341007
H143	H	0.840459	0.596096	-0.007673
H144	H	1.173792	0.929430	0.325660
N145	N	0.502578	0.424158	-0.531914
N146	N	0.835911	0.757491	-0.198580
N147	N	1.169245	1.090824	0.134753
N148	N	0.464984	0.401317	-0.590688
N149	N	0.798317	0.734650	-0.257355
N150	N	1.131651	1.067984	0.075978
H151	H	0.447027	0.441717	-0.631606
H152	H	0.780360	0.775050	-0.298273
H153	H	1.113693	1.108383	0.035060
N154	N	0.639005	0.344007	-0.247006
N155	N	0.972338	0.677340	0.086327
N156	N	1.305672	1.010674	0.419660
N157	N	0.678572	0.294526	-0.210308
N158	N	1.011905	0.627860	0.123025
N159	N	1.345239	0.961193	0.456358
H160	H	0.696710	0.307169	-0.154270
H161	H	1.030043	0.640503	0.179063
H162	H	1.363377	0.973836	0.512397
N163	N	0.640538	0.496820	-0.287917
N164	N	0.973871	0.830153	0.045417
N165	N	1.307205	1.163486	0.378750
N166	N	0.682589	0.451061	-0.249696
N167	N	1.015922	0.784395	0.083638
N168	N	1.349256	1.117728	0.416971
H169	H	0.701568	0.467555	-0.195003
H170	H	1.034901	0.800888	0.138330
H171	H	1.368235	1.134222	0.471663
H172	H	0.506159	0.340050	-0.263730
H173	H	0.839493	0.673383	0.069603
H174	H	1.172826	1.006717	0.402937
H175	H	0.508013	0.491420	-0.302521
H176	H	0.841346	0.824753	0.030812
H177	H	1.174679	1.158087	0.364146
N178	N	0.639700	0.247087	-0.344582
N179	N	0.973034	0.580420	-0.011249
N180	N	1.306367	0.913753	0.322085
N181	N	0.594856	0.191426	-0.357592
N182	N	0.928190	0.524760	-0.024258
N183	N	1.261523	0.858093	0.309075
H184	H	0.613481	0.135612	-0.370459
H185	H	0.946814	0.468945	-0.037126
H186	H	1.280148	0.802278	0.296208
H187	H	0.506416	0.306102	-0.495077
H188	H	0.839750	0.639436	-0.161743
H189	H	1.173083	0.972769	0.171590
N190	N	0.640498	0.418121	-0.534542
N191	N	0.973832	0.751455	-0.201209
N192	N	1.307165	1.084788	0.132125
N193	N	0.677414	0.390878	-0.591979
N194	N	1.010747	0.724212	-0.258646
N195	N	1.344080	1.057545	0.074687
H196	H	0.696377	0.428363	-0.635081
H197	H	1.029710	0.761696	-0.301747
H198	H	1.363043	1.095029	0.031586
N199	N	0.502037	0.533618	-0.419093
N200	N	0.835371	0.866951	-0.085760
N201	N	1.168704	1.200285	0.247573
N202	N	0.547159	0.575971	-0.457093
N203	N	0.880492	0.909305	-0.123759
N204	N	1.213825	1.242638	0.209574
H205	H	0.528812	0.618708	-0.495346
H206	H	0.862145	0.952041	-0.162013
H207	H	1.195479	1.285374	0.171320
N208	N	0.639219	0.533542	-0.420231
N209	N	0.972553	0.866875	-0.086897
N210	N	1.305886	1.200209	0.246436
N211	N	0.680742	0.514387	-0.477200
N212	N	1.014075	0.847720	-0.143867
N213	N	1.347409	1.181054	0.189466
H214	H	0.698791	0.556819	-0.515959
H215	H	1.032124	0.890152	-0.182626
H216	H	1.365458	1.223486	0.150707
N217	N	0.639156	0.286655	-0.495455
N218	N	0.972490	0.619989	-0.162122
N219	N	1.305823	0.953322	0.171211
N220	N	0.680107	0.248144	-0.448773
N221	N	1.013441	0.581477	-0.115440
N222	N	1.346774	0.914810	0.217893
H223	H	0.698127	0.192764	-0.464276
H224	H	1.031461	0.526097	-0.130943
H225	H	1.364794	0.859430	0.202390
