data_functionalizedCrystal
_audit_creation_method	'MofGen! by Chris Wilmer'
_symmetry_space_group_name_H-M	'P1'
_symmetry_Int_Tables_number	1
_symmetry_cell_setting	triclinic
loop_
_symmetry_equiv_pos_as_xyz
  x,y,z
_cell_length_a	42.784860
_cell_length_b	42.784822
_cell_length_c	42.784893
_cell_angle_alpha	59.997561
_cell_angle_beta	89.997251
_cell_angle_gamma	59.999948
loop_
_atom_site_label
_atom_site_type_symbol
_atom_site_fract_x
_atom_site_fract_y
_atom_site_fract_z
O1	O	0.214411	0.275696	-0.009303
O2	O	0.168960	0.211693	0.009250
O3	O	0.168960	0.275694	-0.054752
O4	O	0.214412	0.211695	0.054700
O5	O	0.220945	0.223709	-0.054752
O6	O	0.220945	0.159709	0.009251
O7	O	0.266396	0.223712	-0.009302
Zn8	Zn	0.251924	0.183456	-0.000026
Zn9	Zn	0.183432	0.251948	-0.000026
O10	O	0.266396	0.159711	0.054700
C11	C	0.356210	0.440761	-0.028198
C12	C	0.393825	0.422043	-0.028463
C13	C	0.356212	0.384160	-0.028195
C14	C	0.393827	0.365528	-0.028460
C15	C	0.412809	0.384162	-0.028198
C16	C	0.337314	0.422041	-0.028460
C17	C	0.264530	0.567003	-0.017954
C18	C	0.246589	0.602758	-0.015058
C19	C	0.265929	0.620695	-0.013606
C20	C	0.246481	0.659458	-0.010458
C21	C	0.303208	0.602876	-0.015053
C22	C	0.321144	0.567127	-0.017954
C23	C	0.301803	0.549191	-0.019404
C24	C	0.549294	0.339358	-0.017956
C25	C	0.587945	0.318647	-0.015060
C26	C	0.607337	0.279917	-0.013603
C27	C	0.649246	0.257454	-0.010457
C28	C	0.588072	0.261901	-0.015047
C29	C	0.549421	0.282615	-0.017950
C30	C	0.530034	0.321345	-0.019402
C31	C	0.264536	0.339346	-0.017940
C32	C	0.246598	0.318630	-0.015035
C33	C	0.265938	0.279899	-0.013580
C34	C	0.246492	0.257434	-0.010429
C35	C	0.303216	0.261886	-0.015025
C36	C	0.321152	0.282602	-0.017928
C37	C	0.301807	0.321336	-0.019389
C38	C	0.321256	0.510424	-0.022546
C39	C	0.336761	0.479524	-0.025053
C40	C	0.336763	0.361698	-0.025045
C41	C	0.321260	0.343795	-0.022536
C42	C	0.454718	0.361703	-0.025052
C43	C	0.488123	0.343801	-0.022546
C44	C	0.022778	0.051021	0.028112
C45	C	0.041761	0.013142	0.028375
C46	C	0.079378	0.051019	0.028115
C47	C	0.098274	0.013139	0.028378
C48	C	0.079377	-0.005578	0.028112
C49	C	0.041762	0.069652	0.028378
C50	C	-0.113708	0.152949	0.017863
C51	C	-0.152360	0.173787	0.014965
C52	C	-0.171751	0.155903	0.013509
C53	C	-0.213662	0.178499	0.010359
C54	C	-0.152486	0.117177	0.014954
C55	C	-0.113835	0.096339	0.017857
C56	C	-0.094447	0.114226	0.019312
C57	C	0.113936	-0.131814	0.017859
C58	C	0.131751	-0.167567	0.014961
C59	C	0.169024	-0.185503	0.013506
C60	C	0.188341	-0.224265	0.010358
C61	C	0.188486	-0.167685	0.014954
C62	C	0.170675	-0.131938	0.017859
C63	C	0.133396	-0.114002	0.019309
C64	C	0.113943	0.152940	0.017875
C65	C	0.131756	0.173779	0.014975
C66	C	0.169032	0.155893	0.013522
C67	C	0.188348	0.178487	0.010375
C68	C	0.188490	0.117171	0.014965
C69	C	0.170675	0.096335	0.017863
C70	C	0.133401	0.114221	0.019322
C71	C	-0.052537	0.091630	0.022456
C72	C	-0.019131	0.073618	0.024964
C73	C	0.098692	0.073613	0.024970
C74	C	0.114088	0.091623	0.022465
C75	C	0.098690	-0.044339	0.024964
C76	C	0.114085	-0.075237	0.022455
C77	C	0.079140	0.384392	-0.361609
C78	C	0.041525	0.422272	-0.380505
C79	C	0.079140	0.384392	-0.305010
C80	C	0.041525	0.422272	-0.323993
C81	C	0.022542	0.440990	-0.361608
C82	C	0.098037	0.365759	-0.323993
C83	C	0.170818	0.282466	-0.396171
C84	C	0.188758	0.261629	-0.413985
C85	C	0.169419	0.279514	-0.451260
C86	C	0.188866	0.256918	-0.470575
C87	C	0.132139	0.318240	-0.470720
C88	C	0.114204	0.339078	-0.452907
C89	C	0.133545	0.321189	-0.415631
C90	C	-0.113944	0.567229	-0.453284
C91	C	-0.152595	0.602984	-0.471224
C92	C	-0.171986	0.620919	-0.451885
C93	C	-0.213895	0.659681	-0.471330
C94	C	-0.152721	0.603099	-0.414606
C95	C	-0.114069	0.567352	-0.396669
C96	C	-0.094683	0.549417	-0.416013
C97	C	0.170818	0.282466	-0.168524
C98	C	0.188756	0.261626	-0.129871
C99	C	0.169417	0.279511	-0.110481
C100	C	0.188864	0.256916	-0.068570
C101	C	0.132139	0.318234	-0.129745
C102	C	0.114202	0.339071	-0.168396
C103	C	0.133547	0.321186	-0.187784
C104	C	0.114093	0.343785	-0.396317
C105	C	0.098589	0.361796	-0.380922
C106	C	0.098589	0.361796	-0.263101
C107	C	0.114093	0.343785	-0.229695
C108	C	-0.019367	0.479752	-0.381056
C109	C	-0.052773	0.510651	-0.396560
O110	O	0.772519	0.159724	0.009230
O111	O	0.663066	0.223728	-0.009325
O112	O	0.727060	0.159730	0.054678
O113	O	0.708526	0.223722	-0.054773
O114	O	0.727058	0.211716	0.054675
O115	O	0.663065	0.275715	-0.009329
O116	O	0.772518	0.211710	0.009227
Zn117	Zn	0.717791	0.251966	-0.000052
Zn118	Zn	0.717793	0.183472	-0.000047
O119	O	0.708524	0.275708	-0.054777
O120	O	0.220936	0.763044	0.009229
O121	O	0.266387	0.672146	-0.009326
O122	O	0.266384	0.672138	0.054678
O123	O	0.220939	0.763053	-0.054774
O124	O	0.214398	0.672142	0.054672
O125	O	0.214400	0.672150	-0.009331
O126	O	0.168950	0.763048	0.009224
Zn127	Zn	0.183421	0.717600	-0.000054
Zn128	Zn	0.251915	0.717594	-0.000047
O129	O	0.168953	0.763057	-0.054779
O130	O	-0.337165	0.763274	-0.496873
O131	O	-0.227714	0.672370	-0.451425
O132	O	-0.291712	0.672367	-0.451419
O133	O	-0.273167	0.763276	-0.496878
O134	O	-0.291714	0.672369	-0.503404
O135	O	-0.227716	0.672371	-0.503409
O136	O	-0.337167	0.763275	-0.548857
Zn137	Zn	-0.282441	0.717823	-0.534387
Zn138	Zn	-0.282440	0.717822	-0.465895
O139	O	-0.273168	0.763277	-0.548863
O140	O	0.214416	0.211691	-0.548620
O141	O	0.168961	0.275693	-0.503170
O142	O	0.168963	0.211690	-0.503165
O143	O	0.214414	0.275693	-0.548624
O144	O	0.220946	0.159707	-0.451181
O145	O	0.220944	0.223709	-0.451186
O146	O	0.266399	0.159708	-0.496636
Zn147	Zn	0.251925	0.183455	-0.465657
Zn148	Zn	0.183435	0.251945	-0.534148
O149	O	0.266397	0.223710	-0.496640
C150	C	0.412572	-0.005343	0.361556
C151	C	0.393589	0.013375	0.380453
C152	C	0.355973	0.051256	0.304958
C153	C	0.337077	0.069888	0.323942
C154	C	0.355974	0.051255	0.361557
C155	C	0.393589	0.013376	0.323940
C156	C	0.549057	-0.131582	0.396114
C157	C	0.587709	-0.167336	0.413927
C158	C	0.607098	-0.185271	0.451202
C159	C	0.649009	-0.224034	0.470516
C160	C	0.587833	-0.167452	0.470663
C161	C	0.549183	-0.131705	0.452851
C162	C	0.529795	-0.113769	0.415575
C163	C	0.321414	0.096062	0.453236
C164	C	0.303599	0.116774	0.471177
C165	C	0.266326	0.155503	0.451839
C166	C	0.247010	0.177966	0.471285
C167	C	0.246866	0.173518	0.414560
C168	C	0.264676	0.152803	0.396622
C169	C	0.301955	0.114074	0.415965
C170	C	0.321411	0.096065	0.168471
C171	C	0.303598	0.116780	0.129818
C172	C	0.266323	0.155509	0.110429
C173	C	0.247008	0.177973	0.068518
C174	C	0.246865	0.173524	0.129694
C175	C	0.264679	0.152808	0.168345
C176	C	0.301953	0.114076	0.187732
C177	C	0.487886	-0.075004	0.396262
C178	C	0.454481	-0.044105	0.380868
C179	C	0.336660	0.073716	0.263049
C180	C	0.321265	0.091618	0.229643
C181	C	0.336661	0.073715	0.381006
C182	C	0.321266	0.091617	0.396511
C183	C	0.745866	0.051078	0.361520
C184	C	0.746126	0.013200	0.380417
C185	C	0.745879	0.051069	0.304926
C186	C	0.746138	0.013191	0.323909
C187	C	0.745865	-0.005522	0.361523
C188	C	0.746139	0.069705	0.323906
C189	C	0.735614	0.153012	0.396070
C190	C	0.732713	0.173854	0.413882
C191	C	0.731249	0.155974	0.451155
C192	C	0.728097	0.178574	0.470466
C193	C	0.732690	0.117250	0.470616
C194	C	0.735596	0.096409	0.452806
C195	C	0.737058	0.114292	0.415532
C196	C	0.735594	-0.131747	0.453199
C197	C	0.732691	-0.167499	0.471140
C198	C	0.731239	-0.185437	0.451804
C199	C	0.728087	-0.224197	0.471249
C200	C	0.732694	-0.167624	0.414526
C201	C	0.735603	-0.131879	0.396589
C202	C	0.737050	-0.113940	0.415930
C203	C	0.735664	0.152975	0.168443
C204	C	0.732771	0.173810	0.129791
C205	C	0.731320	0.155921	0.110404
C206	C	0.728181	0.178511	0.068494
C207	C	0.732759	0.117201	0.129668
C208	C	0.735651	0.096369	0.168319
C209	C	0.737107	0.114258	0.187704
C210	C	0.740205	0.091692	0.396222
C211	C	0.742716	0.073678	0.380830
C212	C	0.742742	0.073658	0.263018
C213	C	0.740242	0.091665	0.229613
C214	C	0.742713	-0.044281	0.380972
C215	C	0.740201	-0.075178	0.396476
C216	C	0.689717	0.440717	-0.361622
C217	C	0.689458	0.421994	-0.380516
C218	C	0.689705	0.384125	-0.305024
C219	C	0.689447	0.365488	-0.324004
C220	C	0.689720	0.384115	-0.361617
C221	C	0.689443	0.422005	-0.324008
C222	C	0.699965	0.566959	-0.396188
C223	C	0.702865	0.602713	-0.414003
C224	C	0.704328	0.620642	-0.451276
C225	C	0.707479	0.659404	-0.470592
C226	C	0.702888	0.602818	-0.470734
C227	C	0.699983	0.567071	-0.452920
C228	C	0.698522	0.549142	-0.415646
C229	C	0.699994	0.339286	-0.453282
C230	C	0.702898	0.318569	-0.471219
C231	C	0.704351	0.279840	-0.451879
C232	C	0.707504	0.257372	-0.471321
C233	C	0.702896	0.261832	-0.414601
C234	C	0.699986	0.282552	-0.396668
C235	C	0.698538	0.321280	-0.416013
C236	C	0.699919	0.339339	-0.168545
C237	C	0.702812	0.318629	-0.129893
C238	C	0.704264	0.279900	-0.110502
C239	C	0.707403	0.257443	-0.068593
C240	C	0.702826	0.261881	-0.129763
C241	C	0.699934	0.282591	-0.168413
C242	C	0.698477	0.321323	-0.187803
C243	C	0.695376	0.510377	-0.396332
C244	C	0.692866	0.479479	-0.380936
C245	C	0.692842	0.361671	-0.263117
C246	C	0.695342	0.343774	-0.229712
C247	C	0.692874	0.361649	-0.381062
C248	C	0.695386	0.343743	-0.396563
C249	C	0.356186	0.384135	0.361527
C250	C	0.393801	0.365499	0.380426
C251	C	0.356190	0.440736	0.304932
C252	C	0.393805	0.422015	0.323917
C253	C	0.412786	0.384132	0.361532
C254	C	0.337291	0.422018	0.323912
C255	C	0.264501	0.339331	0.396079
C256	C	0.246559	0.318620	0.413891
C257	C	0.265897	0.279887	0.451165
C258	C	0.246448	0.257424	0.470477
C259	C	0.303177	0.261869	0.470627
C260	C	0.321114	0.282584	0.452817
C261	C	0.301774	0.321317	0.415541
C262	C	0.549269	0.282194	0.453215
C263	C	0.587921	0.261354	0.471156
C264	C	0.607314	0.279236	0.451821
C265	C	0.649223	0.256641	0.471268
C266	C	0.588051	0.317966	0.414541
C267	C	0.549399	0.338809	0.396603
C268	C	0.530011	0.320917	0.415944
C269	C	0.264518	0.566990	0.168444
C270	C	0.246582	0.602744	0.129791
C271	C	0.265924	0.620680	0.110404
C272	C	0.246479	0.659446	0.068493
C273	C	0.303202	0.602857	0.129670
C274	C	0.321136	0.567102	0.168321
C275	C	0.301789	0.549174	0.187707
C276	C	0.321229	0.343773	0.396231
C277	C	0.336735	0.361675	0.380838
C278	C	0.336743	0.479502	0.263023
C279	C	0.321241	0.510404	0.229617
C280	C	0.454695	0.361533	0.380982
C281	C	0.488100	0.343519	0.396488
O282	O	0.708402	0.223813	0.548503
O283	O	0.726959	0.159804	0.503059
O284	O	0.662956	0.223814	0.503045
O285	O	0.772405	0.159803	0.548516
O286	O	0.662969	0.275791	0.451063
O287	O	0.726972	0.211781	0.451077
O288	O	0.708415	0.275790	0.496521
Zn289	Zn	0.717695	0.252038	0.465545
Zn290	Zn	0.717679	0.183556	0.534034
O291	O	0.772418	0.211780	0.496534
C292	C	0.022798	1.051063	-0.361634
C293	C	0.041783	1.069695	-0.380528
C294	C	0.079393	0.994458	-0.305034
C295	C	0.098293	1.013176	-0.324014
C296	C	0.079398	1.051059	-0.361629
C297	C	0.041778	1.013180	-0.324019
C298	C	-0.113690	1.095881	-0.396203
C299	C	-0.152342	1.116596	-0.414020
C300	C	-0.171729	1.155328	-0.451294
C301	C	-0.213639	1.177795	-0.470612
C302	C	-0.152461	1.173343	-0.470752
C303	C	-0.113811	1.152624	-0.452937
C304	C	-0.094426	1.113892	-0.415661
C305	C	0.113969	1.152986	-0.453298
C306	C	0.131785	1.173823	-0.471235
C307	C	0.169059	1.155937	-0.451894
C308	C	0.188378	1.178529	-0.471337
C309	C	0.188517	1.117208	-0.414615
C310	C	0.170703	1.096368	-0.396681
C311	C	0.133425	1.114264	-0.416027
C312	C	0.113945	0.868208	-0.168550
C313	C	0.131756	0.832454	-0.129897
C314	C	0.169030	0.814515	-0.110505
C315	C	0.188343	0.775749	-0.068595
C316	C	0.188491	0.832334	-0.129767
C317	C	0.170679	0.868089	-0.168418
C318	C	0.133406	0.886021	-0.187808
C319	C	-0.052517	1.091432	-0.396346
C320	C	-0.019111	1.073527	-0.380949
C321	C	0.098704	0.955692	-0.263125
C322	C	0.114097	0.924790	-0.229719
C323	C	0.098714	1.073655	-0.381075
C324	C	0.114111	1.091665	-0.396576
H325	H	0.533511	0.370894	-0.019141
H326	H	0.704075	0.230300	-0.398856
O327	O	0.112807	0.211378	0.013596
C328	C	0.076086	0.222700	0.015495
H329	H	0.076121	0.191946	0.029579
H330	H	0.068173	0.236850	0.033101
H331	H	0.054271	0.248460	-0.014659
O332	O	0.689001	0.440636	-0.305790
C333	C	0.721787	0.409734	-0.272790
H334	H	0.745133	0.383918	-0.276245
H335	H	0.732509	0.427500	-0.268719
H336	H	0.714230	0.392796	-0.246719
O337	O	0.411717	-0.005336	0.417348
C338	C	0.391212	-0.017978	0.440595
H339	H	0.373115	-0.022618	0.426114
H340	H	0.412173	-0.050363	0.469548
H341	H	0.371766	0.008825	0.444922
O342	O	0.737019	-0.114392	0.472048
C343	C	0.735105	-0.137774	0.508791
H344	H	0.745055	-0.172112	0.517699
H345	H	0.754381	-0.140956	0.530185
H346	H	0.704333	-0.119160	0.508202
H347	H	0.083618	1.167558	-0.469053
O348	O	0.357300	0.265143	0.471728
C349	C	0.357288	0.296227	0.475203
H350	H	0.327372	0.320622	0.472927
H351	H	0.378474	0.278347	0.504146
H352	H	0.366008	0.314848	0.451346
O353	O	0.606472	-0.184639	0.395040
C354	C	0.637531	-0.181129	0.391547
H355	H	0.646285	-0.178480	0.414816
H356	H	0.662723	-0.211679	0.394781
H357	H	0.628702	-0.150390	0.362219
O358	O	-0.095130	1.170182	-0.471826
C359	C	-0.113330	1.213306	-0.481352
H360	H	-0.130013	1.216935	-0.461205
H361	H	-0.090864	1.219531	-0.478440
H362	H	-0.133831	1.238321	-0.512115
O363	O	0.321966	0.224307	-0.013682
C364	C	0.301192	0.231427	-0.044887
H365	H	0.282082	0.268309	-0.068748
H366	H	0.321968	0.213087	-0.055894
H367	H	0.282729	0.218642	-0.035254
H368	H	0.736848	0.167545	0.184224
O369	O	0.210357	0.620127	-0.013713
C370	C	0.186198	0.664982	-0.044917
H371	H	0.199213	0.671143	-0.068780
H372	H	0.156900	0.673448	-0.055920
H373	H	0.182944	0.686627	-0.035282
O374	O	0.023642	0.105979	0.028939
C375	C	0.044120	0.096087	0.062094
H376	H	0.075182	0.067047	0.072787
H377	H	0.043020	0.126160	0.055032
H378	H	0.030718	0.087058	0.085271
O379	O	0.112823	1.211452	-0.507438
C380	C	0.076106	1.222769	-0.520667
H381	H	0.067305	1.207216	-0.495164
H382	H	0.054641	1.260246	-0.538865
H383	H	0.076683	1.209999	-0.538668
H384	H	0.409067	0.335045	-0.028882
O385	O	0.737050	0.170430	0.359870
C386	C	0.735148	0.209079	0.346510
H387	H	0.745097	0.208034	0.371943
H388	H	0.754432	0.211186	0.328305
H389	H	0.704380	0.239269	0.328479
O390	O	0.606701	-0.184838	0.506843
C391	C	0.637779	-0.181354	0.506756
H392	H	0.632184	-0.153649	0.476841
H393	H	0.641197	-0.173695	0.527989
H394	H	0.665086	-0.213898	0.515369
O395	O	0.245805	0.376938	-0.019306
C396	C	0.266572	0.369813	0.011907
H397	H	0.297866	0.341349	0.022438
H398	H	0.264487	0.401065	0.002468
H399	H	0.254155	0.361264	0.036054
H400	H	0.218868	1.102641	-0.398869
O401	O	0.731254	0.211503	0.394997
C402	C	0.696682	0.246054	0.391503
H403	H	0.685277	0.231536	0.414770
H404	H	0.702037	0.268011	0.394740
H405	H	0.674777	0.266553	0.362174
H406	H	0.319447	0.102104	0.501529
H407	H	0.083852	0.370608	-0.468754
H408	H	-0.097910	1.064343	-0.365853
H409	H	0.129181	-0.002525	0.028804
O410	O	0.357350	0.549728	0.187089
C411	C	0.369028	0.514332	0.225363
H412	H	0.351568	0.500563	0.227507
H413	H	0.400700	0.487230	0.235129
H414	H	0.364261	0.526581	0.244401
H415	H	0.186549	1.064834	-0.366330
O416	O	0.746701	-0.005576	0.305788
C417	C	0.779851	-0.049322	0.326271
H418	H	0.790539	-0.062039	0.357335
H419	H	0.772788	-0.071228	0.325166
H420	H	0.803033	-0.050073	0.312877
H421	H	0.026519	-0.002524	0.028802
O422	O	-0.171346	0.099813	0.013589
C423	C	-0.184987	0.089362	0.044804
H424	H	-0.187820	0.110125	0.055337
H425	H	-0.214152	0.096713	0.035366
H426	H	-0.164022	0.052799	0.068950
H427	H	0.115902	-0.182071	0.013781
O428	O	0.077759	0.170255	0.019357
C429	C	0.077842	0.139091	0.053918
H430	H	0.107754	0.114772	0.076029
H431	H	0.056606	0.156906	0.064993
H432	H	0.069232	0.120395	0.048680
O433	O	0.698542	0.265136	-0.360472
C434	C	0.695671	0.291725	-0.348790
H435	H	0.683263	0.326534	-0.375091
H436	H	0.676120	0.293154	-0.330685
H437	H	0.725307	0.276987	-0.331147
H438	H	0.216514	0.205049	0.398816
H439	H	0.603628	0.333317	-0.013883
O440	O	0.189589	0.265164	-0.359983
C441	C	0.193002	0.296321	-0.360072
H442	H	0.169765	0.330952	-0.386062
H443	H	0.189652	0.294316	-0.332820
H444	H	0.222347	0.288891	-0.361406
H445	H	0.698765	0.267915	-0.184093
O446	O	0.698537	0.549833	-0.471877
C447	C	0.666361	0.582773	-0.505573
H448	H	0.657500	0.616776	-0.514477
H449	H	0.673868	0.578606	-0.529410
H450	H	0.641698	0.579573	-0.500082
H451	H	0.218838	-0.182293	0.013774
H452	H	0.306394	0.437665	0.308662
H453	H	0.704010	0.230344	-0.113972
H454	H	0.409046	0.437682	0.308677
O455	O	0.322491	0.099222	0.111140
C456	C	0.332019	0.056096	0.129343
H457	H	0.311869	0.052466	0.146023
H458	H	0.329111	0.049868	0.106878
H459	H	0.362779	0.031083	0.149848
H460	H	0.731501	0.102695	0.500964
H461	H	0.116390	0.332795	-0.113954
H462	H	0.704044	0.617217	-0.398156
H463	H	-0.168509	0.617707	-0.398861
H464	H	0.704083	0.333234	-0.501569
H465	H	0.026286	0.437937	-0.411412
H466	H	0.083849	0.370600	-0.184078
H467	H	0.746547	-0.002461	0.411323
O468	O	-0.171112	1.099175	-0.395138
C469	C	-0.202170	1.130259	-0.391651
H470	H	-0.210915	1.164928	-0.414919
H471	H	-0.227367	1.128145	-0.394892
H472	H	-0.193345	1.122839	-0.362323
H473	H	0.409038	0.335016	0.411333
H474	H	0.736771	0.064880	0.468655
H475	H	0.698774	0.552366	-0.365839
H476	H	0.698730	0.370878	-0.184331
H477	H	0.306171	0.100369	0.308700
O478	O	-0.171327	1.211008	-0.506933
C479	C	-0.202405	1.245484	-0.506847
H480	H	-0.196811	1.237676	-0.476931
H481	H	-0.205821	1.277794	-0.528078
H482	H	-0.229712	1.248862	-0.515462
O483	O	0.688973	0.440723	-0.417380
C484	C	0.688791	0.478245	-0.430068
H485	H	0.701144	0.475247	-0.404328
H486	H	0.706926	0.480625	-0.449526
H487	H	0.658158	0.509204	-0.446610
H488	H	0.248751	0.370868	0.365728
O489	O	0.189625	-0.114671	0.019244
C490	C	0.226348	-0.138173	0.017349
H491	H	0.226315	-0.154804	0.003261
H492	H	0.234265	-0.114331	-0.000252
H493	H	0.248160	-0.164387	0.047504
H494	H	0.318950	0.617485	-0.013872
H495	H	0.533717	0.370343	0.366251
O496	O	0.077749	-0.114398	0.019329
C497	C	0.077837	-0.117903	0.053900
H498	H	0.103826	-0.120655	0.065294
H499	H	0.050586	-0.087303	0.048548
H500	H	0.079170	-0.148583	0.075815
H501	H	-0.097925	0.167516	0.019049
O502	O	0.210363	0.620017	0.111139
C503	C	0.197139	0.596517	0.136536
H504	H	0.213806	0.579881	0.167256
H505	H	0.165383	0.620361	0.130297
H506	H	0.201534	0.570308	0.132592
O507	O	0.189638	0.058711	0.019281
C508	C	0.226354	0.047397	0.017368
H509	H	0.235155	0.062944	0.027325
H510	H	0.247820	0.009921	0.036640
H511	H	0.225777	0.060178	-0.013406
H512	H	0.731506	-0.181999	0.501490
O513	O	0.731218	-0.185014	0.395733
C514	C	0.696654	-0.181526	0.392328
H515	H	0.674543	-0.153817	0.394532
H516	H	0.685584	-0.173872	0.363437
H517	H	0.701886	-0.214068	0.416261
O518	O	0.321950	0.224291	0.506858
C519	C	0.331475	0.232883	0.531853
H520	H	0.311396	0.269716	0.518810
H521	H	0.328460	0.213371	0.560491
H522	H	0.362271	0.222512	0.536470
H523	H	0.248763	0.552393	0.184226
H524	H	0.218843	0.102607	0.013781
H525	H	0.216513	0.205060	0.113905
O526	O	-0.171256	0.620223	-0.507427
C527	C	-0.145854	0.596734	-0.520654
H528	H	-0.121503	0.562430	-0.495151
H529	H	-0.161862	0.593467	-0.538855
H530	H	-0.133656	0.615309	-0.538654
O531	O	0.411818	-0.005379	0.305819
C532	C	0.449164	-0.042885	0.330645
H533	H	0.450339	-0.055808	0.361571
H534	H	0.457133	-0.069686	0.326121
H535	H	0.470220	-0.033490	0.324320
O536	O	0.736994	-0.114616	0.360373
C537	C	0.735101	-0.138120	0.347154
H538	H	0.721009	-0.154748	0.363818
H539	H	0.717504	-0.114280	0.315395
H540	H	0.765256	-0.164336	0.351559
O541	O	0.530532	-0.114440	0.471803
C542	C	0.555928	-0.137942	0.508526
H543	H	0.586647	-0.154571	0.508490
H544	H	0.549686	-0.114102	0.516443
H545	H	0.551988	-0.164158	0.530339
O546	O	0.210356	0.336166	0.394924
C547	C	0.197131	0.374798	0.358210
H548	H	0.222635	0.373645	0.349411
H549	H	0.178929	0.376995	0.336739
H550	H	0.179135	0.404992	0.358789
H551	H	0.248778	0.552403	-0.019136
O552	O	0.530488	0.264771	0.472063
C553	C	0.555778	0.226117	0.508808
H554	H	0.580164	0.227162	0.517716
H555	H	0.539681	0.224001	0.530199
H556	H	0.567940	0.195932	0.508221
H557	H	0.026284	0.437932	-0.308749
H558	H	0.128940	0.335270	-0.308751
O559	O	0.606688	0.223699	0.507344
C560	C	0.637746	0.189157	0.507314
H561	H	0.646492	0.203684	0.481392
H562	H	0.662942	0.167197	0.534626
H563	H	0.628920	0.168658	0.505902
O564	O	0.224990	0.224051	-0.395122
C565	C	0.249150	0.231092	-0.415819
H566	H	0.236138	0.267970	-0.434994
H567	H	0.278449	0.212796	-0.394987
H568	H	0.252401	0.218206	-0.434210
H569	H	0.603861	0.230367	-0.013863
H570	H	0.186571	0.267899	-0.184308
H571	H	0.318951	0.617462	0.113882
H572	H	0.533738	0.267945	-0.019126
H573	H	0.116396	0.332801	-0.501069
H574	H	0.736825	0.064841	0.184002
H575	H	0.603840	0.332529	0.398799
O576	O	0.357372	0.549745	-0.019312
C577	C	0.381529	0.504897	0.011905
H578	H	0.363667	0.491431	0.022433
H579	H	0.403405	0.485216	0.002472
H580	H	0.397050	0.501776	0.036053
O581	O	0.731297	0.099894	0.110785
C582	C	0.696732	0.131048	0.079711
H583	H	0.685339	0.165681	0.071065
H584	H	0.702093	0.129036	0.054469
H585	H	0.674815	0.123620	0.088473
H586	H	0.351759	0.064523	0.184256
O587	O	0.135156	0.994557	-0.305880
C588	C	0.147839	1.019213	-0.330718
H589	H	0.122098	1.054305	-0.353464
H590	H	0.167291	1.020279	-0.313645
H591	H	0.164386	1.002992	-0.345131
H592	H	0.533275	-0.116983	0.365762
O593	O	0.023542	1.106076	-0.417391
C594	C	-0.013799	1.118586	-0.430078
H595	H	-0.023152	1.105194	-0.404337
H596	H	-0.034311	1.156179	-0.449529
H597	H	-0.014127	1.104503	-0.446627
H598	H	0.219107	0.230092	-0.114187
O599	O	0.704261	0.620309	-0.506956
C600	C	0.673049	0.665166	-0.531052
H601	H	0.662510	0.678535	-0.513126
H602	H	0.682492	0.684890	-0.552864
H603	H	0.648907	0.668344	-0.546652
H604	H	0.026534	0.997517	-0.308781
H605	H	0.689022	0.335005	-0.308760
O606	O	0.698570	0.376916	-0.472135
C607	C	0.700484	0.388362	-0.508877
H608	H	0.690534	0.372880	-0.517782
H609	H	0.681209	0.425850	-0.530272
H610	H	0.731257	0.375613	-0.508287
H611	H	0.115906	0.817949	-0.114217
H612	H	0.083599	0.882799	-0.184339
H613	H	-0.098161	0.552631	-0.469038
H614	H	0.186528	0.882595	-0.184098
H615	H	0.703986	0.333302	-0.114213
O616	O	0.224725	0.814846	-0.110934
C617	C	0.248812	0.769986	-0.097281
H618	H	0.235795	0.763898	-0.115055
H619	H	0.278160	0.761416	-0.099713
H620	H	0.251961	0.748369	-0.066034
H621	H	0.409064	0.437712	-0.028890
H622	H	0.306409	0.437706	-0.028882
H623	H	0.216246	0.333298	-0.013856
O624	O	0.357617	0.058432	0.472087
C625	C	0.370975	0.046979	0.508831
H626	H	0.345542	0.062458	0.517738
H627	H	0.389185	0.009491	0.530223
H628	H	0.388999	0.059726	0.508246
H629	H	0.248829	0.167471	0.366271
O630	O	0.357356	0.265059	-0.019349
C631	C	0.370584	0.226429	-0.017434
H632	H	0.345081	0.227581	-0.027386
H633	H	0.388787	0.224234	-0.036708
H634	H	0.388580	0.196233	0.013340
O635	O	-0.171020	0.211411	0.013546
C636	C	-0.145618	0.222723	0.015461
H637	H	-0.121267	0.207173	0.005508
H638	H	-0.161624	0.260200	-0.003813
H639	H	-0.133420	0.209945	0.046235
O640	O	-0.095185	0.058739	0.019238
C641	C	-0.120583	0.047416	0.017339
H642	H	-0.151301	0.078170	0.003253
H643	H	-0.114343	0.033265	-0.000266
H644	H	-0.116641	0.021657	0.047493
H645	H	-0.098386	0.552847	-0.366318
O646	O	0.245716	0.170352	0.187006
C647	C	0.209000	0.208982	0.161604
H648	H	0.200200	0.207828	0.137255
H649	H	0.187534	0.211176	0.177614
H650	H	0.209579	0.239178	0.149403
H651	H	0.731594	0.205340	0.114106
O652	O	0.746665	0.106056	0.305783
C653	C	0.746818	0.118581	0.330607
H654	H	0.758563	0.088832	0.361534
H655	H	0.765648	0.131077	0.326082
H656	H	0.716366	0.145962	0.324279
