data_functionalizedCrystal
_audit_creation_method	'MofGen! by Chris Wilmer'
_symmetry_space_group_name_H-M	'P1'
_symmetry_Int_Tables_number	1
_symmetry_cell_setting	triclinic
loop_
_symmetry_equiv_pos_as_xyz
  x,y,z
_cell_length_a	19.188905
_cell_length_b	10.654550
_cell_length_c	9.130313
_cell_angle_alpha	89.999890
_cell_angle_beta	89.992651
_cell_angle_gamma	83.809729
loop_
_atom_site_label
_atom_site_type_symbol
_atom_site_fract_x
_atom_site_fract_y
_atom_site_fract_z
O1	O	0.927176	0.156624	-0.122037
O2	O	0.724001	0.177763	-0.121987
O3	O	0.830260	-0.015645	-0.122008
O4	O	0.820917	0.350032	-0.122016
O5	O	0.830259	-0.015640	0.121591
O6	O	0.724000	0.177768	0.121612
O7	O	0.927175	0.156630	0.121562
Cu8	Cu	0.825587	0.167199	0.143829
Cu9	Cu	0.825589	0.167193	-0.144255
O10	O	0.820916	0.350038	0.121582
C11	C	0.829573	-0.062426	-0.000210
C12	C	0.827521	-0.201826	-0.000215
C13	C	0.697984	0.177086	-0.000181
C14	C	0.620466	0.175047	-0.000162
C15	C	0.890085	-0.282645	-0.000226
C16	C	0.888152	-0.413625	-0.000235
C17	C	0.761086	-0.382952	-0.000217
C18	C	0.763020	-0.251975	-0.000218
C19	C	0.954586	-0.232496	-0.000223
C20	C	1.017155	-0.313317	-0.000232
C21	C	1.015222	-0.444296	-0.000242
C22	C	0.950720	-0.494455	-0.000242
C23	C	0.584068	0.174065	-0.132951
C24	C	0.511232	0.172135	-0.132969
C25	C	0.474798	0.171162	-0.000190
C26	C	0.511203	0.172151	0.132617
C27	C	0.584037	0.174094	0.132631
N28	N	0.365289	0.096650	0.098626
N29	N	0.296100	0.094802	0.098603
C30	C	0.255353	0.165311	-0.000226
N31	N	0.286409	0.237723	-0.099053
N32	N	0.355605	0.239565	-0.099035
C33	C	0.395821	0.169056	-0.000191
C34	C	0.139978	0.162238	-0.133044
C35	C	0.067140	0.160316	-0.133057
C36	C	0.067113	0.160320	0.132533
C37	C	0.139949	0.162255	0.132542
C38	C	0.176377	0.163208	-0.000251
C39	C	0.953191	0.157306	-0.000248
C40	C	1.030710	0.159345	-0.000276
C41	C	0.821602	0.396818	-0.000219
C42	C	0.823655	0.536218	-0.000224
N43	N	0.825591	0.167203	0.346452
N44	N	0.825590	0.167180	-0.346877
C45	C	0.872655	0.081590	0.423095
C46	C	0.872653	0.081575	0.576431
C47	C	0.778521	0.252796	0.576469
C48	C	0.778520	0.252804	0.423135
C49	C	0.919726	-0.004011	0.346411
C50	C	0.966794	-0.089629	0.423054
C51	C	0.966792	-0.089644	0.576391
C52	C	0.919722	-0.004041	0.653085
H53	H	1.069669	-0.272468	-0.000269
H54	H	0.919719	-0.004069	0.777942
C55	C	1.084043	-0.533195	-0.000255
H56	H	1.122731	-0.484565	-0.000243
H57	H	1.085936	-0.584928	-0.085204
H58	H	1.085925	-0.584925	0.084703
C59	C	1.018558	-0.183822	0.660701
H60	H	1.011813	-0.171581	0.763005
H61	H	1.065217	-0.170395	0.635565
H62	H	1.010569	-0.267602	0.635561
C63	C	0.948595	-0.638530	-0.000261
H64	H	0.995094	-0.679483	-0.000264
H65	H	0.924694	-0.662492	-0.085204
H66	H	0.924695	-0.662499	0.084703
H67	H	0.169638	0.163028	-0.241172
H68	H	0.708572	-0.423802	-0.000215
H69	H	0.956167	-0.125847	-0.000210
H70	H	1.005113	-0.159332	0.360602
H71	H	0.037505	0.159524	-0.241194
C72	C	0.726756	0.346961	0.660829
H73	H	0.733502	0.334702	0.763126
H74	H	0.680094	0.333543	0.635718
H75	H	0.734747	0.430743	0.635701
C76	C	0.726755	0.346981	0.338823
H77	H	0.698729	0.397974	0.406451
H78	H	0.697477	0.301943	0.279009
H79	H	0.752127	0.399148	0.279007
H80	H	0.712075	-0.186169	-0.000207
H81	H	0.613723	0.174841	-0.241082
H82	H	0.481534	0.171362	0.240726
C83	C	0.471185	0.171066	-0.279043
H84	H	0.503312	0.171910	-0.358126
H85	H	0.437797	0.243525	-0.284564
H86	H	0.447750	0.097086	-0.284566
C87	C	0.919728	-0.003991	0.177747
H88	H	0.884960	0.059264	0.143083
H89	H	0.909794	-0.084208	0.143042
H90	H	0.964435	0.013014	0.143061
C91	C	0.624080	0.175167	0.278702
H92	H	0.672674	0.176467	0.259692
H93	H	0.617114	0.101638	0.333267
H94	H	0.607162	0.248077	0.333254
C95	C	0.027017	0.159665	0.278587
H96	H	-0.021582	0.158488	0.259562
H97	H	0.034048	0.233325	0.332841
H98	H	0.043831	0.086884	0.333458
C99	C	0.179990	0.163319	0.278612
H100	H	0.147862	0.162454	0.357691
H101	H	0.203425	0.237290	0.284139
H102	H	0.213378	0.090851	0.284136
