data_functionalizedCrystal
_audit_creation_method	'MofGen! by Chris Wilmer'
_symmetry_space_group_name_H-M	'P1'
_symmetry_Int_Tables_number	1
_symmetry_cell_setting	triclinic
loop_
_symmetry_equiv_pos_as_xyz
  x,y,z
_cell_length_a	12.827892
_cell_length_b	19.121379
_cell_length_c	12.827885
_cell_angle_alpha	87.586212
_cell_angle_beta	89.970214
_cell_angle_gamma	87.544142
loop_
_atom_site_label
_atom_site_type_symbol
_atom_site_fract_x
_atom_site_fract_y
_atom_site_fract_z
Zn1	Zn	-0.347863	-1.073762	-0.522937
Zn2	Zn	-0.522645	-1.073691	-0.348202
Zn3	Zn	-0.355366	-0.956310	-0.355639
Zn4	Zn	-0.530015	-0.956300	-0.530327
O5	O	-0.438972	-1.015016	-0.439276
O6	O	-0.364825	-1.172035	-0.493553
O7	O	-0.500511	-1.058094	-0.202954
O8	O	-0.208132	-0.971924	-0.377852
O9	O	-0.493236	-1.171982	-0.365176
O10	O	-0.202620	-1.058215	-0.500765
O11	O	-0.377611	-0.971855	-0.208418
O12	O	-0.384757	-0.858026	-0.385017
O13	O	-0.505797	-0.971907	-0.675581
O14	O	-0.513071	-0.858019	-0.513359
O15	O	-0.371971	-1.058206	-0.670152
O16	O	-0.669861	-1.058085	-0.372341
O17	O	-0.675275	-0.971838	-0.506147
C18	C	-0.450529	-0.832539	-0.450797
C19	C	-0.455497	-0.754475	-0.455751
C20	C	-0.390925	-0.717783	-0.391367
C21	C	-0.395603	-0.644434	-0.396021
C22	C	-0.464849	-0.607777	-0.465065
C23	C	-0.529428	-0.644474	-0.529451
C24	C	-0.524755	-0.717822	-0.524791
C25	C	-0.482311	-0.386314	-0.482468
C26	C	-0.486978	-0.312960	-0.487126
C27	C	-0.353153	-0.312925	-0.353693
C28	C	-0.348481	-0.386275	-0.349044
C29	C	-0.413065	-0.422965	-0.413426
C30	C	-0.469630	-0.532802	-0.469826
C31	C	-0.408288	-0.497939	-0.408659
C32	C	-0.710485	-1.014972	-0.439261
C33	C	-0.826635	-1.015017	-0.439285
C34	C	-1.001176	-0.972378	-0.505474
C35	C	-0.881128	-0.972330	-0.505450
C36	C	-0.166398	-1.015079	-0.439314
C37	C	-0.050243	-1.015106	-0.439330
C38	C	-0.438869	-1.015063	-0.711844
C39	C	-0.438825	-1.015084	-0.827996
C40	C	-0.427366	-0.198205	-0.427701
C41	C	-0.422405	-0.276269	-0.422742
C42	C	-0.372591	-1.057792	-0.877094
C43	C	-0.372544	-1.057814	-0.997143
C44	C	-0.438997	-1.015008	-0.167767
C45	C	-0.438738	-1.015124	-0.051607
H46	H	-0.300574	-0.283044	-0.301276
H47	H	-1.003378	-1.051654	-0.382687
C48	C	-0.545792	-0.492472	-0.545779
N49	N	-0.603158	-0.462094	-0.602987
H50	H	-0.838922	-0.935746	-0.562075
H51	H	-0.334529	-0.747624	-0.335152
C52	C	-0.515384	-0.965705	-0.891271
N53	N	-0.573050	-0.928512	-0.938929
C54	C	-0.324558	-0.604076	-0.325203
N55	N	-0.271040	-0.573680	-0.271862
H56	H	-0.315842	-1.094380	-1.039376
H57	H	-0.868836	-1.051598	-0.382651
C58	C	-1.064484	-0.923002	-0.582000
N59	N	-1.112167	-0.885809	-0.639639
H60	H	-0.315917	-1.094337	-0.830253
C61	C	-0.605601	-0.604149	-0.605400
N62	N	-0.662972	-0.573777	-0.662609
H63	H	-0.292101	-0.416116	-0.292814
H64	H	-0.534900	-0.416178	-0.534893
C65	C	-0.563153	-0.272639	-0.563087
N66	N	-0.620522	-0.242270	-0.620301
C67	C	-0.595788	-0.758182	-0.595621
N68	N	-0.649295	-0.788581	-0.648970
H69	H	-0.351912	-0.527788	-0.352440
H70	H	-0.495450	-0.978561	-1.009380
