data_functionalizedCrystal
_audit_creation_method	'MofGen! by Chris Wilmer'
_symmetry_space_group_name_H-M	'P1'
_symmetry_Int_Tables_number	1
_symmetry_cell_setting	triclinic
loop_
_symmetry_equiv_pos_as_xyz
  x,y,z
_cell_length_a	6.817900
_cell_length_b	11.168121
_cell_length_c	10.943624
_cell_angle_alpha	91.899023
_cell_angle_beta	108.838799
_cell_angle_gamma	108.508496
loop_
_atom_site_label
_atom_site_type_symbol
_atom_site_fract_x
_atom_site_fract_y
_atom_site_fract_z
V1	V	-4.113777	-0.174672	-0.402562
O2	O	-4.073287	0.008428	-0.394888
O3	O	-4.090038	-0.346377	-0.399819
O4	O	-4.091766	-0.171970	-0.578128
O5	O	-4.071547	-0.167187	-0.215344
V6	V	-4.590790	-0.152773	-0.380168
O7	O	-4.389315	-0.222709	-0.451685
O8	O	-4.765448	-0.104735	-0.331045
O9	O	-4.391322	0.018933	-0.382910
O10	O	-4.748676	-0.335872	-0.387842
O11	O	-4.750416	-0.160257	-0.567385
O12	O	-4.389594	-0.155474	-0.204602
C13	C	-3.940184	-0.388236	-0.393471
C14	C	-4.002237	-0.528607	-0.392399
C15	C	-3.919141	-0.730153	-0.384690
C16	C	-3.855002	-0.585072	-0.385798
C17	C	-3.942387	-0.165760	-0.620920
C18	C	-4.005837	-0.164687	-0.764447
C19	C	-3.850738	-0.157463	-0.841594
C20	C	-4.039042	-0.264697	-0.947591
C21	C	-3.930618	-0.055553	-0.914191
C22	C	-4.193350	-0.272023	-0.868567
C23	C	-4.084847	-0.062784	-0.835144
C24	C	-4.273287	-0.170049	-0.941111
C25	C	-4.204518	0.060785	-0.389255
C26	C	-4.121705	0.201155	-0.390335
C27	C	-4.202315	-0.161688	-0.161802
C28	C	-4.118102	-0.162754	-0.018275
H29	H	-3.681470	-0.526021	-0.380960
H30	H	-4.247646	-0.750248	-0.395995
H31	H	-4.452549	-0.175396	-0.984355
H32	H	-4.175763	-0.587647	-0.397218
C33	C	-4.109971	0.052530	-0.768931
H34	H	-4.214333	0.023141	-0.726647
H35	H	-3.971270	0.103626	-0.706326
H36	H	-4.159832	0.101961	-0.832978
C37	C	-3.608732	-0.150469	-0.782880
H38	H	-3.592340	-0.222330	-0.821753
H39	H	-3.515183	-0.074329	-0.799344
H40	H	-3.569391	-0.150463	-0.691313
H41	H	-3.820169	0.035911	-0.934948
C42	C	-4.013784	-0.380003	-1.013740
H43	H	-3.864148	-0.375424	-0.979484
H44	H	-4.105701	-0.456803	-0.997319
H45	H	-4.055875	-0.378899	-1.105232
H46	H	-3.793207	-0.778752	-0.379043
H47	H	-4.303832	-0.363609	-0.848028
