data_functionalizedCrystal
_audit_creation_method	'MofGen! by Chris Wilmer'
_symmetry_space_group_name_H-M	'P1'
_symmetry_Int_Tables_number	1
_symmetry_cell_setting	triclinic
loop_
_symmetry_equiv_pos_as_xyz
  x,y,z
_cell_length_a	16.974823
_cell_length_b	23.532407
_cell_length_c	16.053802
_cell_angle_alpha	87.440303
_cell_angle_beta	91.088171
_cell_angle_gamma	96.877748
loop_
_atom_site_label
_atom_site_type_symbol
_atom_site_fract_x
_atom_site_fract_y
_atom_site_fract_z
O1	O	-0.092341	0.758193	-0.075564
O2	O	-0.106183	0.592408	-0.076524
O3	O	0.015504	0.679655	-0.068283
O4	O	-0.214028	0.670946	-0.083804
O5	O	0.008833	0.674852	0.070124
O6	O	-0.112853	0.587606	0.061884
O7	O	-0.099011	0.753390	0.062843
Zn8	Zn	-0.106992	0.669735	0.084339
Zn9	Zn	-0.098203	0.676063	-0.098019
O10	O	-0.220698	0.666143	0.054603
C11	C	-0.109165	0.568789	-0.007299
C12	C	-0.108105	0.505566	-0.007237
C13	C	0.041529	0.676833	0.002903
C14	C	0.129012	0.675575	0.008813
C15	C	0.173744	0.677602	-0.063856
C16	C	0.255944	0.676416	-0.058301
C17	C	0.293411	0.673206	0.019924
C18	C	0.248673	0.671176	0.092598
C19	C	0.166474	0.672359	0.087042
C20	C	0.538858	0.669384	0.044631
C21	C	0.621063	0.668204	0.050181
C22	C	0.628328	0.673442	-0.100718
C23	C	0.546128	0.674628	-0.106268
C24	C	0.501397	0.672595	-0.033593
N25	N	0.377432	0.671994	0.025604
N26	N	0.417376	0.673803	-0.039274
C27	C	-0.173471	0.106830	-0.011619
C28	C	-0.172487	0.047424	-0.011547
O29	O	-0.233082	0.011020	-0.015614
N30	N	-0.100144	0.024390	-0.006657
C31	C	-0.028781	0.060766	-0.001830
O32	O	0.032843	0.035719	0.002337
C33	C	-0.029766	0.120170	-0.001895
C34	C	-0.102114	0.143201	-0.006794
C35	C	-0.245813	0.129862	-0.016517
C36	C	-0.246797	0.189264	-0.016590
C37	C	-0.175439	0.225634	-0.011765
C38	C	-0.103098	0.202603	-0.006868
C39	C	0.041596	0.156544	0.002938
C40	C	0.040604	0.215952	0.002872
C41	C	-0.031744	0.238983	-0.002027
C42	C	-0.032724	0.298375	-0.002116
N43	N	-0.105067	0.321409	-0.007006
C44	C	-0.176425	0.285039	-0.011831
C45	C	-0.026717	-0.063989	-0.001690
C46	C	-0.025730	-0.123392	-0.001630
C47	C	-0.169437	-0.136729	-0.011347
C48	C	-0.170423	-0.077324	-0.011412
C49	C	-0.099060	-0.040955	-0.006581
C50	C	-0.178485	0.409788	-0.011985
C51	C	-0.179463	0.469196	-0.012061
C52	C	-0.035757	0.482527	-0.002341
C53	C	-0.034779	0.423125	-0.002269
C54	C	-0.106150	0.386756	-0.007089
O55	O	0.027839	0.334814	0.001952
O56	O	-0.238039	0.310094	-0.015986
C57	C	0.753277	0.668967	-0.016582
C58	C	0.665794	0.670231	-0.022487
C59	C	-0.096029	0.777009	-0.006383
C60	C	-0.097089	0.840232	-0.006451
N61	N	-0.112989	0.665421	0.208793
N62	N	-0.092199	0.680381	-0.222473
C63	C	-0.061229	0.702559	0.255992
C64	C	-0.065432	0.699546	0.343114
C65	C	-0.121399	0.659399	0.383035
C66	C	-0.173161	0.622258	0.335830
C67	C	-0.168954	0.625268	0.248710
C68	C	-0.139754	0.646250	0.643202
C69	C	-0.143959	0.643244	0.730329
C70	C	-0.036228	0.720532	0.737606
C71	C	-0.032029	0.723541	0.650484
C72	C	-0.083789	0.686398	0.603287
N73	N	-0.125698	0.656320	0.472088
N74	N	-0.079485	0.689475	0.514236
H75	H	0.292361	0.678069	-0.117476
H76	H	0.651565	0.665587	0.113885
H77	H	-0.023285	0.729786	0.381543
H78	H	0.100508	0.137803	0.006928
H79	H	0.143245	0.680219	-0.127555
N80	N	-0.255456	0.370560	-0.017190
H81	H	-0.260726	0.343841	0.033931
H82	H	-0.301387	0.394207	-0.020333
N83	N	-0.322798	0.090654	-0.021717
H84	H	-0.323140	0.067485	-0.073214
H85	H	-0.328039	0.063969	0.029438
H86	H	0.005912	0.750772	0.776042
H87	H	0.130053	0.670699	0.146217
H88	H	-0.305709	0.208009	-0.020579
H89	H	0.033183	-0.142137	0.002346
N90	N	-0.248453	-0.052486	-0.016699
H91	H	-0.293504	-0.084546	-0.019748
H92	H	-0.254472	-0.029907	0.034371
N93	N	0.117575	0.255179	0.008089
H94	H	0.163550	0.231571	0.011204
H95	H	0.122776	0.281893	-0.043036
N96	N	0.490619	0.667199	0.123012
H97	H	0.526831	0.664991	0.173407
H98	H	0.463022	0.702849	0.124446
H99	H	-0.189537	0.610549	0.762828
N100	N	0.050257	-0.024762	0.003517
H101	H	0.096230	-0.048373	0.006625
H102	H	0.055457	0.001953	-0.047607
H103	H	-0.227541	-0.166353	-0.015271
H104	H	0.664757	0.675096	-0.159886
N105	N	0.041205	0.521761	0.002863
H106	H	0.029596	0.562887	0.002078
H107	H	0.070275	0.512515	0.056310
N108	N	-0.195573	0.606188	0.592303
H109	H	-0.231665	0.580299	0.630815
H110	H	-0.228520	0.629285	0.553797
N111	N	0.043251	0.398281	0.002999
H112	H	0.088306	0.430338	0.006040
H113	H	0.044319	0.372152	0.054553
H114	H	-0.015659	0.735253	0.223494
N115	N	0.028334	0.766844	0.607427
H116	H	0.060487	0.789913	0.650548
H117	H	0.064769	0.746238	0.573634
N118	N	-0.233521	0.578951	0.378884
H119	H	-0.228334	0.582679	0.441236
H120	H	-0.288651	0.586138	0.359869
N121	N	-0.257497	0.494036	-0.017354
H122	H	-0.302550	0.461978	-0.020398
H123	H	-0.263514	0.516620	0.033711
N124	N	-0.224776	0.585210	0.197798
H125	H	-0.260870	0.559320	0.236306
H126	H	-0.257721	0.608310	0.159294
H127	H	0.515628	0.677243	-0.169967
H128	H	0.279184	0.668559	0.156291
