data_functionalizedCrystal
_audit_creation_method	'MofGen! by Chris Wilmer'
_symmetry_space_group_name_H-M	'P1'
_symmetry_Int_Tables_number	1
_symmetry_cell_setting	triclinic
loop_
_symmetry_equiv_pos_as_xyz
  x,y,z
_cell_length_a	15.995343
_cell_length_b	11.792241
_cell_length_c	10.868271
_cell_angle_alpha	90.005281
_cell_angle_beta	90.000003
_cell_angle_gamma	96.158700
loop_
_atom_site_label
_atom_site_type_symbol
_atom_site_fract_x
_atom_site_fract_y
_atom_site_fract_z
O1	O	1.111653	-0.146254	-0.102199
O2	O	1.444987	0.187079	0.231134
O3	O	1.778320	0.520413	0.564467
O4	O	0.867959	-0.164329	-0.102229
O5	O	1.201292	0.169005	0.231105
O6	O	1.534626	0.502338	0.564438
O7	O	0.995720	0.009929	-0.102205
O8	O	1.329053	0.343262	0.231129
O9	O	1.662387	0.676595	0.564462
O10	O	0.983892	-0.320511	-0.102223
O11	O	1.317226	0.012822	0.231110
O12	O	1.650559	0.346155	0.564443
O13	O	0.995709	0.009935	0.102440
O14	O	1.329043	0.343269	0.435773
O15	O	1.662376	0.676602	0.769107
O16	O	0.867949	-0.164322	0.102416
O17	O	1.201282	0.169011	0.435749
O18	O	1.534615	0.502345	0.769083
O19	O	1.111643	-0.146247	0.102445
O20	O	1.444976	0.187086	0.435779
O21	O	1.778309	0.520419	0.769112
Zn22	Zn	0.989794	-0.155284	0.134922
Zn23	Zn	1.323127	0.178050	0.468256
Zn24	Zn	1.656461	0.511383	0.801589
Zn25	Zn	0.989808	-0.155292	-0.134706
Zn26	Zn	1.323141	0.178041	0.198628
Zn27	Zn	1.656475	0.511374	0.531961
O28	O	0.983882	-0.320505	0.102421
O29	O	1.317215	0.012829	0.435755
O30	O	1.650549	0.346162	0.769088
C31	C	0.836756	-0.163580	0.000090
C32	C	1.170089	0.169754	0.333423
C33	C	1.503422	0.503087	0.666756
C34	C	0.743795	-0.161344	0.000079
C35	C	1.077128	0.171989	0.333412
C36	C	1.410461	0.505322	0.666745
C37	C	0.573590	-0.157286	0.000095
C38	C	0.906923	0.176047	0.333429
C39	C	1.240257	0.509380	0.666762
C40	C	0.549673	-0.031499	0.000102
C41	C	0.883007	0.301834	0.333436
C42	C	1.216340	0.635168	0.666769
C43	C	0.452985	-0.029133	0.000574
C44	C	0.786318	0.304201	0.333907
C45	C	1.119651	0.637534	0.667241
C46	C	0.406012	-0.153290	0.000110
C47	C	0.739345	0.180044	0.333444
C48	C	1.072679	0.513377	0.666777
C49	C	0.435385	-0.216534	0.116737
C50	C	0.768718	0.116800	0.450070
C51	C	1.102051	0.450133	0.783403
C52	C	0.532184	-0.218025	0.116827
C53	C	0.865517	0.115308	0.450161
C54	C	1.198850	0.448641	0.783494
C55	C	0.532115	-0.219875	-0.115900
C56	C	0.865448	0.113458	0.217433
C57	C	1.198781	0.446792	0.550766
C58	C	0.435599	-0.215231	-0.117426
C59	C	0.768932	0.118102	0.215908
C60	C	1.102265	0.451435	0.549241
C61	C	0.311303	-0.151038	0.000123
C62	C	0.644637	0.182296	0.333456
C63	C	0.977970	0.515629	0.666790
C64	C	0.668298	-0.159542	0.000091
C65	C	1.001631	0.173791	0.333424
C66	C	1.334965	0.507124	0.666758
C67	C	0.994972	0.052217	0.000117
C68	C	1.328305	0.385550	0.333451
C69	C	1.661638	0.718883	0.666784
C70	C	0.992748	0.178212	0.000116
C71	C	1.326081	0.511545	0.333449
C72	C	1.659415	0.844879	0.666782
C73	C	1.142846	-0.146996	0.000124
C74	C	1.476180	0.186337	0.333457
C75	C	1.809513	0.519670	0.666791
C76	C	1.235807	-0.149232	0.000127
C77	C	1.569140	0.184102	0.333460
C78	C	1.902474	0.517435	0.666794
C79	C	0.984630	-0.362793	0.000097
C80	C	1.317963	-0.029459	0.333430
C81	C	1.651297	0.303874	0.666763
C82	C	0.986854	-0.488788	0.000090
C83	C	1.320187	-0.155455	0.333423
C84	C	1.653520	0.177879	0.666757
N85	N	0.989791	-0.155277	0.318936
N86	N	1.323124	0.178057	0.652270
N87	N	1.656457	0.511390	0.985603
C88	C	0.988659	0.408890	0.000095
C89	C	1.321992	0.742223	0.333428
C90	C	1.655326	1.075556	0.666761
C91	C	0.990931	0.280524	0.000106
C92	C	1.324264	0.613857	0.333439
C93	C	1.657598	0.947190	0.666773
N94	N	0.989818	-0.155290	-0.318720
N95	N	1.323151	0.178043	0.014614
N96	N	1.656485	0.511376	0.347947
C97	C	0.989803	-0.155290	0.569943
C98	C	1.323137	0.178043	0.903276
C99	C	1.656470	0.511377	1.236609
C100	C	0.989794	-0.155286	0.430265
C101	C	1.323127	0.178047	0.763598
C102	C	1.656460	0.511381	1.096932
H103	H	0.578436	0.016466	0.083617
H104	H	0.911769	0.349799	0.416950
H105	H	1.245102	0.683132	0.750283
H106	H	0.546548	-0.312462	-0.117030
H107	H	0.879882	0.020871	0.216303
H108	H	1.213215	0.354205	0.549637
H109	H	0.434320	0.020148	0.084671
H110	H	0.767653	0.353481	0.418004
H111	H	1.100986	0.686815	0.751338
O112	O	0.393754	-0.337572	0.122067
O113	O	0.727088	-0.004239	0.455400
O114	O	1.060421	0.329094	0.788733
H115	H	0.356486	-0.349915	0.208087
H116	H	0.689819	-0.016582	0.541420
H117	H	1.023152	0.316751	0.874754
O118	O	0.567401	-0.160684	0.232754
O119	O	0.900735	0.172649	0.566087
O120	O	1.234068	0.505982	0.899420
H121	H	0.612348	-0.085842	0.208014
H122	H	0.945681	0.247491	0.541347
H123	H	1.279015	0.580825	0.874681
H124	H	0.416837	-0.169175	-0.203707
H125	H	0.750170	0.164159	0.129626
H126	H	1.083503	0.497492	0.462959
O127	O	0.552055	-0.340205	0.123422
O128	O	0.885388	-0.006872	0.456756
O129	O	1.218721	0.326462	0.790089
H130	H	0.492546	-0.397964	0.126543
H131	H	0.825880	-0.064630	0.459876
H132	H	1.159213	0.268703	0.793209
O133	O	0.427496	0.036447	-0.110142
O134	O	0.760829	0.369780	0.223191
O135	O	1.094163	0.703114	0.556525
H136	H	0.358255	0.038205	-0.109919
H137	H	0.691589	0.371538	0.223415
H138	H	1.024922	0.704872	0.556748
O139	O	0.586530	0.033119	-0.110613
O140	O	0.919863	0.366452	0.222720
O141	O	1.253196	0.699785	0.556053
H142	H	0.622287	-0.023724	-0.166834
H143	H	0.955620	0.309609	0.166499
H144	H	1.288954	0.642942	0.499832
H145	H	0.415091	-0.173135	0.203864
H146	H	0.748425	0.160199	0.537198
H147	H	1.081758	0.493532	0.870531
H148	H	0.560209	-0.180192	-0.204327
H149	H	0.893542	0.153141	0.129006
H150	H	1.226876	0.486475	0.462339
O151	O	0.392520	-0.335251	-0.127227
O152	O	0.725854	-0.001918	0.206106
O153	O	1.059187	0.331416	0.539440
H154	H	0.349160	-0.352708	-0.048120
H155	H	0.682493	-0.019374	0.285213
H156	H	1.015827	0.313959	0.618546
