data_functionalizedCrystal
_audit_creation_method	'MofGen! by Chris Wilmer'
_symmetry_space_group_name_H-M	'P1'
_symmetry_Int_Tables_number	1
_symmetry_cell_setting	triclinic
loop_
_symmetry_equiv_pos_as_xyz
  x,y,z
_cell_length_a	10.489741
_cell_length_b	16.992695
_cell_length_c	15.455301
_cell_angle_alpha	87.173129
_cell_angle_beta	92.972980
_cell_angle_gamma	92.396302
loop_
_atom_site_label
_atom_site_type_symbol
_atom_site_fract_x
_atom_site_fract_y
_atom_site_fract_z
O1	O	1.708979	-0.113779	0.072078
O2	O	1.338688	-0.124170	0.072092
O3	O	1.522348	-0.004823	0.072078
O4	O	1.525318	-0.233126	0.072092
O5	O	1.511733	0.001367	-0.072184
O6	O	1.328072	-0.117980	-0.072171
O7	O	1.698363	-0.107589	-0.072184
Cu8	Cu	1.512248	-0.112219	-0.085350
Cu9	Cu	1.524803	-0.119540	0.085258
O10	O	1.514702	-0.226936	-0.072171
C11	C	1.285780	-0.120290	-0.000038
C12	C	1.143947	-0.117942	-0.000033
C13	C	1.513221	0.027506	-0.000053
C14	C	1.501826	0.114614	-0.000052
C15	C	1.523830	-0.259265	-0.000038
C16	C	1.535225	-0.346374	-0.000033
C17	C	1.069200	-0.042006	-0.000045
C18	C	0.985428	-0.080929	0.071084
C19	C	0.974997	-0.074844	-0.071148
C20	C	1.062047	-0.156900	0.071155
C21	C	1.051621	-0.150802	-0.071140
C22	C	0.967882	-0.189781	0.000007
C23	C	1.751271	-0.111469	-0.000053
C24	C	1.893104	-0.113817	-0.000052
N25	N	1.503427	-0.107070	-0.205346
C26	C	1.611775	0.164234	-0.000057
C27	C	1.601061	0.246081	-0.000048
C28	C	1.480396	0.278307	-0.000041
C29	C	1.370439	0.228680	-0.000033
C30	C	1.381155	0.146835	-0.000036
C31	C	1.435984	0.522155	-0.000027
C32	C	1.425276	0.604006	-0.000028
C33	C	1.655899	0.621402	-0.000041
C34	C	1.666604	0.539554	-0.000049
C35	C	1.556647	0.489935	-0.000036
N36	N	1.469442	0.361967	-0.000035
N37	N	1.567604	0.406276	-0.000036
C38	C	1.582343	-0.153173	-0.250736
C39	C	1.575689	-0.149274	-0.341544
C40	C	1.490112	-0.099276	-0.386960
C41	C	1.411193	-0.053168	-0.341564
C42	C	1.417854	-0.057063	-0.250757
C43	C	1.461375	-0.082470	-0.658543
C44	C	1.454717	-0.078580	-0.749356
C45	C	1.619216	-0.174685	-0.749331
C46	C	1.625864	-0.178580	-0.658522
C47	C	1.546950	-0.132469	-0.613133
N48	N	1.483305	-0.095291	-0.479781
N49	N	1.553764	-0.136450	-0.520314
N50	N	1.533633	-0.124683	0.205253
H51	H	1.113465	0.020415	0.000040
H52	H	1.710033	0.138003	-0.000068
H53	H	1.745420	0.661810	-0.000049
H54	H	1.695554	-0.219291	-0.621551
H55	H	1.764862	0.513322	-0.000055
H56	H	1.385023	-0.037865	-0.786331
H57	H	1.327011	0.630241	-0.000036
H58	H	1.291622	0.106435	-0.000032
H59	H	1.397118	-0.044922	-0.621598
H60	H	1.341520	-0.012454	-0.378549
H61	H	1.081034	-0.180326	-0.131275
H62	H	1.353592	-0.019521	-0.213801
H63	H	1.272192	0.254924	-0.000022
H64	H	0.956043	-0.051379	0.131216
H65	H	1.683464	-0.212226	-0.786296
H66	H	1.346449	0.481764	-0.000018
H67	H	1.100098	-0.191588	0.131358
H68	H	1.639953	-0.186815	-0.378497
H69	H	0.923898	-0.252274	0.000049
H70	H	1.652023	-0.193892	-0.213765
H71	H	0.936797	-0.040120	-0.131282
H72	H	1.690593	0.286479	-0.000054
