data_functionalizedCrystal
_audit_creation_method	'MofGen! by Chris Wilmer'
_symmetry_space_group_name_H-M	'P1'
_symmetry_Int_Tables_number	1
_symmetry_cell_setting	triclinic
loop_
_symmetry_equiv_pos_as_xyz
  x,y,z
_cell_length_a	14.560438
_cell_length_b	18.878441
_cell_length_c	18.878441
_cell_angle_alpha	89.998224
_cell_angle_beta	59.997791
_cell_angle_gamma	60.006463
loop_
_atom_site_label
_atom_site_type_symbol
_atom_site_fract_x
_atom_site_fract_y
_atom_site_fract_z
Zr1	Zr	1.005249	0.682475	-0.092969
O2	O	1.196835	0.569391	-0.206069
O3	O	0.813660	0.717129	-0.058300
O4	O	1.005253	0.717149	-0.206076
O5	O	1.005241	0.569371	0.058278
O6	O	1.005258	0.833716	-0.206080
O7	O	1.005243	0.569372	-0.058292
O8	O	0.662535	0.833682	0.058265
O9	O	1.347964	0.569405	-0.206067
O10	O	0.892468	0.818917	-0.043515
O11	O	0.892463	0.731923	0.043484
O12	O	1.118038	0.731946	-0.130504
O13	O	1.118032	0.644952	-0.043506
Zr14	Zr	1.005254	0.868386	0.092941
Zr15	Zr	1.005258	0.868388	-0.092976
Zr16	Zr	1.005246	0.682474	0.092948
Zr17	Zr	1.246282	0.682498	-0.092966
Zr18	Zr	0.764221	0.868363	0.092938
O19	O	1.196843	0.833732	0.058272
O20	O	1.196847	0.833734	-0.206078
O21	O	1.196830	0.569389	0.058281
O22	O	0.813668	0.981470	0.206041
O23	O	0.813673	0.981472	-0.058309
O24	O	0.813656	0.717127	0.206050
O25	O	1.005262	0.981491	-0.058306
O26	O	1.005250	0.833713	0.206049
O27	O	1.005245	0.717145	0.206052
O28	O	1.005260	0.981490	0.058264
O29	O	1.347971	0.717181	-0.206072
O30	O	0.662532	0.833681	0.206044
O31	O	0.662539	0.981456	0.206039
O32	O	0.662541	0.981457	0.058260
O33	O	1.347962	0.569404	-0.058288
O34	O	1.347968	0.717180	-0.058293
O35	O	0.892465	0.818916	0.130476
O36	O	0.892471	0.905910	0.043478
O37	O	1.118040	0.818938	-0.043512
O38	O	1.118035	0.731944	0.043487
C39	C	0.703755	0.775402	-0.000018
C40	C	0.601430	0.775393	-0.000019
C41	C	0.470116	0.839625	0.064199
C42	C	0.373936	0.839662	0.064206
C43	C	0.540400	0.711230	-0.064231
C44	C	0.636578	0.711190	-0.064233
C45	C	0.374008	0.913777	0.138349
C46	C	0.277828	0.913813	0.138356
C47	C	1.005241	0.542883	-0.000006
C48	C	1.005237	0.463958	-0.000003
C49	C	0.887493	0.472275	0.045401
C50	C	0.887498	0.398114	0.045402
C51	C	1.005247	0.315637	-0.000008
C52	C	1.123000	0.307322	-0.045414
C53	C	1.122994	0.381482	-0.045409
C54	C	1.123003	0.152752	-0.045423
C55	C	1.123010	0.078586	-0.045429
C56	C	0.887507	0.169384	0.045388
C57	C	0.887501	0.243544	0.045393
C58	C	1.005255	0.235224	-0.000015
C59	C	1.306748	0.775459	-0.000010
C60	C	1.409073	0.775469	-0.000009
C61	C	1.005256	0.775433	-0.232568
C62	C	1.005257	0.775433	-0.311494
C63	C	1.005262	1.007979	-0.000022
C64	C	1.005266	1.086903	-0.000025
C65	C	1.005262	0.839651	-0.348576
C66	C	1.005252	0.839654	-0.422732
C67	C	1.005246	0.775434	-0.459807
C68	C	1.005238	0.711213	-0.422719
C69	C	1.005238	0.711215	-0.348561
C70	C	1.005239	0.711213	-0.577288
C71	C	1.005241	0.711210	-0.651452
C72	C	1.005253	0.839653	-0.651459
C73	C	1.005254	0.839654	-0.577301
C74	C	1.005247	0.775431	-0.540218
C75	C	1.005247	0.775429	0.232540
C76	C	1.005246	0.775428	0.311466
C77	C	0.703766	1.007950	-0.000026
C78	C	0.601445	1.086865	-0.000029
C79	C	0.703751	0.775401	0.232536
C80	C	0.601425	0.775390	0.311461
C81	C	0.703762	1.007948	0.232528
C82	C	0.601439	1.086863	0.311451
C83	C	1.306741	0.542913	-0.232556
C84	C	1.409064	0.463999	-0.311479
C85	C	1.306737	0.542911	-0.000002
C86	C	1.409058	0.463997	0.000002
C87	C	1.306752	0.775461	-0.232564
C88	C	1.409078	0.775471	-0.311489
C89	C	0.553392	1.078515	-0.045448
C90	C	0.457264	1.152657	-0.045469
C91	C	0.409183	1.235148	-0.000066
C92	C	0.457245	1.243496	0.045354
C93	C	0.553378	1.169355	0.045370
C94	C	0.553372	0.820795	0.393942
C95	C	0.457239	0.820782	0.468108
C96	C	0.409154	0.775369	0.459791
C97	C	0.457215	0.729959	0.377301
C98	C	0.553353	0.729967	0.303137
C99	C	0.553390	1.169339	0.303101
C100	C	0.457260	1.243495	0.377251
C101	C	0.409175	1.235172	0.459748
C102	C	0.457233	1.152686	0.468096
C103	C	0.553368	1.078533	0.393948
C104	C	1.457125	0.381522	-0.303129
C105	C	1.553284	0.307367	-0.377278
C106	C	1.601375	0.315690	-0.459776
C107	C	1.553310	0.398175	-0.468124
C108	C	1.457159	0.472329	-0.393975
C109	C	1.457121	0.472346	0.045413
C110	C	1.553276	0.398205	0.045413
C111	C	1.601360	0.315714	0.000007
C112	C	1.553294	0.307365	-0.045410
C113	C	1.457147	0.381506	-0.045415
C114	C	1.457134	0.820893	-0.303144
C115	C	1.553267	0.820920	-0.377296
C116	C	1.601351	0.775519	-0.459792
C117	C	1.553286	0.730096	-0.468135
C118	C	1.457148	0.730075	-0.393984
H119	H	0.569002	0.658959	-0.116512
C120	C	1.005266	0.910295	-0.307798
H121	H	1.005254	0.948546	-0.340501
H122	H	1.080590	0.883926	-0.307917
H123	H	0.929929	0.942011	-0.249817
C124	C	1.404252	0.563051	-0.403166
H125	H	1.340093	0.606029	-0.347195
H126	H	1.366765	0.569512	-0.433986
H127	H	1.473258	0.569583	-0.433980
H128	H	0.791619	0.310699	0.082361
H129	H	0.791608	0.539428	0.082383
H130	H	0.592465	0.692996	0.235980
H131	H	1.679667	0.255302	-0.520145
H132	H	0.363177	0.907375	0.201685
C133	C	1.404244	0.563077	0.095364
H134	H	1.446659	0.557419	0.122399
H135	H	1.313476	0.593884	0.138339
H136	H	1.420007	0.593896	0.056162
C137	C	1.606119	0.407403	0.095383
H138	H	1.563689	0.467151	0.122435
H139	H	1.696886	0.380385	0.056198
H140	H	1.590354	0.380359	0.138360
C141	C	0.404371	1.334219	0.368057
H142	H	0.340231	1.377196	0.424028
H143	H	0.366865	1.340695	0.337249
H144	H	0.473389	1.340740	0.337232
C145	C	1.707115	0.234166	0.000022
H146	H	1.728838	0.250961	0.033580
H147	H	1.782137	0.200622	-0.057828
H148	H	1.675598	0.200615	0.024347
H149	H	0.374053	0.972738	0.125383
C150	C	1.606262	0.680097	-0.558881
H151	H	1.563896	0.653025	-0.553240
H152	H	1.697027	0.637153	-0.589641
H153	H	1.590547	0.719258	-0.589742
C154	C	1.606186	0.216623	-0.095345
H155	H	1.670318	0.173670	-0.088823
H156	H	1.643700	0.210105	-0.155091
H157	H	1.537161	0.210107	-0.072907
C158	C	1.404272	0.372311	-0.095357
H159	H	1.446675	0.312562	-0.122387
H160	H	1.420017	0.399349	-0.138336
H161	H	1.313500	0.399333	-0.056153
H162	H	0.791619	0.404894	0.082376
C163	C	1.606208	0.407319	-0.558873
H164	H	1.670342	0.351340	-0.601831
H165	H	1.643721	0.438135	-0.565396
H166	H	1.537186	0.438113	-0.565385
C167	C	1.005174	0.640593	-0.463474
H168	H	1.005142	0.602359	-0.430755
H169	H	1.080482	0.608865	-0.521458
H170	H	0.929820	0.666997	-0.463331
C171	C	1.005260	0.910298	-0.692243
H172	H	1.005282	0.948538	-0.659548
H173	H	0.929934	0.942017	-0.692123
H174	H	1.080596	0.883915	-0.750225
H175	H	0.218141	0.900868	0.197344
C176	C	0.404377	0.870743	0.558835
H177	H	0.446773	0.897801	0.553160
H178	H	0.420139	0.831559	0.589662
H179	H	0.313602	0.913710	0.589651
C180	C	0.303419	1.316746	0.541303
H181	H	0.281686	1.367055	0.524508
H182	H	0.334916	1.316765	0.574860
H183	H	0.228391	1.316750	0.574848
H184	H	1.592402	0.240211	-0.370465
C185	C	1.404254	0.870841	-0.212409
H186	H	1.446644	0.897900	-0.218071
H187	H	1.420012	0.831652	-0.181586
H188	H	1.313480	0.913805	-0.181597
C189	C	0.606271	1.178512	0.212364
H190	H	0.563886	1.238257	0.218023
H191	H	0.590510	1.151476	0.181544
H192	H	0.697047	1.151477	0.181551
H193	H	1.592391	0.857907	-0.370486
C194	C	1.707111	0.775541	-0.541350
H195	H	1.728847	0.809090	-0.524557
H196	H	1.675615	0.799850	-0.574907
H197	H	1.782136	0.717691	-0.574893
H198	H	1.418032	0.693084	-0.400791
H199	H	1.218873	0.240162	-0.082382
C200	C	0.404318	1.143542	0.558845
H201	H	0.340172	1.199522	0.601803
H202	H	0.473318	1.112738	0.565371
H203	H	0.366787	1.112737	0.565354
C204	C	0.192760	0.999373	0.129712
H205	H	0.223051	1.034531	0.126143
H206	H	0.105262	1.029236	0.178930
H207	H	0.197511	0.987130	0.078716
C208	C	1.005111	0.640618	-0.692187
H209	H	1.005055	0.602390	-0.659462
H210	H	1.080403	0.608875	-0.750175
H211	H	0.929741	0.667056	-0.692026
C212	C	0.606197	0.987813	0.403142
H213	H	0.563774	0.993485	0.462896
H214	H	0.696967	0.956989	0.376107
H215	H	0.590412	0.957003	0.376111
C216	C	0.757981	0.178539	0.095346
H217	H	0.774844	0.122561	0.088852
H218	H	0.709595	0.209345	0.072923
H219	H	0.709606	0.209345	0.155092
H220	H	0.330872	0.775369	0.520187
H221	H	0.743498	0.658884	-0.116524
C222	C	0.404298	0.680020	0.368164
H223	H	0.340149	0.686534	0.424150
H224	H	0.473296	0.620281	0.337354
H225	H	0.366770	0.702458	0.337361
H226	H	1.218892	0.011431	-0.082406
C227	C	1.005241	0.640572	-0.307774
H228	H	1.005250	0.602319	-0.340479
H229	H	0.929916	0.666945	-0.249795
H230	H	1.080577	0.608857	-0.307900
H231	H	1.218891	0.145970	-0.082382
C232	C	1.404243	0.372354	-0.212390
H233	H	1.340086	0.428325	-0.169417
H234	H	1.473264	0.341554	-0.205883
H235	H	1.366737	0.341533	-0.205886
C236	C	0.606271	0.987785	-0.095401
H237	H	0.563885	0.993443	-0.122459
H238	H	0.590510	0.956961	-0.056210
H239	H	0.697047	0.956982	-0.138373
H240	H	1.218873	0.374705	-0.082371
H241	H	1.005255	0.891946	-0.452923
H242	H	1.005268	0.891943	-0.547118
H243	H	1.005228	0.658918	-0.547095
H244	H	0.330904	1.295511	-0.000085
C245	C	0.404399	1.143459	-0.095423
H246	H	0.446791	1.083710	-0.122445
H247	H	0.420164	1.170487	-0.138408
H248	H	0.313624	1.170492	-0.056223
H249	H	0.418084	1.310670	0.082320
H250	H	0.592490	1.176166	0.082360
H251	H	0.592513	0.857775	0.400731
