data_functionalizedCrystal
_audit_creation_method	'MofGen! by Chris Wilmer'
_symmetry_space_group_name_H-M	'P1'
_symmetry_Int_Tables_number	1
_symmetry_cell_setting	triclinic
loop_
_symmetry_equiv_pos_as_xyz
  x,y,z
_cell_length_a	27.732048
_cell_length_b	27.731996
_cell_length_c	15.186229
_cell_angle_alpha	89.990305
_cell_angle_beta	90.002148
_cell_angle_gamma	82.632022
loop_
_atom_site_label
_atom_site_type_symbol
_atom_site_fract_x
_atom_site_fract_y
_atom_site_fract_z
O1	O	0.640916	0.057518	-0.073126
O2	O	0.974249	0.390851	0.260207
O3	O	1.307582	0.724185	0.593540
O4	O	0.500121	0.066264	-0.073155
O5	O	0.833454	0.399597	0.260179
O6	O	1.166787	0.732930	0.593512
O7	O	0.574904	-0.008508	-0.073121
O8	O	0.908237	0.324825	0.260213
O9	O	1.241571	0.658159	0.593546
O10	O	0.566132	0.132289	-0.073160
O11	O	0.899466	0.465623	0.260173
O12	O	1.232799	0.798956	0.593506
O13	O	0.574899	-0.008509	0.073337
O14	O	0.908232	0.324824	0.406670
O15	O	1.241566	0.658158	0.740003
O16	O	0.500116	0.066263	0.073303
O17	O	0.833449	0.399596	0.406636
O18	O	1.166782	0.732929	0.739969
O19	O	0.640911	0.057517	0.073331
O20	O	0.974244	0.390850	0.406664
O21	O	1.307577	0.724184	0.739998
Zn22	Zn	0.570512	0.061890	0.096570
Zn23	Zn	0.903846	0.395223	0.429903
Zn24	Zn	1.237179	0.728556	0.763237
Zn25	Zn	0.570519	0.061891	-0.096394
Zn26	Zn	0.903852	0.395224	0.236940
Zn27	Zn	1.237186	0.728558	0.570273
O28	O	0.566127	0.132288	0.073297
O29	O	0.899461	0.465622	0.406630
O30	O	1.232794	0.798955	0.739964
C31	C	0.482111	0.066079	0.000071
C32	C	0.815445	0.399413	0.333404
C33	C	1.148778	0.732746	0.666737
C34	C	0.428456	0.065527	0.000061
C35	C	0.761790	0.398860	0.333394
C36	C	1.095123	0.732193	0.666727
C37	C	0.574721	-0.026516	0.000111
C38	C	0.908055	0.306818	0.333444
C39	C	1.241388	0.640151	0.666778
C40	C	0.574179	-0.080172	0.000120
C41	C	0.907512	0.253161	0.333453
C42	C	1.240845	0.586495	0.666787
C43	C	0.089634	0.106231	0.000087
C44	C	0.422967	0.439565	0.333421
C45	C	0.756300	0.772898	0.666754
C46	C	-0.112026	0.104180	0.000096
C47	C	0.221308	0.437514	0.333429
C48	C	0.554641	0.770847	0.666762
O49	O	-0.143288	0.141402	0.000123
O50	O	0.190045	0.474735	0.333457
O51	O	0.523379	0.808069	0.666790
N52	N	-0.131141	0.059844	0.000107
N53	N	0.202192	0.393177	0.333440
N54	N	0.535526	0.726511	0.666773
C55	C	-0.099838	0.016017	0.000121
C56	C	0.233495	0.349351	0.333455
C57	C	0.566829	0.682684	0.666788
O58	O	-0.120724	-0.021740	0.000140
O59	O	0.212609	0.311593	0.333473
O60	O	0.545943	0.644926	0.666807
C61	C	0.101820	0.018069	0.000119
C62	C	0.435153	0.351402	0.333453
C63	C	0.768487	0.684736	0.666786
C64	C	0.120933	0.062408	0.000099
C65	C	0.454266	0.395741	0.333433
C66	C	0.787599	0.729075	0.666766
C67	C	0.108747	0.150567	0.000068
C68	C	0.442080	0.483900	0.333402
C69	C	0.775413	0.817234	0.666735
C70	C	0.159159	0.151079	0.000062
C71	C	0.492492	0.484413	0.333395
C72	C	0.825825	0.817746	0.666728
C73	C	0.190457	0.107256	0.000074
C74	C	0.523791	0.440589	0.333407
C75	C	0.857124	0.773923	0.666740
C76	C	0.171344	0.062920	0.000092
C77	C	0.504678	0.396254	0.333426
C78	C	0.838011	0.729587	0.666759
C79	C	0.133122	-0.025757	0.000140
C80	C	0.466455	0.307576	0.333474
C81	C	0.799789	0.640909	0.666807
C82	C	0.183539	-0.025240	0.000142
C83	C	0.516873	0.308093	0.333475
C84	C	0.850206	0.641426	0.666809
C85	C	0.202652	0.019099	0.000122
C86	C	0.535985	0.352432	0.333455
C87	C	0.869318	0.685765	0.666789
C88	C	0.253055	0.019609	0.000098
C89	C	0.586388	0.352943	0.333431
C90	C	0.919722	0.686276	0.666764
N91	N	0.272171	0.063946	0.000087
N92	N	0.605504	0.397279	0.333420
N93	N	0.938837	0.730612	0.666753
C94	C	0.240872	0.107769	0.000075
C95	C	0.574205	0.441102	0.333408
C96	C	0.907538	0.774436	0.666741
C97	C	-0.205712	0.014943	0.000121
C98	C	0.127621	0.348277	0.333454
C99	C	0.460955	0.681610	0.666788
C100	C	-0.256126	0.014430	0.000120
C101	C	0.077207	0.347764	0.333453
C102	C	0.410540	0.681097	0.666786
C103	C	-0.268310	0.102594	0.000096
C104	C	0.065023	0.435927	0.333429
C105	C	0.398356	0.769260	0.666762
C106	C	-0.217895	0.103106	0.000091
C107	C	0.115438	0.436440	0.333424
C108	C	0.448772	0.769773	0.666757
C109	C	-0.186597	0.059280	0.000110
C110	C	0.146737	0.392613	0.333443
C111	C	0.480070	0.725946	0.666777
C112	C	0.346741	0.108842	0.000059
C113	C	0.680074	0.442175	0.333393
C114	C	1.013407	0.775508	0.666726
C115	C	0.397158	0.109350	0.000049
C116	C	0.730491	0.442683	0.333382
C117	C	1.063824	0.776017	0.666715
C118	C	0.409337	0.021187	0.000077
C119	C	0.742670	0.354520	0.333411
C120	C	1.076004	0.687854	0.666744
C121	C	0.358925	0.020678	0.000083
C122	C	0.692258	0.354012	0.333417
C123	C	1.025591	0.687345	0.666750
C124	C	0.327627	0.064510	0.000077
C125	C	0.660961	0.397843	0.333411
C126	C	0.994294	0.731176	0.666744
O127	O	0.284346	-0.017592	0.000080
O128	O	0.617679	0.315741	0.333413
O129	O	0.951013	0.649074	0.666747
O130	O	0.261767	0.145521	0.000076
O131	O	0.595101	0.478855	0.333409
O132	O	0.928434	0.812188	0.666742
C133	C	0.039222	0.105719	0.000094
C134	C	0.372555	0.439053	0.333428
C135	C	0.705889	0.772386	0.666761
C136	C	0.020109	0.061384	0.000113
C137	C	0.353442	0.394717	0.333447
C138	C	0.686776	0.728050	0.666780
C139	C	0.051408	0.017560	0.000125
C140	C	0.384741	0.350894	0.333459
C141	C	0.718074	0.684227	0.666792
C142	C	-0.030305	0.060871	0.000112
C143	C	0.303028	0.394204	0.333446
C144	C	0.636361	0.727537	0.666779
C145	C	-0.061604	0.104694	0.000100
C146	C	0.271729	0.438027	0.333434
C147	C	0.605062	0.771361	0.666767
C148	C	-0.042489	0.149030	0.000089
C149	C	0.290844	0.482364	0.333423
C150	C	0.624178	0.815697	0.666756
C151	C	0.007923	0.149543	0.000082
C152	C	0.341256	0.482876	0.333416
C153	C	0.674590	0.816209	0.666749
C154	C	0.032292	-0.026776	0.000136
C155	C	0.365626	0.306557	0.333470
C156	C	0.698959	0.639891	0.666803
C157	C	-0.018120	-0.027285	0.000142
C158	C	0.315213	0.306049	0.333475
C159	C	0.648547	0.639382	0.666809
C160	C	-0.049419	0.016539	0.000130
C161	C	0.283914	0.349872	0.333463
C162	C	0.617248	0.683205	0.666797
C163	C	0.570767	-0.412888	-0.079758
C164	C	0.904100	-0.079554	0.253576
C165	C	1.237433	0.253779	0.586909
C166	C	0.568706	-0.614546	-0.079774
C167	C	0.902039	-0.281213	0.253560
C168	C	1.235372	0.052121	0.586893
O169	O	0.568421	-0.640616	-0.147670
O170	O	0.901754	-0.307283	0.185664
O171	O	1.235087	0.026051	0.518997
N172	N	0.568447	-0.639764	0.000059
N173	N	0.901780	-0.306430	0.333393
N174	N	1.235114	0.026903	0.666726
C175	C	0.568700	-0.614563	0.079902
C176	C	0.902034	-0.281230	0.413236
C177	C	1.235367	0.052103	0.746569
O178	O	0.568428	-0.640639	0.147805
O179	O	0.901761	-0.307306	0.481138
O180	O	1.235095	0.026028	0.814471
C181	C	0.570758	-0.412905	0.079917
C182	C	0.904091	-0.079572	0.413251
C183	C	1.237424	0.253761	0.746584
C184	C	0.571021	-0.387691	0.000079
C185	C	0.904355	-0.054358	0.333412
C186	C	1.237688	0.278976	0.666746
C187	C	0.571030	-0.387673	-0.159589
C188	C	0.904363	-0.054340	0.173744
C189	C	1.237696	0.278993	0.507077
C190	C	0.571547	-0.337262	-0.159585
C191	C	0.904881	-0.003929	0.173749
C192	C	1.238214	0.329405	0.507082
C193	C	0.571802	-0.312065	-0.079748
C194	C	0.905136	0.021268	0.253585
C195	C	1.238469	0.354601	0.586919
C196	C	0.571539	-0.337280	0.000084
C197	C	0.904873	-0.003947	0.333417
C198	C	1.238206	0.329387	0.666750
C199	C	0.571008	-0.387706	0.159759
C200	C	0.904341	-0.054372	0.493092
C201	C	1.237674	0.278961	0.826426
C202	C	0.571521	-0.337288	0.159756
C203	C	0.904854	-0.003954	0.493089
C204	C	1.238188	0.329379	0.826422
C205	C	0.571785	-0.312073	0.079917
C206	C	0.905118	0.021260	0.413251
C207	C	1.238451	0.354593	0.746584
C208	C	0.572312	-0.261672	0.079925
C209	C	0.905645	0.071661	0.413258
C210	C	1.238979	0.404995	0.746592
N211	N	0.572571	-0.236454	0.000092
N212	N	0.905904	0.096879	0.333425
N213	N	1.239237	0.430212	0.666759
C214	C	0.572316	-0.261651	-0.079745
C215	C	0.905649	0.071682	0.253589
C216	C	1.238982	0.405016	0.586922
C217	C	0.567621	-0.720437	0.079889
C218	C	0.900954	-0.387103	0.413222
C219	C	1.234288	-0.053770	0.746555
C220	C	0.567107	-0.770851	0.079885
C221	C	0.900441	-0.437518	0.413219
C222	C	1.233774	-0.104184	0.746552
C223	C	0.567112	-0.770830	-0.079791
C224	C	0.900445	-0.437497	0.253542
C225	C	1.233779	-0.104163	0.586876
C226	C	0.567629	-0.720415	-0.079786
C227	C	0.900962	-0.387082	0.253547
C228	C	1.234296	-0.053749	0.586880
C229	C	0.567880	-0.695219	0.000056
C230	C	0.901213	-0.361886	0.333389
C231	C	1.234546	-0.028552	0.666722
C232	C	0.573404	-0.155784	-0.079729
C233	C	0.906737	0.177549	0.253605
C234	C	1.240070	0.510883	0.586938
C235	C	0.573924	-0.105369	-0.079717
C236	C	0.907257	0.227965	0.253617
C237	C	1.240590	0.561298	0.586950
C238	C	0.573917	-0.105394	0.079959
C239	C	0.907250	0.227940	0.413292
C240	C	1.240583	0.561273	0.746626
C241	C	0.573399	-0.155805	0.079948
C242	C	0.906733	0.177528	0.413281
C243	C	1.240066	0.510862	0.746614
C244	C	0.573141	-0.180999	0.000097
C245	C	0.906475	0.152335	0.333430
C246	C	1.239808	0.485668	0.666763
O247	O	0.572592	-0.235570	0.147786
O248	O	0.905925	0.097763	0.481119
O249	O	1.239258	0.431097	0.814452
O250	O	0.572577	-0.235565	-0.147637
O251	O	0.905911	0.097768	0.185696
O252	O	1.239244	0.431101	0.519030
C253	C	0.570249	-0.463299	-0.079762
C254	C	0.903582	-0.129966	0.253571
C255	C	1.236915	0.203368	0.586904
C256	C	0.569986	-0.488513	0.000069
C257	C	0.903319	-0.155180	0.333403
C258	C	1.236652	0.178153	0.666736
C259	C	0.570240	-0.463317	0.079906
C260	C	0.903574	-0.129983	0.413239
C261	C	1.236907	0.203350	0.746573
C262	C	0.569472	-0.538928	0.000066
C263	C	0.902805	-0.205594	0.333399
C264	C	1.236139	0.127739	0.666732
C265	C	0.569217	-0.564124	-0.079771
C266	C	0.902551	-0.230791	0.253563
C267	C	1.235884	0.102542	0.586896
C268	C	0.569476	-0.538907	-0.159604
C269	C	0.902809	-0.205573	0.173730
C270	C	1.236143	0.127760	0.507063
C271	C	0.569994	-0.488496	-0.159599
C272	C	0.903327	-0.155162	0.173734
C273	C	1.236660	0.178171	0.507068
C274	C	0.569982	-0.488534	0.159739
C275	C	0.903315	-0.155201	0.493072
C276	C	1.236648	0.178132	0.826406
C277	C	0.569464	-0.538946	0.159728
C278	C	0.902798	-0.205612	0.493061
C279	C	1.236131	0.127721	0.826394
C280	C	0.569210	-0.564142	0.079891
C281	C	0.902543	-0.230809	0.413224
C282	C	1.235876	0.102524	0.746558
C283	C	0.658920	0.057701	0.000104
C284	C	0.992253	0.391034	0.333437
C285	C	1.325587	0.724368	0.666770
C286	C	0.712575	0.058254	0.000108
C287	C	1.045908	0.391587	0.333441
C288	C	1.379241	0.724920	0.666774
C289	C	0.566310	0.150296	0.000063
C290	C	0.899643	0.483629	0.333397
C291	C	1.232977	0.816963	0.666730
C292	C	0.566853	0.203952	0.000049
C293	C	0.900186	0.537286	0.333382
C294	C	1.233519	0.870619	0.666715
N295	N	0.570511	0.061888	0.228263
N296	N	0.903845	0.395222	0.561596
N297	N	1.237178	0.728555	0.894929
N298	N	0.570524	0.061888	-0.228086
N299	N	0.903857	0.395222	0.105247
N300	N	1.237190	0.728555	0.438580
C301	C	0.603637	0.028791	0.454001
C302	C	0.936970	0.362124	0.787334
C303	C	1.270303	0.695457	1.120667
C304	C	0.603638	0.028789	0.546190
C305	C	0.936972	0.362123	0.879524
C306	C	1.270305	0.695456	1.212857
C307	C	0.537395	0.094988	0.546169
C308	C	0.870728	0.428321	0.879503
C309	C	1.204062	0.761654	1.212836
C310	C	0.537391	0.094986	0.453981
C311	C	0.870725	0.428319	0.787315
C312	C	1.204058	0.761653	1.120648
C313	C	0.570515	0.061888	0.407899
C314	C	0.903848	0.395221	0.741233
C315	C	1.237182	0.728555	1.074566
C316	C	0.570520	0.061888	0.592277
C317	C	0.903853	0.395222	0.925610
C318	C	1.237187	0.728555	1.258944
C319	C	0.570521	0.061887	0.692233
C320	C	0.903855	0.395221	1.025566
C321	C	1.237188	0.728554	1.358900
C322	C	0.570513	0.061888	0.307937
C323	C	0.903847	0.395222	0.641270
C324	C	1.237180	0.728555	0.974604
H325	H	0.412716	0.145458	0.000032
H326	H	0.746049	0.478791	0.333365
H327	H	1.079382	0.812125	0.666699
Br328	Br	0.566761	-0.805066	0.188241
Br329	Br	0.900095	-0.471733	0.521575
Br330	Br	1.233428	-0.138399	0.854908
H331	H	-0.293803	0.138276	0.000086
H332	H	0.039531	0.471610	0.333420
H333	H	0.372864	0.804943	0.666753
H334	H	0.630607	0.001839	0.416483
H335	H	0.963941	0.335173	0.749816
H336	H	1.297274	0.668506	1.083150
Br337	Br	0.569134	-0.573113	-0.267952
Br338	Br	0.902467	-0.239779	0.065381
Br339	Br	1.235801	0.093554	0.398714
H340	H	0.209021	-0.060930	0.000158
H341	H	0.542354	0.272403	0.333492
H342	H	0.875687	0.605737	0.666825
H343	H	0.630608	0.001838	0.583723
H344	H	0.963942	0.335171	0.917057
H345	H	1.297275	0.668504	1.250390
H346	H	-0.067981	0.184713	0.000076
H347	H	0.265352	0.518046	0.333409
H348	H	0.598685	0.851379	0.666743
H349	H	0.434830	-0.014493	0.000084
H350	H	0.768163	0.318841	0.333417
H351	H	1.101496	0.652174	0.666750
Br352	Br	0.074762	-0.086257	0.000156
Br353	Br	0.408096	0.247076	0.333489
Br354	Br	0.741429	0.580410	0.666822
H355	H	-0.271683	-0.021675	0.000122
H356	H	0.061651	0.311658	0.333456
H357	H	0.394984	0.644992	0.666789
Br358	Br	0.304273	0.168327	0.000053
Br359	Br	0.637607	0.501661	0.333386
Br360	Br	0.970940	0.834994	0.666719
H361	H	0.569254	-0.559472	0.224747
H362	H	0.902587	-0.226138	0.558080
H363	H	1.235920	0.107195	0.891413
Br364	Br	0.332985	-0.039497	0.000113
Br365	Br	0.666319	0.293837	0.333446
Br366	Br	0.999652	0.627170	0.666780
H367	H	0.510427	0.121936	0.583698
H368	H	0.843760	0.455269	0.917032
H369	H	1.177094	0.788603	1.250365
H370	H	0.571760	-0.316737	-0.224597
H371	H	0.905094	0.016597	0.108736
H372	H	1.238427	0.349930	0.442069
H373	H	0.570820	-0.408183	-0.224606
H374	H	0.904154	-0.074849	0.108728
H375	H	1.237487	0.258484	0.442061
Br376	Br	0.492434	0.139904	0.391408
Br377	Br	0.825767	0.473237	0.724741
Br378	Br	1.159101	0.806570	1.058074
H379	H	0.083267	0.186255	0.000062
H380	H	0.416601	0.519589	0.333395
H381	H	0.749934	0.852922	0.666729
Br382	Br	0.185089	0.211257	0.000039
Br383	Br	0.518422	0.544591	0.333372
Br384	Br	0.851755	0.877924	0.666705
H385	H	0.570190	-0.468025	0.224753
H386	H	0.903523	-0.134691	0.558086
H387	H	1.236857	0.198642	0.891420
H388	H	0.023479	0.185648	0.000067
H389	H	0.356813	0.518981	0.333401
H390	H	0.690146	0.852315	0.666734
Br391	Br	-0.163242	-0.044541	0.000147
Br392	Br	0.170091	0.288792	0.333481
Br393	Br	0.503425	0.622125	0.666814
H394	H	-0.202337	0.139211	0.000079
H395	H	0.130996	0.472544	0.333413
H396	H	0.464329	0.805878	0.666746
Br397	Br	-0.044051	-0.087465	0.000154
Br398	Br	0.289282	0.245868	0.333488
Br399	Br	0.622615	0.579201	0.666821
Br400	Br	0.574264	-0.071189	0.188303
Br401	Br	0.907597	0.262145	0.521637
Br402	Br	1.240931	0.595478	0.854970
H403	H	0.571718	-0.316774	0.224774
H404	H	0.905051	0.016559	0.558108
H405	H	1.238385	0.349892	0.891441
H406	H	0.117570	-0.061863	0.000157
H407	H	0.450903	0.271470	0.333491
H408	H	0.784237	0.604804	0.666824
H409	H	0.573189	-0.176336	0.144958
H410	H	0.906523	0.156997	0.478292
H411	H	1.239856	0.490331	0.811625
Br412	Br	0.574284	-0.071152	-0.188076
Br413	Br	0.907618	0.262181	0.145257
Br414	Br	1.240951	0.595514	0.478591
H415	H	0.573191	-0.176290	-0.144751
H416	H	0.906525	0.157043	0.188583
H417	H	1.239858	0.490376	0.521916
Br418	Br	0.570352	-0.454284	-0.267957
Br419	Br	0.903685	-0.120951	0.065376
Br420	Br	1.237019	0.212383	0.398710
H421	H	0.567843	-0.699889	-0.144798
H422	H	0.901176	-0.366556	0.188535
H423	H	1.234509	-0.033222	0.521869
H424	H	0.566905	-0.791354	-0.144797
H425	H	0.900238	-0.458020	0.188536
H426	H	1.233571	-0.124687	0.521870
Br427	Br	0.567957	-0.686248	0.188257
Br428	Br	0.901291	-0.352915	0.521590
Br429	Br	1.234624	-0.019582	0.854924
H430	H	0.570794	-0.408227	0.224772
H431	H	0.904127	-0.074893	0.558105
H432	H	1.237461	0.258440	0.891439
