data_functionalizedCrystal
_audit_creation_method	'MofGen! by Chris Wilmer'
_symmetry_space_group_name_H-M	'P1'
_symmetry_Int_Tables_number	1
_symmetry_cell_setting	triclinic
loop_
_symmetry_equiv_pos_as_xyz
  x,y,z
_cell_length_a	10.540539
_cell_length_b	14.519709
_cell_length_c	13.596369
_cell_angle_alpha	90.006934
_cell_angle_beta	89.996748
_cell_angle_gamma	95.897182
loop_
_atom_site_label
_atom_site_type_symbol
_atom_site_fract_x
_atom_site_fract_y
_atom_site_fract_z
O1	O	1.684562	-0.129969	-0.081747
O2	O	1.315024	-0.142215	-0.081760
O3	O	1.509591	-0.001906	-0.081744
O4	O	1.489995	-0.270278	-0.081763
O5	O	1.509571	-0.001899	0.081838
O6	O	1.315004	-0.142207	0.081823
O7	O	1.684542	-0.129962	0.081835
Zn8	Zn	1.499770	-0.136083	0.107802
Zn9	Zn	1.499796	-0.136093	-0.107726
O10	O	1.489976	-0.270270	0.081820
C11	C	1.267720	-0.141293	0.000030
C12	C	1.126800	-0.138545	0.000026
N13	N	1.499762	-0.136076	0.254893
C14	C	1.508668	0.032462	0.000047
C15	C	1.505931	0.134858	0.000048
C16	C	0.944448	-0.033266	0.000415
C17	C	1.091038	-0.036051	0.000036
C18	C	1.064635	-0.187874	-0.093388
C19	C	0.918127	-0.184376	-0.093456
C20	C	0.917595	-0.186453	0.092569
C21	C	1.064567	-0.187396	0.093793
C22	C	1.731846	-0.130884	0.000043
C23	C	1.872766	-0.133631	0.000041
C24	C	1.490899	-0.304639	0.000026
C25	C	1.493635	-0.407035	0.000019
C26	C	1.495856	0.509808	0.000022
C27	C	1.498654	0.405485	0.000029
C28	C	1.500893	0.322337	0.000036
C29	C	1.503692	0.218007	0.000041
N30	N	1.499814	-0.136093	-0.254818
C31	C	1.499794	-0.136094	0.656184
C32	C	1.499781	-0.136092	0.544533
C33	C	1.499779	-0.136086	0.455542
C34	C	1.499765	-0.136082	0.343884
H35	H	1.134040	0.002763	0.066999
H36	H	0.916268	0.007229	0.067407
Cl37	Cl	1.100779	-0.302771	0.102492
Cl38	Cl	1.156080	0.024023	-0.103697
Cl39	Cl	0.898454	0.028988	-0.102425
Cl40	Cl	0.875154	-0.128095	-0.201255
Cl41	Cl	1.128207	-0.131665	0.200489
Cl42	Cl	0.842899	-0.298179	-0.100012
H43	H	1.086220	-0.263143	-0.096869
H44	H	0.869612	-0.260483	0.093195
H45	H	1.107582	-0.153613	-0.162904
Cl46	Cl	0.869410	-0.135232	0.201890
