data_functionalizedCrystal
_audit_creation_method	'MofGen! by Chris Wilmer'
_symmetry_space_group_name_H-M	'P1'
_symmetry_Int_Tables_number	1
_symmetry_cell_setting	triclinic
loop_
_symmetry_equiv_pos_as_xyz
  x,y,z
_cell_length_a	14.044220
_cell_length_b	8.965430
_cell_length_c	14.044190
_cell_angle_alpha	90.004388
_cell_angle_beta	93.190328
_cell_angle_gamma	89.999271
loop_
_atom_site_label
_atom_site_type_symbol
_atom_site_fract_x
_atom_site_fract_y
_atom_site_fract_z
O1	O	1.277173	0.123911	0.230161
O2	O	1.000501	0.123948	0.221855
O3	O	1.134681	0.123900	0.087672
O4	O	1.142994	0.123958	0.364345
O5	O	1.134669	-0.124178	0.087681
O6	O	1.000490	-0.124131	0.221864
O7	O	1.277162	-0.124168	0.230170
Cu8	Cu	1.138825	-0.146801	0.226018
Cu9	Cu	1.138838	0.146581	0.226008
O10	O	1.142982	-0.124121	0.364353
C11	C	0.964874	-0.000088	0.218224
C12	C	0.858731	-0.000075	0.207380
N13	N	1.138822	-0.353150	0.226025
C14	C	0.664392	-0.000108	0.187553
C15	C	0.613264	-0.000099	0.264468
C16	C	0.505128	-0.000118	0.253436
C17	C	0.772539	-0.000090	0.198583
C18	C	1.076746	-0.450434	0.288056
C19	C	1.164585	-0.549855	0.313876
C20	C	1.051020	-0.549857	0.200216
C21	C	1.226708	-0.450382	0.251892
C22	C	1.113084	-0.450375	0.138189
C23	C	1.200982	-0.549751	0.163978
C24	C	1.312789	-0.000129	0.233801
C25	C	1.418932	-0.000132	0.244646
C26	C	1.131039	-0.000143	0.052054
C27	C	1.120191	-0.000154	-0.054089
N28	N	1.138848	0.352930	0.225993
C29	C	1.177292	-0.000104	-0.299547
C30	C	1.100375	-0.000104	-0.248422
C31	C	1.111404	-0.000132	-0.140285
C32	C	1.166265	-0.000075	-0.407694
C33	C	1.146624	-0.000074	0.399971
C34	C	1.157472	-0.000053	0.506114
H35	H	0.650706	-0.000076	0.338602
H36	H	1.253551	-0.593085	0.111508
C37	C	0.614300	-0.000049	0.088790
C38	C	0.515450	-0.000019	0.097347
C39	C	0.469262	0.000062	0.006389
H40	H	0.632132	-0.086535	0.055001
H41	H	0.632182	0.086498	0.055076
H42	H	0.497575	-0.086557	0.131047
H43	H	0.497590	0.086460	0.131119
H44	H	0.487144	0.086608	-0.027325
H45	H	0.487102	-0.086425	-0.027393
H46	H	0.402188	0.000096	0.012183
H47	H	1.026243	-0.000085	-0.285865
C48	C	1.006956	-0.392350	0.358229
C49	C	1.034367	-0.442728	0.450060
C50	C	0.970113	-0.389231	0.514730
H51	H	0.944714	-0.427835	0.340646
H52	H	1.007033	-0.286389	0.357398
H53	H	1.034280	-0.548667	0.450889
H54	H	1.096599	-0.407247	0.467672
H55	H	0.970190	-0.283270	0.513899
H56	H	0.907874	-0.424719	0.497139
H57	H	0.988707	-0.423393	0.577046
C58	C	1.193815	-0.608229	0.412833
C59	C	1.276765	-0.694029	0.408517
C60	C	1.303718	-0.747810	0.499660
H61	H	1.144052	-0.668129	0.435431
H62	H	1.205613	-0.526597	0.454989
H63	H	1.264963	-0.775649	0.366376
H64	H	1.326547	-0.634161	0.385937
H65	H	1.315515	-0.666178	0.541816
H66	H	1.253948	-0.807703	0.522250
H67	H	1.360006	-0.806019	0.496745
C68	C	1.325812	-0.392416	0.280935
C69	C	1.390707	-0.443837	0.216257
C70	C	1.481998	-0.390429	0.242983
H71	H	1.344328	-0.427257	0.343104
H72	H	1.325205	-0.286452	0.280751
H73	H	1.391318	-0.549780	0.216451
H74	H	1.372224	-0.409000	0.154084
H75	H	1.481391	-0.284465	0.242799
H76	H	1.500504	-0.425274	0.305153
H77	H	1.526039	-0.425299	0.199099
H78	H	0.976757	-0.593556	0.178402
C79	C	1.276076	0.000087	-0.249501
C80	C	1.286863	0.127679	-0.192426
C81	C	1.377844	0.127889	-0.146287
H82	H	1.322983	0.000163	-0.295688
H83	H	1.283562	-0.086393	-0.210714
H84	H	1.279387	0.214136	-0.231210
H85	H	1.239979	0.127630	-0.146222
H86	H	1.385330	0.041409	-0.107500
H87	H	1.424743	0.127960	-0.192480
H88	H	1.385172	0.214450	-0.107549
C89	C	1.083808	-0.392131	0.039218
C90	C	0.991766	-0.442414	0.012577
C91	C	0.964749	-0.388770	-0.078584
H92	H	1.127181	-0.427580	-0.005136
H93	H	1.084528	-0.286172	0.039813
H94	H	0.991053	-0.548351	0.011975
H95	H	0.948372	-0.406969	0.056906
H96	H	0.965469	-0.282810	-0.077989
H97	H	1.008128	-0.424222	-0.122930
H98	H	0.902293	-0.422867	-0.096668
