data_functionalizedCrystal
_audit_creation_method	'MofGen! by Chris Wilmer'
_symmetry_space_group_name_H-M	'P1'
_symmetry_Int_Tables_number	1
_symmetry_cell_setting	triclinic
loop_
_symmetry_equiv_pos_as_xyz
  x,y,z
_cell_length_a	27.440280
_cell_length_b	14.560438
_cell_length_c	27.440280
_cell_angle_alpha	60.000226
_cell_angle_beta	89.999974
_cell_angle_gamma	59.993590
loop_
_atom_site_label
_atom_site_type_symbol
_atom_site_fract_x
_atom_site_fract_y
_atom_site_fract_z
Zr1	Zr	0.469487	1.005205	-0.063966
O2	O	0.391658	1.196836	-0.141780
O3	O	0.493346	0.813595	-0.040113
O4	O	0.493332	1.005216	-0.141785
O5	O	0.391683	1.005200	0.040094
O6	O	0.573534	1.005201	-0.141788
O7	O	0.391672	1.005215	-0.040108
O8	O	0.573559	0.662426	0.040085
O9	O	0.391657	1.347975	-0.141779
O10	O	0.563375	0.892388	-0.029941
O11	O	0.503529	0.892388	0.029915
O12	O	0.503513	1.117997	-0.089791
O13	O	0.443667	1.117997	-0.029935
Zr14	Zr	0.597417	1.005157	0.063943
Zr15	Zr	0.597400	1.005182	-0.063971
Zr16	Zr	0.469504	1.005181	0.063947
Zr17	Zr	0.469486	1.246254	-0.063964
Zr18	Zr	0.597417	0.764109	0.063941
O19	O	0.573558	1.196768	0.040089
O20	O	0.573533	1.196802	-0.141787
O21	O	0.391682	1.196801	0.040096
O22	O	0.675246	0.813527	0.141757
O23	O	0.675221	0.813561	-0.040119
O24	O	0.493370	0.813560	0.141763
O25	O	0.675221	1.005163	-0.040118
O26	O	0.573572	1.005147	0.141762
O27	O	0.493370	1.005162	0.141765
O28	O	0.675232	1.005148	0.040084
O29	O	0.493331	1.347956	-0.141783
O30	O	0.573572	0.662407	0.141759
O31	O	0.675246	0.662388	0.141755
O32	O	0.675232	0.662408	0.040082
O33	O	0.391671	1.347955	-0.040105
O34	O	0.493345	1.347937	-0.040109
O35	O	0.563391	0.892366	0.089767
O36	O	0.623237	0.892366	0.029911
O37	O	0.563375	1.117975	-0.029939
O38	O	0.503529	1.117974	0.029917
C39	C	0.533452	0.703666	-0.000014
C40	C	0.533452	0.601335	-0.000015
C41	C	0.564689	0.553261	-0.031260
C42	C	0.564690	0.457103	-0.031255
C43	C	0.502214	0.457106	0.031240
C44	C	0.502216	0.553255	0.031239
C45	C	0.600758	0.553262	-0.067344
C46	C	0.600759	0.457104	-0.067339
C47	C	0.373452	1.005211	-0.000006
C48	C	0.319150	1.005221	-0.000004
C49	C	-0.017554	1.005161	-0.044197
C50	C	-0.068572	1.005152	-0.044197
O51	O	-0.094952	1.005110	-0.081761
N52	N	-0.094084	1.005146	-0.000014
C53	C	-0.068571	1.005136	0.044176
O54	O	-0.094956	1.005128	0.081758
C55	C	-0.017552	1.005136	0.044179
C56	C	0.007954	1.005155	-0.000011
C57	C	0.007952	1.005179	-0.088382
C58	C	0.058966	1.005190	-0.088382
C59	C	0.084474	1.005184	-0.044197
C60	C	0.058968	1.005166	-0.000011
C61	C	0.007962	1.005116	0.088371
C62	C	0.058985	1.005115	0.088369
C63	C	0.084491	1.005134	0.044180
C64	C	0.135489	1.005172	0.044174
N65	N	0.161001	1.005178	-0.000009
C66	C	0.135493	1.005184	-0.044195
C67	C	-0.175715	1.005133	0.044169
C68	C	-0.226736	1.005143	0.044165
C69	C	-0.226732	1.005156	-0.044208
C70	C	-0.175713	1.005156	-0.044206
C71	C	-0.150203	1.005139	-0.000015
C72	C	0.242625	1.005210	-0.044192
C73	C	0.293642	1.005227	-0.044190
C74	C	0.293636	1.005206	0.044185
C75	C	0.242622	1.005196	0.044181
C76	C	0.217119	1.005193	-0.000010
O77	O	0.161903	1.005208	0.081721
O78	O	0.161888	1.005174	-0.081765
C79	C	0.693451	1.005152	-0.000018
C80	C	0.747754	1.005142	-0.000020
C81	C	0.533430	1.005212	-0.160012
C82	C	0.533423	1.005222	-0.214314
C83	C	0.533451	1.306697	-0.000009
C84	C	0.533451	1.409028	-0.000009
C85	C	0.577652	1.005144	-0.551013
C86	C	0.577657	1.005135	-0.602031
O87	O	0.615247	1.005079	-0.628407
N88	N	0.533473	1.005145	-0.627547
C89	C	0.489284	1.005152	-0.602039
O90	O	0.451702	1.005158	-0.628427
C91	C	0.489281	1.005152	-0.551020
C92	C	0.533465	1.005155	-0.525510
C93	C	0.621833	1.005145	-0.525502
C94	C	0.621827	1.005157	-0.474489
C95	C	0.577640	1.005168	-0.448986
C96	C	0.533459	1.005167	-0.474496
C97	C	0.445095	1.005149	-0.525510
C98	C	0.445097	1.005148	-0.474487
C99	C	0.489281	1.005151	-0.448977
C100	C	0.489266	1.005189	-0.397979
N101	N	0.533451	1.005179	-0.372463
C102	C	0.577638	1.005168	-0.397966
C103	C	0.489293	1.005149	-0.709183
C104	C	0.489292	1.005158	-0.760204
C105	C	0.577666	1.005139	-0.760191
C106	C	0.577664	1.005139	-0.709172
C107	C	0.533477	1.005139	-0.683666
C108	C	0.577621	1.005194	-0.290834
C109	C	0.577610	1.005212	-0.239817
C110	C	0.489237	1.005224	-0.239832
C111	C	0.489247	1.005214	-0.290847
C112	C	0.533444	1.005194	-0.316345
O113	O	0.451697	1.005239	-0.371569
O114	O	0.615217	1.005144	-0.371568
C115	C	0.533473	1.005151	0.159988
C116	C	0.533481	1.005141	0.214291
C117	C	0.693452	0.703637	-0.000020
C118	C	0.747754	0.601295	-0.000023
C119	C	0.533474	0.703636	0.159986
C120	C	0.533481	0.601294	0.214287
C121	C	0.693473	0.703606	0.159980
C122	C	0.747783	0.601255	0.214280
C123	C	0.373430	1.306756	-0.160003
C124	C	0.319120	1.409108	-0.214303
C125	C	0.373452	1.306726	-0.000004
C126	C	0.319149	1.409067	-0.000001
C127	C	0.533430	1.306727	-0.160009
C128	C	0.533422	1.409069	-0.214311
C129	C	0.742008	0.553246	-0.031271
C130	C	0.793026	0.457099	-0.031286
C131	C	0.849790	0.408996	-0.000048
C132	C	0.855535	0.457054	0.031202
C133	C	0.804518	0.553206	0.031212
C134	C	0.564732	0.553222	0.271035
C135	C	0.564737	0.457074	0.322063
C136	C	0.533494	0.408994	0.316340
C137	C	0.502239	0.457076	0.259586
C138	C	0.502231	0.553228	0.208561
C139	C	0.804532	0.553189	0.208535
C140	C	0.855567	0.457032	0.259551
C141	C	0.849852	0.408936	0.316310
C142	C	0.793097	0.457011	0.322053
C143	C	0.742063	0.553172	0.271039
C144	C	0.262372	1.457185	-0.208559
C145	C	0.211337	1.553372	-0.259574
C146	C	0.217052	1.601473	-0.316334
C147	C	0.273807	1.553392	-0.322077
C148	C	0.324840	1.457214	-0.271062
C149	C	0.324896	1.457126	0.031242
C150	C	0.273877	1.553300	0.031243
C151	C	0.217114	1.601407	0.000003
C152	C	0.211369	1.553344	-0.031244
C153	C	0.262386	1.457178	-0.031248
C154	C	0.564671	1.457118	-0.208570
C155	C	0.564676	1.553266	-0.259587
C156	C	0.533428	1.601370	-0.316345
C157	C	0.502178	1.553311	-0.322085
C158	C	0.502177	1.457158	-0.271068
H159	H	0.314407	1.005246	-0.080176
H160	H	0.891411	0.330635	0.357845
H161	H	0.891327	0.330701	-0.000061
H162	H	0.453306	1.005159	-0.688421
H163	H	0.533505	0.330701	0.357894
H164	H	0.613642	1.005140	-0.688404
O165	O	0.686827	0.600070	-0.061569
C166	C	0.580525	0.748277	-0.089295
C167	C	0.642979	0.695344	-0.054941
H168	H	0.545057	0.825335	-0.083958
H169	H	0.575110	0.665500	-0.070784
H170	H	0.575177	0.793244	-0.138616
H171	H	0.648371	0.650391	-0.005615
H172	H	0.648366	0.778167	-0.073500
O173	O	0.594979	1.410295	-0.153394
C174	C	0.622725	1.262086	-0.047098
C175	C	0.588359	1.315019	-0.109546
H176	H	0.617395	1.185027	-0.011630
H177	H	0.604214	1.344862	-0.041679
H178	H	0.672047	1.217119	-0.041759
H179	H	0.539032	1.359971	-0.114928
H180	H	0.606919	1.232196	-0.114937
O181	O	0.595037	1.599848	-0.253897
C182	C	0.657040	1.589607	-0.186511
C183	C	0.622671	1.536763	-0.192871
H184	H	0.679401	1.538606	-0.137175
H185	H	0.624693	1.698548	-0.208798
H186	H	0.692504	1.570726	-0.208859
H187	H	0.587207	1.555550	-0.170521
H188	H	0.655055	1.427837	-0.170600
H189	H	0.613646	1.005127	-0.780964
O190	O	0.402156	1.005327	-0.449706
C191	C	0.321135	1.117310	-0.421847
C192	C	0.369749	1.117250	-0.449908
H193	H	0.294913	1.207804	-0.422012
H194	H	0.342889	1.026963	-0.373955
H195	H	0.289585	1.117245	-0.448839
H196	H	0.401315	1.117360	-0.422963
H197	H	0.347955	1.207589	-0.497805
H198	H	0.809197	0.592335	0.162323
H199	H	0.580681	0.494944	-0.115111
O200	O	0.471869	0.599726	0.153481
C201	C	0.409862	0.589590	0.096913
C202	C	0.444236	0.536803	0.159325
H203	H	0.387501	0.538759	0.101617
H204	H	0.442205	0.570621	0.071456
H205	H	0.374397	0.698554	0.071460
H206	H	0.479701	0.427833	0.184828
H207	H	0.411856	0.555873	0.184737
H208	H	0.221867	1.005205	-0.080176
H209	H	0.371111	1.417965	0.056686
O210	O	0.910659	0.410572	0.253882
C211	C	0.979659	0.460327	0.216071
C212	C	0.917249	0.513110	0.222441
H213	H	0.985012	0.543198	0.190663
H214	H	0.985037	0.415373	0.190598
H215	H	1.015152	0.383299	0.262282
H216	H	0.881719	0.590182	0.176255
H217	H	0.911923	0.557981	0.247944
H218	H	0.476728	1.418047	-0.275752
H219	H	0.257707	1.418026	-0.162347
O220	O	0.595086	0.599827	0.276709
C221	C	0.657081	0.589635	0.344077
C222	C	0.622725	0.536758	0.337731
H223	H	0.679447	0.538647	0.393410
H224	H	0.624726	0.698576	0.321787
H225	H	0.692542	0.570768	0.321724
H226	H	0.587264	0.555532	0.360087
H227	H	0.655117	0.427833	0.360005
O228	O	0.533537	1.694655	-0.365857
C229	C	0.592676	1.753460	-0.421934
C230	C	0.592637	1.647710	-0.365834
H231	H	0.640452	1.715534	-0.421941
H232	H	0.572644	1.843491	-0.421939
H233	H	0.564947	1.779618	-0.463481
H234	H	0.620371	1.621441	-0.324257
H235	H	0.612646	1.557748	-0.365882
H236	H	0.257699	1.418051	-0.056688
H237	H	0.901759	0.417875	0.056634
H238	H	0.788452	0.417836	0.368274
O239	O	-0.251572	1.005090	-0.087069
C240	C	-0.330188	1.005146	-0.126242
C241	C	-0.302109	1.005192	-0.077663
H242	H	-0.371060	1.005256	-0.118661
H243	H	-0.296194	0.914712	-0.124043
H244	H	-0.344120	1.095540	-0.172014
H245	H	-0.288179	0.914860	-0.031868
H246	H	-0.336122	1.095687	-0.079914
O247	O	0.471969	0.410145	0.061642
C248	C	0.477757	0.222389	0.139925
C249	C	0.512073	0.275415	0.105533
H250	H	0.510168	0.113459	0.175426
H251	H	0.442291	0.241186	0.107599
H252	H	0.455408	0.273299	0.162238
H253	H	0.534459	0.224538	0.083217
H254	H	0.547506	0.256637	0.137886
O255	O	0.279391	1.599844	-0.377199
C256	C	0.317023	1.550009	-0.446234
C257	C	0.310781	1.497265	-0.383775
H258	H	0.342390	1.467105	-0.451575
H259	H	0.342487	1.595020	-0.451729
H260	H	0.270770	1.626982	-0.481656
H261	H	0.357009	1.420247	-0.348315
H262	H	0.285287	1.452335	-0.378330
H263	H	0.079731	1.005200	-0.124364
O264	O	0.167457	1.694731	-0.365868
C265	C	0.077060	1.753612	-0.421897
C266	C	0.133211	1.647880	-0.365785
H267	H	0.049351	1.715782	-0.421842
H268	H	0.090852	1.779734	-0.463477
H269	H	0.049387	1.843644	-0.421891
H270	H	0.160910	1.557781	-0.365733
H271	H	0.119378	1.621868	-0.324231
O272	O	0.655857	0.342805	-0.039032
C273	C	0.735910	0.180257	-0.047186
C274	C	0.673508	0.309694	-0.079313
H275	H	0.750205	0.153460	-0.079741
H276	H	0.734494	0.100589	-0.008050
H277	H	0.769247	0.190945	-0.029987
H278	H	0.640135	0.299132	-0.096549
H279	H	0.674972	0.389312	-0.118420
O280	O	0.595008	0.410495	0.377201
C281	C	0.589315	0.381021	0.471082
C282	C	0.554958	0.433851	0.408655
H283	H	0.556952	0.399861	0.496535
H284	H	0.611629	0.431915	0.466437
H285	H	0.624813	0.272079	0.496508
H286	H	0.519432	0.542784	0.383195
H287	H	0.532685	0.382860	0.413343
H288	H	0.476802	0.417915	0.254936
H289	H	0.648534	0.515417	-0.047279
H290	H	0.788337	0.417982	-0.056733
H291	H	0.165130	1.592503	-0.254886
O292	O	0.380000	1.410291	-0.276565
C293	C	0.473863	1.222616	-0.255277
C294	C	0.411418	1.275566	-0.248989
H295	H	0.499278	1.113690	-0.232998
H296	H	0.499352	1.241411	-0.232923
H297	H	0.469169	1.273580	-0.304610
H298	H	0.416058	1.224636	-0.199672
H299	H	0.385952	1.256790	-0.271381
O300	O	-0.016722	1.005016	-0.131295
C301	C	-0.002633	0.893087	-0.177126
C302	C	0.025386	0.893111	-0.128504
H303	H	0.031394	0.802608	-0.174879
H304	H	-0.016563	0.983448	-0.222913
H305	H	-0.043497	0.893151	-0.169554
H306	H	0.066268	0.893001	-0.136020
H307	H	0.039273	0.802758	-0.082734
H308	H	0.576948	0.649050	-0.113536
H309	H	0.695858	0.592295	0.275724
O310	O	0.471830	1.600236	-0.377266
C311	C	0.444159	1.748366	-0.483556
C312	C	0.478545	1.695349	-0.421099
H313	H	0.449586	1.825255	-0.519012
H314	H	0.394814	1.793498	-0.488975
H315	H	0.462657	1.665513	-0.488917
H316	H	0.460098	1.778130	-0.415695
H317	H	0.527886	1.650179	-0.415708
H318	H	-0.247505	1.005148	0.080142
O319	O	0.402207	1.005189	-0.550370
C320	C	0.363060	1.005071	-0.628930
C321	C	0.411660	1.005063	-0.600849
H322	H	0.370694	1.004941	-0.669740
H323	H	0.317265	1.095501	-0.642927
H324	H	0.365267	0.914673	-0.594878
H325	H	0.409509	1.095400	-0.634869
H326	H	0.457434	0.914573	-0.586838
O327	O	-0.150996	1.005107	-0.087157
C328	C	-0.156413	1.005201	-0.174832
C329	C	-0.184454	1.005231	-0.126216
H330	H	-0.183459	1.005329	-0.206431
H331	H	-0.108543	0.914764	-0.153084
H332	H	-0.156498	1.095592	-0.200995
H333	H	-0.184412	0.914902	-0.100036
H334	H	-0.232309	1.095729	-0.148000
O335	O	0.279572	1.599785	0.061655
C336	C	0.346969	1.589599	0.123617
C337	C	0.340603	1.536826	0.089211
H338	H	0.396308	1.538740	0.145894
H339	H	0.324684	1.570653	0.159133
H340	H	0.324618	1.698558	0.091253
H341	H	0.362957	1.427862	0.121529
H342	H	0.362871	1.555873	0.053687
H343	H	0.221849	1.005199	0.080159
H344	H	0.175577	1.679711	0.000011
H345	H	0.476788	0.592379	0.056690
H346	H	-0.154950	1.005130	0.080154
H347	H	0.165145	1.592527	-0.056679
O348	O	-0.016712	1.005028	0.131359
C349	C	-0.011318	1.005049	0.219003
C350	C	0.016691	1.005124	0.170357
H351	H	0.015669	1.005154	0.250538
H352	H	-0.011186	0.914605	0.245237
H353	H	-0.059206	1.095433	0.197218
H354	H	0.064588	0.914801	0.192093
H355	H	0.016512	1.095628	0.144128
H356	H	0.079754	1.005098	0.124357
O357	O	0.664787	1.005197	-0.550213
C358	C	0.752454	1.005125	-0.544784
C359	C	0.703836	1.005083	-0.516749
H360	H	0.784046	1.005005	-0.517734
H361	H	0.730704	1.095564	-0.592649
H362	H	0.778630	0.914735	-0.544704
H363	H	0.677644	1.095411	-0.516787
H364	H	0.725623	0.914585	-0.468900
O365	O	0.318430	1.005378	0.087024
C366	C	0.346311	1.117336	0.108609
C367	C	0.318225	1.117297	0.060032
H368	H	0.346143	1.207827	0.086806
H369	H	0.394208	1.026986	0.134786
H370	H	0.319334	1.117260	0.140207
H371	H	0.345155	1.117419	0.028395
H372	H	0.270323	1.207639	0.033900
O373	O	0.620582	1.005231	-0.315538
C374	C	0.708256	1.005135	-0.310107
C375	C	0.659633	1.005118	-0.282076
H376	H	0.739849	1.005016	-0.283058
H377	H	0.686511	1.095563	-0.357974
H378	H	0.734430	0.914735	-0.310018
H379	H	0.633443	1.095457	-0.282122
H380	H	0.681414	0.914630	-0.234224
O381	O	0.664734	1.005016	-0.449585
C382	C	0.686573	1.116039	-0.421205
C383	C	0.637879	1.116620	-0.449538
H384	H	0.664878	1.206247	-0.421147
H385	H	0.718258	1.115948	-0.448082
H386	H	0.712633	1.025425	-0.373368
H387	H	0.611775	1.207219	-0.497372
H388	H	0.606235	1.116642	-0.422617
O389	O	0.446416	1.004939	-0.784902
C390	C	0.400559	0.893062	-0.770798
C391	C	0.449148	0.893144	-0.742765
H392	H	0.402743	0.802699	-0.736739
H393	H	0.408141	0.892969	-0.811627
H394	H	0.354789	0.983523	-0.784774
H395	H	0.494939	0.802698	-0.728752
H396	H	0.441515	0.893305	-0.701961
H397	H	0.613590	1.005217	-0.219049
H398	H	0.453263	1.005230	-0.311622
H399	H	0.453259	1.005238	-0.219061
H400	H	0.809205	0.592316	0.056662
