data_functionalizedCrystal
_audit_creation_method	'MofGen! by Chris Wilmer'
_symmetry_space_group_name_H-M	'P1'
_symmetry_Int_Tables_number	1
_symmetry_cell_setting	triclinic
loop_
_symmetry_equiv_pos_as_xyz
  x,y,z
_cell_length_a	10.654550
_cell_length_b	10.654551
_cell_length_c	9.730223
_cell_angle_alpha	90.000406
_cell_angle_beta	89.996251
_cell_angle_gamma	84.485166
loop_
_atom_site_label
_atom_site_type_symbol
_atom_site_fract_x
_atom_site_fract_y
_atom_site_fract_z
O1	O	1.667835	0.176393	-0.114397
O2	O	1.302356	0.193199	-0.114375
O3	O	1.493498	0.002057	-0.114383
O4	O	1.476693	0.367535	-0.114388
O5	O	1.493496	0.002062	0.114197
O6	O	1.302354	0.193204	0.114205
O7	O	1.667833	0.176398	0.114183
Zn8	Zn	1.485093	0.184802	0.150486
Zn9	Zn	1.485096	0.184795	-0.150678
O10	O	1.476691	0.367540	0.114192
C11	C	1.255557	0.191968	-0.000082
C12	C	1.116114	0.188276	-0.000073
C13	C	1.036629	0.300817	-0.000095
C14	C	0.905608	0.297341	-0.000119
C15	C	0.933570	0.068771	-0.000105
C16	C	1.064589	0.072249	-0.000071
C17	C	1.020484	0.432780	-0.000109
C18	C	0.889463	0.429303	-0.000132
C19	C	1.492263	-0.044739	-0.000096
C20	C	1.488570	-0.184182	-0.000102
C21	C	1.486838	-0.249688	-0.124702
C22	C	1.483358	-0.380709	-0.124703
C23	C	1.483347	-0.380705	0.124508
C24	C	1.486818	-0.249686	0.124507
C25	C	1.405168	-0.550784	-0.274396
C26	C	1.403458	-0.616297	-0.399003
C27	C	1.478052	-0.582759	-0.509018
C28	C	1.554387	-0.483714	-0.494432
C29	C	1.556108	-0.418208	-0.369823
C30	C	1.481485	-0.451741	-0.259813
C31	C	1.565019	-0.079610	0.274192
C32	C	1.566749	-0.014103	0.398802
C33	C	1.492163	-0.047639	0.508829
C34	C	1.415847	-0.146692	0.494256
C35	C	1.414116	-0.212198	0.369646
C36	C	1.488700	-0.178653	0.259618
C37	C	1.714632	0.177629	-0.000113
C38	C	1.854075	0.181321	-0.000131
C39	C	1.477926	0.414336	-0.000099
C40	C	1.481619	0.553779	-0.000102
N41	N	1.485100	0.184805	0.356022
N42	N	1.485099	0.184782	-0.356214
C43	C	1.569760	0.100197	0.427945
C44	C	1.569756	0.100181	0.571828
C45	C	1.400430	0.269395	0.571854
C46	C	1.400428	0.269403	0.427973
C47	C	1.667522	0.002506	0.427931
C48	C	1.667519	0.002491	0.571814
H49	H	1.049814	0.484393	0.095556
Br50	Br	1.314629	-0.192224	0.643586
H51	H	0.891602	-0.025694	-0.000124
Br52	Br	1.659697	-0.283800	-0.350017
H53	H	1.056141	0.474797	-0.098797
Br54	Br	1.819488	0.053510	0.353526
H55	H	1.493588	0.005700	0.610297
Br56	Br	1.172460	-0.080492	-0.000003
Br57	Br	1.655648	-0.438221	-0.643740
H58	H	1.625746	-0.052284	0.184597
H59	H	1.637006	-0.088732	0.616432
Br60	Br	0.813326	0.495775	0.164339
H61	H	1.646079	-0.094026	0.388880
H62	H	0.847732	0.479023	-0.095801
H63	H	1.476658	-0.636110	-0.610476
Br64	Br	1.489212	-0.160792	-0.293812
H65	H	1.344409	-0.578090	-0.184827
Br66	Br	1.285510	0.384210	0.330361
Br67	Br	1.285520	0.384197	0.669508
H68	H	1.351968	-0.292850	0.357785
Br69	Br	1.299864	-0.750711	-0.418799
Br70	Br	1.480966	-0.469611	0.293611
Br71	Br	1.670341	0.120312	0.418589
H72	H	1.764031	0.024009	0.610858
