data_functionalizedCrystal
_audit_creation_method	'MofGen! by Chris Wilmer'
_symmetry_space_group_name_H-M	'P1'
_symmetry_Int_Tables_number	1
_symmetry_cell_setting	triclinic
loop_
_symmetry_equiv_pos_as_xyz
  x,y,z
_cell_length_a	14.809374
_cell_length_b	18.426585
_cell_length_c	14.809374
_cell_angle_alpha	89.999492
_cell_angle_beta	60.797835
_cell_angle_gamma	67.427171
loop_
_atom_site_label
_atom_site_type_symbol
_atom_site_fract_x
_atom_site_fract_y
_atom_site_fract_z
Zr1	Zr	0.955238	0.801597	-0.203700
O2	O	1.113155	0.712699	-0.350856
O3	O	0.777472	0.816264	-0.145624
O4	O	0.926621	0.845949	-0.332165
O5	O	0.993501	0.673914	-0.031917
O6	O	0.926626	0.965376	-0.332169
O7	O	0.964006	0.683014	-0.164315
O8	O	0.659826	0.912274	0.001519
O9	O	1.260301	0.727016	-0.365605
O10	O	0.857945	0.926851	-0.136522
O11	O	0.879953	0.830933	-0.037712
O12	O	1.055557	0.865884	-0.257339
O13	O	1.077565	0.769966	-0.158529
Zr14	Zr	1.002288	0.977556	0.007454
Zr15	Zr	0.955247	0.992069	-0.203706
Zr16	Zr	1.002280	0.787084	0.007460
Zr17	Zr	1.189920	0.824431	-0.227222
Zr18	Zr	0.767606	0.954723	0.030976
O19	O	1.180054	0.962890	-0.050623
O20	O	1.113167	0.983526	-0.350865
O21	O	1.180042	0.692063	-0.050614
O22	O	0.844371	1.066454	0.154610
O23	O	0.777484	1.087090	-0.145633
O24	O	0.844359	0.795628	0.154619
O25	O	0.964025	1.105240	-0.164329
O26	O	1.030905	0.933204	0.135918
O27	O	1.030900	0.813777	0.135922
O28	O	0.993520	1.096140	-0.031931
O29	O	1.260308	0.878415	-0.365610
O30	O	0.697218	0.900738	0.169363
O31	O	0.697225	1.052138	0.169358
O32	O	0.659833	1.063674	0.001514
O33	O	1.297693	0.715480	-0.197760
O34	O	1.297700	0.866879	-0.197766
O35	O	0.901969	0.913269	0.061093
O36	O	0.879961	1.009187	-0.037717
O37	O	1.077573	0.948220	-0.158535
O38	O	1.099581	0.852302	-0.059725
C39	C	0.685212	0.861016	-0.068701
C40	C	0.585583	0.851322	-0.058715
C41	C	0.530248	0.894582	-0.103280
C42	C	0.427277	0.884565	-0.092960
C43	C	0.978752	0.651325	-0.098115
C44	C	0.978748	0.570465	-0.098113
C45	C	0.978783	0.274355	-0.098134
C46	C	0.978778	0.356741	-0.098131
C47	C	0.978766	0.422408	-0.098124
C48	C	0.978761	0.504798	-0.098120
C49	C	1.272314	0.918138	-0.127546
C50	C	1.371943	0.927831	-0.137531
C51	C	0.919921	0.907731	-0.362252
C52	C	0.899951	0.913892	-0.451895
C53	C	0.978774	1.127828	-0.098131
C54	C	0.978778	1.208688	-0.098134
C55	C	0.989076	0.886395	-0.551795
C56	C	0.968438	0.892762	-0.644447
C57	C	1.037605	0.871423	0.166006
C58	C	1.057575	0.865262	0.255649
C59	C	0.685223	1.099267	-0.068709
C60	C	0.585598	1.170434	-0.058726
C61	C	0.744054	0.842862	0.195428
C62	C	0.664396	0.827007	0.295057
C63	C	0.744065	1.081113	0.195420
C64	C	0.664410	1.146119	0.295046
C65	C	1.213461	0.698040	-0.391667
C66	C	1.293116	0.633035	-0.491293
C67	C	1.272303	0.679886	-0.127538
C68	C	1.371928	0.608720	-0.137521
C69	C	1.213472	0.936292	-0.391675
C70	C	1.293131	0.952146	-0.491303
C71	C	0.527319	1.160877	-0.105622
C72	C	0.433719	1.227741	-0.096263
C73	C	0.398396	1.304160	-0.040001
C74	C	0.456684	1.313717	0.006895
C75	C	0.550287	1.246854	-0.002471
C76	C	0.638481	0.862539	0.393427
C77	C	0.563649	0.847640	0.487046
C78	C	0.514726	0.797212	0.482292
C79	C	0.540647	0.761676	0.383911
C80	C	0.615484	0.776571	0.290294
C81	C	0.615516	1.226722	0.290254
C82	C	0.540683	1.287811	0.383853
C83	C	0.514740	1.268294	0.482245
C84	C	0.563643	1.187683	0.487035
C85	C	0.638481	1.126596	0.393436
C86	C	1.342022	0.552432	-0.486501
C87	C	1.416883	0.491346	-0.580104
C88	C	1.442831	0.510864	-0.678496
C89	C	1.393922	0.591475	-0.683285
C90	C	1.319068	0.652560	-0.589685
C91	C	1.430215	0.618278	-0.090635
C92	C	1.523835	0.551418	-0.100020
C93	C	1.559162	0.474999	-0.156284
C94	C	1.500870	0.465442	-0.203176
C95	C	1.407256	0.532303	-0.193797
C96	C	1.342031	1.002578	-0.486515
C97	C	1.416868	1.017491	-0.580118
C98	C	1.442809	0.981966	-0.678508
C99	C	1.393899	0.931532	-0.683293
C100	C	1.319058	0.916625	-0.589691
H101	H	0.556723	0.806871	-0.012919
C102	C	1.391373	0.702333	-0.028746
H103	H	1.327266	0.740790	-0.029861
H104	H	1.452902	0.717285	-0.060959
H105	H	1.369973	0.700779	0.042773
C106	C	0.417807	1.397775	0.068800
H107	H	0.465917	1.393899	0.095393
H108	H	0.340300	1.417377	0.126451
H109	H	0.423232	1.433905	0.022742
H110	H	0.542554	0.876583	0.567142
H111	H	0.876849	0.921022	-0.627505
H112	H	1.320924	1.031509	-0.406410
C113	C	1.181306	0.827089	-0.767249
H114	H	1.178949	0.827811	-0.701975
H115	H	1.220652	0.857040	-0.806947
H116	H	1.220643	0.772854	-0.806939
C117	C	0.432400	0.780839	0.585277
H118	H	0.423970	0.809233	0.644541
H119	H	0.463071	0.724552	0.582223
H120	H	0.359353	0.798651	0.592612
C121	C	0.776228	0.952061	-0.429008
H122	H	0.778588	0.951327	-0.494283
H123	H	0.736882	1.006289	-0.389313
H124	H	0.736888	0.922099	-0.389316
H125	H	1.080658	0.858144	-0.568729
C126	C	0.566163	1.076825	-0.167519
H127	H	0.518047	1.080723	-0.194113
H128	H	0.560734	1.040695	-0.121468
H129	H	0.643672	1.057212	-0.225185
H130	H	0.400792	0.972290	-0.183323
C131	C	0.369608	1.217213	-0.147839
H132	H	0.404043	1.162121	-0.182668
H133	H	0.374080	1.249752	-0.198199
H134	H	0.291144	1.233259	-0.094456
H135	H	1.635389	0.420564	-0.163913
C136	C	0.614373	1.257374	0.049134
H137	H	0.579915	1.312463	0.083989
H138	H	0.692837	1.241332	-0.004223
H139	H	0.609880	1.224829	0.099495
H140	H	1.415059	0.607357	-0.763408
H141	H	0.322175	1.358597	-0.032382
H142	H	0.636571	0.747637	0.210201
H143	H	0.500872	1.353444	0.379935
C144	C	1.470670	1.072957	-0.574836
H145	H	1.444514	1.091963	-0.502832
H146	H	1.448487	1.117611	-0.603997
H147	H	1.552210	1.043504	-0.614408
H148	H	0.678309	0.903601	0.397318
C149	C	0.486812	0.706218	0.378697
H150	H	0.438520	0.702450	0.448546
H151	H	0.546194	0.653949	0.336970
H152	H	0.442478	0.728058	0.347375
H153	H	0.636625	1.242629	0.210147
H154	H	0.453801	1.318042	0.558452
C155	C	0.535087	1.166223	0.595271
H156	H	0.483502	1.214152	0.650322
H157	H	0.603919	1.140684	0.595948
H158	H	0.500191	1.130603	0.606326
H159	H	0.678282	1.060966	0.397353
C160	C	1.343137	0.521776	-0.245361
H161	H	1.377583	0.466685	-0.280200
H162	H	1.347592	0.554322	-0.295711
H163	H	1.264678	0.537811	-0.191973
H164	H	1.320899	0.536525	-0.406393
H165	H	1.571283	0.559215	-0.061829
C166	C	1.525144	0.998364	-0.781462
H167	H	1.550557	1.033481	-0.764510
H168	H	1.485986	1.022907	-0.816501
H169	H	1.589703	0.948813	-0.826882
C170	C	0.388293	0.824520	-0.031072
H171	H	0.436354	0.798686	-0.004439
H172	H	0.393692	0.785073	-0.077140
H173	H	0.310777	0.852771	0.026567
H174	H	1.456694	0.425714	-0.576184
C175	C	1.525153	0.443663	-0.781447
H176	H	1.550546	0.392864	-0.764490
H177	H	1.589711	0.453369	-0.826885
H178	H	1.485969	0.443286	-0.816466
H179	H	1.279247	0.718189	-0.593598
C180	C	1.539731	0.381378	-0.265054
H181	H	1.603823	0.342932	-0.263908
H182	H	1.561138	0.382914	-0.336574
H183	H	1.478203	0.366419	-0.232834
H184	H	1.415032	0.902612	-0.763415
C185	C	1.265292	0.861134	-0.594968
H186	H	1.216999	0.857339	-0.525136
H187	H	1.324715	0.808879	-0.636708
H188	H	1.220973	0.882961	-0.626307
C189	C	0.569227	0.954634	-0.165147
H190	H	0.633327	0.953485	-0.163973
H191	H	0.507743	1.007570	-0.132965
H192	H	0.590676	0.939884	-0.236685
