data_functionalizedCrystal
_audit_creation_method	'MofGen! by Chris Wilmer'
_symmetry_space_group_name_H-M	'P1'
_symmetry_Int_Tables_number	1
_symmetry_cell_setting	triclinic
loop_
_symmetry_equiv_pos_as_xyz
  x,y,z
_cell_length_a	13.033291
_cell_length_b	16.120297
_cell_length_c	13.032721
_cell_angle_alpha	99.654124
_cell_angle_beta	105.184202
_cell_angle_gamma	85.312033
loop_
_atom_site_label
_atom_site_type_symbol
_atom_site_fract_x
_atom_site_fract_y
_atom_site_fract_z
Zn1	Zn	1.522678	-0.652701	-0.264376
Zn2	Zn	1.509005	-0.528984	-0.433006
Zn3	Zn	1.356339	-0.497564	-0.275647
Zn4	Zn	1.322464	-0.652605	-0.464475
O5	O	1.427622	-0.582963	-0.359376
O6	O	1.668546	-0.649479	-0.268858
O7	O	1.497208	-0.408155	-0.403679
O8	O	1.398304	-0.505035	-0.124554
O9	O	1.658501	-0.558584	-0.392750
O10	O	1.520512	-0.619013	-0.116273
O11	O	1.385045	-0.385071	-0.288068
O12	O	1.204164	-0.504942	-0.318582
O13	O	1.340568	-0.769279	-0.446384
O14	O	1.179276	-0.618849	-0.457313
O15	O	1.487665	-0.769349	-0.299372
O16	O	1.464361	-0.558491	-0.586778
O17	O	1.327310	-0.649315	-0.609898
C18	C	1.153428	-0.558476	-0.392586
C19	C	1.036121	-0.548023	-0.406821
C20	C	0.867535	-0.577624	-0.366676
C21	C	0.988777	-0.588428	-0.351966
C22	C	1.411863	-0.800409	-0.375131
C23	C	1.405148	-0.893071	-0.381845
C24	C	1.392852	-1.062720	-0.394084
C25	C	1.462642	-1.104049	-0.324322
C26	C	1.455801	-1.198448	-0.331132
C27	C	1.399692	-0.968313	-0.387276
C28	C	1.702886	-0.607547	-0.326037
C29	C	1.820188	-0.618023	-0.311829
C30	C	1.390703	-0.607323	-0.637125
C31	C	1.375004	-0.617781	-0.755937
C32	C	1.443390	-0.366363	-0.343597
C33	C	1.450350	-0.273693	-0.336557
C34	C	1.435869	-0.577548	-0.797430
C35	C	1.419644	-0.588356	-0.920229
C36	C	1.464712	-0.558530	-0.080540
C37	C	1.480517	-0.548117	0.038283
H38	H	1.037997	-0.631012	-0.294111
H39	H	1.527529	-1.068536	-0.259481
C40	C	1.567124	-0.490752	-0.886909
H41	H	1.566655	-0.491000	-0.814189
H42	H	1.634758	-0.510899	-0.897365
H43	H	1.553366	-0.434954	-0.903012
C44	C	1.305207	-1.110690	-0.481680
H45	H	1.312062	-1.168764	-0.474826
H46	H	1.237385	-1.088764	-0.473631
H47	H	1.312124	-1.104155	-0.550633
C48	C	1.333018	-0.645703	-0.995035
H49	H	1.296941	-0.669549	-0.953079
H50	H	1.283661	-0.613494	-1.041898
H51	H	1.365021	-0.689460	-1.036270
C52	C	0.801049	-0.520094	-0.444825
H53	H	0.728282	-0.520384	-0.444465
H54	H	0.825196	-0.464311	-0.422848
H55	H	0.808641	-0.540107	-0.515387
C56	C	0.969640	-0.490494	-0.484980
H57	H	0.896872	-0.490785	-0.484624
H58	H	0.993785	-0.434710	-0.463008
H59	H	0.977237	-0.510512	-0.555539
C60	C	0.886673	-0.675556	-0.233686
H61	H	0.959438	-0.675276	-0.234057
H62	H	0.879079	-0.655556	-0.163127
H63	H	0.862524	-0.731343	-0.255679
H64	H	1.499993	-0.535105	-0.742044
H65	H	1.310888	-0.660230	-0.811325
