data_functionalizedCrystal
_audit_creation_method	'MofGen! by Chris Wilmer'
_symmetry_space_group_name_H-M	'P1'
_symmetry_Int_Tables_number	1
_symmetry_cell_setting	triclinic
loop_
_symmetry_equiv_pos_as_xyz
  x,y,z
_cell_length_a	8.497367
_cell_length_b	8.497374
_cell_length_c	12.759395
_cell_angle_alpha	90.001579
_cell_angle_beta	90.031940
_cell_angle_gamma	90.037760
loop_
_atom_site_label
_atom_site_type_symbol
_atom_site_fract_x
_atom_site_fract_y
_atom_site_fract_z
Zn1	Zn	0.628252	0.892449	1.606424
Zn2	Zn	0.892002	0.628868	1.606521
Zn3	Zn	0.628237	0.628679	1.430780
Zn4	Zn	0.891992	0.892602	1.430862
O5	O	0.760121	0.760650	1.518647
O6	O	0.663250	0.857499	1.753458
O7	O	0.857011	0.408081	1.583214
O8	O	0.407476	0.663525	1.454005
O9	O	0.857026	0.663848	1.753529
O10	O	0.407488	0.857316	1.583050
O11	O	0.663224	0.407942	1.454099
O12	O	0.663213	0.663674	1.283770
O13	O	0.857008	1.113344	1.454145
O14	O	0.856993	0.857577	1.283830
O15	O	0.663240	1.113232	1.583130
O16	O	1.112763	0.663996	1.583294
O17	O	1.112756	0.857761	1.454239
C18	C	0.760102	0.760622	1.245679
C19	C	0.760131	0.760648	1.128903
C20	C	1.348640	0.760504	1.518574
C21	C	1.169997	0.760792	1.518706
C22	C	0.760146	1.350770	1.518653
C23	C	0.760139	1.172126	1.518642
C24	C	0.962240	0.962234	1.129004
C25	C	1.063307	1.063031	1.074194
C26	C	1.063326	1.063050	0.964473
C27	C	0.962264	0.962265	0.909559
C28	C	0.861197	0.861468	0.964369
C29	C	0.861193	0.861456	1.074093
C30	C	0.659083	0.659892	0.964267
C31	C	0.659069	0.659863	1.073989
C32	C	0.558021	0.559107	0.909353
C33	C	0.456960	0.458299	0.964163
C34	C	0.456946	0.458283	1.073891
C35	C	0.558003	0.559065	1.128799
C36	C	0.760141	0.760678	1.792680
C37	C	0.760150	0.760690	1.909457
H38	H	0.962246	0.962216	1.218345
Br39	Br	1.200464	1.199797	1.148724
H40	H	0.374676	0.376256	0.919443
Br41	Br	0.558031	0.559145	0.760444
Br42	Br	1.200474	1.199860	0.890083
Br43	Br	0.558003	0.559040	1.277708
Br44	Br	0.962264	0.962321	0.760650
Br45	Br	0.319763	0.321491	1.148267
