data_functionalizedCrystal
_audit_creation_method	'MofGen! by Chris Wilmer'
_symmetry_space_group_name_H-M	'P1'
_symmetry_Int_Tables_number	1
_symmetry_cell_setting	triclinic
loop_
_symmetry_equiv_pos_as_xyz
  x,y,z
_cell_length_a	19.851628
_cell_length_b	14.560438
_cell_length_c	14.560438
_cell_angle_alpha	59.996693
_cell_angle_beta	90.004573
_cell_angle_gamma	59.999625
loop_
_atom_site_label
_atom_site_type_symbol
_atom_site_fract_x
_atom_site_fract_y
_atom_site_fract_z
Zr1	Zr	0.648980	1.005212	-0.120483
O2	O	0.541412	1.196840	-0.267162
O3	O	0.681955	0.813598	-0.075510
O4	O	0.681953	1.005209	-0.267126
O5	O	0.541417	1.005226	0.075596
O6	O	0.792814	1.005191	-0.267108
O7	O	0.541414	1.005228	-0.075545
O8	O	0.792819	0.662434	0.075659
O9	O	0.541413	1.347984	-0.267172
O10	O	0.778754	0.892393	-0.056326
O11	O	0.696021	0.892404	0.056455
O12	O	0.696018	1.118002	-0.169149
O13	O	0.613286	1.118013	-0.056368
Zr14	Zr	0.825797	1.005180	0.120598
Zr15	Zr	0.825792	1.005184	-0.120454
Zr16	Zr	0.648985	1.005208	0.120569
Zr17	Zr	0.648982	1.246269	-0.120499
Zr18	Zr	0.825795	0.764123	0.120614
O19	O	0.792822	1.196794	0.075625
O20	O	0.792815	1.196799	-0.267120
O21	O	0.541418	1.196834	0.075583
O22	O	0.933365	0.813552	0.267277
O23	O	0.933359	0.813557	-0.075468
O24	O	0.681961	0.813592	0.267235
O25	O	0.933360	1.005166	-0.075480
O26	O	0.792824	1.005182	0.267241
O27	O	0.681963	1.005200	0.267223
O28	O	0.933363	1.005163	0.075660
O29	O	0.681954	1.347961	-0.267148
O30	O	0.792822	0.662430	0.267263
O31	O	0.933364	0.662408	0.267287
O32	O	0.933361	0.662411	0.075682
O33	O	0.541416	1.347980	-0.075567
O34	O	0.681958	1.347958	-0.075544
O35	O	0.778758	0.892389	0.169264
O36	O	0.861491	0.892378	0.056483
O37	O	0.778755	1.117987	-0.056340
O38	O	0.696023	1.117998	0.056441
C39	C	0.737387	0.703670	0.000077
C40	C	0.737386	0.601335	0.000084
C41	C	0.676309	0.636560	-0.083209
C42	C	0.676312	0.540421	-0.083238
C43	C	0.798474	0.373831	0.083329
C44	C	0.798474	0.469970	0.083352
C45	C	0.516224	1.005231	0.000021
C46	C	0.441163	1.005243	0.000008
C47	C	0.214707	1.128226	-0.061470
C48	C	0.192344	1.066737	-0.106033
C49	C	0.303756	1.005209	0.000041
C50	C	0.192378	1.066706	0.044584
C51	C	0.171024	1.005186	0.000071
C52	C	0.282382	0.943720	-0.044585
C53	C	0.282413	0.943707	0.106091
C54	C	0.260104	0.882128	0.061554
C55	C	0.380218	1.005227	0.000021
C56	C	0.094567	1.005159	0.000090
C57	C	0.958553	1.005160	0.000094
C58	C	1.033614	1.005148	0.000107
C59	C	0.737383	1.005201	-0.301462
C60	C	0.737381	1.005203	-0.403795
C61	C	0.737390	1.306721	0.000038
C62	C	0.737391	1.409056	0.000032
C63	C	0.694195	1.122966	-0.510763
C64	C	0.694204	1.122960	-0.606912
C65	C	0.780588	0.887416	-0.489110
C66	C	0.780582	0.887424	-0.392964
C67	C	0.737394	1.005191	0.301577
C68	C	0.737396	1.005189	0.403910
C69	C	0.958551	0.703635	0.000114
C70	C	1.033612	0.601288	0.000133
C71	C	0.737392	0.703665	0.301596
C72	C	0.737394	0.601328	0.403936
C73	C	0.958557	0.703630	0.301633
C74	C	1.033620	0.601281	0.403985
C75	C	0.516220	1.306762	-0.301518
C76	C	0.441157	1.409110	-0.403870
C77	C	0.516226	1.306757	0.000002
C78	C	0.441165	1.409104	-0.000017
C79	C	0.737384	1.306726	-0.301481
C80	C	0.737383	1.409063	-0.403821
C81	C	1.025673	0.553232	-0.058753
C82	C	1.096194	0.457080	-0.058758
C83	C	1.174653	0.408978	0.000131
C84	C	1.182590	0.457043	0.059018
C85	C	1.112070	0.553200	0.059016
C86	C	1.112063	0.553211	0.393180
C87	C	1.182599	0.457057	0.489341
C88	C	1.174690	0.408968	0.596307
C89	C	1.096238	0.457047	0.607109
C90	C	1.025704	0.553206	0.510949
C91	C	0.362714	1.457192	-0.393065
C92	C	0.292178	1.553376	-0.489226
C93	C	0.300087	1.601470	-0.596191
C94	C	0.378539	1.553384	-0.606994
C95	C	0.449073	1.457209	-0.510834
C96	C	0.449103	1.457169	0.058858
C97	C	0.378583	1.553348	0.058837
C98	C	0.300124	1.601454	-0.000055
C99	C	0.292187	1.553384	-0.058939
C100	C	0.362707	1.457213	-0.058923
C101	C	0.780582	0.553241	0.510900
C102	C	0.780573	0.457093	0.607055
C103	C	0.694189	0.457127	0.489268
C104	C	0.694192	0.553279	0.393116
H105	H	0.626577	0.569114	-0.151064
Br106	Br	1.270351	0.278477	0.000122
H107	H	0.815740	0.417946	0.694147
Br108	Br	1.122859	0.618400	0.138947
H109	H	1.089811	0.417879	0.694213
Br110	Br	0.635568	0.618558	0.247938
H111	H	0.659017	1.218869	-0.519589
H112	H	1.232130	0.330669	0.674597
Br113	Br	0.204353	1.731996	-0.726685
H114	H	0.228306	1.592511	-0.480408
H115	H	0.659039	1.218855	-0.694008
H116	H	0.321076	0.891767	-0.082347
Br117	Br	0.839210	0.727582	-0.474420
H118	H	1.246480	0.417864	0.106963
H119	H	0.815756	0.592364	0.519717
Br120	Br	0.127706	1.153397	0.107350
H121	H	1.089716	0.417957	-0.106711
Br122	Br	0.593407	0.814838	-0.196218
H123	H	0.848209	0.266865	0.151124
H124	H	0.196255	1.232242	-0.113561
Br125	Br	0.555529	1.391960	-0.525518
Br126	Br	0.351918	1.391987	-0.138828
H127	H	0.815754	0.791521	-0.305859
Br128	Br	0.881376	0.422163	0.196394
H129	H	0.153533	1.118730	-0.195707
H130	H	0.278711	0.778027	0.113572
H131	H	0.384969	1.592555	-0.694097
H132	H	1.118518	0.592351	0.306092
Br133	Br	0.347103	0.857121	0.255522
H134	H	1.246471	0.417920	0.480526
Br135	Br	0.919203	0.618496	-0.138687
Br136	Br	0.555574	1.391908	0.138789
H137	H	0.385061	1.592470	0.106791
Br138	Br	0.919248	0.618427	0.525634
Br139	Br	0.204426	1.731973	-0.000065
H140	H	0.356259	1.418039	-0.305977
H141	H	0.228297	1.592566	-0.106887
H142	H	0.659017	0.417991	0.480472
