data_functionalizedCrystal
_audit_creation_method	'MofGen! by Chris Wilmer'
_symmetry_space_group_name_H-M	'P1'
_symmetry_Int_Tables_number	1
_symmetry_cell_setting	triclinic
loop_
_symmetry_equiv_pos_as_xyz
  x,y,z
_cell_length_a	13.185408
_cell_length_b	23.532407
_cell_length_c	12.376457
_cell_angle_alpha	101.198488
_cell_angle_beta	97.405738
_cell_angle_gamma	112.588915
loop_
_atom_site_label
_atom_site_type_symbol
_atom_site_fract_x
_atom_site_fract_y
_atom_site_fract_z
O1	O	1.469616	0.162737	0.093880
O2	O	1.151500	0.104919	0.093914
O3	O	1.320146	0.218198	0.093871
O4	O	1.300971	0.049458	0.093923
O5	O	1.277999	0.189911	-0.094130
O6	O	1.109354	0.076632	-0.094087
O7	O	1.427470	0.134449	-0.094121
Zn8	Zn	1.261721	0.101049	-0.123954
Zn9	Zn	1.317250	0.138319	0.123746
O10	O	1.258825	0.021171	-0.094079
C11	C	1.089736	0.084914	-0.000083
C12	C	0.968489	0.067456	-0.000071
C13	C	0.897951	0.005293	-0.000050
C14	C	0.784029	-0.011115	-0.000055
C15	C	0.740637	0.034641	-0.000072
C16	C	0.811178	0.096807	-0.000086
C17	C	0.925108	0.113215	-0.000089
C18	C	0.767795	0.142563	-0.000112
C19	C	0.838336	0.204729	-0.000125
C20	C	0.952255	0.221134	-0.000128
C21	C	0.995647	0.175378	-0.000110
C22	C	0.653864	0.126156	-0.000108
C23	C	0.681022	0.234078	-0.000148
C24	C	0.794944	0.250485	-0.000143
C25	C	1.298583	0.225196	-0.000133
C26	C	1.297112	0.288191	-0.000145
C27	C	1.387712	0.700917	-0.000111
C28	C	1.386349	0.760113	-0.000105
O29	O	1.470337	0.809486	-0.000074
N30	N	1.286086	0.767669	-0.000096
C31	C	1.187182	0.716026	-0.000082
O32	O	1.101775	0.727888	-0.000073
C33	C	1.188548	0.656832	-0.000080
C34	C	1.288815	0.649279	-0.000100
C35	C	1.487972	0.693362	-0.000130
C36	C	1.489334	0.634170	-0.000138
C37	C	1.390437	0.582532	-0.000127
C38	C	1.290178	0.590087	-0.000108
C39	C	1.089647	0.605192	-0.000057
C40	C	1.091022	0.545996	-0.000055
C41	C	1.191289	0.538443	-0.000075
C42	C	1.192643	0.479257	-0.000105
N43	N	1.292906	0.471701	-0.000114
C44	C	1.391803	0.523339	-0.000125
C45	C	1.184321	0.840338	-0.000084
C46	C	1.182952	0.899529	-0.000095
C47	C	1.382120	0.943612	-0.000115
C48	C	1.383486	0.884419	-0.000113
C49	C	1.284584	0.832782	-0.000093
C50	C	1.394656	0.399029	-0.000143
C51	C	1.396009	0.339828	-0.000155
C52	C	1.196842	0.295751	-0.000129
C53	C	1.195488	0.354945	-0.000122
C54	C	1.294405	0.406585	-0.000125
O55	O	1.108700	0.429857	-0.000132
O56	O	1.477199	0.511468	-0.000119
C57	C	1.489235	0.154455	-0.000122
C58	C	1.610483	0.171914	-0.000127
C59	C	1.280385	1.014171	-0.000084
C60	C	1.281851	0.951173	-0.000100
N61	N	1.223831	0.075615	-0.293002
C62	C	1.443101	0.222812	-0.648043
C63	C	1.469614	0.240612	-0.529710
C64	C	1.408170	0.199365	-0.470527
C65	C	1.320210	0.140313	-0.529689
C66	C	1.293700	0.122509	-0.648034
C67	C	1.258769	0.099062	-0.470518
C68	C	1.170809	0.040010	-0.529680
C69	C	1.144303	0.022209	-0.648013
C70	C	1.205747	0.063456	-0.707196
C71	C	1.285279	0.116866	-0.352173
C72	C	1.135878	0.016563	-0.352165
C73	C	1.109365	-0.001238	-0.470498
N74	N	1.355148	0.163760	0.292795
H75	H	0.933290	-0.031956	-0.000044
O76	O	0.994982	0.495767	-0.000188
C77	C	0.859044	0.388721	-0.097607
C78	C	0.967831	0.445550	-0.097580
H79	H	0.837046	0.348110	-0.176351
H80	H	0.872314	0.371686	-0.018984
H81	H	0.787187	0.404317	-0.097537
H82	H	1.039741	0.430002	-0.097689
H83	H	0.954466	0.462573	-0.176196
H84	H	1.088410	0.188733	-0.000110
O85	O	0.863472	0.310908	0.000039
C86	C	0.943327	0.422827	0.097373
C87	C	0.865708	0.354430	0.097319
H88	H	0.945142	0.458034	0.176003
H89	H	1.032240	0.426737	0.097448
H90	H	0.909995	0.434346	0.018650
H91	H	0.898938	0.342866	0.176029
H92	H	0.776808	0.350555	0.097185
H93	H	1.356897	0.164946	-0.304014
H94	H	1.462648	0.985668	-0.000120
O95	O	0.638892	0.278522	-0.000361
C96	C	0.605463	0.351112	-0.097756
C97	C	0.653204	0.300785	-0.097665
H98	H	0.617039	0.369136	-0.176406
H99	H	0.511903	0.328730	-0.097819
H100	H	0.652180	0.392765	-0.019053
H101	H	0.606574	0.259117	-0.176355
H102	H	0.746773	0.323215	-0.097543
H103	H	1.429761	0.213861	-0.374175
O104	O	0.992263	0.612517	0.000170
C105	C	0.843429	0.607537	0.097582
C106	C	0.953730	0.599237	0.097475
H107	H	0.812229	0.596792	0.176233
H108	H	0.859367	0.658715	0.097656
H109	H	0.776986	0.573204	0.018880
H110	H	1.020226	0.633534	0.176164
H111	H	0.937701	0.548041	0.097342
H112	H	1.113835	0.361090	-0.000137
H113	H	1.475205	0.441069	-0.000141
O114	O	1.554886	0.298079	-0.472477
C115	C	1.627777	0.412465	-0.436938
C116	C	1.531141	0.347389	-0.501685
H117	H	1.608625	0.452349	-0.460547
H118	H	1.636353	0.418311	-0.342130
H119	H	1.709944	0.414906	-0.460263
H120	H	1.448921	0.344902	-0.478455
H121	H	1.522665	0.341570	-0.596478
O122	O	1.088125	0.790234	-0.000131
C123	C	0.890449	0.752779	-0.000050
C124	C	0.999300	0.809564	-0.000026
H125	H	0.818611	0.768391	0.000059
H126	H	0.868386	0.712127	-0.078747
H127	H	0.903792	0.735789	0.078610
H128	H	0.986042	0.826610	-0.078632
H129	H	1.021329	0.850178	0.078723
H130	H	1.477661	0.333684	-0.000175
O131	O	0.630030	0.018805	0.000083
C132	C	0.495831	0.039496	0.097528
C133	C	0.621139	0.057507	0.097470
H134	H	0.488602	0.070769	0.176269
H135	H	0.453238	0.047150	0.018902
H136	H	0.452881	-0.012803	0.097489
H137	H	0.664185	0.109805	0.097549
H138	H	0.663647	0.049808	0.176090
H139	H	1.116322	0.253697	-0.000124
O140	O	0.715678	-0.071518	0.000010
C141	C	0.700754	-0.176841	-0.000024
C142	C	0.778294	-0.108449	-0.000072
H143	H	0.751342	-0.206723	-0.000115
H144	H	0.664392	-0.175417	0.078672
H145	H	0.629090	-0.199026	-0.078684
H146	H	0.850015	-0.086224	0.078534
H147	H	0.814569	-0.109916	-0.078821
H148	H	1.493126	0.256388	-0.696237
H149	H	1.184158	0.048965	-0.803553
O150	O	1.020633	0.281555	-0.000102
C151	C	1.035527	0.386856	-0.000215
C152	C	0.957974	0.318458	-0.000216
H153	H	0.984893	0.416707	-0.000332
H154	H	1.107162	0.409114	0.078477
H155	H	1.071932	0.385368	-0.078879
H156	H	0.921488	0.319889	0.078395
H157	H	0.886402	0.296227	-0.078961
O158	O	1.586811	0.626902	0.000054
C159	C	1.779315	0.661168	0.097410
C160	C	1.668977	0.669445	0.097342
H161	H	1.845782	0.695567	0.176046
H162	H	1.763406	0.610012	0.097484
H163	H	1.810462	0.671828	0.018693
H164	H	1.637770	0.658818	0.176045
H165	H	1.684950	0.720601	0.097209
O166	O	1.058802	-0.035167	-0.705310
C167	C	0.913464	-0.132793	-0.692809
C168	C	1.010246	-0.067828	-0.627783
H169	H	0.874195	-0.159224	-0.630157
H170	H	0.846686	-0.124884	-0.748198
H171	H	0.947921	-0.162386	-0.748226
H172	H	0.975893	-0.038202	-0.572305
H173	H	1.077007	-0.075783	-0.572466
H174	H	1.568511	0.735403	-0.000134
O175	O	1.023788	-0.058558	-0.527925
C176	C	0.825393	-0.126494	-0.564103
C177	C	0.922200	-0.061551	-0.499016
H178	H	0.743240	-0.128940	-0.540736
H179	H	0.816908	-0.132145	-0.658859
H180	H	0.844387	-0.166498	-0.540840
H181	H	0.903277	-0.021508	-0.522184
H182	H	0.930661	-0.055955	-0.404276
H183	H	1.085847	-0.017026	-0.303979
H184	H	0.596440	0.075539	-0.000099
H185	H	1.465133	0.878275	-0.000129
H186	H	1.101300	0.905668	-0.000098
