data_functionalizedCrystal
_audit_creation_method	'MofGen! by Chris Wilmer'
_symmetry_space_group_name_H-M	'P1'
_symmetry_Int_Tables_number	1
_symmetry_cell_setting	triclinic
loop_
_symmetry_equiv_pos_as_xyz
  x,y,z
_cell_length_a	10.723024
_cell_length_b	10.654550
_cell_length_c	9.798715
_cell_angle_alpha	89.998020
_cell_angle_beta	89.996609
_cell_angle_gamma	84.476386
loop_
_atom_site_label
_atom_site_type_symbol
_atom_site_fract_x
_atom_site_fract_y
_atom_site_fract_z
O1	O	1.657213	0.176147	-0.113478
O2	O	1.294064	0.193008	-0.113483
O3	O	1.483988	0.001837	-0.113475
O4	O	1.467289	0.367318	-0.113486
O5	O	1.483974	0.001836	0.113507
O6	O	1.294049	0.193007	0.113499
O7	O	1.657199	0.176146	0.113504
Zn8	Zn	1.475622	0.184577	0.149540
Zn9	Zn	1.475641	0.184577	-0.149519
O10	O	1.467275	0.367317	0.113496
C11	C	1.247557	0.191780	0.000008
C12	C	1.109002	0.188109	0.000006
C13	C	1.034035	0.295078	0.000002
C14	C	0.890831	0.291287	0.000001
C15	C	1.482755	-0.044961	0.000014
C16	C	1.479086	-0.184404	0.000009
C17	C	1.590911	-0.263907	0.000015
C18	C	1.587456	-0.394927	0.000005
C19	C	1.360343	-0.366929	-0.000010
C20	C	1.363799	-0.235912	-0.000010
C21	C	1.706198	-0.212399	0.000034
C22	C	1.818032	-0.291903	0.000041
C23	C	1.814578	-0.422923	0.000031
C24	C	1.699289	-0.474440	0.000015
C25	C	1.703706	0.177373	0.000010
C26	C	1.842261	0.181045	0.000003
C27	C	1.468508	0.414115	0.000004
C28	C	1.472176	0.553558	-0.000000
N29	N	1.475618	0.184575	0.353640
N30	N	1.475654	0.184569	-0.353619
C31	C	1.555362	0.103954	0.421420
C32	C	1.555382	0.103950	0.578582
H33	H	1.067166	0.093722	-0.000026
C34	C	1.626170	-0.112884	0.377063
C35	C	1.647511	0.010802	0.342662
H36	H	1.683057	-0.170383	0.328425
H37	H	1.638301	-0.125133	0.472333
H38	H	1.542682	-0.127023	0.353737
H39	H	1.730997	0.024944	0.365998
H40	H	1.635391	0.023056	0.247371
H41	H	1.709024	-0.105717	0.000046
H42	H	1.623659	0.034931	0.636870
H43	H	1.272742	-0.171178	-0.000012
C44	C	1.924174	-0.103492	0.000069
C45	C	1.944752	-0.235281	0.000056
H46	H	2.002409	-0.068542	0.000086
H47	H	1.878099	-0.076271	-0.079080
H48	H	1.878073	-0.076289	0.079228
H49	H	1.990845	-0.262485	-0.079108
H50	H	1.990846	-0.262514	0.079214
H51	H	1.407383	0.253600	0.588102
H52	H	0.906672	0.089466	-0.000002
H53	H	1.407356	0.253591	0.411961
C54	C	1.942469	-0.586487	-0.116664
C55	C	1.937502	-0.510312	0.000026
H56	H	2.018365	-0.640429	-0.116665
H57	H	1.873330	-0.635916	-0.116661
H58	H	1.939100	-0.534773	-0.195804
H59	H	1.940861	-0.562026	0.079167
H60	H	2.006660	-0.460879	0.000036
C61	C	1.221433	0.401597	0.000004
C62	C	1.090499	0.422506	0.000002
H63	H	1.256285	0.480269	-0.000003
H64	H	1.248400	0.355182	0.079155
H65	H	1.248411	0.355175	-0.079153
H66	H	1.063520	0.468920	0.079165
H67	H	1.063521	0.468940	-0.079157
H68	H	1.696486	-0.581126	-0.000008
H69	H	1.266481	-0.408885	-0.000021
H70	H	0.826412	0.382860	-0.000008
