data_functionalizedCrystal
_audit_creation_method	'MofGen! by Chris Wilmer'
_symmetry_space_group_name_H-M	'P1'
_symmetry_Int_Tables_number	1
_symmetry_cell_setting	triclinic
loop_
_symmetry_equiv_pos_as_xyz
  x,y,z
_cell_length_a	10.489716
_cell_length_b	10.489711
_cell_length_c	8.965430
_cell_angle_alpha	90.005649
_cell_angle_beta	89.994732
_cell_angle_gamma	84.528072
loop_
_atom_site_label
_atom_site_type_symbol
_atom_site_fract_x
_atom_site_fract_y
_atom_site_fract_z
O1	O	0.179778	1.694060	0.124079
O2	O	0.196711	1.322858	0.124068
O3	O	0.002644	1.516922	0.124079
O4	O	0.373845	1.499996	0.124068
O5	O	0.002660	1.516904	-0.124000
O6	O	0.196727	1.322841	-0.124010
O7	O	0.179794	1.694043	-0.124000
Cu8	Cu	0.188262	1.508440	-0.146657
Cu9	Cu	0.188243	1.508461	0.146725
O10	O	0.373861	1.499979	-0.124011
C11	C	0.195448	1.275317	0.000028
C12	C	0.191646	1.133686	0.000025
C13	C	0.308352	0.951289	0.000038
C14	C	0.250048	1.043449	0.122354
C15	C	0.250032	1.043404	-0.122233
C16	C	0.126504	0.973509	0.122473
C17	C	0.126505	0.973455	-0.122223
C18	C	0.068111	1.065587	0.000122
C19	C	-0.044880	1.515642	0.000044
C20	C	-0.186511	1.511837	0.000058
C21	C	-0.284198	1.630843	0.000047
C22	C	-0.361559	1.567966	0.122358
C23	C	-0.361508	1.567921	-0.122229
C24	C	-0.262007	1.449010	0.122469
C25	C	-0.261950	1.448982	-0.122227
C26	C	-0.339263	1.386018	0.000113
C27	C	0.421385	1.501259	0.000027
C28	C	0.563016	1.505064	0.000024
C29	C	0.181057	1.741584	0.000044
C30	C	0.184859	1.883215	0.000057
N31	N	0.188274	1.508435	-0.353006
C32	C	0.278724	1.419432	-0.549721
C33	C	0.163582	1.392587	-0.450254
C34	C	0.303407	1.535223	-0.450265
C35	C	0.073019	1.481573	-0.549648
C36	C	0.212920	1.624260	-0.549668
C37	C	0.097695	1.597462	-0.450246
N38	N	0.188220	1.508476	0.353074
H39	H	0.074302	0.942429	-0.225634
H40	H	0.021098	1.672750	-0.406846
H41	H	-0.259532	1.734358	0.000174
C42	C	0.320637	1.085336	0.262038
N43	N	0.373814	1.116886	0.367239
H44	H	0.302313	1.074348	-0.225642
C45	C	0.445472	0.884137	0.000202
N46	N	0.548747	0.833555	0.000335
C47	C	-0.203150	1.381158	-0.261938
N48	N	-0.158865	1.330078	-0.367180
H49	H	-0.404979	1.618176	-0.225630
C50	C	0.381967	1.317660	-0.608738
N51	N	0.459723	1.241002	-0.653195
C52	C	-0.069134	1.132429	0.000214
N53	N	-0.172507	1.182775	0.000290
C54	C	0.055970	0.931908	0.262339
N55	N	0.002851	0.900570	0.367688
C56	C	-0.420348	1.635846	0.262052
N57	N	-0.464628	1.686982	0.367262
C58	C	0.135379	1.260285	-0.391252
N59	N	0.114145	1.160632	-0.346815
H60	H	-0.218705	1.398807	0.225988
C61	C	-0.372259	1.246071	0.000196
N62	N	-0.397114	1.140663	0.000266
C63	C	-0.058577	1.450824	-0.608372
N64	N	-0.157691	1.427658	-0.652607
H65	H	0.233836	1.722162	-0.593373
C66	C	0.434976	1.565815	-0.391294
N67	N	0.534077	1.588848	-0.346884
