data_functionalizedCrystal
_audit_creation_method	'MofGen! by Chris Wilmer'
_symmetry_space_group_name_H-M	'P1'
_symmetry_Int_Tables_number	1
_symmetry_cell_setting	triclinic
loop_
_symmetry_equiv_pos_as_xyz
  x,y,z
_cell_length_a	10.654550
_cell_length_b	8.597304
_cell_length_c	9.130313
_cell_angle_alpha	97.699735
_cell_angle_beta	90.006582
_cell_angle_gamma	84.909268
loop_
_atom_site_label
_atom_site_type_symbol
_atom_site_fract_x
_atom_site_fract_y
_atom_site_fract_z
O1	O	1.669010	0.220451	0.149733
O2	O	1.303643	0.241455	0.152359
O3	O	1.493517	0.002567	0.122223
O4	O	1.479137	0.459340	0.179869
O5	O	1.493504	0.002581	-0.121374
O6	O	1.303630	0.241470	-0.091238
O7	O	1.668997	0.220465	-0.093864
Cu8	Cu	1.486313	0.230969	-0.114793
Cu9	Cu	1.486328	0.230952	0.173288
O10	O	1.479124	0.459354	-0.063728
C11	C	1.256831	0.239920	0.030363
C12	C	1.117363	0.235306	0.029772
C13	C	1.038624	0.375960	0.047544
C14	C	0.907580	0.371615	0.047021
C15	C	0.934027	0.085950	0.010958
C16	C	1.065068	0.090297	0.011471
C17	C	1.023355	0.540886	0.068371
C18	C	0.892311	0.536541	0.067848
C19	C	1.491966	-0.055914	-0.006954
C20	C	1.487348	-0.230189	-0.028940
C21	C	1.715810	0.222000	0.028135
C22	C	1.855278	0.226615	0.028736
C23	C	1.480675	0.517835	0.065452
C24	C	1.485293	0.692110	0.087448
N25	N	1.486311	0.230980	-0.317415
C26	C	1.563651	0.327057	-0.381950
C27	C	1.563669	0.327028	-0.535290
C28	C	1.408997	0.134840	-0.559547
C29	C	1.408986	0.134862	-0.406210
C30	C	1.652945	0.438021	-0.367946
C31	C	1.652963	0.437992	-0.521286
N32	N	1.486340	0.230929	0.375908
H33	H	0.891432	-0.032112	-0.003920
Br34	Br	1.484368	-0.341528	-0.223085
Br35	Br	1.488243	-0.196552	0.281585
Br36	Br	1.304015	0.004473	-0.318629
Br37	Br	1.072816	0.648414	-0.087971
H38	H	1.346042	0.056584	-0.631863
Br39	Br	1.587983	0.634958	-0.263853
H40	H	1.747292	0.388653	-0.575040
H41	H	1.059295	0.593395	0.180170
H42	H	1.751792	0.399456	-0.331175
H43	H	0.846899	0.586390	-0.031029
Br44	Br	0.823301	0.640102	0.250838
Br45	Br	1.602509	0.644278	-0.564674
H46	H	1.129173	-0.024237	-0.003022
