data_functionalizedCrystal
_audit_creation_method	'MofGen! by Chris Wilmer'
_symmetry_space_group_name_H-M	'P1'
_symmetry_Int_Tables_number	1
_symmetry_cell_setting	triclinic
loop_
_symmetry_equiv_pos_as_xyz
  x,y,z
_cell_length_a	16.992701
_cell_length_b	10.967971
_cell_length_c	15.455313
_cell_angle_alpha	104.803738
_cell_angle_beta	87.136501
_cell_angle_gamma	87.621636
loop_
_atom_site_label
_atom_site_type_symbol
_atom_site_fract_x
_atom_site_fract_y
_atom_site_fract_z
O1	O	1.043368	0.262375	-0.032915
O2	O	0.815088	0.259443	-0.033354
O3	O	0.935789	0.077849	-0.060494
O4	O	0.922666	0.443969	-0.005775
O5	O	0.928887	0.088188	0.085313
O6	O	0.808185	0.269782	0.112453
O7	O	1.036466	0.272714	0.112892
Cu8	Cu	0.921695	0.272192	0.125986
Cu9	Cu	0.929858	0.259965	-0.046448
O10	O	0.915764	0.454308	0.140032
C11	C	0.782431	0.260837	0.038985
C12	C	0.695406	0.249571	0.037301
C13	C	0.206580	0.173876	0.025985
C14	C	0.288347	0.184471	0.027574
C15	C	0.319681	0.303777	0.045401
C16	C	0.269242	0.412495	0.061649
C17	C	0.187476	0.401899	0.060066
C18	C	0.563201	0.347693	0.051967
C19	C	0.644974	0.358281	0.053546
C20	C	0.664073	0.130256	0.019472
C21	C	0.582304	0.119670	0.017885
C22	C	0.531873	0.228388	0.034138
N23	N	0.403261	0.314610	0.047022
N24	N	0.448294	0.217555	0.032523
C25	C	0.931905	0.035955	0.005374
C26	C	0.930604	-0.104281	-0.015591
C27	C	0.926449	-0.161453	0.050594
C28	C	0.925105	-0.306394	0.028927
C29	C	1.069123	0.271320	0.040551
C30	C	1.156147	0.282585	0.042229
C31	C	0.919648	0.496202	0.074163
C32	C	0.920949	0.636438	0.095122
N33	N	0.915960	0.280791	0.247267
N34	N	0.935600	0.251356	-0.167730
C35	C	0.967256	0.203676	0.281136
C36	C	0.962926	0.210192	0.372917
C37	C	0.907302	0.293830	0.430830
C38	C	0.856001	0.370948	0.396955
C39	C	0.860328	0.364425	0.305174
C40	C	0.888625	0.321952	0.706614
C41	C	0.884303	0.328472	0.798401
C42	C	0.991228	0.167712	0.774357
C43	C	0.995553	0.161202	0.682576
C44	C	0.944249	0.238316	0.648708
N45	N	0.902877	0.300495	0.524646
N46	N	0.948671	0.231644	0.554893
H47	H	0.556799	0.022518	0.003369
O48	O	0.933794	-0.173842	-0.102347
C49	C	1.004246	-0.152585	-0.147058
H50	H	1.049835	-0.118204	-0.095944
H51	H	1.027920	-0.244350	-0.196380
H52	H	0.991953	-0.078015	-0.185005
H53	H	0.705143	0.041744	0.006241
O54	O	0.810465	0.439467	0.272425
C55	C	0.760430	0.514667	0.343215
H56	H	0.789483	0.524017	0.409334
H57	H	0.749539	0.612337	0.331569
H58	H	0.701809	0.468460	0.345986
H59	H	0.181075	0.076724	0.011462
H60	H	1.012553	0.135574	0.233989
H61	H	1.004694	0.147397	0.400492
H62	H	0.927671	-0.364747	-0.043781
H63	H	0.918390	-0.305212	0.167830
H64	H	0.923891	-0.103097	0.123297
H65	H	0.810707	0.439044	0.444112
O66	O	0.675280	0.474281	0.070920
C67	C	0.613236	0.567967	0.084905
H68	H	0.556443	0.528957	0.106392
H69	H	0.628184	0.653766	0.139608
H70	H	0.604911	0.596935	0.020025
H71	H	1.040846	0.093097	0.635424
H72	H	0.294761	0.509637	0.076170
O73	O	0.514149	0.453201	0.067611
C74	C	0.469871	0.448549	-0.007811
H75	H	0.467097	0.346186	-0.048008
H76	H	0.407529	0.490574	0.015268
H77	H	0.499180	0.505126	-0.051679
O78	O	1.041134	0.092743	0.807113
C79	C	1.091138	0.017495	0.736312
H80	H	1.095022	0.064678	0.678632
H81	H	1.152525	0.006481	0.760890
H82	H	1.066302	-0.079520	0.712163
O83	O	0.838727	0.396687	0.673653
C84	C	0.792996	0.320429	0.609727
H85	H	0.790535	0.222746	0.622500
H86	H	0.730648	0.365513	0.615443
H87	H	0.820825	0.311366	0.539548
O88	O	0.830190	0.409739	0.854527
C89	C	0.785844	0.476420	0.804958
H90	H	0.788140	0.419952	0.731790
H91	H	0.721955	0.491159	0.833415
H92	H	0.811577	0.572067	0.809585
H93	H	0.146414	0.490422	0.073297
O94	O	0.337227	0.078739	0.011736
C95	C	0.292036	-0.028833	-0.004320
H96	H	0.232259	-0.004920	-0.028063
H97	H	0.324347	-0.108515	-0.058108
H98	H	0.282961	-0.060051	0.060224
