data_functionalizedCrystal
_audit_creation_method	'MofGen! by Chris Wilmer'
_symmetry_space_group_name_H-M	'P1'
_symmetry_Int_Tables_number	1
_symmetry_cell_setting	triclinic
loop_
_symmetry_equiv_pos_as_xyz
  x,y,z
_cell_length_a	15.298068
_cell_length_b	16.625545
_cell_length_c	15.296720
_cell_angle_alpha	99.644199
_cell_angle_beta	88.354818
_cell_angle_gamma	99.685208
loop_
_atom_site_label
_atom_site_type_symbol
_atom_site_fract_x
_atom_site_fract_y
_atom_site_fract_z
Zn1	Zn	1.253364	-0.239865	-0.727359
Zn2	Zn	1.753364	0.260135	-0.227359
Zn3	Zn	1.278620	-0.348155	-0.580888
Zn4	Zn	1.778620	0.151845	-0.080888
Zn5	Zn	1.132245	-0.232030	-0.555526
Zn6	Zn	1.632245	0.267970	-0.055526
Zn7	Zn	1.106846	-0.393358	-0.701911
Zn8	Zn	1.606846	0.106642	-0.201911
O9	O	1.192769	-0.303352	-0.641421
O10	O	1.692769	0.196648	-0.141421
O11	O	1.379291	-0.238591	-0.729194
O12	O	1.879291	0.261409	-0.229194
O13	O	1.280402	-0.310555	-0.454963
O14	O	1.780402	0.189445	0.045037
O15	O	1.148371	-0.120233	-0.578357
O16	O	1.648371	0.379767	-0.078357
O17	O	1.397846	-0.318152	-0.621582
O18	O	1.897846	0.181848	-0.121582
O19	O	1.237357	-0.125990	-0.704602
O20	O	1.737357	0.374010	-0.204602
O21	O	1.172860	-0.225238	-0.436329
O22	O	1.672860	0.274762	0.063671
O23	O	1.006299	-0.269069	-0.553680
O24	O	1.506299	0.230931	-0.053680
O25	O	1.105083	-0.395193	-0.827848
O26	O	1.605083	0.104807	-0.327848
O27	O	0.987639	-0.387596	-0.661228
O28	O	1.487639	0.112404	-0.161228
O29	O	1.212729	-0.282422	-0.846545
O30	O	1.712729	0.217578	-0.346545
O31	O	1.255774	-0.466988	-0.596906
O32	O	1.755774	0.033012	-0.096906
O33	O	1.129573	-0.500198	-0.685821
O34	O	1.629573	-0.000198	-0.185821
C35	C	0.965186	-0.332388	-0.601941
C36	C	1.465186	0.167612	-0.101941
C37	C	0.867821	-0.344833	-0.585072
C38	C	1.367821	0.155167	-0.085072
C39	C	0.554665	-0.214609	-0.761988
C40	C	1.054665	0.285391	-0.261988
C41	C	0.646143	-0.202920	-0.777843
C42	C	1.146143	0.297080	-0.277843
C43	C	0.701567	-0.238397	-0.729651
C44	C	1.201567	0.261603	-0.229651
C45	C	0.665504	-0.285566	-0.665603
C46	C	1.165504	0.214434	-0.165603
C47	C	0.574016	-0.297262	-0.649752
C48	C	1.074016	0.202738	-0.149752
C49	C	0.720918	-0.321049	-0.617415
C50	C	1.220918	0.178951	-0.117415
C51	C	0.684855	-0.368218	-0.553367
C52	C	1.184855	0.131782	-0.053367
C53	C	0.593376	-0.379912	-0.537518
C54	C	1.093376	0.120088	-0.037518
C55	C	0.537952	-0.344435	-0.585710
C56	C	1.037952	0.155565	-0.085710
C57	C	0.812406	-0.309353	-0.633266
C58	C	1.312406	0.190647	-0.133266
C59	C	0.831757	-0.392006	-0.521030
C60	C	1.331757	0.107994	-0.021030
C61	C	0.740279	-0.403695	-0.505175
C62	C	1.240279	0.096305	-0.005175
C63	C	1.192678	-0.512850	-0.641377
C64	C	1.692678	-0.012850	-0.141377
C65	C	1.192715	-0.602469	-0.641401
C66	C	1.692715	-0.102469	-0.141401
C67	C	1.192746	-0.675251	-0.641425
C68	C	1.692746	-0.175251	-0.141425
C69	C	1.192793	-0.766556	-0.641453
C70	C	1.692793	-0.266556	-0.141453
C71	C	1.192837	-0.839329	-0.641472
C72	C	1.692837	-0.339329	-0.141472
C73	C	1.192884	-0.930640	-0.641499
C74	C	1.692884	-0.430640	-0.141499
C75	C	1.421240	-0.274203	-0.681056
C76	C	1.921240	0.225797	-0.181056
C77	C	1.518601	-0.261782	-0.697946
C78	C	2.018601	0.238218	-0.197946
C79	C	1.153256	-0.344724	-0.869864
C80	C	1.653256	0.155276	-0.369864
C81	C	1.136418	-0.362354	-0.967212
C82	C	1.636418	0.137646	-0.467212
C83	C	1.192880	-0.093036	-0.641489
C84	C	1.692880	0.406964	-0.141489
C85	C	1.192927	-0.003412	-0.641518
C86	C	1.692927	0.496588	-0.141518
C87	C	1.313144	-0.177201	-1.280561
C88	C	1.813144	0.322799	-0.780561
C89	C	1.328970	-0.160637	-1.189098
C90	C	1.828970	0.339363	-0.689098
C91	C	1.280833	-0.211065	-1.133622
C92	C	1.780833	0.288935	-0.633622
C93	C	1.216869	-0.278059	-1.169618
C94	C	1.716869	0.221941	-0.669618
C95	C	1.201046	-0.294629	-1.261091
C96	C	1.701046	0.205371	-0.761091
C97	C	1.168735	-0.328492	-1.114152
C98	C	1.668735	0.171508	-0.614152
C99	C	1.104770	-0.395487	-1.150148
C100	C	1.604770	0.104513	-0.650148
C101	C	1.088951	-0.412053	-1.241611
C102	C	1.588951	0.087947	-0.741611
C103	C	1.137087	-0.361625	-1.297087
C104	C	1.637087	0.138375	-0.797087
C105	C	1.184557	-0.311923	-1.022679
C106	C	1.684557	0.188077	-0.522679
C107	C	1.072459	-0.429351	-1.003209
C108	C	1.572459	0.070649	-0.503209
C109	C	1.056634	-0.445914	-1.094672
C110	C	1.556634	0.054086	-0.594672
C111	C	1.232178	-0.262077	-0.413876
C112	C	1.732178	0.237923	0.086124
C113	C	1.249186	-0.244198	-0.316558
C114	C	1.749186	0.255802	0.183442
H115	H	0.509530	-0.185734	-0.801224
H116	H	1.009530	0.314266	-0.301224
Br117	Br	1.302311	-0.188584	-1.009492
Br118	Br	1.802311	0.311416	-0.509492
Br119	Br	1.415777	-0.069722	-1.140252
Br120	Br	1.915777	0.430278	-0.640252
Br121	Br	0.413798	-0.360292	-0.564191
Br122	Br	0.913798	0.139708	-0.064191
H123	H	1.352335	-0.136154	-1.325738
H124	H	1.852335	0.363846	-0.825738
Br125	Br	0.825718	-0.222531	-0.751168
Br126	Br	1.325718	0.277469	-0.251168
Br127	Br	0.695079	-0.138914	-0.864767
Br128	Br	1.195079	0.361086	-0.364767
Br129	Br	0.691326	-0.467707	-0.418254
Br130	Br	1.191326	0.032293	0.081746
Br131	Br	1.115615	-0.384105	-1.421222
Br132	Br	1.615615	0.115895	-0.921222
Br133	Br	1.002160	-0.502988	-1.290465
Br134	Br	1.502160	-0.002988	-0.790465
Br135	Br	0.544435	-0.443926	-0.450595
Br136	Br	1.044435	0.056074	0.049405
H137	H	1.004553	-0.500462	-1.123993
H138	H	1.504553	-0.000462	-0.623993
H139	H	0.876883	-0.420899	-0.481792
H140	H	1.376883	0.079101	0.018208
H141	H	1.033264	-0.470414	-0.958040
H142	H	1.533264	0.029586	-0.458040
H143	H	0.841759	-0.270947	-0.685414
H144	H	1.341759	0.229053	-0.185414
H145	H	1.236637	-0.257375	-0.993381
H146	H	1.736637	0.242625	-0.493381
