data_functionalizedCrystal
_audit_creation_method	'MofGen! by Chris Wilmer'
_symmetry_space_group_name_H-M	'P1'
_symmetry_Int_Tables_number	1
_symmetry_cell_setting	triclinic
loop_
_symmetry_equiv_pos_as_xyz
  x,y,z
_cell_length_a	13.032831
_cell_length_b	12.759399
_cell_length_c	12.759393
_cell_angle_alpha	90.028437
_cell_angle_beta	82.806329
_cell_angle_gamma	97.179054
loop_
_atom_site_label
_atom_site_type_symbol
_atom_site_fract_x
_atom_site_fract_y
_atom_site_fract_z
Zn1	Zn	1.597739	0.622490	-0.797747
Zn2	Zn	1.597631	0.798195	-0.622063
Zn3	Zn	1.422972	0.600199	-0.599800
Zn4	Zn	1.422958	0.775780	-0.775430
O5	O	1.510325	0.699166	-0.698760
O6	O	1.743967	0.664507	-0.793098
O7	O	1.574423	0.771982	-0.472083
O8	O	1.446206	0.456141	-0.626081
O9	O	1.743888	0.793597	-0.664024
O10	O	1.574607	0.472518	-0.771511
O11	O	1.446102	0.626515	-0.455727
O12	O	1.276728	0.604780	-0.604441
O13	O	1.446182	0.755394	-0.925416
O14	O	1.276718	0.733779	-0.733475
O15	O	1.574593	0.642772	-0.941812
O16	O	1.574409	0.942236	-0.642384
O17	O	1.446078	0.925768	-0.755063
C18	C	1.238804	0.664429	-0.664121
C19	C	1.122646	0.649594	-0.649328
C20	C	1.510259	0.972125	-0.698744
C21	C	1.510326	1.088910	-0.698785
C22	C	1.510398	0.699069	-0.972803
C23	C	1.510429	0.699028	-1.089583
C24	C	1.070881	0.706909	-0.706481
C25	C	0.950826	0.691577	-0.691192
C26	C	1.782906	0.734039	-0.733534
C27	C	1.899064	0.748900	-0.748353
C28	C	1.577221	1.152321	-0.640200
C29	C	1.577284	1.262053	-0.640246
C30	C	1.443546	1.244952	-0.757464
C31	C	1.443490	1.135222	-0.757423
C32	C	1.654431	1.162196	-0.572521
C33	C	1.654493	1.271928	-0.572568
C34	C	1.510416	1.425144	-0.698815
C35	C	1.510445	1.308371	-0.698872
C36	C	1.577302	0.640381	-1.152986
C37	C	1.577327	0.640346	-1.262713
C38	C	1.443603	0.757614	-1.245625
C39	C	1.443574	0.757643	-1.135900
C40	C	1.654510	0.572680	-1.162852
C41	C	1.654535	0.572646	-1.272579
C42	C	1.510312	0.699194	-0.425791
C43	C	1.510483	0.698965	-0.309036
H44	H	1.115444	0.767324	-0.766733
Cl45	Cl	1.773178	0.632881	-1.125429
H46	H	1.389170	0.805334	-1.283350
H47	H	1.625461	1.124544	-0.491499
Cl48	Cl	1.779349	1.132061	-0.622186
Cl49	Cl	1.609676	0.447613	-1.319429
Cl50	Cl	0.967851	0.842175	-0.841397
H51	H	1.389116	0.805395	-1.084280
Cl52	Cl	1.359405	1.055510	-0.831094
Cl53	Cl	1.779497	0.622254	-1.334500
H54	H	1.078083	0.589171	-0.589083
Cl55	Cl	1.621111	1.313773	-0.442673
Cl56	Cl	1.621080	0.442791	-1.112633
H57	H	0.906267	0.631149	-0.630943
Cl58	Cl	1.359529	1.303181	-0.831178
H59	H	1.731387	1.315704	-0.611587
