data_functionalizedCrystal
_audit_creation_method	'MofGen! by Chris Wilmer'
_symmetry_space_group_name_H-M	'P1'
_symmetry_Int_Tables_number	1
_symmetry_cell_setting	triclinic
loop_
_symmetry_equiv_pos_as_xyz
  x,y,z
_cell_length_a	19.188930
_cell_length_b	19.188925
_cell_length_c	15.500227
_cell_angle_alpha	92.818783
_cell_angle_beta	87.151281
_cell_angle_gamma	83.143665
loop_
_atom_site_label
_atom_site_type_symbol
_atom_site_fract_x
_atom_site_fract_y
_atom_site_fract_z
O1	O	0.929413	0.083904	-0.072223
O2	O	0.726099	0.095641	-0.072163
O3	O	0.833625	-0.011883	-0.072190
O4	O	0.821887	0.191428	-0.072196
O5	O	0.827100	-0.005384	0.071701
O6	O	0.719574	0.102140	0.071727
O7	O	0.922889	0.090403	0.071668
Cu8	Cu	0.820636	0.096865	0.084836
Cu9	Cu	0.828352	0.089179	-0.085331
O10	O	0.815363	0.197928	0.071694
C11	C	0.696825	0.098511	-0.000210
C12	C	0.619320	0.097371	-0.000188
C13	C	0.574396	0.160462	-0.000203
C14	C	0.501572	0.159390	-0.000213
C15	C	0.473677	0.095223	-0.000224
C16	C	0.518611	0.032124	-0.000204
C17	C	0.591433	0.033199	-0.000185
N18	N	0.367920	0.043962	-0.049229
N19	N	0.298743	0.042946	-0.049248
C20	C	0.254271	0.091982	-0.000277
N21	N	0.281590	0.142083	0.048704
N22	N	0.350774	0.143102	0.048719
C23	C	0.394716	0.094051	-0.000243
C24	C	0.130383	0.153914	-0.000301
C25	C	0.057558	0.152840	-0.000305
C26	C	0.074599	0.025573	-0.000305
C27	C	0.147422	0.026649	-0.000292
C28	C	0.175309	0.090822	-0.000294
C29	C	0.829983	-0.034645	-0.000245
C30	C	0.828844	-0.112150	-0.000246
C31	C	0.884310	-0.673921	-0.000285
C32	C	0.885386	-0.601098	-0.000277
C33	C	0.822293	-0.556163	-0.000259
C34	C	0.758118	-0.584055	-0.000226
C35	C	0.757044	-0.656877	-0.000225
N36	N	0.778837	-0.437694	-0.049222
N37	N	0.779863	-0.368517	-0.049225
C38	C	0.825527	-0.336754	-0.000260
N39	N	0.870139	-0.376783	0.048696
N40	N	0.869116	-0.445967	0.048695
C41	C	0.823452	-0.477198	-0.000259
C42	C	0.890865	-0.229905	-0.000279
C43	C	0.891938	-0.157080	-0.000266
C44	C	0.764669	-0.140039	-0.000224
C45	C	0.763597	-0.212863	-0.000228
C46	C	0.826697	-0.257792	-0.000260
C47	C	0.952162	0.087533	-0.000287
C48	C	1.029668	0.088673	-0.000315
C49	C	0.819005	0.220689	-0.000252
C50	C	0.820144	0.298193	-0.000257
N51	N	0.815214	0.102271	0.204522
N52	N	0.833780	0.083768	-0.205017
C53	C	0.860792	0.056726	0.249787
C54	C	0.856697	0.060820	0.340361
C55	C	0.807028	0.110464	0.385668
C56	C	0.761445	0.156011	0.340396
C57	C	0.765536	0.151913	0.249824
C58	C	0.792288	0.125217	0.659139
C59	C	0.788202	0.129313	0.749717
C60	C	0.883454	0.034121	0.749676
C61	C	0.887544	0.030030	0.659102
C62	C	0.841959	0.075574	0.613838
C63	C	0.802843	0.114652	0.478249
C64	C	0.846140	0.071383	0.521259
H65	H	0.153089	0.206168	-0.000290
H66	H	0.628011	-0.018179	-0.000173
Br67	Br	0.480756	-0.054960	-0.000210
Br68	Br	0.720789	0.196696	0.811200
Br69	Br	0.208395	-0.058978	-0.000273
H70	H	0.051891	-0.026676	-0.000368
Br71	Br	0.730426	0.187027	0.597714
H72	H	0.020980	0.204218	-0.000313
Br73	Br	0.440591	0.245018	-0.000229
Br74	Br	0.954956	-0.037341	0.597613
H75	H	0.720999	0.196430	0.377290
Br76	Br	0.969945	-0.734894	-0.000320
Br77	Br	0.972475	-0.563243	-0.000301
H78	H	0.728421	0.188999	0.212970
H79	H	0.893810	0.023734	0.377216
H80	H	0.597096	0.212716	-0.000207
Br81	Br	0.676509	-0.250710	-0.000196
H82	H	0.901241	0.016304	0.212905
Br83	Br	0.672491	-0.523073	-0.000193
Br84	Br	0.669954	-0.694724	-0.000186
H85	H	0.920567	-0.002960	0.786538
H86	H	0.942245	-0.266489	-0.000304
Br87	Br	0.979029	-0.119235	-0.000305
Br88	Br	0.679040	-0.079062	-0.000183
H89	H	0.886579	0.030960	0.484367
H90	H	0.762402	0.155074	0.515145
