data_functionalizedCrystal
_audit_creation_method	'MofGen! by Chris Wilmer'
_symmetry_space_group_name_H-M	'P1'
_symmetry_Int_Tables_number	1
_symmetry_cell_setting	triclinic
loop_
_symmetry_equiv_pos_as_xyz
  x,y,z
_cell_length_a	12.759401
_cell_length_b	21.295417
_cell_length_c	12.759393
_cell_angle_alpha	90.037048
_cell_angle_beta	90.019596
_cell_angle_gamma	90.029979
loop_
_atom_site_label
_atom_site_type_symbol
_atom_site_fract_x
_atom_site_fract_y
_atom_site_fract_z
Zn1	Zn	1.606157	-0.250574	0.593935
Zn2	Zn	1.939490	0.082759	0.927268
Zn3	Zn	2.272823	0.416093	1.260601
Zn4	Zn	1.606002	-0.355856	0.418235
Zn5	Zn	1.939335	-0.022523	0.751568
Zn6	Zn	2.272669	0.310810	1.084901
Zn7	Zn	1.430456	-0.250605	0.418274
Zn8	Zn	1.763789	0.082728	0.751607
Zn9	Zn	2.097122	0.416061	1.084941
Zn10	Zn	1.430401	-0.355810	0.593876
Zn11	Zn	1.763735	-0.022477	0.927209
Zn12	Zn	2.097068	0.310857	1.260543
O13	O	1.518254	-0.303211	0.506080
O14	O	1.851587	0.030122	0.839413
O15	O	2.184921	0.363455	1.172746
O16	O	1.753157	-0.264546	0.570636
O17	O	2.086491	0.068787	0.903969
O18	O	2.419824	0.402120	1.237302
O19	O	1.582673	-0.341927	0.271219
O20	O	1.916006	-0.008594	0.604552
O21	O	2.249340	0.324740	0.937885
O22	O	1.453850	-0.162512	0.441617
O23	O	1.787183	0.170822	0.774950
O24	O	2.120517	0.504155	1.108283
O25	O	1.753043	-0.341897	0.441550
O26	O	2.086377	-0.008563	0.774883
O27	O	2.419710	0.324770	1.108216
O28	O	1.582937	-0.162489	0.570674
O29	O	1.916270	0.170844	0.904007
O30	O	2.249604	0.504178	1.237340
O31	O	1.453700	-0.264599	0.271248
O32	O	1.787033	0.068734	0.604581
O33	O	2.120367	0.402067	0.937914
O34	O	1.283427	-0.264555	0.441560
O35	O	1.616761	0.068779	0.774893
O36	O	1.950094	0.402112	1.108226
O37	O	1.453758	-0.341818	0.740905
O38	O	1.787091	-0.008484	1.074238
O39	O	2.120425	0.324849	1.407572
O40	O	1.283388	-0.341848	0.570574
O41	O	1.616721	-0.008515	0.903907
O42	O	1.950054	0.324819	1.237241
O43	O	1.582885	-0.264501	0.740948
O44	O	1.916218	0.068832	1.074281
O45	O	2.249551	0.402165	1.407615
O46	O	1.582621	-0.443939	0.441493
O47	O	1.915954	-0.110606	0.774826
O48	O	2.249287	0.222727	1.108160
O49	O	1.453608	-0.443905	0.570536
O50	O	1.786941	-0.110572	0.903869
O51	O	2.120274	0.222761	1.237202
C52	C	1.245287	-0.303200	0.506065
C53	C	1.578620	0.030133	0.839399
C54	C	1.911953	0.363467	1.172732
C55	C	1.128510	-0.303210	0.506084
C56	C	1.461843	0.030123	0.839417
C57	C	1.795177	0.363456	1.172751
C58	C	0.963924	-0.343528	0.573163
C59	C	1.297257	-0.010195	0.906496
C60	C	1.630590	0.323139	1.239830
C61	C	1.073648	-0.343521	0.573152
C62	C	1.406981	-0.010188	0.906486
C63	C	1.740314	0.323146	1.239819
C64	C	1.073642	-0.262909	0.439015
C65	C	1.406976	0.070424	0.772348
C66	C	1.740309	0.403758	1.105682
C67	C	0.963920	-0.262920	0.439021
C68	C	1.297254	0.070414	0.772355
C69	C	1.630587	0.403747	1.105688
C70	C	1.518120	-0.466763	0.506027
C71	C	1.851453	-0.133430	0.839360
C72	C	2.184787	0.199904	1.172693
C73	C	1.518159	-0.536731	0.506039
C74	C	1.851492	-0.203398	0.839372
C75	C	2.184826	0.129936	1.172706
C76	C	1.585336	-0.569529	0.573287
C77	C	1.918669	-0.236195	0.906620
C78	C	2.252003	0.097138	1.239954
C79	C	1.585373	-0.635271	0.573313
C80	C	1.918706	-0.301938	0.906646
C81	C	2.252040	0.031396	1.239980
C82	C	1.518244	-0.668214	0.506072
C83	C	1.851577	-0.334880	0.839405
C84	C	2.184911	-0.001547	1.172739
C85	C	1.451054	-0.635408	0.438819
C86	C	1.784387	-0.302075	0.772153
C87	C	2.117721	0.031259	1.105486
C88	C	1.451011	-0.569667	0.438803
C89	C	1.784345	-0.236334	0.772136
C90	C	2.117678	0.097000	1.105469
N91	N	1.510303	-0.771482	0.414126
N92	N	1.843637	-0.438148	0.747459
N93	N	2.176970	-0.104815	1.080792
N94	N	1.510350	-0.833933	0.414144
N95	N	1.843683	-0.500600	0.747478
N96	N	2.177017	-0.167267	1.080811
C97	C	1.518367	-0.866288	0.506119
C98	C	1.851700	-0.532955	0.839453
C99	C	2.185033	-0.199622	1.172786
N100	N	1.526356	-0.833833	0.598077
N101	N	1.859689	-0.500499	0.931411
N102	N	2.193022	-0.167166	1.264744
N103	N	1.526315	-0.771375	0.598057
N104	N	1.859648	-0.438042	0.931391
N105	N	2.192981	-0.104709	1.264724
C106	C	1.518282	-0.739499	0.506083
C107	C	1.851616	-0.406166	0.839416
C108	C	2.184949	-0.072832	1.172750
C109	C	1.585588	-0.970371	0.573401
C110	C	1.918921	-0.637038	0.906735
C111	C	2.252254	-0.303705	1.240068
C112	C	1.585617	-1.036115	0.573429
C113	C	1.918951	-0.702782	0.906762
C114	C	2.252284	-0.369448	1.240096
C115	C	1.451304	-1.036251	0.438926
C116	C	1.784637	-0.702917	0.772259
C117	C	2.117970	-0.369584	1.105593
C118	C	1.451268	-0.970508	0.438908
C119	C	1.784602	-0.637175	0.772241
C120	C	2.117935	-0.303842	1.105574
C121	C	1.518416	-0.937573	0.506144
C122	C	1.851749	-0.604239	0.839477
C123	C	2.185083	-0.270906	1.172811
C124	C	1.792287	-0.303223	0.506095
C125	C	2.125620	0.030110	0.839428
C126	C	2.458954	0.363444	1.172762
C127	C	1.909064	-0.303228	0.506101
C128	C	2.242397	0.030105	0.839435
C129	C	2.575730	0.363439	1.172768
C130	C	1.518333	-0.303151	0.780113
C131	C	1.851666	0.030182	1.113447
C132	C	2.184999	0.363516	1.446780
C133	C	1.518366	-0.303125	0.896890
C134	C	1.851699	0.030208	1.230223
C135	C	2.185033	0.363541	1.563557
C136	C	1.518417	-0.139021	0.506156
C137	C	1.851750	0.194312	0.839489
C138	C	2.185084	0.527646	1.172823
C139	C	1.518486	-0.069053	0.506189
C140	C	1.851820	0.264280	0.839522
C141	C	2.185153	0.597614	1.172855
C142	C	1.518236	-0.303226	0.233112
C143	C	1.851569	0.030107	0.566446
C144	C	2.184903	0.363441	0.899779
C145	C	1.518406	-0.303075	0.116336
C146	C	1.851739	0.030259	0.449670
C147	C	2.185073	0.363592	0.783003
C148	C	1.585607	-0.262860	0.951776
C149	C	1.918941	0.070473	1.285109
C150	C	2.252274	0.403807	1.618443
C151	C	1.585625	-0.262833	1.061500
C152	C	1.918958	0.070500	1.394834
C153	C	2.252292	0.403834	1.728167
C154	C	1.451157	-0.343341	1.061443
C155	C	1.784491	-0.010008	1.394776
C156	C	2.117824	0.323325	1.728109
C157	C	1.451135	-0.343365	0.951720
C158	C	1.784468	-0.010032	1.285054
C159	C	2.117802	0.323302	1.618387
H160	H	0.919252	-0.230102	0.384406
H161	H	1.252586	0.103232	0.717740
H162	H	1.585919	0.436565	1.051073
F163	F	1.657200	-0.219982	1.119909
F164	F	1.990533	0.113352	1.453243
F165	F	2.323866	0.446685	1.786576
F166	F	1.656795	-0.534480	0.644852
F167	F	1.990129	-0.201146	0.978185
F168	F	2.323462	0.132187	1.311518
F169	F	1.132029	-0.386415	0.644526
F170	F	1.465362	-0.053082	0.977860
F171	F	1.798695	0.280252	1.311193
H172	H	1.118320	-0.230090	0.384402
H173	H	1.451653	0.103243	0.717735
H174	H	1.784987	0.436576	1.051069
F175	F	1.379769	-0.935601	0.367331
F176	F	1.713102	-0.602268	0.700665
F177	F	2.046436	-0.268935	1.033998
H178	H	1.640068	-0.661980	0.628087
H179	H	1.973401	-0.328647	0.961420
H180	H	2.306735	0.004687	1.294753
H181	H	1.640260	-0.943554	0.628153
H182	H	1.973593	-0.610221	0.961486
H183	H	2.306927	-0.276887	1.294819
F184	F	0.905545	-0.386429	0.644553
F185	F	1.238878	-0.053096	0.977886
F186	F	1.572211	0.280237	1.311220
F187	F	1.379856	-1.071306	0.367365
F188	F	1.713190	-0.737973	0.700699
F189	F	2.046523	-0.404640	1.034032
F190	F	1.379605	-0.670469	0.367262
F191	F	1.712939	-0.337135	0.700595
F192	F	2.046272	-0.003802	1.033929
F193	F	1.379559	-0.386220	0.893303
F194	F	1.712892	-0.052886	1.226636
F195	F	2.046226	0.280447	1.559970
F196	F	1.379508	-0.534760	0.367226
F197	F	1.712841	-0.201427	0.700559
F198	F	2.046174	0.131906	1.033893
H199	H	1.640321	-1.062818	0.628195
H200	H	1.973654	-0.729484	0.961529
H201	H	2.306987	-0.396151	1.294862
F202	F	1.379613	-0.386167	1.119806
F203	F	1.712947	-0.052834	1.453139
F204	F	2.046280	0.280500	1.786473
H205	H	1.640348	-0.230093	0.907136
H206	H	1.973682	0.103241	1.240470
H207	H	2.307015	0.436574	1.573803
