data_functionalizedCrystal
_audit_creation_method	'MofGen! by Chris Wilmer'
_symmetry_space_group_name_H-M	'P1'
_symmetry_Int_Tables_number	1
_symmetry_cell_setting	triclinic
loop_
_symmetry_equiv_pos_as_xyz
  x,y,z
_cell_length_a	18.627245
_cell_length_b	18.627245
_cell_length_c	18.627276
_cell_angle_alpha	90.004974
_cell_angle_beta	120.005398
_cell_angle_gamma	59.999879
loop_
_atom_site_label
_atom_site_type_symbol
_atom_site_fract_x
_atom_site_fract_y
_atom_site_fract_z
O1	O	0.633253	0.492475	0.021372
O2	O	0.486241	0.388080	-0.021244
O3	O	0.633252	0.388080	0.125767
O4	O	0.486242	0.492475	-0.125640
O5	O	0.513849	0.507483	0.125767
O6	O	0.366838	0.507482	-0.021245
O7	O	0.513850	0.611878	0.021372
Cu8	Cu	0.429442	0.570583	0.000063
Cu9	Cu	0.570649	0.429375	0.000064
O10	O	0.366839	0.611877	-0.125640
C11	C	0.644059	0.742975	0.031084
C12	C	0.593663	0.837671	0.024990
C13	C	0.601258	0.699375	0.031685
C14	C	0.774061	0.612974	0.031084
C15	C	0.862663	0.568672	0.024990
C16	C	0.731063	0.569571	0.031686
C17	C	0.644054	0.612976	0.031075
C18	C	0.593653	0.568678	0.024973
C19	C	0.731067	0.699372	0.031694
C20	C	0.356049	0.256974	-0.030928
C21	C	0.406448	0.162276	-0.024829
C22	C	0.269045	0.300575	-0.031532
C23	C	0.356045	0.386977	-0.030934
C24	C	0.406440	0.431279	-0.024842
C25	C	0.269041	0.430380	-0.031539
C26	C	0.226049	0.386975	-0.030927
C27	C	0.137451	0.431275	-0.024827
C28	C	0.398844	0.300577	-0.031539
C29	C	0.356047	0.612980	-0.256938
C30	C	0.406441	0.568678	-0.162241
C31	C	0.269041	0.699379	-0.300539
C32	C	0.356054	0.612982	-0.386935
C33	C	0.406455	0.568683	-0.431232
C34	C	0.269048	0.699381	-0.430339
C35	C	0.226050	0.742982	-0.386936
C36	C	0.137450	0.837679	-0.431235
C37	C	0.398848	0.569577	-0.300538
O38	O	1.104443	0.507480	-0.021233
O39	O	0.895662	0.611874	0.021387
O40	O	0.895635	0.611867	-0.125626
O41	O	1.104470	0.507487	0.125780
O42	O	0.895645	0.492459	-0.125615
O43	O	0.895672	0.492467	0.021398
O44	O	1.104453	0.388073	-0.021222
Cu45	Cu	1.000064	0.429367	0.000089
Cu46	Cu	1.000052	0.570580	0.000076
O47	O	1.104480	0.388080	0.125791
O48	O	0.366846	1.125675	-0.021234
O49	O	0.513859	0.874274	0.021387
O50	O	0.366855	1.021259	-0.125626
O51	O	0.513850	0.978691	0.125780
O52	O	0.486263	1.021256	-0.125617
O53	O	0.633267	0.874271	0.021396
O54	O	0.486253	1.125673	-0.021225
Cu55	Cu	0.570663	0.999972	0.000086
Cu56	Cu	0.429450	0.999975	0.000076
O57	O	0.633258	0.978688	0.125788
O58	O	0.633266	0.388084	-0.492424
O59	O	0.486257	0.492480	-0.388033
O60	O	0.633271	0.492477	-0.388008
O61	O	0.486252	0.388087	-0.492450
O62	O	0.513871	0.611881	-0.507407
O63	O	0.366857	0.611884	-0.507432
O64	O	0.513866	0.507488	-0.611824
Cu65	Cu	0.429459	0.570588	-0.570530
Cu66	Cu	0.570664	0.429379	-0.429327
O67	O	0.366852	0.507491	-0.611849
C68	C	0.356089	1.030891	-0.386912
C69	C	0.406493	1.024784	-0.431205
C70	C	0.269086	1.031486	-0.430319
C71	C	0.356074	1.030921	-0.256919
C72	C	0.406462	1.024847	-0.162223
C73	C	0.269071	1.031517	-0.300524
C74	C	0.226085	1.030888	-0.386920
C75	C	0.137489	1.024779	-0.431222
C76	C	0.398877	1.031519	-0.300516
C77	C	0.644061	0.386983	0.387072
C78	C	0.593666	0.431284	0.431374
C79	C	0.731068	0.300585	0.430477
C80	C	0.644054	0.386982	0.257069
C81	C	0.593653	0.431281	0.162370
C82	C	0.731062	0.300584	0.300670
C83	C	0.774061	0.256983	0.387071
C84	C	0.862663	0.162287	0.431370
C85	C	0.601259	0.430387	0.300672
O86	O	-0.104345	1.125678	-0.611830
O87	O	0.104451	0.874281	-0.507435
O88	O	0.104463	1.021274	-0.507411
O89	O	-0.104357	0.978685	-0.611854
O90	O	0.104455	1.021274	-0.388013
O91	O	0.104443	0.874280	-0.388037
O92	O	-0.104353	1.125678	-0.492432
Cu93	Cu	0.000044	0.999979	-0.429333
Cu94	Cu	0.000054	0.999979	-0.570535
O95	O	-0.104365	0.978684	-0.492456
C96	C	0.644004	0.612945	-0.386919
C97	C	0.593606	0.568640	-0.431215
C98	C	0.601197	0.699343	-0.430329
C99	C	0.774018	0.612956	-0.256922
C100	C	0.862632	0.568662	-0.162223
C101	C	0.731014	0.699354	-0.300529
C102	C	0.643996	0.742950	-0.386928
C103	C	0.593590	0.837646	-0.431234
C104	C	0.731022	0.569547	-0.300519
C105	C	1.356120	0.256998	0.387094
C106	C	1.406527	0.162302	0.431400
C107	C	1.398918	0.300605	0.430494
C108	C	1.226097	0.386991	0.257087
C109	C	1.137484	0.431285	0.162388
C110	C	1.269093	0.430401	0.300684
C111	C	1.356111	0.387003	0.387084
C112	C	1.406508	0.431310	0.431379
C113	C	1.269102	0.300593	0.300694
O114	O	0.513917	0.978542	-0.611787
O115	O	0.366900	1.021167	-0.507405
O116	O	0.513924	0.874159	-0.507373
O117	O	0.366894	1.125550	-0.611818
O118	O	0.633316	0.874189	-0.387972
O119	O	0.486293	1.021197	-0.388004
O120	O	0.633310	0.978572	-0.492386
Cu121	Cu	0.570703	0.999887	-0.429292
Cu122	Cu	0.429507	0.999852	-0.570498
O123	O	0.486287	1.125580	-0.492417
C124	C	0.774032	0.969052	0.387084
C125	C	0.862634	0.975155	0.431388
C126	C	0.731028	0.968461	0.430482
C127	C	0.644039	0.969026	0.257081
C128	C	0.593651	0.975099	0.162386
C129	C	0.601232	0.968434	0.300676
C130	C	0.644021	0.969062	0.387073
C131	C	0.593613	0.975175	0.431365
C132	C	0.731046	0.968424	0.300688
H133	H	0.531233	0.734391	0.032643
H134	H	0.767031	0.265576	0.265655
O135	O	0.773990	0.484923	0.032725
C136	C	0.774388	0.480117	-0.042627
H137	H	0.770260	0.538454	-0.068564
H138	H	0.706039	0.481687	-0.095445
C139	C	0.877796	0.322290	0.013301
C140	C	0.872735	0.393937	-0.018550
H141	H	0.938459	0.269129	0.028151
H142	H	0.877525	0.325527	0.064066
H143	H	0.820833	0.323610	-0.030718
H144	H	0.929691	0.392622	0.025473
H145	H	0.873018	0.390697	-0.069308
O146	O	0.774072	0.741107	0.033019
C147	C	0.803133	0.765496	0.109137
H148	H	0.813767	0.721622	0.161378
H149	H	0.741595	0.837014	0.092217
C150	C	0.890581	0.808680	0.080405
C151	C	0.903650	0.754788	0.144572
H152	H	0.952582	0.802079	0.102262
H153	H	0.870999	0.792252	0.029121
H154	H	0.839296	0.868273	0.066311
H155	H	0.954925	0.695195	0.158656
H156	H	0.923243	0.771205	0.195859
O157	O	0.225939	0.741141	-0.258897
C158	C	0.125442	0.765504	-0.306000
H159	H	0.117129	0.721589	-0.347579
H160	H	0.070840	0.837007	-0.350655
C161	C	0.110861	0.808785	-0.189897
C162	C	0.100653	0.754844	-0.240959
H163	H	0.095567	0.802214	-0.149778
H164	H	0.178567	0.792375	-0.158164
H165	H	0.065358	0.868366	-0.227119
H166	H	0.146164	0.695264	-0.203738
H167	H	0.032954	0.771244	-0.272685
H168	H	0.233072	0.734385	-0.501326
O169	O	0.226275	0.515031	-0.032587
C170	C	0.297225	0.519847	0.042762
H171	H	0.377379	0.461509	0.068706
H172	H	0.283267	0.518286	0.095576
C173	C	0.186862	0.677674	-0.013187
C174	C	0.285309	0.606026	0.018674
H175	H	0.179510	0.730834	-0.028043
H176	H	0.139060	0.674430	-0.063950
H177	H	0.175242	0.676361	0.030830
H178	H	0.296924	0.607333	-0.025347
H179	H	0.333114	0.609272	0.069429
H180	H	1.233123	0.265579	0.265695
H181	H	0.468852	0.265569	-0.032523
O182	O	0.225967	1.032811	-0.258900
C183	C	0.125484	1.108953	-0.305949
H184	H	0.096270	1.133500	-0.377300
H185	H	0.123760	1.162200	-0.275182
C186	C	0.093394	1.056892	-0.214885
C187	C	0.057511	1.087036	-0.302521
H188	H	0.051465	1.043375	-0.212768
H189	H	0.161093	1.005594	-0.183184
H190	H	0.091956	1.101270	-0.189256
H191	H	0.058961	1.042655	-0.328145
H192	H	-0.010190	1.138326	-0.334226
O193	O	0.774044	0.258688	0.515136
C194	C	0.774495	0.182911	0.519963
H195	H	0.770330	0.161114	0.461606
H196	H	0.706189	0.198401	0.518439
C197	C	0.878001	0.135425	0.677798
C198	C	0.872894	0.108650	0.606127
H199	H	0.938695	0.089618	0.730949
H200	H	0.877694	0.186479	0.674547
H201	H	0.821074	0.148334	0.676517
H202	H	0.929813	0.095752	0.607403
H203	H	0.873213	0.057592	0.609380
H204	H	0.767038	0.967438	0.265689
O205	O	0.482269	0.484841	-0.258805
C206	C	0.459603	0.431390	-0.234429
H207	H	0.374114	0.464629	-0.278308
H208	H	0.486508	0.421401	-0.162907
C209	C	0.618978	0.300769	-0.191249
C210	C	0.513980	0.341591	-0.245148
H211	H	0.652524	0.245375	-0.197857
H212	H	0.634251	0.336779	-0.207669
H213	H	0.641385	0.292453	-0.131652
H214	H	0.491573	0.349916	-0.304743
H215	H	0.498704	0.305580	-0.228738
H216	H	0.531177	0.734340	-0.501320
O217	O	0.226038	0.258830	-0.032893
C218	C	0.196916	0.234551	-0.109077
H219	H	0.243797	0.229818	-0.133557
H220	H	0.112930	0.286142	-0.162347
C221	C	0.157645	0.150547	-0.057201
C222	C	0.215232	0.144726	-0.087264
H223	H	0.168938	0.095141	-0.043749
H224	H	0.177262	0.166907	-0.005876
H225	H	0.087662	0.193543	-0.101598
H226	H	0.285213	0.101739	-0.042863
H227	H	0.195627	0.128357	-0.138581
O228	O	0.226308	1.032449	-0.514947
C229	C	0.297299	0.957105	-0.519721
H230	H	0.356588	0.903520	-0.452464
H231	H	0.336212	0.974423	-0.540713
C232	C	0.169370	0.989610	-0.670038
C233	C	0.242185	0.923793	-0.587434
H234	H	0.135374	0.969063	-0.711809
H235	H	0.121542	1.040373	-0.666823
H236	H	0.201809	1.004036	-0.687519
H237	H	0.209744	0.909376	-0.569949
H238	H	0.290005	0.873027	-0.590647
H239	H	0.531228	0.501366	0.265661
H240	H	0.468901	1.032484	-0.265503
H241	H	0.767002	0.734361	-0.265523
H242	H	0.766963	0.498581	-0.265489
O243	O	1.226028	0.515138	0.258942
C244	C	1.125527	0.568578	0.234560
H245	H	1.117171	0.535336	0.278443
H246	H	1.070919	0.578554	0.163041
C247	C	1.111066	0.699210	0.191361
C248	C	1.100804	0.658385	0.245264
H249	H	1.095813	0.754609	0.197959
H250	H	1.178774	0.663207	0.207784
H251	H	1.065558	0.707515	0.131766
H252	H	1.146321	0.650071	0.304858
H253	H	1.033103	0.694389	0.228851
H254	H	1.468948	0.265597	0.501480
O255	O	0.517819	0.967101	0.258936
C256	C	0.540512	0.890973	0.234570
H257	H	0.626003	0.838742	0.278461
H258	H	0.513621	0.907872	0.163052
C259	C	0.381141	0.919693	0.191366
C260	C	0.486142	0.855539	0.245279
H261	H	0.347599	0.897837	0.197967
H262	H	0.365849	0.970984	0.207778
H263	H	0.358746	0.933770	0.131772
H264	H	0.508537	0.841471	0.304871
H265	H	0.501436	0.804244	0.228877
H266	H	0.767014	0.967491	0.501472
