data_functionalizedCrystal
_audit_creation_method	'MofGen! by Chris Wilmer'
_symmetry_space_group_name_H-M	'P1'
_symmetry_Int_Tables_number	1
_symmetry_cell_setting	triclinic
loop_
_symmetry_equiv_pos_as_xyz
  x,y,z
_cell_length_a	14.853558
_cell_length_b	14.044190
_cell_length_c	13.330367
_cell_angle_alpha	89.990836
_cell_angle_beta	89.992972
_cell_angle_gamma	88.411455
loop_
_atom_site_label
_atom_site_type_symbol
_atom_site_fract_x
_atom_site_fract_y
_atom_site_fract_z
O1	O	1.206179	0.123725	-0.083423
O2	O	0.944888	0.138478	-0.083429
O3	O	1.071608	-0.006889	-0.083406
O4	O	1.079459	0.269091	-0.083446
O5	O	1.071588	-0.006892	0.083441
O6	O	0.944868	0.138474	0.083418
O7	O	1.206159	0.123721	0.083424
Cu8	Cu	1.075512	0.131098	0.098656
Cu9	Cu	1.075536	0.131101	-0.098660
O10	O	1.079439	0.269088	0.083402
C11	C	0.911236	0.137809	-0.000006
C12	C	0.810994	0.135811	-0.000007
C13	C	0.763910	0.134875	-0.090959
C14	C	0.763886	0.134860	0.090944
C15	C	0.669703	0.132978	0.090946
C16	C	0.622619	0.132042	-0.000006
C17	C	0.669719	0.132990	-0.090960
C18	C	0.622597	0.132021	0.181898
C19	C	0.528408	0.130137	0.181904
C20	C	0.481323	0.129208	0.090950
C21	C	0.528428	0.130157	-0.000007
C22	C	0.481344	0.129221	-0.090959
C23	C	0.528448	0.130176	-0.181918
C24	C	0.622633	0.132061	-0.181913
C25	C	0.387137	0.127324	0.090946
C26	C	0.387153	0.127336	-0.090960
C27	C	1.068164	-0.042209	0.000020
C28	C	1.057920	-0.147448	0.000029
C29	C	1.111846	-0.397666	-0.000009
C30	C	1.039205	-0.340130	-0.000004
C31	C	1.049620	-0.232912	0.000014
C32	C	1.101432	-0.504893	-0.000028
C33	C	1.239811	0.124390	-0.000001
C34	C	1.340053	0.126388	-0.000006
C35	C	1.082883	0.304408	-0.000027
C36	C	1.093128	0.409647	-0.000042
N37	N	1.075501	0.131094	0.237437
N38	N	1.075553	0.131097	-0.237442
C39	C	1.019419	0.195444	0.710050
C40	C	1.131676	0.066751	0.710038
C41	C	1.131665	0.066748	0.605020
C42	C	1.075532	0.131095	0.552512
C43	C	1.019409	0.195445	0.605022
C44	C	1.187794	0.002406	0.552502
C45	C	1.187787	0.002401	0.447477
C46	C	1.131648	0.066744	0.394967
C47	C	1.075522	0.131096	0.447484
C48	C	1.019388	0.195443	0.394976
C49	C	0.963257	0.259791	0.447490
C50	C	0.963270	0.259789	0.552512
C51	C	1.131635	0.066747	0.289945
C52	C	1.019378	0.195444	0.289947
H53	H	0.348824	0.126580	-0.165025
C54	C	0.944622	-0.382365	-0.000008
N55	N	0.873385	-0.414182	-0.000005
C56	C	0.815678	0.135939	0.190985
N57	N	0.854691	0.136773	0.266341
C58	C	1.206422	-0.355429	0.000018
N59	N	1.277657	-0.323606	0.000046
C60	C	0.815724	0.135922	-0.191009
N61	N	0.854751	0.136709	-0.266368
H62	H	0.490100	0.129410	-0.255971
H63	H	0.348789	0.126555	0.165003
C64	C	1.249536	-0.068371	0.610266
N65	N	1.296040	-0.121685	0.653780
H66	H	0.660939	0.132774	0.255946
C67	C	0.957650	0.266257	0.232197
N68	N	0.911167	0.319603	0.188700
C69	C	0.901526	0.330560	0.610286
N70	N	0.855020	0.383864	0.653805
C71	C	1.193376	-0.004031	0.232184
N72	N	1.239881	-0.057346	0.188679
H73	H	0.917557	0.312187	0.404726
C74	C	0.476602	0.129106	0.281959
N75	N	0.437581	0.128338	0.357322
H76	H	0.973715	0.247833	0.752810
C77	C	0.674454	0.133099	-0.281959
N78	N	0.713490	0.133876	-0.357312
H79	H	1.177383	0.014366	0.752794
H80	H	1.233490	-0.049995	0.404726
