data_functionalizedCrystal
_audit_creation_method	'MofGen! by Chris Wilmer'
_symmetry_space_group_name_H-M	'P1'
_symmetry_Int_Tables_number	1
_symmetry_cell_setting	triclinic
loop_
_symmetry_equiv_pos_as_xyz
  x,y,z
_cell_length_a	21.395364
_cell_length_b	19.120786
_cell_length_c	21.395355
_cell_angle_alpha	92.459295
_cell_angle_beta	90.024552
_cell_angle_gamma	92.480057
loop_
_atom_site_label
_atom_site_type_symbol
_atom_site_fract_x
_atom_site_fract_y
_atom_site_fract_z
Zn1	Zn	0.947247	-0.279432	0.343622
Zn2	Zn	1.447247	0.220568	0.843622
Zn3	Zn	0.942690	-0.396873	0.234373
Zn4	Zn	1.442690	0.103127	0.734373
Zn5	Zn	0.842461	-0.279463	0.238857
Zn6	Zn	1.342461	0.220537	0.738857
Zn7	Zn	0.837971	-0.396885	0.339112
Zn8	Zn	1.337971	0.103115	0.839112
O9	O	0.892592	-0.338163	0.288991
O10	O	1.392592	0.161837	0.788991
O11	O	1.034321	-0.294993	0.329140
O12	O	1.534321	0.205007	0.829140
O13	O	0.929366	-0.381306	0.147289
O14	O	1.429366	0.118694	0.647289
O15	O	0.860148	-0.181168	0.256519
O16	O	1.360148	0.318832	0.756519
O17	O	1.030973	-0.381276	0.248875
O18	O	1.530973	0.118724	0.748875
O19	O	0.937134	-0.181146	0.333489
O20	O	1.437134	0.318854	0.833489
O21	O	0.855728	-0.295045	0.150584
O22	O	1.355728	0.204955	0.650584
O23	O	0.754187	-0.295057	0.252146
O24	O	1.254187	0.204943	0.752146
O25	O	0.852495	-0.381297	0.427389
O26	O	1.352495	0.118703	0.927389
O27	O	0.750888	-0.381327	0.325803
O28	O	1.250888	0.118673	0.825803
O29	O	0.932780	-0.295005	0.430702
O30	O	1.432780	0.204995	0.930702
O31	O	0.925012	-0.495165	0.244503
O32	O	1.425012	0.004835	0.744503
O33	O	0.848076	-0.495174	0.321454
O34	O	1.348076	0.004826	0.821454
C35	C	0.729803	-0.338197	0.288972
C36	C	1.229803	0.161803	0.788972
C37	C	0.660161	-0.338229	0.288978
C38	C	1.160161	0.161771	0.788978
C39	C	0.629211	-0.293375	0.330831
C40	C	1.129211	0.206625	0.830831
C41	C	0.563776	-0.293356	0.330835
C42	C	1.063776	0.206644	0.830835
C43	C	0.529294	-0.338204	0.288991
C44	C	1.029294	0.161796	0.788991
C45	C	0.560251	-0.383061	0.247130
C46	C	1.060251	0.116939	0.747130
C47	C	0.625685	-0.383074	0.247124
C48	C	1.125685	0.116926	0.747124
C49	C	0.423167	-0.401459	0.281545
C50	C	0.923167	0.098541	0.781545
C51	C	0.357734	-0.401447	0.281555
C52	C	0.857734	0.098553	0.781555
C53	C	0.327474	-0.338165	0.289006
C54	C	0.827474	0.161835	0.789006
C55	C	0.362655	-0.274893	0.296460
C56	C	0.862655	0.225107	0.796460
C57	C	0.428088	-0.274905	0.296454
C58	C	0.928088	0.225095	0.796454
C59	C	0.458341	-0.338195	0.288992
C60	C	0.958341	0.161805	0.788992
C61	C	0.225573	-0.293287	0.330865
C62	C	0.725573	0.206713	0.830865
C63	C	0.160137	-0.293268	0.330864
C64	C	0.660137	0.206732	0.830864
C65	C	0.156613	-0.382979	0.247162
C66	C	0.656613	0.117021	0.747162
C67	C	0.222048	-0.382992	0.247160
C68	C	0.722048	0.117008	0.747160
C69	C	0.256524	-0.338148	0.289015
C70	C	0.756524	0.161852	0.789015
C71	C	0.885579	-0.520655	0.282016
C72	C	1.385579	-0.020655	0.782016
C73	C	0.882636	-0.598726	0.279053
C74	C	1.382636	-0.098726	0.779053
C75	C	0.921306	-0.635331	0.317768
C76	C	1.421306	-0.135331	0.817768
C77	C	0.918538	-0.708687	0.314985
C78	C	1.418538	-0.208687	0.814985
C79	C	0.877103	-0.745436	0.273484
C80	C	1.377103	-0.245436	0.773484
C81	C	0.838429	-0.708825	0.234768
C82	C	1.338429	-0.208825	0.734768
C83	C	0.841194	-0.635471	0.237554
C84	C	1.341194	-0.135471	0.737554
C85	C	0.866748	-0.966923	0.263067
C86	C	1.366748	-0.466923	0.763067
C87	C	0.863987	-1.040282	0.260282
C88	C	1.363987	-0.540282	0.760282
C89	C	0.944096	-1.040139	0.340501
C90	C	1.444096	-0.540139	0.840501
C91	C	0.946860	-0.966783	0.343281
C92	C	1.446860	-0.466783	0.843281
C93	C	0.908184	-0.930179	0.304567
C94	C	1.408184	-0.430179	0.804567
C95	C	0.874275	-0.820417	0.270637
C96	C	1.374275	-0.320417	0.770637
C97	C	0.911010	-0.855199	0.307417
C98	C	1.411010	-0.355199	0.807417
C99	C	1.056017	-0.338129	0.289010
C100	C	1.556017	0.161871	0.789010
C101	C	1.125659	-0.338115	0.289019
C102	C	1.625659	0.161885	0.789019
C103	C	0.892645	-0.338149	0.452415
C104	C	1.392645	0.161851	0.952415
C105	C	0.892667	-0.338143	0.522057
C106	C	1.392667	0.161857	1.022057
C107	C	0.899650	-0.154959	0.296007
C108	C	1.399650	0.345041	0.796007
C109	C	0.902657	-0.076888	0.298997
C110	C	1.402657	0.423112	0.798997
C111	C	0.892578	-0.338127	0.126205
C112	C	1.392578	0.161873	0.626205
C113	C	0.892684	-0.337935	0.056571
C114	C	1.392684	0.162065	0.556571
C115	C	0.934470	-0.293209	0.556496
C116	C	1.434470	0.206791	1.056496
C117	C	0.934470	-0.293179	0.621932
C118	C	1.434470	0.206821	1.121932
C119	C	0.892674	-0.338095	0.652927
C120	C	1.392674	0.161905	1.152927
C121	C	0.850863	-0.383032	0.618479
C122	C	1.350863	0.116968	1.118479
C123	C	0.850860	-0.383056	0.553044
C124	C	1.350860	0.116944	1.053044
C125	C	0.885296	-0.401340	0.754184
C126	C	1.385296	0.098660	1.254184
C127	C	0.885304	-0.401318	0.819618
C128	C	1.385304	0.098682	1.319618
C129	C	0.892681	-0.338021	0.854750
C130	C	1.392681	0.161979	1.354750
C131	C	0.900063	-0.274745	0.824441
C132	C	1.400063	0.225255	1.324441
C133	C	0.900060	-0.274769	0.759006
C134	C	1.400060	0.225231	1.259006
C135	C	0.892673	-0.338074	0.723880
C136	C	1.392673	0.161926	1.223880
C137	C	0.934486	-0.293050	0.960144
C138	C	1.434486	0.206950	1.460144
C139	C	0.934482	-0.293019	1.025582
C140	C	1.434482	0.206981	1.525582
C141	C	0.850878	-0.382879	1.022127
C142	C	1.350878	0.117121	1.522127
C143	C	0.850879	-0.382904	0.956691
C144	C	1.350879	0.117096	1.456691
C145	C	0.892686	-0.337991	0.925703
C146	C	1.392686	0.162009	1.425703
H147	H	0.338019	-0.223363	0.302527
H148	H	0.838019	0.276637	0.802527
N149	N	0.796117	-0.746350	0.192354
N150	N	1.296117	-0.246350	0.692354
N151	N	0.761603	-0.713655	0.157782
N152	N	1.261603	-0.213655	0.657782
H153	H	0.731725	-0.740155	0.127820
H154	H	1.231725	-0.240155	0.627820
H155	H	0.247247	-0.419520	0.213081
H156	H	0.747247	0.080480	0.713081
N157	N	0.128533	-0.247442	0.373624
N158	N	0.628533	0.252558	0.873624
N159	N	0.135686	-0.252200	0.431249
N160	N	0.635686	0.247800	0.931249
H161	H	0.113367	-0.219833	0.461450
H162	H	0.613367	0.280167	0.961450
N163	N	0.958054	-0.746075	0.354519
N164	N	1.458054	-0.246075	0.854519
N165	N	0.996450	-0.786965	0.330954
N166	N	1.496450	-0.286965	0.830954
H167	H	1.024361	-0.813369	0.358876
H168	H	1.524361	-0.313369	0.858876
N169	N	0.808180	-0.428799	0.921500
N170	N	1.308180	0.071201	1.421500
N171	N	0.769205	-0.404103	0.885913
N172	N	1.269205	0.095897	1.385913
H173	H	0.739044	-0.436515	0.861060
H174	H	1.239044	0.063485	1.361060
H175	H	0.253645	-0.256768	0.364942
H176	H	0.753645	0.243232	0.864942
N177	N	0.321811	-0.466082	0.273950
N178	N	0.821811	0.033918	0.773950
N179	N	0.348834	-0.522579	0.267291
N180	N	0.848834	-0.022579	0.767291
H181	H	0.323465	-0.568230	0.261921
H182	H	0.823465	-0.068230	0.761921
N183	N	0.821680	-1.077811	0.217860
N184	N	1.321680	-0.577811	0.717860
N185	N	0.787167	-1.045121	0.183282
N186	N	1.287167	-0.545121	0.683282
H187	H	0.757298	-1.071625	0.153313
H188	H	1.257298	-0.571625	0.653313
N189	N	0.989191	-0.929259	0.385675
N190	N	1.489191	-0.429259	0.885675
N191	N	1.023716	-0.961951	0.420239
N192	N	1.523716	-0.461951	0.920239
H193	H	1.053616	-0.935450	0.450179
H194	H	1.553616	-0.435450	0.950179
N195	N	0.877758	-0.465942	0.850585
N196	N	1.377758	0.034058	1.350585
N197	N	0.877762	-0.465913	0.909009
N198	N	1.377762	0.034087	1.409009
H199	H	0.872431	-0.511556	0.930880
H200	H	1.372431	-0.011556	1.430880
H201	H	0.809704	-0.605667	0.206029
H202	H	1.309704	-0.105667	0.706029
H203	H	0.840540	-0.850347	0.236845
H204	H	1.340540	-0.350347	0.736845
H205	H	0.975584	-1.069950	0.372020
H206	H	1.475584	-0.569950	0.872020
H207	H	0.447799	-0.452994	0.275476
H208	H	0.947799	0.047006	0.775476
N209	N	0.907598	-0.210146	0.728035
N210	N	1.407598	0.289854	1.228035
N211	N	0.952727	-0.200315	0.691910
N212	N	1.452727	0.299685	1.191910
H213	H	0.958049	-0.154675	0.670035
H214	H	1.458049	0.345325	1.170035
N215	N	0.827229	-0.929549	0.223528
N216	N	1.327229	-0.429549	0.723528
N217	N	0.769103	-0.937831	0.227324
N218	N	1.269103	-0.437831	0.727324
H219	H	0.741187	-0.911437	0.199398
H220	H	1.241187	-0.411437	0.699398
H221	H	0.879122	-0.452871	0.725585
H222	H	1.379122	0.047129	1.225585
H223	H	0.532171	-0.419576	0.213060
H224	H	1.032171	0.080424	0.713060
N225	N	0.977179	-0.247330	0.524854
N226	N	1.477179	0.252670	1.024854
N227	N	1.014501	-0.207213	0.555616
N228	N	1.514501	0.292787	1.055616
H229	H	1.044665	-0.174810	0.533268
H230	H	1.544665	0.325190	1.033268
N231	N	0.657303	-0.428886	0.204363
N232	N	1.157303	0.071114	0.704363
N233	N	0.650155	-0.424126	0.146738
N234	N	1.150155	0.075874	0.646738
H235	H	0.672486	-0.456481	0.116538
H236	H	1.172486	0.043519	0.616538
H237	H	0.944744	-0.825276	0.341210
H238	H	1.444744	-0.325276	0.841210
N239	N	0.121389	-0.428777	0.204415
N240	N	0.621389	0.071223	0.704415
N241	N	0.062967	-0.428757	0.204422
N242	N	0.562967	0.071243	0.704422
H243	H	0.038086	-0.461100	0.174228
H244	H	0.538086	0.038900	0.674228
N245	N	0.464034	-0.210285	0.304052
N246	N	0.964034	0.289715	0.804052
N247	N	0.522456	-0.210309	0.304041
N248	N	1.022456	0.289691	0.804041
H249	H	0.547843	-0.164670	0.309404
H250	H	1.047843	0.335330	0.809404
H251	H	0.816841	-0.419444	1.047362
H252	H	1.316841	0.080556	1.547362
H253	H	0.955050	-0.605415	0.351560
H254	H	1.455050	-0.105415	0.851560
H255	H	0.968510	-0.256584	0.649978
H256	H	1.468510	0.243416	1.149978
N257	N	0.907598	-0.210089	0.860328
N258	N	1.407598	0.289911	1.360328
N259	N	0.907594	-0.210073	0.918752
N260	N	1.407594	0.289927	1.418752
H261	H	0.912915	-0.164411	0.944100
H262	H	1.412915	0.335589	1.444100
N263	N	0.977190	-0.247167	0.928496
N264	N	1.477190	0.252833	1.428496
N265	N	1.014507	-0.207043	0.959257
N266	N	1.514507	0.292957	1.459257
H267	H	1.044667	-0.174637	0.936907
H268	H	1.544667	0.325363	1.436907
H269	H	0.968522	-0.256424	1.053621
H270	H	1.468522	0.243576	1.553621
H271	H	0.816831	-0.419601	0.643719
H272	H	1.316831	0.080399	1.143719
N273	N	0.808151	-0.428960	0.517872
N274	N	1.308151	0.071040	1.017872
N275	N	0.770831	-0.469057	0.545549
N276	N	1.270831	0.030943	1.045549
H277	H	0.740667	-0.501478	0.520708
H278	H	1.240667	-0.001478	1.020708
H279	H	0.538572	-0.256827	0.364915
H280	H	1.038572	0.243173	0.864915
N281	N	0.664416	-0.247567	0.373590
N282	N	1.164416	0.252433	0.873590
N283	N	0.636769	-0.207522	0.410957
N284	N	1.136769	0.292478	0.910957
H285	H	0.661633	-0.175170	0.441157
H286	H	1.161633	0.324830	0.941157
