data_functionalizedCrystal
_audit_creation_method	'MofGen! by Chris Wilmer'
_symmetry_space_group_name_H-M	'P1'
_symmetry_Int_Tables_number	1
_symmetry_cell_setting	triclinic
loop_
_symmetry_equiv_pos_as_xyz
  x,y,z
_cell_length_a	19.121063
_cell_length_b	19.121414
_cell_length_c	12.759393
_cell_angle_alpha	87.585042
_cell_angle_beta	87.597083
_cell_angle_gamma	94.802198
loop_
_atom_site_label
_atom_site_type_symbol
_atom_site_fract_x
_atom_site_fract_y
_atom_site_fract_z
Zn1	Zn	-0.234201	1.063724	0.541238
Zn2	Zn	-0.351888	1.058606	0.373372
Zn3	Zn	-0.239256	0.946055	0.373382
Zn4	Zn	-0.356850	0.941004	0.556808
O5	O	-0.295549	1.002347	0.461200
O6	O	-0.245621	1.161507	0.512450
O7	O	-0.336987	1.043648	0.226357
O8	O	-0.140120	0.965919	0.389136
O9	O	-0.332085	1.157747	0.389120
O10	O	-0.136406	1.052370	0.512459
O11	O	-0.254237	0.960957	0.226364
O12	O	-0.259048	0.846923	0.404234
O13	O	-0.340541	0.957311	0.701760
O14	O	-0.345443	0.843212	0.538997
O15	O	-0.250432	1.047473	0.690320
O16	O	-0.451012	1.038751	0.404218
O17	O	-0.454657	0.952349	0.538987
C18	C	-0.303333	0.819537	0.473307
C19	C	-0.306680	0.741330	0.478512
C20	C	-0.263203	0.706502	0.410900
C21	C	-0.266354	0.633017	0.415791
C22	C	-0.312978	0.594362	0.488300
C23	C	-0.356460	0.629195	0.555915
C24	C	-0.353312	0.702678	0.551018
C25	C	-0.324739	0.372394	0.506586
C26	C	-0.327882	0.298906	0.511480
C27	C	-0.237777	0.302733	0.371354
C28	C	-0.234630	0.376218	0.366468
C29	C	-0.278114	0.411044	0.434079
C30	C	-0.316198	0.519249	0.493304
C31	C	-0.274897	0.486156	0.429070
C32	C	-0.478365	0.994466	0.473313
C33	C	-0.556572	0.991158	0.478525
C34	C	-0.591391	1.034625	0.410860
C35	C	-0.664874	1.031518	0.415769
C36	C	-0.703537	0.984942	0.488338
C37	C	-0.668713	0.941474	0.556010
C38	C	-0.595231	0.944584	0.551106
C39	C	-0.925502	0.973301	0.506658
C40	C	-0.998990	0.970193	0.511554
C41	C	-0.995145	1.060238	0.371314
C42	C	-0.921662	1.063341	0.366412
C43	C	-0.886844	1.019876	0.434088
C44	C	-0.778649	0.981764	0.493355
C45	C	-0.811733	1.023058	0.429075
C46	C	-0.112018	1.010279	0.449062
C47	C	-0.033808	1.013659	0.443889
C48	C	-0.295476	1.002400	0.735226
C49	C	-0.295445	1.002422	0.851999
C50	C	-0.287735	1.185871	0.449047
C51	C	-0.284406	1.264078	0.443868
C52	C	-0.295569	1.002338	0.188235
C53	C	-0.295396	1.002460	0.071440
C54	C	-0.248520	1.049375	0.900905
C55	C	-0.248494	1.049393	1.010627
C56	C	-0.342323	0.955502	1.022526
C57	C	-0.342345	0.955481	0.912807
C58	C	-0.194351	1.103585	0.894036
C59	C	-0.194325	1.103603	1.003758
H60	H	-0.230954	0.604663	0.360728
H61	H	-1.030467	0.932273	0.570667
F62	F	-0.399588	0.739744	0.622978
H63	H	-0.810137	0.943840	0.552439
F64	F	-0.225280	0.527297	0.351899
F65	F	-0.185001	0.417353	0.289301
H66	H	-0.225230	0.737970	0.351863
H67	H	-0.211679	1.154497	0.857865
F68	F	-0.191502	0.265663	0.299400
H69	H	-0.380506	0.917283	1.072049
H70	H	-0.365849	0.267435	0.570532
H71	H	-0.206595	1.157472	1.030891
H72	H	-0.360147	0.400741	0.561640
F73	F	-0.127772	1.080940	1.045473
F74	F	-0.123940	1.087584	0.851675
H75	H	-0.394426	0.597716	0.614949
F76	F	-0.365826	0.478102	0.570461
H77	H	-0.559916	1.072549	0.351762
H78	H	-0.693220	1.066912	0.360668
H79	H	-0.890183	1.101268	0.307320
H80	H	-1.023502	1.095626	0.316217
H81	H	-0.897159	0.937909	0.561760
H82	H	-0.700199	0.903553	0.615102
H83	H	-0.566882	0.909191	0.606207
H84	H	-0.380553	0.917245	0.872992
F85	F	-0.770584	1.072630	0.351849
