data_functionalizedCrystal
_audit_creation_method	'MofGen! by Chris Wilmer'
_symmetry_space_group_name_H-M	'P1'
_symmetry_Int_Tables_number	1
_symmetry_cell_setting	triclinic
loop_
_symmetry_equiv_pos_as_xyz
  x,y,z
_cell_length_a	16.109301
_cell_length_b	8.597275
_cell_length_c	15.186229
_cell_angle_alpha	97.699990
_cell_angle_beta	89.999362
_cell_angle_gamma	84.402384
loop_
_atom_site_label
_atom_site_type_symbol
_atom_site_fract_x
_atom_site_fract_y
_atom_site_fract_z
O1	O	1.104798	0.201729	-0.057864
O2	O	0.862944	0.226834	-0.055973
O3	O	0.988632	-0.014186	-0.074250
O4	O	0.979110	0.442750	-0.039586
O5	O	0.988623	-0.014190	0.072207
O6	O	0.862935	0.226831	0.090484
O7	O	1.104790	0.201726	0.088593
Zn8	Zn	0.983861	0.214278	0.112792
Zn9	Zn	0.983872	0.214282	-0.080171
O10	O	0.979101	0.442747	0.106871
C11	C	0.831956	0.225816	0.017177
C12	C	0.739636	0.222767	0.016940
C13	C	0.987606	-0.072659	-0.005460
C14	C	0.984550	-0.246884	-0.018683
C15	C	0.518487	0.358695	0.027262
C16	C	0.431743	0.355818	0.027050
C17	C	0.449253	0.069855	0.005352
C18	C	0.535996	0.072733	0.005571
C19	C	0.570610	0.217158	0.016522
C20	C	0.397123	0.211402	0.016091
C21	C	0.303071	0.208282	0.015860
C22	C	0.664668	0.220279	0.016755
C23	C	1.135777	0.202745	0.015442
C24	C	1.228098	0.205794	0.015672
C25	C	0.980128	0.501219	0.038078
C26	C	0.983183	0.675444	0.051295
N27	N	0.983859	0.214274	0.244484
N28	N	0.983880	0.214274	-0.211865
C29	C	1.039534	0.107586	0.462117
C30	C	1.039536	0.107582	0.554306
C31	C	0.928200	0.320967	0.570497
C32	C	0.928194	0.320962	0.478309
C33	C	0.983866	0.214273	0.424121
C34	C	0.983874	0.214275	0.608499
C35	C	0.983877	0.214271	0.708455
C36	C	0.983862	0.214274	0.324159
H37	H	0.546667	0.476295	0.036186
C38	C	1.100774	-0.009771	0.596103
C39	C	1.162016	-0.127107	0.536497
C40	C	1.223255	-0.244467	0.578294
C41	C	1.223254	-0.244491	0.679695
C42	C	1.162010	-0.127151	0.739306
C43	C	1.100771	-0.009791	0.697510
H44	H	1.162019	-0.127093	0.461429
H45	H	1.268592	-0.331330	0.534165
H46	H	1.268587	-0.331368	0.710635
H47	H	1.162007	-0.127165	0.814375
H48	H	1.055434	0.077072	0.741639
H49	H	1.084864	0.020711	0.417998
H50	H	0.882875	0.407833	0.614626
H51	H	0.421059	-0.047731	-0.003558
H52	H	0.882858	0.407841	0.447371
H53	H	0.389307	0.471072	0.035797
C54	C	0.593339	-0.082968	-0.006246
C55	C	0.555268	-0.241829	-0.018303
C56	C	0.612611	-0.397522	-0.030116
C57	C	0.708024	-0.394352	-0.029871
C58	C	0.746100	-0.235485	-0.017814
C59	C	0.688757	-0.079792	-0.006001
H60	H	0.484633	-0.244181	-0.018485
H61	H	0.584425	-0.515126	-0.039042
H62	H	0.750473	-0.509605	-0.038616
H63	H	0.816735	-0.233133	-0.017632
H64	H	0.716943	0.037812	0.002925
H65	H	0.983386	-0.313672	-0.088706
H66	H	0.984356	-0.257761	0.121324
