data_functionalizedCrystal
_audit_creation_method	'MofGen! by Chris Wilmer'
_symmetry_space_group_name_H-M	'P1'
_symmetry_Int_Tables_number	1
_symmetry_cell_setting	triclinic
loop_
_symmetry_equiv_pos_as_xyz
  x,y,z
_cell_length_a	14.044220
_cell_length_b	14.044220
_cell_length_c	7.540329
_cell_angle_alpha	90.001925
_cell_angle_beta	89.995368
_cell_angle_gamma	93.188878
loop_
_atom_site_label
_atom_site_type_symbol
_atom_site_fract_x
_atom_site_fract_y
_atom_site_fract_z
O1	O	0.230166	1.277166	-0.147301
O2	O	0.563499	1.610499	0.186032
O3	O	0.896833	1.943833	0.519366
O4	O	0.221860	1.000494	-0.147345
O5	O	0.555194	1.333828	0.185988
O6	O	0.888527	1.667161	0.519321
O7	O	0.087677	1.134677	-0.147306
O8	O	0.421011	1.468011	0.186027
O9	O	0.754344	1.801344	0.519360
O10	O	0.364349	1.142983	-0.147340
O11	O	0.697682	1.476316	0.185993
O12	O	1.031016	1.809650	0.519327
O13	O	0.087675	1.134668	0.147659
O14	O	0.421008	1.468002	0.480992
O15	O	0.754342	1.801335	0.814325
O16	O	0.221858	1.000486	0.147620
O17	O	0.555191	1.333819	0.480953
O18	O	0.888524	1.667152	0.814286
O19	O	0.230163	1.277157	0.147664
O20	O	0.563497	1.610490	0.480998
O21	O	0.896830	1.943824	0.814331
Cu22	Cu	0.226010	1.138820	0.174575
Cu23	Cu	0.559344	1.472154	0.507908
Cu24	Cu	0.892677	1.805487	0.841241
Cu25	Cu	0.226013	1.138831	-0.174256
Cu26	Cu	0.559347	1.472164	0.159078
Cu27	Cu	0.892680	1.805498	0.492411
O28	O	0.364346	1.142974	0.147625
O29	O	0.697680	1.476307	0.480958
O30	O	1.031013	1.809641	0.814292
C31	C	0.218223	0.964868	0.000131
C32	C	0.551557	1.298201	0.333465
C33	C	0.884890	1.631535	0.666798
C34	C	0.207379	0.858725	0.000115
C35	C	0.540712	1.192059	0.333448
C36	C	0.874045	1.525392	0.666782
C37	C	0.187553	0.664388	0.000153
C38	C	0.520886	0.997721	0.333486
C39	C	0.854219	1.331054	0.666819
C40	C	0.264467	0.613258	0.000151
C41	C	0.597800	0.946591	0.333484
C42	C	0.931134	1.279924	0.666817
C43	C	0.253435	0.505122	0.000172
C44	C	0.586769	0.838455	0.333505
C45	C	0.920102	1.171788	0.666838
C46	C	0.198583	0.772534	0.000132
C47	C	0.531916	1.105867	0.333465
C48	C	0.865249	1.439200	0.666798
C49	C	0.052054	1.131037	0.000176
C50	C	0.385388	1.464371	0.333510
C51	C	0.718721	1.797704	0.666843
C52	C	-0.054088	1.120193	0.000177
C53	C	0.279245	1.453526	0.333510
C54	C	0.612578	1.786859	0.666843
C55	C	-0.248426	1.100366	0.000148
C56	C	0.084907	1.433700	0.333481
C57	C	0.418241	1.767033	0.666815
C58	C	-0.299556	1.177281	0.000155
C59	C	0.033777	1.510614	0.333488
C60	C	0.367111	1.843947	0.666822
C61	C	-0.407692	1.166249	0.000139
C62	C	-0.074359	1.499583	0.333472
C63	C	0.258974	1.832916	0.666806
C64	C	-0.140280	1.111397	0.000164
C65	C	0.193053	1.444730	0.333497
C66	C	0.526387	1.778063	0.666831
C67	C	0.399969	1.146614	0.000138
C68	C	0.733303	1.479948	0.333472
C69	C	1.066636	1.813281	0.666805
C70	C	0.506112	1.157459	0.000126
C71	C	0.839446	1.490792	0.333460
C72	C	1.172779	1.824125	0.666793
C73	C	0.233800	1.312783	0.000183
C74	C	0.567134	1.646117	0.333517
C75	C	0.900467	1.979450	0.666850
C76	C	0.244645	1.418926	0.000188
C77	C	0.577978	1.752259	0.333522
C78	C	0.911312	2.085593	0.666855
N79	N	0.226008	1.138820	0.419923
N80	N	0.559342	1.472153	0.753256
N81	N	0.892675	1.805487	1.086590
N82	N	0.226009	1.138838	-0.419604
N83	N	0.559342	1.472172	-0.086271
N84	N	0.892675	1.805505	0.247062
H85	H	-0.285863	1.026239	0.000132
H86	H	0.047470	1.359572	0.333465
H87	H	0.380804	1.692906	0.666798
C88	C	0.364619	0.663828	0.000126
C89	C	0.697953	0.997161	0.333459
C90	C	1.031286	1.330494	0.666793
C91	C	0.375661	0.773535	0.000104
C92	C	0.708995	1.106868	0.333437
C93	C	1.042328	1.440202	0.666770
C94	C	0.475810	0.824109	0.000078
C95	C	0.809143	1.157443	0.333411
C96	C	1.142476	1.490776	0.666745
C97	C	0.564916	0.764976	0.000075
C98	C	0.898249	1.098310	0.333408
C99	C	1.231583	1.431643	0.666742
C100	C	0.553877	0.655263	0.000097
C101	C	0.887210	0.988596	0.333430
C102	C	1.220543	1.321929	0.666764
C103	C	0.453729	0.604688	0.000123
C104	C	0.787062	0.938022	0.333456
C105	C	1.120395	1.271355	0.666789
H106	H	0.309697	0.817314	0.000106
H107	H	0.643030	1.150648	0.333439
H108	H	0.976364	1.483981	0.666773
H109	H	0.483981	0.905327	0.000062
H110	H	0.817314	1.238660	0.333395
H111	H	1.150648	1.571993	0.666728
H112	H	0.639052	0.802414	0.000056
H113	H	0.972385	1.135748	0.333389
H114	H	1.305718	1.469081	0.666723
H115	H	0.619841	0.611483	0.000095
H116	H	0.953175	0.944816	0.333428
H117	H	1.286508	1.278150	0.666761
H118	H	0.445557	0.523471	0.000139
H119	H	0.778891	0.856804	0.333472
H120	H	1.112224	1.190137	0.666806
C121	C	0.087407	0.613818	0.000156
C122	C	0.420740	0.947151	0.333489
C123	C	0.754074	1.280485	0.666822
C124	C	0.076375	0.504110	0.000162
C125	C	0.409708	0.837443	0.333495
C126	C	0.743042	1.170777	0.666828
C127	C	-0.023769	0.453527	0.000155
C128	C	0.309564	0.786860	0.333488
C129	C	0.642898	1.120194	0.666822
C130	C	-0.112881	0.512652	0.000142
C131	C	0.220452	0.845985	0.333475
C132	C	0.553786	1.179318	0.666809
C133	C	-0.101852	0.622366	0.000136
C134	C	0.231481	0.955699	0.333469
C135	C	0.564815	1.289032	0.666803
C136	C	-0.001708	0.672949	0.000143
C137	C	0.331625	1.006282	0.333476
C138	C	0.664959	1.339616	0.666809
H139	H	0.142344	0.460337	0.000171
H140	H	0.475677	0.793670	0.333505
H141	H	0.809010	1.127004	0.666838
H142	H	-0.031933	0.372309	0.000159
H143	H	0.301400	0.705642	0.333493
H144	H	0.634734	1.038976	0.666826
H145	H	-0.187014	0.475207	0.000137
H146	H	0.146320	0.808540	0.333470
H147	H	0.479653	1.141874	0.666804
H148	H	-0.167821	0.666139	0.000126
H149	H	0.165513	0.999472	0.333460
H150	H	0.498846	1.332806	0.666793
H151	H	0.006456	0.754167	0.000138
H152	H	0.339789	1.087500	0.333471
H153	H	0.673123	1.420833	0.666805
H154	H	-0.262117	1.251414	0.000048
H155	H	0.071217	1.584748	0.333381
H156	H	0.404550	1.918081	0.666715
