data_functionalizedCrystal
_audit_creation_method	'MofGen! by Chris Wilmer'
_symmetry_space_group_name_H-M	'P1'
_symmetry_Int_Tables_number	1
_symmetry_cell_setting	triclinic
loop_
_symmetry_equiv_pos_as_xyz
  x,y,z
_cell_length_a	21.295418
_cell_length_b	21.295417
_cell_length_c	21.295420
_cell_angle_alpha	90.005898
_cell_angle_beta	90.036164
_cell_angle_gamma	90.045515
loop_
_atom_site_label
_atom_site_type_symbol
_atom_site_fract_x
_atom_site_fract_y
_atom_site_fract_z
Zn1	Zn	0.962312	-0.250507	0.356238
Zn2	Zn	1.462312	0.249493	0.856238
Zn3	Zn	0.962230	-0.355731	0.250965
Zn4	Zn	1.462230	0.144269	0.750965
Zn5	Zn	0.857049	-0.250509	0.250948
Zn6	Zn	1.357049	0.249491	0.750948
Zn7	Zn	0.857006	-0.355771	0.356162
Zn8	Zn	1.357006	0.144229	0.856162
O9	O	0.909649	-0.303130	0.303578
O10	O	1.409649	0.196870	0.803578
O11	O	1.050391	-0.264447	0.342313
O12	O	1.550391	0.235553	0.842313
O13	O	0.948261	-0.341758	0.162874
O14	O	1.448261	0.158242	0.662874
O15	O	0.871065	-0.162419	0.264939
O16	O	1.371065	0.337581	0.764939
O17	O	1.050330	-0.341756	0.264969
O18	O	1.550330	0.158244	0.764969
O19	O	0.948401	-0.162418	0.342296
O20	O	1.448401	0.337582	0.842296
O21	O	0.870985	-0.264452	0.162861
O22	O	1.370985	0.235548	0.662861
O23	O	0.768954	-0.264490	0.264865
O24	O	1.268954	0.235510	0.764865
O25	O	0.870992	-0.341823	0.444261
O26	O	1.370992	0.158177	0.944261
O27	O	0.768923	-0.341825	0.342166
O28	O	1.268923	0.158175	0.842166
O29	O	0.948359	-0.264486	0.444317
O30	O	1.448359	0.235514	0.944317
O31	O	0.948219	-0.443826	0.264895
O32	O	1.448219	0.056174	0.764895
O33	O	0.870912	-0.443855	0.342183
O34	O	1.370912	0.056145	0.842183
C35	C	0.746098	-0.303163	0.303506
C36	C	1.246098	0.196837	0.803506
C37	C	0.676130	-0.303192	0.303490
C38	C	1.176130	0.196808	0.803490
C39	C	0.643263	-0.343514	0.343680
C40	C	1.143263	0.156486	0.843680
C41	C	0.577520	-0.343498	0.343708
C42	C	1.077520	0.156502	0.843708
C43	C	0.544647	-0.303168	0.303535
C44	C	1.044647	0.196832	0.803535
C45	C	0.577522	-0.262838	0.263342
C46	C	1.077522	0.237162	0.763342
C47	C	0.643263	-0.262850	0.263319
C48	C	1.143263	0.237150	0.763319
N49	N	0.441378	-0.298226	0.248477
N50	N	0.941378	0.201774	0.748477
N51	N	0.378927	-0.298218	0.248501
N52	N	0.878927	0.201782	0.748501
C53	C	0.346572	-0.303127	0.303602
C54	C	0.846572	0.196873	0.803602
N55	N	0.379029	-0.308057	0.358680
N56	N	0.879029	0.191943	0.858680
N57	N	0.441486	-0.308068	0.358656
N58	N	0.941486	0.191932	0.858656
C59	C	0.473362	-0.303150	0.303555
C60	C	0.973362	0.196850	0.803555
C61	C	0.242420	-0.343435	0.343826
C62	C	0.742420	0.156565	0.843826
C63	C	0.176677	-0.343415	0.343855
C64	C	0.676677	0.156585	0.843855
C65	C	0.176679	-0.262758	0.263484
C66	C	0.676679	0.237242	0.763484
C67	C	0.242422	-0.262774	0.263460
C68	C	0.742422	0.237226	0.763460
C69	C	0.275288	-0.303116	0.303630
C70	C	0.775288	0.196884	0.803630
C71	C	0.909569	-0.466681	0.303546
C72	C	1.409569	0.033319	0.803546
C73	C	0.909592	-0.536649	0.303554
C74	C	1.409592	-0.036649	0.803554
C75	C	0.949838	-0.569458	0.343862
C76	C	1.449838	-0.069458	0.843862
C77	C	0.949861	-0.635200	0.343877
C78	C	1.449861	-0.135200	0.843877
C79	C	0.909643	-0.668132	0.303574
C80	C	1.409643	-0.168132	0.803574
C81	C	0.869390	-0.635315	0.263263
C82	C	1.369390	-0.135315	0.763263
C83	C	0.869364	-0.569574	0.263253
C84	C	1.369364	-0.069574	0.763253
N85	N	0.904891	-0.771371	0.248481
N86	N	1.404891	-0.271371	0.748481
N87	N	0.904919	-0.833823	0.248492
N88	N	1.404919	-0.333823	0.748492
C89	C	0.909717	-0.866206	0.303602
C90	C	1.409717	-0.366206	0.803602
N91	N	0.914498	-0.833780	0.358701
N92	N	1.414498	-0.333780	0.858701
N93	N	0.914473	-0.771322	0.358690
N94	N	1.414473	-0.271322	0.858690
C95	C	0.909666	-0.739417	0.303580
C96	C	1.409666	-0.239417	0.803580
C97	C	0.949989	-0.970301	0.343930
C98	C	1.449989	-0.470301	0.843930
C99	C	0.950007	-1.036044	0.343947
C100	C	1.450007	-0.536044	0.843947
C101	C	0.869539	-1.036158	0.263327
C102	C	1.369539	-0.536158	0.763327
C103	C	0.869518	-0.970415	0.263316
C104	C	1.369518	-0.470415	0.763316
C105	C	0.909747	-0.937491	0.303617
C106	C	1.409747	-0.437491	0.803617
C107	C	1.073840	-0.303097	0.303651
C108	C	1.573840	0.196903	0.803651
C109	C	1.143808	-0.303083	0.303683
C110	C	1.643808	0.196917	0.803683
C111	C	0.909680	-0.303158	0.467768
C112	C	1.409680	0.196842	0.967768
C113	C	0.909693	-0.303171	0.537737
C114	C	1.409693	0.196829	1.037737
C115	C	0.909747	-0.138939	0.303624
C116	C	1.409747	0.361061	0.803624
C117	C	0.909789	-0.068971	0.303644
C118	C	1.409789	0.431029	0.803644
C119	C	0.949972	-0.262908	0.570633
C120	C	1.449972	0.237092	1.070633
C121	C	0.949963	-0.262897	0.636376
C122	C	1.449963	0.237103	1.136376
C123	C	0.909680	-0.303161	0.669219
C124	C	1.409680	0.196839	1.169219
C125	C	0.869393	-0.343427	0.636314
C126	C	1.369393	0.156573	1.136314
C127	C	0.869399	-0.343432	0.570573
C128	C	1.369399	0.156568	1.070573
N129	N	0.904811	-0.358257	0.772434
N130	N	1.404811	0.141743	1.272434
N131	N	0.904809	-0.358250	0.834885
N132	N	1.404809	0.141750	1.334885
C133	C	0.909658	-0.303148	0.867294
C134	C	1.409658	0.196852	1.367294
N135	N	0.914522	-0.248051	0.834892
N136	N	1.414522	0.251949	1.334892
N137	N	0.914528	-0.248058	0.772435
N138	N	1.414528	0.251942	1.272435
C139	C	0.909669	-0.303160	0.740504
C140	C	1.409669	0.196840	1.240504
C141	C	0.949929	-0.262871	0.971476
C142	C	1.449929	0.237129	1.471476
C143	C	0.949915	-0.262859	1.037220
C144	C	1.449915	0.237141	1.537220
C145	C	0.869349	-0.343394	1.037157
C146	C	1.369349	0.156606	1.537157
C147	C	0.869360	-0.343400	0.971415
C148	C	1.369360	0.156600	1.471415
C149	C	0.909653	-0.303139	0.938578
C150	C	1.409653	0.196861	1.438578
C151	C	0.909622	-0.303120	1.140027
C152	C	1.409622	0.196880	1.640027
C153	C	0.909632	-0.303122	1.070059
C154	C	1.409632	0.196878	1.570059
H155	H	0.670023	-0.230013	0.230592
H156	H	1.170023	0.269987	0.730592
H157	H	0.550755	-0.376333	0.376438
H158	H	1.050755	0.123667	0.876438
H159	H	0.670019	-0.376362	0.376390
H160	H	1.170019	0.123638	0.876390
H161	H	0.269182	-0.376280	0.376538
H162	H	0.769182	0.123720	0.876538
H163	H	0.836596	-0.376218	0.543789
H164	H	1.336596	0.123782	1.043789
H165	H	0.836564	-0.376190	0.944630
H166	H	1.336564	0.123810	1.444630
H167	H	0.550752	-0.229999	0.230634
H168	H	1.050752	0.270001	0.730634
H169	H	0.982593	-0.542652	0.376679
H170	H	1.482593	-0.042652	0.876679
H171	H	0.982782	-0.230123	0.543902
H172	H	1.482782	0.269877	1.043902
H173	H	0.836590	-0.542861	0.230428
H174	H	1.336590	-0.042861	0.730428
H175	H	0.982735	-0.230084	0.944739
H176	H	1.482735	0.269916	1.444739
H177	H	0.982715	-0.230069	1.064003
H178	H	1.482715	0.269931	1.564003
C179	C	0.140523	-0.387780	0.388065
C180	C	0.640523	0.112220	0.888065
N181	N	0.113292	-0.421199	0.421361
N182	N	0.613292	0.078801	0.921361
H183	H	0.836544	-0.376171	1.063897
H184	H	1.336544	0.123829	1.563897
C185	C	0.278576	-0.218422	0.219241
C186	C	0.778576	0.281578	0.719241
N187	N	0.305808	-0.185013	0.185934
N188	N	0.805808	0.314987	0.685934
C189	C	0.994279	-0.218607	0.672570
C190	C	1.494279	0.281393	1.172570
N191	N	1.027659	-0.185249	0.699829
N192	N	1.527659	0.314751	1.199829
H193	H	0.836593	-0.376208	0.663059
H194	H	1.336593	0.123792	1.163059
H195	H	0.149914	-0.229917	0.230777
H196	H	0.649914	0.270083	0.730777
H197	H	0.982628	-0.661918	0.376709
H198	H	1.482628	-0.161918	0.876709
H199	H	0.982743	-0.943492	0.376748
H200	H	1.482743	-0.443492	0.876748
C201	C	0.825175	-0.671541	0.218904
C202	C	1.325175	-0.171541	0.718904
N203	N	0.791879	-0.698826	0.185484
N204	N	1.291879	-0.198826	0.685484
H205	H	0.982780	-1.062756	0.376774
H206	H	1.482780	-0.562756	0.876774
H207	H	0.836790	-1.062970	0.230514
H208	H	1.336790	-0.562970	0.730514
H209	H	0.836749	-0.943701	0.230490
H210	H	1.336749	-0.443701	0.730490
