data_functionalizedCrystal
_audit_creation_method	'MofGen! by Chris Wilmer'
_symmetry_space_group_name_H-M	'P1'
_symmetry_Int_Tables_number	1
_symmetry_cell_setting	triclinic
loop_
_symmetry_equiv_pos_as_xyz
  x,y,z
_cell_length_a	23.532407
_cell_length_b	15.944551
_cell_length_c	15.021413
_cell_angle_alpha	89.996935
_cell_angle_beta	89.998075
_cell_angle_gamma	96.826292
loop_
_atom_site_label
_atom_site_type_symbol
_atom_site_fract_x
_atom_site_fract_y
_atom_site_fract_z
O1	O	0.755658	-0.101953	-0.073923
O2	O	0.589851	-0.116707	-0.073949
O3	O	0.677282	0.012983	-0.073927
O4	O	0.668227	-0.231643	-0.073945
O5	O	0.677268	0.012965	0.074137
O6	O	0.589838	-0.116725	0.074115
O7	O	0.755644	-0.101972	0.074141
Zn8	Zn	0.672738	-0.109351	0.097636
Zn9	Zn	0.672757	-0.109327	-0.097444
O10	O	0.668213	-0.231661	0.074119
C11	C	0.568627	-0.116340	0.000080
C12	C	0.505406	-0.115211	0.000070
C13	C	0.676899	0.044265	0.000105
C14	C	0.675772	0.137501	0.000105
C15	C	0.668596	-0.262943	0.000085
C16	C	0.669723	-0.356179	0.000079
C17	C	0.106572	-0.184874	0.000105
C18	C	0.047168	-0.183824	0.000111
O19	O	0.010674	-0.248403	0.000138
N20	N	0.024243	-0.106724	0.000115
C21	C	0.060726	-0.030668	0.000122
O22	O	0.035772	0.035009	0.000127
C23	C	0.120129	-0.031718	0.000123
C24	C	0.143051	-0.108823	0.000110
C25	C	0.129494	-0.261973	0.000093
C26	C	0.188894	-0.263022	0.000086
C27	C	0.225373	-0.186971	0.000091
C28	C	0.202451	-0.109872	0.000103
C29	C	0.156611	0.044337	0.000137
C30	C	0.216018	0.043281	0.000138
C31	C	0.238939	-0.033825	0.000125
C32	C	0.298329	-0.034871	0.000100
N33	N	0.321254	-0.111971	0.000096
C34	C	0.284776	-0.188022	0.000092
C35	C	-0.064025	-0.028468	0.000122
C36	C	-0.123427	-0.027417	0.000115
C37	C	-0.136981	-0.180574	0.000105
C38	C	-0.077578	-0.181624	0.000106
C39	C	-0.041100	-0.105569	0.000118
C40	C	0.409521	-0.190219	0.000076
C41	C	0.468927	-0.191261	0.000065
C42	C	0.482476	-0.038104	0.000079
C43	C	0.423075	-0.037062	0.000086
C44	C	0.386599	-0.113126	0.000087
O45	O	0.334859	0.029673	0.000076
O46	O	0.309738	-0.253687	0.000098
C47	C	0.776868	-0.102338	0.000111
C48	C	0.840090	-0.103468	0.000115
N49	N	0.672730	-0.109367	0.230774
C50	C	0.618885	0.351879	0.000084
C51	C	0.645295	0.413109	0.073093
C52	C	0.673733	0.308210	0.000098
C53	C	0.645321	0.413111	-0.072887
C54	C	0.671760	0.473106	0.000087
C55	C	0.700158	0.368212	0.073167
C56	C	0.700177	0.368208	-0.072878
C57	C	0.726627	0.429421	0.000148
C58	C	0.674869	0.213217	0.000105
C59	C	0.670629	0.568097	0.000087
N60	N	0.672770	-0.109304	-0.230582
C61	C	0.632296	-0.169308	0.470447
C62	C	0.683757	-0.185181	0.529789
C63	C	0.672745	-0.109346	0.412381
C64	C	0.621298	-0.093492	0.529781
C65	C	0.672754	-0.109328	0.587805
C66	C	0.724232	-0.125257	0.470416
C67	C	0.661739	-0.033535	0.470403
C68	C	0.713237	-0.049376	0.529718
C69	C	0.672738	-0.109359	0.311324
C70	C	0.672766	-0.109314	0.688860
H71	H	0.487586	-0.254052	0.000054
H72	H	0.767753	-0.138736	0.444449
H73	H	0.772194	0.462964	0.000197
Cl74	Cl	0.548595	0.299861	0.000179
H75	H	0.598124	-0.220056	0.444423
H76	H	0.723362	0.348281	-0.134597
Cl77	Cl	0.609470	0.443842	0.168378
Cl78	Cl	0.609498	0.443840	-0.168176
H79	H	0.693074	-0.249285	0.555873
H80	H	0.723332	0.348410	0.134958
Cl81	Cl	0.766110	0.028929	0.569654
Cl82	Cl	0.647328	0.065406	0.430095
Cl83	Cl	-0.152234	0.069520	0.000109
H84	H	0.577786	-0.080090	0.555861
H85	H	0.207551	-0.325809	0.000075
Cl86	Cl	0.083645	-0.357593	0.000084
Cl87	Cl	-0.048769	-0.278560	0.000092
Cl88	Cl	-0.182851	-0.276181	0.000104
Cl89	Cl	0.363674	-0.285843	0.000076
H90	H	0.137960	0.107125	0.000148
Cl91	Cl	0.261872	0.138900	0.000155
Cl92	Cl	0.394259	0.059872	0.000106
Cl93	Cl	-0.018172	0.067155	0.000127
H94	H	0.512187	0.023814	0.000080
