data_functionalizedCrystal
_audit_creation_method	'MofGen! by Chris Wilmer'
_symmetry_space_group_name_H-M	'P1'
_symmetry_Int_Tables_number	1
_symmetry_cell_setting	triclinic
loop_
_symmetry_equiv_pos_as_xyz
  x,y,z
_cell_length_a	12.759401
_cell_length_b	19.805405
_cell_length_c	19.805399
_cell_angle_alpha	89.969291
_cell_angle_beta	89.987249
_cell_angle_gamma	90.026572
loop_
_atom_site_label
_atom_site_type_symbol
_atom_site_fract_x
_atom_site_fract_y
_atom_site_fract_z
Zn1	Zn	1.606110	-0.269467	-0.382637
Zn2	Zn	2.106110	0.230533	0.117363
Zn3	Zn	1.605986	-0.382658	-0.269445
Zn4	Zn	2.105986	0.117342	0.230555
Zn5	Zn	1.430430	-0.269488	-0.269470
Zn6	Zn	1.930430	0.230512	0.230530
Zn7	Zn	1.430365	-0.382619	-0.382600
Zn8	Zn	1.930365	0.117381	0.117400
O9	O	1.518223	-0.326058	-0.326038
O10	O	2.018223	0.173942	0.173962
O11	O	1.753115	-0.284489	-0.367627
O12	O	2.253115	0.215511	0.132373
O13	O	1.582674	-0.367671	-0.174732
O14	O	2.082674	0.132329	0.325268
O15	O	1.453813	-0.174769	-0.284507
O16	O	1.953813	0.325231	0.215493
O17	O	1.753024	-0.367650	-0.284465
O18	O	2.253024	0.132350	0.215535
O19	O	1.582885	-0.174753	-0.367651
O20	O	2.082885	0.325247	0.132349
O21	O	1.453693	-0.284526	-0.174750
O22	O	1.953693	0.215474	0.325250
O23	O	1.283400	-0.284488	-0.284471
O24	O	1.783400	0.215512	0.215529
O25	O	1.453703	-0.367584	-0.477322
O26	O	1.953703	0.132416	0.022678
O27	O	1.283353	-0.367605	-0.367588
O28	O	1.783353	0.132395	0.132412
O29	O	1.582822	-0.284451	-0.477349
O30	O	2.082822	0.215549	0.022651
O31	O	1.582611	-0.477369	-0.284430
O32	O	2.082611	0.022631	0.215570
O33	O	1.453583	-0.477341	-0.367564
O34	O	1.953583	0.022659	0.132436
C35	C	1.245256	-0.326046	-0.326029
C36	C	1.745256	0.173954	0.173971
C37	C	1.128479	-0.326057	-0.326041
C38	C	1.628479	0.173943	0.173959
C39	C	1.073620	-0.369405	-0.369248
C40	C	1.573620	0.130595	0.130752
C41	C	0.963895	-0.369413	-0.369255
C42	C	1.463895	0.130587	0.130745
C43	C	0.963900	-0.282724	-0.282843
C44	C	1.463900	0.217276	0.217157
C45	C	1.073622	-0.282712	-0.282839
C46	C	1.573622	0.217288	0.217161
C47	C	1.073616	-0.419456	-0.419136
C48	C	1.573616	0.080544	0.080864
C49	C	0.963892	-0.419465	-0.419143
C50	C	1.463892	0.080535	0.080857
C51	C	1.518105	-0.501914	-0.326005
C52	C	2.018105	-0.001914	0.173995
C53	C	1.518150	-0.577146	-0.326014
C54	C	2.018150	-0.077146	0.173986
C55	C	1.585400	-0.612482	-0.282771
C56	C	2.085400	-0.112482	0.217229
C57	C	1.585445	-0.683171	-0.282786
C58	C	2.085445	-0.183171	0.217214
C59	C	1.518233	-0.718522	-0.326041
C60	C	2.018233	-0.218522	0.173959
C61	C	1.450980	-0.683180	-0.369288
C62	C	1.950980	-0.183180	0.130712
C63	C	1.450942	-0.612493	-0.369276
C64	C	1.950942	-0.112493	0.130724
C65	C	1.451135	-0.968253	-0.369339
C66	C	1.951135	-0.468253	0.130661
C67	C	1.451177	-1.038946	-0.369346
C68	C	1.951177	-0.538946	0.130654
C69	C	1.585639	-1.038931	-0.282848
C70	C	2.085639	-0.538931	0.217152
C71	C	1.585600	-0.968244	-0.282836
C72	C	2.085600	-0.468244	0.217164
C73	C	1.518351	-0.932909	-0.326086
C74	C	2.018351	-0.432909	0.173914
C75	C	1.518305	-0.856261	-0.326070
C76	C	2.018305	-0.356261	0.173930
C77	C	1.518273	-0.795169	-0.326054
C78	C	2.018273	-0.295169	0.173946
C79	C	1.792256	-0.326071	-0.326048
C80	C	2.292256	0.173929	0.173952
C81	C	1.909033	-0.326077	-0.326052
C82	C	2.409033	0.173923	0.173948
C83	C	1.518269	-0.326011	-0.502581
C84	C	2.018269	0.173989	-0.002581
C85	C	1.518289	-0.325991	-0.577813
C86	C	2.018289	0.174009	-0.077813
C87	C	1.518370	-0.149515	-0.326086
C88	C	2.018370	0.350485	0.173914
C89	C	1.518433	-0.074283	-0.326106
C90	C	2.018433	0.425717	0.173894
C91	C	1.451148	-0.282693	-0.613166
C92	C	1.951148	0.217307	-0.113166
C93	C	1.451162	-0.282680	-0.683854
C94	C	1.951162	0.217320	-0.183854
C95	C	1.518324	-0.325962	-0.719188
C96	C	2.018324	0.174038	-0.219188
C97	C	1.585468	-0.369264	-0.683831
C98	C	2.085468	0.130736	-0.183831
C99	C	1.585447	-0.369280	-0.613143
C100	C	2.085447	0.130720	-0.113143
C101	C	1.585551	-0.369201	-0.968904
C102	C	2.085551	0.130799	-0.468904
C103	C	1.585569	-0.369180	-1.039596
C104	C	2.085569	0.130820	-0.539596
C105	C	1.451266	-0.282601	-1.039615
C106	C	1.951266	0.217399	-0.539615
C107	C	1.451245	-0.282617	-0.968928
C108	C	1.951245	0.217383	-0.468928
C109	C	1.518385	-0.325922	-0.933576
C110	C	2.018385	0.174078	-0.433576
C111	C	1.518367	-0.325936	-0.856927
C112	C	2.018367	0.174064	-0.356927
C113	C	1.518348	-0.325944	-0.795836
C114	C	2.018348	0.174056	-0.295836
C115	C	1.518237	-0.326056	-0.150182
C116	C	2.018237	0.173944	0.349818
C117	C	1.518421	-0.325885	-0.074950
C118	C	2.018421	0.174115	0.425050
H119	H	0.929893	-0.400760	-0.468978
H120	H	1.429893	0.099240	0.031022
H121	H	1.396463	-0.247444	-0.584402
H122	H	1.896463	0.252556	-0.084402
H123	H	1.396594	-0.247342	-1.068407
H124	H	1.896594	0.252658	-0.568407
O125	O	1.132797	-0.235966	-0.236230
O126	O	1.632797	0.264034	0.263770
H127	H	1.076215	-0.205839	-0.206183
H128	H	1.576215	0.294161	0.293817
H129	H	1.396446	-1.067726	-0.404574
H130	H	1.896446	-0.567726	0.095426
H131	H	0.934082	-0.471872	-0.405008
H132	H	1.434082	0.028128	0.094992
H133	H	1.640262	-0.404428	-1.068363
H134	H	2.140262	0.095572	-0.568363
O135	O	0.904741	-0.235976	-0.236243
O136	O	1.404741	0.264024	0.263757
H137	H	0.925785	-0.247513	-0.183101
H138	H	1.425785	0.252487	0.316899
O139	O	1.378393	-0.574380	-0.415911
O140	O	1.878393	-0.074380	0.084089
H141	H	1.396355	-0.587905	-0.469045
H142	H	1.896355	-0.087905	0.030955
H143	H	1.396485	-0.247425	-0.712636
H144	H	1.896485	0.252575	-0.212636
H145	H	1.103421	-0.405483	-0.471583
H146	H	1.603421	0.094517	0.028417
H147	H	1.107617	-0.469223	-0.400264
H148	H	1.607617	0.030777	0.099736
O149	O	1.378808	-0.235934	-0.930817
O150	O	1.878808	0.264066	-0.430817
H151	H	1.425856	-0.201505	-0.898629
H152	H	1.925856	0.298495	-0.398629
H153	H	1.640127	-0.583704	-0.247545
H154	H	2.140127	-0.083704	0.252455
H155	H	1.640206	-0.711939	-0.247573
H156	H	2.140206	-0.211939	0.252427
O157	O	1.658098	-0.930114	-0.236188
O158	O	2.158098	-0.430114	0.263812
H159	H	1.704879	-0.966562	-0.206125
H160	H	2.204879	-0.466562	0.293875
O161	O	1.657988	-0.415889	-0.930778
O162	O	2.157988	0.084111	-0.430778
H163	H	1.704707	-0.445970	-0.967226
H164	H	2.204707	0.054030	-0.467226
O165	O	1.658206	-1.077041	-0.236216
O166	O	2.158206	-0.577041	0.263784
H167	H	1.646962	-1.132134	-0.243499
H168	H	2.146962	-0.632134	0.256501
H169	H	1.396377	-0.939489	-0.404553
H170	H	1.896377	-0.439489	0.095447
O171	O	1.378472	-0.721303	-0.415936
O172	O	1.878472	-0.221303	0.084064
H173	H	1.389783	-0.776394	-0.408673
H174	H	1.889783	-0.276394	0.091327
H175	H	1.640146	-0.404508	-0.712605
H176	H	2.140146	0.095492	-0.212605
H177	H	1.640128	-0.404533	-0.584360
H178	H	2.140128	0.095467	-0.084360
