data_functionalizedCrystal
_audit_creation_method	'MofGen! by Chris Wilmer'
_symmetry_space_group_name_H-M	'P1'
_symmetry_Int_Tables_number	1
_symmetry_cell_setting	triclinic
loop_
_symmetry_equiv_pos_as_xyz
  x,y,z
_cell_length_a	9.065215
_cell_length_b	19.188924
_cell_length_c	7.540329
_cell_angle_alpha	89.994348
_cell_angle_beta	89.997574
_cell_angle_gamma	84.078331
loop_
_atom_site_label
_atom_site_type_symbol
_atom_site_fract_x
_atom_site_fract_y
_atom_site_fract_z
O1	O	1.956844	0.102360	-0.147471
O2	O	1.527267	0.110759	-0.147480
O3	O	1.754458	0.005000	-0.147455
O4	O	1.729654	0.208119	-0.147497
O5	O	1.754444	0.004999	0.147510
O6	O	1.527254	0.110758	0.147485
O7	O	1.956831	0.102359	0.147494
Cu8	Cu	1.742041	0.106558	0.174422
Cu9	Cu	1.742057	0.106560	-0.174408
O10	O	1.729640	0.208118	0.147468
C11	C	1.472302	0.109952	0.000001
C12	C	1.308542	0.107540	-0.000001
C13	C	1.753649	-0.021018	0.000029
C14	C	1.751243	-0.098542	0.000034
C15	C	1.750128	-0.134948	-0.160752
C16	C	1.747846	-0.207789	-0.160765
C17	C	1.746710	-0.244221	0.000016
C18	C	1.747817	-0.207805	0.160823
C19	C	1.750084	-0.134965	0.160832
N20	N	1.827095	-0.363261	0.119684
N21	N	1.824945	-0.432456	0.119664
C22	C	1.739876	-0.463683	-0.000001
N23	N	1.657058	-0.423103	-0.119673
N24	N	1.659215	-0.353902	-0.119659
C25	C	1.744251	-0.323204	0.000024
C26	C	1.736284	-0.579072	-0.160813
C27	C	1.733993	-0.651913	-0.160819
C28	C	1.733979	-0.651929	0.160774
C29	C	1.736256	-0.579088	0.160776
C30	C	1.737415	-0.542665	-0.000022
C31	C	2.011796	0.103166	0.000008
C32	C	2.175556	0.105578	-0.000001
C33	C	1.730449	0.234136	-0.000020
C34	C	1.732855	0.311659	-0.000036
N35	N	1.742041	0.106557	0.419770
N36	N	1.742069	0.106556	-0.419757
H37	H	1.746928	-0.237437	-0.291701
H38	H	1.737176	-0.549446	0.291706
O39	O	1.737691	-0.543678	-0.316969
C40	C	1.866743	-0.508648	-0.326545
H41	H	1.955304	-0.535568	-0.235261
H42	H	1.839597	-0.451835	-0.283379
C43	C	1.815976	-0.477699	-0.630742
C44	C	1.924754	-0.510767	-0.518636
H45	H	1.851758	-0.479002	-0.749233
H46	H	1.729028	-0.501297	-0.624290
H47	H	1.793365	-0.430357	-0.594749
H48	H	1.947350	-0.558109	-0.554616
H49	H	2.011707	-0.487177	-0.525099
O50	O	1.750884	-0.099507	-0.316887
C51	C	1.624350	-0.050334	-0.326415
H52	H	1.582244	-0.037033	-0.186766
H53	H	1.533990	-0.073493	-0.405547
C54	C	1.716787	0.000361	-0.590093
C55	C	1.665079	0.016702	-0.418573
H56	H	1.741907	0.041711	-0.646947
H57	H	1.802033	-0.032770	-0.583679
H58	H	1.641478	-0.018939	-0.656013
H59	H	1.740394	0.035994	-0.352650
H60	H	1.579846	0.049838	-0.424978
O61	O	1.746512	-0.243257	0.316896
C62	C	1.617447	-0.278275	0.326522
H63	H	1.574535	-0.286814	0.186913
H64	H	1.528866	-0.245234	0.405862
C65	C	1.706793	-0.339139	0.589920
C66	C	1.654096	-0.349632	0.418449
H67	H	1.729396	-0.383154	0.646632
H68	H	1.793745	-0.315545	0.583440
H69	H	1.632967	-0.311603	0.656015
H70	H	1.727928	-0.377161	0.352351
H71	H	1.567157	-0.373233	0.424920
O72	O	1.732726	-0.687191	-0.317133
C73	C	1.605547	-0.662295	-0.414964
H74	H	1.564595	-0.607045	-0.369240
H75	H	1.514821	-0.698320	-0.392713
C76	C	1.694798	-0.728932	-0.669810
C77	C	1.644507	-0.661070	-0.613662
H78	H	1.718827	-0.728179	-0.792377
H79	H	1.780478	-0.745707	-0.603899
H80	H	1.619185	-0.758945	-0.651253
H81	H	1.720127	-0.631060	-0.632199
H82	H	1.558840	-0.644289	-0.679581
H83	H	1.750986	-0.105323	0.291768
H84	H	1.733043	-0.681591	0.291685
