data_functionalizedCrystal
_audit_creation_method	'MofGen! by Chris Wilmer'
_symmetry_space_group_name_H-M	'P1'
_symmetry_Int_Tables_number	1
_symmetry_cell_setting	triclinic
loop_
_symmetry_equiv_pos_as_xyz
  x,y,z
_cell_length_a	15.297475
_cell_length_b	17.640280
_cell_length_c	15.296720
_cell_angle_alpha	89.704419
_cell_angle_beta	88.382886
_cell_angle_gamma	67.467946
loop_
_atom_site_label
_atom_site_type_symbol
_atom_site_fract_x
_atom_site_fract_y
_atom_site_fract_z
Zn1	Zn	1.417125	-0.622537	0.611407
Zn2	Zn	1.472679	-0.737717	0.443610
Zn3	Zn	1.284185	-0.577601	0.447963
Zn4	Zn	1.298838	-0.729855	0.566194
O5	O	1.368207	-0.666928	0.517293
O6	O	1.552884	-0.659913	0.606249
O7	O	1.464792	-0.700962	0.324484
O8	O	1.272438	-0.471640	0.490387
O9	O	1.593699	-0.744535	0.482969
O10	O	1.370108	-0.504655	0.610469
O11	O	1.326306	-0.583325	0.327682
O12	O	1.157739	-0.575701	0.446546
O13	O	1.297411	-0.731134	0.691895
O14	O	1.168505	-0.687561	0.533410
O15	O	1.384317	-0.652289	0.725113
O16	O	1.479001	-0.848596	0.439128
O17	O	1.351280	-0.842819	0.529189
C18	C	1.129832	-0.625902	0.485544
C19	C	1.027857	-0.608374	0.471978
C20	C	0.763060	-0.792215	0.614251
C21	C	0.858873	-0.808690	0.626993
C22	C	0.901123	-0.758612	0.588241
C23	C	0.847552	-0.692057	0.536744
C24	C	0.751731	-0.675584	0.523995
C25	C	0.889795	-0.641981	0.497984
C26	C	0.836223	-0.575426	0.446487
C27	C	0.740412	-0.558956	0.433741
C28	C	0.698161	-0.609034	0.472493
C29	C	0.985615	-0.658454	0.510734
C30	C	0.974287	-0.541823	0.420477
C31	C	0.878474	-0.525349	0.407735
C32	C	1.422781	-0.874735	0.478802
C33	C	1.446208	-0.963653	0.462375
C34	C	1.190566	-1.241111	0.642449
C35	C	1.212585	-1.324661	0.626986
C36	C	1.345637	-1.330638	0.533325
C37	C	1.323632	-1.247088	0.548783
C38	C	1.246095	-1.202331	0.603345
C39	C	1.379161	-1.208307	0.509680
C40	C	1.357155	-1.124764	0.525133
C41	C	1.279619	-1.080001	0.579690
C42	C	1.224088	-1.118787	0.618798
C43	C	1.456695	-1.253065	0.455113
C44	C	1.512223	-1.214284	0.416010
C45	C	1.490221	-1.130740	0.431468
C46	C	1.412686	-1.085977	0.486025
C47	C	1.545752	-1.091954	0.392360
C48	C	1.523746	-1.008410	0.407814
C49	C	1.390679	-1.002434	0.501479
C50	C	1.607512	-0.708114	0.549167
C51	C	1.709490	-0.725665	0.562750
C52	C	1.336302	-0.695847	0.740410
C53	C	1.322705	-0.708171	0.835489
C54	C	1.313441	-0.458316	0.555957
C55	C	1.290104	-0.369418	0.572433
C56	C	1.400025	-0.638072	0.295063
C57	C	1.413740	-0.625554	0.200050
C58	C	1.465377	-0.578714	1.172680
C59	C	1.478158	-0.567138	1.083349
C60	C	1.439295	-0.602395	1.021380
C61	C	1.387651	-0.649231	1.048750
C62	C	1.374876	-0.660813	1.138089
C63	C	1.348794	-0.684494	0.986789
C64	C	1.297150	-0.731330	1.014159
C65	C	1.284376	-0.742910	1.103490
C66	C	1.323238	-0.707653	1.165459
C67	C	1.361569	-0.672911	0.897450
C68	C	1.271068	-0.755010	0.862859
C69	C	1.258288	-0.766587	0.952190
H70	H	0.696799	-0.504770	0.391798
H71	H	1.608877	-1.128405	0.347929
H72	H	1.242333	-0.781055	1.125770
H73	H	0.979139	-0.772030	0.598619
H74	H	0.728652	-0.832985	0.645792
O75	O	1.233162	-0.789214	0.802756
C76	C	1.134007	-0.758813	0.815630
H77	H	1.114757	-0.736150	0.885939
H78	H	1.107585	-0.809851	0.802506
H79	H	1.099500	-0.705856	0.768858
H80	H	1.474612	-1.321092	0.442536
H81	H	1.160955	-1.082346	0.663235
H82	H	1.520209	-0.529006	1.061071
H83	H	1.216238	-0.804721	0.974487
H84	H	1.327546	-0.965993	0.545916
O85	O	0.910824	-0.873258	0.677151
C86	C	0.870658	-0.862945	0.762533
H87	H	0.826903	-0.795100	0.775294
H88	H	0.929463	-0.886210	0.811879
H89	H	0.823131	-0.899185	0.769467
O90	O	1.037712	-0.723009	0.560836
C91	C	1.073270	-0.694253	0.631974
H92	H	1.075984	-0.632165	0.615056
H93	H	1.147581	-0.739912	0.646312
H94	H	1.025001	-0.687428	0.692078
O95	O	0.605069	-0.593067	0.460262
C96	C	0.555966	-0.577763	0.541799
H97	H	0.607757	-0.607359	0.595857
H98	H	0.499208	-0.604828	0.541723
H99	H	0.521228	-0.508728	0.553751
H100	H	0.834842	-0.471159	0.365805
O101	O	1.587522	-1.257890	0.363053
C102	C	1.595018	-1.339936	0.357770
H103	H	1.558496	-1.354737	0.417643
H104	H	1.672918	-1.382725	0.355293
H105	H	1.559706	-1.348694	0.296104
O106	O	1.015454	-0.493295	0.382781
C107	C	1.090706	-0.541103	0.326390
H108	H	1.116703	-0.608127	0.347129
H109	H	1.151150	-0.518613	0.329987
H110	H	1.065120	-0.535230	0.256457
O111	O	1.258257	-0.998825	0.594548
C112	C	1.239124	-0.956267	0.514580
H113	H	1.274570	-1.000726	0.458507
H114	H	1.267957	-0.905503	0.515268
H115	H	1.159377	-0.928159	0.505301
H116	H	1.312836	-0.717076	1.238201
H117	H	1.167370	-1.356236	0.658845
O118	O	1.115198	-1.197743	0.695457
C119	C	1.070924	-1.249892	0.726689
H120	H	1.088459	-1.304366	0.680212
H121	H	0.990988	-1.214534	0.730604
H122	H	1.097520	-1.272943	0.794506
H123	H	1.568963	-0.976835	0.375970
O124	O	1.420936	-1.374243	0.480368
C125	C	1.428432	-1.456290	0.475085
H126	H	1.391910	-1.471090	0.534958
H127	H	1.506332	-1.499078	0.472608
H128	H	1.393120	-1.465047	0.413419
O129	O	1.411599	-0.627336	0.870767
C130	C	1.353182	-0.559975	0.821734
H131	H	1.292976	-0.574483	0.793854
H132	H	1.396721	-0.547535	0.765883
H133	H	1.322613	-0.503438	0.865814
O134	O	1.451757	-0.591035	0.934639
C135	C	1.505690	-0.542153	0.923768
H136	H	1.498917	-0.504315	0.985626
H137	H	1.478583	-0.499286	0.865945
H138	H	1.583180	-0.583329	0.910944
O139	O	1.503030	-0.544503	1.232989
C140	C	1.480705	-0.564793	1.317704
H141	H	1.415027	-0.580375	1.315617
H142	H	1.466354	-0.510364	1.363598
H143	H	1.542678	-0.620044	1.342401
