data_functionalizedCrystal
_audit_creation_method	'MofGen! by Chris Wilmer'
_symmetry_space_group_name_H-M	'P1'
_symmetry_Int_Tables_number	1
_symmetry_cell_setting	triclinic
loop_
_symmetry_equiv_pos_as_xyz
  x,y,z
_cell_length_a	21.395364
_cell_length_b	21.395361
_cell_length_c	21.395355
_cell_angle_alpha	89.978489
_cell_angle_beta	89.975448
_cell_angle_gamma	90.045659
loop_
_atom_site_label
_atom_site_type_symbol
_atom_site_fract_x
_atom_site_fract_y
_atom_site_fract_z
Zn1	Zn	0.957859	-0.249261	-0.354248
Zn2	Zn	0.957762	-0.354021	-0.249466
Zn3	Zn	0.853074	-0.249289	-0.249485
Zn4	Zn	0.853043	-0.354032	-0.354206
O5	O	0.905435	-0.301651	-0.301851
O6	O	1.045524	-0.263142	-0.340358
O7	O	0.943847	-0.340135	-0.161790
O8	O	0.867028	-0.161607	-0.263408
O9	O	1.045453	-0.340108	-0.263375
O10	O	0.944013	-0.161587	-0.340378
O11	O	0.866933	-0.263188	-0.161805
O12	O	0.765392	-0.263199	-0.263367
O13	O	0.866975	-0.340127	-0.441889
O14	O	0.765370	-0.340154	-0.340305
O15	O	0.943983	-0.263152	-0.441921
O16	O	0.943817	-0.441700	-0.263333
O17	O	0.866881	-0.441709	-0.340286
C18	C	0.742647	-0.301681	-0.301834
C19	C	0.673006	-0.301709	-0.301841
C20	C	0.640352	-0.261698	-0.341988
C21	C	0.574917	-0.261682	-0.341991
C22	C	0.542137	-0.301687	-0.301852
C23	C	0.574799	-0.341701	-0.261697
C24	C	0.640233	-0.341712	-0.261692
C25	C	0.438413	-0.358112	-0.296812
C26	C	0.372980	-0.358102	-0.296822
C27	C	0.340317	-0.301653	-0.301866
C28	C	0.373094	-0.245212	-0.306914
C29	C	0.438528	-0.245223	-0.306908
C30	C	0.471185	-0.301679	-0.301854
C31	C	0.236711	-0.261620	-0.342018
C32	C	0.171274	-0.261603	-0.342016
C33	C	0.171157	-0.341627	-0.261726
C34	C	0.236593	-0.341640	-0.261725
C35	C	0.269365	-0.301637	-0.301874
C36	C	0.905352	-0.464438	-0.301816
C37	C	0.905374	-0.534080	-0.301822
C38	C	0.945470	-0.566768	-0.261794
C39	C	0.945499	-0.632203	-0.261808
C40	C	0.905421	-0.664948	-0.301844
C41	C	0.865322	-0.632252	-0.341880
C42	C	0.865298	-0.566818	-0.341869
C43	C	0.849006	-0.768678	-0.306754
C44	C	0.849029	-0.834111	-0.306760
C45	C	0.905494	-0.866769	-0.301881
C46	C	0.961938	-0.833986	-0.296982
C47	C	0.961915	-0.768551	-0.296971
C48	C	0.905442	-0.735900	-0.301860
C49	C	0.945625	-0.970409	-0.261866
C50	C	0.945655	-1.035846	-0.261884
C51	C	0.865473	-1.035893	-0.341952
C52	C	0.865448	-0.970458	-0.341937
C53	C	0.905523	-0.937720	-0.301890
C54	C	1.068858	-0.301621	-0.301869
C55	C	1.138499	-0.301608	-0.301877
C56	C	0.905487	-0.301638	-0.465275
C57	C	0.905509	-0.301633	-0.534916
C58	C	0.905535	-0.138227	-0.301900
C59	C	0.905577	-0.068586	-0.301921
C60	C	0.945605	-0.261550	-0.567646
C61	C	0.945604	-0.261523	-0.633082
C62	C	0.905514	-0.301590	-0.665784
C63	C	0.865410	-0.341675	-0.633046
C64	C	0.865407	-0.341697	-0.567612
C65	C	0.900538	-0.358007	-0.769447
C66	C	0.900545	-0.357986	-0.834880
C67	C	0.905518	-0.301524	-0.867605
C68	C	0.910497	-0.245080	-0.834889
C69	C	0.910494	-0.245101	-0.769455
C70	C	0.905512	-0.301571	-0.736737
C71	C	0.945615	-0.261409	-0.971288
C72	C	0.945610	-0.261381	-1.036725
C73	C	0.865419	-0.341538	-1.036688
C74	C	0.865421	-0.341561	-0.971252
C75	C	0.905522	-0.301497	-0.938556
C76	C	0.905419	-0.301618	-0.139064
C77	C	0.905518	-0.301447	-0.069423
H78	H	0.548325	-0.229097	-0.374682
Br79	Br	0.999919	-0.676575	-0.207481
H80	H	0.263396	-0.229044	-0.374706
H81	H	0.832691	-0.658917	-0.374478
H82	H	0.896321	-0.403973	-0.742807
Br83	Br	1.000041	-0.206987	-1.081146
H84	H	0.144689	-0.229017	-0.374708
H85	H	0.803022	-0.742094	-0.310730
H86	H	0.346501	-0.199246	-0.311021
H87	H	0.832843	-1.062554	-0.374552
H88	H	1.007873	-0.741861	-0.292984
Br89	Br	0.280911	-0.395938	-0.207231
Br90	Br	0.917252	-0.168447	-0.879293
Br91	Br	1.038575	-0.878298	-0.290349
Br92	Br	1.000026	-0.207176	-0.523276
H93	H	0.978103	-0.540114	-0.229188
Br94	Br	1.000009	-0.925975	-0.207517
Br95	Br	1.000083	-1.080210	-0.207562
Br96	Br	0.684827	-0.207409	-0.396476
H97	H	0.465213	-0.199267	-0.311016
Br98	Br	0.126678	-0.395915	-0.207245
H99	H	0.978254	-0.228880	-0.659736
H100	H	0.896494	-0.403946	-0.861512
Br101	Br	0.917249	-0.168503	-0.725057
H102	H	0.978265	-0.228783	-0.944666
H103	H	0.832795	-0.943842	-0.374529
Br104	Br	0.811001	-0.395908	-1.081062
Br105	Br	0.811002	-0.395963	-0.926829
H106	H	0.465002	-0.404083	-0.292703
Br107	Br	0.328503	-0.434700	-0.289986
H108	H	0.548106	-0.374273	-0.229016
Br109	Br	0.772427	-0.878596	-0.313405
H110	H	0.832766	-0.374296	-0.659676
H111	H	0.832753	-0.374336	-0.540963
H112	H	0.666819	-0.374295	-0.228998
H113	H	0.832647	-0.540203	-0.374465
