data_functionalizedCrystal
_audit_creation_method	'MofGen! by Chris Wilmer'
_symmetry_space_group_name_H-M	'P1'
_symmetry_Int_Tables_number	1
_symmetry_cell_setting	triclinic
loop_
_symmetry_equiv_pos_as_xyz
  x,y,z
_cell_length_a	6.817900
_cell_length_b	10.992421
_cell_length_c	16.256277
_cell_angle_alpha	93.802353
_cell_angle_beta	103.500353
_cell_angle_gamma	108.764763
loop_
_atom_site_label
_atom_site_type_symbol
_atom_site_fract_x
_atom_site_fract_y
_atom_site_fract_z
V1	V	-4.053905	-0.178799	-0.263862
O2	O	-4.013178	0.007524	-0.258851
O3	O	-4.031899	-0.353501	-0.262046
O4	O	-4.005178	-0.176517	-0.378946
O5	O	-4.040085	-0.170685	-0.141141
V6	V	-4.534155	-0.156457	-0.249185
O7	O	-4.322342	-0.227807	-0.296057
O8	O	-4.715915	-0.107449	-0.216990
O9	O	-4.332954	0.018245	-0.251001
O10	O	-4.692278	-0.342780	-0.254196
O11	O	-4.665372	-0.164571	-0.371906
O12	O	-4.359675	-0.158739	-0.134100
C13	C	-3.883331	-0.396075	-0.257880
C14	C	-3.946623	-0.538898	-0.257162
C15	C	-3.849244	-0.170313	-0.406998
C16	C	-3.890863	-0.169604	-0.501080
C17	C	-3.815611	-0.734163	-0.251375
C18	C	-3.749435	-0.585520	-0.251786
C19	C	-4.035282	-0.577223	-0.178238
C20	C	-4.099709	-0.725763	-0.177403
C21	C	-4.194214	-0.764981	-0.339192
C22	C	-4.124768	-0.616475	-0.340904
C23	C	-4.182557	-0.174561	-0.732900
C24	C	-4.059334	-0.064298	-0.775998
C25	C	-3.966958	-0.168268	-0.673326
C26	C	-4.164278	-0.277189	-0.797858
C27	C	-4.040479	-0.166984	-0.839710
C28	C	-3.843143	-0.057926	-0.715176
C29	C	-3.948159	-0.270915	-0.737041
C30	C	-3.824773	-0.160620	-0.780108
C31	C	-3.924609	-0.169007	-0.577477
C32	C	-4.082807	-0.166236	-0.935555
C33	C	-4.144865	0.060812	-0.255164
C34	C	-4.060811	0.203634	-0.255888
C35	C	-4.178951	-0.164947	-0.106045
C36	C	-4.116570	-0.165650	-0.011962
H37	H	-3.679415	-0.559978	-0.308180
H38	H	-3.900847	-0.358287	-0.719629
H39	H	-3.776971	-0.780804	-0.307419
H40	H	-3.614505	-0.532841	-0.191660
C41	C	-3.969369	-0.749095	-0.092750
N42	N	-3.871183	-0.766661	-0.028990
H43	H	-4.062415	-0.592808	-0.399295
H44	H	-3.713557	-0.754486	-0.191298
C45	C	-4.337793	-0.780995	-0.177226
N46	N	-4.517108	-0.822588	-0.177085
H47	H	-4.300464	-0.369841	-0.833738
C48	C	-4.324407	-0.575722	-0.352810
N49	N	-4.474780	-0.545027	-0.361771
C50	C	-4.123314	0.053742	-0.799487
N51	N	-4.171508	0.142649	-0.817171
H52	H	-4.180705	-0.546991	-0.179149
C53	C	-3.864504	-0.503630	-0.094482
N54	N	-3.735862	-0.448204	-0.031398
C55	C	-3.659295	0.067383	-0.666835
N56	N	-3.520830	0.161766	-0.630422
C57	C	-4.386196	-0.182348	-0.704670
N58	N	-4.539568	-0.188206	-0.683404
C59	C	-4.167200	-0.832193	-0.419870
N60	N	-4.146828	-0.882815	-0.480633
H61	H	-4.373117	-0.806115	-0.343328
H62	H	-3.673743	-0.154687	-0.800821
