data_functionalizedCrystal
_audit_creation_method	'MofGen! by Chris Wilmer'
_symmetry_space_group_name_H-M	'P1'
_symmetry_Int_Tables_number	1
_symmetry_cell_setting	triclinic
loop_
_symmetry_equiv_pos_as_xyz
  x,y,z
_cell_length_a	18.101398
_cell_length_b	12.594517
_cell_length_c	18.101389
_cell_angle_alpha	90.009374
_cell_angle_beta	89.975673
_cell_angle_gamma	89.998099
loop_
_atom_site_label
_atom_site_type_symbol
_atom_site_fract_x
_atom_site_fract_y
_atom_site_fract_z
Zn1	Zn	1.132247	0.423988	-0.418885
Zn2	Zn	1.132196	0.601956	-0.295063
Zn3	Zn	1.008406	0.423977	-0.295046
Zn4	Zn	1.008410	0.601910	-0.418852
O5	O	1.070315	0.512958	-0.356962
O6	O	1.235873	0.447620	-0.402481
O7	O	1.115752	0.578361	-0.191428
O8	O	1.024854	0.275033	-0.311481
O9	O	1.235835	0.578372	-0.311510
O10	O	1.115839	0.275041	-0.402465
O11	O	1.024804	0.447601	-0.191416
O12	O	0.904774	0.447557	-0.311449
O13	O	1.024860	0.578294	-0.522489
O14	O	0.904776	0.578283	-0.402408
O15	O	1.115843	0.447575	-0.522514
O16	O	1.115755	0.750896	-0.311477
O17	O	1.024810	0.750862	-0.402424
C18	C	0.877904	0.512915	-0.356923
C19	C	0.795590	0.512922	-0.356924
C20	C	0.496499	0.512988	-0.356986
C21	C	0.527798	0.430327	-0.300036
C22	C	0.613416	0.430549	-0.299793
C23	C	0.644881	0.512954	-0.356955
C24	C	0.613797	0.625071	-0.335643
C25	C	0.528151	0.624611	-0.335247
C26	C	0.528105	0.484507	-0.435383
C27	C	0.613755	0.482010	-0.434955
C28	C	0.728741	0.512942	-0.356939
C29	C	0.412639	0.513008	-0.357001
C30	C	1.070352	0.235337	-0.356975
C31	C	1.070368	0.117032	-0.356980
C32	C	1.119849	0.047783	-0.406469
C33	C	1.137946	-0.022994	-0.338911
C34	C	1.052294	-0.022990	-0.424542
C35	C	1.088500	0.047813	-0.289386
C36	C	1.002816	0.047823	-0.375063
C37	C	1.020888	-0.022922	-0.307458
C38	C	1.263476	0.513002	-0.357001
C39	C	1.345791	0.513021	-0.357018
C40	C	1.070298	0.789499	-0.356965
C41	C	1.070358	0.907804	-0.356991
C42	C	1.070357	0.512931	-0.550124
C43	C	1.070376	0.512919	-0.632438
C44	C	1.070419	0.512720	-0.931529
C45	C	1.012977	0.594703	-0.900188
C46	C	1.013133	0.595083	-0.814570
C47	C	1.070397	0.512819	-0.783146
C48	C	1.148431	0.543275	-0.814255
C49	C	1.148111	0.543813	-0.899901
C50	C	1.050504	0.400099	-0.899941
C51	C	1.048768	0.400749	-0.814290
C52	C	1.070389	0.512873	-0.699287
C53	C	1.070432	0.512668	-1.015389
C54	C	1.070315	0.512908	-0.164551
C55	C	1.070440	0.512619	-0.082238
H56	H	0.506254	0.448941	-0.242283
N57	N	0.976734	0.371948	-0.788756
N58	N	0.964347	0.364237	-0.721030
H59	H	0.913474	0.343903	-0.702987
H60	H	0.635219	0.649646	-0.278951
H61	H	0.506509	0.404176	-0.454762
N62	N	0.968391	-0.061615	-0.254898
N63	N	0.975157	-0.038698	-0.188052
H64	H	0.938083	-0.066025	-0.150929
H65	H	1.026284	0.678562	-0.794097
H66	H	1.037012	-0.054093	-0.481673
H67	H	1.192380	0.485439	-0.793903
H68	H	0.633875	0.449376	-0.241702
N69	N	1.029291	0.698798	-0.927192
N70	N	0.982495	0.747975	-0.964689
H71	H	0.994017	0.821494	-0.983759
N72	N	0.931172	0.086867	-0.394265
N73	N	0.880145	0.023228	-0.408533
H74	H	0.829544	0.050803	-0.422102
N75	N	1.107755	0.086634	-0.217688
N76	N	1.068790	0.063255	-0.163034
H77	H	1.082390	0.090673	-0.112398
N78	N	1.097422	0.320059	-0.787450
N79	N	1.149063	0.343945	-0.744744
H80	H	1.183430	0.286960	-0.725787
H81	H	0.955268	0.576024	-0.793535
N82	N	0.639795	0.326248	-0.316519
N83	N	0.679357	0.277850	-0.271050
H84	H	0.697987	0.204183	-0.282856
H85	H	0.994588	0.372353	-0.921524
H86	H	0.508147	0.648767	-0.277936
N87	N	0.940169	0.571025	-0.926008
N88	N	0.929761	0.493455	-0.967812
H89	H	0.878338	0.476731	-0.986054
H90	H	0.507448	0.688284	-0.374919
H91	H	0.634180	0.688309	-0.375825
H92	H	0.507203	0.346934	-0.313247
N93	N	0.639244	0.378505	-0.455107
N94	N	0.680184	0.327658	-0.412224
H95	H	0.698190	0.254556	-0.426454
H96	H	0.635177	0.537830	-0.479659
N97	N	1.102984	0.323477	-0.925381
N98	N	1.110877	0.307477	-0.993078
H99	H	1.147943	0.253371	-1.011050
N100	N	0.502729	0.560058	-0.488605
N101	N	0.461547	0.634583	-0.468985
H102	H	0.443627	0.687950	-0.506566
N103	N	1.172373	0.086742	-0.458909
N104	N	1.166316	0.062777	-0.525645
H105	H	1.203411	0.090294	-0.562679
N106	N	1.209609	-0.062008	-0.319728
N107	N	1.264173	-0.039353	-0.359026
H108	H	1.314787	-0.066902	-0.345482
H109	H	1.164990	0.626141	-0.919893
N110	N	1.203623	0.472154	-0.925905
N111	N	1.242480	0.421911	-0.880799
H112	H	1.281686	0.371303	-0.899161
H113	H	1.165601	0.624728	-0.792822
