data_functionalizedCrystal
_audit_creation_method	'MofGen! by Chris Wilmer'
_symmetry_space_group_name_H-M	'P1'
_symmetry_Int_Tables_number	1
_symmetry_cell_setting	triclinic
loop_
_symmetry_equiv_pos_as_xyz
  x,y,z
_cell_length_a	6.394989
_cell_length_b	10.723024
_cell_length_c	9.198806
_cell_angle_alpha	89.996352
_cell_angle_beta	90.000201
_cell_angle_gamma	94.517210
loop_
_atom_site_label
_atom_site_type_symbol
_atom_site_fract_x
_atom_site_fract_y
_atom_site_fract_z
O1	O	-0.293022	1.660298	-0.120873
O2	O	-0.321070	1.297443	-0.120877
O3	O	-0.003055	1.484021	-0.120876
O4	O	-0.611036	1.473720	-0.120874
O5	O	-0.003054	1.484006	0.120909
O6	O	-0.321069	1.297428	0.120908
O7	O	-0.293021	1.660282	0.120912
Cu8	Cu	-0.307045	1.478854	0.142987
Cu9	Cu	-0.307046	1.478872	-0.142952
O10	O	-0.611035	1.473705	0.120911
C11	C	-0.319028	1.250914	0.000015
C12	C	-0.312921	1.112295	0.000013
C13	C	-0.123225	0.918524	0.000010
C14	C	-0.129533	1.061795	0.000012
C15	C	0.074796	1.481977	0.000011
C16	C	0.311120	1.475752	0.000010
C17	C	-0.295062	1.706811	0.000017
C18	C	-0.301169	1.845430	0.000010
N19	N	-0.307043	1.478850	0.344101
N20	N	-0.307031	1.478885	-0.344066
C21	C	-0.172929	1.557183	0.416299
C22	C	-0.172922	1.557202	0.583711
H23	H	0.033789	0.875036	0.000031
Br24	Br	0.018448	1.668996	0.687185
Br25	Br	0.124385	1.166484	-0.000005
H26	H	-0.465264	1.049487	0.000007
Br27	Br	-0.498403	1.367080	0.447638
Br28	Br	-0.562886	0.917900	0.000029
H29	H	-0.058105	1.624228	0.354173
H30	H	-0.421866	1.411822	0.593857
