data_functionalizedCrystal
_audit_creation_method	'MofGen! by Chris Wilmer'
_symmetry_space_group_name_H-M	'P1'
_symmetry_Int_Tables_number	1
_symmetry_cell_setting	triclinic
loop_
_symmetry_equiv_pos_as_xyz
  x,y,z
_cell_length_a	10.654545
_cell_length_b	14.853567
_cell_length_c	9.130313
_cell_angle_alpha	90.000724
_cell_angle_beta	90.003066
_cell_angle_gamma	84.059005
loop_
_atom_site_label
_atom_site_type_symbol
_atom_site_fract_x
_atom_site_fract_y
_atom_site_fract_z
O1	O	1.666527	0.126607	0.121771
O2	O	1.300923	0.138675	0.121776
O3	O	1.493491	0.001463	0.121778
O4	O	1.473959	0.263818	0.121769
O5	O	1.493478	0.001459	-0.121821
O6	O	1.300910	0.138671	-0.121823
O7	O	1.666514	0.126603	-0.121828
Cu8	Cu	1.483711	0.132636	-0.144068
Cu9	Cu	1.483726	0.132641	0.144016
O10	O	1.473946	0.263814	-0.121830
C11	C	1.254127	0.137788	-0.000023
C12	C	1.114711	0.135139	-0.000020
C13	C	1.049213	0.133890	-0.132807
C14	C	0.918219	0.131387	-0.132807
C15	C	0.918234	0.131385	0.132778
C16	C	1.049226	0.133882	0.132777
C17	C	1.492599	-0.032132	-0.000017
C18	C	1.489947	-0.132230	-0.000004
C19	C	1.364347	-0.545435	-0.000031
C20	C	1.593123	-0.565494	-0.000034
C21	C	1.595616	-0.471447	-0.000025
C22	C	1.482473	-0.414389	-0.000021
C23	C	1.366837	-0.451379	-0.000027
C24	C	1.711250	-0.434450	-0.000035
C25	C	1.713749	-0.340397	-0.000028
C26	C	1.600605	-0.283338	-0.000014
C27	C	1.484964	-0.320333	-0.000017
C28	C	1.371821	-0.263276	-0.000014
C29	C	1.256179	-0.300269	-0.000007
C30	C	1.253693	-0.394320	-0.000013
C31	C	1.603090	-0.189288	-0.000008
C32	C	1.374311	-0.169220	-0.000010
C33	C	1.713310	0.127490	-0.000026
C34	C	1.852726	0.130138	-0.000019
C35	C	1.474838	0.297410	-0.000031
C36	C	1.477490	0.397508	-0.000034
N37	N	1.483709	0.132633	-0.346690
C38	C	1.569007	0.071901	-0.423341
C39	C	1.569019	0.071901	-0.576678
C40	C	1.398431	0.193372	-0.576700
C41	C	1.398414	0.193367	-0.423365
N42	N	1.483738	0.132638	0.346639
H43	H	1.102557	0.134897	0.240914
H44	H	1.685238	-0.611955	-0.000048
C45	C	1.250007	0.137723	-0.250740
C46	C	1.121198	0.135263	-0.278773
H47	H	1.294442	0.138574	-0.340858
H48	H	1.280962	0.085656	-0.196188
H49	H	1.261973	0.190618	-0.196181
H50	H	1.109231	0.082365	-0.333323
H51	H	1.090234	0.187335	-0.333348
H52	H	0.864896	0.130370	-0.240935
H53	H	1.159543	-0.424448	-0.000008
C54	C	0.717436	0.127566	0.250707
C55	C	0.846246	0.130015	0.278743
H56	H	0.672997	0.126729	0.340824
H57	H	0.705460	0.074679	0.196160
H58	H	0.686490	0.179641	0.196142
H59	H	0.877194	0.077937	0.333299
H60	H	0.858230	0.182908	0.333314
H61	H	1.282175	-0.122769	-0.000000
C62	C	1.642526	-0.083677	-0.623872
C63	C	1.662786	0.005145	-0.660930
H64	H	1.700422	-0.124891	-0.675879
H65	H	1.558715	-0.094025	-0.649027
H66	H	1.654723	-0.092357	-0.521574
H67	H	1.650579	0.013826	-0.763226
H68	H	1.746617	0.015496	-0.635784
H69	H	1.803365	-0.480912	-0.000051
H70	H	1.164059	-0.253800	-0.000014
C71	C	1.258934	-0.680693	-0.000033
C72	C	1.237237	-0.586093	-0.000030
H73	H	1.180459	-0.705792	-0.000042
H74	H	1.305518	-0.700223	0.084911
H75	H	1.305522	-0.700222	-0.084986
H76	H	1.190656	-0.566564	0.084929
H77	H	1.190632	-0.566555	-0.084983
H78	H	1.807911	-0.310286	-0.000032
C79	C	1.181127	0.244853	-0.623967
C80	C	1.304683	0.260130	-0.660992
H81	H	1.123253	0.286065	-0.676014
H82	H	1.168914	0.253548	-0.521690
H83	H	1.167415	0.184589	-0.649112
H84	H	1.318398	0.320393	-0.635837
H85	H	1.316902	0.251444	-0.763292
C86	C	1.324922	0.348955	-0.376136
C87	C	1.304651	0.260132	-0.339099
H88	H	1.267042	0.390167	-0.324105
H89	H	1.312721	0.357647	-0.478416
H90	H	1.408750	0.359292	-0.350980
H91	H	1.220827	0.249792	-0.364264
H92	H	1.316843	0.251436	-0.236796
H93	H	1.697244	-0.159172	-0.000023
H94	H	1.638457	0.022446	-0.360916
