data_functionalizedCrystal
_audit_creation_method	'MofGen! by Chris Wilmer'
_symmetry_space_group_name_H-M	'P1'
_symmetry_Int_Tables_number	1
_symmetry_cell_setting	triclinic
loop_
_symmetry_equiv_pos_as_xyz
  x,y,z
_cell_length_a	14.044220
_cell_length_b	9.065218
_cell_length_c	7.540329
_cell_angle_alpha	90.003038
_cell_angle_beta	89.995368
_cell_angle_gamma	90.897619
loop_
_atom_site_label
_atom_site_type_symbol
_atom_site_fract_x
_atom_site_fract_y
_atom_site_fract_z
O1	O	0.139141	-1.975818	-0.147493
O2	O	0.639141	-1.475818	0.352507
O3	O	0.150554	-1.547798	-0.147496
O4	O	0.650554	-1.047798	0.352504
O5	O	0.006808	-1.755384	-0.147477
O6	O	0.506808	-1.255384	0.352523
O7	O	0.282887	-1.768233	-0.147512
O8	O	0.782887	-1.268233	0.352488
O9	O	0.006806	-1.755370	0.147488
O10	O	0.506806	-1.255370	0.647488
O11	O	0.150552	-1.547785	0.147469
O12	O	0.650552	-1.047785	0.647469
O13	O	0.139139	-1.975805	0.147472
O14	O	0.639139	-1.475805	0.647472
Cu15	Cu	0.144845	-1.761793	0.174403
Cu16	Cu	0.644845	-1.261793	0.674403
Cu17	Cu	0.144848	-1.761810	-0.174427
Cu18	Cu	0.644848	-1.261810	0.325573
O19	O	0.282885	-1.768219	0.147453
O20	O	0.782885	-1.268219	0.647453
C21	C	-0.028556	-1.749752	0.000006
C22	C	0.471444	-1.249752	0.500006
C23	C	-0.133926	-1.732975	0.000008
C24	C	0.366074	-1.232975	0.500008
C25	C	0.149456	-1.492683	-0.000014
C26	C	0.649456	-0.992683	0.499986
C27	C	0.146176	-1.328477	-0.000014
C28	C	0.646176	-0.828477	0.499986
C29	C	0.140237	-2.030920	-0.000014
C30	C	0.640237	-1.530920	0.499986
C31	C	0.143517	-2.195126	-0.000025
C32	C	0.643517	-1.695126	0.499975
C33	C	-0.326850	-1.702304	-0.000017
C34	C	0.173150	-1.202304	0.499983
C35	C	-0.383462	-1.821293	-0.000022
C36	C	0.116538	-1.321293	0.499978
C37	C	-0.490812	-1.804226	-0.000036
C38	C	0.009188	-1.304226	0.499964
C39	C	-0.219491	-1.719368	-0.000003
C40	C	0.280509	-1.219368	0.499997
C41	C	0.318249	-1.773850	-0.000034
C42	C	0.818249	-1.273850	0.499966
C43	C	0.423619	-1.790627	-0.000048
C44	C	0.923619	-1.290627	0.499952
N45	N	0.144843	-1.761793	0.419752
N46	N	0.644843	-1.261793	0.919752
N47	N	0.144842	-1.761821	-0.419776
N48	N	0.644842	-1.261821	0.080224
H49	H	-0.351306	-1.935980	-0.000140
H50	H	0.148694	-1.435980	0.499860
H51	H	-0.359004	-1.587626	-0.000023
H52	H	0.140996	-1.087626	0.499977
