data_functionalizedCrystal
_audit_creation_method	'MofGen! by Chris Wilmer'
_symmetry_space_group_name_H-M	'P1'
_symmetry_Int_Tables_number	1
_symmetry_cell_setting	triclinic
loop_
_symmetry_equiv_pos_as_xyz
  x,y,z
_cell_length_a	10.654556
_cell_length_b	26.809956
_cell_length_c	10.654550
_cell_angle_alpha	90.012083
_cell_angle_beta	95.513844
_cell_angle_gamma	90.010088
loop_
_atom_site_label
_atom_site_type_symbol
_atom_site_fract_x
_atom_site_fract_y
_atom_site_fract_z
O1	O	1.667808	-0.041483	-0.176454
O2	O	1.302330	-0.041483	-0.193252
O3	O	1.493472	-0.041481	-0.002114
O4	O	1.476666	-0.041485	-0.367592
O5	O	1.493513	0.041478	-0.002071
O6	O	1.302372	0.041476	-0.193209
O7	O	1.667849	0.041476	-0.176411
Zn8	Zn	1.485117	0.054648	-0.184803
Zn9	Zn	1.485062	-0.054655	-0.184859
O10	O	1.476707	0.041474	-0.367549
C11	C	1.255553	-0.000003	-0.191995
C12	C	1.116110	-0.000003	-0.188300
C13	C	0.919557	-0.045228	-0.183124
C14	C	1.050580	-0.045226	-0.186588
C15	C	1.050613	0.045220	-0.186535
C16	C	0.919594	0.045218	-0.183061
C17	C	0.919539	-0.097447	-0.183160
C18	C	1.050561	-0.097445	-0.186625
N19	N	1.485026	-0.129251	-0.184889
C20	C	1.400303	-0.526135	-0.269307
C21	C	1.400264	-0.317257	-0.269333
O22	O	1.328175	-0.290257	-0.341199
N23	N	1.485060	-0.291129	-0.184875
C24	C	1.569877	-0.317224	-0.100411
O25	O	1.642009	-0.290208	-0.028583
C26	C	1.569921	-0.526101	-0.100392
C27	C	1.485111	-0.552226	-0.184846
C28	C	1.315501	-0.552260	-0.353756
C29	C	1.315507	-0.604476	-0.353744
C30	C	1.400315	-0.630567	-0.269283
C31	C	1.485117	-0.604442	-0.184834
C32	C	1.654743	-0.552195	-0.015934
C33	C	1.654748	-0.604417	-0.015939
C34	C	1.569939	-0.630542	-0.100394
C35	C	1.569931	-0.682750	-0.100362
N36	N	1.485135	-0.708877	-0.184819
C37	C	1.400327	-0.682786	-0.269280
C38	C	1.569846	-0.207561	-0.100425
C39	C	1.569834	-0.155342	-0.100428
C40	C	1.400222	-0.155378	-0.269352
C41	C	1.400229	-0.207598	-0.269342
C42	C	1.485050	-0.233689	-0.184883
C43	C	1.400345	-0.792444	-0.269248
C44	C	1.400355	-0.844665	-0.269225
C45	C	1.569971	-0.844624	-0.100305
C46	C	1.569957	-0.792408	-0.100323
C47	C	1.485139	-0.766319	-0.184805
O48	O	1.641991	-0.709782	-0.028543
O49	O	1.328225	-0.709811	-0.341116
C50	C	1.400297	-0.473918	-0.269319
C51	C	1.485099	-0.447793	-0.184870
C52	C	1.569907	-0.473884	-0.100410
C53	C	1.485087	-0.395574	-0.184873
C54	C	1.400279	-0.369483	-0.269334
C55	C	1.315483	-0.395611	-0.353792
C56	C	1.315489	-0.447827	-0.353780
C57	C	1.654703	-0.447757	-0.015952
C58	C	1.654689	-0.395540	-0.015970
C59	C	1.569881	-0.369449	-0.100430
C60	C	1.714626	-0.000005	-0.177667
C61	C	1.854069	-0.000008	-0.181362
C62	C	1.492259	-0.000002	0.044706
C63	C	1.488567	-0.000004	0.184149
N64	N	1.485163	0.129244	-0.184764
C65	C	1.477921	-0.000006	-0.414368
C66	C	1.481612	-0.000007	-0.553812
C67	C	1.601108	-0.000003	0.263632
C68	C	1.597631	-0.000006	0.394653
C69	C	1.369063	-0.000010	0.366695
C70	C	1.372540	-0.000010	0.235676
C71	C	1.733071	0.000002	0.279775
C72	C	1.729594	-0.000001	0.410796
H73	H	1.331289	-0.865935	-0.337998
H74	H	1.639017	-0.865876	-0.031535
Br75	Br	1.796028	-0.059701	0.486852
H76	H	0.866282	0.082040	-0.181601
Br77	Br	1.285127	-0.243048	-0.383964
Br78	Br	1.769847	-0.516750	0.098688
Br79	Br	1.091948	-0.130858	-0.334440
H80	H	1.723824	-0.625657	0.052837
Br81	Br	1.812491	0.057861	0.480439
Br82	Br	1.211606	-0.000022	0.436633
Br83	Br	1.136741	-0.124448	-0.037560
H84	H	1.331166	-0.134126	-0.338122
H85	H	1.246429	-0.469095	-0.422551
Br86	Br	1.819070	-0.057857	0.230798
Br87	Br	1.685043	-0.756953	0.014314
Br88	Br	1.200381	-0.360191	-0.468411
Br89	Br	1.285235	-0.757047	-0.383903
H90	H	1.246451	-0.625744	-0.422518
Br91	Br	0.878133	-0.130866	-0.035389
H92	H	1.280898	-0.000019	0.170965
Br93	Br	1.200391	-0.516859	-0.468398
H94	H	1.638880	-0.134074	-0.031644
Br95	Br	0.833333	-0.124453	-0.332250
Br96	Br	1.684970	-0.242961	0.014213
H97	H	1.103980	0.082042	-0.187918
H98	H	1.775110	0.035822	0.244166
H99	H	1.723749	-0.374273	0.052815
H100	H	1.723765	-0.468996	0.052825
