data_functionalizedCrystal
_audit_creation_method	'MofGen! by Chris Wilmer'
_symmetry_space_group_name_H-M	'P1'
_symmetry_Int_Tables_number	1
_symmetry_cell_setting	triclinic
loop_
_symmetry_equiv_pos_as_xyz
  x,y,z
_cell_length_a	15.944551
_cell_length_b	19.288840
_cell_length_c	18.366186
_cell_angle_alpha	89.983729
_cell_angle_beta	90.001349
_cell_angle_gamma	96.687623
loop_
_atom_site_label
_atom_site_type_symbol
_atom_site_fract_x
_atom_site_fract_y
_atom_site_fract_z
O1	O	-0.104683	0.921640	-0.060664
O2	O	0.228650	1.254973	0.272670
O3	O	0.561983	1.588306	0.606003
O4	O	-0.118840	0.719414	-0.060637
O5	O	0.214493	1.052747	0.272696
O6	O	0.547826	1.386080	0.606029
O7	O	0.010535	0.826049	-0.060655
O8	O	0.343868	1.159382	0.272678
O9	O	0.677202	1.492716	0.606011
O10	O	-0.234059	0.815004	-0.060645
O11	O	0.099275	1.148338	0.272688
O12	O	0.432608	1.481671	0.606021
O13	O	0.010541	0.826031	0.060444
O14	O	0.343874	1.159364	0.393777
O15	O	0.677208	1.492698	0.727111
O16	O	-0.118834	0.719396	0.060462
O17	O	0.214499	1.052729	0.393795
O18	O	0.547833	1.386062	0.727129
O19	O	-0.104677	0.921621	0.060436
O20	O	0.228656	1.254955	0.393769
O21	O	0.561990	1.588288	0.727102
Zn22	Zn	-0.111755	0.820506	0.079676
Zn23	Zn	0.221579	1.153839	0.413009
Zn24	Zn	0.554912	1.487172	0.746343
Zn25	Zn	-0.111763	0.820530	-0.079878
Zn26	Zn	0.221570	1.153863	0.253456
Zn27	Zn	0.554904	1.487196	0.586789
O28	O	-0.234052	0.814986	0.060454
O29	O	0.099281	1.148319	0.393787
O30	O	0.432614	1.481653	0.727121
C31	C	-0.118385	0.693527	-0.000084
C32	C	0.214948	1.026860	0.333249
C33	C	0.548281	1.360193	0.666582
C34	C	-0.117028	0.616419	-0.000075
C35	C	0.216305	0.949752	0.333259
C36	C	0.549638	1.283085	0.666592
C37	C	-0.116380	0.580223	-0.066088
C38	C	0.216953	0.913557	0.267245
C39	C	0.550287	1.246890	0.600579
C40	C	-0.115096	0.507773	-0.066097
C41	C	0.218238	0.841106	0.267236
C42	C	0.551571	1.174440	0.600570
C43	C	-0.114443	0.471523	-0.000089
C44	C	0.218891	0.804856	0.333244
C45	C	0.552224	1.138189	0.666578
C46	C	-0.115096	0.507726	0.065933
C47	C	0.218237	0.841060	0.399266
C48	C	0.551571	1.174393	0.732600
C49	C	-0.116389	0.580174	0.065940
C50	C	0.216944	0.913508	0.399273
C51	C	0.550278	1.246841	0.732607
C52	C	-0.063193	0.362052	0.050470
C53	C	0.270140	0.695386	0.383804
C54	C	0.603474	1.028719	0.717137
C55	C	-0.061895	0.289606	0.050460
C56	C	0.271438	0.622940	0.383794
C57	C	0.604772	0.956273	0.717127
C58	C	-0.110459	0.248069	-0.000108
C59	C	0.222874	0.581402	0.333225
C60	C	0.556207	0.914735	0.666559
C61	C	-0.160311	0.278987	-0.050679
C62	C	0.173023	0.612320	0.282654
C63	C	0.506356	0.945654	0.615988
C64	C	-0.161603	0.351435	-0.050672
C65	C	0.171730	0.684768	0.282661
C66	C	0.505063	1.018102	0.615995
C67	C	-0.113042	0.392965	-0.000089
C68	C	0.220292	0.726298	0.333244
C69	C	0.553625	1.059632	0.666577
C70	C	-0.108420	0.133314	-0.066135
C71	C	0.224914	0.466648	0.267198
C72	C	0.558247	0.799981	0.600531
C73	C	-0.107140	0.060862	-0.066142
C74	C	0.226193	0.394195	0.267192
C75	C	0.559526	0.727529	0.600525
C76	C	-0.107132	0.060818	0.065890
C77	C	0.226201	0.394151	0.399223
C78	C	0.559534	0.727484	0.732557
C79	C	-0.108420	0.133267	0.065894
C80	C	0.224913	0.466601	0.399228
C81	C	0.558247	0.799934	0.732561
C82	C	-0.109059	0.169512	-0.000120
C83	C	0.224274	0.502845	0.333213
C84	C	0.557607	0.836178	0.666546
C85	C	-0.265348	0.815454	-0.000095
C86	C	0.067986	1.148787	0.333239
C87	C	0.401319	1.482120	0.666572
C88	C	-0.358588	0.816828	-0.000092
C89	C	-0.025255	1.150162	0.333241
C90	C	0.308079	1.483495	0.666575
C91	C	-0.573170	0.886212	-0.000112
C92	C	-0.239837	1.219545	0.333221
C93	C	0.093497	1.552878	0.666555
C94	C	-0.634311	0.853983	0.059601
C95	C	-0.300977	1.187317	0.392935
C96	C	0.032356	1.520650	0.726268
C97	C	-0.529304	0.819315	-0.000099
C98	C	-0.195971	1.152648	0.333235
C99	C	0.137363	1.485982	0.666568
C100	C	-0.634303	0.853985	-0.059793
C101	C	-0.300969	1.187319	0.273540
C102	C	0.032364	1.520652	0.606873
C103	C	-0.694207	0.821722	-0.000108
C104	C	-0.360874	1.155056	0.333225
C105	C	-0.027541	1.488389	0.666558
C106	C	-0.589217	0.787069	0.059664
C107	C	-0.255883	1.120402	0.392997
C108	C	0.077450	1.453735	0.726330
C109	C	-0.589202	0.787080	-0.059784
C110	C	-0.255869	1.120413	0.273549
C111	C	0.077464	1.453747	0.606882
C112	C	-0.650325	0.754803	-0.000057
C113	C	-0.316992	1.088137	0.333277
C114	C	0.016341	1.421470	0.666610
C115	C	-0.434307	0.817930	-0.000092
C116	C	-0.100974	1.151264	0.333241
C117	C	0.232359	1.484597	0.666574
C118	C	-0.789203	0.823102	-0.000109
C119	C	-0.455870	1.156435	0.333224
C120	C	-0.122536	1.489768	0.666557
C121	C	0.041830	0.825581	-0.000108
C122	C	0.375163	1.158915	0.333225
C123	C	0.708497	1.492248	0.666558
C124	C	0.135071	0.824207	-0.000116
C125	C	0.468404	1.157540	0.333217
C126	C	0.801737	1.490873	0.666551
C127	C	-0.105132	0.947508	-0.000119
C128	C	0.228201	1.280842	0.333215
C129	C	0.561535	1.614175	0.666548
C130	C	-0.106489	1.024617	-0.000133
C131	C	0.226844	1.357950	0.333200
C132	C	0.560178	1.691283	0.666534
N133	N	-0.111748	0.820494	0.188567
N134	N	0.221585	1.153828	0.521901
N135	N	0.554918	1.487161	0.855234
N136	N	-0.111762	0.820546	-0.188769
N137	N	0.221571	1.153880	0.144565
N138	N	0.554904	1.487213	0.477898
C139	C	-0.054489	0.867728	0.226660
C140	C	0.278844	1.201061	0.559993
C141	C	0.612178	1.534395	0.893326
C142	C	-0.054485	0.867732	0.302887
C143	C	0.278848	1.201066	0.636221
C144	C	0.612181	1.534399	0.969554
C145	C	-0.111755	0.820510	0.341020
C146	C	0.221578	1.153843	0.674353
C147	C	0.554911	1.487176	1.007687
C148	C	-0.169019	0.773267	0.302918
C149	C	0.164314	1.106601	0.636252
C150	C	0.497648	1.439934	0.969585
C151	C	-0.169015	0.773260	0.226692
C152	C	0.164318	1.106593	0.560025
C153	C	0.497651	1.439926	0.893359
C154	C	-0.188290	0.811413	0.461784
C155	C	0.145044	1.144746	0.795117
C156	C	0.478377	1.478080	1.128451
C157	C	-0.188294	0.811426	0.538009
C158	C	0.145039	1.144759	0.871342
C159	C	0.478372	1.478092	1.204676
C160	C	-0.111766	0.820530	0.576127
C161	C	0.221568	1.153863	0.909461
C162	C	0.554901	1.487196	1.242794
C163	C	-0.035229	0.829636	0.538012
C164	C	0.298104	1.162969	0.871345
C165	C	0.631437	1.496302	1.204678
C166	C	-0.035226	0.829628	0.461785
C167	C	0.298107	1.162961	0.795119
C168	C	0.631441	1.496295	1.128452
C169	C	-0.111765	0.820513	0.423675
C170	C	0.221568	1.153846	0.757008
C171	C	0.554902	1.487179	1.090341
C172	C	-0.054498	0.867771	0.696875
C173	C	0.278836	1.201104	1.030208
C174	C	0.612169	1.534437	1.363541
C175	C	-0.054493	0.867770	0.773104
C176	C	0.278841	1.201103	1.106437
C177	C	0.612174	1.534437	1.439771
C178	C	-0.169034	0.773308	0.773134
C179	C	0.164300	1.106642	1.106467
C180	C	0.497633	1.439975	1.439800
C181	C	-0.169031	0.773306	0.696906
C182	C	0.164302	1.106639	1.030239
C183	C	0.497635	1.439972	1.363572
C184	C	-0.111764	0.820540	0.658781
C185	C	0.221569	1.153874	0.992114
C186	C	0.554903	1.487207	1.325448
H187	H	-0.202196	0.376605	-0.091847
H188	H	0.131137	0.709939	0.241487
H189	H	0.464471	1.043272	0.574820
F190	F	-0.660420	0.890994	-0.125774
F191	F	-0.327087	1.224327	0.207559
F192	F	0.006246	1.557660	0.540893
F193	F	-0.106457	0.022340	-0.136406
F194	F	0.226876	0.355673	0.196927
F195	F	0.560210	0.689006	0.530261
H196	H	-0.215661	0.734856	0.804180
H197	H	0.117673	1.068190	1.137514
H198	H	0.451006	1.401523	1.470847
H199	H	-0.569335	0.758789	0.110201
H200	H	-0.236002	1.092122	0.443535
H201	H	0.097332	1.425455	0.776868
H202	H	-0.215648	0.734817	0.333970
H203	H	0.117686	1.068150	0.667303
H204	H	0.451019	1.401484	1.000636
F205	F	-0.212003	0.234785	-0.104500
F206	F	0.121330	0.568118	0.228833
F207	F	0.454663	0.901451	0.562167
H208	H	-0.007856	0.906197	0.333908
H209	H	0.325477	1.239530	0.667241
H210	H	0.658811	1.572864	1.000575
F211	F	-0.563039	0.750138	-0.125763
F212	F	-0.229706	1.083471	0.207570
F213	F	0.103627	1.416805	0.540903
F214	F	-0.011502	0.406254	0.104297
F215	F	0.321831	0.739587	0.437630
F216	F	0.655165	1.072920	0.770964
H217	H	-0.215644	0.734796	0.195677
H218	H	0.117690	1.068129	0.529010
H219	H	0.451023	1.401462	0.862343
F220	F	-0.106445	0.022241	0.136141
F221	F	0.226889	0.355575	0.469475
F222	F	0.560222	0.688908	0.802808
F223	F	0.006458	0.918041	0.813646
F224	F	0.339791	1.251374	1.146980
F225	F	0.673124	1.584708	1.480313
F226	F	-0.229978	0.723036	0.656362
F227	F	0.103355	1.056369	0.989695
F228	F	0.436688	1.389703	1.323029
F229	F	-0.109106	0.171890	-0.136393
F230	F	0.224227	0.505223	0.196940
F231	F	0.557560	0.838557	0.530274
H232	H	0.027093	0.837041	0.430754
H233	H	0.360426	1.170374	0.764088
H234	H	0.693759	1.503707	1.097421
F235	F	-0.660450	0.890957	0.125574
F236	F	-0.327116	1.224290	0.458907
F237	F	0.006217	1.557623	0.792240
F238	F	-0.693949	0.682160	-0.000010
F239	F	-0.360615	1.015494	0.333324
F240	F	-0.027282	1.348827	0.666657
F241	F	-0.117063	0.618793	-0.136347
F242	F	0.216270	0.952126	0.196986
F243	F	0.549603	1.285459	0.530320
H244	H	-0.114567	0.478206	0.119677
H245	H	0.218767	0.811540	0.453010
H246	H	0.552100	1.144873	0.786344
F247	F	0.006462	0.917996	0.186086
F248	F	0.339795	1.251329	0.519419
F249	F	0.673128	1.584663	0.852753
H250	H	-0.116918	0.609644	0.119698
H251	H	0.216416	0.942977	0.453031
H252	H	0.549749	1.276311	0.786364
F253	F	-0.269750	0.801739	0.578568
F254	F	0.063583	1.135072	0.911901
F255	F	0.396917	1.468406	1.245234
F256	F	0.046225	0.839330	0.578574
F257	F	0.379558	1.172663	0.911907
F258	F	0.712891	1.505997	1.245240
F259	F	-0.109106	0.171791	0.136156
F260	F	0.224228	0.505125	0.469489
F261	F	0.557561	0.838458	0.802822
F262	F	-0.114406	0.469243	-0.136360
F263	F	0.218928	0.802577	0.196973
F264	F	0.552261	1.135910	0.530307
F265	F	-0.008855	0.256706	0.104293
F266	F	0.324478	0.590039	0.437626
F267	F	0.657812	0.923372	0.770959
F268	F	0.006454	0.918039	0.656299
F269	F	0.339788	1.251372	0.989632
F270	F	0.673121	1.584706	1.322965
H271	H	-0.250613	0.803987	0.430754
H272	H	0.082721	1.137321	0.764088
H273	H	0.416054	1.470654	1.097421
H274	H	-0.539644	0.941739	-0.000060
H275	H	-0.206311	1.275073	0.333273
H276	H	0.127022	1.608406	0.666606
