data_functionalizedCrystal
_audit_creation_method	'MofGen! by Chris Wilmer'
_symmetry_space_group_name_H-M	'P1'
_symmetry_Int_Tables_number	1
_symmetry_cell_setting	triclinic
loop_
_symmetry_equiv_pos_as_xyz
  x,y,z
_cell_length_a	18.101397
_cell_length_b	18.101398
_cell_length_c	18.101389
_cell_angle_alpha	89.991407
_cell_angle_beta	90.018351
_cell_angle_gamma	89.985428
loop_
_atom_site_label
_atom_site_type_symbol
_atom_site_fract_x
_atom_site_fract_y
_atom_site_fract_z
Zn1	Zn	-0.295010	-1.132179	0.418528
Zn2	Zn	0.204990	-0.632179	0.918528
Zn3	Zn	-0.418836	-1.132100	0.294687
Zn4	Zn	0.081164	-0.632100	0.794687
Zn5	Zn	-0.295001	-1.008338	0.294723
Zn6	Zn	0.204999	-0.508338	0.794723
Zn7	Zn	-0.418803	-1.008313	0.418509
Zn8	Zn	0.081197	-0.508313	0.918509
O9	O	-0.356912	-1.070233	0.356612
O10	O	0.143088	-0.570233	0.856612
O11	O	-0.311453	-1.235802	0.402093
O12	O	0.188547	-0.735802	0.902093
O13	O	-0.402419	-1.115659	0.191059
O14	O	0.097581	-0.615659	0.691059
O15	O	-0.191369	-1.024810	0.311169
O16	O	0.308631	-0.524810	0.811169
O17	O	-0.402427	-1.235743	0.311107
O18	O	0.097573	-0.735743	0.811107
O19	O	-0.191376	-1.115795	0.402128
O20	O	0.308624	-0.615795	0.902128
O21	O	-0.311438	-1.024732	0.191086
O22	O	0.188562	-0.524732	0.691086
O23	O	-0.311406	-0.904702	0.311151
O24	O	0.188594	-0.404702	0.811151
O25	O	-0.402371	-1.024767	0.522145
O26	O	0.097629	-0.524767	1.022145
O27	O	-0.402363	-0.904684	0.402096
O28	O	0.097637	-0.404684	0.902096
O29	O	-0.311421	-1.115771	0.522159
O30	O	0.188579	-0.615771	1.022159
O31	O	-0.522464	-1.115635	0.311089
O32	O	-0.022464	-0.615635	0.811089
O33	O	-0.522440	-1.024690	0.402061
O34	O	-0.022440	-0.524690	0.902061
C35	C	-0.356881	-0.877822	0.356626
C36	C	0.143119	-0.377822	0.856626
C37	C	-0.356885	-0.795508	0.356650
C38	C	0.143115	-0.295508	0.856650
C39	C	-0.356925	-0.496417	0.356625
C40	C	0.143075	0.003583	0.856625
C41	C	-0.414429	-0.527756	0.413562
C42	C	0.085571	-0.027756	0.913562
C43	C	-0.414250	-0.613374	0.413794
C44	C	0.085750	-0.113374	0.913794
C45	C	-0.356906	-0.644800	0.356637
C46	C	0.143094	-0.144800	0.856637
C47	C	-0.278907	-0.613730	0.377966
C48	C	0.221093	-0.113730	0.877966
C49	C	-0.279251	-0.528085	0.378372
C50	C	0.220749	-0.028085	0.878372
C51	C	-0.376732	-0.527968	0.278222
C52	C	0.123268	-0.027968	0.778222
C53	C	-0.378445	-0.613619	0.278639
C54	C	0.121555	-0.113619	0.778639
C55	C	-0.356890	-0.728659	0.356643
C56	C	0.143110	-0.228659	0.856643
C57	C	-0.356935	-0.412558	0.356621
C58	C	0.143065	0.087442	0.856621
C59	C	-0.549323	-1.070172	0.356585
C60	C	-0.049323	-0.570172	0.856585
C61	C	-0.631637	-1.070213	0.356598
C62	C	-0.131637	-0.570213	0.856598
C63	C	-0.782345	-1.070258	0.356624
C64	C	-0.282345	-0.570258	0.856624
C65	C	-0.813683	-1.127535	0.299442
C66	C	-0.313683	-0.627535	0.799442
C67	C	-0.899302	-1.127392	0.299232
C68	C	-0.399302	-0.627392	0.799232
C69	C	-0.930728	-1.070304	0.356648
C70	C	-0.430728	-0.570304	0.856648
C71	C	-0.899701	-0.992202	0.335655
C72	C	-0.399701	-0.492202	0.835655
C73	C	-0.814056	-0.992507	0.335226
C74	C	-0.314056	-0.492507	0.835226
C75	C	-0.813855	-1.090411	0.434947
C76	C	-0.313855	-0.590411	0.934947
C77	C	-0.899505	-1.092159	0.434544
C78	C	-0.399505	-0.592159	0.934544
C79	C	-1.014587	-1.070325	0.356664
C80	C	-0.514587	-0.570325	0.856664
C81	C	-0.698486	-1.070232	0.356606
C82	C	-0.198486	-0.570232	0.856606
C83	C	-0.163751	-1.070314	0.356655
C84	C	0.336249	-0.570314	0.856655
C85	C	-0.081436	-1.070349	0.356673
C86	C	0.418564	-0.570349	0.856673
C87	C	-0.356894	-1.070275	0.549774
C88	C	0.143106	-0.570275	1.049774
C89	C	-0.356886	-1.070294	0.632088
C90	C	0.143114	-0.570294	1.132088
C91	C	-0.356941	-0.263394	0.356603
C92	C	0.143059	0.236606	0.856603
C93	C	-0.356945	-0.345709	0.356612
C94	C	0.143055	0.154291	0.856612
C95	C	-0.356878	-1.070233	0.164201
C96	C	0.143122	-0.570233	0.664201
C97	C	-0.356677	-1.070358	0.081888
C98	C	0.143323	-0.570358	0.581888
C99	C	-0.356747	-1.070337	0.931179
C100	C	0.143253	-0.570337	1.431179
C101	C	-0.413788	-1.012883	0.899845
C102	C	0.086212	-0.512883	1.399845
C103	C	-0.414053	-1.013038	0.814227
C104	C	0.085947	-0.513038	1.314227
C105	C	-0.356816	-1.070315	0.782797
C106	C	0.143184	-0.570315	1.282797
C107	C	-0.378007	-1.148344	0.813881
C108	C	0.121993	-0.648344	1.313881
C109	C	-0.378381	-1.148024	0.899526
C110	C	0.121619	-0.648024	1.399526
C111	C	-0.278388	-1.050440	0.899609
C112	C	0.221612	-0.550440	1.399609
C113	C	-0.278840	-1.048704	0.813958
C114	C	0.221160	-0.548704	1.313958
C115	C	-0.356853	-1.070307	0.698937
C116	C	0.143147	-0.570307	1.198937
C117	C	-0.356711	-1.070350	1.015039
C118	C	0.143289	-0.570350	1.515039
H119	H	-0.339602	-0.635011	0.233937
H120	H	0.160398	-0.135011	0.733937
N121	N	-0.926361	-1.168290	0.455526
N122	N	-0.426361	-0.668290	0.955526
H123	H	-0.882591	-1.202069	0.463109
H124	H	-0.382591	-0.702069	0.963109
H125	H	-0.958630	-1.188479	0.414729
H126	H	-0.458630	-0.688479	0.914729
H127	H	-0.338639	-1.192284	0.920254
H128	H	0.161361	-0.692284	1.420254
N129	N	-0.928154	-0.969236	0.260663
N130	N	-0.428154	-0.469236	0.760663
H131	H	-0.957268	-0.921874	0.265465
H132	H	-0.457268	-0.421874	0.765465
H133	H	-0.961105	-1.009346	0.240221
H134	H	-0.461105	-0.509346	0.740221
H135	H	-0.793051	-1.185611	0.312401
H136	H	-0.293051	-0.685611	0.812401
N137	N	-0.252810	-0.976380	0.928217
N138	N	0.247190	-0.476380	1.428217
H139	H	-0.291764	-0.954976	0.961938
H140	H	0.208236	-0.454976	1.461938
H141	H	-0.244348	-0.941797	0.885258
H142	H	0.255652	-0.441797	1.385258
H143	H	-0.920894	-1.053514	0.479421
H144	H	-0.420894	-0.553514	0.979421
N145	N	-0.324701	-1.206576	0.786930
N146	N	0.175299	-0.706576	1.286930
H147	H	-0.286212	-1.182879	0.754230
H148	H	0.213788	-0.682879	1.254230
H149	H	-0.352551	-1.245229	0.757896
H150	H	0.147449	-0.745229	1.257896
H151	H	-0.920058	-0.948376	0.376031
H152	H	-0.420058	-0.448376	0.876031
N153	N	-0.220607	-0.640696	0.324759
N154	N	0.279393	-0.140696	0.824759
H155	H	-0.196543	-0.596991	0.299788
H156	H	0.303457	-0.096991	0.799788
H157	H	-0.244303	-0.673402	0.286267
H158	H	0.255697	-0.173402	0.786267
H159	H	-0.434680	-1.165501	0.792434
H160	H	0.065320	-0.665501	1.292434
H161	H	-0.792198	-1.114345	0.241738
H162	H	-0.292198	-0.614345	0.741738
N163	N	-0.926505	-1.109722	0.222370
N164	N	-0.426505	-0.609722	0.722370
H165	H	-0.882860	-1.101990	0.188494
H166	H	-0.382860	-0.601990	0.688494
H167	H	-0.957414	-1.063286	0.223811
H168	H	-0.457414	-0.563286	0.723811
H169	H	-0.794123	-0.975455	0.277979
H170	H	-0.294123	-0.475455	0.777979
H171	H	-0.792208	-1.146378	0.454084
H172	H	-0.292208	-0.646378	0.954084
N173	N	-0.257660	-0.972645	0.787046
N174	N	0.242340	-0.472645	1.287046
H175	H	-0.295423	-0.935488	0.804558
H176	H	0.204577	-0.435488	1.304558
H177	H	-0.255898	-0.972504	0.731280
H178	H	0.244102	-0.472504	1.231280
H179	H	-0.234085	-1.087496	0.792563
H180	H	0.265915	-0.587496	1.292563
H181	H	-0.401146	-0.633874	0.471885
H182	H	0.098854	-0.133874	0.971885
N183	N	-0.454260	-1.170355	0.925989
N184	N	0.045740	-0.670355	1.425989
H185	H	-0.476175	-1.129180	0.956605
H186	H	0.023825	-0.629180	1.456605
H187	H	-0.450240	-1.216544	0.957038
H188	H	0.049760	-0.716544	1.457038
N189	N	-0.787013	-1.035159	0.491383
N190	N	-0.287013	-0.535159	0.991383
H191	H	-0.754601	-0.997255	0.466379
H192	H	-0.254601	-0.497255	0.966379
H193	H	-0.757702	-1.061626	0.530815
H194	H	-0.257702	-0.561626	1.030815
N195	N	-0.786591	-0.934044	0.388009
N196	N	-0.286591	-0.434044	0.888009
H197	H	-0.830121	-0.908187	0.411449
H198	H	-0.330121	-0.408187	0.911449
H199	H	-0.755694	-0.896897	0.360123
H200	H	-0.255694	-0.396897	0.860123
H201	H	-0.334846	-0.507702	0.235798
H202	H	0.165154	-0.007702	0.735798
H203	H	-0.435840	-0.633934	0.262553
H204	H	0.064160	-0.133934	0.762553
N205	N	-0.927087	-1.204102	0.316580
N206	N	-0.427087	-0.704102	0.816580
H207	H	-0.908581	-1.219703	0.366863
H208	H	-0.408581	-0.719703	0.866863
H209	H	-0.908397	-1.239783	0.277980
H210	H	-0.408397	-0.739783	0.777980
N211	N	-0.490864	-0.641207	0.396086
N212	N	0.009136	-0.141207	0.896086
H213	H	-0.525057	-0.597840	0.388060
H214	H	-0.025057	-0.097840	0.888060
H215	H	-0.509644	-0.672129	0.438557
H216	H	-0.009644	-0.172129	0.938557
N217	N	-0.491299	-0.500468	0.396061
N218	N	0.008701	-0.000468	0.896061
H219	H	-0.489597	-0.467524	0.351057
H220	H	0.010403	0.032476	0.851057
H221	H	-0.511092	-0.471611	0.439511
H222	H	-0.011092	0.028389	0.939511
H223	H	-0.401491	-0.506243	0.471318
H224	H	0.098509	-0.006243	0.971318
N225	N	-0.256243	-0.642151	0.453061
N226	N	0.243757	-0.142151	0.953061
H227	H	-0.296382	-0.675145	0.473372
H228	H	0.203618	-0.175145	0.973372
H229	H	-0.248307	-0.599061	0.487598
H230	H	0.251693	-0.099061	0.987598
N231	N	-0.450773	-0.499344	0.252536
N232	N	0.049227	0.000656	0.752536
H233	H	-0.472227	-0.465629	0.291468
H234	H	0.027773	0.034371	0.791468
H235	H	-0.485336	-0.542297	0.244001
H236	H	0.014664	-0.042297	0.744001
N237	N	-0.396489	-0.936402	0.786365
N238	N	0.103511	-0.436402	1.286365
H239	H	-0.350212	-0.938056	0.755251
H240	H	0.149788	-0.438056	1.255251
H241	H	-0.388537	-0.902243	0.829754
H242	H	0.111463	-0.402243	1.329754
N243	N	-0.222089	-1.105867	0.926446
N244	N	0.277911	-0.605867	1.426446
H245	H	-0.247178	-1.143686	0.958895
H246	H	0.252822	-0.643686	1.458895
H247	H	-0.182565	-1.079522	0.955717
H248	H	0.317435	-0.579522	1.455717
H249	H	-0.262449	-0.508120	0.435688
H250	H	0.237551	-0.008120	0.935688
N251	N	-0.490974	-1.030470	0.787065
N252	N	0.009026	-0.530470	1.287065
H253	H	-0.509862	-0.988073	0.756077
H254	H	-0.009862	-0.488073	1.256077
H255	H	-0.524802	-1.038105	0.830762
H256	H	-0.024802	-0.538105	1.330762
N257	N	-0.396395	-0.936001	0.927112
N258	N	0.103605	-0.436001	1.427112
H259	H	-0.351374	-0.937665	0.960045
H260	H	0.148626	-0.437665	1.460045
H261	H	-0.439863	-0.916253	0.955976
H262	H	0.060137	-0.416253	1.455976
N263	N	-0.490256	-1.030122	0.928343
N264	N	0.009744	-0.530122	1.428343
H265	H	-0.509604	-0.986550	0.957327
H266	H	-0.009604	-0.486550	1.457327
H267	H	-0.488041	-1.075000	0.961428
H268	H	0.011959	-0.575000	1.461428
N269	N	-0.220584	-0.500605	0.325838
N270	N	0.279416	-0.000605	0.825838
H271	H	-0.170643	-0.519346	0.342240
H272	H	0.329357	-0.019346	0.842240
H273	H	-0.220429	-0.444811	0.325723
H274	H	0.279571	0.055189	0.825723
