data_functionalizedCrystal
_audit_creation_method	'MofGen! by Chris Wilmer'
_symmetry_space_group_name_H-M	'P1'
_symmetry_Int_Tables_number	1
_symmetry_cell_setting	triclinic
loop_
_symmetry_equiv_pos_as_xyz
  x,y,z
_cell_length_a	10.723024
_cell_length_b	9.565339
_cell_length_c	10.723024
_cell_angle_alpha	89.998597
_cell_angle_beta	84.467869
_cell_angle_gamma	90.003287
loop_
_atom_site_label
_atom_site_type_symbol
_atom_site_fract_x
_atom_site_fract_y
_atom_site_fract_z
O1	O	1.657188	0.116247	0.175018
O2	O	1.294035	0.116251	0.191772
O3	O	1.483988	0.116244	0.001819
O4	O	1.467235	0.116255	0.364971
O5	O	1.483973	-0.116276	0.001831
O6	O	1.294020	-0.116269	0.191783
O7	O	1.657173	-0.116273	0.175030
Zn8	Zn	1.475594	-0.153188	0.183409
Zn9	Zn	1.475614	0.153167	0.183393
O10	O	1.467220	-0.116266	0.364983
C11	C	1.247528	-0.000008	0.190558
C12	C	1.108974	-0.000006	0.186911
N13	N	1.475590	-0.362268	0.183419
C14	C	1.033991	-0.000002	0.293198
C15	C	0.890788	-0.000001	0.289431
C16	C	1.387716	-0.453467	0.271236
C17	C	1.500691	-0.546647	0.296416
C18	C	1.362663	-0.546644	0.158249
C19	C	1.588622	-0.453396	0.208655
C20	C	1.450520	-0.453384	0.070439
C21	C	1.563576	-0.546521	0.095571
C22	C	1.703680	-0.000010	0.176243
C23	C	1.842234	-0.000003	0.179891
C24	C	1.482762	-0.000014	-0.044675
C25	C	1.479114	-0.000009	-0.183229
N26	N	1.475628	0.362246	0.183373
C27	C	1.585401	-0.000009	-0.258212
C28	C	1.581634	-0.000004	-0.401415
C29	C	1.468447	-0.000004	0.411477
C30	C	1.472094	0.000000	0.550031
H31	H	1.075814	-0.000008	0.386984
F32	F	1.528443	-0.600193	0.421272
H33	H	1.381099	-0.000010	-0.385544
F34	F	0.926441	0.000003	0.060950
F35	F	0.806574	0.000014	0.408367
H36	H	1.267147	-0.587607	0.136980
F37	F	1.660833	-0.599599	-0.001527
F38	F	1.054316	-0.000019	0.064321
H39	H	1.429254	-0.412387	-0.025056
F40	F	1.290675	-0.400056	0.368391
H41	H	1.684160	-0.412608	0.230039
H42	H	1.679187	-0.000018	-0.216390
F43	F	1.700570	-0.000013	-0.485629
F44	F	1.356524	0.000005	-0.237887
