data_functionalizedCrystal
_audit_creation_method	'MofGen! by Chris Wilmer'
_symmetry_space_group_name_H-M	'P1'
_symmetry_Int_Tables_number	1
_symmetry_cell_setting	triclinic
loop_
_symmetry_equiv_pos_as_xyz
  x,y,z
_cell_length_a	10.908878
_cell_length_b	10.967829
_cell_length_c	10.065875
_cell_angle_alpha	86.921207
_cell_angle_beta	83.443480
_cell_angle_gamma	72.684712
loop_
_atom_site_label
_atom_site_type_symbol
_atom_site_fract_x
_atom_site_fract_y
_atom_site_fract_z
O1	O	1.712842	-0.205138	-0.065224
O2	O	1.343420	-0.112150	-0.087100
O3	O	1.529974	-0.334011	-0.034913
O4	O	1.526287	0.016723	-0.117412
O5	O	1.494408	-0.291565	0.182092
O6	O	1.307853	-0.069705	0.129904
O7	O	1.677275	-0.162692	0.151780
Zn8	Zn	1.486917	-0.109459	0.175296
Zn9	Zn	1.533778	-0.165383	-0.110616
O10	O	1.490720	0.059168	0.099593
C11	C	1.278210	-0.082237	0.019357
C12	C	1.136894	-0.056358	0.013268
C13	C	1.083375	-0.150788	0.035479
C14	C	0.937317	-0.124043	0.029186
C15	C	1.509235	-0.356985	0.083982
C16	C	1.500414	-0.488675	0.114950
C17	C	1.514906	-0.569368	0.016340
C18	C	1.505788	-0.705477	0.048343
C19	C	1.742485	-0.192606	0.045320
C20	C	1.883803	-0.218487	0.051400
C21	C	1.511460	0.082142	-0.019305
C22	C	1.520283	0.213830	-0.050281
N23	N	1.454945	-0.071295	0.370425
N24	N	1.565759	-0.203559	-0.305742
C25	C	1.522645	-0.152111	0.457213
C26	C	1.498049	-0.122732	0.607470
H27	H	1.145687	-0.251435	0.059147
O28	O	1.613381	-0.260714	0.413220
C29	C	1.684375	-0.490822	0.423310
C30	C	1.581504	-0.367940	0.473233
H31	H	1.658654	-0.577545	0.471829
H32	H	1.687994	-0.495253	0.309984
H33	H	1.782696	-0.490628	0.451226
H34	H	1.483130	-0.368051	0.445411
H35	H	1.577998	-0.363556	0.586550
H36	H	1.074583	0.044287	-0.010412
O37	O	1.482759	-0.743336	0.177272
C38	C	1.341372	-0.820783	0.338930
C39	C	1.367319	-0.777972	0.192874
H40	H	1.248027	-0.848772	0.351598
H41	H	1.424899	-0.906319	0.365180
H42	H	1.331944	-0.738855	0.408170
H43	H	1.376720	-0.859814	0.123537
H44	H	1.283782	-0.692399	0.166735
O45	O	1.406998	-0.014328	0.651476
C46	C	1.182485	0.108292	0.666605
C47	C	1.285461	-0.014537	0.616721
H48	H	1.084203	0.108176	0.638500
H49	H	1.178724	0.112681	0.779948
H50	H	1.208319	0.195005	0.618211
H51	H	1.259700	-0.101318	0.665016
H52	H	1.289201	-0.018814	0.503370
O53	O	1.656465	-0.312266	0.650467
C54	C	1.727179	-0.542365	0.661108
C55	C	1.624370	-0.419308	0.710682
H56	H	1.701282	-0.628939	0.709792
H57	H	1.730945	-0.547034	0.547790
H58	H	1.825484	-0.542213	0.689111
H59	H	1.526012	-0.419376	0.682773
H60	H	1.620718	-0.414687	0.823991
H61	H	0.875011	-0.023392	0.005505
H62	H	1.534057	-0.537686	-0.091777
O63	O	1.363899	0.037103	0.414437
C64	C	1.139385	0.159722	0.429566
C65	C	1.242362	0.036893	0.379682
H66	H	1.041104	0.159606	0.401462
H67	H	1.135625	0.164112	0.542910
H68	H	1.165220	0.246435	0.381172
H69	H	1.216601	-0.049888	0.427978
H70	H	1.246102	0.032616	0.266332
O71	O	0.957962	-0.338587	0.079833
C72	C	0.997523	-0.514618	0.238878
C73	C	0.913419	-0.378620	0.206836
H74	H	0.961559	-0.547016	0.341572
H75	H	0.991270	-0.582705	0.159964
H76	H	1.102078	-0.514777	0.238849
H77	H	0.808830	-0.378338	0.206884
H78	H	0.919782	-0.310592	0.285755
H79	H	1.539426	-0.754493	-0.158407
H80	H	1.481249	-0.520352	0.223065
