data_functionalizedCrystal
_audit_creation_method	'MofGen! by Chris Wilmer'
_symmetry_space_group_name_H-M	'P1'
_symmetry_Int_Tables_number	1
_symmetry_cell_setting	triclinic
loop_
_symmetry_equiv_pos_as_xyz
  x,y,z
_cell_length_a	31.640172
_cell_length_b	12.477989
_cell_length_c	12.477989
_cell_angle_alpha	60.281621
_cell_angle_beta	89.994287
_cell_angle_gamma	55.719356
loop_
_atom_site_label
_atom_site_type_symbol
_atom_site_fract_x
_atom_site_fract_y
_atom_site_fract_z
Zr1	Zr	0.374866	1.186896	-0.067904
O2	O	0.296741	1.433305	-0.234519
O3	O	0.402509	0.957072	-0.027655
O4	O	0.390246	1.210792	-0.250144
O5	O	0.314474	1.154952	0.175790
O6	O	0.459803	1.210775	-0.250153
O7	O	0.309004	1.179585	-0.012030
O8	O	0.481738	0.756916	0.147839
O9	O	0.292539	1.608811	-0.222202
O10	O	0.461745	1.045446	0.002586
O11	O	0.413918	1.027075	0.142760
O12	O	0.399481	1.325798	-0.119192
O13	O	0.351654	1.307427	0.020982
Zr14	Zr	0.494525	1.147581	0.231633
Zr15	Zr	0.485800	1.186869	-0.067918
Zr16	Zr	0.383591	1.147609	0.231647
Zr17	Zr	0.368163	1.466807	-0.048260
Zr18	Zr	0.501227	0.867670	0.211989
O19	O	0.466882	1.377405	0.191384
O20	O	0.454476	1.433267	-0.234539
O21	O	0.309147	1.377444	0.191404
O22	O	0.572650	0.901172	0.398248
O23	O	0.560244	0.957033	-0.027675
O24	O	0.414915	0.901211	0.398268
O25	O	0.554916	1.179525	-0.012061
O26	O	0.479144	1.123685	0.413873
O27	O	0.409588	1.123702	0.413882
O28	O	0.560387	1.154892	0.175759
O29	O	0.380717	1.608789	-0.222213
O30	O	0.488674	0.725688	0.385943
O31	O	0.576852	0.725666	0.385931
O32	O	0.569916	0.756895	0.147828
O33	O	0.299474	1.577583	0.015901
O34	O	0.387652	1.577561	0.015890
O35	O	0.469910	1.008679	0.282921
O36	O	0.517737	1.027050	0.142747
O37	O	0.455473	1.307402	0.020969
O38	O	0.407646	1.289031	0.161144
C39	C	0.443079	0.817113	0.057293
C40	C	0.445924	0.698283	0.048954
C41	C	0.295933	1.167273	0.081882
C42	C	0.248839	1.167284	0.081888
C43	C	-0.046179	1.180782	-0.021606
C44	C	-0.223166	1.180764	-0.021618
O45	O	-0.248599	1.192234	-0.109587
N46	N	-0.242283	1.167197	0.081853
C47	C	-0.217148	1.153622	0.185338
O48	O	-0.237465	1.142065	0.273353
C49	C	-0.040160	1.153628	0.185353
C50	C	-0.021049	1.167213	0.081869
C51	C	-0.027068	1.194364	-0.125081
C52	C	0.017174	1.194377	-0.125081
C53	C	0.042305	1.180808	-0.021606
C54	C	0.023193	1.167226	0.081869
C55	C	-0.015023	1.140042	0.288843
C56	C	0.029227	1.140041	0.288839
C57	C	0.048338	1.153626	0.185355
C58	C	0.092566	1.153670	0.185345
N59	N	0.111683	1.167238	0.081874
C60	C	0.086552	1.180807	-0.021601
C61	C	-0.310070	1.153623	0.185321
C62	C	-0.354317	1.153624	0.185316
C63	C	-0.360332	1.180763	-0.021638
C64	C	-0.316086	1.180774	-0.021637
C65	C	-0.290953	1.167191	0.081851
C66	C	0.179463	1.180834	-0.021593
C67	C	0.223708	1.180853	-0.021587
C68	C	0.229720	1.153705	0.185371
C69	C	0.185478	1.153695	0.185361
C70	C	0.160351	1.167256	0.081872
O71	O	0.118029	1.142188	0.273276
O72	O	0.106885	1.192326	-0.109587
C73	C	-0.090421	1.180769	-0.021606
C74	C	-0.109533	1.167187	0.081869
C75	C	-0.084402	1.153618	0.185344
C76	C	-0.153780	1.167188	0.081864
C77	C	-0.178911	1.180757	-0.021611
C78	C	-0.159794	1.194324	-0.125081
C79	C	-0.115552	1.194337	-0.125081
C80	C	-0.103519	1.140051	0.288814
C81	C	-0.147762	1.140041	0.288805
C82	C	-0.172893	1.153609	0.185330
C83	C	0.573457	1.167205	0.081847
C84	C	0.620552	1.167193	0.081841
C85	C	0.423781	1.216381	-0.292828
C86	C	0.420077	1.233059	-0.419995
C87	C	0.426312	1.517365	0.106436
C88	C	0.423467	1.636194	0.114775
C89	C	0.445609	1.118096	0.456558
C90	C	0.449313	1.101418	0.583725
C91	C	0.581841	0.817079	0.057276
C92	C	0.631780	0.698238	0.048930
C93	C	0.453992	0.767970	0.431986
C94	C	0.460542	0.632462	0.550814
C95	C	0.592755	0.767936	0.431969
C96	C	0.646398	0.632417	0.550791
C97	C	0.276636	1.566541	-0.268239
C98	C	0.222992	1.702060	-0.387061
C99	C	0.287550	1.517399	0.106454
C100	C	0.237610	1.636240	0.114799
C101	C	0.415398	1.566507	-0.268257
C102	C	0.408849	1.702015	-0.387085
C103	C	0.626005	0.652033	-0.028164
C104	C	0.672923	0.540388	-0.036032
C105	C	0.725617	0.474942	0.033203
C106	C	0.731391	0.521157	0.110300
C107	C	0.684473	0.632808	0.118160
C108	C	0.696560	0.578365	0.533421
C109	C	0.746967	0.451047	0.645057
C110	C	0.747213	0.377776	0.774060
C111	C	0.697046	0.431839	0.791428
C112	C	0.646639	0.559162	0.679794
C113	C	0.172831	1.756126	-0.369691
C114	C	0.122422	1.883479	-0.481324
C115	C	0.122177	1.956756	-0.610327
C116	C	0.172344	1.902685	-0.627695
C117	C	0.222751	1.775343	-0.516062
C118	C	0.243385	1.682458	0.191882
C119	C	0.196465	1.794138	0.199719
C120	C	0.143771	1.859589	0.130480
C121	C	0.137997	1.813367	0.053388
C122	C	0.184916	1.701698	0.045544
H123	H	0.402060	0.673955	0.177499
F124	F	0.172074	1.980686	-0.765000
H125	H	0.787810	0.407043	0.630892
F126	F	0.378345	0.834658	0.557947
H127	H	0.392207	1.358531	-0.520476
F128	F	0.697316	0.353841	0.928733
F129	F	-0.374659	1.139196	0.295445
F130	F	0.485733	0.937423	-0.284951
H131	H	0.263593	1.731325	-0.530222
F132	F	0.473899	0.648944	-0.033053
H133	H	0.180207	1.664071	-0.017221
H134	H	0.763816	0.384028	0.026793
F135	F	0.593256	0.616667	0.698300
F136	F	0.202622	1.843303	0.281777
H137	H	0.239265	1.191920	-0.105861
H138	H	0.496115	0.501833	0.590825
F139	F	0.690628	0.681961	0.200226
F140	F	0.696311	0.656331	0.396136
H141	H	0.668211	0.502774	-0.098812
F142	F	0.152728	1.195267	-0.131738
H143	H	0.583103	0.705322	-0.084561
H144	H	0.032733	1.205432	-0.209344
H145	H	-0.047525	1.205408	-0.209344
H146	H	0.286287	1.629173	0.248274
H147	H	0.774300	0.467854	0.166667
H148	H	-0.300529	1.191834	-0.105902
F149	F	0.173079	1.678158	-0.232406
F150	F	0.069037	1.940997	-0.462812
H151	H	0.105571	1.950515	0.136879
F152	F	-0.387085	1.195204	-0.131764
F153	F	0.081912	1.883036	-0.020291
H154	H	-0.289609	1.142563	0.269596
F155	F	0.055974	1.125578	0.398992
F156	F	-0.035353	1.125581	0.398986
H157	H	0.250187	1.142665	0.269616
F158	F	0.165134	1.139262	0.295491
F159	F	-0.095218	1.208795	-0.235223
H160	H	0.081128	2.060445	-0.701214
H161	H	-0.163321	1.128990	0.373074
F162	F	-0.186549	1.208773	-0.235211
H163	H	-0.083060	1.128999	0.373078
H164	H	0.788261	0.274102	0.864948
