data_functionalizedCrystal
_audit_creation_method	'MofGen! by Chris Wilmer'
_symmetry_space_group_name_H-M	'P1'
_symmetry_Int_Tables_number	1
_symmetry_cell_setting	triclinic
loop_
_symmetry_equiv_pos_as_xyz
  x,y,z
_cell_length_a	27.732064
_cell_length_b	27.731996
_cell_length_c	14.472310
_cell_angle_alpha	89.992904
_cell_angle_beta	89.994644
_cell_angle_gamma	82.635407
loop_
_atom_site_label
_atom_site_type_symbol
_atom_site_fract_x
_atom_site_fract_y
_atom_site_fract_z
O1	O	0.640917	0.057553	-0.076688
O2	O	0.500124	0.066291	-0.076728
O3	O	0.574906	-0.008476	-0.076687
O4	O	0.566135	0.132320	-0.076729
O5	O	0.574887	-0.008472	0.076995
O6	O	0.500104	0.066295	0.076954
O7	O	0.640898	0.057558	0.076994
Cu8	Cu	0.570500	0.061927	0.091007
Cu9	Cu	0.570522	0.061922	-0.090740
O10	O	0.566115	0.132325	0.076953
C11	C	0.482107	0.066108	0.000109
C12	C	0.428453	0.065552	0.000094
C13	C	0.051389	0.017584	0.000161
C14	C	0.253049	0.019630	0.000137
O15	O	0.284309	-0.017592	0.000183
N16	N	0.272168	0.063966	0.000119
C17	C	0.240869	0.107793	0.000114
O18	O	0.261758	0.145549	0.000108
C19	C	0.039210	0.105746	0.000145
C20	C	0.020094	0.061407	0.000153
C21	C	0.032272	-0.026751	0.000171
C22	C	-0.018140	-0.027262	0.000172
C23	C	-0.049435	0.016562	0.000164
C24	C	-0.030318	0.060896	0.000155
C25	C	0.007912	0.149572	0.000147
C26	C	-0.042506	0.149057	0.000157
C27	C	-0.061622	0.104718	0.000165
C28	C	-0.112026	0.104209	0.000148
N29	N	-0.131145	0.059873	0.000165
C30	C	-0.099849	0.016050	0.000173
C31	C	0.346743	0.108864	0.000096
C32	C	0.397158	0.109376	0.000086
C33	C	0.409334	0.021213	0.000111
C34	C	0.358919	0.020702	0.000114
C35	C	0.327624	0.064529	0.000113
C36	C	-0.205719	0.014980	0.000175
C37	C	-0.256136	0.014473	0.000172
C38	C	-0.268308	0.102635	0.000152
C39	C	-0.217895	0.103142	0.000150
C40	C	-0.186601	0.059311	0.000165
O41	O	-0.143313	0.141411	0.000112
O42	O	-0.120748	-0.021702	0.000200
C43	C	0.101801	0.018095	0.000160
C44	C	0.120918	0.062430	0.000151
C45	C	0.089623	0.106253	0.000143
C46	C	0.171332	0.062941	0.000142
C47	C	0.202628	0.019118	0.000150
C48	C	0.183508	-0.025218	0.000167
C49	C	0.133096	-0.025729	0.000168
C50	C	0.108742	0.150589	0.000126
C51	C	0.159154	0.151096	0.000124
C52	C	0.190450	0.107273	0.000132
C53	C	0.574717	-0.026482	0.000158
C54	C	0.574174	-0.080138	0.000167
C55	C	0.570770	-0.412857	-0.083651
C56	C	0.568709	-0.614515	-0.083668
O57	O	0.568430	-0.640588	-0.154914
N58	N	0.568442	-0.639730	0.000103
C59	C	0.568688	-0.614526	0.083884
O60	O	0.568409	-0.640600	0.155137
C61	C	0.570745	-0.412868	0.083900
C62	C	0.571017	-0.387657	0.000124
C63	C	0.571040	-0.387645	-0.167421
C64	C	0.571558	-0.337234	-0.167416
C65	C	0.571805	-0.312034	-0.083641
C66	C	0.571535	-0.337246	0.000129
C67	C	0.570988	-0.387666	0.167681
C68	C	0.571501	-0.337248	0.167677
C69	C	0.571772	-0.312036	0.083901
C70	C	0.572300	-0.261635	0.083909
N71	N	0.572566	-0.236420	0.000137
C72	C	0.572319	-0.261620	-0.083637
C73	C	0.567609	-0.720400	0.083870
C74	C	0.567095	-0.770814	0.083866
C75	C	0.567115	-0.770799	-0.083686
C76	C	0.567632	-0.720384	-0.083682
C77	C	0.567875	-0.695185	0.000099
C78	C	0.573407	-0.155753	-0.083621
C79	C	0.573927	-0.105337	-0.083608
C80	C	0.573904	-0.105356	0.083944
C81	C	0.573387	-0.155768	0.083932
C82	C	0.573137	-0.180964	0.000142
O83	O	0.572573	-0.235530	0.155117
O84	O	0.572587	-0.235537	-0.154879
C85	C	0.570252	-0.463268	-0.083656
C86	C	0.569981	-0.488479	0.000113
C87	C	0.570228	-0.463280	0.083888
C88	C	0.569467	-0.538894	0.000110
C89	C	0.569220	-0.564093	-0.083665
C90	C	0.569487	-0.538879	-0.167436
C91	C	0.570005	-0.488468	-0.167431
C92	C	0.569962	-0.488495	0.167660
C93	C	0.569444	-0.538906	0.167648
C94	C	0.569197	-0.564106	0.083873
C95	C	0.658915	0.057740	0.000156
C96	C	0.712569	0.058296	0.000164
C97	C	0.566305	0.150330	0.000107
C98	C	0.566848	0.203986	0.000092
N99	N	0.570487	0.061930	0.218838
N100	N	0.570538	0.061914	-0.218571
C101	C	0.570522	0.061920	0.592929
C102	C	0.530375	0.101794	0.553741
C103	C	0.530465	0.101937	0.446653
C104	C	0.570504	0.061925	0.407338
C105	C	0.620857	0.072568	0.446185
C106	C	0.620631	0.072851	0.553307
C107	C	0.560767	0.011282	0.553470
C108	C	0.559608	0.011629	0.446342
C109	C	0.570497	0.061927	0.302450
C110	C	0.570532	0.061919	0.697817
H111	H	-0.271697	-0.021635	0.000176
C112	C	0.662160	0.034357	0.411779
N113	N	0.693270	0.005576	0.385862
H114	H	0.321266	0.144555	0.000094
C115	C	0.574171	-0.077627	0.176092
N116	N	0.574367	-0.056738	0.245499
C117	C	0.028928	0.198349	0.000153
N118	N	0.044756	0.235090	0.000164
C119	C	0.337896	-0.028073	0.000133
N120	N	0.322065	-0.064813	0.000152
H121	H	0.570837	-0.408157	-0.235645
H122	H	0.586979	-0.019405	0.419584
H123	H	-0.293798	0.138315	0.000141
C124	C	0.180175	0.199875	0.000118
N125	N	0.196007	0.236615	0.000125
C126	C	-0.196867	0.151916	0.000131
N127	N	-0.181032	0.188654	0.000125
H128	H	0.493025	0.095652	0.420389
C129	C	-0.171302	-0.033237	0.000183
N130	N	-0.145380	-0.069554	0.000183
H131	H	0.057749	-0.062439	0.000180
H132	H	0.412717	0.145480	0.000067
H133	H	0.573171	-0.176297	0.152150
H134	H	-0.033699	-0.063367	0.000182
H135	H	0.536654	0.139522	0.421010
H136	H	0.522570	0.003543	0.420952
C137	C	0.538616	0.152285	0.590080
N138	N	0.544825	0.190315	0.617453
C139	C	0.567926	-0.692656	-0.175842
N140	N	0.568146	-0.671773	-0.245261
H141	H	0.571691	-0.316732	0.235903
C142	C	0.217943	-0.073424	0.000181
N143	N	0.243881	-0.109730	0.000199
C144	C	0.443768	-0.026993	0.000127
N145	N	0.469706	-0.063300	0.000148
C146	C	0.567879	-0.692687	0.176042
N147	N	0.568085	-0.671817	0.245467
H148	H	-0.067984	0.184746	0.000161
H149	H	0.524868	0.000955	0.580531
H150	H	0.117537	-0.061833	0.000175
C151	C	0.574224	-0.077608	-0.175773
N152	N	0.574446	-0.056723	-0.245189
C153	C	0.600323	-0.028800	0.587713
N154	N	0.630117	-0.058986	0.613511
H155	H	0.570225	-0.467945	-0.235651
H156	H	0.083265	0.186276	0.000120
H157	H	0.573201	-0.176262	-0.151850
C158	C	0.566839	-0.798528	-0.175840
N159	N	0.566627	-0.819414	-0.245246
H160	H	0.571777	-0.316711	-0.235636
C161	C	0.566801	-0.798542	0.176027
N162	N	0.566577	-0.819424	0.245446
H163	H	0.570767	-0.408184	0.235901
C164	C	0.569213	-0.566608	-0.259589
N165	N	0.569004	-0.587496	-0.328994
H166	H	0.569227	-0.559429	0.235874
C167	C	0.570235	-0.460782	0.259824
N168	N	0.570444	-0.439912	0.329248
H169	H	0.629286	0.109769	0.578274
C170	C	0.479629	0.093458	0.588589
N171	N	0.441407	0.087182	0.614849
C172	C	0.662185	0.035094	0.588329
N173	N	0.693488	0.006663	0.614704
H174	H	0.629728	0.109063	0.419340
