data_functionalizedCrystal
_audit_creation_method	'MofGen! by Chris Wilmer'
_symmetry_space_group_name_H-M	'P1'
_symmetry_Int_Tables_number	1
_symmetry_cell_setting	triclinic
loop_
_symmetry_equiv_pos_as_xyz
  x,y,z
_cell_length_a	12.827893
_cell_length_b	21.295417
_cell_length_c	12.827885
_cell_angle_alpha	89.962947
_cell_angle_beta	89.980538
_cell_angle_gamma	90.029863
loop_
_atom_site_label
_atom_site_type_symbol
_atom_site_fract_x
_atom_site_fract_y
_atom_site_fract_z
Zn1	Zn	1.597568	-0.250576	-0.590796
Zn2	Zn	2.097568	0.249424	-0.090796
Zn3	Zn	1.597418	-0.355858	-0.416034
Zn4	Zn	2.097418	0.144142	0.083966
Zn5	Zn	1.422808	-0.250607	-0.416070
Zn6	Zn	1.922808	0.249393	0.083930
Zn7	Zn	1.422751	-0.355812	-0.590734
Zn8	Zn	1.922751	0.144188	-0.090734
O9	O	1.510136	-0.303213	-0.503408
O10	O	2.010136	0.196787	-0.003408
O11	O	1.743784	-0.264548	-0.567624
O12	O	2.243784	0.235452	-0.067624
O13	O	1.574217	-0.341929	-0.269803
O14	O	2.074217	0.158071	0.230197
O15	O	1.446078	-0.162514	-0.439288
O16	O	1.946078	0.337486	0.060712
O17	O	1.743673	-0.341899	-0.439228
O18	O	2.243673	0.158101	0.060772
O19	O	1.574472	-0.162491	-0.567659
O20	O	2.074472	0.337509	-0.067659
O21	O	1.445932	-0.264601	-0.269829
O22	O	1.945932	0.235399	0.230171
O23	O	1.276565	-0.264556	-0.439228
O24	O	1.776565	0.235444	0.060772
O25	O	1.445979	-0.341819	-0.736978
O26	O	1.945979	0.158181	-0.236978
O27	O	1.276522	-0.341850	-0.567553
O28	O	1.776522	0.158150	-0.067553
O29	O	1.574416	-0.264503	-0.737024
O30	O	2.074416	0.235497	-0.237024
O31	O	1.574161	-0.443941	-0.439168
O32	O	2.074161	0.056059	0.060832
O33	O	1.445834	-0.443907	-0.567519
O34	O	1.945834	0.056093	-0.067519
C35	C	1.238626	-0.303202	-0.503388
C36	C	1.738626	0.196798	-0.003388
C37	C	1.122473	-0.303212	-0.503405
C38	C	1.622473	0.196788	-0.003405
C39	C	1.070743	-0.265004	-0.567039
C40	C	1.570743	0.234996	-0.067039
C41	C	0.950692	-0.265014	-0.567057
C42	C	1.450692	0.234986	-0.067057
C43	C	1.510003	-0.466765	-0.503355
C44	C	2.010003	0.033235	-0.003355
C45	C	1.510042	-0.536733	-0.503368
C46	C	2.010042	-0.036733	-0.003368
C47	C	1.576858	-0.569531	-0.570258
C48	C	2.076858	-0.069531	-0.070258
C49	C	1.576895	-0.635273	-0.570284
C50	C	2.076895	-0.135273	-0.070284
C51	C	1.510126	-0.668215	-0.503401
C52	C	2.010126	-0.168215	-0.003401
C53	C	1.443296	-0.635410	-0.436506
C54	C	1.943296	-0.135410	0.063494
C55	C	1.443254	-0.569669	-0.436489
C56	C	1.943254	-0.069669	0.063511
N57	N	1.502230	-0.771484	-0.411945
N58	N	2.002230	-0.271484	0.088055
N59	N	1.502276	-0.833935	-0.411964
N60	N	2.002276	-0.333935	0.088036
C61	C	1.510248	-0.866290	-0.503448
C62	C	2.010248	-0.366290	-0.003448
N63	N	1.518193	-0.833834	-0.594915
N64	N	2.018193	-0.333834	-0.094915
N65	N	1.518152	-0.771377	-0.594895
N66	N	2.018152	-0.271377	-0.094895
C67	C	1.510164	-0.739501	-0.503412
C68	C	2.010164	-0.239501	-0.003412
C69	C	1.577109	-0.970373	-0.570372
C70	C	2.077109	-0.470373	-0.070372
C71	C	1.577138	-1.036117	-0.570399
C72	C	2.077138	-0.536117	-0.070399
C73	C	1.443545	-1.036252	-0.436612
C74	C	1.943545	-0.536252	0.063388
C75	C	1.443510	-0.970510	-0.436594
C76	C	1.943510	-0.470510	0.063406
C77	C	1.510297	-0.937574	-0.503472
C78	C	2.010297	-0.437574	-0.003472
C79	C	1.782706	-0.303225	-0.503429
C80	C	2.282706	0.196775	-0.003429
C81	C	1.898859	-0.303230	-0.503438
C82	C	2.398859	0.196770	-0.003438
C83	C	1.510208	-0.303153	-0.775979
C84	C	2.010208	0.196847	-0.275979
C85	C	1.510239	-0.303127	-0.892132
C86	C	2.010239	0.196873	-0.392132
C87	C	1.510298	-0.139023	-0.503484
C88	C	2.010298	0.360977	-0.003484
C89	C	1.510367	-0.069055	-0.503517
C90	C	2.010367	0.430945	-0.003517
C91	C	1.446780	-0.264855	-0.943930
C92	C	1.946780	0.235145	-0.443930
C93	C	1.446810	-0.264828	-1.063980
C94	C	1.946810	0.235172	-0.563980
C95	C	1.510124	-0.303228	-0.231898
C96	C	2.010124	0.196772	0.268102
C97	C	1.510296	-0.303076	-0.115746
C98	C	2.010296	0.196924	0.384254
H99	H	1.115331	-0.232284	-0.621500
H100	H	1.615331	0.267716	-0.121500
H101	H	0.906205	-0.232305	-0.621539
H102	H	1.406205	0.267695	-0.121539
H103	H	1.631297	-0.661982	-0.624766
H104	H	2.131297	-0.161982	-0.124766
C105	C	1.373359	-0.220611	-0.883775
C106	C	1.873359	0.279389	-0.383775
N107	N	1.318060	-0.187282	-0.838468
N108	N	1.818060	0.312718	-0.338468
H109	H	0.943340	-0.335946	-0.448961
H110	H	1.443340	0.164054	0.051039
C111	C	1.370083	-1.072485	-0.363053
C112	C	1.870083	-0.572485	0.136947
N113	N	1.314744	-1.099779	-0.307653
N114	N	1.814744	-0.599779	0.192347
H115	H	1.389106	-0.943804	-0.382121
H116	H	1.889106	-0.443804	0.117879
H117	H	1.564633	-0.335841	-1.071208
H118	H	2.064633	0.164159	-0.571208
H119	H	1.564590	-0.335873	-0.936663
H120	H	2.064590	0.164127	-0.436663
C121	C	1.650333	-0.533305	-0.643821
C122	C	2.150333	-0.033305	-0.143821
N123	N	1.705677	-0.506019	-0.699227
N124	N	2.205677	-0.006019	-0.199227
H125	H	1.077885	-0.335928	-0.448937
H126	H	1.577885	0.164072	0.051063
H127	H	1.392485	-0.232059	-1.108525
H128	H	1.892485	0.267941	-0.608525
C129	C	1.369891	-0.671648	-0.362893
C130	C	1.869891	-0.171648	0.137107
N131	N	1.314612	-0.698942	-0.307434
N132	N	1.814612	-0.198942	0.192566
H133	H	1.388842	-0.542964	-0.382018
H134	H	1.888842	-0.042964	0.117982
C135	C	1.650561	-0.934142	-0.643953
C136	C	2.150561	-0.434142	-0.143953
N137	N	1.705884	-0.906854	-0.699378
N138	N	2.205884	-0.406854	-0.199378
C139	C	1.650651	-1.072194	-0.643983
C140	C	2.150651	-0.572194	-0.143983
N141	N	1.706027	-1.099368	-0.699404
N142	N	2.206027	-0.599368	-0.199404
