data_functionalizedCrystal
_audit_creation_method	'MofGen! by Chris Wilmer'
_symmetry_space_group_name_H-M	'P1'
_symmetry_Int_Tables_number	1
_symmetry_cell_setting	triclinic
loop_
_symmetry_equiv_pos_as_xyz
  x,y,z
_cell_length_a	20.016444
_cell_length_b	18.878441
_cell_length_c	18.878441
_cell_angle_alpha	90.000248
_cell_angle_beta	60.001373
_cell_angle_gamma	59.999432
loop_
_atom_site_label
_atom_site_type_symbol
_atom_site_fract_x
_atom_site_fract_y
_atom_site_fract_z
Zr1	Zr	0.731287	0.682366	-0.092957
O2	O	0.870662	0.569256	-0.206055
O3	O	0.591912	0.717041	-0.058289
O4	O	0.731292	0.717034	-0.206065
O5	O	0.731278	0.569268	0.058293
O6	O	0.731296	0.833602	-0.206069
O7	O	0.731282	0.569264	-0.058279
O8	O	0.481971	0.833615	0.058275
O9	O	0.980603	0.569255	-0.206051
O10	O	0.649242	0.818822	-0.043503
O11	O	0.649236	0.731832	0.043496
O12	O	0.813338	0.731823	-0.130490
O13	O	0.813332	0.644833	-0.043491
Zr14	Zr	0.731287	0.868285	0.092956
Zr15	Zr	0.731293	0.868278	-0.092963
Zr16	Zr	0.731281	0.682373	0.092962
Zr17	Zr	0.906631	0.682363	-0.092950
Zr18	Zr	0.555943	0.868288	0.092950
O19	O	0.870662	0.833610	0.058289
O20	O	0.870671	0.833600	-0.206064
O21	O	0.870653	0.569266	0.058298
O22	O	0.591912	0.981395	0.206054
O23	O	0.591921	0.981385	-0.058298
O24	O	0.591903	0.717051	0.206063
O25	O	0.731296	0.981383	-0.058293
O26	O	0.731282	0.833617	0.206064
O27	O	0.731278	0.717049	0.206068
O28	O	0.731292	0.981387	0.058279
O29	O	0.980608	0.717030	-0.206056
O30	O	0.481966	0.833621	0.206055
O31	O	0.481971	0.981396	0.206050
O32	O	0.481976	0.981391	0.058270
O33	O	0.980599	0.569260	-0.058271
O34	O	0.980603	0.717036	-0.058276
O35	O	0.649236	0.818828	0.130490
O36	O	0.649242	0.905818	0.043490
O37	O	0.813338	0.818819	-0.043497
O38	O	0.813332	0.731829	0.043502
C39	C	0.511959	0.775329	-0.000008
C40	C	0.437521	0.775330	-0.000011
C41	C	0.196306	0.820738	-0.045407
C42	C	0.266252	0.820738	-0.045413
C43	C	0.266265	0.729907	0.045408
C44	C	0.196325	0.729903	0.045408
C45	C	0.161344	0.775323	0.000003
C46	C	0.301230	0.775328	-0.000003
C47	C	0.377068	0.775327	-0.000009
C48	C	0.085502	0.775322	0.000007
C49	C	0.731279	0.542778	0.000008
C50	C	0.731277	0.463853	0.000010
C51	C	0.731295	0.775317	-0.232556
C52	C	0.731298	0.775314	-0.311484
C53	C	0.950616	0.775322	0.000007
C54	C	1.025054	0.775321	0.000010
C55	C	0.645621	0.472184	0.045414
C56	C	0.645624	0.398023	0.045414
C57	C	0.731284	0.315532	0.000006
C58	C	0.816946	0.307202	-0.045399
C59	C	0.816942	0.381362	-0.045394
C60	C	0.816949	0.152632	-0.045408
C61	C	0.816953	0.078467	-0.045414
C62	C	0.645631	0.169293	0.045400
C63	C	0.645627	0.243453	0.045405
C64	C	0.731289	0.235118	-0.000001
C65	C	0.731295	1.007873	-0.000008
C66	C	0.731298	1.086798	-0.000011
C67	C	0.816953	0.729901	-0.393971
C68	C	0.816950	0.729909	-0.468128
C69	C	0.731290	0.775326	-0.459797
C70	C	0.645628	0.820744	-0.377302
C71	C	0.645632	0.820740	-0.303146
C72	C	0.645626	0.820747	-0.531869
C73	C	0.645621	0.820750	-0.606030
C74	C	0.816943	0.729917	-0.696852
C75	C	0.816947	0.729913	-0.622696
C76	C	0.731285	0.775330	-0.540205
C77	C	0.731279	0.775334	0.232556
C78	C	0.731277	0.775337	0.311483
C79	C	0.511967	1.007876	-0.000016
C80	C	0.437531	1.086802	-0.000021
C81	C	0.511951	0.775337	0.232548
C82	C	0.437510	0.775342	0.311473
C83	C	0.511959	1.007885	0.232540
C84	C	0.437521	1.086814	0.311462
C85	C	0.950616	0.542766	-0.232541
C86	C	1.025054	0.463837	-0.311463
C87	C	0.950608	0.542775	0.000015
C88	C	1.025043	0.463849	0.000021
C89	C	0.950623	0.775313	-0.232549
C90	C	1.025064	0.775309	-0.311473
C91	C	0.402575	1.078455	-0.045441
C92	C	0.332645	1.152607	-0.045464
C93	C	0.297667	1.235105	-0.000060
C94	C	0.332630	1.243450	0.045361
C95	C	0.402563	1.169299	0.045378
C96	C	0.402552	0.820755	0.393954
C97	C	0.332617	0.820755	0.468119
C98	C	0.297636	0.775347	0.459802
C99	C	0.332601	0.729928	0.377311
C100	C	0.402540	0.729923	0.303148
C101	C	0.402567	1.169295	0.303112
C102	C	0.332634	1.243464	0.377261
C103	C	0.297652	1.235150	0.459759
C104	C	0.332612	1.152660	0.468107
C105	C	0.402549	1.078493	0.393959
C106	C	1.060016	0.381356	-0.303113
C107	C	1.129970	0.307187	-0.377261
C108	C	1.164956	0.315501	-0.459759
C109	C	1.129991	0.397991	-0.468108
C110	C	1.060043	0.472158	-0.393960
C111	C	1.060006	0.472196	0.045433
C112	C	1.129956	0.398044	0.045435
C113	C	1.164936	0.315546	0.000029
C114	C	1.129970	0.307201	-0.045389
C115	C	1.060027	0.381352	-0.045395
C116	C	1.060022	0.820726	-0.303128
C117	C	1.129958	0.820740	-0.377279
C118	C	1.164939	0.775330	-0.459775
C119	C	1.129974	0.729912	-0.468119
C120	C	1.060034	0.729904	-0.393969
H121	H	0.167860	0.692916	0.082386
F122	F	1.022819	0.372455	-0.093727
F123	F	0.295436	1.331248	0.368358
H124	H	1.031579	0.692917	-0.400776
F125	F	1.167168	0.219403	-0.368358
F126	F	0.223235	1.314017	-0.000085
F127	F	0.439792	0.990661	-0.093772
H128	H	0.575867	0.539349	0.082394
H129	H	0.304120	1.145903	0.535287
H130	H	0.886705	0.011300	-0.082390
F131	F	0.439734	0.681590	0.215367
H132	H	0.886699	0.692926	-0.629485
H133	H	0.240688	0.775358	0.520197
H134	H	0.575875	0.404815	0.082388
F135	F	0.554453	0.869091	-0.597160
F136	F	0.159080	0.869077	-0.093732
H137	H	1.158413	0.404856	0.082423
H138	H	0.886692	0.374573	-0.082355
H139	H	0.304187	1.145795	-0.082451
H140	H	0.294753	0.692929	0.082376
F141	F	0.439789	1.178164	0.215319
H142	H	1.158486	0.404750	-0.535286
H143	H	0.575883	0.857728	-0.370524
F144	F	0.223218	1.314094	0.538667
H145	H	0.304110	0.692958	0.370552
F146	F	0.295391	1.331258	0.093681
H147	H	0.575875	0.310620	0.082372
F148	F	0.439738	0.990712	0.402859
F149	F	0.554453	0.869098	-0.444076
H150	H	1.031534	0.374569	-0.235946
F151	F	1.022835	0.559939	-0.402860
F152	F	0.908121	0.143758	-0.093732
F153	F	0.439766	0.869091	0.402826
F154	F	0.554466	0.869082	-0.215355
F155	F	0.908112	0.219406	-0.093720
H156	H	0.431015	1.176108	0.082369
H157	H	1.158419	0.857723	-0.370468
H158	H	0.575881	0.176077	0.082366
F159	F	0.908117	0.681574	-0.555917
F160	F	1.239402	0.236557	-0.538667
H161	H	1.031530	0.539363	0.082413
H162	H	1.221889	0.255174	0.000041
H163	H	1.158462	0.240021	-0.082357
F164	F	0.908126	0.681560	-0.402848
H165	H	1.031552	0.857704	-0.235962
H166	H	0.886693	0.692932	-0.764021
H167	H	1.221888	0.775343	-0.520146
H168	H	0.304157	0.857744	0.535279
H169	H	0.294718	0.857717	-0.082390
F170	F	1.167218	0.681580	-0.555924
