data_functionalizedCrystal
_audit_creation_method	'MofGen! by Chris Wilmer'
_symmetry_space_group_name_H-M	'P1'
_symmetry_Int_Tables_number	1
_symmetry_cell_setting	triclinic
loop_
_symmetry_equiv_pos_as_xyz
  x,y,z
_cell_length_a	12.759401
_cell_length_b	21.295417
_cell_length_c	12.759393
_cell_angle_alpha	89.960830
_cell_angle_beta	89.980316
_cell_angle_gamma	90.029621
loop_
_atom_site_label
_atom_site_type_symbol
_atom_site_fract_x
_atom_site_fract_y
_atom_site_fract_z
Zn1	Zn	1.606140	-0.250587	-0.593959
Zn2	Zn	1.605986	-0.355871	-0.418256
Zn3	Zn	1.430442	-0.250618	-0.418295
Zn4	Zn	1.430382	-0.355821	-0.593894
O5	O	1.518237	-0.303224	-0.506101
O6	O	1.753141	-0.264561	-0.570663
O7	O	1.582660	-0.341943	-0.271240
O8	O	1.453838	-0.162524	-0.441641
O9	O	1.753027	-0.341913	-0.441574
O10	O	1.582923	-0.162502	-0.570701
O11	O	1.453689	-0.264614	-0.271269
O12	O	1.283413	-0.264565	-0.441577
O13	O	1.453736	-0.341827	-0.740924
O14	O	1.283369	-0.341857	-0.570589
O15	O	1.582865	-0.264512	-0.740972
O16	O	1.582602	-0.443954	-0.441511
O17	O	1.453587	-0.443917	-0.570551
C18	C	1.245270	-0.303210	-0.506081
C19	C	1.128493	-0.303218	-0.506097
C20	C	1.073624	-0.262920	-0.439045
C21	C	0.963899	-0.262935	-0.439058
C22	C	0.963925	-0.343549	-0.573186
C23	C	1.073647	-0.343537	-0.573167
C24	C	1.073608	-0.216375	-0.361610
C25	C	0.963884	-0.216390	-0.361623
C26	C	1.518100	-0.466776	-0.506043
C27	C	1.518137	-0.536744	-0.506053
C28	C	1.585375	-0.569609	-0.438930
C29	C	1.585424	-0.635351	-0.438954
C30	C	1.518217	-0.668226	-0.506089
C31	C	1.450974	-0.635353	-0.573225
C32	C	1.450934	-0.569612	-0.573207
N33	N	1.426309	-0.771491	-0.514092
N34	N	1.426350	-0.833942	-0.514103
C35	C	1.518334	-0.866301	-0.506149
N36	N	1.610278	-0.833849	-0.498164
N37	N	1.610236	-0.771392	-0.498147
C38	C	1.518253	-0.739512	-0.506117
C39	C	1.585631	-0.970452	-0.439049
C40	C	1.585682	-1.036195	-0.439080
C41	C	1.451223	-1.036196	-0.573345
C42	C	1.451181	-0.970454	-0.573320
C43	C	1.518384	-0.937585	-0.506166
C44	C	1.792271	-0.303239	-0.506121
C45	C	1.909047	-0.303246	-0.506130
C46	C	1.518311	-0.303161	-0.780134
C47	C	1.518342	-0.303134	-0.896911
C48	C	1.518404	-0.139034	-0.506182
C49	C	1.518475	-0.069066	-0.506217
C50	C	1.585589	-0.262872	-0.951800
C51	C	1.585614	-0.262849	-1.061524
C52	C	1.451143	-0.343355	-1.061461
C53	C	1.451113	-0.343374	-0.951739
C54	C	1.663228	-0.216394	-0.951837
C55	C	1.663253	-0.216372	-1.061561
C56	C	1.518225	-0.303242	-0.233133
C57	C	1.518397	-0.303092	-0.116357
H58	H	1.118318	-0.376358	-0.627757
C59	C	1.376977	-0.533460	-0.647063
N60	N	1.321275	-0.506228	-0.702697
C61	C	1.659571	-0.934294	-0.365195
N62	N	1.715266	-0.907062	-0.309571
H63	H	0.934143	-0.167655	-0.383570
C64	C	0.903584	-0.387894	-0.646963
N65	N	0.858136	-0.421295	-0.702535
C66	C	1.767618	-0.239988	-0.905848
N67	N	1.846247	-0.257755	-0.871208
C68	C	1.659388	-0.671510	-0.365106
N69	N	1.715096	-0.698743	-0.309480
C70	C	1.659653	-1.072347	-0.365235
N71	N	1.715367	-1.099576	-0.309611
H72	H	1.107681	-0.170082	-0.390898
C73	C	1.624001	-0.153784	-1.107577
N74	N	1.594448	-0.106642	-1.142237
H75	H	1.744618	-0.229430	-1.091338
C76	C	1.113772	-0.233934	-0.251624
N77	N	1.144023	-0.247161	-0.168784
C78	C	1.659289	-0.533458	-0.365048
N79	N	1.714957	-0.506227	-0.309394
C80	C	0.917839	-0.239902	-0.257127
N81	N	0.883156	-0.257609	-0.178422
C82	C	1.377295	-1.072355	-0.647197
N83	N	1.321613	-1.099593	-0.702826
C84	C	1.377042	-0.671517	-0.647070
N85	N	1.321355	-0.698756	-0.702693
H86	H	1.396425	-0.943693	-0.627973
H87	H	1.396351	-0.376157	-0.907053
H88	H	1.396405	-0.376116	-1.106115
C89	C	1.633842	-0.150537	-0.911647
N90	N	1.611705	-0.100935	-0.881376
