data_functionalizedCrystal
_audit_creation_method	'MofGen! by Chris Wilmer'
_symmetry_space_group_name_H-M	'P1'
_symmetry_Int_Tables_number	1
_symmetry_cell_setting	triclinic
loop_
_symmetry_equiv_pos_as_xyz
  x,y,z
_cell_length_a	16.120484
_cell_length_b	16.120490
_cell_length_c	16.120297
_cell_angle_alpha	90.129683
_cell_angle_beta	95.614431
_cell_angle_gamma	90.164100
loop_
_atom_site_label
_atom_site_type_symbol
_atom_site_fract_x
_atom_site_fract_y
_atom_site_fract_z
Zn1	Zn	-0.422331	1.224990	-0.554787
Zn2	Zn	-0.555015	1.224886	-0.422092
Zn3	Zn	-0.408239	1.093729	-0.408032
Zn4	Zn	-0.554239	1.078882	-0.554027
O5	O	-0.484956	1.155622	-0.484735
O6	O	-0.446153	1.341012	-0.543386
O7	O	-0.529972	1.213657	-0.303594
O8	O	-0.293478	1.117398	-0.421933
O9	O	-0.543636	1.340936	-0.445896
O10	O	-0.303831	1.213835	-0.529753
O11	O	-0.422137	1.117297	-0.293264
O12	O	-0.421385	0.975724	-0.421197
O13	O	-0.542314	1.092094	-0.670761
O14	O	-0.528650	0.964816	-0.528459
O15	O	-0.445401	1.199439	-0.671319
O16	O	-0.671542	1.199261	-0.445159
O17	O	-0.670972	1.091993	-0.542092
C18	C	-0.473405	0.940183	-0.473221
C19	C	-0.468484	0.848015	-0.468316
C20	C	-0.510474	0.632820	-0.510179
C21	C	-0.459508	0.679267	-0.459359
C22	C	-0.464504	0.773167	-0.464344
C23	C	-0.505479	0.538912	-0.505195
C24	C	-0.701500	1.144026	-0.495088
C25	C	-0.794144	1.139140	-0.499550
C26	C	-0.963767	1.130223	-0.507712
C27	C	-1.005313	1.181169	-0.461779
C28	C	-1.099697	1.176207	-0.466320
C29	C	-0.869375	1.135183	-0.503171
C30	C	-0.267568	1.167284	-0.474360
C31	C	-0.174931	1.172254	-0.469939
C32	C	-0.495343	1.144122	-0.702127
C33	C	-0.499770	1.139222	-0.794767
C34	C	-0.496553	1.371902	-0.496294
C35	C	-0.501495	1.464068	-0.501220
C36	C	-0.507831	1.130245	-0.964378
C37	C	-0.461840	1.181175	-1.005939
C38	C	-0.466326	1.176180	-1.100317
C39	C	-0.503346	1.135239	-0.869992
C40	C	-0.474552	1.167128	-0.268187
C41	C	-0.469899	1.172201	-0.175545
H42	H	-0.412123	0.648511	-0.412108
H43	H	-0.999080	1.082883	-0.550444
O44	O	-0.963142	1.237533	-0.410690
C45	C	-0.907740	1.195800	-0.351943
H46	H	-0.930359	1.129412	-0.344506
H47	H	-0.842866	1.194960	-0.374443
C48	C	-0.876519	1.322565	-0.276560
C49	C	-0.904304	1.241029	-0.267420
H50	H	-0.874396	1.350466	-0.224423
H51	H	-0.913842	1.350683	-0.316141
H52	H	-0.822460	1.321854	-0.295313
H53	H	-0.958366	1.241741	-0.248678
H54	H	-0.866990	1.212912	-0.227834
O55	O	-0.566982	0.669638	-0.566469
C56	C	-0.559442	0.756554	-0.558978
H57	H	-0.529576	0.773123	-0.494002
H58	H	-0.518788	0.780898	-0.607652
C59	C	-0.683147	0.775880	-0.652620
C60	C	-0.646471	0.796231	-0.572813
H61	H	-0.736829	0.800356	-0.661157
H62	H	-0.688226	0.717323	-0.657670
H63	H	-0.649260	0.796168	-0.693172
H64	H	-0.680352	0.775935	-0.532262
H65	H	-0.641400	0.854786	-0.567757
O66	O	-0.410909	1.237635	-0.963709
C67	C	-0.417693	1.230100	-0.877511
H68	H	-0.480012	1.200116	-0.867345
H69	H	-0.364743	1.189864	-0.848081
C70	C	-0.335903	1.353555	-0.849328
C71	C	-0.412448	1.316733	-0.836842
H72	H	-0.332664	1.406993	-0.824240
H73	H	-0.331329	1.358630	-0.907401
H74	H	-0.291787	1.320016	-0.824803
H75	H	-0.456562	1.350267	-0.861376
H76	H	-0.417029	1.311666	-0.778772
O77	O	-0.558808	1.073833	-1.006613
C78	C	-0.551981	1.081340	-1.092805
H79	H	-0.528658	1.146184	-1.106708
H80	H	-0.506115	1.033253	-1.112754
C81	C	-0.666635	0.987264	-1.124155
C82	C	-0.637996	1.066909	-1.141231
H83	H	-0.719691	0.978359	-1.154027
H84	H	-0.671233	0.982203	-1.066085
H85	H	-0.628406	0.947201	-1.140779
H86	H	-0.676219	1.106971	-1.124597
H87	H	-0.633407	1.071976	-1.199299
