data_functionalizedCrystal
_audit_creation_method	'MofGen! by Chris Wilmer'
_symmetry_space_group_name_H-M	'P1'
_symmetry_Int_Tables_number	1
_symmetry_cell_setting	triclinic
loop_
_symmetry_equiv_pos_as_xyz
  x,y,z
_cell_length_a	19.188905
_cell_length_b	19.188930
_cell_length_c	12.503572
_cell_angle_alpha	93.506241
_cell_angle_beta	86.486933
_cell_angle_gamma	83.139668
loop_
_atom_site_label
_atom_site_type_symbol
_atom_site_fract_x
_atom_site_fract_y
_atom_site_fract_z
O1	O	0.930203	0.083024	-0.089510
O2	O	1.430203	0.583024	0.410490
O3	O	0.726888	0.094778	-0.089475
O4	O	1.226888	0.594778	0.410525
O5	O	0.834412	-0.012754	-0.089472
O6	O	1.334412	0.487246	0.410528
O7	O	0.822679	0.190556	-0.089512
O8	O	1.322679	0.690556	0.410488
O9	O	0.826325	-0.004654	0.089169
O10	O	1.326325	0.495346	0.589169
O11	O	0.718801	0.102878	0.089167
O12	O	1.218801	0.602878	0.589167
O13	O	0.922117	0.091124	0.089132
O14	O	1.422117	0.591124	0.589132
Cu15	Cu	0.819721	0.097741	0.105461
Cu16	Cu	1.319721	0.597741	0.605461
Cu17	Cu	0.829284	0.088161	-0.105804
Cu18	Cu	1.329284	0.588161	0.394196
O19	O	0.814593	0.198657	0.089130
O20	O	1.314593	0.698657	0.589130
C21	C	0.696833	0.098451	-0.000149
C22	C	1.196833	0.598451	0.499851
C23	C	0.619327	0.097318	-0.000135
C24	C	1.119327	0.597318	0.499865
C25	C	0.829988	-0.034715	-0.000148
C26	C	1.329988	0.465285	0.499852
C27	C	0.828847	-0.112219	-0.000139
C28	C	1.328847	0.387781	0.499861
C29	C	0.891939	-0.157149	-0.000145
C30	C	1.391939	0.342851	0.499855
C31	C	0.890868	-0.229973	-0.000162
C32	C	1.390868	0.270027	0.499838
C33	C	0.826701	-0.257864	-0.000151
C34	C	1.326701	0.242136	0.499849
C35	C	0.763601	-0.212924	-0.000152
C36	C	1.263601	0.287076	0.499848
C37	C	0.764674	-0.140102	-0.000145
C38	C	1.264674	0.359898	0.499855
N39	N	0.774901	-0.363107	0.060652
N40	N	1.274901	0.136893	0.560652
N41	N	0.773885	-0.432286	0.060649
N42	N	1.273885	0.067714	0.560649
C43	C	0.823464	-0.477273	-0.000172
C44	C	1.323464	0.022727	0.499828
N45	N	0.874106	-0.450469	-0.060976
N46	N	1.374106	0.049531	0.439024
N47	N	0.875123	-0.381284	-0.060968
N48	N	1.375123	0.118716	0.439032
C49	C	0.825530	-0.336826	-0.000159
C50	C	1.325530	0.163174	0.499841
C51	C	0.885399	-0.601168	-0.000198
C52	C	1.385399	-0.101168	0.499802
C53	C	0.884325	-0.673994	-0.000222
C54	C	1.384325	-0.173994	0.499778
C55	C	0.757056	-0.656943	-0.000201
C56	C	1.257056	-0.156943	0.499799
C57	C	0.758131	-0.584119	-0.000188
C58	C	1.258131	-0.084119	0.499812
C59	C	0.822305	-0.556236	-0.000182
C60	C	1.322305	-0.056236	0.499818
C61	C	0.587343	0.092358	-0.097515
C62	C	1.087343	0.592358	0.402485
C63	C	0.514520	0.091284	-0.097528
C64	C	1.014520	0.591284	0.402472
C65	C	0.473685	0.095157	-0.000155
C66	C	0.973685	0.595157	0.499845
C67	C	0.505677	0.100122	0.097238
C68	C	1.005677	0.600122	0.597238
C69	C	0.578497	0.101202	0.097248
C70	C	1.078497	0.601202	0.597248
N71	N	0.361384	0.057014	0.072318
N72	N	0.861384	0.557014	0.572318
N73	N	0.292208	0.055986	0.072301
N74	N	0.792208	0.555986	0.572301
C75	C	0.254280	0.091903	-0.000181
C76	C	0.754280	0.591903	0.499819
N77	N	0.288143	0.128877	-0.072662
N78	N	0.788143	0.628877	0.427338
N79	N	0.357326	0.129902	-0.072649
N80	N	0.857326	0.629902	0.427351
C81	C	0.394723	0.093986	-0.000156
C82	C	0.894723	0.593986	0.499844
C83	C	0.143333	0.085779	-0.097582
C84	C	0.643333	0.585779	0.402418
C85	C	0.070508	0.084710	-0.097591
C86	C	0.570508	0.584710	0.402409
C87	C	0.061667	0.093541	0.097178
C88	C	0.561667	0.593541	0.597178
C89	C	0.134490	0.094617	0.097184
C90	C	0.634490	0.594617	0.597184
C91	C	0.175319	0.090733	-0.000199
C92	C	0.675319	0.590733	0.499801
C93	C	0.952171	0.087452	-0.000196
C94	C	1.452171	0.587452	0.499804
C95	C	1.029678	0.088584	-0.000217
C96	C	1.529678	0.588584	0.499783
C97	C	0.819016	0.220617	-0.000197
C98	C	1.319016	0.720617	0.499803
C99	C	0.820158	0.298121	-0.000213
C100	C	1.320158	0.798121	0.499787
N101	N	0.812999	0.104478	0.254053
N102	N	1.312999	0.604478	0.754053
N103	N	0.836011	0.081418	-0.254396
N104	N	1.336011	0.581418	0.245604
C105	C	0.803112	0.114395	0.473168
C106	C	1.303112	0.614395	0.973168
C107	C	0.845895	0.071504	0.526496
C108	C	1.345895	0.571504	1.026496
C109	C	0.840394	0.077022	0.648419
C110	C	1.340394	0.577022	1.148419
C111	C	0.808613	0.108878	0.351234
C112	C	1.308613	0.608878	0.851234
H113	H	0.944194	-0.134452	-0.000143
H114	H	1.444194	0.365548	0.499857
H115	H	0.762356	0.155258	0.519075
H116	H	1.262356	0.655258	1.019075
C117	C	0.900979	0.016320	0.464481
C118	C	1.400979	0.516320	0.964481
H119	H	0.897512	0.019814	0.389483
H120	H	1.397512	0.519814	0.889483
H121	H	0.892668	-0.029427	0.482841
H122	H	1.392668	0.470573	0.982841
H123	H	0.946751	0.024548	0.482846
H124	H	1.446751	0.524548	0.982846
C125	C	0.613685	0.106654	0.204368
C126	C	1.113685	0.606654	0.704368
H127	H	0.662902	0.106745	0.190428
H128	H	1.162902	0.606745	0.690428
H129	H	0.605388	0.067587	0.244390
H130	H	1.105388	0.567587	0.744390
H131	H	0.594480	0.149004	0.244367
H132	H	1.094480	0.649004	0.744367
H133	H	0.942247	-0.266562	-0.000171
H134	H	1.442247	0.233438	0.499829
H135	H	0.711355	-0.235637	-0.000146
H136	H	1.211355	0.264363	0.499854
C137	C	0.632250	0.088095	-0.204632
C138	C	1.132250	0.588095	0.295368
H139	H	0.602767	0.084993	-0.262630
H140	H	1.102767	0.584993	0.237370
H141	H	0.666300	0.047629	-0.208672
H142	H	1.166300	0.547629	0.291328
H143	H	0.655381	0.129046	-0.208683
H144	H	1.155381	0.629046	0.291317
C145	C	0.695270	-0.090676	-0.000129
C146	C	1.195270	0.409324	0.499871
H147	H	0.656898	-0.117714	-0.000120
H148	H	1.156898	0.382286	0.499880
H149	H	0.695863	-0.064727	-0.062418
H150	H	1.195863	0.435273	0.437582
H151	H	0.690224	-0.059101	0.062183
H152	H	1.190224	0.440899	0.562183
H153	H	0.935705	-0.710576	-0.000232
H154	H	1.435705	-0.210576	0.499768
H155	H	0.937652	-0.578465	-0.000198
H156	H	1.437652	-0.078465	0.499802
H157	H	0.044468	0.080675	-0.176893
H158	H	0.544468	0.580675	0.323107
H159	H	0.704810	-0.679650	-0.000198
H160	H	1.204810	-0.179650	0.499802
C161	C	0.688731	-0.534691	-0.000175
C162	C	1.188731	-0.034691	0.499825
H163	H	0.698561	-0.487327	-0.000182
H164	H	1.198561	0.012673	0.499818
H165	H	0.659586	-0.540304	0.062122
H166	H	1.159586	-0.040304	0.562122
H167	H	0.665235	-0.545942	-0.062479
H168	H	1.165235	-0.045942	0.437521
C169	C	0.479329	0.085834	-0.204650
C170	C	0.979329	0.585834	0.295350
H171	H	0.514075	0.083675	-0.262645
H172	H	1.014075	0.583675	0.237355
H173	H	0.445650	0.125936	-0.208706
H174	H	0.945650	0.625936	0.291294
H175	H	0.456561	0.044519	-0.208694
H176	H	0.956561	0.544519	0.291306
H177	H	0.028419	0.096699	0.176460
H178	H	0.528419	0.596699	0.676460
C179	C	0.188250	0.081514	-0.204693
C180	C	0.688250	0.581514	0.295307
H181	H	0.236203	0.082857	-0.190741
H182	H	0.736203	0.582857	0.309259
H183	H	0.172680	0.120229	-0.244716
H184	H	0.672680	0.620229	0.255284
H185	H	0.183586	0.038811	-0.244696
H186	H	0.683586	0.538811	0.255304
H187	H	0.160531	0.098652	0.176482
H188	H	0.660531	0.598652	0.676482
C189	C	0.460755	0.104434	0.204345
C190	C	0.960755	0.604434	0.704345
H191	H	0.412802	0.103090	0.190392
H192	H	0.912802	0.603090	0.690392
H193	H	0.465434	0.147146	0.244298
H194	H	0.965434	0.647146	0.744298
H195	H	0.476306	0.065733	0.244418
H196	H	0.976306	0.565733	0.744418
