data_functionalizedCrystal
_audit_creation_method	'MofGen! by Chris Wilmer'
_symmetry_space_group_name_H-M	'P1'
_symmetry_Int_Tables_number	1
_symmetry_cell_setting	triclinic
loop_
_symmetry_equiv_pos_as_xyz
  x,y,z
_cell_length_a	10.723023
_cell_length_b	10.723024
_cell_length_c	9.798715
_cell_angle_alpha	89.997785
_cell_angle_beta	89.997007
_cell_angle_gamma	84.467709
loop_
_atom_site_label
_atom_site_type_symbol
_atom_site_fract_x
_atom_site_fract_y
_atom_site_fract_z
O1	O	1.657187	0.175020	-0.113473
O2	O	1.294035	0.191775	-0.113479
O3	O	1.483988	0.001821	-0.113471
O4	O	1.467235	0.364974	-0.113481
O5	O	1.483975	0.001820	0.113511
O6	O	1.294022	0.191773	0.113503
O7	O	1.657174	0.175019	0.113509
Zn8	Zn	1.475596	0.183396	0.149544
Zn9	Zn	1.475613	0.183398	-0.149514
O10	O	1.467221	0.364972	0.113501
C11	C	1.247529	0.190555	0.000012
C12	C	1.108974	0.186908	0.000010
C13	C	1.047195	0.185281	0.117592
C14	C	0.903992	0.181511	0.117593
C15	C	1.482762	-0.044679	0.000019
C16	C	1.479114	-0.183233	0.000014
C17	C	1.585402	-0.258216	0.000013
C18	C	1.581634	-0.401420	0.000008
C19	C	1.703680	0.176239	0.000015
C20	C	1.842235	0.179886	0.000009
C21	C	1.468447	0.411473	0.000009
C22	C	1.472095	0.550027	0.000004
N23	N	1.475593	0.183394	0.353644
N24	N	1.475626	0.183390	-0.353614
C25	C	1.555546	0.103465	0.578579
C26	C	1.555529	0.103466	0.421416
H27	H	0.895354	0.181292	-0.100663
H28	H	1.623988	0.035040	0.636876
C29	C	1.709354	-0.564078	-0.116685
C30	C	1.704479	-0.488389	0.000002
H31	H	1.785200	-0.617764	-0.116691
H32	H	1.640153	-0.613099	-0.116674
H33	H	1.706036	-0.512697	-0.195827
H34	H	1.707788	-0.539770	0.079145
H35	H	1.773699	-0.439363	0.000004
C36	C	0.916778	0.181851	0.362220
C37	C	0.832283	0.179625	0.253499
H38	H	0.872502	0.180695	0.446125
H39	H	0.976448	0.110546	0.357147
H40	H	0.958671	0.255836	0.357132
H41	H	0.790396	0.105635	0.258582
H42	H	0.772591	0.250937	0.258575
H43	H	1.407161	0.251820	0.411946
H44	H	1.385328	-0.225055	0.000003
H45	H	1.381099	-0.385548	0.000014
C46	C	1.721816	-0.062822	0.435437
C47	C	1.647903	0.011083	0.342711
H48	H	1.778838	-0.119861	0.386843
H49	H	1.767215	-0.010529	0.491153
H50	H	1.669517	-0.108213	0.491187
H51	H	1.700200	0.056482	0.286967
H52	H	1.602500	-0.041217	0.286971
C53	C	1.246883	0.190544	0.227190
C54	C	1.118900	0.187172	0.253497
H55	H	1.291145	0.191720	0.311097
H56	H	1.277046	0.118462	0.176336
H57	H	1.259255	0.263752	0.176314
H58	H	1.106528	0.113959	0.304365
H59	H	1.088728	0.259261	0.304373
C60	C	0.949302	0.290143	-0.143348
C61	C	1.037270	0.185025	-0.135897
H62	H	0.905044	0.288983	-0.227259
H63	H	0.891994	0.288622	-0.069588
H64	H	0.991215	0.364116	-0.138275
H65	H	0.995356	0.111052	-0.140960
H66	H	1.094586	0.186535	-0.209677
C67	C	1.809576	-0.298487	-0.000004
C68	C	1.712019	-0.201774	0.000005
H69	H	1.887745	-0.263642	-0.000021
H70	H	1.803585	-0.348696	0.079148
H71	H	1.803571	-0.348701	-0.079160
H72	H	1.718019	-0.151565	0.079167
H73	H	1.718013	-0.151544	-0.079155
H74	H	1.407195	0.251823	0.588087
