data_functionalizedCrystal
_audit_creation_method	'MofGen! by Chris Wilmer'
_symmetry_space_group_name_H-M	'P1'
_symmetry_Int_Tables_number	1
_symmetry_cell_setting	triclinic
loop_
_symmetry_equiv_pos_as_xyz
  x,y,z
_cell_length_a	14.971486
_cell_length_b	15.538191
_cell_length_c	13.448316
_cell_angle_alpha	89.995865
_cell_angle_beta	89.998199
_cell_angle_gamma	65.443111
loop_
_atom_site_label
_atom_site_type_symbol
_atom_site_fract_x
_atom_site_fract_y
_atom_site_fract_z
O1	O	1.146981	0.122716	-0.082571
O2	O	0.881795	0.137412	-0.082598
O3	O	1.066009	-0.007007	-0.082584
O4	O	0.962767	0.267135	-0.082585
O5	O	1.065994	-0.007016	0.082800
O6	O	0.881781	0.137403	0.082786
O7	O	1.146967	0.122707	0.082812
Cu8	Cu	1.014372	0.130054	0.097900
Cu9	Cu	1.014389	0.130065	-0.097685
O10	O	0.962753	0.267127	0.082799
C11	C	0.848677	0.136750	0.000091
C12	C	0.750021	0.134781	0.000080
C13	C	0.665165	0.219623	0.000082
C14	C	0.572470	0.217767	0.000096
C15	C	0.564634	0.131067	0.000103
C16	C	0.649500	0.046219	0.000105
C17	C	0.742193	0.048076	0.000097
C18	C	0.456296	0.042354	0.000119
C19	C	0.363597	0.040496	0.000124
C20	C	0.286573	0.212045	0.000118
C21	C	0.379266	0.213902	0.000110
C22	C	0.464126	0.129053	0.000110
C23	C	1.076803	-0.042095	0.000106
C24	C	1.108978	-0.146632	0.000099
C25	C	0.789329	-0.434783	0.000088
C26	C	0.819585	-0.533015	0.000094
C27	C	0.989766	-0.555266	0.000110
C28	C	0.959525	-0.457034	0.000100
C29	C	0.859305	-0.396800	0.000090
C30	C	1.029501	-0.419051	0.000102
C31	C	0.999261	-0.320828	0.000097
C32	C	0.899046	-0.260588	0.000090
C33	C	0.829066	-0.298577	0.000085
C34	C	1.129720	-0.479287	0.000119
C35	C	1.199696	-0.441304	0.000121
C36	C	1.169457	-0.343079	0.000109
C37	C	1.069242	-0.282839	0.000102
C38	C	1.239438	-0.305090	0.000113
C39	C	1.209198	-0.206867	0.000109
C40	C	1.039002	-0.184615	0.000097
C41	C	1.180085	0.123369	0.000122
C42	C	1.278740	0.125339	0.000126
C43	C	0.951958	0.302214	0.000107
C44	C	0.919784	0.406752	0.000107
N45	N	1.014367	0.130046	0.235464
N46	N	1.014404	0.130065	-0.235250
C47	C	1.095947	0.066124	0.287511
C48	C	1.095953	0.066123	0.391614
C49	C	1.014381	0.130050	0.443669
C50	C	0.932793	0.193976	0.391615
C51	C	0.932785	0.193971	0.287514
C52	C	0.932816	0.193982	0.608595
C53	C	0.932824	0.193988	0.712704
C54	C	1.095984	0.066134	0.712695
C55	C	1.095976	0.066130	0.608594
C56	C	1.014389	0.130057	0.556548
H57	H	0.643113	-0.024374	0.000124
H58	H	0.503380	0.286854	0.000096
H59	H	0.874427	-0.180608	0.000092
H60	H	0.866354	0.246022	0.245139
C61	C	0.355226	-0.053699	-0.000017
C62	C	0.401027	-0.105013	-0.085085
C63	C	0.393345	-0.191794	-0.085243
H64	H	0.287912	-0.042779	-0.000068
H65	H	0.386279	-0.088688	0.057630
H66	H	0.369972	-0.070031	-0.142717
H67	H	0.468344	-0.115958	-0.085052
H68	H	0.424397	-0.226782	-0.027596
H69	H	0.326029	-0.180864	-0.085291
H70	H	0.424427	-0.226624	-0.142955
H71	H	0.525390	-0.026740	0.000120
C72	C	0.387826	0.308009	-0.000121
C73	C	0.438761	0.314088	-0.085232
C74	C	0.446649	0.400773	-0.085490
H75	H	0.422419	0.312403	0.057476
H76	H	0.324024	0.358298	-0.000177
H77	H	0.502551	0.263812	-0.085167
H78	H	0.404183	0.309710	-0.142843
H79	H	0.382847	0.451062	-0.085546
H80	H	0.481240	0.405159	-0.027890
H81	H	0.481200	0.404912	-0.143241
H82	H	1.321037	-0.354147	0.000131
H83	H	0.707720	-0.385736	0.000073
H84	H	0.811286	-0.021012	0.000096
H85	H	1.162381	0.014072	0.433990
H86	H	1.281296	-0.490360	0.000132
C87	C	1.184573	-0.003426	0.769067
C88	C	1.200149	-0.095989	0.743734
C89	C	1.281757	-0.160085	0.795636
H90	H	1.173008	0.005593	0.838537
H91	H	1.240941	0.006857	0.751972
H92	H	1.143795	-0.106268	0.760836
H93	H	1.211731	-0.105038	0.674273
H94	H	1.338124	-0.149802	0.778541
H95	H	1.270183	-0.151057	0.865104
H96	H	1.292341	-0.222896	0.778448
H97	H	1.266180	-0.175941	0.000111
H98	H	0.957393	-0.135569	0.000082
C99	C	0.720208	-0.233327	0.000113
C100	C	0.665391	-0.287610	0.000127
C101	C	0.565114	-0.227535	0.000163
H102	H	0.704755	-0.194528	-0.057548
H103	H	0.704820	-0.194559	0.057805
H104	H	0.680772	-0.326361	-0.057560
H105	H	0.680813	-0.326407	0.057783
H106	H	0.549726	-0.188768	0.057856
H107	H	0.549672	-0.188739	-0.057499
H108	H	0.527908	-0.264357	0.000182
H109	H	0.762594	-0.563935	0.000107
H110	H	1.162401	0.014080	0.566211
H111	H	1.162375	0.014071	0.245134
H112	H	0.866377	0.246035	0.566223
H113	H	0.866399	0.246043	0.755082
C114	C	1.162502	-0.585924	-0.000086
C115	C	1.126175	-0.612362	-0.085194
C116	C	1.156365	-0.710589	-0.085425
H117	H	1.137924	-0.604157	0.057513
H118	H	1.232210	-0.616392	-0.000129
H119	H	1.056482	-0.581906	-0.085142
H120	H	1.150749	-0.594153	-0.142807
H121	H	1.226073	-0.741056	-0.085468
H122	H	1.131785	-0.728812	-0.027822
H123	H	1.131730	-0.728540	-0.143174
C124	C	0.673520	0.313825	-0.000082
C125	C	0.627707	0.365135	-0.085153
C126	C	0.635368	0.451926	-0.085327
H127	H	0.740830	0.302919	-0.000139
H128	H	0.642465	0.348810	0.057563
H129	H	0.658765	0.330158	-0.142783
H130	H	0.560394	0.376066	-0.085113
H131	H	0.604313	0.486911	-0.027682
H132	H	0.702680	0.441011	-0.085382
H133	H	0.604278	0.486754	-0.143042
C134	C	0.844110	0.263421	0.447949
C135	C	0.772651	0.319382	0.380083
C136	C	0.690936	0.383357	0.431939
H137	H	0.863401	0.302771	0.488554
H138	H	0.817849	0.229502	0.488546
H139	H	0.798908	0.353298	0.339503
H140	H	0.753332	0.280057	0.339476
H141	H	0.664675	0.349439	0.472536
H142	H	0.710237	0.422701	0.472542
H143	H	0.642438	0.421328	0.385900
H144	H	0.217474	0.281132	0.000122
H145	H	1.071366	-0.604322	0.000122
