data_functionalizedCrystal
_audit_creation_method	'MofGen! by Chris Wilmer'
_symmetry_space_group_name_H-M	'P1'
_symmetry_Int_Tables_number	1
_symmetry_cell_setting	triclinic
loop_
_symmetry_equiv_pos_as_xyz
  x,y,z
_cell_length_a	16.959455
_cell_length_b	19.120786
_cell_length_c	16.959447
_cell_angle_alpha	87.526589
_cell_angle_beta	89.985678
_cell_angle_gamma	92.462118
loop_
_atom_site_label
_atom_site_type_symbol
_atom_site_fract_x
_atom_site_fract_y
_atom_site_fract_z
Zn1	Zn	1.194928	-0.279674	-0.433464
Zn2	Zn	1.189199	-0.397142	-0.295639
Zn3	Zn	1.062756	-0.279696	-0.301301
Zn4	Zn	1.057072	-0.397089	-0.427780
O5	O	1.125989	-0.338400	-0.364546
O6	O	1.304779	-0.295269	-0.415191
O7	O	1.172407	-0.381593	-0.185777
O8	O	1.085065	-0.181402	-0.323581
O9	O	1.300570	-0.381572	-0.313931
O10	O	1.182171	-0.181386	-0.420681
O11	O	1.079510	-0.295306	-0.189937
O12	O	0.951392	-0.295255	-0.318069
O13	O	1.075378	-0.381482	-0.539146
O14	O	0.947216	-0.381504	-0.410993
O15	O	1.176661	-0.295218	-0.543323
O16	O	1.166896	-0.495425	-0.308419
O17	O	1.069823	-0.495386	-0.405503
C18	C	0.920624	-0.338377	-0.364529
C19	C	0.832767	-0.338384	-0.364539
C20	C	1.117143	-0.520891	-0.355747
C21	C	1.113431	-0.598962	-0.352009
C22	C	0.463442	-0.293454	-0.316268
C23	C	0.459136	-0.383404	-0.412866
C24	C	0.541683	-0.383394	-0.412862
C25	C	0.585112	-0.338414	-0.364559
C26	C	0.545996	-0.293444	-0.316260
C27	C	0.580805	-0.428368	-0.461154
C28	C	0.663356	-0.428361	-0.461151
C29	C	0.706788	-0.383376	-0.412851
C30	C	0.667666	-0.338404	-0.364551
C31	C	0.711096	-0.293424	-0.316248
C32	C	0.671977	-0.248447	-0.267952
C33	C	0.589428	-0.248459	-0.267961
C34	C	0.789337	-0.383364	-0.412843
C35	C	0.793650	-0.293414	-0.316241
C36	C	1.162207	-0.635571	-0.400849
C37	C	1.158716	-0.708926	-0.397338
C38	C	1.106452	-0.745672	-0.344983
C39	C	1.057670	-0.709058	-0.296141
C40	C	1.061158	-0.635703	-0.299656
C41	C	1.093390	-0.967157	-0.331842
C42	C	1.089908	-1.040517	-0.328328
C43	C	1.190954	-1.040380	-0.429527
C44	C	1.194440	-0.967025	-0.433034
C45	C	1.145655	-0.930417	-0.384195
C46	C	1.102884	-0.820653	-0.341391
C47	C	1.149220	-0.855437	-0.387791
C48	C	1.332156	-0.338424	-0.364563
C49	C	1.420012	-0.338434	-0.364571
C50	C	1.126025	-0.338342	-0.570717
C51	C	1.126040	-0.338317	-0.658575
C52	C	1.134891	-0.155196	-0.373397
C53	C	1.138685	-0.077126	-0.377168
C54	C	1.073405	-0.383157	-1.027882
C55	C	1.178871	-0.293329	-1.032226
C56	C	1.178849	-0.293344	-0.949679
C57	C	1.126105	-0.338267	-0.906230
C58	C	1.073383	-0.383175	-0.945328
C59	C	1.231576	-0.248442	-0.910576
C60	C	1.231557	-0.248455	-0.828024
C61	C	1.178808	-0.293375	-0.784573
C62	C	1.126083	-0.338284	-0.823676
C63	C	1.073339	-0.383207	-0.780227
C64	C	1.020610	-0.428114	-0.819328
C65	C	1.020635	-0.428095	-0.901877
C66	C	1.178784	-0.293394	-0.702024
C67	C	1.073318	-0.383225	-0.697672
C68	C	1.126001	-0.338407	-0.159179
C69	C	1.126149	-0.338234	-0.071331
H70	H	0.829006	-0.256780	-0.276911
H71	H	0.695200	-0.464983	-0.500477
C72	C	1.236881	-0.243912	-1.080023
N73	N	1.280572	-0.206686	-1.116027
C74	C	1.015292	-0.432644	-0.649885
N75	N	0.971588	-0.469866	-0.613892
C76	C	1.007500	-0.595434	-0.245928
N77	N	0.967082	-0.565104	-0.205460
C78	C	0.719760	-0.198968	-0.214823
N79	N	0.755754	-0.161699	-0.174810
H80	H	0.557569	-0.211843	-0.228639
C81	C	0.420410	-0.243981	-0.263145
N82	N	0.387998	-0.206718	-0.223132
C83	C	1.212385	-0.749193	-0.451056
N84	N	1.252814	-0.779521	-0.491515
C85	C	0.832365	-0.432835	-0.465965
N86	N	0.864773	-0.470098	-0.505982
H87	H	1.047344	-1.070433	-0.285694
H88	H	1.030472	-0.419717	-1.059722
H89	H	0.423771	-0.420029	-0.452188
H90	H	1.230671	-1.070194	-0.469289
H91	H	0.977669	-0.464693	-0.783941
H92	H	0.545438	-0.464994	-0.500474
H93	H	1.053669	-0.937357	-0.292074
H94	H	1.274522	-0.211872	-0.945958
C95	C	1.219704	-0.595158	-0.458443
N96	N	1.263010	-0.564720	-0.501826
C97	C	1.251949	-0.926610	-0.490614
N98	N	1.295273	-0.896170	-0.533977
H99	H	1.221717	-0.256834	-0.670191
C100	C	0.962634	-0.477483	-0.944895
N101	N	0.918947	-0.514682	-0.977299
H102	H	1.015112	-0.738981	-0.253516
C103	C	1.045465	-0.861080	-0.283731
N104	N	1.002241	-0.891532	-0.240278
H105	H	1.191770	-0.825517	-0.430422
H106	H	1.274492	-0.211890	-0.796195
