data_functionalizedCrystal
_audit_creation_method	'MofGen! by Chris Wilmer'
_symmetry_space_group_name_H-M	'P1'
_symmetry_Int_Tables_number	1
_symmetry_cell_setting	triclinic
loop_
_symmetry_equiv_pos_as_xyz
  x,y,z
_cell_length_a	14.519709
_cell_length_b	14.044190
_cell_length_c	12.996460
_cell_angle_alpha	89.989157
_cell_angle_beta	90.000034
_cell_angle_gamma	88.435961
loop_
_atom_site_label
_atom_site_type_symbol
_atom_site_fract_x
_atom_site_fract_y
_atom_site_fract_z
O1	O	1.233896	0.124273	-0.085444
O2	O	1.733896	0.624273	0.414556
O3	O	0.966600	0.138908	-0.085477
O4	O	1.466600	0.638908	0.414523
O5	O	1.096232	-0.006401	-0.085440
O6	O	1.596232	0.493599	0.414560
O7	O	1.104263	0.269582	-0.085480
O8	O	1.604263	0.769582	0.414520
O9	O	1.096217	-0.006409	0.085693
O10	O	1.596217	0.493591	0.585693
O11	O	0.966584	0.138899	0.085657
O12	O	1.466584	0.638899	0.585657
O13	O	1.233880	0.124265	0.085690
O14	O	1.733880	0.624265	0.585690
Cu15	Cu	1.100231	0.131581	0.101300
Cu16	Cu	1.600231	0.631581	0.601300
Cu17	Cu	1.100249	0.131591	-0.101086
Cu18	Cu	1.600249	0.631591	0.398914
O19	O	1.104248	0.269574	0.085654
O20	O	1.604248	0.769574	0.585654
C21	C	0.932177	0.138221	0.000086
C22	C	1.432177	0.638221	0.500086
C23	C	0.829631	0.136178	0.000075
C24	C	1.329631	0.636178	0.500075
C25	C	0.454128	0.128654	0.000123
C26	C	0.954128	0.628654	0.500123
C27	C	0.558604	0.130743	0.000109
C28	C	1.058604	0.630743	0.500109
C29	C	0.641876	0.132415	0.000098
C30	C	1.141876	0.632415	0.500098
C31	C	0.746359	0.134505	0.000086
C32	C	1.246359	0.634505	0.500086
C33	C	1.092711	-0.041726	0.000129
C34	C	1.592711	0.458274	0.500129
C35	C	1.082231	-0.146970	0.000137
C36	C	1.582231	0.353030	0.500137
C37	C	1.137397	-0.397162	0.000103
C38	C	1.637397	0.102838	0.500103
C39	C	1.063087	-0.339659	0.000101
C40	C	1.563087	0.160341	0.500101
C41	C	1.073741	-0.232437	0.000121
C42	C	1.573741	0.267563	0.500121
C43	C	1.126744	-0.504395	0.000083
C44	C	1.626744	-0.004395	0.500083
C45	C	1.268303	0.124951	0.000125
C46	C	1.768303	0.624951	0.500125
C47	C	1.370849	0.126995	0.000130
C48	C	1.870849	0.626995	0.500130
C49	C	1.107769	0.304898	0.000082
C50	C	1.607769	0.804898	0.500082
C51	C	1.118248	0.410142	0.000068
C52	C	1.618248	0.910142	0.500068
N53	N	1.100225	0.131574	0.243647
N54	N	1.600225	0.631574	0.743647
N55	N	1.100262	0.131591	-0.243433
N56	N	1.600262	0.631591	0.256567
C57	C	1.100248	0.131592	0.663461
C58	C	1.600248	0.631592	1.163461
C59	C	1.100239	0.131590	0.546656
C60	C	1.600239	0.631590	1.046656
C61	C	1.100237	0.131584	0.453557
C62	C	1.600237	0.631584	0.953557
C63	C	1.100227	0.131581	0.336745
C64	C	1.600227	0.631581	0.836745
H65	H	1.209011	-0.365868	0.000123
H66	H	1.709011	0.134132	0.500123
O67	O	0.977622	-0.376941	-0.000092
O68	O	1.477622	0.123059	0.499908
C69	C	0.929422	-0.346023	-0.088706
C70	C	1.429422	0.153977	0.411294
H71	H	0.980714	-0.325265	-0.150652
H72	H	1.480714	0.174735	0.349348
H73	H	0.883227	-0.281746	-0.068660
H74	H	1.383227	0.218254	0.431340
C75	C	0.806886	-0.452616	-0.052823
C76	C	1.306886	0.047384	0.447177
C77	C	0.869884	-0.427128	-0.128909
C78	C	1.369884	0.072872	0.371091
H79	H	0.770157	-0.502643	-0.077620
H80	H	1.270157	-0.002643	0.422380
H81	H	0.839357	-0.473444	0.006881
H82	H	1.339357	0.026556	0.506881
H83	H	0.768399	-0.399045	-0.036124
H84	H	1.268399	0.100955	0.463876
H85	H	0.908377	-0.480695	-0.145597
H86	H	1.408377	0.019305	0.354403
H87	H	0.837418	-0.406311	-0.188617
H88	H	1.337418	0.093689	0.311383
