data_functionalizedCrystal
_audit_creation_method	'MofGen! by Chris Wilmer'
_symmetry_space_group_name_H-M	'P1'
_symmetry_Int_Tables_number	1
_symmetry_cell_setting	triclinic
loop_
_symmetry_equiv_pos_as_xyz
  x,y,z
_cell_length_a	21.295419
_cell_length_b	21.295416
_cell_length_c	21.295411
_cell_angle_alpha	90.019171
_cell_angle_beta	90.025287
_cell_angle_gamma	90.046890
loop_
_atom_site_label
_atom_site_type_symbol
_atom_site_fract_x
_atom_site_fract_y
_atom_site_fract_z
Zn1	Zn	-0.962356	0.250403	-0.355935
Zn2	Zn	-0.462356	0.750403	0.144065
Zn3	Zn	-0.962259	0.355655	-0.250664
Zn4	Zn	-0.462259	0.855655	0.249336
Zn5	Zn	-0.857080	0.250434	-0.250678
Zn6	Zn	-0.357080	0.750434	0.249322
Zn7	Zn	-0.857049	0.355669	-0.355895
Zn8	Zn	-0.357049	0.855669	0.144105
O9	O	-0.909686	0.303040	-0.303293
O10	O	-0.409686	0.803040	0.196707
O11	O	-1.050433	0.264346	-0.341981
O12	O	-0.550433	0.764346	0.158019
O13	O	-0.948279	0.341704	-0.162577
O14	O	-0.448279	0.841704	0.337423
O15	O	-0.871098	0.162340	-0.264663
O16	O	-0.371098	0.662340	0.235337
O17	O	-1.050361	0.341674	-0.264640
O18	O	-0.550361	0.841674	0.235360
O19	O	-0.948444	0.162317	-0.341994
O20	O	-0.448444	0.662317	0.158006
O21	O	-0.871004	0.264399	-0.162587
O22	O	-0.371004	0.764399	0.337413
O23	O	-0.768986	0.264412	-0.264625
O24	O	-0.268986	0.764412	0.235375
O25	O	-0.871046	0.341698	-0.443990
O26	O	-0.371046	0.841698	0.056010
O27	O	-0.768964	0.341728	-0.341927
O28	O	-0.268964	0.841728	0.158073
O29	O	-0.948415	0.264359	-0.444019
O30	O	-0.448415	0.764359	0.055981
O31	O	-0.948249	0.443746	-0.264601
O32	O	-0.448249	0.943746	0.235399
O33	O	-0.870952	0.443756	-0.341913
O34	O	-0.370952	0.943756	0.158087
C35	C	-0.746134	0.303075	-0.303273
C36	C	-0.246134	0.803075	0.196727
C37	C	-0.676166	0.303105	-0.303280
C38	C	-0.176166	0.803105	0.196720
C39	C	-0.643359	0.262907	-0.343613
C40	C	-0.143359	0.762907	0.156387
C41	C	-0.577617	0.262893	-0.343615
C42	C	-0.077617	0.762893	0.156385
C43	C	-0.544684	0.303087	-0.303289
C44	C	-0.044684	0.803087	0.196711
C45	C	-0.577499	0.343288	-0.262948
C46	C	-0.077499	0.843288	0.237052
C47	C	-0.643240	0.343297	-0.262943
C48	C	-0.143240	0.843297	0.237057
N49	N	-0.441409	0.358167	-0.298371
N50	N	0.058591	0.858167	0.201629
N51	N	-0.378957	0.358157	-0.298379
N52	N	0.121043	0.858157	0.201621
C53	C	-0.346609	0.303060	-0.303301
C54	C	0.153391	0.803060	0.196699
N55	N	-0.379072	0.247974	-0.308226
N56	N	0.120928	0.747974	0.191774
N57	N	-0.441529	0.247985	-0.308221
N58	N	0.058471	0.747985	0.191779
C59	C	-0.473398	0.303081	-0.303290
C60	C	0.026602	0.803081	0.196710
C61	C	-0.242517	0.262843	-0.343638
C62	C	0.257483	0.762843	0.156362
C63	C	-0.176773	0.262827	-0.343635
C64	C	0.323227	0.762827	0.156365
C65	C	-0.176656	0.343228	-0.262972
C66	C	0.323344	0.843228	0.237028
C67	C	-0.242398	0.343238	-0.262971
C68	C	0.257602	0.843238	0.237029
C69	C	-0.275325	0.303046	-0.303308
C70	C	0.224675	0.803046	0.196692
C71	C	-0.909604	0.466592	-0.303265
C72	C	-0.409604	0.966592	0.196735
C73	C	-0.909627	0.536560	-0.303274
C74	C	-0.409627	1.036560	0.196726
C75	C	-0.073876	0.303013	-0.303310
C76	C	0.426124	0.803013	0.196690
C77	C	-0.143844	0.303021	-0.303309
C78	C	0.356156	0.803021	0.196691
C79	C	-0.949911	0.569400	-0.263061
C80	C	-0.449911	1.069400	0.236939
C81	C	-0.949941	0.635143	-0.263078
C82	C	-0.449941	1.135143	0.236922
C83	C	-0.909675	0.668042	-0.303302
C84	C	-0.409675	1.168042	0.196698
C85	C	-0.869387	0.635194	-0.343523
C86	C	-0.369387	1.135194	0.156477
C87	C	-0.869363	0.569453	-0.343510
C88	C	-0.369363	1.069453	0.156490
N89	N	-0.854608	0.771325	-0.308098
N90	N	-0.354608	1.271325	0.191902
N91	N	-0.854633	0.833776	-0.308108
N92	N	-0.354633	1.333776	0.191892
C93	C	-0.909746	0.866117	-0.303346
C94	C	-0.409746	1.366117	0.196654
N95	N	-0.964835	0.833647	-0.298563
N96	N	-0.464835	1.333647	0.201437
N97	N	-0.964809	0.771190	-0.298550
N98	N	-0.464809	1.271190	0.201450
C99	C	-0.909697	0.739327	-0.303321
C100	C	-0.409697	1.239327	0.196679
C101	C	-0.950066	0.970243	-0.263149
C102	C	-0.450066	1.470243	0.236851
C103	C	-0.950097	1.035986	-0.263170
C104	C	-0.450097	1.535986	0.236830
C105	C	-0.869538	1.036036	-0.343613
C106	C	-0.369538	1.536036	0.156387
C107	C	-0.869513	0.970294	-0.343595
C108	C	-0.369513	1.470294	0.156405
C109	C	-0.909776	0.937401	-0.303359
C110	C	-0.409776	1.437401	0.196641
C111	C	-0.909738	0.303027	-0.467483
C112	C	-0.409738	0.803027	0.032517
C113	C	-0.909761	0.303021	-0.537451
C114	C	-0.409761	0.803021	-0.037451
C115	C	-0.909786	1.138850	-0.303346
C116	C	-0.409786	1.638850	0.196654
C117	C	-0.909831	1.068881	-0.303396
C118	C	-0.409831	1.568881	0.196604
C119	C	-0.950045	0.262749	-0.570334
C120	C	-0.450045	0.762749	-0.070334
C121	C	-0.950044	0.262722	-0.636077
C122	C	-0.450044	0.762722	-0.136077
C123	C	-0.909765	0.302978	-0.668934
C124	C	-0.409765	0.802978	-0.168934
C125	C	-0.869473	0.343252	-0.636043
C126	C	-0.369473	0.843252	-0.136043
C127	C	-0.869471	0.343274	-0.570302
C128	C	-0.369471	0.843274	-0.070302
N129	N	-0.904909	0.358047	-0.772152
N130	N	-0.404909	0.858047	-0.272152
N131	N	-0.904915	0.358024	-0.834603
N132	N	-0.404915	0.858024	-0.334603
C133	C	-0.909769	0.302914	-0.867009
C134	C	-0.409769	0.802914	-0.367009
N135	N	-0.914630	0.247825	-0.834604
N136	N	-0.414630	0.747825	-0.334604
N137	N	-0.914627	0.247848	-0.772147
N138	N	-0.414627	0.747848	-0.272147
C139	C	-0.909763	0.302958	-0.740219
C140	C	-0.409763	0.802958	-0.240219
C141	C	-0.950055	0.262609	-0.971177
C142	C	-0.450055	0.762609	-0.471177
C143	C	-0.950049	0.262581	-1.036921
C144	C	-0.450049	0.762581	-0.536921
C145	C	-0.869482	0.343117	-1.036886
C146	C	-0.369482	0.843117	-0.536886
C147	C	-0.869484	0.343139	-0.971144
C148	C	-0.369484	0.843139	-0.471144
C149	C	-0.909774	0.302886	-0.938293
C150	C	-0.409774	0.802886	-0.438293
C151	C	-0.909670	0.303008	-0.139741
C152	C	-0.409670	0.803008	0.360259
C153	C	-0.909770	0.302836	-0.069774
C154	C	-0.409770	0.802836	0.430226
H155	H	-0.269327	0.230113	-0.376478
H156	H	0.230673	0.730113	0.123522
H157	H	-0.982857	0.229829	-0.944429
H158	H	-0.482857	0.729829	-0.444429
H159	H	-0.149843	0.375954	-0.230138
H160	H	0.350157	0.875954	0.269862
N161	N	-0.828202	0.535902	-0.384579
N162	N	-0.328202	1.035902	0.115421
N163	N	-0.788085	0.499280	-0.362384
N164	N	-0.288085	0.999280	0.137616
H165	H	-0.759013	0.475584	-0.391388
H166	H	-0.259013	0.975584	0.108612
H167	H	-0.836604	0.661985	-0.376275
H168	H	-0.336604	1.161985	0.123725
N169	N	-0.991200	0.221433	-1.070503
N170	N	-0.491200	0.721433	-0.570503
N171	N	-1.027166	0.185498	-1.041161
N172	N	-0.527166	0.685498	-0.541161
H173	H	-1.056230	0.156436	-1.064878
H174	H	-0.556230	0.656436	-0.564878
H175	H	-0.982697	0.542621	-0.230300
H176	H	-0.482697	1.042621	0.269700
N177	N	-0.676755	0.384353	-0.221735
N178	N	-0.176755	0.884353	0.278265
N179	N	-0.669391	0.380088	-0.163657
N180	N	-0.169391	0.880088	0.336343
H181	H	-0.693062	0.409084	-0.134553
H182	H	-0.193062	0.909084	0.365447
N183	N	-0.991194	0.221575	-0.669666
N184	N	-0.491194	0.721575	-0.169666
N185	N	-1.027159	0.185635	-0.640327
N186	N	-0.527159	0.685635	-0.140327
H187	H	-1.056221	0.156574	-0.664047
H188	H	-0.556221	0.656574	-0.164047
H189	H	-0.836681	0.375887	-1.063638
H190	H	-0.336681	0.875887	-0.563638
H191	H	-0.982853	0.943460	-0.230389
H192	H	-0.482853	1.443460	0.269611
H193	H	-0.836677	0.376027	-0.662800
H194	H	-0.336677	0.876027	-0.162800
H195	H	-0.150063	0.230089	-0.376479
H196	H	0.349937	0.730089	0.123521
H197	H	-0.836684	0.375937	-0.944370
H198	H	-0.336684	0.875937	-0.444370
H199	H	-0.982905	1.062724	-0.230425
H200	H	-0.482905	1.562724	0.269575
H201	H	-0.982747	0.661887	-0.230331
H202	H	-0.482747	1.161887	0.269669
H203	H	-0.836755	1.062823	-0.376367
H204	H	-0.336755	1.562823	0.123633
N205	N	-0.828357	0.936754	-0.384676
N206	N	-0.328357	1.436754	0.115324
N207	N	-0.792410	0.966133	-0.420590
N208	N	-0.292410	1.466133	0.079410
H209	H	-0.763343	0.942447	-0.449608
H210	H	-0.263343	1.442447	0.050392
N211	N	-0.991194	0.221619	-0.536792
N212	N	-0.491194	0.721619	-0.036792
N213	N	-0.987055	0.163532	-0.544139
N214	N	-0.487055	0.663532	-0.044139
H215	H	-1.016117	0.134482	-0.520450
H216	H	-0.516117	0.634482	-0.020450
N217	N	-0.676982	0.221853	-0.384821
N218	N	-0.176982	0.721853	0.115179
N219	N	-0.647676	0.185965	-0.420832
N220	N	-0.147676	0.685965	0.079168
H221	H	-0.671423	0.156969	-0.449936
H222	H	-0.171423	0.656969	0.050064
N223	N	-0.828314	0.384415	-0.536719
N224	N	-0.328314	0.884415	-0.036719
N225	N	-0.792348	0.420351	-0.566060
N226	N	-0.292348	0.920351	-0.066060
H227	H	-0.763280	0.449408	-0.542341
H228	H	-0.263280	0.949408	-0.042341
H229	H	-0.550900	0.230155	-0.376458
H230	H	-0.050900	0.730155	0.123542
H231	H	-0.269110	0.375974	-0.230130
H232	H	0.230890	0.875974	0.269870
H233	H	-0.550680	0.376013	-0.230114
H234	H	-0.050680	0.876013	0.269886
