data_functionalizedCrystal
_audit_creation_method	'MofGen! by Chris Wilmer'
_symmetry_space_group_name_H-M	'P1'
_symmetry_Int_Tables_number	1
_symmetry_cell_setting	triclinic
loop_
_symmetry_equiv_pos_as_xyz
  x,y,z
_cell_length_a	10.489741
_cell_length_b	10.489746
_cell_length_c	9.130313
_cell_angle_alpha	89.995172
_cell_angle_beta	89.999174
_cell_angle_gamma	84.540238
loop_
_atom_site_label
_atom_site_type_symbol
_atom_site_fract_x
_atom_site_fract_y
_atom_site_fract_z
O1	O	1.694055	0.179967	-0.121710
O2	O	1.322860	0.196860	-0.121733
O3	O	1.516901	0.002816	-0.121710
O4	O	1.500015	0.374011	-0.121733
O5	O	1.516887	0.002811	0.121889
O6	O	1.322846	0.196854	0.121866
O7	O	1.694042	0.179962	0.121889
Cu8	Cu	1.508443	0.188407	0.144120
Cu9	Cu	1.508459	0.188414	-0.143964
O10	O	1.500001	0.374005	0.121866
C11	C	1.515617	-0.044718	0.000089
C12	C	1.511797	-0.186347	0.000088
C13	C	1.275321	0.195581	0.000064
C14	C	1.133692	0.191764	0.000055
C15	C	1.386074	-0.339205	0.000062
C16	C	1.448937	-0.261810	-0.120038
C17	C	1.448953	-0.261857	0.120131
C18	C	1.567919	-0.361302	-0.120144
C19	C	1.567917	-0.361354	0.120133
C20	C	1.630868	-0.284008	0.000004
C21	C	1.065550	0.068300	0.000077
C22	C	0.973430	0.126626	-0.120031
C23	C	0.973451	0.126650	0.120138
C24	C	1.043438	0.250141	-0.120152
C25	C	1.043469	0.250148	0.120126
C26	C	0.951377	0.308564	-0.000011
C27	C	1.741580	0.181240	0.000089
C28	C	1.883210	0.185057	0.000088
C29	C	1.501285	0.421540	0.000064
C30	C	1.505105	0.563169	0.000055
N31	N	1.508441	0.188402	0.346743
N32	N	1.508471	0.188410	-0.346587
C33	C	1.594392	0.102516	0.423404
C34	C	1.594404	0.102516	0.576741
C35	C	1.422511	0.274300	0.576741
C36	C	1.422494	0.274292	0.423407
H37	H	1.398694	-0.218332	-0.221583
H38	H	1.074510	0.302343	0.221668
H39	H	1.664391	0.032578	0.639155
H40	H	0.942421	0.074388	-0.221569
H41	H	1.618115	-0.404855	0.221682
O42	O	0.936655	0.064135	0.241237
C43	C	0.995314	-0.062509	0.240759
H44	H	1.085469	-0.067798	0.170447
H45	H	1.021918	-0.092849	0.357567
H46	H	0.925991	-0.129289	0.193880
H47	H	1.664374	0.032577	0.360988
H48	H	1.618139	-0.404580	-0.221796
H49	H	1.734448	-0.259533	-0.000056
H50	H	1.398677	-0.218415	0.221668
O51	O	1.338980	0.357560	0.651380
C52	C	1.259657	0.288478	0.740077
H53	H	1.309551	0.189158	0.763053
H54	H	1.239982	0.341528	0.847897
H55	H	1.165298	0.278886	0.681006
H56	H	1.352496	0.344232	0.360984
O57	O	1.124742	-0.052817	-0.000319
C58	C	1.089235	-0.117440	-0.127174
H59	H	1.056500	-0.044515	-0.215243
H60	H	1.174877	-0.182253	-0.169097
H61	H	1.007620	-0.177806	-0.099763
O62	O	1.262677	-0.368936	-0.000014
C63	C	1.260748	-0.503145	0.001236
H64	H	1.354760	-0.549325	0.048133
H65	H	1.177722	-0.529806	0.071927
H66	H	1.248204	-0.538830	-0.115336
O67	O	1.080349	0.312535	-0.241283
C68	C	1.142128	0.420203	-0.198436
H69	H	1.181101	0.405213	-0.082528
H70	H	1.224487	0.433259	-0.276807
H71	H	1.070756	0.509198	-0.201328
H72	H	0.901955	0.410167	-0.000083
