data_functionalizedCrystal
_audit_creation_method	'MofGen! by Chris Wilmer'
_symmetry_space_group_name_H-M	'P1'
_symmetry_Int_Tables_number	1
_symmetry_cell_setting	triclinic
loop_
_symmetry_equiv_pos_as_xyz
  x,y,z
_cell_length_a	25.639242
_cell_length_b	16.120530
_cell_length_c	16.120256
_cell_angle_alpha	90.128265
_cell_angle_beta	87.115481
_cell_angle_gamma	92.897775
loop_
_atom_site_label
_atom_site_type_symbol
_atom_site_fract_x
_atom_site_fract_y
_atom_site_fract_z
Zn1	Zn	0.264904	1.247564	-0.534642
Zn2	Zn	0.348136	1.254554	-0.395607
Zn3	Zn	0.256066	1.115550	-0.388557
Zn4	Zn	0.347657	1.108510	-0.527577
O5	O	0.304191	1.181544	-0.461596
O6	O	0.279844	1.364859	-0.522106
O7	O	0.332424	1.241986	-0.278305
O8	O	0.184074	1.133083	-0.407941
O9	O	0.340994	1.369994	-0.419958
O10	O	0.190567	1.230073	-0.515269
O11	O	0.264781	1.139861	-0.273125
O12	O	0.264316	0.998248	-0.401091
O13	O	0.340178	1.121084	-0.644881
O14	O	0.331608	0.993076	-0.503228
O15	O	0.279379	1.223246	-0.650071
O16	O	0.421237	1.235159	-0.413107
O17	O	0.420885	1.127862	-0.510065
C18	C	0.296951	0.965489	-0.450628
C19	C	0.293868	0.873058	-0.445956
C20	C	0.167819	1.181584	-0.461607
C21	C	0.109706	1.181601	-0.461612
C22	C	0.288226	0.703826	-0.437433
C23	C	0.320196	0.660100	-0.485819
C24	C	0.317057	0.565933	-0.481077
C25	C	0.291364	0.798001	-0.442174
C26	C	-0.254044	1.131084	-0.405752
C27	C	-0.308648	1.131083	-0.405756
O28	O	-0.339764	1.088118	-0.358256
N29	N	-0.332576	1.181583	-0.461635
C30	C	-0.301898	1.232081	-0.517519
O31	O	-0.327265	1.275035	-0.565049
C32	C	-0.247295	1.232078	-0.517518
C33	C	-0.223369	1.181580	-0.461630
C34	C	-0.230118	1.080591	-0.349869
C35	C	-0.175517	1.080593	-0.349864
C36	C	-0.144843	1.131089	-0.405743
C37	C	-0.168769	1.181583	-0.461625
C38	C	-0.216617	1.282571	-0.573406
C39	C	-0.162011	1.282562	-0.573401
C40	C	-0.138085	1.232065	-0.517513
C41	C	-0.083494	1.232082	-0.517499
N42	N	-0.059565	1.181582	-0.461620
C43	C	-0.090239	1.131085	-0.405742
C44	C	-0.416568	1.232085	-0.517517
C45	C	-0.471171	1.232093	-0.517514
C46	C	-0.477917	1.131094	-0.405752
C47	C	-0.423314	1.131090	-0.405752
C48	C	-0.392640	1.181585	-0.461638
C49	C	0.024426	1.131095	-0.405736
C50	C	0.079031	1.131105	-0.405734
C51	C	0.085773	1.232101	-0.517498
C52	C	0.031172	1.232095	-0.517498
C53	C	0.000499	1.181585	-0.461613
O54	O	-0.052344	1.275022	-0.564977
O55	O	-0.064865	1.088131	-0.358227
C56	C	0.440033	1.181527	-0.461604
C57	C	0.498150	1.181594	-0.461639
C58	C	0.310711	1.170600	-0.678492
C59	C	0.313490	1.165936	-0.770921
C60	C	0.311458	1.398443	-0.472606
C61	C	0.314556	1.490873	-0.477298
C62	C	0.289687	1.205864	-0.983898
C63	C	0.318540	1.157394	-0.940143
C64	C	0.315729	1.162148	-0.845979
C65	C	0.292497	1.201110	-1.078070
C66	C	0.297659	1.192494	-0.245545
C67	C	0.294739	1.197319	-0.153125
H68	H	0.349924	0.693386	-0.530806
H69	H	-0.000542	1.089965	-0.360230
H70	H	0.098509	1.089983	-0.360220
H71	H	-0.391597	1.273209	-0.563027
H72	H	-0.236090	1.323690	-0.618915
H73	H	-0.403837	1.089969	-0.360244
C74	C	-0.128799	1.337470	-0.634123
C75	C	-0.161444	1.381700	-0.683051
C76	C	-0.130869	1.432294	-0.738990
H77	H	-0.107466	1.303914	-0.668814
H78	H	-0.107251	1.375358	-0.604182
H79	H	-0.182982	1.343817	-0.712989
H80	H	-0.182776	1.415272	-0.648382
H81	H	-0.109322	1.470182	-0.709049
H82	H	-0.109538	1.398731	-0.773675
H83	H	-0.153014	1.462316	-0.772189
C84	C	0.248538	0.659602	-0.377421
C85	C	0.219649	0.718447	-0.333718
C86	C	0.183083	0.677728	-0.278435
H87	H	0.266249	0.627537	-0.339396
H88	H	0.225610	0.624135	-0.407596
H89	H	0.242574	0.753899	-0.303545
H90	H	0.201927	0.750515	-0.371721
H91	H	0.160155	0.642262	-0.308610
H92	H	0.200798	0.645664	-0.240416
H93	H	0.163474	0.717648	-0.248782
H94	H	0.262876	1.250929	-0.950642
C95	C	0.354384	1.097358	-0.984374
C96	C	0.406101	1.116493	-0.964230
C97	C	0.439135	1.061205	-1.004952
H98	H	0.351619	1.102053	-1.042698
H99	H	0.344480	1.042175	-0.967324
H100	H	0.416002	1.171662	-0.981284
H101	H	0.408882	1.111792	-0.905913
H102	H	0.429230	1.006022	-0.987903
H103	H	0.436365	1.065904	-1.063274
H104	H	0.474227	1.074175	-0.991284
H105	H	-0.156042	1.039471	-0.304356
H106	H	-0.502902	1.089976	-0.360254
C107	C	-0.263325	1.025737	-0.289099
C108	C	-0.230674	0.981538	-0.240154
C109	C	-0.261242	0.931009	-0.184148
H110	H	-0.284890	0.987825	-0.318963
H111	H	-0.284640	1.059361	-0.254433
H112	H	-0.209368	0.947917	-0.274816
H113	H	-0.209108	1.019429	-0.210273
H114	H	-0.282556	0.964634	-0.149481
H115	H	-0.282805	0.893102	-0.214018
H116	H	-0.239092	0.901020	-0.150927
C117	C	-0.497045	1.286953	-0.578280
C118	C	-0.458488	1.331157	-0.627224
C119	C	-0.482302	1.381691	-0.683223
H120	H	-0.518090	1.324862	-0.548412
H121	H	-0.518304	1.253332	-0.612948
H122	H	-0.437238	1.364776	-0.592560
H123	H	-0.437441	1.293269	-0.657110
H124	H	-0.503561	1.348070	-0.717892
H125	H	-0.503346	1.419595	-0.653348
H126	H	-0.456145	1.411683	-0.716444
H127	H	0.011692	1.273223	-0.562999
H128	H	0.110758	1.273216	-0.562990
