data_functionalizedCrystal
_audit_creation_method	'MofGen! by Chris Wilmer'
_symmetry_space_group_name_H-M	'P1'
_symmetry_Int_Tables_number	1
_symmetry_cell_setting	triclinic
loop_
_symmetry_equiv_pos_as_xyz
  x,y,z
_cell_length_a	15.298068
_cell_length_b	19.120786
_cell_length_c	15.297908
_cell_angle_alpha	97.650460
_cell_angle_beta	69.187878
_cell_angle_gamma	101.659200
loop_
_atom_site_label
_atom_site_type_symbol
_atom_site_fract_x
_atom_site_fract_y
_atom_site_fract_z
Zn1	Zn	1.501034	-0.180094	-0.760439
Zn2	Zn	1.467374	-0.280236	-0.598254
Zn3	Zn	1.318585	-0.180085	-0.577968
Zn4	Zn	1.336504	-0.314811	-0.724474
O5	O	1.405874	-0.238807	-0.665284
O6	O	1.627694	-0.178912	-0.762466
O7	O	1.426051	-0.252477	-0.466374
O8	O	1.349375	-0.081794	-0.608735
O9	O	1.602964	-0.252486	-0.643309
O10	O	1.483419	-0.081800	-0.742795
O11	O	1.316736	-0.178897	-0.451470
O12	O	1.189837	-0.212423	-0.573861
O13	O	1.379915	-0.311414	-0.858433
O14	O	1.203002	-0.311406	-0.681499
O15	O	1.500795	-0.212438	-0.884857
O16	O	1.443426	-0.383115	-0.608435
O17	O	1.347277	-0.408517	-0.701169
C18	C	1.162420	-0.265666	-0.621577
C19	C	1.058272	-0.277176	-0.602899
C20	C	0.816243	-0.156720	-0.798763
C21	C	0.914097	-0.145909	-0.816316
C22	C	0.950145	-0.178724	-0.762963
C23	C	0.888331	-0.222354	-0.692055
C24	C	0.790469	-0.233171	-0.674504
C25	C	0.924371	-0.255175	-0.638705
C26	C	0.862556	-0.298804	-0.567796
C27	C	0.764704	-0.309619	-0.550249
C28	C	0.728655	-0.276803	-0.603601
C29	C	1.022233	-0.244358	-0.656255
C30	C	0.996458	-0.320808	-0.531997
C31	C	0.898605	-0.331620	-0.514443
C32	C	1.393672	-0.421302	-0.653125
C33	C	1.388543	-0.499368	-0.647970
C34	C	1.455886	-0.535997	-0.715387
C35	C	1.451063	-0.609349	-0.710544
C36	C	1.378900	-0.646070	-0.638280
C37	C	1.311550	-0.609436	-0.570860
C38	C	1.316370	-0.536087	-0.575708
C39	C	1.360855	-0.867542	-0.620154
C40	C	1.356042	-0.940897	-0.615310
C41	C	1.495555	-0.940805	-0.754995
C42	C	1.500371	-0.867453	-0.759832
C43	C	1.433018	-0.830826	-0.692416
C44	C	1.373971	-0.721047	-0.633327
C45	C	1.437945	-0.755851	-0.697374
C46	C	1.650279	-0.211843	-0.709162
C47	C	1.754430	-0.200353	-0.727860
C48	C	1.446108	-0.265784	-0.906079
C49	C	1.463254	-0.277280	-1.008691
C50	C	1.418153	-0.055598	-0.677514
C51	C	1.423385	0.022474	-0.682726
C52	C	1.283934	-0.156450	-1.266910
C53	C	1.267828	-0.145642	-1.170501
C54	C	1.316682	-0.178551	-1.130044
C55	C	1.381647	-0.222269	-1.186005
C56	C	1.397761	-0.233074	-1.282424
C57	C	1.430509	-0.255174	-1.145558
C58	C	1.495475	-0.298893	-1.201520
C59	C	1.511585	-0.309696	-1.297929
C60	C	1.462730	-0.276787	-1.338387
C61	C	1.414395	-0.244370	-1.049139
C62	C	1.528222	-0.320993	-1.064653
C63	C	1.544329	-0.331802	-1.161062
C64	C	1.365854	-0.211878	-0.425438
C65	C	1.348903	-0.200164	-0.322872
H66	H	1.029822	-0.169916	-0.777257
Cl67	Cl	1.099930	-0.189510	-0.745394
Cl68	Cl	1.296430	-0.164964	-1.008842
H69	H	1.297273	-0.970793	-0.556463
H70	H	1.568006	-0.347789	-1.031714
Cl71	Cl	1.580218	-0.986854	-0.839745
H72	H	1.475835	-0.285590	-1.416889
Cl73	Cl	0.991799	-0.091066	-0.905458
H74	H	1.306015	-0.837726	-0.565259
Cl75	Cl	1.528657	-0.709688	-0.788220
Cl76	Cl	1.625997	-0.386760	-1.231424
H77	H	1.361501	-0.208773	-1.003585
Cl78	Cl	0.770921	-0.115482	-0.865836
Cl79	Cl	1.222534	-0.115078	-1.317777
Cl80	Cl	0.605635	-0.290391	-0.581535
H81	H	1.514653	-0.506103	-0.774228
H82	H	1.214932	-0.110047	-1.124944
H83	H	1.025808	-0.347533	-0.488556
Cl84	Cl	1.220822	-0.655602	-0.480021
H85	H	1.261531	-0.506264	-0.520811
Cl86	Cl	1.283249	-0.767218	-0.542488
Cl87	Cl	1.593263	-0.364651	-1.368280
H88	H	1.559132	-0.837556	-0.818675
Cl89	Cl	0.686996	-0.364465	-0.461103
H90	H	0.848262	-0.367144	-0.456709
H91	H	1.505908	-0.639168	-0.765435
