data_functionalizedCrystal
_audit_creation_method	'MofGen! by Chris Wilmer'
_symmetry_space_group_name_H-M	'P1'
_symmetry_Int_Tables_number	1
_symmetry_cell_setting	triclinic
loop_
_symmetry_equiv_pos_as_xyz
  x,y,z
_cell_length_a	19.805407
_cell_length_b	13.032721
_cell_length_c	19.805407
_cell_angle_alpha	82.831252
_cell_angle_beta	90.009221
_cell_angle_gamma	97.204665
loop_
_atom_site_label
_atom_site_type_symbol
_atom_site_fract_x
_atom_site_fract_y
_atom_site_fract_z
Zn1	Zn	1.000446	-0.416228	0.416956
Zn2	Zn	0.986017	-0.590950	0.318140
Zn3	Zn	0.887282	-0.416213	0.303780
Zn4	Zn	0.872860	-0.590938	0.431286
O5	O	0.936651	-0.503582	0.367540
O6	O	1.093248	-0.439417	0.403861
O7	O	0.972916	-0.567770	0.221518
O8	O	0.914368	-0.269971	0.306786
O9	O	1.082646	-0.567784	0.331261
O10	O	0.997509	-0.269982	0.389937
O11	O	0.900377	-0.439392	0.210968
O12	O	0.790654	-0.439380	0.320681
O13	O	0.889788	-0.567763	0.524102
O14	O	0.780058	-0.567749	0.414359
O15	O	0.983525	-0.439405	0.513574
O16	O	0.958932	-0.737193	0.345156
O17	O	0.875796	-0.737184	0.428283
C18	C	0.760797	-0.503562	0.367517
C19	C	0.685564	-0.503579	0.367525
C20	C	0.644712	-0.570521	0.416241
C21	C	0.574023	-0.570523	0.416251
C22	C	0.544187	-0.503587	0.367541
C23	C	0.585045	-0.436637	0.318822
C24	C	0.655733	-0.436631	0.318816
C25	C	0.299970	-0.436660	0.318846
C26	C	0.229276	-0.436674	0.318855
C27	C	0.218260	-0.570553	0.416281
C28	C	0.288948	-0.570546	0.416275
C29	C	0.329800	-0.503593	0.367559
C30	C	0.406448	-0.503590	0.367550
C31	C	0.467540	-0.503594	0.367546
C32	C	0.914252	-0.775108	0.389847
C33	C	0.904731	-0.891267	0.399413
C34	C	0.941656	-0.943025	0.362579
C35	C	0.931817	-1.063082	0.372464
C36	C	1.113192	-0.503603	0.367565
C37	C	1.188424	-0.503612	0.367575
C38	C	0.936657	-0.503584	0.544083
C39	C	0.936660	-0.503585	0.619315
C40	C	0.959157	-0.230997	0.345161
C41	C	0.968748	-0.114837	0.335625
C42	C	0.985462	-0.436759	0.649180
C43	C	0.985457	-0.436756	0.719868
C44	C	0.936651	-0.503585	0.760691
C45	C	0.887844	-0.570414	0.730822
C46	C	0.887847	-0.570411	0.660135
C47	C	0.887829	-0.570426	1.015896
C48	C	0.887831	-0.570426	1.086588
C49	C	0.985439	-0.436771	1.075630
C50	C	0.985442	-0.436768	1.004942
C51	C	0.936633	-0.503593	0.975079
C52	C	0.936639	-0.503594	0.898431
C53	C	0.936648	-0.503590	0.837338
C54	C	0.936637	-0.503601	1.191686
C55	C	0.936631	-0.503594	1.116453
H56	H	0.184990	-0.625065	0.455951
H57	H	0.540764	-0.625035	0.455920
H58	H	0.848101	-0.624817	0.635820
H59	H	0.204987	-0.382160	0.279189
F60	F	0.553290	-0.365392	0.266984
F61	F	1.037419	-0.365667	0.751651
H62	H	0.848103	-0.624823	0.764065
F63	F	0.343438	-0.365400	0.266999
F64	F	0.676458	-0.641770	0.468083
H65	H	0.688994	-0.382114	0.279149
H66	H	0.980557	-0.898457	0.323727
H67	H	0.892919	-1.107648	0.411324
H68	H	1.007651	-1.070272	0.296770
H69	H	1.025207	-0.382343	0.615946
H70	H	0.865836	-0.935838	0.438270
H71	H	1.025187	-0.382353	0.971707
H72	H	1.025180	-0.382356	1.099952
F73	F	0.835883	-0.641558	1.130035
H74	H	0.313236	-0.625056	0.455938
H75	H	0.848094	-0.624854	0.991592
