data_functionalizedCrystal
_audit_creation_method	'MofGen! by Chris Wilmer'
_symmetry_space_group_name_H-M	'P1'
_symmetry_Int_Tables_number	1
_symmetry_cell_setting	triclinic
loop_
_symmetry_equiv_pos_as_xyz
  x,y,z
_cell_length_a	21.395362
_cell_length_b	16.959454
_cell_length_c	21.395356
_cell_angle_alpha	89.977834
_cell_angle_beta	89.957023
_cell_angle_gamma	90.035955
loop_
_atom_site_label
_atom_site_type_symbol
_atom_site_fract_x
_atom_site_fract_y
_atom_site_fract_z
Zn1	Zn	0.957900	-0.314366	-0.354610
Zn2	Zn	1.207900	-0.064366	-0.104610
Zn3	Zn	1.457900	0.185634	0.145390
Zn4	Zn	1.707900	0.435634	0.395390
Zn5	Zn	0.957824	-0.446548	-0.249842
Zn6	Zn	1.207824	-0.196548	0.000158
Zn7	Zn	1.457824	0.053452	0.250158
Zn8	Zn	1.707824	0.303452	0.500158
Zn9	Zn	0.853117	-0.314424	-0.249811
Zn10	Zn	1.103117	-0.064424	0.000189
Zn11	Zn	1.353117	0.185576	0.250189
Zn12	Zn	1.603117	0.435576	0.500189
Zn13	Zn	0.853103	-0.446544	-0.354547
Zn14	Zn	1.103103	-0.196544	-0.104547
Zn15	Zn	1.353103	0.053456	0.145453
Zn16	Zn	1.603103	0.303456	0.395453
O17	O	0.905486	-0.380471	-0.302202
O18	O	1.155486	-0.130471	-0.052202
O19	O	1.405486	0.119529	0.197798
O20	O	1.655486	0.369529	0.447798
O21	O	1.045568	-0.331878	-0.340751
O22	O	1.295568	-0.081878	-0.090751
O23	O	1.545568	0.168122	0.159249
O24	O	1.795568	0.418122	0.409249
O25	O	0.943907	-0.429048	-0.162160
O26	O	1.193907	-0.179048	0.087840
O27	O	1.443907	0.070952	0.337840
O28	O	1.693907	0.320952	0.587840
O29	O	0.867054	-0.203806	-0.263726
O30	O	1.117054	0.046194	-0.013726
O31	O	1.367054	0.296194	0.236274
O32	O	1.617054	0.546194	0.486274
O33	O	1.045512	-0.428992	-0.263779
O34	O	1.295512	-0.178992	-0.013779
O35	O	1.545512	0.071008	0.236221
O36	O	1.795512	0.321008	0.486221
O37	O	0.944038	-0.203763	-0.340721
O38	O	1.194038	0.046237	-0.090721
O39	O	1.444038	0.296237	0.159279
O40	O	1.694038	0.546237	0.409279
O41	O	0.866980	-0.331977	-0.162137
O42	O	1.116980	-0.081977	0.087863
O43	O	1.366980	0.168023	0.337863
O44	O	1.616980	0.418023	0.587863
O45	O	0.765437	-0.331973	-0.263665
O46	O	1.015437	-0.081973	-0.013665
O47	O	1.265437	0.168027	0.236335
O48	O	1.515437	0.418027	0.486335
O49	O	0.867031	-0.428984	-0.442233
O50	O	1.117031	-0.178984	-0.192233
O51	O	1.367031	0.071016	0.057767
O52	O	1.617031	0.321016	0.307767
O53	O	0.765427	-0.429040	-0.340614
O54	O	1.015427	-0.179040	-0.090614
O55	O	1.265427	0.070960	0.159386
O56	O	1.515427	0.320960	0.409386
O57	O	0.944025	-0.331874	-0.442279
O58	O	1.194025	-0.081874	-0.192279
O59	O	1.444025	0.168126	0.057721
O60	O	1.694025	0.418126	0.307721
O61	O	0.943895	-0.557159	-0.263718
O62	O	1.193895	-0.307159	-0.013718
O63	O	1.443895	-0.057159	0.236282
O64	O	1.693895	0.192841	0.486282
O65	O	0.866957	-0.557155	-0.340645
O66	O	1.116957	-0.307155	-0.090645
O67	O	1.366957	-0.057155	0.159355
O68	O	1.616957	0.192845	0.409355
C69	C	0.742698	-0.380513	-0.302130
C70	C	0.992698	-0.130513	-0.052130
C71	C	1.242698	0.119487	0.197870
C72	C	1.492698	0.369487	0.447870
C73	C	0.673057	-0.380549	-0.302114
C74	C	0.923057	-0.130549	-0.052114
C75	C	1.173057	0.119451	0.197886
C76	C	1.423057	0.369451	0.447886
C77	C	0.640355	-0.431159	-0.342121
C78	C	0.890355	-0.181159	-0.092121
C79	C	1.140355	0.068841	0.157879
C80	C	1.390355	0.318841	0.407879
C81	C	0.574920	-0.431140	-0.342149
C82	C	0.824920	-0.181140	-0.092149
C83	C	1.074920	0.068860	0.157851
C84	C	1.324920	0.318860	0.407851
C85	C	0.542189	-0.380519	-0.302158
C86	C	0.792189	-0.130519	-0.052158
C87	C	1.042189	0.119481	0.197842
C88	C	1.292189	0.369481	0.447842
C89	C	0.574898	-0.329899	-0.262148
C90	C	0.824898	-0.079899	-0.012148
C91	C	1.074898	0.170101	0.237852
C92	C	1.324898	0.420101	0.487852
C93	C	0.640332	-0.329914	-0.262126
C94	C	0.890332	-0.079914	-0.012126
C95	C	1.140332	0.170086	0.237874
C96	C	1.390332	0.420086	0.487874
C97	C	0.438464	-0.374163	-0.245752
C98	C	0.688464	-0.124163	0.004248
C99	C	0.938464	0.125837	0.254248
C100	C	1.188464	0.375837	0.504248
C101	C	0.373031	-0.374153	-0.245774
C102	C	0.623031	-0.124153	0.004226
C103	C	0.873031	0.125847	0.254226
C104	C	1.123031	0.375847	0.504226
C105	C	0.340368	-0.380467	-0.302227
C106	C	0.590368	-0.130467	-0.052227
C107	C	0.840368	0.119533	0.197773
C108	C	1.090368	0.369533	0.447773
C109	C	0.373146	-0.386808	-0.358661
C110	C	0.623146	-0.136808	-0.108661
C111	C	0.873146	0.113192	0.141339
C112	C	1.123146	0.363192	0.391339
C113	C	0.438580	-0.386823	-0.358639
C114	C	0.688580	-0.136823	-0.108639
C115	C	0.938580	0.113177	0.141361
C116	C	1.188580	0.363177	0.391361
C117	C	0.471236	-0.380496	-0.302178
C118	C	0.721236	-0.130496	-0.052178
C119	C	0.971236	0.119504	0.197822
C120	C	1.221236	0.369504	0.447822
C121	C	0.236714	-0.431059	-0.342268
C122	C	0.486714	-0.181059	-0.092268
C123	C	0.736714	0.068941	0.157732
C124	C	0.986714	0.318941	0.407732
C125	C	0.171277	-0.431034	-0.342297
C126	C	0.421277	-0.181034	-0.092297
C127	C	0.671277	0.068966	0.157703
C128	C	0.921277	0.318966	0.407703
C129	C	0.171257	-0.329797	-0.262291
C130	C	0.421257	-0.079797	-0.012291
C131	C	0.671257	0.170203	0.237709
C132	C	0.921257	0.420203	0.487709
C133	C	0.236692	-0.329818	-0.262267
C134	C	0.486692	-0.079818	-0.012267
C135	C	0.736692	0.170182	0.237733
C136	C	0.986692	0.420182	0.487733
C137	C	0.269417	-0.380453	-0.302255
C138	C	0.519417	-0.130453	-0.052255
C139	C	0.769417	0.119547	0.197745
C140	C	1.019417	0.369547	0.447745
C141	C	0.905433	-0.585837	-0.302192
C142	C	1.155433	-0.335837	-0.052192
C143	C	1.405433	-0.085837	0.197808
C144	C	1.655433	0.164163	0.447808
C145	C	0.905468	-0.673694	-0.302208
C146	C	1.155468	-0.423694	-0.052208
C147	C	1.405468	-0.173694	0.197792
C148	C	1.655468	0.076306	0.447792
C149	C	0.865483	-1.045197	-0.342254
C150	C	1.115483	-0.795197	-0.092254
C151	C	1.365483	-0.545197	0.157746
C152	C	1.615483	-0.295197	0.407746
C153	C	0.945664	-1.045141	-0.262215
C154	C	1.195664	-0.795141	-0.012215
C155	C	1.445664	-0.545141	0.237785
C156	C	1.695664	-0.295141	0.487785
C157	C	0.945642	-0.962595	-0.262209
C158	C	1.195642	-0.712595	-0.012209
C159	C	1.445642	-0.462595	0.237791
C160	C	1.695642	-0.212595	0.487791
C161	C	0.905539	-0.921346	-0.302226
C162	C	1.155539	-0.671346	-0.052226
C163	C	1.405539	-0.421346	0.197774
C164	C	1.655539	-0.171346	0.447774
C165	C	0.865458	-0.962644	-0.342248
C166	C	1.115458	-0.712644	-0.092248
C167	C	1.365458	-0.462644	0.157752
C168	C	1.615458	-0.212644	0.407752
C169	C	0.985717	-0.921292	-0.222184
C170	C	1.235717	-0.671292	0.027816
C171	C	1.485717	-0.421292	0.277816
C172	C	1.735717	-0.171292	0.527816
C173	C	0.985696	-0.838741	-0.222176
C174	C	1.235696	-0.588741	0.027824
C175	C	1.485696	-0.338741	0.277824
C176	C	1.735696	-0.088741	0.527824
C177	C	0.945596	-0.797491	-0.262196
C178	C	1.195596	-0.547491	-0.012196
C179	C	1.445596	-0.297491	0.237804
C180	C	1.695596	-0.047491	0.487804
C181	C	0.905515	-0.838793	-0.302220
C182	C	1.155515	-0.588793	-0.052220
C183	C	1.405515	-0.338793	0.197780
C184	C	1.655515	-0.088793	0.447780
C185	C	0.865412	-0.797544	-0.342236
C186	C	1.115412	-0.547544	-0.092236
C187	C	1.365412	-0.297544	0.157764
C188	C	1.615412	-0.047544	0.407764
C189	C	0.825333	-0.838845	-0.382264
C190	C	1.075333	-0.588845	-0.132264
C191	C	1.325333	-0.338845	0.117736
C192	C	1.575333	-0.088845	0.367736
C193	C	0.825358	-0.921394	-0.382268
C194	C	1.075358	-0.671394	-0.132268
C195	C	1.325358	-0.421394	0.117732
C196	C	1.575358	-0.171394	0.367732
C197	C	0.945571	-0.714942	-0.262192
C198	C	1.195571	-0.464942	-0.012192
C199	C	1.445571	-0.214942	0.237808
C200	C	1.695571	0.035058	0.487808
C201	C	0.865387	-0.714991	-0.342230
C202	C	1.115387	-0.464991	-0.092230
C203	C	1.365387	-0.214991	0.157770
C204	C	1.615387	0.035009	0.407770
C205	C	1.068909	-0.380429	-0.302276
C206	C	1.318909	-0.130429	-0.052276
C207	C	1.568909	0.119571	0.197724
C208	C	1.818909	0.369571	0.447724
C209	C	1.138550	-0.380412	-0.302307
C210	C	1.388550	-0.130412	-0.052307
C211	C	1.638550	0.119588	0.197693
C212	C	1.888550	0.369588	0.447693
C213	C	0.905535	-0.380422	-0.465626
C214	C	1.155535	-0.130422	-0.215626
C215	C	1.405535	0.119578	0.034374
C216	C	1.655535	0.369578	0.284374
C217	C	0.905556	-0.380401	-0.535267
C218	C	1.155556	-0.130401	-0.285267
C219	C	1.405556	0.119599	-0.035267
C220	C	1.655556	0.369599	0.214733
C221	C	0.905556	-0.174302	-0.302227
C222	C	1.155556	0.075698	-0.052227
C223	C	1.405556	0.325698	0.197773
C224	C	1.655556	0.575698	0.447773
C225	C	0.905585	-0.086446	-0.302237
C226	C	1.155585	0.163554	-0.052237
C227	C	1.405585	0.413554	0.197763
C228	C	1.655585	0.663554	0.447763
C229	C	0.865511	-0.329850	-0.567958
C230	C	1.115511	-0.079850	-0.317958
C231	C	1.365511	0.170150	-0.067958
C232	C	1.615511	0.420150	0.182042
C233	C	0.865508	-0.329836	-0.633394
C234	C	1.115508	-0.079836	-0.383394
C235	C	1.365508	0.170164	-0.133394
C236	C	1.615508	0.420164	0.116606
C237	C	0.905563	-0.380363	-0.666135
C238	C	1.155563	-0.130363	-0.416135
C239	C	1.405563	0.119637	-0.166135
C240	C	1.655563	0.369637	0.083865
C241	C	0.945611	-0.430924	-0.633436
C242	C	1.195611	-0.180924	-0.383436
C243	C	1.445611	0.069076	-0.133436
C244	C	1.695611	0.319076	0.116564
C245	C	0.945608	-0.430942	-0.568002
C246	C	1.195608	-0.180942	-0.318002
C247	C	1.445608	0.069058	-0.068002
C248	C	1.695608	0.319058	0.181998
C249	C	0.962016	-0.386558	-0.769841
C250	C	1.212016	-0.136558	-0.519841
C251	C	1.462016	0.113442	-0.269841
C252	C	1.712016	0.363442	-0.019841
C253	C	0.962020	-0.386533	-0.835274
C254	C	1.212020	-0.136533	-0.585274
C255	C	1.462020	0.113467	-0.335274
C256	C	1.712020	0.363467	-0.085274
C257	C	0.905573	-0.380310	-0.867956
C258	C	1.155573	-0.130310	-0.617956
C259	C	1.405573	0.119690	-0.367956
C260	C	1.655573	0.369690	-0.117956
C261	C	0.849120	-0.374094	-0.835197
C262	C	1.099120	-0.124094	-0.585197
C263	C	1.349120	0.125906	-0.335197
C264	C	1.599120	0.375906	-0.085197
C265	C	0.849117	-0.374113	-0.769763
C266	C	1.099117	-0.124113	-0.519763
C267	C	1.349117	0.125887	-0.269763
C268	C	1.599117	0.375887	-0.019763
C269	C	0.905571	-0.380349	-0.737088
C270	C	1.155571	-0.130349	-0.487088
C271	C	1.405571	0.119651	-0.237088
C272	C	1.655571	0.369651	0.012912
C273	C	0.865522	-0.329741	-0.971600
C274	C	1.115522	-0.079741	-0.721600
C275	C	1.365522	0.170259	-0.471600
C276	C	1.615522	0.420259	-0.221600
C277	C	0.865519	-0.329732	-1.037037
C278	C	1.115519	-0.079732	-0.787037
C279	C	1.365519	0.170268	-0.537037
C280	C	1.615519	0.420268	-0.287037
C281	C	0.945627	-0.430815	-1.037078
C282	C	1.195627	-0.180815	-0.787078
C283	C	1.445627	0.069185	-0.537078
C284	C	1.695627	0.319185	-0.287078
C285	C	0.945625	-0.430829	-0.971643
C286	C	1.195625	-0.180829	-0.721643
C287	C	1.445625	0.069171	-0.471643
C288	C	1.695625	0.319171	-0.221643
C289	C	0.905573	-0.380287	-0.938908
C290	C	1.155573	-0.130287	-0.688908
C291	C	1.405573	0.119713	-0.438908
C292	C	1.655573	0.369713	-0.188908
C293	C	0.905473	-0.380462	-0.139415
C294	C	1.155473	-0.130462	0.110585
C295	C	1.405473	0.119538	0.360585
C296	C	1.655473	0.369538	0.610585
C297	C	0.905573	-0.380261	-0.069774
C298	C	1.155573	-0.130261	0.180226
C299	C	1.405573	0.119739	0.430226
C300	C	1.655573	0.369739	0.680226
H301	H	0.144652	-0.472245	-0.374880
H302	H	0.394652	-0.222245	-0.124880
H303	H	0.644652	0.027755	0.125120
H304	H	0.894652	0.277755	0.375120
H305	H	0.666995	-0.472389	-0.374683
H306	H	0.916995	-0.222389	-0.124683
H307	H	1.166995	0.027611	0.125317
H308	H	1.416995	0.277611	0.375317
H309	H	0.832733	-0.681411	-0.374819
H310	H	1.082733	-0.431411	-0.124819
H311	H	1.332733	-0.181411	0.125181
H312	H	1.582733	0.068589	0.375181
H313	H	0.832853	-1.078828	-0.374845
H314	H	1.082853	-0.828828	-0.124845
H315	H	1.332853	-0.578828	0.125155
H316	H	1.582853	-0.328828	0.375155
H317	H	0.803156	-0.369021	-0.861805
H318	H	1.053156	-0.119021	-0.611805
H319	H	1.303156	0.130979	-0.361805
H320	H	1.553156	0.380979	-0.111805
H321	H	0.978221	-0.472106	-0.541385
H322	H	1.228221	-0.222106	-0.291385
H323	H	1.478221	0.027894	-0.041385
H324	H	1.728221	0.277894	0.208615
H325	H	1.018362	-0.954882	-0.189600
H326	H	1.268362	-0.704882	0.060400
H327	H	1.518362	-0.454882	0.310400
H328	H	1.768362	-0.204882	0.560400
H329	H	0.978242	-0.471954	-1.063736
H330	H	1.228242	-0.221954	-0.813736
H331	H	1.478242	0.028046	-0.563736
H332	H	1.728242	0.278046	-0.313736
H333	H	0.832909	-0.288587	-0.944946
H334	H	1.082909	-0.038587	-0.694946
H335	H	1.332909	0.211413	-0.444946
H336	H	1.582909	0.461413	-0.194946
H337	H	0.548289	-0.472352	-0.374730
H338	H	0.798289	-0.222352	-0.124730
H339	H	1.048289	0.027648	0.125270
H340	H	1.298289	0.277648	0.375270
H341	H	0.263359	-0.472285	-0.374832
H342	H	0.513359	-0.222285	-0.124832
H343	H	0.763359	0.027715	0.125168
H344	H	1.013359	0.277715	0.375168
H345	H	0.263318	-0.288610	-0.229686
H346	H	0.513318	-0.038610	0.020314
H347	H	0.763318	0.211390	0.270314
H348	H	1.013318	0.461390	0.520314
H349	H	1.018331	-0.805119	-0.189584
H350	H	1.268331	-0.555119	0.060416
H351	H	1.518331	-0.305119	0.310416
H352	H	1.768331	-0.055119	0.560416
H353	H	0.792727	-0.955028	-0.414855
H354	H	1.042727	-0.705028	-0.164855
H355	H	1.292727	-0.455028	0.085145
H356	H	1.542727	-0.205028	0.335145
H357	H	0.465265	-0.391984	-0.404590
H358	H	0.715265	-0.141984	-0.154590
H359	H	0.965265	0.108016	0.095410
H360	H	1.215265	0.358016	0.345410
H361	H	0.978200	-0.681319	-0.229599
H362	H	1.228200	-0.431319	0.020401
H363	H	1.478200	-0.181319	0.270401
H364	H	1.728200	0.068681	0.520401
H365	H	0.978236	-0.471991	-0.945025
H366	H	1.228236	-0.221991	-0.695025
H367	H	1.478236	0.028009	-0.445025
H368	H	1.728236	0.278009	-0.195025
H369	H	0.346553	-0.391949	-0.404632
H370	H	0.596553	-0.141949	-0.154632
H371	H	0.846553	0.108051	0.095368
H372	H	1.096553	0.358051	0.345368
H373	H	0.792678	-0.805251	-0.414843
H374	H	1.042678	-0.555251	-0.164843
H375	H	1.292678	-0.305251	0.085157
H376	H	1.542678	-0.055251	0.335157
H377	H	0.832895	-0.288698	-0.541310
H378	H	1.082895	-0.038698	-0.291310
H379	H	1.332895	0.211302	-0.041310
H380	H	1.582895	0.461302	0.208690
H381	H	0.832904	-0.288570	-1.063653
H382	H	1.082904	-0.038570	-0.813653
H383	H	1.332904	0.211430	-0.563653
H384	H	1.582904	0.461430	-0.313653
H385	H	0.144608	-0.288577	-0.229733
H386	H	0.394608	-0.038577	0.020267
H387	H	0.644608	0.211423	0.270267
H388	H	0.894608	0.461423	0.520267
H389	H	0.978310	-1.078731	-0.229632
H390	H	1.228310	-0.828731	0.020368
H391	H	1.478310	-0.578731	0.270368
H392	H	1.728310	-0.328731	0.520368
H393	H	0.832900	-0.288667	-0.660016
H394	H	1.082900	-0.038667	-0.410016
H395	H	1.332900	0.211333	-0.160016
H396	H	1.582900	0.461333	0.089984
H397	H	1.007988	-0.391591	-0.861942
H398	H	1.257988	-0.141591	-0.611942
H399	H	1.507988	0.108409	-0.361942
H400	H	1.757988	0.358409	-0.111942
H401	H	1.007986	-0.391619	-0.743237
H402	H	1.257986	-0.141619	-0.493237
H403	H	1.507986	0.108381	-0.243237
H404	H	1.757986	0.358381	0.006763
H405	H	0.803150	-0.369053	-0.743093
H406	H	1.053150	-0.119053	-0.493093
H407	H	1.303150	0.130947	-0.243093
H408	H	1.553150	0.380947	0.006907
H409	H	0.978224	-0.472064	-0.660099
H410	H	1.228224	-0.222064	-0.410099
H411	H	1.478224	0.027936	-0.160099
H412	H	1.728224	0.277936	0.089901
H413	H	0.346348	-0.368995	-0.199822
H414	H	0.596348	-0.118995	0.050178
H415	H	0.846348	0.131005	0.300178
H416	H	1.096348	0.381005	0.550178
H417	H	0.548244	-0.288682	-0.229588
H418	H	0.798244	-0.038682	0.020412
H419	H	1.048244	0.211318	0.270412
H420	H	1.298244	0.461318	0.520412
H421	H	0.666958	-0.288699	-0.229547
H422	H	0.916958	-0.038699	0.020453
H423	H	1.166958	0.211301	0.270453
H424	H	1.416958	0.461301	0.520453
H425	H	0.465053	-0.369017	-0.199778
H426	H	0.715053	-0.119017	0.050222
H427	H	0.965053	0.130983	0.300222
H428	H	1.215053	0.380983	0.550222
