data_functionalizedCrystal
_audit_creation_method	'MofGen! by Chris Wilmer'
_symmetry_space_group_name_H-M	'P1'
_symmetry_Int_Tables_number	1
_symmetry_cell_setting	triclinic
loop_
_symmetry_equiv_pos_as_xyz
  x,y,z
_cell_length_a	12.837943
_cell_length_b	9.730217
_cell_length_c	12.811415
_cell_angle_alpha	95.434118
_cell_angle_beta	89.411917
_cell_angle_gamma	90.000344
loop_
_atom_site_label
_atom_site_type_symbol
_atom_site_fract_x
_atom_site_fract_y
_atom_site_fract_z
O1	O	1.376626	0.148283	0.272975
O2	O	1.876626	0.648283	0.772975
O3	O	1.074763	0.146610	0.259490
O4	O	1.574763	0.646610	0.759490
O5	O	1.233289	0.128492	0.114200
O6	O	1.733289	0.628492	0.614200
O7	O	1.218100	0.166401	0.418265
O8	O	1.718100	0.666401	0.918265
O9	O	1.233284	-0.100089	0.114198
O10	O	1.733284	0.399911	0.614198
O11	O	1.074758	-0.081970	0.259488
O12	O	1.574758	0.418030	0.759488
O13	O	1.376622	-0.080298	0.272973
O14	O	1.876622	0.419702	0.772973
Zn15	Zn	1.225689	-0.117426	0.266230
Zn16	Zn	1.725689	0.382574	0.766230
Zn17	Zn	1.225695	0.183739	0.266233
Zn18	Zn	1.725695	0.683739	0.766233
O19	O	1.218095	-0.062179	0.418264
O20	O	1.718095	0.437821	0.918264
C21	C	1.036120	0.031754	0.254934
C22	C	1.536120	0.531754	0.754934
C23	C	0.920984	0.030063	0.241348
C24	C	1.420984	0.530063	0.741348
C25	C	0.680730	0.050407	0.404678
C26	C	1.180730	0.550407	0.904678
C27	C	0.572549	0.048819	0.391917
C28	C	1.072549	0.548819	0.891917
C29	C	0.596440	0.025288	0.203067
C30	C	1.096440	0.525288	0.703067
C31	C	0.704621	0.026877	0.215828
C32	C	1.204621	0.526877	0.715828
C33	C	0.746762	0.039439	0.316636
C34	C	1.246762	0.539439	0.816636
C35	C	0.854945	0.041037	0.329396
C36	C	1.354945	0.541037	0.829396
C37	C	0.878833	0.017497	0.140547
C38	C	1.378833	0.517497	0.640547
C39	C	0.770652	0.015908	0.127786
C40	C	1.270652	0.515908	0.627786
N41	N	1.225692	-0.322962	0.266229
N42	N	1.725692	0.177038	0.766229
C43	C	1.366125	-0.338991	0.137621
C44	C	1.866125	0.161009	0.637621
C45	C	1.436348	-0.418945	0.073321
C46	C	1.936348	0.081055	0.573321
C47	C	1.436358	-0.562825	0.073321
C48	C	1.936358	-0.062825	0.573321
C49	C	1.366136	-0.626754	0.137626
C50	C	1.866136	-0.126754	0.637626
C51	C	1.295913	-0.546800	0.201926
C52	C	1.795913	-0.046800	0.701926
C53	C	1.295912	-0.402917	0.201921
C54	C	1.795912	0.097083	0.701921
C55	C	1.155477	-0.530772	0.330527
C56	C	1.655477	-0.030772	0.830527
C57	C	1.155470	-0.386891	0.330534
C58	C	1.655470	0.113109	0.830534
C59	C	1.085255	-0.594700	0.394833
C60	C	1.585255	-0.094700	0.894833
C61	C	1.015035	-0.514745	0.459140
C62	C	1.515035	-0.014745	0.959140
C63	C	1.015028	-0.370857	0.459138
C64	C	1.515028	0.129143	0.959138
C65	C	1.085247	-0.306937	0.394834
C66	C	1.585247	0.193063	0.894834
C67	C	1.415264	0.034562	0.277529
C68	C	1.915264	0.534562	0.777529
C69	C	1.530400	0.036262	0.291115
C70	C	2.030400	0.536262	0.791115
C71	C	1.232436	0.009319	0.075010
C72	C	1.732436	0.509319	0.575010
C73	C	1.229887	-0.005231	-0.041763
C74	C	1.729887	0.494769	0.458237
N75	N	1.225700	0.389274	0.266227
N76	N	1.725700	0.889274	0.766227
C77	C	1.225085	0.216655	-0.261180
C78	C	1.725085	0.716655	0.238820
C79	C	1.222690	0.202991	-0.370899
C80	C	1.722690	0.702991	0.129101
C81	C	1.222696	-0.046223	-0.370921
C82	C	1.722696	0.453777	0.129079
C83	C	1.225090	-0.032558	-0.261202
C84	C	1.725090	0.467442	0.238798
C85	C	1.226286	0.098885	-0.206336
C86	C	1.726286	0.598885	0.293664
C87	C	1.228688	0.112548	-0.096616
C88	C	1.728688	0.612548	0.403384
C89	C	1.228687	-0.136664	-0.096639
C90	C	1.728687	0.363336	0.403361
C91	C	1.226292	-0.150329	-0.206358
C92	C	1.726292	0.349671	0.293642
C93	C	1.218949	0.056997	0.457454
C94	C	1.718949	0.556997	0.957454
C95	C	1.221497	0.071556	0.574227
C96	C	1.721497	0.571556	1.074227
H97	H	0.889253	0.051263	0.411479
H98	H	1.389253	0.551263	0.911479
F99	F	0.725790	0.002535	0.020504
F100	F	1.225790	0.502535	0.520504
H101	H	0.957840	-0.305766	0.511494
H102	H	1.457840	0.194234	1.011494
H103	H	0.932608	0.008575	0.068857
H104	H	1.432608	0.508575	0.568857
H105	H	1.225314	-0.257346	-0.251045
H106	H	1.725314	0.242654	0.248955
F107	F	1.085250	-0.153808	0.394831
F108	F	1.585250	0.346192	0.894831
F109	F	0.940302	-0.582790	0.527564
F110	F	1.440302	-0.082790	1.027564
F111	F	0.502277	0.060489	0.485624
F112	F	1.002277	0.560489	0.985624
F113	F	1.366132	-0.185861	0.137627
F114	F	1.866132	0.314139	0.637627
H115	H	1.229669	-0.232562	-0.051973
H116	H	1.729669	0.267438	0.448027
H117	H	1.366141	-0.743910	0.137613
H118	H	1.866141	-0.243910	0.637613
H119	H	1.226068	0.323681	-0.216508
H120	H	1.726068	0.823681	0.283492
F121	F	0.725582	0.063793	0.511964
F122	F	1.225582	0.563793	1.011964
F123	F	1.511093	-0.647919	0.004880
F124	F	2.011093	-0.147919	0.504880
H125	H	1.221714	-0.153237	-0.415612
H126	H	1.721714	0.346763	0.084388
F127	F	1.511078	-0.350902	0.004881
F128	F	2.011078	0.149098	0.504881
H129	H	1.085262	-0.711856	0.394825
H130	H	1.585262	-0.211856	0.894825
F131	F	0.551572	0.011904	0.095788
F132	F	1.051572	0.511904	0.595788
H133	H	1.229665	0.219575	-0.051945
H134	H	1.729665	0.719575	0.448055
H135	H	1.221708	0.298892	-0.415549
H136	H	1.721708	0.798892	0.084451
