data_functionalizedCrystal
_audit_creation_method	'MofGen! by Chris Wilmer'
_symmetry_space_group_name_H-M	'P1'
_symmetry_Int_Tables_number	1
_symmetry_cell_setting	triclinic
loop_
_symmetry_equiv_pos_as_xyz
  x,y,z
_cell_length_a	17.038272
_cell_length_b	22.610064
_cell_length_c	17.038272
_cell_angle_alpha	90.004145
_cell_angle_beta	88.888444
_cell_angle_gamma	90.003146
loop_
_atom_site_label
_atom_site_type_symbol
_atom_site_fract_x
_atom_site_fract_y
_atom_site_fract_z
O1	O	1.048759	0.049111	-0.170526
O2	O	0.820948	0.049128	-0.167819
O3	O	0.933500	0.049115	-0.055267
O4	O	0.936207	0.049124	-0.283078
O5	O	0.933479	-0.049254	-0.055283
O6	O	0.820928	-0.049241	-0.167835
O7	O	1.048739	-0.049258	-0.170543
Zn8	Zn	0.934830	-0.064868	-0.169191
Zn9	Zn	0.934857	0.064738	-0.169170
O10	O	0.936187	-0.049245	-0.283094
C11	C	0.791645	-0.000054	-0.165364
C12	C	0.704361	-0.000047	-0.158016
N13	N	0.934818	-0.153320	-0.169206
C14	C	0.658752	-0.000045	-0.225479
C15	C	0.576740	-0.000054	-0.218570
C16	C	0.540339	-0.000060	-0.144197
C17	C	0.585954	-0.000064	-0.076728
C18	C	0.667965	-0.000060	-0.083638
C19	C	0.292951	-0.000077	-0.119787
C20	C	0.210935	-0.000079	-0.112882
C21	C	0.201726	-0.000070	-0.254725
C22	C	0.283739	-0.000062	-0.261628
C23	C	0.329347	-0.000069	-0.194159
C24	C	0.456510	-0.000067	-0.137133
C25	C	0.413174	-0.000067	-0.201224
C26	C	0.984698	-0.561967	-0.119340
C27	C	0.984701	-0.623887	-0.119335
O28	O	1.027078	-0.655911	-0.076947
N29	N	0.934855	-0.654857	-0.169154
C30	C	0.884996	-0.623904	-0.218975
O31	O	0.842598	-0.655932	-0.261349
C32	C	0.884989	-0.561985	-0.218976
C33	C	0.934844	-0.531019	-0.169160
C34	C	1.034548	-0.531001	-0.069528
C35	C	1.034545	-0.469085	-0.069534
C36	C	0.984692	-0.438136	-0.119354
C37	C	0.934842	-0.469103	-0.169167
C38	C	0.835127	-0.531033	-0.268793
C39	C	0.835124	-0.469110	-0.268789
C40	C	0.884979	-0.438144	-0.218973
C41	C	0.884986	-0.376238	-0.218993
N42	N	0.934832	-0.345268	-0.169174
C43	C	0.984685	-0.376217	-0.119355
C44	C	0.885014	-0.753938	-0.218969
C45	C	0.885024	-0.815855	-0.218973
C46	C	0.984728	-0.815834	-0.119331
C47	C	0.984721	-0.753915	-0.119332
C48	C	0.934860	-0.722968	-0.169150
C49	C	0.984676	-0.246190	-0.119373
C50	C	0.984671	-0.184269	-0.119386
C51	C	0.884964	-0.184295	-0.219025
C52	C	0.884972	-0.246211	-0.219014
C53	C	0.934830	-0.277157	-0.169182
O54	O	0.842628	-0.344175	-0.261357
O55	O	1.027069	-0.344182	-0.076981
C56	C	1.078042	-0.000074	-0.172997
C57	C	1.165326	-0.000077	-0.180346
C58	C	0.931027	-0.000069	-0.025982
C59	C	0.923679	-0.000068	0.061301
N60	N	0.934875	0.153190	-0.169150
C61	C	0.938660	-0.000059	-0.312379
C62	C	0.946008	-0.000056	-0.399663
C63	C	0.991142	-0.000074	0.106911
C64	C	0.984233	-0.000068	0.188923
C65	C	0.909860	-0.000060	0.225324
C66	C	0.842391	-0.000053	0.179708
C67	C	0.849301	-0.000055	0.097698
C68	C	0.885449	-0.000050	0.472712
C69	C	0.878545	-0.000050	0.554728
C70	C	1.020387	-0.000064	0.563937
C71	C	1.027291	-0.000070	0.481924
C72	C	0.959822	-0.000059	0.436316
C73	C	0.902796	-0.000056	0.309153
C74	C	0.966886	-0.000059	0.352488
H75	H	0.688384	-0.000039	-0.286042
H76	H	0.556310	-0.000078	-0.016172
O77	O	1.099597	-0.000053	0.446693
C78	C	1.157663	-0.000074	0.504536
H79	H	1.131955	0.018557	0.561646
H80	H	1.209270	0.028475	0.484060
H81	H	1.178717	-0.047270	0.514675
O82	O	1.082852	-0.438899	-0.021137
C83	C	1.134098	-0.402950	-0.066254
H84	H	1.139860	-0.421606	-0.128259
H85	H	1.194272	-0.402092	-0.038166
H86	H	1.109601	-0.356085	-0.068820
O87	O	0.421186	-0.000171	-0.064870
C88	C	0.444042	-0.051107	-0.023407
H89	H	0.463896	-0.086716	-0.066802
H90	H	0.392196	-0.068210	0.013301
H91	H	0.494515	-0.039585	0.016807
O92	O	1.049708	-0.000152	0.233313
C93	C	1.049952	-0.051102	0.281015
H94	H	0.987338	-0.068081	0.289299
H95	H	1.075108	-0.039641	0.340636
H96	H	1.087606	-0.086782	0.251686
H97	H	0.313370	-0.000050	-0.322190
O98	O	0.712155	-0.000033	-0.018024
C99	C	0.662443	-0.000052	0.049102
H100	H	0.602633	0.018569	0.033241
H101	H	0.689361	0.028506	0.096712
H102	H	0.655138	-0.047247	0.071635
H103	H	0.539608	-0.000051	-0.273507
O104	O	1.039087	0.000012	0.317042
C105	C	1.047345	0.050964	0.269898
H106	H	0.986809	0.067958	0.253623
H107	H	1.082208	0.039501	0.214173
H108	H	1.079697	0.086634	0.303777
O109	O	1.083056	-0.560967	-0.021106
C110	C	1.127031	-0.520345	0.022867
H111	H	1.130038	-0.476211	-0.009399
H112	H	1.188958	-0.538218	0.030637
H113	H	1.097658	-0.513758	0.082920
O114	O	0.770101	-0.000122	0.214975
C115	C	0.728640	-0.051071	0.192142
H116	H	0.753819	-0.068060	0.133907
H117	H	0.664000	-0.039606	0.185121
H118	H	0.734571	-0.086746	0.238935
O119	O	0.836428	-0.154292	-0.267377
C120	C	0.757840	-0.169413	-0.249373
H121	H	0.755929	-0.214370	-0.219110
H122	H	0.723083	-0.171534	-0.305806
H123	H	0.730962	-0.134565	-0.208647
H124	H	0.794365	-0.000050	0.060564
H125	H	1.051705	-0.000084	0.077279
O126	O	0.175660	-0.000008	-0.040590
C127	C	0.198486	0.050942	0.000874
H128	H	0.256726	0.067928	-0.024296
H129	H	0.205496	0.039479	0.065515
H130	H	0.151695	0.086618	-0.005067
O131	O	1.085842	-0.000043	0.608357
C132	C	1.063800	-0.000055	0.688548
H133	H	1.001910	0.018572	0.695793
H134	H	1.106473	0.028503	0.722658
H135	H	1.065194	-0.047247	0.712037
H136	H	1.025321	-0.841044	-0.078764
O137	O	1.033171	-0.723929	-0.070863
C138	C	1.077186	-0.764530	-0.026911
H139	H	1.044932	-0.808670	-0.023870
H140	H	1.084999	-0.746641	0.035005
H141	H	1.137220	-0.771111	-0.056327
O142	O	0.806234	-0.000010	0.589963
C143	C	0.748165	-0.000013	0.532124
H144	H	0.773884	0.018605	0.475014
H145	H	0.696582	0.028556	0.552604
H146	H	0.727073	-0.047202	0.521983
H147	H	0.844436	-0.841064	-0.259546
H148	H	0.830511	-0.000042	0.435587
O149	O	0.830535	0.000053	0.344480
C150	C	0.789077	0.050993	0.321629
H151	H	0.832475	0.086598	0.301773
H152	H	0.752375	0.068099	0.373479
H153	H	0.748857	0.039474	0.271160
O154	O	1.033181	-0.276153	-0.070941
C155	C	1.077158	-0.235533	-0.026967
H156	H	1.080177	-0.191402	-0.059237
H157	H	1.139081	-0.253412	-0.019189
H158	H	1.047780	-0.228940	0.033082
H159	H	0.844413	-0.728743	-0.259543
O160	O	0.786580	-0.561077	-0.317098
C161	C	0.707998	-0.545930	-0.299116
H162	H	0.703446	-0.528911	-0.236211
H163	H	0.669177	-0.586647	-0.305507
H164	H	0.687827	-0.509986	-0.341090
O165	O	0.337328	0.000002	-0.054305
C166	C	0.385027	0.050958	-0.054036
H167	H	0.393322	0.067944	-0.116643
H168	H	0.444643	0.039503	-0.028871
H169	H	0.355688	0.086631	-0.016376
O170	O	0.157456	0.000037	-0.320282
C171	C	0.174707	0.050978	-0.365116
H172	H	0.199946	0.086587	-0.325514
H173	H	0.118685	0.068077	-0.392741
H174	H	0.219440	0.039464	-0.413348
O175	O	0.786774	-0.439075	-0.317300
C176	C	0.804692	-0.454227	-0.395896
H177	H	0.867594	-0.471242	-0.400498
H178	H	0.798273	-0.413513	-0.434710
H179	H	0.762701	-0.490175	-0.416034
H180	H	0.844383	-0.271425	-0.259587
H181	H	0.442816	-0.000065	-0.261778
H182	H	1.025272	-0.159058	-0.078820
