data_functionalizedCrystal
_audit_creation_method	'MofGen! by Chris Wilmer'
_symmetry_space_group_name_H-M	'P1'
_symmetry_Int_Tables_number	1
_symmetry_cell_setting	triclinic
loop_
_symmetry_equiv_pos_as_xyz
  x,y,z
_cell_length_a	16.109304
_cell_length_b	14.044202
_cell_length_c	15.186229
_cell_angle_alpha	90.000871
_cell_angle_beta	89.999066
_cell_angle_gamma	91.672330
loop_
_atom_site_label
_atom_site_type_symbol
_atom_site_fract_x
_atom_site_fract_y
_atom_site_fract_z
O1	O	0.200472	-1.257646	-0.073174
O2	O	0.700472	-0.757646	0.426826
O3	O	0.193231	-0.981679	-0.073186
O4	O	0.693231	-0.481679	0.426814
O5	O	0.076385	-1.127242	-0.073180
O6	O	0.576385	-0.627242	0.426820
O7	O	0.317318	-1.112083	-0.073179
O8	O	0.817318	-0.612083	0.426821
O9	O	0.076383	-1.127232	0.073278
O10	O	0.576383	-0.627232	0.573278
O11	O	0.193229	-0.981669	0.073272
O12	O	0.693229	-0.481669	0.573272
O13	O	0.200470	-1.257636	0.073284
O14	O	0.700470	-0.757636	0.573284
Zn15	Zn	0.196849	-1.119651	0.096531
Zn16	Zn	0.696849	-0.619651	0.596531
Zn17	Zn	0.196852	-1.119664	-0.096433
Zn18	Zn	0.696852	-0.619664	0.403567
O19	O	0.317316	-1.112073	0.073278
O20	O	0.817316	-0.612073	0.573278
C21	C	0.190063	-0.946361	0.000041
C22	C	0.690063	-0.446361	0.500041
C23	C	0.180616	-0.841138	0.000037
C24	C	0.680616	-0.341138	0.500037
C25	C	0.230339	-0.590837	0.000045
C26	C	0.730339	-0.090837	0.500045
C27	C	0.163359	-0.648485	0.000044
C28	C	0.663359	-0.148485	0.500044
C29	C	0.172963	-0.755687	0.000040
C30	C	0.672963	-0.255687	0.500040
C31	C	0.220736	-0.483625	0.000049
C32	C	0.720736	0.016375	0.500049
C33	C	0.045363	-1.126623	0.000047
C34	C	0.545363	-0.626623	0.500047
C35	C	-0.047069	-1.124780	0.000041
C36	C	0.452931	-0.624780	0.500041
C37	C	-0.259722	-1.120529	-0.079790
C38	C	0.240278	-0.620529	0.420210
C39	C	-0.346572	-1.118789	-0.079789
C40	C	0.153428	-0.618789	0.420211
C41	C	-0.346571	-1.118783	0.079887
C42	C	0.153429	-0.618783	0.579887
C43	C	-0.259723	-1.120516	0.079885
C44	C	0.240277	-0.620516	0.579885
C45	C	-0.216301	-1.121394	0.000044
C46	C	0.283699	-0.621394	0.500044
C47	C	-0.389999	-1.117921	0.000046
C48	C	0.110001	-0.617921	0.500046
C49	C	-0.484165	-1.116035	0.000048
C50	C	0.015835	-0.616035	0.500048
C51	C	-0.122128	-1.123279	0.000042
C52	C	0.377872	-0.623279	0.500042
C53	C	0.348338	-1.112692	0.000049
C54	C	0.848338	-0.612692	0.500049
C55	C	0.440770	-1.114535	0.000050
C56	C	0.940770	-0.614535	0.500050
C57	C	0.203636	-0.292955	0.000054
C58	C	0.703636	0.207045	0.500054
C59	C	0.213078	-0.398179	0.000052
C60	C	0.713078	0.101821	0.500052
N61	N	0.196847	-1.119649	0.228224
N62	N	0.696847	-0.619649	0.728224
N63	N	0.196848	-1.119673	-0.228125
N64	N	0.696848	-0.619673	0.271875
C65	C	0.145128	-1.184127	0.453949
C66	C	0.645128	-0.684127	0.953949
C67	C	0.145126	-1.184130	0.546139
C68	C	0.645126	-0.684130	1.046139
C69	C	0.248569	-1.055189	0.546143
C70	C	0.748569	-0.555189	1.046143
C71	C	0.248566	-1.055182	0.453955
C72	C	0.748566	-0.555182	0.953955
C73	C	0.196847	-1.119656	0.407860
C74	C	0.696847	-0.619656	0.907860
C75	C	0.196848	-1.119666	0.592238
C76	C	0.696848	-0.619666	1.092238
C77	C	0.196847	-1.119669	0.692194
C78	C	0.696847	-0.619669	1.192194
C79	C	0.196847	-1.119653	0.307898
C80	C	0.696847	-0.619653	0.807898
H81	H	0.294891	-0.621991	0.000043
H82	H	0.794891	-0.121991	0.500043
C83	C	-0.211960	-1.121484	-0.167611
C84	C	0.288040	-0.621484	0.332389
H85	H	-0.250262	-1.120710	-0.215156
H86	H	0.249738	-0.620710	0.284844
H87	H	-0.180321	-1.177400	-0.170934
H88	H	0.319679	-0.677400	0.329066
H89	H	-0.175839	-1.066911	-0.170928
H90	H	0.324161	-0.566911	0.329072
H91	H	-0.381936	-1.118071	0.144890
H92	H	0.118064	-0.618071	0.644890
C93	C	-0.394332	-1.117847	-0.167607
C94	C	0.105668	-0.617847	0.332393
H95	H	-0.356030	-1.118626	-0.215153
H96	H	0.143970	-0.618626	0.284847
H97	H	-0.425970	-1.061931	-0.170933
H98	H	0.074030	-0.561931	0.329067
H99	H	-0.430452	-1.172420	-0.170919
H100	H	0.069548	-0.672420	0.329081
C101	C	-0.211956	-1.121471	0.167707
C102	C	0.288044	-0.621471	0.667707
H103	H	-0.250254	-1.120714	0.215257
H104	H	0.249746	-0.620714	0.715257
H105	H	-0.175834	-1.066906	0.171023
H106	H	0.324166	-0.566906	0.671023
H107	H	-0.180320	-1.177395	0.171022
H108	H	0.319680	-0.677395	0.671022
H109	H	0.103013	-1.236624	0.416421
H110	H	0.603013	-0.736624	0.916421
C111	C	0.076146	-0.606408	0.000039
C112	C	0.576146	-0.106408	0.500039
H113	H	0.035383	-0.656677	0.000041
H114	H	0.535383	-0.156677	0.500041
H115	H	0.069628	-0.568295	-0.051033
H116	H	0.569628	-0.068295	0.448967
H117	H	0.069620	-0.568299	0.051119
H118	H	0.569620	-0.068299	0.551119
H119	H	0.103011	-1.236626	0.583662
H120	H	0.603011	-0.736626	1.083662
H121	H	0.290680	-1.002697	0.583682
H122	H	0.790680	-0.502697	1.083682
C123	C	0.305462	-0.984264	0.403253
C124	C	0.805462	-0.484264	0.903253
H125	H	0.336274	-0.945876	0.443907
H126	H	0.836274	-0.445876	0.943907
H127	H	0.272607	-0.944818	0.367295
H128	H	0.772607	-0.444818	0.867295
H129	H	0.342618	-1.018354	0.367287
H130	H	0.842618	-0.518354	0.867287
