data_functionalizedCrystal
_audit_creation_method	'MofGen! by Chris Wilmer'
_symmetry_space_group_name_H-M	'P1'
_symmetry_Int_Tables_number	1
_symmetry_cell_setting	triclinic
loop_
_symmetry_equiv_pos_as_xyz
  x,y,z
_cell_length_a	16.109302
_cell_length_b	16.974813
_cell_length_c	14.586319
_cell_angle_alpha	86.341649
_cell_angle_beta	89.994552
_cell_angle_gamma	83.428323
loop_
_atom_site_label
_atom_site_type_symbol
_atom_site_fract_x
_atom_site_fract_y
_atom_site_fract_z
O1	O	1.103043	0.101637	-0.083821
O2	O	0.860970	0.114284	-0.084752
O3	O	0.988755	-0.007145	-0.075742
O4	O	0.975258	0.223065	-0.092830
O5	O	0.988746	-0.007147	0.076739
O6	O	0.860962	0.114282	0.067729
O7	O	1.103034	0.101635	0.068660
Cu8	Cu	0.981997	0.107958	0.082117
Cu9	Cu	0.982008	0.107960	-0.098209
O10	O	0.975250	0.223064	0.059651
C11	C	0.829992	0.113771	-0.008472
C12	C	0.737698	0.112235	-0.008355
C13	C	0.525355	0.108681	0.075017
C14	C	0.438636	0.107229	0.075121
C15	C	0.438656	0.107235	-0.091122
C16	C	0.525374	0.108682	-0.091225
C17	C	0.568721	0.109409	-0.008154
C18	C	0.395284	0.106510	-0.007946
C19	C	0.301260	0.104936	-0.007833
C20	C	0.662751	0.110981	-0.008266
C21	C	0.988237	-0.036604	0.002683
C22	C	0.986698	-0.124380	0.009193
C23	C	0.985981	-0.165612	-0.070865
C24	C	0.984529	-0.248087	-0.064746
C25	C	0.983799	-0.289329	0.021433
C26	C	0.984513	-0.248091	0.101498
C27	C	0.985960	-0.165617	0.095377
C28	C	0.979468	-0.535989	0.048651
C29	C	0.978024	-0.618469	0.054766
C30	C	0.978038	-0.618459	-0.111478
C31	C	0.979489	-0.535984	-0.117591
C32	C	0.980199	-0.494753	-0.037527
N33	N	0.982317	-0.373631	0.027691
N34	N	0.981674	-0.410451	-0.043785
C35	C	1.134013	0.102148	-0.007621
C36	C	1.226307	0.103684	-0.007744
C37	C	0.975767	0.252523	-0.018777
C38	C	0.977307	0.340299	-0.025293
N39	N	0.981996	0.107956	0.208949
N40	N	0.982016	0.107956	-0.225040
C41	C	1.038598	0.054206	0.447944
C42	C	1.038600	0.054204	0.543925
C43	C	0.925408	0.161709	0.535958
C44	C	0.925402	0.161707	0.439979
C45	C	0.982002	0.107956	0.395974
C46	C	0.982010	0.107957	0.587935
C47	C	0.982012	0.107955	0.692002
C48	C	0.981999	0.107956	0.291900
H49	H	0.986579	-0.132040	-0.141041
N50	N	0.983735	-0.292569	0.194450
H51	H	0.982718	-0.351074	0.186181
H52	H	1.035505	-0.284570	0.230141
H53	H	0.560645	0.109273	0.142659
N54	N	1.099654	-0.003759	0.599979
H55	H	1.135510	-0.037803	0.557534
H56	H	1.136367	0.026538	0.637538
N57	N	0.864371	0.219692	0.583416
H58	H	0.805376	0.210570	0.567403
H59	H	0.873034	0.211514	0.652090
H60	H	0.980062	-0.502430	0.113845
N61	N	0.986729	-0.121140	0.181725
H62	H	0.986048	-0.159780	0.237248
H63	H	1.038842	-0.093342	0.183283
H64	H	0.879311	0.205477	0.397662
H65	H	0.403332	0.106637	0.142847
H66	H	1.084683	0.010437	0.412118
N67	N	0.977273	-0.662932	-0.197827
H68	H	0.977958	-0.624291	-0.253348
H69	H	1.028193	-0.703569	-0.198426
N70	N	0.572149	0.109459	-0.180939
H71	H	0.550269	0.158194	-0.220898
H72	H	0.633652	0.110450	-0.168323
N73	N	0.977240	-0.662954	0.147720
H74	H	0.977908	-0.624320	0.197512
H75	H	0.925127	-0.690755	0.153399
N76	N	0.391904	0.106450	-0.180717
H77	H	0.330388	0.105425	-0.168034
H78	H	0.400270	0.155691	-0.220669
H79	H	0.983949	-0.281655	-0.129938
H80	H	0.980084	-0.502411	-0.187767
