data_functionalizedCrystal
_audit_creation_method	'MofGen! by Chris Wilmer'
_symmetry_space_group_name_H-M	'P1'
_symmetry_Int_Tables_number	1
_symmetry_cell_setting	triclinic
loop_
_symmetry_equiv_pos_as_xyz
  x,y,z
_cell_length_a	10.654549
_cell_length_b	17.038272
_cell_length_c	15.500368
_cell_angle_alpha	93.035241
_cell_angle_beta	87.148763
_cell_angle_gamma	87.799237
loop_
_atom_site_label
_atom_site_type_symbol
_atom_site_fract_x
_atom_site_fract_y
_atom_site_fract_z
O1	O	0.267439	1.042486	0.071831
O2	O	0.767439	1.542486	0.571831
O3	O	0.263105	0.814832	0.071856
O4	O	0.763105	1.314832	0.571856
O5	O	0.083019	0.933891	0.071839
O6	O	0.583019	1.433891	0.571839
O7	O	0.447525	0.923427	0.071847
O8	O	0.947525	1.423427	0.571847
O9	O	0.093880	0.926686	-0.072045
O10	O	0.593880	1.426686	0.427955
O11	O	0.273965	0.807627	-0.072028
O12	O	0.773965	1.307627	0.427972
O13	O	0.278300	1.035281	-0.072054
O14	O	0.778300	1.535281	0.427946
Cu15	Cu	0.277124	0.920796	-0.085179
Cu16	Cu	0.777124	1.420796	0.414821
Cu17	Cu	0.264280	0.929317	0.084981
Cu18	Cu	0.764280	1.429317	0.584981
O19	O	0.458385	0.916222	-0.072037
O20	O	0.958385	1.416222	0.427963
C21	C	0.041580	0.929519	-0.000102
C22	C	0.541580	1.429519	0.499898
C23	C	-0.098077	0.927218	-0.000099
C24	C	0.401923	1.427218	0.499901
C25	C	0.264594	0.782079	-0.000083
C26	C	0.764594	1.282079	0.499917
C27	C	0.252836	0.695221	-0.000073
C28	C	0.752836	1.195221	0.499927
C29	C	-0.375242	1.065265	-0.000118
C30	C	0.124758	1.565265	0.499882
C31	C	-0.316994	1.137532	-0.000128
C32	C	0.183006	1.637532	0.499872
C33	C	-0.185775	1.139697	-0.000127
C34	C	0.314225	1.639697	0.499873
C35	C	-0.112800	1.069587	-0.000119
C36	C	0.387200	1.569587	0.499881
C37	C	-0.171048	0.997320	-0.000109
C38	C	0.328952	1.497320	0.499891
C39	C	-0.302271	0.995163	-0.000108
C40	C	0.197729	1.495163	0.499892
C41	C	-0.156325	0.854951	-0.000089
C42	C	0.343675	1.354951	0.499911
C43	C	-0.287544	0.852785	-0.000083
C44	C	0.212456	1.352785	0.499917
C45	C	-0.083350	0.784841	-0.000081
C46	C	0.416650	1.284841	0.499919
C47	C	-0.141599	0.712573	-0.000064
C48	C	0.358401	1.212573	0.499936
C49	C	-0.272826	0.710411	-0.000064
C50	C	0.227174	1.210411	0.499936
C51	C	-0.345792	0.780518	-0.000074
C52	C	0.154208	1.280518	0.499926
C53	C	0.360780	0.645711	-0.000072
C54	C	0.860780	1.145711	0.499928
C55	C	0.349726	0.564098	-0.000084
C56	C	0.849726	1.064098	0.499916
C57	C	0.230727	0.531997	-0.000091
C58	C	0.730727	1.031997	0.499909
C59	C	0.122775	0.581513	-0.000096
C60	C	0.622775	1.081513	0.499904
C61	C	0.133831	0.663124	-0.000090
C62	C	0.633831	1.163124	0.499910
C63	C	0.191671	0.286019	-0.000115
C64	C	0.691671	0.786019	0.499885
C65	C	0.180624	0.204402	-0.000119
C66	C	0.680624	0.704402	0.499881
C67	C	0.407576	0.186992	-0.000108
C68	C	0.907576	0.686992	0.499892
C69	C	0.418621	0.268606	-0.000097
C70	C	0.918621	0.768606	0.499903
C71	C	0.310669	0.318115	-0.000106
C72	C	0.810669	0.818115	0.499894
C73	C	0.219426	0.448576	-0.000101
C74	C	0.719426	0.948576	0.499899
C75	C	0.321972	0.401534	-0.000102
C76	C	0.821972	0.901534	0.499898
C77	C	0.499824	0.920593	-0.000094
C78	C	0.999824	1.420593	0.499906
C79	C	0.639481	0.922895	-0.000092
C80	C	1.139481	1.422895	0.499908
C81	C	0.276810	1.068033	-0.000113
C82	C	0.776810	1.568033	0.499887
C83	C	0.288568	1.154892	-0.000117
C84	C	0.788568	1.654892	0.499883
N85	N	0.255238	0.935310	0.204663
N86	N	0.755238	1.435310	0.704663
N87	N	0.286158	0.914808	-0.204860
N88	N	0.786158	1.414808	0.295140
C89	C	0.210024	0.965351	0.749833
C90	C	0.710024	1.465351	1.249833
C91	C	0.216870	0.960796	0.659263
C92	C	0.716870	1.460796	1.159263
C93	C	0.299856	0.905702	0.614001
C94	C	0.799856	1.405702	1.114001
C95	C	0.375992	0.855155	0.659313
C96	C	0.875992	1.355155	1.159313
C97	C	0.369139	0.859706	0.749882
C98	C	0.869139	1.359706	1.249882
C99	C	0.324521	0.889314	0.340544
C100	C	0.824521	1.389314	0.840544
C101	C	0.331371	0.884768	0.249969
C102	C	0.831371	1.384768	0.749969
C103	C	0.172246	0.990409	0.249925
C104	C	0.672246	1.490409	0.749925
C105	C	0.165406	0.994959	0.340495
C106	C	0.665406	1.494959	0.840495
C107	C	0.241538	0.944408	0.385800
C108	C	0.741538	1.444408	0.885800
C109	C	0.306858	0.901047	0.521424
C110	C	0.806858	1.401047	1.021424
C111	C	0.234528	0.949060	0.478375
C112	C	0.734528	1.449060	0.978375
H113	H	-0.482089	1.063510	-0.000108
H114	H	0.017911	1.563510	0.499892
H115	H	0.398953	0.839902	0.213120
H116	H	0.898953	1.339902	0.713120
H117	H	0.418861	0.427674	-0.000101
H118	H	0.918861	0.927674	0.499899
H119	H	0.431133	0.818548	0.786770
H120	H	0.931133	1.318548	1.286770
H121	H	-0.376424	1.194614	-0.000138
H122	H	0.123576	1.694614	0.499862
H123	H	0.122538	0.422429	-0.000132
H124	H	0.622538	0.922429	0.499868
H125	H	-0.138349	1.198543	-0.000140
H126	H	0.361651	1.698543	0.499860
H127	H	0.142454	1.010217	0.786680
H128	H	0.642454	1.510217	1.286680
H129	H	0.154875	1.001951	0.622375
H130	H	0.654875	1.501951	1.122375
H131	H	0.097832	1.039820	0.377346
H132	H	0.597832	1.539820	0.877346
H133	H	-0.005954	1.071356	-0.000129
H134	H	0.494046	1.571356	0.499871
H135	H	0.443556	0.810292	0.622456
H136	H	0.943556	1.310292	1.122456
H137	H	-0.082172	0.655495	-0.000064
H138	H	0.417828	1.155495	0.499936
H139	H	0.023495	0.786609	-0.000085
H140	H	0.523495	1.286609	0.499915
H141	H	-0.320242	0.651562	-0.000066
H142	H	0.179758	1.151562	0.499934
H143	H	-0.452639	0.778765	-0.000069
H144	H	0.047361	1.278765	0.499931
H145	H	0.457682	0.671841	-0.000065
H146	H	0.957682	1.171841	0.499935
H147	H	0.110262	1.031564	0.213029
H148	H	0.610262	1.531564	0.713029
H149	H	0.437626	0.523790	-0.000081
H150	H	0.937626	1.023790	0.499919
H151	H	0.083716	0.178269	-0.000124
H152	H	0.583716	0.678269	0.499876
H153	H	0.515521	0.294737	-0.000081
H154	H	1.015521	0.794737	0.499919
H155	H	0.495464	0.146674	-0.000103
H156	H	0.995464	0.646674	0.499897
H157	H	0.166956	0.993915	0.515230
H158	H	0.666956	1.493915	1.015230
H159	H	0.103769	0.326320	-0.000123
H160	H	0.603769	0.826320	0.499877
H161	H	0.386513	0.848155	0.377424
H162	H	0.886513	1.348155	0.877424
H163	H	0.025884	0.555369	-0.000114
H164	H	0.525884	1.055369	0.499886
H165	H	0.374429	0.856190	0.484564
H166	H	0.874429	1.356190	0.984564
H167	H	0.045931	0.703435	-0.000090
H168	H	0.545931	1.203435	0.499910
