data_functionalizedCrystal
_audit_creation_method	'MofGen! by Chris Wilmer'
_symmetry_space_group_name_H-M	'P1'
_symmetry_Int_Tables_number	1
_symmetry_cell_setting	triclinic
loop_
_symmetry_equiv_pos_as_xyz
  x,y,z
_cell_length_a	15.944499
_cell_length_b	14.421503
_cell_length_c	14.853567
_cell_angle_alpha	90.008092
_cell_angle_beta	96.443730
_cell_angle_gamma	90.010221
loop_
_atom_site_label
_atom_site_type_symbol
_atom_site_fract_x
_atom_site_fract_y
_atom_site_fract_z
O1	O	1.114686	0.077159	-0.116039
O2	O	0.870146	0.077148	-0.130423
O3	O	0.998948	0.077157	0.008009
O4	O	0.985884	0.077151	-0.254470
O5	O	0.998927	-0.077067	0.007988
O6	O	0.870125	-0.077075	-0.130443
O7	O	1.114664	-0.077064	-0.116059
Cu8	Cu	0.992393	-0.091152	-0.123253
Cu9	Cu	0.992418	0.091236	-0.123229
O10	O	0.985862	-0.077073	-0.254491
C11	C	0.838840	0.000035	-0.129844
C12	C	0.745590	0.000031	-0.128079
C13	C	0.454143	0.000043	-0.208504
C14	C	0.515137	0.076086	-0.166687
C15	C	0.409946	0.000053	-0.121664
C16	C	0.515101	-0.075966	-0.166684
C17	C	0.574858	0.000040	-0.124821
C18	C	0.469711	0.076158	-0.079823
C19	C	0.469670	-0.075962	-0.079832
C20	C	0.530645	0.000099	-0.037952
C21	C	0.314944	0.000060	-0.119849
C22	C	0.669859	0.000039	-0.126630
N23	N	0.992381	-0.219433	-0.123270
C24	C	0.932812	-0.469091	-0.187252
C25	C	1.008734	-0.530890	-0.204739
C26	C	0.992401	-0.408594	-0.123248
C27	C	0.916500	-0.530888	-0.105782
C28	C	0.992414	-0.591316	-0.123230
C29	C	1.068361	-0.469033	-0.140776
C30	C	0.976077	-0.469026	-0.041784
C31	C	1.052053	-0.530798	-0.059236
C32	C	0.992393	-0.303333	-0.123261
C33	C	0.992432	-0.696575	-0.123216
C34	C	1.145970	0.000051	-0.116638
C35	C	1.239221	0.000061	-0.118404
C36	C	0.998345	0.000048	0.041586
C37	C	0.996571	0.000056	0.141667
N38	N	0.992436	0.219517	-0.123205
C39	C	0.986465	0.000038	-0.288068
C40	C	0.988239	0.000036	-0.388149
C41	C	0.912562	0.000034	0.554076
C42	C	1.065582	0.000041	0.575584
C43	C	1.067249	0.000047	0.481553
C44	C	0.991572	0.000045	0.423779
C45	C	0.914228	0.000037	0.460036
C46	C	1.144593	0.000045	0.445289
C47	C	1.146264	0.000050	0.351252
C48	C	1.070586	0.000054	0.293476
C49	C	0.993238	0.000047	0.329739
C50	C	0.917561	0.000045	0.271965
C51	C	0.840212	0.000045	0.308225
C52	C	0.838550	0.000041	0.402260
C53	C	1.072248	0.000058	0.199441
C54	C	0.919227	0.000048	0.177924
H55	H	0.449503	-0.140251	-0.043142
N56	N	0.957739	-0.432989	0.049428
H57	H	1.006929	-0.394434	0.077038
H58	H	0.948840	-0.486967	0.090618
H59	H	0.449700	0.140519	-0.043119
N60	N	1.147204	0.000048	0.637886
H61	H	1.180936	-0.057119	0.626211
H62	H	1.134348	0.000078	0.702935
H63	H	0.535209	-0.140252	-0.203436
N64	N	0.410091	0.000142	-0.303960
H65	H	0.346971	-0.000444	-0.302069
H66	H	0.427351	-0.056701	-0.337073
N67	N	0.574482	0.000158	0.057596
H68	H	0.611335	0.057062	0.067217
H69	H	0.610515	-0.057313	0.067540
H70	H	0.882471	-0.441996	-0.241421
N71	N	0.831473	-0.566889	-0.086219
H72	H	0.786504	-0.544444	-0.134616
H73	H	0.818747	-0.543414	-0.025144
H74	H	0.857600	0.000050	0.130890
N75	N	1.226211	0.000031	0.507598
H76	H	1.213417	0.000031	0.572670
H77	H	1.259929	0.057200	0.495872
N78	N	1.229684	0.000050	0.312145
H79	H	1.277371	0.000049	0.363014
H80	H	1.233717	0.057226	0.273611
N81	N	1.118874	-0.566477	0.012475
H82	H	1.149410	-0.512384	0.044534
H83	H	1.160488	-0.605930	-0.016941
N84	N	0.758593	0.000050	0.245906
H85	H	0.709339	0.000051	0.283140
H86	H	0.755945	-0.057125	0.206415
H87	H	1.022553	-0.558063	-0.273624
H88	H	0.775576	0.000040	0.431793
H89	H	0.849586	0.000038	0.583604
H90	H	1.132569	-0.441977	-0.155624
N91	N	1.155663	0.000048	0.160329
H92	H	1.203351	0.000043	0.211197
H93	H	1.159700	0.057223	0.121794
H94	H	0.535284	0.140369	-0.203411
