data_functionalizedCrystal
_audit_creation_method	'MofGen! by Chris Wilmer'
_symmetry_space_group_name_H-M	'P1'
_symmetry_Int_Tables_number	1
_symmetry_cell_setting	triclinic
loop_
_symmetry_equiv_pos_as_xyz
  x,y,z
_cell_length_a	20.016444
_cell_length_b	31.640172
_cell_length_c	20.016444
_cell_angle_alpha	59.995958
_cell_angle_beta	89.999461
_cell_angle_gamma	60.008954
loop_
_atom_site_label
_atom_site_type_symbol
_atom_site_fract_x
_atom_site_fract_y
_atom_site_fract_z
Zr1	Zr	0.643682	0.462608	-0.087667
O2	O	0.537030	0.550774	-0.194342
O3	O	0.676363	0.374441	-0.054967
O4	O	0.676384	0.462611	-0.194344
O5	O	0.537008	0.462601	0.054980
O6	O	0.786324	0.462615	-0.194344
O7	O	0.537009	0.462604	-0.054965
O8	O	0.786286	0.304894	0.054977
O9	O	0.537045	0.620321	-0.194341
O10	O	0.772364	0.410708	-0.041019
O11	O	0.690316	0.410704	0.041032
O12	O	0.690341	0.514513	-0.123067
O13	O	0.608293	0.514508	-0.041017
Zr14	Zr	0.819021	0.462609	0.087682
Zr15	Zr	0.819023	0.462613	-0.087667
Zr16	Zr	0.643679	0.462604	0.087682
Zr17	Zr	0.643706	0.573528	-0.087665
Zr18	Zr	0.818997	0.351689	0.087680
O19	O	0.786340	0.550775	0.054981
O20	O	0.786343	0.550781	-0.194343
O21	O	0.537027	0.550768	0.054981
O22	O	0.925673	0.374443	0.194357
O23	O	0.925676	0.374449	-0.054967
O24	O	0.676360	0.374435	0.194357
O25	O	0.925695	0.462615	-0.054965
O26	O	0.786319	0.462605	0.194359
O27	O	0.676379	0.462602	0.194359
O28	O	0.925694	0.462613	0.054979
O29	O	0.676418	0.620326	-0.194341
O30	O	0.786285	0.304891	0.194356
O31	O	0.925658	0.304895	0.194356
O32	O	0.925659	0.304899	0.054977
O33	O	0.537043	0.620318	-0.054962
O34	O	0.676416	0.620322	-0.054962
O35	O	0.772362	0.410704	0.123082
O36	O	0.854410	0.410709	0.041031
O37	O	0.772387	0.514513	-0.041017
O38	O	0.690339	0.514509	0.041033
C39	C	0.512026	0.462602	0.000008
C40	C	0.437589	0.462599	0.000008
C41	C	0.731321	0.323864	0.000005
C42	C	0.731311	0.276775	0.000004
C43	C	0.309137	0.408421	0.042838
C44	C	0.239192	0.408424	0.042840
C45	C	0.153567	0.516799	-0.042825
C46	C	0.223511	0.516796	-0.042821
C47	C	0.301296	0.462605	0.000008
C48	C	0.161407	0.462611	0.000007
C49	C	0.085569	0.462614	0.000009
C50	C	0.377139	0.462602	0.000007
C51	C	0.774196	-0.015264	-0.042815
C52	C	0.774213	-0.192260	-0.042814
O53	O	0.810667	-0.215163	-0.079210
N54	N	0.731384	-0.214391	0.000014
C55	C	0.688552	-0.192274	0.042849
O56	O	0.652130	-0.215164	0.079284
C57	C	0.688540	-0.015282	0.042853
C58	C	0.731365	0.006851	0.000015
C59	C	0.817018	0.006869	-0.085648
C60	C	0.817010	0.051117	-0.085651
C61	C	0.774179	0.073233	-0.042821
C62	C	0.731357	0.051100	0.000012
C63	C	0.645713	0.006832	0.085692
C64	C	0.645716	0.051081	0.085691
C65	C	0.688541	0.073215	0.042854
C66	C	0.688518	0.117464	0.042838
N67	N	0.731347	0.139596	0.000011
C68	C	0.774178	0.117480	-0.042819
C69	C	0.688559	-0.285196	0.042843
C70	C	0.688561	-0.329443	0.042840
C71	C	0.774224	-0.329427	-0.042822
C72	C	0.774217	-0.285176	-0.042824
C73	C	0.731389	-0.263065	0.000015
C74	C	0.774157	0.210406	-0.042824
C75	C	0.774142	0.254660	-0.042826
C76	C	0.688483	0.254638	0.042839
C77	C	0.688494	0.210389	0.042838
C78	C	0.731337	0.188273	0.000005
O79	O	0.652091	0.140390	0.079222
O80	O	0.810609	0.140368	-0.079234
C81	C	0.774204	-0.059513	-0.042811
C82	C	0.731382	-0.081646	0.000022
C83	C	0.688551	-0.059530	0.042852
C84	C	0.731383	-0.125893	0.000020
C85	C	0.774214	-0.148008	-0.042810
C86	C	0.817043	-0.125877	-0.085638
C87	C	0.817035	-0.081628	-0.085641
C88	C	0.645722	-0.081662	0.085680
C89	C	0.645733	-0.125910	0.085679
C90	C	0.688564	-0.148025	0.042849
C91	C	0.950677	0.462615	0.000007
C92	C	1.025114	0.462617	0.000007
C93	C	0.731354	0.462614	-0.219328
C94	C	0.731355	0.462615	-0.293768
C95	C	0.731381	0.601353	0.000010
C96	C	0.731392	0.648441	0.000011
C97	C	0.791921	0.462610	-0.465023
C98	C	0.791922	0.462606	-0.534963
C99	C	0.670778	0.462605	-0.534956
C100	C	0.670782	0.462605	-0.465014
C101	C	0.731353	0.462610	-0.430052
C102	C	0.731350	0.462606	-0.569934
C103	C	0.731350	0.462602	-0.645766
C104	C	0.731354	0.462613	-0.354214
C105	C	0.731349	0.462603	0.219342
C106	C	0.731348	0.462601	0.293782
C107	C	0.950647	0.323871	0.000005
C108	C	1.025073	0.276784	0.000004
C109	C	0.731318	0.323859	0.219340
C110	C	0.731307	0.276768	0.293779
C111	C	0.950644	0.323865	0.219339
C112	C	1.025070	0.276777	0.293779
C113	C	0.512059	0.601351	-0.219325
C114	C	0.437633	0.648439	-0.293764
C115	C	0.512056	0.601346	0.000010
C116	C	0.437629	0.648432	0.000011
C117	C	0.731384	0.601358	-0.219325
C118	C	0.731395	0.648448	-0.293764
C119	C	1.017198	0.254672	-0.042834
C120	C	1.087123	0.210435	-0.042851
C121	C	1.164923	0.188309	-0.000026
C122	C	1.172797	0.210426	0.042813
C123	C	1.102872	0.254665	0.042825
C124	C	0.774129	0.254654	0.371573
C125	C	0.774115	0.210414	0.441524
C126	C	0.731284	0.188286	0.433678
C127	C	0.688457	0.210404	0.355876
C128	C	0.688467	0.254646	0.285927
C129	C	1.102856	0.254666	0.285907
C130	C	1.172794	0.210428	0.355843
C131	C	1.164943	0.188299	0.433652
C132	C	1.087148	0.210414	0.441522
C133	C	1.017212	0.254654	0.371586
C134	C	0.359846	0.670555	-0.285892
C135	C	0.289909	0.714807	-0.355829
C136	C	0.297759	0.736939	-0.433637
C137	C	0.375554	0.714821	-0.441508
C138	C	0.445490	0.670573	-0.371571
C139	C	0.445505	0.670549	0.042841
C140	C	0.375580	0.714798	0.042839
C141	C	0.297780	0.736926	0.000011
C142	C	0.289906	0.714807	-0.042824
C143	C	0.359830	0.670562	-0.042826
C144	C	0.774235	0.670563	-0.285893
C145	C	0.774261	0.714803	-0.355830
C146	C	0.731443	0.736931	-0.433638
C147	C	0.688602	0.714813	-0.441508
C148	C	0.688581	0.670570	-0.371572
H149	H	0.372470	0.364296	0.077721
C150	C	0.247824	0.348817	0.089949
N151	N	0.254328	0.303918	0.125432
H152	H	1.080768	0.192389	0.504883
C153	C	0.821240	0.186087	0.527099
N154	N	0.856736	0.167763	0.591552
H155	H	0.841243	0.462613	-0.436558
H156	H	0.226572	0.732808	-0.349405
C157	C	1.241883	0.139629	0.510576
N158	N	1.299838	0.102968	0.568513
H159	H	0.809103	0.652553	-0.222544
H160	H	0.731283	0.152261	0.490641
C161	C	0.641350	0.186053	0.347259
N162	N	0.605874	0.167707	0.340771
H163	H	0.809146	0.732808	-0.349405
H164	H	0.851907	-0.063611	-0.120523
C165	C	0.068000	0.576406	-0.089945
N166	N	0.003551	0.621303	-0.125441
H167	H	0.731467	0.772957	-0.490578
C168	C	0.531078	0.646220	0.089954
N169	N	0.595531	0.627901	0.125437
H170	H	0.809015	0.272681	-0.077712
C171	C	0.598664	-0.017545	0.132880
N172	N	0.563247	-0.035919	0.168449
H173	H	1.236151	0.192405	0.077679
H174	H	0.653741	0.732836	-0.504869
C175	C	0.821343	-0.353766	-0.089930
N176	N	0.856837	-0.372103	-0.125403
H177	H	0.217121	0.560922	-0.077697
H178	H	0.226552	0.732830	-0.077693
H179	H	0.809044	0.192403	-0.077701
H180	H	0.851885	0.069134	-0.120530
H181	H	0.851900	-0.011135	-0.120524
H182	H	0.809089	-0.267158	-0.077705
C183	C	0.641456	-0.260888	0.089986
N184	N	0.605981	-0.242584	0.125498
C185	C	0.351153	0.646231	-0.089935
N186	N	0.344612	0.627906	-0.125418
H187	H	0.809008	0.272667	0.377977
H188	H	0.382007	0.732800	0.077723
H189	H	0.621462	0.462602	-0.563430
H190	H	0.508826	0.652567	-0.377991
H191	H	0.653693	0.652569	-0.377993
C192	C	0.598599	0.075402	0.132817
N193	N	0.563109	0.093720	0.168311
H194	H	0.953878	0.272651	0.378007
C195	C	1.111549	0.278978	0.089961
N196	N	1.118091	0.297288	0.125468
H197	H	0.240849	0.772953	0.000020
C198	C	0.220819	0.785609	-0.510562
N199	N	0.162865	0.822264	-0.568498
H200	H	0.621459	0.462603	-0.436536
H201	H	0.953856	0.272687	-0.077717
H202	H	0.653678	-0.347454	0.077712
C203	C	0.858557	0.462598	-0.573423
N204	N	0.908753	0.462589	-0.602388
H205	H	0.653611	0.192374	0.077709
H206	H	0.653599	0.272646	0.222586
C207	C	1.258360	0.186104	0.347168
N208	N	1.322807	0.167784	0.340631
H209	H	0.653608	0.272654	0.077708
H210	H	0.851915	-0.143888	-0.120515
C211	C	0.384177	0.739167	-0.527105
N212	N	0.390668	0.757503	-0.591578
H213	H	1.080696	0.192433	-0.077735
H214	H	0.610851	-0.143924	0.120559
C215	C	1.241834	0.139641	-0.000041
N216	N	1.299761	0.102982	-0.000052
H217	H	0.610845	-0.063661	0.120560
H218	H	1.109264	0.272678	0.222557
H219	H	0.353438	0.652538	-0.222543
