data_functionalizedCrystal
_audit_creation_method	'MofGen! by Chris Wilmer'
_symmetry_space_group_name_H-M	'P1'
_symmetry_Int_Tables_number	1
_symmetry_cell_setting	triclinic
loop_
_symmetry_equiv_pos_as_xyz
  x,y,z
_cell_length_a	15.625950
_cell_length_b	15.538191
_cell_length_c	7.088929
_cell_angle_alpha	86.254841
_cell_angle_beta	114.141725
_cell_angle_gamma	66.741480
loop_
_atom_site_label
_atom_site_type_symbol
_atom_site_fract_x
_atom_site_fract_y
_atom_site_fract_z
O1	O	1.208831	0.081738	0.678820
O2	O	0.926310	0.108270	0.483015
O3	O	1.122565	-0.044370	0.619023
O4	O	1.012576	0.234379	0.542812
O5	O	1.148808	-0.064814	0.955185
O6	O	0.952552	0.087827	0.819177
O7	O	1.235074	0.061295	1.014982
Cu8	Cu	1.096209	0.072695	0.947774
Cu9	Cu	1.065174	0.096871	0.550224
O10	O	1.038819	0.213936	0.878974
C11	C	0.904156	0.098869	0.626648
C12	C	0.799051	0.101303	0.553803
C13	C	0.524768	0.053658	1.230173
C14	C	0.425990	0.055970	1.161625
C15	C	0.397430	0.078255	0.795189
C16	C	0.496206	0.075950	0.863705
C17	C	0.559868	0.063650	1.081200
C18	C	0.531306	0.085942	0.714732
C19	C	0.630075	0.083632	0.783245
C20	C	0.693744	0.071330	1.000731
C21	C	0.658637	0.061340	1.149713
C22	C	0.467645	0.098235	0.497240
C23	C	0.502745	0.108227	0.348267
C24	C	0.601513	0.105924	0.416777
C25	C	0.665182	0.093622	0.634263
C26	C	0.636620	0.115913	0.267795
C27	C	0.735389	0.113603	0.336308
C28	C	0.763951	0.091311	0.702776
C29	C	1.147193	-0.090157	0.795073
C30	C	1.181470	-0.196129	0.818810
C31	C	0.840929	-0.470015	0.582835
C32	C	0.873163	-0.569598	0.605179
C33	C	1.054469	-0.599445	0.730835
C34	C	1.022250	-0.499862	0.708491
C35	C	0.915478	-0.435155	0.634492
C36	C	1.096799	-0.465002	0.760149
C37	C	1.064583	-0.365429	0.737817
C38	C	0.957817	-0.300716	0.663828
C39	C	0.883262	-0.335582	0.612161
C40	C	1.203571	-0.529712	0.834161
C41	C	1.278120	-0.494852	0.885819
C42	C	1.245903	-0.395276	0.863473
C43	C	1.139137	-0.330563	0.789484
C44	C	1.320458	-0.360410	0.915140
C45	C	1.288241	-0.260837	0.892808
C46	C	1.106921	-0.230990	0.767152
C47	C	1.257227	0.070696	0.871345
C48	C	1.362331	0.068263	0.944176
C49	C	1.014190	0.259723	0.702920
C50	C	0.979912	0.365696	0.679170
N51	N	1.118045	0.055689	1.227394
N52	N	1.043349	0.113868	0.270610
H53	H	0.397407	0.047855	1.282947
Br54	Br	1.247089	-0.044795	1.452909
H55	H	0.965937	0.174159	1.135317
H56	H	0.815783	0.081310	0.879877
H57	H	0.774169	0.069448	1.056511
H58	H	0.576600	0.043657	1.407274
Br59	Br	0.771978	-0.616906	0.535086
H60	H	1.348947	-0.232454	0.934876
H61	H	1.019976	-0.178300	0.706880
H62	H	1.229797	-0.610789	0.852323
Br63	Br	0.550233	0.132558	-0.027350
H64	H	0.710469	0.051339	1.326814
H65	H	0.345586	0.088265	0.618105
H66	H	0.763965	0.121744	0.214997
H67	H	1.141403	-0.652143	0.791093
Br68	Br	0.333616	0.101333	0.404267
H69	H	1.365054	-0.547550	0.946077
H70	H	0.450900	0.118237	0.171183
Br71	Br	0.914091	-0.165580	0.633545
Br72	Br	0.696021	-0.382187	0.482377
Br73	Br	0.738354	-0.247753	0.511703
H74	H	1.407392	-0.413110	0.975410
