data_functionalizedCrystal
_audit_creation_method	'MofGen! by Chris Wilmer'
_symmetry_space_group_name_H-M	'P1'
_symmetry_Int_Tables_number	1
_symmetry_cell_setting	triclinic
loop_
_symmetry_equiv_pos_as_xyz
  x,y,z
_cell_length_a	10.654550
_cell_length_b	10.268362
_cell_length_c	10.654550
_cell_angle_alpha	89.998815
_cell_angle_beta	95.515069
_cell_angle_gamma	90.001393
loop_
_atom_site_label
_atom_site_type_symbol
_atom_site_fract_x
_atom_site_fract_y
_atom_site_fract_z
O1	O	1.667842	0.108203	-0.176393
O2	O	2.167842	0.608203	0.323607
O3	O	1.302364	0.108227	-0.193199
O4	O	1.802364	0.608227	0.306801
O5	O	1.493506	0.108206	-0.002057
O6	O	1.993506	0.608206	0.497943
O7	O	1.476700	0.108223	-0.367535
O8	O	1.976700	0.608223	0.132465
O9	O	1.493487	-0.108395	-0.002063
O10	O	1.993487	0.391605	0.497937
O11	O	1.302345	-0.108374	-0.193205
O12	O	1.802345	0.391626	0.306795
O13	O	1.667824	-0.108398	-0.176399
O14	O	2.167824	0.391602	0.323601
Cu15	Cu	1.485083	-0.128163	-0.184803
Cu16	Cu	1.985083	0.371837	0.315197
Cu17	Cu	1.485105	0.127992	-0.184795
Cu18	Cu	1.985105	0.627992	0.315205
O19	O	1.476681	-0.108377	-0.367541
O20	O	1.976681	0.391623	0.132459
C21	C	1.255556	-0.000071	-0.191968
C22	C	1.755556	0.499929	0.308032
C23	C	1.116113	-0.000062	-0.188276
C24	C	1.616113	0.499938	0.311724
C25	C	1.036628	-0.000060	-0.300818
C26	C	1.536628	0.499940	0.199182
C27	C	0.905607	-0.000083	-0.297341
C28	C	1.405607	0.499917	0.202659
C29	C	0.933570	-0.000104	-0.068772
C30	C	1.433570	0.499896	0.431228
C31	C	1.064588	-0.000090	-0.072250
C32	C	1.564588	0.499910	0.427750
N33	N	1.485077	-0.308329	-0.184808
N34	N	1.985077	0.191671	0.315192
C35	C	1.485086	-0.426172	-0.184808
C36	C	1.985086	0.073828	0.315192
C37	C	1.485101	-0.574010	-0.184797
C38	C	1.985101	-0.074010	0.315203
C39	C	1.714631	-0.000098	-0.177630
C40	C	2.214631	0.499902	0.322370
C41	C	1.854074	-0.000098	-0.181322
C42	C	2.354074	0.499902	0.318678
C43	C	1.492263	-0.000094	0.044738
C44	C	1.992263	0.499906	0.544738
C45	C	1.488571	-0.000091	0.184181
C46	C	1.988571	0.499909	0.684181
N47	N	1.485121	0.308158	-0.184781
N48	N	1.985121	0.808158	0.315219
C49	C	1.477925	-0.000075	-0.414336
C50	C	1.977925	0.499925	0.085664
C51	C	1.481616	-0.000069	-0.553779
C52	C	1.981616	0.499931	-0.053779
C53	C	1.601112	-0.000098	0.263667
C54	C	2.101112	0.499902	0.763667
C55	C	1.597636	-0.000082	0.394688
C56	C	2.097636	0.499918	0.894688
C57	C	1.369066	-0.000058	0.366725
C58	C	1.869066	0.499942	0.866725
C59	C	1.372544	-0.000065	0.235706
C60	C	1.872544	0.499935	0.735706
H61	H	1.078574	-0.000047	-0.395294
H62	H	1.578574	0.499953	0.104706
H63	H	0.840894	-0.000084	-0.388984
H64	H	1.340894	0.499916	0.111016
H65	H	1.274601	-0.000038	0.408693
H66	H	1.774601	0.499962	0.908693
H67	H	1.695588	-0.000117	0.221720
H68	H	2.195588	0.499883	0.721720
H69	H	1.280893	-0.000055	0.170985
H70	H	1.780893	0.499945	0.670985
H71	H	1.689279	-0.000085	0.459401
H72	H	2.189279	0.499915	0.959401
H73	H	0.891602	-0.000135	0.025693
H74	H	1.391602	0.499865	0.525693
H75	H	1.129309	-0.000095	0.019401
H76	H	1.629309	0.499905	0.519401
