data_functionalizedCrystal
_audit_creation_method	'MofGen! by Chris Wilmer'
_symmetry_space_group_name_H-M	'P1'
_symmetry_Int_Tables_number	1
_symmetry_cell_setting	triclinic
loop_
_symmetry_equiv_pos_as_xyz
  x,y,z
_cell_length_a	13.262508
_cell_length_b	13.185408
_cell_length_c	9.130313
_cell_angle_alpha	89.999529
_cell_angle_beta	105.914427
_cell_angle_gamma	68.866655
loop_
_atom_site_label
_atom_site_type_symbol
_atom_site_fract_x
_atom_site_fract_y
_atom_site_fract_z
O1	O	-0.273082	1.445728	-0.230477
O2	O	-0.166829	1.128712	-0.188175
O3	O	-0.374997	1.295197	-0.271084
O4	O	-0.064914	1.279243	-0.147569
O5	O	-0.374997	1.295188	-0.027485
O6	O	-0.166830	1.128703	0.055423
O7	O	-0.273082	1.445719	0.013121
Cu8	Cu	-0.219956	1.287210	0.056515
Cu9	Cu	-0.219956	1.287221	-0.231569
O10	O	-0.064914	1.279234	0.096030
C11	C	-0.156058	1.088128	-0.062088
C12	C	-0.123974	0.967213	-0.049317
C13	C	-0.009739	0.897860	-0.003817
C14	C	0.020408	0.784254	0.008205
C15	C	-0.063675	0.739989	-0.025283
C16	C	-0.177912	0.809342	-0.070794
C17	C	-0.208063	0.922960	-0.082806
C18	C	-0.261999	0.765089	-0.104272
C19	C	-0.376236	0.834442	-0.149783
C20	C	-0.406382	0.948048	-0.161794
C21	C	-0.322298	0.992312	-0.128306
C22	C	-0.231848	0.651472	-0.092261
C23	C	-0.430172	0.676571	-0.171250
C24	C	-0.460320	0.790177	-0.183272
C25	C	-0.413848	1.294299	-0.164763
C26	C	-0.529607	1.291624	-0.210883
C27	C	-0.855926	1.284056	0.190273
C28	C	-0.747161	1.286561	0.233607
C29	C	-0.692767	1.287827	0.122489
C30	C	-0.747149	1.286587	-0.031972
C31	C	-0.855921	1.284073	-0.075310
C32	C	-0.692763	1.287844	-0.143094
C33	C	-0.747144	1.286604	-0.297555
C34	C	-0.855906	1.284091	-0.340886
C35	C	-0.910300	1.282825	-0.229767
C36	C	-0.583990	1.290358	-0.099756
C37	C	-0.583986	1.290376	-0.365339
C38	C	-0.692751	1.287870	-0.408674
C39	C	-0.026063	1.280132	-0.010294
C40	C	0.089696	1.282808	0.035816
C41	C	-0.283854	1.486304	-0.112969
C42	C	-0.315937	1.607219	-0.125750
N43	N	-0.219959	1.287210	0.259136
N44	N	-0.219963	1.287230	-0.434194
C45	C	-0.312118	1.360960	0.452430
C46	C	-0.312115	1.360953	0.299095
C47	C	-0.127796	1.213477	0.372526
C48	C	-0.127797	1.213489	0.525859
H49	H	0.058709	0.933912	0.023455
H50	H	0.113420	0.727795	0.045260
H51	H	-0.346838	1.084819	-0.138087
H52	H	-0.387164	1.421005	0.484949
C53	C	-0.915747	1.282784	-0.510807
N54	N	-0.960828	1.281826	-0.638796
C55	C	-0.524159	1.291772	-0.487580
N56	N	-0.479091	1.292823	-0.579643
C57	C	-0.532046	1.024333	-0.211841
N58	N	-0.626697	1.081790	-0.249538
H59	H	-0.138836	0.595015	-0.055203
C60	C	-0.413495	1.442059	0.174385
N61	N	-0.489859	1.503151	0.080452
H62	H	-0.052757	1.153437	0.339985
H63	H	-0.553333	0.846660	-0.220327
H64	H	-0.052748	1.153449	0.618180
H65	H	-0.539719	1.291358	0.026008
C66	C	-0.030508	0.615019	-0.012070
N67	N	-0.005521	0.520886	-0.002125
C68	C	-0.522671	0.627886	-0.208093
N69	N	-0.592335	0.591208	-0.235839
C70	C	-0.573126	1.290594	0.170162
N71	N	-0.483012	1.292685	0.206075
H72	H	-0.702895	1.287582	0.359368
C73	C	-1.029947	1.280065	-0.277428
N74	N	-1.120066	1.277985	-0.313321
H75	H	-0.900219	1.283017	0.280730
H76	H	-0.737044	1.286859	-0.534439
