data_functionalizedCrystal
_audit_creation_method	'MofGen! by Chris Wilmer'
_symmetry_space_group_name_H-M	'P1'
_symmetry_Int_Tables_number	1
_symmetry_cell_setting	triclinic
loop_
_symmetry_equiv_pos_as_xyz
  x,y,z
_cell_length_a	11.792241
_cell_length_b	13.448316
_cell_length_c	14.971486
_cell_angle_alpha	90.006811
_cell_angle_beta	96.096228
_cell_angle_gamma	89.997457
loop_
_atom_site_label
_atom_site_type_symbol
_atom_site_fract_x
_atom_site_fract_y
_atom_site_fract_z
O1	O	-1.506121	0.082596	0.122599
O2	O	-1.006121	0.582596	0.622599
O3	O	-1.175699	0.082619	0.135234
O4	O	-0.675699	0.582619	0.635234
O5	O	-1.349766	0.082600	-0.001248
O6	O	-0.849766	0.582600	0.498752
O7	O	-1.332054	0.082615	0.259081
O8	O	-0.832054	0.582615	0.759081
O9	O	-1.349744	-0.082784	-0.001256
O10	O	-0.849744	0.417216	0.498744
O11	O	-1.175677	-0.082765	0.135226
O12	O	-0.675677	0.417235	0.635226
O13	O	-1.506099	-0.082788	0.122591
O14	O	-1.006099	0.417212	0.622591
Cu15	Cu	-1.340886	-0.097877	0.128907
Cu16	Cu	-0.840886	0.402123	0.628907
Cu17	Cu	-1.340912	0.097708	0.128917
Cu18	Cu	-0.840912	0.597708	0.628917
O19	O	-1.332032	-0.082769	0.259073
O20	O	-0.832032	0.417231	0.759073
C21	C	-1.133402	-0.000070	0.134436
C22	C	-0.633402	0.499930	0.634436
C23	C	-1.007404	-0.000061	0.132061
C24	C	-0.507404	0.499939	0.632061
N25	N	-1.340876	-0.235442	0.128900
N26	N	-0.840876	0.264558	0.628900
C27	C	-1.548396	-0.000097	0.123389
C28	C	-1.048396	0.499903	0.623389
C29	C	-1.674395	-0.000099	0.125764
C30	C	-1.174395	0.499901	0.625764
C31	C	-0.776720	-0.000090	0.127692
C32	C	-0.276720	0.499910	0.627692
C33	C	-0.905089	-0.000074	0.130120
C34	C	-0.405089	0.499926	0.630120
C35	C	-1.348963	-0.000092	-0.034580
C36	C	-0.848963	0.499908	0.465420
C37	C	-1.346589	-0.000091	-0.133887
C38	C	-0.846589	0.499909	0.366113
C39	C	-1.417977	-0.287490	0.068491
C40	C	-0.917977	0.212510	0.568491
C41	C	-1.417984	-0.391594	0.068490
C42	C	-0.917984	0.108406	0.568490
C43	C	-1.340895	-0.443646	0.128903
C44	C	-0.840895	0.056354	0.628903
C45	C	-1.263786	-0.391590	0.189315
C46	C	-0.763786	0.108410	0.689315
C47	C	-1.263774	-0.287489	0.189311
C48	C	-0.763774	0.212511	0.689311
C49	C	-1.263817	-0.608570	0.189321
C50	C	-0.763817	-0.108570	0.689321
C51	C	-1.263830	-0.712678	0.189327
C52	C	-0.763830	-0.212678	0.689327
C53	C	-1.418027	-0.712675	0.068500
C54	C	-0.918027	-0.212675	0.568500
C55	C	-1.418016	-0.608574	0.068496
C56	C	-0.918016	-0.108574	0.568496
C57	C	-1.340908	-0.556525	0.128909
C58	C	-0.840908	-0.056525	0.628909
N59	N	-1.340931	0.235273	0.128918
N60	N	-0.840931	0.735273	0.628918
C61	C	-1.448849	-0.000099	-0.190702
C62	C	-0.948849	0.499901	0.309298
C63	C	-1.446612	-0.000088	-0.284011
C64	C	-0.946612	0.499912	0.215989
C65	C	-1.342114	-0.000078	-0.320502
C66	C	-0.842114	0.499922	0.179498
C67	C	-1.239846	-0.000067	-0.263679
C68	C	-0.739846	0.499933	0.236321
C69	C	-1.242084	-0.000070	-0.170372
C70	C	-0.742084	0.499930	0.329628
C71	C	-1.235188	-0.000063	-0.458160
C72	C	-0.735188	0.499937	0.041840
C73	C	-1.232949	-0.000062	-0.551473
C74	C	-0.732949	0.499938	-0.051473
C75	C	-1.439715	-0.000081	-0.571798
C76	C	-0.939715	0.499919	-0.071798
C77	C	-1.441954	-0.000085	-0.478492
C78	C	-0.941954	0.499915	0.021508
C79	C	-1.339685	-0.000076	-0.421675
C80	C	-0.839685	0.499924	0.078325
C81	C	-1.332835	-0.000075	0.292405
C82	C	-0.832835	0.499925	0.792405
C83	C	-1.335209	-0.000069	0.391711
C84	C	-0.835209	0.499931	0.891711
H85	H	-1.480757	-0.245116	0.019299
H86	H	-0.980757	0.254884	0.519299
F87	F	-1.555451	-0.000099	-0.344475
F88	F	-1.055451	0.499901	0.155525
H89	H	-1.158814	-0.000063	-0.124113
H90	H	-0.658814	0.499937	0.375887
F91	F	-1.500068	-0.553175	0.004203
F92	F	-1.000068	-0.053175	0.504203
H93	H	-1.147857	-0.000069	-0.581181
H94	H	-0.647857	0.499931	-0.081181
F95	F	-1.181745	-0.553180	0.253619
F96	F	-0.681745	-0.053180	0.753619
H97	H	-1.527045	-0.000101	-0.448784
H98	H	-1.027045	0.499899	0.051216
F99	F	-1.500092	-0.768073	0.004206
F100	F	-1.000092	-0.268073	0.504206
H101	H	-1.201055	-0.755054	0.238521
H102	H	-0.701055	-0.255054	0.738521
F103	F	-1.181735	-0.446989	0.253609
F104	F	-0.681735	0.053011	0.753609
F105	F	-1.181709	-0.232096	0.253605
F106	F	-0.681709	0.267904	0.753605
F107	F	-1.548558	-0.000087	-0.632268
F108	F	-1.048558	0.499913	-0.132268
H109	H	-1.151910	-0.000053	-0.411902
H110	H	-0.651910	0.499947	0.088098
F111	F	-1.128630	-0.000044	-0.302518
F112	F	-0.628630	0.499956	0.197482
F113	F	-1.500042	-0.446988	0.004195
F114	F	-1.000042	0.053012	0.504195
F115	F	-1.560072	-0.000120	-0.151875
F116	F	-1.060072	0.499880	0.348125
