data_functionalizedCrystal
_audit_creation_method	'MofGen! by Chris Wilmer'
_symmetry_space_group_name_H-M	'P1'
_symmetry_Int_Tables_number	1
_symmetry_cell_setting	triclinic
loop_
_symmetry_equiv_pos_as_xyz
  x,y,z
_cell_length_a	12.645331
_cell_length_b	12.645330
_cell_length_c	17.077396
_cell_angle_alpha	89.972192
_cell_angle_beta	89.982653
_cell_angle_gamma	90.011625
loop_
_atom_site_label
_atom_site_type_symbol
_atom_site_fract_x
_atom_site_fract_y
_atom_site_fract_z
Zn1	Zn	1.620713	-0.422051	-0.443861
Zn2	Zn	2.120713	0.077949	0.056139
Zn3	Zn	1.620626	-0.599342	-0.312600
Zn4	Zn	2.120626	-0.099342	0.187400
Zn5	Zn	1.443444	-0.422090	-0.312608
Zn6	Zn	1.943444	0.077910	0.187392
Zn7	Zn	1.443425	-0.599270	-0.443823
Zn8	Zn	1.943425	-0.099270	0.056177
O9	O	1.532052	-0.510688	-0.378223
O10	O	2.032052	-0.010688	0.121777
O11	O	1.769048	-0.445583	-0.426462
O12	O	2.269048	0.054417	0.073538
O13	O	1.597095	-0.575875	-0.202754
O14	O	2.097095	-0.075875	0.297246
O15	O	1.467003	-0.273737	-0.330039
O16	O	1.967003	0.226263	0.169961
O17	O	1.768985	-0.575838	-0.330025
O18	O	2.268985	-0.075838	0.169975
O19	O	1.597242	-0.273709	-0.426469
O20	O	2.097242	0.226291	0.073531
O21	O	1.466919	-0.445649	-0.202760
O22	O	1.966919	0.054351	0.297240
O23	O	1.295094	-0.445579	-0.330002
O24	O	1.795094	0.054421	0.169998
O25	O	1.466970	-0.575716	-0.553675
O26	O	1.966970	-0.075716	-0.053675
O27	O	1.295080	-0.575753	-0.426405
O28	O	1.795080	-0.075753	0.073595
O29	O	1.597223	-0.445514	-0.553703
O30	O	2.097223	0.054486	-0.053703
O31	O	1.597076	-0.747680	-0.329988
O32	O	2.097076	-0.247680	0.170012
O33	O	1.466887	-0.747627	-0.426397
O34	O	1.966887	-0.247627	0.073603
C35	C	1.256622	-0.510663	-0.378201
C36	C	1.756622	-0.010663	0.121799
C37	C	1.138792	-0.510678	-0.378210
C38	C	1.638792	-0.010678	0.121790
C39	C	0.971201	-0.428409	-0.317897
C40	C	1.471201	0.071591	0.182103
C41	C	1.093761	-0.428622	-0.317631
C42	C	1.593761	0.071378	0.182369
C43	C	1.094284	-0.622352	-0.355611
C44	C	1.594284	-0.122352	0.144389
C45	C	0.971686	-0.621903	-0.355200
C46	C	1.471686	-0.121903	0.144800
C47	C	0.971630	-0.482335	-0.461353
C48	C	1.471630	0.017665	0.038647
C49	C	1.094235	-0.479841	-0.460892
C50	C	1.594235	0.020159	0.039108
C51	C	1.531999	-0.786118	-0.378205
C52	C	2.031999	-0.286118	0.121795
C53	C	1.532073	-0.903948	-0.378223
C54	C	2.032073	-0.403948	0.121777
C55	C	1.613844	-1.071501	-0.317449
C56	C	2.113844	-0.571501	0.182551
C57	C	1.614110	-0.948941	-0.317598
C58	C	2.114110	-0.448941	0.182402
C59	C	1.562363	-0.948329	-0.460967
C60	C	2.062363	-0.448329	0.039033
C61	C	1.563012	-1.070927	-0.460644
C62	C	2.063012	-0.570927	0.039356
C63	C	1.419981	-1.071274	-0.357069
C64	C	1.919981	-0.571274	0.142931
C65	C	1.420518	-0.948669	-0.355213
C66	C	1.920518	-0.448669	0.144787
C67	C	1.808557	-0.510714	-0.378247
C68	C	2.308557	-0.010714	0.121753
C69	C	1.926387	-0.510725	-0.378256
C70	C	2.426387	-0.010725	0.121744
C71	C	1.532104	-0.510602	-0.582968
C72	C	2.032104	-0.010602	-0.082968
C73	C	1.532127	-0.510566	-0.670218
C74	C	2.032127	-0.010566	-0.170218
C75	C	1.532134	-0.234183	-0.378259
C76	C	2.032134	0.265817	0.121741
C77	C	1.532169	-0.116353	-0.378274
C78	C	2.032169	0.383647	0.121726
C79	C	1.600005	-0.578251	-1.046031
C80	C	2.100005	-0.078251	-0.546031
C81	C	1.599978	-0.578282	-0.964051
C82	C	2.099978	-0.078282	-0.464051
C83	C	1.532195	-0.510491	-0.923067
C84	C	2.032195	-0.010491	-0.423067
C85	C	1.464426	-0.442672	-0.964067
C86	C	1.964426	0.057328	-0.464067
C87	C	1.464448	-0.442647	-1.046046
C88	C	1.964448	0.057353	-0.546046
C89	C	1.464386	-0.442727	-0.793197
C90	C	1.964386	0.057273	-0.293197
C91	C	1.464365	-0.442750	-0.711212
C92	C	1.964365	0.057250	-0.211212
C93	C	1.599916	-0.578362	-0.711202
C94	C	2.099916	-0.078362	-0.211202
C95	C	1.599939	-0.578337	-0.793181
C96	C	2.099939	-0.078337	-0.293181
C97	C	1.532171	-0.510516	-0.834176
C98	C	2.032171	-0.010516	-0.334176
C99	C	1.532061	-0.510697	-0.174275
C100	C	2.032061	-0.010697	0.325725
C101	C	1.532244	-0.510435	-0.087026
C102	C	2.032244	-0.010435	0.412974
H103	H	1.124950	-0.646842	-0.295515
H104	H	1.624950	-0.146842	0.204485
F105	F	1.132047	-0.453143	-0.237143
F106	F	1.632047	0.046857	0.262857
F107	F	1.670197	-1.108200	-0.484121
F108	F	2.170197	-0.608200	0.015879
H109	H	1.655144	-0.633518	-0.930677
H110	H	2.155144	-0.133518	-0.430677
H111	H	1.643441	-0.917542	-0.479229
H112	H	2.143441	-0.417542	0.020771
H113	H	1.123454	-0.685323	-0.398194
H114	H	1.623454	-0.185323	0.101806
F115	F	0.931237	-0.377753	-0.488215
F116	F	1.431237	0.122247	0.011785
F117	F	1.589391	-1.110134	-0.237020
F118	F	2.089391	-0.610134	0.262980
F119	F	1.672085	-0.650485	-0.836798
F120	F	2.172085	-0.150485	-0.336798
H121	H	1.123330	-0.397661	-0.477932
H122	H	1.623330	0.102339	0.022068
H123	H	1.655096	-0.633584	-0.677820
H124	H	2.155096	-0.133584	-0.177820
H125	H	0.943050	-0.645979	-0.294451
H126	H	1.443050	-0.145979	0.205549
H127	H	1.696492	-1.102232	-0.331318
H128	H	2.196492	-0.602232	0.168682
H129	H	1.409173	-0.387545	-0.677845
H130	H	1.909173	0.112455	-0.177845
H131	H	0.942042	-0.685311	-0.397246
H132	H	1.442042	-0.185311	0.102754
F133	F	0.930876	-0.452646	-0.237885
F134	F	1.430876	0.047354	0.262115
H135	H	1.697204	-0.919534	-0.331624
H136	H	2.197204	-0.419534	0.168376
H137	H	1.409231	-0.387480	-0.930691
H138	H	1.909231	0.112520	-0.430691
H139	H	1.409202	-0.387500	-0.826572
H140	H	1.909202	0.112500	-0.326572
F141	F	1.134300	-0.552493	-0.522820
F142	F	1.634300	-0.052493	-0.022820
H143	H	1.506129	-1.100593	-0.507525
H144	H	2.006129	-0.600593	-0.007525
F145	F	1.392332	-0.370464	-1.089675
F146	F	1.892332	0.129536	-0.589675
H147	H	1.359126	-1.100280	-0.401370
H148	H	1.859126	-0.600280	0.098630
F149	F	1.486969	-0.910243	-0.521791
F150	F	1.986969	-0.410243	-0.021791
F151	F	0.933752	-0.560700	-0.520137
F152	F	1.433752	-0.060700	-0.020137
H153	H	1.356382	-0.918053	-0.396267
H154	H	1.856382	-0.418053	0.103733
F155	F	1.589285	-0.909722	-0.237414
F156	F	2.089285	-0.409722	0.262586
H157	H	1.655208	-0.633450	-1.079395
H158	H	2.155208	-0.133450	-0.579395
H159	H	1.123853	-0.345811	-0.331796
H160	H	1.623853	0.154189	0.168204
H161	H	1.397679	-0.919674	-0.294320
H162	H	1.897679	-0.419674	0.205680
F163	F	0.932679	-0.319840	-0.336211
F164	F	1.432679	0.180160	0.163789
H165	H	1.392434	-1.102284	-0.297783
H166	H	1.892434	-0.602284	0.202217
