data_functionalizedCrystal
_audit_creation_method	'MofGen! by Chris Wilmer'
_symmetry_space_group_name_H-M	'P1'
_symmetry_Int_Tables_number	1
_symmetry_cell_setting	triclinic
loop_
_symmetry_equiv_pos_as_xyz
  x,y,z
_cell_length_a	10.654538
_cell_length_b	10.654559
_cell_length_c	9.130313
_cell_angle_alpha	90.001323
_cell_angle_beta	90.000792
_cell_angle_gamma	95.515649
loop_
_atom_site_label
_atom_site_type_symbol
_atom_site_fract_x
_atom_site_fract_y
_atom_site_fract_z
O1	O	-1.667849	0.176321	-0.121809
O2	O	-1.302369	0.193143	-0.121807
O3	O	-1.493506	0.001993	-0.121808
O4	O	-1.476712	0.367471	-0.121808
O5	O	-1.493503	0.001998	0.121791
O6	O	-1.302366	0.193148	0.121792
O7	O	-1.667846	0.176326	0.121790
Cu8	Cu	-1.485106	0.184737	0.144033
Cu9	Cu	-1.485109	0.184731	-0.144051
O10	O	-1.476709	0.367476	0.121791
C11	C	-1.255569	0.191913	-0.000007
C12	C	-1.116125	0.188227	-0.000007
C13	C	-1.492269	-0.044802	-0.000012
C14	C	-1.488573	-0.184245	-0.000021
C15	C	-0.919591	0.183021	0.132785
C16	C	-1.050612	0.186496	0.132782
C17	C	-1.050609	0.186497	-0.132803
C18	C	-0.919589	0.183031	-0.132799
C19	C	-0.854086	0.181277	0.265583
C20	C	-0.919593	0.183010	0.398379
C21	C	-1.050614	0.186484	0.398376
C22	C	-1.116128	0.188226	0.265578
C23	C	-1.372560	-0.235780	-0.000024
C24	C	-1.369094	-0.366802	-0.000013
C25	C	-1.597664	-0.394744	-0.000002
C26	C	-1.601129	-0.263724	-0.000002
C27	C	-1.260003	-0.156301	-0.000043
C28	C	-1.143981	-0.207834	-0.000047
C29	C	-1.140516	-0.338856	-0.000036
C30	C	-1.253072	-0.418345	-0.000020
C31	C	-0.714644	0.177567	-0.000007
C32	C	-0.854084	0.181287	-0.000001
C33	C	-1.477946	0.414271	-0.000009
C34	C	-1.481643	0.553713	-0.000009
N35	N	-1.485113	0.184741	0.346656
N36	N	-1.485112	0.184718	-0.346673
C37	C	-1.569771	0.100129	0.423307
C38	C	-1.569767	0.100114	0.576644
C39	C	-1.400445	0.269334	0.576664
C40	C	-1.400443	0.269342	0.423330
C41	C	-1.654441	0.015528	0.346633
C42	C	-1.739106	-0.069090	0.423284
C43	C	-1.739102	-0.069105	0.576621
C44	C	-1.654434	0.015498	0.653306
H45	H	-0.747402	0.178446	0.265600
O46	O	-1.309154	0.360595	0.659382
H47	H	-1.326016	0.458646	0.629947
O48	O	-1.830426	-0.160361	0.659291
H49	H	-1.813597	-0.258418	0.629839
H50	H	-1.250241	-0.525030	-0.000012
O51	O	-1.309108	0.360579	0.340651
H52	H	-1.323315	0.346349	0.221148
H53	H	-1.654430	0.015470	0.778164
O54	O	-1.719060	-0.480469	0.000013
H55	H	-1.722959	-0.540826	-0.099279
O56	O	-1.263736	-0.014984	-0.000034
H57	H	-1.215315	0.025592	-0.099319
O58	O	-1.726253	-0.208124	-0.000014
H59	H	-1.803939	-0.285400	-0.000027
O60	O	-1.015387	-0.394448	-0.000032
H61	H	-0.937708	-0.317166	-0.000054
H62	H	-0.866242	0.181602	0.506498
H63	H	-1.103961	0.187914	-0.240921
H64	H	-1.103945	0.187908	0.506505
O65	O	-0.848923	0.181143	-0.276012
H66	H	-0.916484	0.182913	-0.368356
O67	O	-1.654436	0.015528	0.181249
H68	H	-1.748427	0.036485	0.140817
O69	O	-1.257445	0.191974	0.265566
H70	H	-1.291995	0.192883	0.380212
O71	O	-1.022583	-0.122113	-0.000057
H72	H	-1.044480	-0.022348	-0.000076
H73	H	-1.808033	-0.137978	0.360840
