data_functionalizedCrystal
_audit_creation_method	'MofGen! by Chris Wilmer'
_symmetry_space_group_name_H-M	'P1'
_symmetry_Int_Tables_number	1
_symmetry_cell_setting	triclinic
loop_
_symmetry_equiv_pos_as_xyz
  x,y,z
_cell_length_a	13.032721
_cell_length_b	10.686154
_cell_length_c	10.686551
_cell_angle_alpha	89.693980
_cell_angle_beta	93.335252
_cell_angle_gamma	79.028863
loop_
_atom_site_label
_atom_site_type_symbol
_atom_site_fract_x
_atom_site_fract_y
_atom_site_fract_z
Zn1	Zn	-0.254473	-1.936442	-0.604196
Zn2	Zn	0.245527	-1.436442	-0.104196
Zn3	Zn	-0.443341	-1.893605	-0.425421
Zn4	Zn	0.056659	-1.393605	0.074579
Zn5	Zn	-0.281158	-1.706801	-0.414884
Zn6	Zn	0.218842	-1.206801	0.085116
Zn7	Zn	-0.441219	-1.700334	-0.650844
Zn8	Zn	0.058781	-1.200334	-0.150844
O9	O	-0.355048	-1.809295	-0.523836
O10	O	0.144952	-1.309295	-0.023836
O11	O	-0.269247	-2.107750	-0.565369
O12	O	0.230753	-1.607750	-0.065369
O13	O	-0.433883	-1.853604	-0.250455
O14	O	0.066117	-1.353604	0.249545
O15	O	-0.131591	-1.757897	-0.416065
O16	O	0.368409	-1.257897	0.083935
O17	O	-0.408008	-2.076278	-0.434023
O18	O	0.091992	-1.576278	0.065977
O19	O	-0.111985	-1.926614	-0.555152
O20	O	0.388015	-1.426614	-0.055152
O21	O	-0.314728	-1.716360	-0.242713
O22	O	0.185272	-1.216360	0.257287
O23	O	-0.312670	-1.528952	-0.461297
O24	O	0.187330	-1.028952	0.038703
O25	O	-0.404391	-1.746875	-0.818224
O26	O	0.095609	-1.246875	-0.318224
O27	O	-0.430266	-1.524201	-0.634656
O28	O	0.069734	-1.024201	-0.134656
O29	O	-0.267190	-1.920343	-0.783952
O30	O	0.232810	-1.420343	-0.283952
O31	O	-0.589087	-1.847333	-0.479255
O32	O	-0.089087	-1.347333	0.020745
O33	O	-0.587528	-1.705337	-0.644873
O34	O	-0.087528	-1.205337	-0.144873
C35	C	-0.374134	-1.480685	-0.551896
C36	C	0.125866	-0.980685	-0.051896
C37	C	-0.382323	-1.340103	-0.563933
C38	C	0.117677	-0.840103	-0.063933
C39	C	-0.626167	-1.771022	-0.568293
C40	C	-0.126167	-1.271022	-0.068293
C41	C	-0.742144	-1.754768	-0.587344
C42	C	-0.242144	-1.254768	-0.087344
C43	C	-0.794578	-1.817851	-0.513944
C44	C	-0.294578	-1.317851	-0.013944
C45	C	-0.914446	-1.801053	-0.533631
C46	C	-0.414446	-1.301053	-0.033631
C47	C	-0.082866	-1.847755	-0.479229
C48	C	0.417134	-1.347755	0.020771
C49	C	0.033122	-1.864144	-0.460221
C50	C	0.533122	-1.364144	0.039779
C51	C	-0.332577	-1.837666	-0.847351
C52	C	0.167423	-1.337666	-0.347351
C53	C	-0.323001	-1.849756	-0.985214
C54	C	0.176999	-1.349756	-0.485214
C55	C	-0.335878	-1.139190	-0.495658
C56	C	0.164122	-0.639190	0.004342
C57	C	-0.327685	-1.279773	-0.483625
C58	C	0.172315	-0.779773	0.016375
C59	C	-0.377352	-1.781119	-0.201561
C60	C	0.122648	-1.281119	0.298439
C61	C	-0.386619	-1.769315	-0.063630
C62	C	0.113381	-1.269315	0.436370
H63	H	-0.274643	-1.335671	-0.405660
H64	H	0.225357	-0.835671	0.094340
H65	H	-0.750730	-1.884300	-0.436531
H66	H	-0.250730	-1.384300	0.063469
H67	H	-0.435375	-1.284197	-0.641897
H68	H	0.064625	-0.784197	-0.141897
H69	H	-0.448414	-1.691201	-1.025297
H70	H	0.051586	-1.191201	-0.525297
F71	F	-0.799452	-1.667926	-0.688541
F72	F	-0.299452	-1.167926	-0.188541
H73	H	-0.958291	-1.734610	-0.611057
H74	H	-0.458291	-1.234610	-0.111057
F75	F	-0.242235	-1.951876	-1.035319
F76	F	0.257765	-1.451876	-0.535319
H77	H	-0.923033	-1.930598	-0.382803
H78	H	-0.423033	-1.430598	0.117197
