data_functionalizedCrystal
_audit_creation_method	'MofGen! by Chris Wilmer'
_symmetry_space_group_name_H-M	'P1'
_symmetry_Int_Tables_number	1
_symmetry_cell_setting	triclinic
loop_
_symmetry_equiv_pos_as_xyz
  x,y,z
_cell_length_a	8.559649
_cell_length_b	8.597366
_cell_length_c	7.681481
_cell_angle_alpha	76.525280
_cell_angle_beta	85.068589
_cell_angle_gamma	102.375293
loop_
_atom_site_label
_atom_site_type_symbol
_atom_site_fract_x
_atom_site_fract_y
_atom_site_fract_z
O1	O	0.220958	-2.072793	0.168053
O2	O	0.720958	-1.572793	0.668053
O3	O	0.246420	-1.605617	0.097172
O4	O	0.746420	-1.105617	0.597172
O5	O	0.001084	-1.880364	0.138862
O6	O	0.501084	-1.380364	0.638862
O7	O	0.466294	-1.798046	0.126364
O8	O	0.966294	-1.298046	0.626364
O9	O	-0.029181	-1.914190	0.436852
O10	O	0.470819	-1.414190	0.936852
O11	O	0.216155	-1.639442	0.395162
O12	O	0.716155	-1.139442	0.895162
O13	O	0.190693	-2.106619	0.466043
O14	O	0.690693	-1.606619	0.966043
Zn15	Zn	0.198619	-1.878401	0.477915
Zn16	Zn	0.698619	-1.378401	0.977915
Zn17	Zn	0.238494	-1.833835	0.085300
Zn18	Zn	0.738494	-1.333835	0.585300
O19	O	0.436029	-1.831871	0.424354
O20	O	0.936029	-1.331871	0.924354
C21	C	0.230240	-1.563275	0.237177
C22	C	0.730240	-1.063275	0.737177
C23	C	0.227099	-1.386715	0.210389
C24	C	0.727099	-0.886715	0.710389
C25	C	-0.073578	-1.903515	0.288800
C26	C	0.426422	-1.403515	0.788800
C27	C	-0.250959	-1.922083	0.291610
C28	C	0.249041	-1.422083	0.791610
C29	C	0.206873	-2.148961	0.326035
C30	C	0.706873	-1.648961	0.826035
C31	C	0.210016	-2.325519	0.352811
C32	C	0.710016	-1.825519	0.852811
C33	C	0.510692	-1.808720	0.274411
C34	C	1.010692	-1.308720	0.774411
C35	C	0.688073	-1.790151	0.271590
C36	C	1.188073	-1.290151	0.771590
N37	N	0.171404	-1.908828	0.745866
N38	N	0.671404	-1.408828	1.245866
N39	N	0.265697	-1.803422	-0.182649
N40	N	0.765697	-1.303422	0.317351
H41	H	-0.334464	-2.049242	0.310908
H42	H	0.165536	-1.549242	0.810908
H43	H	0.239310	-1.304037	0.067951
H44	H	0.739310	-0.804037	0.567951
Br45	Br	0.426120	-1.624083	0.664810
Br46	Br	0.926120	-1.124083	1.164810
H47	H	0.197792	-1.408209	0.495258
H48	H	0.697792	-0.908209	0.995258
H49	H	-0.228414	-1.662986	0.252310
H50	H	0.271586	-1.162986	0.752310
Br51	Br	0.010998	-2.088198	0.898419
Br52	Br	0.510998	-1.588198	1.398419
