data_functionalizedCrystal
_audit_creation_method	'MofGen! by Chris Wilmer'
_symmetry_space_group_name_H-M	'P1'
_symmetry_Int_Tables_number	1
_symmetry_cell_setting	triclinic
loop_
_symmetry_equiv_pos_as_xyz
  x,y,z
_cell_length_a	13.033409
_cell_length_b	13.033855
_cell_length_c	10.686551
_cell_angle_alpha	102.085114
_cell_angle_beta	87.737689
_cell_angle_gamma	76.696889
loop_
_atom_site_label
_atom_site_type_symbol
_atom_site_fract_x
_atom_site_fract_y
_atom_site_fract_z
Zn1	Zn	1.697705	-0.608513	0.359365
Zn2	Zn	1.706542	-0.799772	0.117697
Zn3	Zn	1.509938	-0.596201	0.179117
Zn4	Zn	1.542650	-0.763538	0.359381
O5	O	1.614209	-0.692006	0.253890
O6	O	1.846047	-0.654201	0.301596
O7	O	1.670470	-0.782780	-0.050736
O8	O	1.517457	-0.447761	0.228725
O9	O	1.852540	-0.794718	0.124043
O10	O	1.655408	-0.456806	0.361153
O11	O	1.526026	-0.633217	-0.005611
O12	O	1.367108	-0.598082	0.228740
O13	O	1.573210	-0.732962	0.535959
O14	O	1.391141	-0.721023	0.361180
O15	O	1.687128	-0.619066	0.535948
O16	O	1.702190	-0.945039	0.124059
O17	O	1.581780	-0.918418	0.301623
C18	C	1.340965	-0.654286	0.301627
C19	C	1.224075	-0.638173	0.322075
C20	C	1.054340	-0.683768	0.264375
C21	C	1.175152	-0.700425	0.243234
C22	C	1.646524	-0.970643	0.206200
C23	C	1.660447	-1.089856	0.185824
C24	C	1.607026	-1.129865	0.264535
C25	C	1.621415	-1.253077	0.243477
C26	C	1.888520	-0.729874	0.205967
C27	C	2.005415	-0.746012	0.185545
C28	C	1.632832	-0.673345	0.583019
C29	C	1.640769	-0.665393	0.723274
C30	C	1.581798	-0.412283	0.301788
C31	C	1.567986	-0.293082	0.322200
C32	C	1.595709	-0.710525	-0.073956
C33	C	1.587942	-0.718203	-0.214194
H34	H	1.176526	-0.572549	0.405224
O35	O	1.493280	-1.217629	0.432111
H36	H	1.412022	-1.228985	0.421135
O37	O	1.735163	-1.165298	0.075923
H38	H	1.734755	-1.250237	0.076644
H39	H	1.222704	-0.766057	0.160094
O40	O	1.519972	-0.786132	0.714590
H41	H	1.436716	-0.754917	0.757397
O42	O	0.991363	-0.596832	0.374502
H43	H	0.906354	-0.597383	0.373816
O44	O	1.068389	-0.832934	0.075404
H45	H	1.153396	-0.832370	0.076076
H46	H	1.692076	-0.614098	0.777043
H47	H	1.677803	-1.310039	0.160491
O48	O	1.532331	-1.054424	0.374457
H49	H	1.532757	-0.969487	0.373753
