data_functionalizedCrystal
_audit_creation_method	'MofGen! by Chris Wilmer'
_symmetry_space_group_name_H-M	'P1'
_symmetry_Int_Tables_number	1
_symmetry_cell_setting	triclinic
loop_
_symmetry_equiv_pos_as_xyz
  x,y,z
_cell_length_a	13.897449
_cell_length_b	12.827892
_cell_length_c	12.827885
_cell_angle_alpha	89.970214
_cell_angle_beta	89.979901
_cell_angle_gamma	90.016672
loop_
_atom_site_label
_atom_site_type_symbol
_atom_site_fract_x
_atom_site_fract_y
_atom_site_fract_z
Zn1	Zn	1.474712	-0.415947	-0.590872
Zn2	Zn	1.808045	-0.082613	-0.257538
Zn3	Zn	2.141379	0.250720	0.075795
Zn4	Zn	1.474614	-0.590724	-0.416132
Zn5	Zn	1.807948	-0.257391	-0.082799
Zn6	Zn	2.141281	0.075943	0.250535
Zn7	Zn	1.313403	-0.416002	-0.416143
Zn8	Zn	1.646736	-0.082668	-0.082810
Zn9	Zn	1.980070	0.250665	0.250524
Zn10	Zn	1.313389	-0.590650	-0.590830
Zn11	Zn	1.646723	-0.257317	-0.257496
Zn12	Zn	1.980056	0.076016	0.075837
O13	O	1.394030	-0.503331	-0.503494
O14	O	1.727363	-0.169997	-0.170161
O15	O	2.060696	0.163336	0.163173
O16	O	1.609681	-0.439139	-0.567705
O17	O	1.943014	-0.105806	-0.234372
O18	O	2.276347	0.227527	0.098961
O19	O	1.453194	-0.567601	-0.269897
O20	O	1.786527	-0.234267	0.063436
O21	O	2.119861	0.099066	0.396769
O22	O	1.334848	-0.269758	-0.439343
O23	O	1.668181	0.063575	-0.106010
O24	O	2.001514	0.396908	0.227323
O25	O	1.609609	-0.567547	-0.439325
O26	O	1.942942	-0.234214	-0.105991
O27	O	2.276275	0.099119	0.227342
O28	O	1.453361	-0.269718	-0.567716
O29	O	1.786694	0.063615	-0.234382
O30	O	2.120027	0.396949	0.098951
O31	O	1.334753	-0.439233	-0.269905
O32	O	1.668086	-0.105899	0.063428
O33	O	2.001419	0.227434	0.396761
O34	O	1.178420	-0.439161	-0.439302
O35	O	1.511753	-0.105828	-0.105969
O36	O	1.845086	0.227505	0.227364
O37	O	1.334824	-0.567422	-0.737071
O38	O	1.668158	-0.234088	-0.403738
O39	O	2.001491	0.099245	-0.070405
O40	O	1.178410	-0.567475	-0.567644
O41	O	1.511743	-0.234142	-0.234310
O42	O	1.845076	0.099192	0.099023
O43	O	1.453347	-0.439068	-0.737102
O44	O	1.786681	-0.105734	-0.403769
O45	O	2.120014	0.227599	-0.070436
O46	O	1.453181	-0.736950	-0.439284
O47	O	1.786514	-0.403617	-0.105951
O48	O	2.119847	-0.070284	0.227383
O49	O	1.334730	-0.736896	-0.567633
O50	O	1.668063	-0.403563	-0.234300
O51	O	2.001396	-0.070230	0.099033
C52	C	1.393969	-0.774841	-0.503476
C53	C	1.727303	-0.441507	-0.170142
C54	C	2.060636	-0.108174	0.163191
C55	C	1.394032	-0.890994	-0.503503
C56	C	1.727365	-0.557660	-0.170169
C57	C	2.060698	-0.224327	0.163164
C58	C	1.143415	-0.503317	-0.503470
C59	C	1.476749	-0.169983	-0.170137
C60	C	1.810082	0.163350	0.163196
C61	C	1.036201	-0.503336	-0.503485
C62	C	1.369535	-0.170003	-0.170151
C63	C	1.702868	0.163331	0.163182
C64	C	1.452715	-0.942771	-0.440062
C65	C	1.786048	-0.609437	-0.106728
C66	C	2.119381	-0.276104	0.226605
C67	C	1.452781	-1.062821	-0.440088
C68	C	1.786114	-0.729488	-0.106755
C69	C	2.119447	-0.396154	0.226578
C70	C	0.839906	-0.503340	-0.503512
C71	C	1.173240	-0.170006	-0.170179
C72	C	1.506573	0.163327	0.163154
C73	C	0.949139	-0.503334	-0.503494
C74	C	1.282472	-0.170001	-0.170161
C75	C	1.615805	0.163332	0.163173
C76	C	1.645623	-0.503345	-0.503519
C77	C	1.978956	-0.170012	-0.170185
C78	C	2.312289	0.163321	0.163148
C79	C	1.752836	-0.503352	-0.503529
C80	C	2.086170	-0.170018	-0.170196
C81	C	2.419503	0.163315	0.163138
C82	C	1.394095	-0.503230	-0.776064
C83	C	1.727429	-0.169897	-0.442731
C84	C	2.060762	0.163436	-0.109398
C85	C	1.394123	-0.503188	-0.892218
C86	C	1.727457	-0.169854	-0.558884
C87	C	2.060790	0.163479	-0.225551
C88	C	1.394116	-0.230761	-0.503535
C89	C	1.727450	0.102573	-0.170202
C90	C	2.060783	0.435906	0.163131
C91	C	1.394153	-0.114607	-0.503553
C92	C	1.727487	0.218726	-0.170220
C93	C	2.060820	0.552059	0.163114
C94	C	1.452779	-0.439662	-0.944018
C95	C	1.786112	-0.106328	-0.610684
C96	C	2.119445	0.227005	-0.277351
C97	C	1.452809	-0.439616	-1.064068
C98	C	1.786142	-0.106283	-0.730735
C99	C	2.119476	0.227051	-0.397401
C100	C	1.394020	-0.503355	-0.231984
C101	C	1.727353	-0.170022	0.101349
C102	C	2.060686	0.163311	0.434683
C103	C	1.394179	-0.503104	-0.115832
C104	C	1.727512	-0.169770	0.217502
C105	C	2.060845	0.163563	0.550835
H106	H	1.502911	-0.898225	-0.385731
H107	H	1.836244	-0.564891	-0.052398
H108	H	2.169578	-0.231558	0.280935
C109	C	1.520650	-0.366136	-1.124246
C110	C	1.853983	-0.032802	-0.790912
C111	C	2.187317	0.300531	-0.457579
N112	N	1.571748	-0.310786	-1.169574
N113	N	1.905081	0.022547	-0.836241
N114	N	2.238415	0.355881	-0.502908
C115	C	1.520654	-1.122972	-0.366707
C116	C	1.853987	-0.789638	-0.033374
C117	C	2.187321	-0.456305	0.299960
N118	N	1.571779	-1.168280	-0.311434
N119	N	1.905112	-0.834947	0.021899
N120	N	2.238445	-0.501613	0.355232
C121	C	1.326275	-1.054463	-0.576935
C122	C	1.659609	-0.721130	-0.243602
C123	C	1.992942	-0.387797	0.089732
N124	N	1.275151	-1.009155	-0.632208
N125	N	1.608484	-0.675822	-0.298875
N126	N	1.941818	-0.342488	0.034459
C127	C	1.520589	-0.366227	-0.883866
C128	C	1.853922	-0.032893	-0.550533
C129	C	2.187256	0.300440	-0.217200
N130	N	1.571666	-0.310914	-0.838562
N131	N	1.904999	0.022420	-0.505228
N132	N	2.238333	0.355753	-0.171895
H133	H	1.343844	-0.935542	-0.557840
H134	H	1.677177	-0.602209	-0.224507
H135	H	2.010510	-0.268876	0.108826
H136	H	1.343963	-0.557497	-1.071291
H137	H	1.677296	-0.224164	-0.737958
H138	H	2.010629	0.109169	-0.404625
C139	C	1.326306	-0.576615	-0.952369
C140	C	1.659640	-0.243282	-0.619036
C141	C	1.992973	0.090051	-0.285702
N142	N	1.275225	-0.631923	-0.997674
N143	N	1.608558	-0.298590	-0.664340
N144	N	1.941891	0.034743	-0.331007
