data_functionalizedCrystal
_audit_creation_method	'MofGen! by Chris Wilmer'
_symmetry_space_group_name_H-M	'P1'
_symmetry_Int_Tables_number	1
_symmetry_cell_setting	triclinic
loop_
_symmetry_equiv_pos_as_xyz
  x,y,z
_cell_length_a	13.185407
_cell_length_b	11.804783
_cell_length_c	13.339070
_cell_angle_alpha	99.452288
_cell_angle_beta	96.198611
_cell_angle_gamma	73.927925
loop_
_atom_site_label
_atom_site_type_symbol
_atom_site_fract_x
_atom_site_fract_y
_atom_site_fract_z
O1	O	1.350053	0.098993	0.255396
O2	O	1.061220	0.099000	0.160659
O3	O	1.172489	0.098993	0.346266
O4	O	1.238784	0.098999	0.069789
O5	O	1.218970	-0.099048	0.322441
O6	O	1.107701	-0.099041	0.136834
O7	O	1.396535	-0.099048	0.231571
Cu8	Cu	1.256362	-0.117128	0.182027
Cu9	Cu	1.201392	0.117079	0.210203
O10	O	1.285266	-0.099042	0.045964
C11	C	1.046737	-0.000020	0.139143
C12	C	0.934332	-0.000017	0.110536
N13	N	1.295032	-0.281856	0.162213
C14	C	0.562472	-0.000028	0.383549
C15	C	0.668084	-0.000038	0.410428
C16	C	0.734651	-0.000032	0.335458
C17	C	0.695596	-0.000017	0.233603
C18	C	0.589977	-0.000016	0.206720
C19	C	0.762155	-0.000021	0.158629
C20	C	0.723101	-0.000006	0.056774
C21	C	0.617491	-0.000004	0.029896
C22	C	0.550924	-0.000010	0.104866
C23	C	0.867775	-0.000022	0.185512
C24	C	0.895279	-0.000011	0.008683
C25	C	0.789668	-0.000000	-0.018197
C26	C	1.069830	-0.655877	0.277607
C27	C	1.040555	-0.531224	0.292597
C28	C	1.104172	-0.468876	0.260002
C29	C	1.197068	-0.531192	0.212415
C30	C	1.226350	-0.655857	0.197430
C31	C	1.260692	-0.468856	0.179825
C32	C	1.353588	-0.531173	0.132238
C33	C	1.382865	-0.655825	0.117255
C34	C	1.319249	-0.718173	0.149850
C35	C	1.231410	-0.344192	0.194810
C36	C	1.387930	-0.344172	0.114633
C37	C	1.417205	-0.468824	0.099642
C38	C	1.411016	-0.000026	0.253088
C39	C	1.523420	-0.000021	0.281695
C40	C	1.184530	-0.000025	0.368994
C41	C	1.151147	-0.000020	0.472208
N42	N	1.162728	0.281807	0.230027
C43	C	1.273224	-0.000021	0.023236
C44	C	1.306605	-0.000019	-0.079977
C45	C	1.410704	-0.000026	0.907665
C46	C	1.442073	-0.000038	0.810690
C47	C	1.369344	-0.000033	0.726066
C48	C	1.265241	-0.000017	0.738424
C49	C	1.233871	-0.000014	0.835407
C50	C	1.192511	-0.000021	0.653808
C51	C	1.088408	-0.000005	0.666166
C52	C	1.057043	-0.000002	0.763140
C53	C	1.129771	-0.000007	0.847765
C54	C	1.223881	-0.000024	0.556825
C55	C	1.047048	-0.000012	0.484567
C56	C	1.015679	0.000000	0.581541
H57	H	0.899562	-0.000033	0.268443
Cl58	Cl	1.356042	-0.874886	0.130996
H59	H	1.394892	-0.000043	0.647106
H60	H	0.820644	-0.000040	0.357349
H61	H	1.018048	-0.706652	0.304149
H62	H	0.949480	-0.000010	-0.052365
Cl63	Cl	0.717175	-0.000062	0.538467
H64	H	0.930916	0.000013	0.591618
H65	H	0.757854	0.000011	-0.101128
Cl66	Cl	1.533985	-0.547179	0.039819
Cl67	Cl	0.568399	0.000000	-0.098152
Cl68	Cl	0.478789	-0.000048	0.477783
Cl69	Cl	0.926174	0.000002	0.778672
H70	H	0.964921	-0.480495	0.331346
Cl71	Cl	0.418144	0.000021	0.071081
H72	H	1.155773	-0.293466	0.233554
H73	H	1.439733	-0.293408	0.088092
H74	H	1.080330	-0.367379	0.272210
Cl75	Cl	1.499657	-0.734163	0.057444
Cl76	Cl	1.354749	-0.000044	0.541300
H77	H	1.469910	-0.000040	0.976570
Cl78	Cl	1.572933	-0.000033	0.795162
H79	H	1.104234	0.000007	0.926733
H80	H	0.987827	-0.000014	0.415662
