data_functionalizedCrystal
_audit_creation_method	'MofGen! by Chris Wilmer'
_symmetry_space_group_name_H-M	'P1'
_symmetry_Int_Tables_number	1
_symmetry_cell_setting	triclinic
loop_
_symmetry_equiv_pos_as_xyz
  x,y,z
_cell_length_a	25.639239
_cell_length_b	16.120566
_cell_length_c	25.639234
_cell_angle_alpha	87.081989
_cell_angle_beta	90.024584
_cell_angle_gamma	92.865350
loop_
_atom_site_label
_atom_site_type_symbol
_atom_site_fract_x
_atom_site_fract_y
_atom_site_fract_z
Zn1	Zn	-0.248762	-1.274427	0.336140
Zn2	Zn	-0.336186	-1.274294	0.248700
Zn3	Zn	-0.244331	-1.135016	0.244284
Zn4	Zn	-0.331727	-1.134940	0.331672
O5	O	-0.290252	-1.204669	0.290199
O6	O	-0.264079	-1.391074	0.328258
O7	O	-0.324013	-1.255794	0.174948
O8	O	-0.171757	-1.153597	0.256491
O9	O	-0.328309	-1.390975	0.264016
O10	O	-0.175012	-1.256022	0.323977
O11	O	-0.256528	-1.153467	0.171704
O12	O	-0.252205	-1.018342	0.252159
O13	O	-0.320710	-1.153468	0.405431
O14	O	-0.316414	-1.018286	0.316363
O15	O	-0.259756	-1.255948	0.408713
O16	O	-0.408757	-1.255720	0.259684
O17	O	-0.405481	-1.153338	0.320644
C18	C	-0.283345	-0.988064	0.283298
C19	C	-0.280403	-0.895400	0.280357
C20	C	-0.275019	-0.725741	0.274994
C21	C	-0.305529	-0.684438	0.305408
C22	C	-0.302534	-0.590034	0.302424
C23	C	-0.278014	-0.820153	0.277978
C24	C	-0.426090	-1.204529	0.290171
C25	C	-0.484204	-1.204545	0.290178
C26	C	-0.846269	-1.258119	0.258519
C27	C	-0.900874	-1.258151	0.258527
O28	O	-0.930553	-1.303556	0.231578
N29	N	-0.926495	-1.204816	0.290238
C30	C	-0.897508	-1.151451	0.321948
O31	O	-0.924315	-1.106088	0.348922
C32	C	-0.842904	-1.151423	0.321942
C33	C	-0.817286	-1.204756	0.290225
C34	C	-0.820650	-1.311448	0.226804
C35	C	-0.766049	-1.311415	0.226796
C36	C	-0.737066	-1.258052	0.258501
C37	C	-0.762684	-1.204723	0.290216
C38	C	-0.813919	-1.098063	0.353654
C39	C	-0.759311	-1.098040	0.353646
C40	C	-0.733692	-1.151373	0.321929
C41	C	-0.679100	-1.151326	0.321913
N42	N	-0.653478	-1.204661	0.290202
C43	C	-0.682461	-1.258024	0.258496
C44	C	-1.012181	-1.151514	0.321958
C45	C	-1.066784	-1.151536	0.321961
C46	C	-1.070146	-1.258238	0.258541
C47	C	-1.015542	-1.258211	0.258535
C48	C	-0.986560	-1.204849	0.290246
C49	C	-0.567794	-1.257949	0.258480
C50	C	-0.513187	-1.257908	0.258472
C51	C	-0.509830	-1.151210	0.321895
C52	C	-0.564432	-1.151247	0.321900
C53	C	-0.593413	-1.204624	0.290191
O54	O	-0.649387	-1.105947	0.348850
O55	O	-0.655648	-1.303387	0.231531
C56	C	-0.153884	-1.204833	0.290240
C57	C	-0.095772	-1.204903	0.290257
C58	C	-0.290230	-1.204715	0.426573
C59	C	-0.290221	-1.204734	0.484688
C60	C	-0.297187	-0.422120	0.297119
C61	C	-0.300147	-0.514785	0.300046
C62	C	-0.290237	-1.204672	0.154357
C63	C	-0.290104	-1.204815	0.096247
C64	C	-0.325318	-1.258037	0.737564
C65	C	-0.325329	-1.258029	0.682959
O66	O	-0.355226	-1.303310	0.656152
N67	N	-0.290196	-1.204752	0.653963
C68	C	-0.255054	-1.151475	0.679573
O69	O	-0.225172	-1.106158	0.649895
C70	C	-0.255046	-1.151480	0.734177
C71	C	-0.290178	-1.204766	0.763171
C72	C	-0.360447	-1.311318	0.766558
C73	C	-0.360435	-1.311328	0.821159
C74	C	-0.325295	-1.258057	0.846766
C75	C	-0.290166	-1.204776	0.817772
C76	C	-0.219907	-1.098199	0.759786
C77	C	-0.219903	-1.098208	0.814394
C78	C	-0.255034	-1.151494	0.843388
C79	C	-0.255015	-1.151514	0.897979
N80	N	-0.290147	-1.204790	0.926976
C81	C	-0.325287	-1.258062	0.901369
C82	C	-0.255074	-1.151467	0.564902
C83	C	-0.255078	-1.151465	0.510300
C84	C	-0.325354	-1.258018	0.513690
C85	C	-0.325346	-1.258023	0.568293
C86	C	-0.290206	-1.204743	0.593899
C87	C	-0.325260	-1.258079	1.016035
C88	C	-0.325244	-1.258086	1.070640
C89	C	-0.254971	-1.151530	1.067246
C90	C	-0.254985	-1.151526	1.012645
C91	C	-0.290134	-1.204803	0.987041
O92	O	-0.225134	-1.106253	0.924822
O93	O	-0.355169	-1.303364	0.931053
H94	H	-0.333899	-0.719978	0.333688
N95	N	-0.237453	-0.678674	0.237524
H96	H	-0.240620	-0.616930	0.240672
H97	H	-0.246025	-0.693813	0.200642
N98	N	-0.485556	-1.315436	0.224263
H99	H	-0.512206	-1.349248	0.204182
H100	H	-0.464092	-1.353982	0.246792
N101	N	-0.599047	-1.315518	0.224281
H102	H	-0.574525	-1.349291	0.204190
H103	H	-0.620658	-1.281621	0.198989
N104	N	-0.738421	-1.368951	0.192594
H105	H	-0.765074	-1.402761	0.172516
H106	H	-0.716962	-1.407498	0.215128
N107	N	-0.363143	-1.315559	1.101907
H108	H	-0.386286	-1.281652	1.123474
H109	H	-0.343090	-1.354217	1.125771
H110	H	-0.191287	-1.054821	0.835239
H111	H	-0.844243	-1.354907	0.200985
H112	H	-0.389065	-1.354699	0.745715
N113	N	-0.987912	-1.315736	0.224328
H114	H	-1.014564	-1.349541	0.204244
H115	H	-0.966452	-1.354288	0.246856
N116	N	-1.101411	-1.315796	0.224342
H117	H	-1.139890	-1.307718	0.229162
H118	H	-1.093722	-1.375325	0.234406
N119	N	-1.094412	-1.093999	0.356161
H120	H	-1.067761	-1.060190	0.376242
H121	H	-1.118112	-1.127918	0.381461
H122	H	-0.988586	-1.108053	0.347779
N123	N	-0.841541	-1.040535	0.387861
H124	H	-0.814887	-1.006733	0.407944
H125	H	-0.865241	-1.074456	0.413160
N126	N	-0.728052	-1.040487	0.387851
H127	H	-0.752571	-1.006709	0.407943
H128	H	-0.704206	-1.001909	0.365319
N129	N	-0.592067	-1.093717	0.356103
H130	H	-0.565419	-1.059905	0.376185
H131	H	-0.615764	-1.127645	0.381402
N132	N	-0.363237	-1.315494	0.599563
H133	H	-0.385497	-1.349239	0.575051
H134	H	-0.386350	-1.281534	0.621125
N135	N	-0.363256	-1.315476	0.486064
H136	H	-0.357978	-1.307292	0.447071
H137	H	-0.400180	-1.302536	0.495239
N138	N	-0.478565	-1.093651	0.356087
H139	H	-0.440087	-1.101729	0.351267
H140	H	-0.488490	-1.106597	0.393849
N141	N	-0.217084	-1.094060	1.094874
H142	H	-0.193931	-1.127959	1.118626
H143	H	-0.237152	-1.055431	1.116253
H144	H	-0.353879	-1.301467	0.995195
N145	N	-0.398330	-1.368795	0.852427
H146	H	-0.420592	-1.402534	0.827912
H147	H	-0.421440	-1.334832	0.873989
H148	H	-0.226465	-1.108084	0.486698
N149	N	-0.217168	-1.094002	0.592518
H150	H	-0.194915	-1.060255	0.565860
H151	H	-0.194050	-1.127967	0.616265
H152	H	-0.191300	-1.054806	0.736188
N153	N	-0.217091	-1.094062	0.981369
H154	H	-0.194827	-1.060319	1.005879
H155	H	-0.237149	-1.055449	0.957480
