data_functionalizedCrystal
_audit_creation_method	'MofGen! by Chris Wilmer'
_symmetry_space_group_name_H-M	'P1'
_symmetry_Int_Tables_number	1
_symmetry_cell_setting	triclinic
loop_
_symmetry_equiv_pos_as_xyz
  x,y,z
_cell_length_a	15.944545
_cell_length_b	15.944551
_cell_length_c	15.072220
_cell_angle_alpha	89.997918
_cell_angle_beta	89.990287
_cell_angle_gamma	83.497455
loop_
_atom_site_label
_atom_site_type_symbol
_atom_site_fract_x
_atom_site_fract_y
_atom_site_fract_z
O1	O	1.114538	0.108301	-0.073727
O2	O	1.614538	0.608301	0.426273
O3	O	0.869987	0.121663	-0.073742
O4	O	1.369987	0.621663	0.426258
O5	O	0.998941	-0.007293	-0.073726
O6	O	1.498941	0.492707	0.426274
O7	O	0.985584	0.237257	-0.073743
O8	O	1.485584	0.737257	0.426257
O9	O	0.998909	-0.007286	0.073839
O10	O	1.498909	0.492714	0.573839
O11	O	0.869956	0.121670	0.073823
O12	O	1.369956	0.621670	0.573823
O13	O	1.114506	0.108309	0.073838
O14	O	1.614506	0.608309	0.573838
Zn15	Zn	0.992226	0.114991	0.097260
Zn16	Zn	1.492226	0.614991	0.597260
Zn17	Zn	0.992268	0.114981	-0.097163
Zn18	Zn	1.492268	0.614981	0.402837
O19	O	0.985553	0.237264	0.073822
O20	O	1.485553	0.737264	0.573822
C21	C	0.838677	0.121113	0.000039
C22	C	1.338677	0.621113	0.500039
C23	C	0.745431	0.119453	0.000034
C24	C	1.245431	0.619453	0.500034
C25	C	0.474798	0.034559	0.000049
C26	C	0.974798	0.534559	0.500049
C27	C	0.525364	0.075491	0.072806
C28	C	1.025364	0.575491	0.572806
C29	C	0.409787	0.113532	0.000049
C30	C	0.909787	0.613532	0.500049
C31	C	0.525376	0.075506	-0.072682
C32	C	1.025376	0.575506	0.427318
C33	C	0.574701	0.116437	0.000040
C34	C	1.074701	0.616437	0.500040
C35	C	0.459125	0.154443	0.072866
C36	C	0.959125	0.654443	0.572866
C37	C	0.459134	0.154446	-0.072687
C38	C	0.959134	0.654446	0.427313
C39	C	0.509667	0.195436	0.000088
C40	C	1.009667	0.695436	0.500088
C41	C	0.314785	0.111856	0.000055
C42	C	0.814785	0.611856	0.500055
C43	C	0.669700	0.118119	0.000041
C44	C	1.169700	0.618119	0.500041
C45	C	0.998370	-0.038583	0.000057
C46	C	1.498370	0.461417	0.500057
C47	C	0.996708	-0.131829	0.000057
C48	C	1.496708	0.368171	0.500057
C49	C	0.912803	-0.346684	0.000040
C50	C	1.412803	0.153316	0.500040
C51	C	0.951750	-0.407699	0.072801
C52	C	1.451750	0.092301	0.572801
C53	C	0.993701	-0.302555	0.000050
C54	C	1.493701	0.197445	0.500050
C55	C	0.951801	-0.407689	-0.072687
C56	C	1.451801	0.092311	0.427313
C57	C	0.990790	-0.467468	0.000040
C58	C	1.490790	0.032532	0.500040
C59	C	1.032670	-0.362341	0.072871
C60	C	1.532670	0.137659	0.572871
C61	C	1.032709	-0.362325	-0.072682
C62	C	1.532709	0.137675	0.427318
C63	C	1.071715	-0.423322	0.000097
C64	C	1.571715	0.076678	0.500097
C65	C	0.995375	-0.207553	0.000057
C66	C	1.495375	0.292447	0.500057
C67	C	0.989122	-0.562469	0.000039
C68	C	1.489122	-0.062469	0.500039
C69	C	1.145816	0.108859	0.000055
C70	C	1.645816	0.608859	0.500055
C71	C	1.239062	0.110519	0.000055
C72	C	1.739062	0.610519	0.500055
C73	C	0.986123	0.268555	0.000038
C74	C	1.486123	0.768555	0.500038
C75	C	0.987785	0.361801	0.000032
C76	C	1.487785	0.861801	0.500032
N77	N	0.992203	0.114996	0.229949
N78	N	1.492203	0.614996	0.729949
N79	N	0.992297	0.114968	-0.229852
N80	N	1.492297	0.614968	0.270148
C81	C	0.992266	0.114978	0.589150
C82	C	1.492266	0.614978	1.089150
C83	C	0.923034	0.183748	0.551535
C84	C	1.423034	0.683748	1.051535
C85	C	0.923193	0.183999	0.448709
C86	C	1.423193	0.683999	0.948709
C87	C	0.992234	0.114987	0.410946
C88	C	1.492234	0.614987	0.910946
C89	C	1.079878	0.134132	0.448241
C90	C	1.579878	0.634132	0.948241
C91	C	1.079490	0.134621	0.551099
C92	C	1.579490	0.634621	1.051099
C93	C	0.974636	0.026858	0.551255
C94	C	1.474636	0.526858	1.051255
C95	C	0.972625	0.027446	0.448392
C96	C	1.472625	0.527446	0.948392
C97	C	0.992222	0.114991	0.310233
C98	C	1.492222	0.614991	0.810233
C99	C	0.992284	0.114976	0.689864
C100	C	1.492284	0.614976	1.189864
H101	H	0.554282	0.042142	0.134320
H102	H	1.054282	0.542142	0.634320
O103	O	1.100064	0.219747	0.582867
O104	O	1.600064	0.719747	1.082867
H105	H	1.158244	0.211409	0.623847
H106	H	1.658244	0.711409	1.123847
H107	H	0.917521	-0.427803	0.134310
H108	H	1.417521	0.072197	0.634310
H109	H	0.430302	0.187774	0.134442
H110	H	0.930302	0.687774	0.634442
H111	H	0.917587	-0.427768	-0.134205
H112	H	1.417587	0.072232	0.365795
O113	O	1.149781	0.070802	0.584064
O114	O	1.649781	0.570802	1.084064
H115	H	1.194250	0.103279	0.624843
H116	H	1.694250	0.603279	1.124843
O117	O	1.149758	0.069556	0.415843
O118	O	1.649758	0.569556	0.915843
H119	H	1.122698	0.023022	0.372709
H120	H	1.622698	0.523022	0.872709
O121	O	1.078044	-0.335659	-0.154139
O122	O	1.578044	0.164341	0.345861
H123	H	1.034637	-0.290681	-0.193445
H124	H	1.534637	0.209319	0.306555
H125	H	0.858045	0.172592	0.423495
H126	H	1.358045	0.672592	0.923495
O127	O	1.077940	-0.335875	0.154446
O128	O	1.577940	0.164125	0.654446
H129	H	1.034322	-0.291438	0.194145
H130	H	1.534322	0.208562	0.694145
O131	O	1.160732	-0.467261	0.000151
O132	O	1.660732	0.032739	0.500151
H133	H	1.194087	-0.449106	0.060606
H134	H	1.694087	0.050894	0.560606
O135	O	1.100945	0.218293	0.414114
O136	O	1.600945	0.718293	0.914114
H137	H	1.160677	0.208986	0.375708
H138	H	1.660677	0.708986	0.875708
H139	H	0.912114	0.008449	0.577243
H140	H	1.412114	0.508449	1.077243
H141	H	0.857676	0.172528	0.576293
H142	H	1.357676	0.672528	1.076293
O143	O	0.937736	0.269886	0.585742
O144	O	1.437736	0.769886	1.085742
H145	H	0.994140	0.263931	0.629416
H146	H	1.494140	0.763931	1.129416
H147	H	0.525158	0.263501	0.000125
H148	H	1.025158	0.763501	0.500125
H149	H	0.934451	0.249391	0.424092
H150	H	1.434451	0.749391	0.924092
O151	O	0.420787	0.198577	-0.154167
O152	O	0.920787	0.698577	0.345833
H153	H	0.447447	0.165648	-0.214475
H154	H	0.947447	0.665648	0.285525
H155	H	0.554307	0.042137	-0.134188
H156	H	1.054307	0.542137	0.365812
O157	O	0.454028	-0.055518	0.000150
O158	O	0.954028	0.444482	0.500150
H159	H	0.481708	-0.088576	-0.059642
H160	H	0.981708	0.411424	0.440358
O161	O	0.887219	0.008196	0.416122
O162	O	1.387219	0.508196	0.916122
H163	H	0.858851	0.060748	0.373585
H164	H	1.358851	0.560748	0.873585
H165	H	0.845655	-0.313375	0.000109
H166	H	1.345655	0.186625	0.500109
H167	H	1.019774	-0.026127	0.422690
H168	H	1.519774	0.473873	0.922690
O169	O	1.041500	-0.040939	0.583481
O170	O	1.541500	0.459061	1.083481
H171	H	1.087075	-0.012070	0.626279
H172	H	1.587075	0.487930	1.126279
