data_functionalizedCrystal
_audit_creation_method	'MofGen! by Chris Wilmer'
_symmetry_space_group_name_H-M	'P1'
_symmetry_Int_Tables_number	1
_symmetry_cell_setting	triclinic
loop_
_symmetry_equiv_pos_as_xyz
  x,y,z
_cell_length_a	17.038272
_cell_length_b	17.000383
_cell_length_c	16.098538
_cell_angle_alpha	92.506243
_cell_angle_beta	87.069734
_cell_angle_gamma	83.355930
loop_
_atom_site_label
_atom_site_type_symbol
_atom_site_fract_x
_atom_site_fract_y
_atom_site_fract_z
O1	O	1.029308	0.168741	-0.069150
O2	O	0.801865	0.166008	-0.069174
O3	O	0.929708	0.052464	-0.069157
O4	O	0.901465	0.282284	-0.069167
O5	O	0.922242	0.059069	0.069354
O6	O	0.794399	0.172612	0.069337
O7	O	1.021842	0.175345	0.069362
Zn8	Zn	0.906935	0.175028	0.091342
Zn9	Zn	0.916772	0.166325	-0.091154
O10	O	0.893999	0.288889	0.069345
C11	C	0.769174	0.166825	0.000078
C12	C	0.682890	0.159412	0.000069
C13	C	0.628115	0.227470	0.000067
C14	C	0.547041	0.220501	0.000079
C15	C	0.520744	0.145472	0.000087
C16	C	0.575525	0.077409	0.000091
C17	C	0.656597	0.084379	0.000086
C18	C	0.276671	0.120848	0.000110
C19	C	0.195592	0.113882	0.000113
C20	C	0.167114	0.256975	0.000102
C21	C	0.248189	0.263938	0.000091
C22	C	0.302963	0.195875	0.000100
C23	C	0.437874	0.138347	0.000096
C24	C	0.385831	0.203002	0.000097
C25	C	0.927491	0.026216	0.000098
C26	C	0.932002	-0.061837	0.000095
C27	C	0.961126	-0.560082	0.000095
C28	C	0.956882	-0.477346	0.000100
C29	C	0.883216	-0.431340	0.000088
C30	C	0.813790	-0.468074	0.000080
C31	C	0.818035	-0.550808	0.000081
C32	C	0.866820	-0.181305	0.000089
C33	C	0.862581	-0.098565	0.000085
C34	C	1.005673	-0.107844	0.000106
C35	C	1.009912	-0.190579	0.000103
C36	C	0.940485	-0.227305	0.000099
C37	C	0.878876	-0.346771	0.000090
C38	C	0.944826	-0.311873	0.000103
C39	C	1.054533	0.174528	0.000107
C40	C	1.140818	0.181941	0.000111
C41	C	0.896216	0.315137	0.000088
C42	C	0.891705	0.403190	0.000085
N43	N	0.900227	0.180966	0.215890
N44	N	0.923486	0.160381	-0.215702
C45	C	0.954506	0.132794	0.259482
C46	C	0.949820	0.136956	0.346670
C47	C	0.890859	0.189296	0.390265
C48	C	0.836575	0.237471	0.346667
C49	C	0.841258	0.233303	0.259480
C50	C	0.873885	0.204388	0.653513
C51	C	0.869207	0.208553	0.740706
C52	C	0.982453	0.108037	0.740703
C53	C	0.987133	0.103878	0.653515
C54	C	0.932846	0.152050	0.609924
C55	C	0.886070	0.193554	0.479385
C56	C	0.937633	0.147788	0.520805
H57	H	0.416452	0.077259	0.000126
Br58	Br	0.092775	0.349341	0.000091
H59	H	0.802591	-0.061109	0.000078
Br60	Br	1.051101	-0.427505	0.000093
H61	H	1.069898	-0.228032	0.000116
H62	H	1.002522	0.090177	0.223993
Br63	Br	0.539837	-0.024416	0.000111
Br64	Br	1.067155	0.032849	0.594350
H65	H	0.174186	0.052782	0.000119
H66	H	1.021113	-0.597535	0.000098
H67	H	0.649518	0.288566	0.000060
H68	H	0.502446	0.275921	0.000076
H69	H	0.818898	-0.309304	0.000077
Br70	Br	0.772599	-0.231137	0.000078
Br71	Br	1.023483	0.071575	0.405834
Br72	Br	0.806051	0.264586	0.538553
Br73	Br	0.713814	-0.405638	0.000071
H74	H	0.321259	0.065426	0.000118
Br75	Br	0.723817	-0.600653	0.000076
Br76	Br	0.730936	-0.007989	0.000096
Br77	Br	1.099889	-0.057997	0.000113
Br78	Br	1.056123	0.042663	0.799865
Br79	Br	0.283872	0.365766	0.000071
H80	H	0.821191	0.251178	0.776196
H81	H	0.407245	0.264090	0.000095
Br82	Br	0.756549	0.308499	0.405827
H83	H	0.797057	0.272530	0.223988
H84	H	1.004804	-0.349334	0.000117
H85	H	0.829683	0.243613	0.618028
H86	H	0.985637	0.105170	0.485308
