data_functionalizedCrystal
_audit_creation_method	'MofGen! by Chris Wilmer'
_symmetry_space_group_name_H-M	'P1'
_symmetry_Int_Tables_number	1
_symmetry_cell_setting	triclinic
loop_
_symmetry_equiv_pos_as_xyz
  x,y,z
_cell_length_a	19.188930
_cell_length_b	10.654550
_cell_length_c	9.730223
_cell_angle_alpha	89.999854
_cell_angle_beta	89.982832
_cell_angle_gamma	83.814856
loop_
_atom_site_label
_atom_site_type_symbol
_atom_site_fract_x
_atom_site_fract_y
_atom_site_fract_z
O1	O	0.927169	0.156779	-0.114720
O2	O	0.723996	0.177885	-0.114624
O3	O	0.830254	-0.015506	-0.114679
O4	O	0.820911	0.350170	-0.114664
O5	O	0.830247	-0.015511	0.113900
O6	O	0.723989	0.177880	0.113956
O7	O	0.927162	0.156774	0.113860
Zn8	Zn	0.825574	0.167326	0.150200
Zn9	Zn	0.825583	0.167333	-0.150964
O10	O	0.820904	0.350165	0.113916
C11	C	0.697977	0.177199	-0.000322
C12	C	0.620459	0.175147	-0.000286
C13	C	0.829564	-0.062292	-0.000394
C14	C	0.827512	-0.201692	-0.000406
N15	N	0.825573	0.167321	0.355737
C16	C	0.576277	0.288622	-0.000302
C17	C	0.503441	0.286695	-0.000318
C18	C	0.474789	0.171286	-0.000344
C19	C	0.518981	0.057795	-0.000319
C20	C	0.591816	0.059726	-0.000290
N21	N	0.366235	0.083071	-0.078198
N22	N	0.297044	0.081245	-0.078229
C23	C	0.255343	0.165461	-0.000428
N24	N	0.285444	0.251593	0.077387
N25	N	0.354641	0.253423	0.077412
C26	C	0.395813	0.169179	-0.000374
C27	C	0.132183	0.276855	-0.000459
C28	C	0.059345	0.274922	-0.000466
C29	C	0.074887	0.046020	-0.000481
C30	C	0.147723	0.047955	-0.000461
C31	C	0.176366	0.163376	-0.000456
C32	C	0.953181	0.157460	-0.000445
C33	C	1.030699	0.159512	-0.000490
C34	C	0.821594	0.396951	-0.000373
C35	C	0.823646	0.536351	-0.000370
C36	C	0.761083	0.617160	-0.000343
C37	C	0.763016	0.748140	-0.000366
C38	C	0.890080	0.717488	-0.000436
C39	C	0.888146	0.586511	-0.000423
N40	N	0.825590	0.167328	-0.356500
C41	C	0.872640	0.081723	0.427638
C42	C	0.872647	0.081723	0.571521
C43	C	0.778518	0.252930	0.571589
C44	C	0.778508	0.252923	0.427708
H45	H	0.467461	0.379103	-0.000327
N46	N	0.959645	0.771590	-0.000465
H47	H	0.951378	0.866827	-0.000457
H48	H	0.987040	0.742001	0.084268
N49	N	0.695533	0.835288	-0.000324
H50	H	0.693503	0.890321	0.084406
H51	H	0.693537	0.890224	-0.085120
N52	N	0.955628	0.499340	-0.000456
H53	H	0.996782	0.550988	-0.000481
H54	H	0.957590	0.444335	0.084284
H55	H	0.910963	0.012019	0.369042
H56	H	0.910973	0.012021	0.630059
N57	N	0.607168	0.413109	-0.000266
H58	H	0.660014	0.397118	-0.000242
H59	H	0.591067	0.462754	-0.085004
H60	H	0.740199	0.322627	0.630202
N61	N	0.727735	0.345240	0.350145
H62	H	0.697923	0.399474	0.417569
H63	H	0.754721	0.400638	0.290414
H64	H	0.495648	-0.036172	-0.000359
N65	N	0.043996	-0.078461	-0.000494
H66	H	-0.008850	-0.062468	-0.000510
H67	H	0.060139	-0.128102	-0.085228
N68	N	0.639469	-0.062676	-0.000270
H69	H	0.630211	-0.113048	-0.085010
H70	H	0.689937	-0.043841	-0.000199
H71	H	0.023373	0.367332	-0.000471
H72	H	0.155505	0.370837	-0.000435
H73	H	0.183697	-0.044449	-0.000455
H74	H	0.708563	0.576325	-0.000295
