data_functionalizedCrystal
_audit_creation_method	'MofGen! by Chris Wilmer'
_symmetry_space_group_name_H-M	'P1'
_symmetry_Int_Tables_number	1
_symmetry_cell_setting	triclinic
loop_
_symmetry_equiv_pos_as_xyz
  x,y,z
_cell_length_a	10.723023
_cell_length_b	12.811415
_cell_length_c	9.798715
_cell_angle_alpha	84.565994
_cell_angle_beta	89.996770
_cell_angle_gamma	84.254534
loop_
_atom_site_label
_atom_site_type_symbol
_atom_site_fract_x
_atom_site_fract_y
_atom_site_fract_z
O1	O	1.656454	0.147212	-0.131694
O2	O	1.293232	0.161304	-0.133443
O3	O	1.483981	0.001531	-0.113660
O4	O	1.465706	0.306985	-0.151477
O5	O	1.483966	0.001531	0.113322
O6	O	1.293218	0.161304	0.093539
O7	O	1.656440	0.147211	0.095288
Zn8	Zn	1.474827	0.154257	0.130452
Zn9	Zn	1.474845	0.154258	-0.168607
O10	O	1.465691	0.306984	0.075506
C11	C	1.246730	0.160279	-0.019826
C12	C	1.108191	0.157211	-0.019448
C13	C	1.046418	0.155843	0.098303
C14	C	0.903231	0.152672	0.098696
C15	C	1.482949	-0.037580	0.004670
C16	C	1.479882	-0.154120	0.019089
C17	C	1.474112	-0.373100	-0.201300
C18	C	1.471230	-0.482600	-0.187758
C19	C	1.471228	-0.482621	0.059713
C20	C	1.474110	-0.373121	0.046171
C21	C	1.475553	-0.318365	-0.084339
C22	C	1.478444	-0.208864	-0.097880
C23	C	1.478433	-0.208886	0.149590
C24	C	1.475551	-0.318386	0.163132
C25	C	1.702942	0.148237	-0.018332
C26	C	1.841481	0.151305	-0.018718
C27	C	1.466723	0.346096	-0.042828
C28	C	1.469790	0.462636	-0.057256
N29	N	1.474823	0.154257	0.334552
N30	N	1.474859	0.154251	-0.372706
C31	C	1.554915	0.086877	0.410672
C32	C	1.554935	0.086873	0.567835
H33	H	0.894595	0.152487	-0.119537
N34	N	1.479998	-0.149853	0.275752
H35	H	1.482048	-0.072176	0.247374
H36	H	1.402231	-0.161041	0.331175
N37	N	1.474009	-0.377452	0.303888
H38	H	1.475364	-0.326159	0.375927
H39	H	1.395549	-0.414933	0.313925
N40	N	0.832700	0.150989	0.232133
H41	H	0.845340	0.216399	0.278328
H42	H	0.740462	0.148868	0.213134
H43	H	1.623466	0.029188	0.359492
N44	N	1.037837	0.155644	-0.152602
H45	H	0.974044	0.219400	-0.165937
H46	H	1.098814	0.156953	-0.231158
H47	H	1.479624	-0.164283	-0.204148
H48	H	1.623509	0.029190	0.633262
N49	N	1.475689	-0.314034	-0.342054
H50	H	1.474345	-0.365326	-0.414096
H51	H	1.399621	-0.260648	-0.354051
N52	N	1.469726	-0.541643	-0.313906
H53	H	1.471096	-0.490337	-0.398633
H54	H	1.545814	-0.595010	-0.312658
H55	H	1.470042	-0.527221	0.165968
N56	N	1.384018	0.230674	0.540658
H57	H	1.432150	0.277350	0.475584
H58	H	1.328476	0.190164	0.486478
N59	N	1.116766	0.157397	0.231464
H60	H	1.209083	0.159442	0.212308
H61	H	1.084295	0.221852	0.277544
N62	N	1.384009	0.230665	0.402341
H63	H	1.398985	0.305237	0.368314
H64	H	1.295335	0.218031	0.379095
