data_functionalizedCrystal
_audit_creation_method	'MofGen! by Chris Wilmer'
_symmetry_space_group_name_H-M	'P1'
_symmetry_Int_Tables_number	1
_symmetry_cell_setting	triclinic
loop_
_symmetry_equiv_pos_as_xyz
  x,y,z
_cell_length_a	22.863218
_cell_length_b	22.862586
_cell_length_c	22.858745
_cell_angle_alpha	60.006856
_cell_angle_beta	60.013818
_cell_angle_gamma	59.991795
loop_
_atom_site_label
_atom_site_type_symbol
_atom_site_fract_x
_atom_site_fract_y
_atom_site_fract_z
O1	O	0.081006	-0.854581	0.714630
O2	O	0.030492	-0.665350	0.575795
O3	O	0.150314	-0.785089	0.575706
O4	O	-0.038816	-0.734841	0.714718
O5	O	0.190066	-0.745348	0.615369
O6	O	0.070244	-0.625609	0.615458
O7	O	0.120758	-0.814840	0.754293
Zn8	Zn	0.101812	-0.713914	0.691173
Zn9	Zn	0.049438	-0.766275	0.638915
O10	O	0.000936	-0.695100	0.754381
N11	N	0.137558	-0.678184	0.726840
N12	N	0.013698	-0.802011	0.603247
C13	C	0.187224	-0.518558	0.776483
C14	C	0.187235	-0.628552	0.776467
C15	C	0.214753	-0.601061	0.803961
C16	C	0.334724	-0.580392	0.740801
C17	C	0.409718	-0.605392	0.715784
C18	C	0.409746	-0.726732	0.762051
C19	C	0.334754	-0.701730	0.787070
C20	C	0.205297	-0.481049	0.702756
C21	C	0.180267	-0.406048	0.677779
C22	C	0.119099	-0.406071	0.800259
C23	C	0.144128	-0.481071	0.825236
C24	C	0.113501	-0.610437	0.794610
C25	C	0.088492	-0.635428	0.769607
C26	C	0.210943	-0.696652	0.708337
C27	C	0.235956	-0.671660	0.733331
C28	C	0.113585	-0.610461	0.923980
C29	C	0.088635	-0.635476	0.998978
C30	C	0.211128	-0.696714	0.998930
C31	C	0.236077	-0.671700	0.923930
C32	C	0.187303	-0.628571	0.886457
C33	C	0.297246	-0.628559	0.776441
C34	C	-0.117796	-0.823430	0.581283
C35	C	-0.007671	-0.823587	0.471446
C36	C	-0.007879	-0.933535	0.581483
C37	C	-0.007861	-0.823583	0.581554
C38	C	-0.035301	-0.851035	0.553942
N39	N	0.446162	-0.678198	0.726752
O40	O	0.691234	-0.690164	0.550341
O41	O	0.691462	-0.829422	0.739388
O42	O	0.691373	-0.829102	0.619485
O43	O	0.691323	-0.690484	0.670244
O44	O	0.572233	-0.789455	0.659278
O45	O	0.572322	-0.789775	0.779181
O46	O	0.572094	-0.650517	0.590134
Zn47	Zn	0.553292	-0.713851	0.690976
Zn48	Zn	0.710264	-0.766088	0.638547
O49	O	0.572183	-0.650837	0.710037
N50	N	0.817394	-0.801741	0.602763
N51	N	0.137538	-0.369628	0.726874
O52	O	-0.038795	-0.124419	0.714761
O53	O	0.150256	-0.124417	0.575522
O54	O	0.030331	-0.124432	0.575860
O55	O	0.081131	-0.124404	0.714423
O56	O	0.070086	-0.243584	0.615573
O57	O	0.190011	-0.243569	0.615236
O58	O	0.000960	-0.243571	0.754474
Zn59	Zn	0.101797	-0.262488	0.691160
Zn60	Zn	0.049419	-0.105500	0.638836
O61	O	0.120885	-0.243556	0.754137
N62	N	0.013669	0.001640	0.603123
N63	N	0.137749	-0.678230	1.035381
O64	O	0.125655	-0.854547	1.280566
O65	O	-0.013567	-0.665426	1.280590
O66	O	-0.013245	-0.785328	1.280537
O67	O	0.125333	-0.734644	1.280618
O68	O	0.026456	-0.745599	1.161392
O69	O	0.026134	-0.625697	1.161444
O70	O	0.165355	-0.814817	1.161420
Zn71	Zn	0.102048	-0.713949	1.142516
Zn72	Zn	0.049740	-0.766294	1.299495
O73	O	0.165033	-0.694915	1.161473
N74	N	0.014038	-0.802020	1.406629
C75	C	0.045634	-0.621635	0.576499
C76	C	0.194019	-0.769918	0.576389
C77	C	0.105616	-0.858555	0.753588
C78	C	-0.042769	-0.710272	0.753698
C79	C	0.631920	-0.828776	0.783102
C80	C	0.631811	-0.828380	0.634616
C81	C	0.631633	-0.651162	0.546422
C82	C	0.631745	-0.651559	0.694907
C83	C	0.193900	-0.183846	0.576155
C84	C	0.045437	-0.184012	0.576622
C85	C	-0.042734	-0.183994	0.753792
C86	C	0.105780	-0.183977	0.753375
C87	C	-0.012889	-0.621735	1.221020
C88	C	-0.012483	-0.770211	1.220931
C89	C	0.164678	-0.858508	1.220991
C90	C	0.164280	-0.710023	1.221052
H91	H	0.028603	-0.620718	1.029520
H92	H	0.631558	-0.607440	0.492131
H93	H	-0.056000	-0.781036	1.220859
O94	O	0.216204	-0.697170	1.221196
C95	C	0.294396	-0.731678	1.282918
C96	C	0.235583	-0.746300	1.282854
H97	H	0.310092	-0.771400	1.332755
H98	H	0.273414	-0.674770	1.282978
H99	H	0.343260	-0.738065	1.233033
H100	H	0.186699	-0.739952	1.332730
H101	H	0.256622	-0.803202	1.282757
H102	H	-0.097027	-0.183996	0.797505
H103	H	0.631735	-0.608016	0.705768
H104	H	0.116407	-0.912913	0.797192
H105	H	0.248082	-0.183515	0.532333
H106	H	0.631832	-0.871926	0.623751
O107	O	0.066106	-0.568598	0.887691
C108	C	-0.058025	-0.510460	0.895655
C109	C	-0.004339	-0.557884	0.936842
H110	H	-0.114991	-0.501771	0.935376
H111	H	-0.049459	-0.537924	0.860561
H112	H	-0.049363	-0.456530	0.860529
H113	H	-0.012968	-0.611822	0.972007
H114	H	-0.012918	-0.530364	0.971891
H115	H	0.116656	-0.183968	0.796904
H116	H	0.250848	-0.731818	1.029432
O117	O	-0.064969	-0.556909	1.221058
C118	C	-0.098259	-0.438877	1.221050
C119	C	-0.039222	-0.512265	1.221024
H120	H	-0.077459	-0.402757	1.221007
H121	H	-0.147116	-0.446352	1.270915
H122	H	-0.113895	-0.413176	1.171190
H123	H	-0.023525	-0.538007	1.270850
H124	H	0.009597	-0.504743	1.171126
H125	H	0.208389	-0.912821	1.220975
H126	H	0.631977	-0.872492	0.837399
O127	O	0.298378	-0.748534	0.821574
C128	C	0.275459	-0.836720	0.814905
C129	C	0.316685	-0.783730	0.775739
H130	H	0.290257	-0.865201	0.777870
H131	H	0.215407	-0.806316	0.830942
H132	H	0.290231	-0.877912	0.864926
H133	H	0.301974	-0.742526	0.725692
H134	H	0.376727	-0.814184	0.759756
O135	O	0.307715	-0.689338	0.887593
C136	C	0.426577	-0.752755	0.895464
C137	C	0.345469	-0.732820	0.936702
H138	H	0.457125	-0.787925	0.935150
H139	H	0.441360	-0.701886	0.860375
H140	H	0.441292	-0.783253	0.860327
H141	H	0.330696	-0.702340	0.971878
H142	H	0.330730	-0.783715	0.971745
O143	O	0.032367	-0.184073	0.524784
C144	C	-0.052768	-0.184092	0.492038
C145	C	-0.038061	-0.184025	0.550808
H146	H	-0.109713	-0.184038	0.513052
H147	H	-0.013147	-0.233981	0.476404
H148	H	-0.046344	-0.134251	0.443124
H149	H	-0.044495	-0.233833	0.599761
H150	H	-0.077680	-0.134104	0.566381
O151	O	-0.107512	-0.697554	0.805868
C152	C	-0.171536	-0.691070	0.925254
C153	C	-0.098169	-0.705506	0.866238
H154	H	-0.164009	-0.697478	0.974072
H155	H	-0.197316	-0.730813	0.940974
H156	H	-0.207609	-0.634174	0.904379
H157	H	-0.062041	-0.762381	0.887063
H158	H	-0.072446	-0.665718	0.850526
O159	O	0.016843	-0.617799	0.787325
C160	C	-0.101979	-0.554421	0.850718
C161	C	-0.020859	-0.574342	0.830718
H162	H	-0.132485	-0.519270	0.885791
H163	H	-0.116751	-0.605297	0.881287
H164	H	-0.116756	-0.523906	0.799831
H165	H	-0.006024	-0.604839	0.881568
H166	H	-0.006131	-0.523440	0.800121
H167	H	0.073825	-0.575337	0.829731
H168	H	0.034845	-0.567275	0.532897
H169	H	0.250621	-0.731757	0.673222
H170	H	0.295996	-0.686402	0.718551
H171	H	0.440232	-0.566167	0.686761
O172	O	0.298370	-0.509286	0.730351
C173	C	0.275337	-0.390030	0.644580
C174	C	0.316567	-0.470535	0.656313
H175	H	0.290023	-0.358678	0.584722
H176	H	0.290116	-0.371364	0.671722
H177	H	0.215302	-0.380453	0.668617
H178	H	0.376611	-0.480173	0.632274
H179	H	0.301729	-0.489161	0.629187
O180	O	0.247122	-0.517353	0.655304
C181	C	0.305171	-0.509414	0.531182
C182	C	0.257786	-0.468211	0.584846
H183	H	0.313820	-0.469700	0.474205
H184	H	0.277703	-0.544507	0.539778
H185	H	0.359115	-0.544546	0.539841
H186	H	0.203834	-0.433040	0.576219
H187	H	0.285310	-0.433163	0.576236
H188	H	0.440287	-0.786313	0.770693
H189	H	0.194981	-0.375507	0.617742
H190	H	0.084019	-0.375548	0.839959
H191	H	0.248339	-0.780632	0.532734
O192	O	0.126534	-0.517402	0.896882
C193	C	0.063183	-0.509514	1.015733
C194	C	0.083070	-0.468282	0.934616
H195	H	0.028028	-0.469819	1.046264
H196	H	0.114066	-0.544608	1.030520
H197	H	0.032690	-0.544647	1.030465
H198	H	0.113545	-0.433110	0.919825
H199	H	0.032161	-0.433233	0.919872
