data_functionalizedCrystal
_audit_creation_method	'MofGen! by Chris Wilmer'
_symmetry_space_group_name_H-M	'P1'
_symmetry_Int_Tables_number	1
_symmetry_cell_setting	triclinic
loop_
_symmetry_equiv_pos_as_xyz
  x,y,z
_cell_length_a	16.959455
_cell_length_b	16.959454
_cell_length_c	16.959447
_cell_angle_alpha	89.973182
_cell_angle_beta	90.026267
_cell_angle_gamma	89.984932
loop_
_atom_site_label
_atom_site_type_symbol
_atom_site_fract_x
_atom_site_fract_y
_atom_site_fract_z
Zn1	Zn	-1.208404	-0.314771	-0.447125
Zn2	Zn	-0.708404	0.185229	0.052875
Zn3	Zn	-1.208321	-0.446963	-0.314955
Zn4	Zn	-0.708321	0.053037	0.185045
Zn5	Zn	-1.076227	-0.314791	-0.314941
Zn6	Zn	-0.576227	0.185209	0.185059
Zn7	Zn	-1.076197	-0.446900	-0.447072
Zn8	Zn	-0.576197	0.053100	0.052928
O9	O	-1.142287	-0.380856	-0.381023
O10	O	-0.642287	0.119144	0.118977
O11	O	-1.319004	-0.332325	-0.429620
O12	O	-0.819004	0.167675	0.070380
O13	O	-1.190775	-0.429466	-0.204342
O14	O	-0.690775	0.070534	0.295658
O15	O	-1.093808	-0.204178	-0.332492
O16	O	-0.593808	0.295822	0.167508
O17	O	-1.318943	-0.429446	-0.332515
O18	O	-0.818943	0.070554	0.167485
O19	O	-1.190918	-0.204163	-0.429607
O20	O	-0.690918	0.295837	0.070393
O21	O	-1.093727	-0.332359	-0.204332
O22	O	-0.593727	0.167641	0.295668
O23	O	-0.965612	-0.332298	-0.332440
O24	O	-0.465612	0.167702	0.167560
O25	O	-1.093758	-0.429337	-0.557690
O26	O	-0.593758	0.070663	-0.057690
O27	O	-0.965590	-0.429357	-0.429516
O28	O	-0.465590	0.070643	0.070484
O29	O	-1.190889	-0.332263	-0.557729
O30	O	-0.690889	0.167737	-0.057729
O31	O	-1.190747	-0.557566	-0.332464
O32	O	-0.690747	-0.057566	0.167536
O33	O	-1.093677	-0.557519	-0.429530
O34	O	-0.593677	-0.057519	0.070470
C35	C	-0.936921	-0.380823	-0.380972
C36	C	-0.436921	0.119177	0.119028
C37	C	-0.849064	-0.380828	-0.380968
C38	C	-0.349064	0.119172	0.119032
C39	C	-0.477546	-0.431354	-0.330397
C40	C	0.022454	0.068646	0.169603
C41	C	-0.477631	-0.330377	-0.431670
C42	C	0.022369	0.169623	0.068330
C43	C	-0.560177	-0.330367	-0.431655
C44	C	-0.060177	0.169633	0.068345
C45	C	-0.601411	-0.380852	-0.381012
C46	C	-0.101411	0.119148	0.118988
C47	C	-0.560100	-0.431347	-0.330382
C48	C	-0.060100	0.068653	0.169618
C49	C	-0.601495	-0.279879	-0.482289
C50	C	-0.101495	0.220121	0.017711
C51	C	-0.684046	-0.279868	-0.482277
C52	C	-0.184046	0.220132	0.017723
C53	C	-0.725282	-0.330349	-0.431629
C54	C	-0.225282	0.169651	0.068371
C55	C	-0.683965	-0.380845	-0.380997
C56	C	-0.183965	0.119155	0.119003
C57	C	-0.725199	-0.431330	-0.330354
C58	C	-0.225199	0.068670	0.169646
C59	C	-0.683884	-0.481823	-0.279717
C60	C	-0.183884	0.018177	0.220283
C61	C	-0.601335	-0.481828	-0.279734
C62	C	-0.101335	0.018172	0.220266
C63	C	-0.807830	-0.330343	-0.431612
C64	C	-0.307830	0.169657	0.068388
C65	C	-0.807753	-0.431323	-0.330339
C66	C	-0.307753	0.068677	0.169661
C67	C	-1.142221	-0.586223	-0.381010
C68	C	-0.642221	-0.086223	0.118990
C69	C	-1.142265	-0.674079	-0.381030
C70	C	-0.642265	-0.174079	0.118970
C71	C	-0.348455	-0.380881	-0.381061
C72	C	0.151545	0.119119	0.118939
C73	C	-0.436312	-0.380869	-0.381040
C74	C	0.063688	0.119131	0.118960
C75	C	-1.091816	-1.045560	-0.431560
C76	C	-0.591816	-0.545560	0.068440
C77	C	-1.192979	-1.045549	-0.330567
C78	C	-0.692979	-0.545549	0.169433
C79	C	-1.192951	-0.963003	-0.330560
C80	C	-0.692951	-0.463003	0.169440
C81	C	-1.142354	-0.921732	-0.381052
C82	C	-0.642354	-0.421732	0.118948
C83	C	-1.091785	-0.963007	-0.431553
C84	C	-0.591785	-0.463007	0.068447
C85	C	-1.243514	-0.921722	-0.280055
C86	C	-0.743514	-0.421722	0.219945
C87	C	-1.243487	-0.839171	-0.280045
C88	C	-0.743487	-0.339171	0.219955
C89	C	-1.192894	-0.797899	-0.330542
C90	C	-0.692894	-0.297899	0.169458
C91	C	-1.142324	-0.839179	-0.381045
C92	C	-0.642324	-0.339179	0.118955
C93	C	-1.091727	-0.797907	-0.431538
C94	C	-0.591727	-0.297907	0.068462
C95	C	-1.041160	-0.839186	-0.482045
C96	C	-0.541160	-0.339186	0.017955
C97	C	-1.041192	-0.921734	-0.482050
C98	C	-0.541192	-0.421734	0.017950
C99	C	-1.192862	-0.715350	-0.330538
C100	C	-0.692862	-0.215350	0.169462
C101	C	-1.091696	-0.715354	-0.431530
C102	C	-0.591696	-0.215354	0.068470
C103	C	-1.142330	-0.380791	-0.587191
C104	C	-0.642330	0.119209	-0.087191
C105	C	-1.142348	-0.380763	-0.675048
C106	C	-0.642348	0.119237	-0.175048
C107	C	-1.142375	-0.174688	-0.381054
C108	C	-0.642375	0.325312	0.118946
C109	C	-1.142413	-0.086831	-0.381067
C110	C	-0.642413	0.413169	0.118933
C111	C	-1.091888	-0.330121	-1.046525
C112	C	-0.591888	0.169879	-0.546525
C113	C	-1.192946	-0.431238	-1.046523
C114	C	-0.692946	0.068762	-0.546523
C115	C	-1.192932	-0.431257	-0.963977
C116	C	-0.692932	0.068743	-0.463977
C117	C	-1.142395	-0.380707	-0.922701
C118	C	-0.642395	0.119293	-0.422701
C119	C	-1.091871	-0.330139	-0.963971
C120	C	-0.591871	0.169861	-0.463971
C121	C	-1.243450	-0.481829	-0.922701
C122	C	-0.743450	0.018171	-0.422701
C123	C	-1.243437	-0.481850	-0.840150
C124	C	-0.743437	0.018150	-0.340150
C125	C	-1.192903	-0.431296	-0.798872
C126	C	-0.692903	0.068704	-0.298872
C127	C	-1.142378	-0.380726	-0.840148
C128	C	-0.642378	0.119274	-0.340148
C129	C	-1.091841	-0.330176	-0.798872
C130	C	-0.591841	0.169824	-0.298872
C131	C	-1.041319	-0.279601	-0.840146
C132	C	-0.541319	0.220399	-0.340146
C133	C	-1.041338	-0.279585	-0.922694
C134	C	-0.541338	0.220415	-0.422694
C135	C	-1.192885	-0.431312	-0.716324
C136	C	-0.692885	0.068688	-0.216324
C137	C	-1.091824	-0.330195	-0.716318
C138	C	-0.591824	0.169805	-0.216318
C139	C	-1.142291	-0.380865	-0.175657
C140	C	-0.642291	0.119135	0.324343
C141	C	-1.142426	-0.380670	-0.087801
C142	C	-0.642426	0.119330	0.412199
H143	H	-0.443904	-0.472462	-0.289168
H144	H	0.056096	0.027538	0.210832
H145	H	-1.284662	-0.805568	-0.238920
H146	H	-0.784662	-0.305568	0.261080
Br147	Br	-1.312180	-0.977736	-0.211537
Br148	Br	-0.812180	-0.477736	0.288463
Br149	Br	-1.261471	-0.659333	-0.261987
Br150	Br	-0.761471	-0.159333	0.238013
Br151	Br	-1.023240	-0.261581	-0.660307
Br152	Br	-0.523240	0.238419	-0.160307
Br153	Br	-0.972735	-0.211001	-0.784119
Br154	Br	-0.472735	0.288999	-0.284119
H155	H	-1.050648	-1.079173	-0.472684
H156	H	-0.550648	-0.579173	0.027316
Br157	Br	-0.863898	-0.261830	-0.500333
Br158	Br	-0.363898	0.238170	-0.000333
H159	H	-1.234168	-1.079157	-0.289453
H160	H	-0.734168	-0.579157	0.210547
H161	H	-1.000204	-0.238410	-0.956306
H162	H	-0.500204	0.261590	-0.456306
H163	H	-1.050757	-0.288941	-1.080134
H164	H	-0.550757	0.211059	-0.580134
Br165	Br	-1.023032	-0.659349	-0.500067
Br166	Br	-0.523032	-0.159349	-0.000067
H167	H	-1.000022	-0.955350	-0.523169
H168	H	-0.500022	-0.455350	-0.023169
Br169	Br	-0.545532	-0.211382	-0.551029
Br170	Br	-0.045532	0.288618	-0.051029
H171	H	-1.234085	-0.472399	-1.080135
H172	H	-0.734085	0.027601	-0.580135
Br173	Br	-1.312021	-0.550439	-0.978720
Br174	Br	-0.812021	-0.050439	-0.478720
Br175	Br	-1.312003	-0.550484	-0.784142
Br176	Br	-0.812003	-0.050484	-0.284142
Br177	Br	-1.261436	-0.499952	-0.660312
Br178	Br	-0.761436	0.000048	-0.160312
H179	H	-0.717467	-0.522932	-0.238487
H180	H	-0.217467	-0.022932	0.261513
Br181	Br	-0.863707	-0.499835	-0.261598
Br182	Br	-0.363707	0.000165	0.238402
H183	H	-0.567689	-0.522936	-0.238508
H184	H	-0.067689	-0.022936	0.261492
Br185	Br	-0.421671	-0.261877	-0.500408
Br186	Br	0.078329	0.238123	-0.000408
H187	H	-0.717678	-0.238753	-0.523508
H188	H	-0.217678	0.261247	-0.023508
H189	H	-0.999960	-0.805573	-0.523153
H190	H	-0.499960	-0.305573	-0.023153
