data_functionalizedCrystal
_audit_creation_method	'MofGen! by Chris Wilmer'
_symmetry_space_group_name_H-M	'P1'
_symmetry_Int_Tables_number	1
_symmetry_cell_setting	triclinic
loop_
_symmetry_equiv_pos_as_xyz
  x,y,z
_cell_length_a	10.654549
_cell_length_b	10.654555
_cell_length_c	9.130313
_cell_angle_alpha	90.001373
_cell_angle_beta	89.996706
_cell_angle_gamma	95.514124
loop_
_atom_site_label
_atom_site_type_symbol
_atom_site_fract_x
_atom_site_fract_y
_atom_site_fract_z
O1	O	0.176428	-1.667837	-0.121707
O2	O	0.193228	-1.302359	-0.121729
O3	O	0.002089	-1.493501	-0.121711
O4	O	0.367567	-1.476694	-0.121725
O5	O	0.002084	-1.493486	0.121887
O6	O	0.193223	-1.302344	0.121870
O7	O	0.176424	-1.667821	0.121892
Cu8	Cu	0.184823	-1.485081	0.144123
Cu9	Cu	0.184828	-1.485099	-0.143961
O10	O	0.367563	-1.476679	0.121874
C11	C	0.191991	-1.255553	0.000067
C12	C	0.188296	-1.116110	0.000059
C13	C	0.183097	-0.919573	-0.132719
C14	C	0.186561	-1.050596	-0.132726
C15	C	0.186555	-1.050598	0.132859
C16	C	0.183083	-0.919579	0.132864
C17	C	-0.044711	-1.492259	0.000086
C18	C	-0.184155	-1.488568	0.000082
C19	C	-0.394668	-1.597631	0.000078
C20	C	-0.263647	-1.601109	0.000090
C21	C	-0.235689	-1.372540	0.000076
C22	C	-0.366708	-1.369063	0.000075
C23	C	0.414363	-1.477921	0.000073
C24	C	0.553806	-1.481613	0.000068
N25	N	0.184818	-1.485078	0.346746
C26	C	0.177662	-0.714627	0.000087
C27	C	0.181360	-0.854069	0.000071
C28	C	0.100218	-1.569744	0.423406
C29	C	0.100219	-1.569755	0.576742
C30	C	0.269431	-1.400429	0.576746
C31	C	0.269423	-1.400414	0.423412
N32	N	0.184827	-1.485104	0.653417
H33	H	0.187973	-1.103923	-0.240857
H34	H	-0.459382	-1.689276	0.000073
H35	H	-0.221701	-1.695583	0.000100
F36	F	-0.151084	-1.252765	0.000075
F37	F	0.188399	-1.120328	0.274179
F38	F	0.010171	-1.659848	0.341817
H39	H	0.338315	-1.331462	0.360992
H40	H	0.181693	-0.866239	-0.240848
H41	H	0.031329	-1.638696	0.639155
H42	H	-0.408659	-1.274582	0.000074
H43	H	0.338317	-1.331499	0.639184
H44	H	0.181667	-0.866244	0.241004
