data_functionalizedCrystal
_audit_creation_method	'MofGen! by Chris Wilmer'
_symmetry_space_group_name_H-M	'P1'
_symmetry_Int_Tables_number	1
_symmetry_cell_setting	triclinic
loop_
_symmetry_equiv_pos_as_xyz
  x,y,z
_cell_length_a	6.817900
_cell_length_b	11.102285
_cell_length_c	16.305550
_cell_angle_alpha	93.873788
_cell_angle_beta	103.455250
_cell_angle_gamma	108.605686
loop_
_atom_site_label
_atom_site_type_symbol
_atom_site_fract_x
_atom_site_fract_y
_atom_site_fract_z
V1	V	-4.052588	-0.176913	-0.263036
O2	O	-4.012740	0.007398	-0.258024
O3	O	-4.029771	-0.349727	-0.261241
O4	O	-4.003661	-0.174676	-0.377753
O5	O	-4.039030	-0.168865	-0.140706
V6	V	-4.532969	-0.154810	-0.248403
O7	O	-4.320738	-0.225397	-0.295132
O8	O	-4.715016	-0.106325	-0.216307
O9	O	-4.332580	0.018004	-0.250198
O10	O	-4.690214	-0.339120	-0.253415
O11	O	-4.663924	-0.162857	-0.370733
O12	O	-4.358690	-0.157047	-0.133686
C13	C	-3.881012	-0.391840	-0.257092
C14	C	-3.943640	-0.533121	-0.256390
C15	C	-4.015920	-0.617962	-0.333312
C16	C	-4.074740	-0.750708	-0.332644
C17	C	-3.988998	-0.713757	-0.178124
C18	C	-3.930166	-0.581013	-0.178792
C19	C	-4.088978	-0.950143	-0.421844
C20	C	-4.161297	-1.034992	-0.498771
C21	C	-4.297737	-1.012395	-0.569906
C22	C	-4.361909	-0.904954	-0.564117
C23	C	-4.289610	-0.820112	-0.487188
C24	C	-4.153124	-0.842706	-0.416056
C25	C	-3.915947	-0.381578	-0.089599
C26	C	-3.843661	-0.296734	-0.012670
C27	C	-3.707228	-0.319327	0.058472
C28	C	-3.643083	-0.426772	0.052691
C29	C	-3.715369	-0.511616	-0.024239
C30	C	-3.851794	-0.489013	-0.095380
C31	C	-3.847705	-0.168543	-0.405714
C32	C	-3.889155	-0.167858	-0.499495
C33	C	-4.039846	-0.165202	-0.840241
C34	C	-3.802624	-0.157315	-0.799312
C35	C	-3.759615	-0.158555	-0.701817
C36	C	-3.965085	-0.166519	-0.671193
C37	C	-4.150807	-0.292035	-0.721823
C38	C	-4.192565	-0.291325	-0.819372
C39	C	-4.077236	-0.048574	-0.794395
C40	C	-4.029158	-0.047581	-0.696552
C41	C	-3.922847	-0.167268	-0.575655
C42	C	-4.082095	-0.164461	-0.935780
C43	C	-4.144681	0.060111	-0.254344
C44	C	-4.061292	0.201390	-0.255053
C45	C	-4.177988	-0.163183	-0.105721
C46	C	-4.115776	-0.163862	-0.011938
H47	H	-4.026905	-0.578974	-0.396497
H48	H	-4.305507	-0.302402	-0.702910
H49	H	-4.249995	-0.053235	-0.821211
H50	H	-3.977854	-0.968544	-0.363928
O51	O	-3.976143	-0.760502	-0.102827
C52	C	-4.028653	-0.948619	-0.033311
C53	C	-4.043363	-0.895860	-0.118647
H54	H	-4.082947	-1.058060	-0.046071
H55	H	-4.136561	-0.918485	0.001439
H56	H	-3.855392	-0.908349	0.007884
H57	H	-4.216549	-0.936103	-0.159909
H58	H	-3.935328	-0.925981	-0.153330
H59	H	-4.368040	-0.302333	-0.847364
H60	H	-4.109031	-1.122469	-0.503479
H61	H	-3.531993	-0.445170	0.110620
H62	H	-3.895915	-0.209253	-0.007965
H63	H	-3.894288	0.045258	-0.662172
H64	H	-4.473037	-0.886575	-0.622042
H65	H	-4.108524	-0.380349	-0.705012
H66	H	-3.971673	0.046529	-0.807760
O67	O	-3.659801	-0.049053	-0.813911
C68	C	-3.367812	0.149550	-0.752037
C69	C	-3.529468	0.027009	-0.735376
H70	H	-3.262365	0.211067	-0.688554
H71	H	-3.458572	0.206563	-0.790490
H72	H	-3.262718	0.121688	-0.789412
H73	H	-3.634604	0.054757	-0.697977
H74	H	-3.438575	-0.029973	-0.696961
H75	H	-4.341864	-0.732638	-0.482474
H76	H	-3.619680	-0.068309	-0.666792
H77	H	-3.770010	-0.241107	-0.830826
H78	H	-4.356617	-1.081487	-0.632543
H79	H	-3.705809	-0.243313	-0.685526
O80	O	-4.164944	-0.396681	-0.855483
C81	C	-4.077603	-0.587825	-0.832659
C82	C	-4.108778	-0.468547	-0.791657
H83	H	-4.032232	-0.645976	-0.781077
H84	H	-3.944099	-0.556067	-0.865997
H85	H	-4.233570	-0.649786	-0.881277
H86	H	-3.952925	-0.406534	-0.743003
H87	H	-4.242375	-0.500394	-0.758373
H88	H	-4.176214	-0.046019	-0.675204
O89	O	-4.048718	-0.359862	-0.158737
C90	C	-4.393940	-0.440076	-0.262652
C91	C	-4.243769	-0.464841	-0.184371
H92	H	-4.551688	-0.524922	-0.283390
H93	H	-4.314071	-0.428231	-0.317178
H94	H	-4.427279	-0.348681	-0.245299
H95	H	-4.210376	-0.556243	-0.201642
H96	H	-4.323713	-0.476607	-0.129867
H97	H	-3.648392	-0.250241	0.121113
O98	O	-3.653150	-0.616041	-0.029725
C99	C	-3.651139	-0.813102	0.023391
C100	C	-3.721672	-0.694887	0.029709
H101	H	-3.706549	-0.876895	0.071424
H102	H	-3.468593	-0.780176	0.037847
H103	H	-3.726191	-0.869799	-0.043828
H104	H	-3.646772	-0.638139	0.096915
H105	H	-3.904231	-0.727898	0.015202
