data_functionalizedCrystal
_audit_creation_method	'MofGen! by Chris Wilmer'
_symmetry_space_group_name_H-M	'P1'
_symmetry_Int_Tables_number	1
_symmetry_cell_setting	triclinic
loop_
_symmetry_equiv_pos_as_xyz
  x,y,z
_cell_length_a	14.519709
_cell_length_b	10.654549
_cell_length_c	9.730217
_cell_angle_alpha	89.997829
_cell_angle_beta	90.004205
_cell_angle_gamma	84.083531
loop_
_atom_site_label
_atom_site_type_symbol
_atom_site_fract_x
_atom_site_fract_y
_atom_site_fract_z
O1	O	1.224719	0.164621	-0.114108
O2	O	1.724719	0.664621	0.385892
O3	O	0.956343	0.184007	-0.114149
O4	O	1.456343	0.684007	0.385851
O5	O	1.096699	-0.008484	-0.114122
O6	O	1.596699	0.491516	0.385878
O7	O	1.084363	0.357112	-0.114135
O8	O	1.584363	0.857112	0.385865
O9	O	1.096695	-0.008486	0.114458
O10	O	1.596695	0.491514	0.614458
O11	O	0.956339	0.184005	0.114431
O12	O	1.456339	0.684005	0.614431
O13	O	1.224715	0.164619	0.114473
O14	O	1.724715	0.664619	0.614473
Zn15	Zn	1.090526	0.174312	0.150744
Zn16	Zn	1.590526	0.674312	0.650744
Zn17	Zn	1.090532	0.174314	-0.150420
Zn18	Zn	1.590532	0.674314	0.349580
O19	O	1.084359	0.357110	0.114445
O20	O	1.584359	0.857110	0.614445
C21	C	0.921976	0.183103	0.000136
C22	C	1.421976	0.683103	0.500136
C23	C	0.819581	0.180395	0.000120
C24	C	1.319581	0.680395	0.500120
C25	C	0.444633	0.170428	0.000183
C26	C	0.944633	0.670428	0.500183
C27	C	0.548956	0.173196	0.000165
C28	C	1.048956	0.673196	0.500165
C29	C	0.632104	0.175411	0.000150
C30	C	1.132104	0.675411	0.500150
C31	C	0.736433	0.178180	0.000135
C32	C	1.236433	0.678180	0.500135
C33	C	1.095790	-0.055274	0.000166
C34	C	1.595790	0.444726	0.500166
C35	C	1.093078	-0.194691	0.000161
C36	C	1.593078	0.305309	0.500161
C37	C	1.259082	0.165523	0.000185
C38	C	1.759082	0.665523	0.500185
C39	C	1.361477	0.168231	0.000192
C40	C	1.861477	0.668231	0.500192
C41	C	1.255819	-0.486241	0.000194
C42	C	1.755819	0.013759	0.500194
C43	C	1.341013	-0.435523	0.000210
C44	C	1.841013	0.064477	0.500210
C45	C	1.343565	-0.304529	0.000208
C46	C	1.843565	0.195471	0.500208
C47	C	1.260914	-0.224249	0.000195
C48	C	1.760914	0.275751	0.500195
C49	C	1.175720	-0.274967	0.000179
C50	C	1.675720	0.225033	0.500179
C51	C	1.173177	-0.405965	0.000176
C52	C	1.673177	0.094035	0.500176
C53	C	1.007883	-0.245409	0.000145
C54	C	1.507883	0.254591	0.500145
C55	C	1.005329	-0.376402	0.000137
C56	C	1.505329	0.123598	0.500137
C57	C	0.925232	-0.165129	0.000132
C58	C	1.425232	0.334871	0.500132
C59	C	0.840036	-0.215847	0.000106
C60	C	1.340036	0.284153	0.500106
C61	C	0.837487	-0.346849	0.000106
C62	C	1.337487	0.153151	0.500106
C63	C	0.920135	-0.427120	0.000121
C64	C	1.420135	0.072880	0.500121
C65	C	1.085268	0.403900	0.000154
C66	C	1.585268	0.903900	0.500154
C67	C	1.087980	0.543317	0.000150
C68	C	1.587980	1.043317	0.500150
N69	N	1.090529	0.174310	0.356280
N70	N	1.590529	0.674310	0.856280
N71	N	1.090536	0.174307	-0.355957
N72	N	1.590536	0.674307	0.144043
C73	C	1.214866	0.003908	0.356295
C74	C	1.714866	0.503908	0.856295
C75	C	1.277040	-0.081290	0.428242
C76	C	1.777040	0.418710	0.928242
C77	C	1.277049	-0.081291	0.572122
C78	C	1.777049	0.418709	1.072122
C79	C	1.214876	0.003913	0.644058
C80	C	1.714876	0.503913	1.144058
C81	C	1.152701	0.089110	0.572111
C82	C	1.652701	0.589110	1.072111
C83	C	1.152700	0.089104	0.428228
C84	C	1.652700	0.589104	0.928228
C85	C	1.028362	0.259504	0.572096
C86	C	1.528362	0.759504	1.072096
C87	C	1.028355	0.259513	0.428216
C88	C	1.528355	0.759513	0.928216
C89	C	0.966188	0.344707	0.644032
C90	C	1.466188	0.844707	1.144032
C91	C	0.904017	0.429913	0.572085
C92	C	1.404017	0.929913	1.072085
C93	C	0.904010	0.429911	0.428196
C94	C	1.404010	0.929911	0.928196
C95	C	0.966181	0.344710	0.356269
C96	C	1.466181	0.844710	0.856269
H97	H	1.253749	-0.592904	0.000177
H98	H	1.753749	-0.092904	0.500177
Br99	Br	0.916683	-0.604900	0.000134
Br100	Br	1.416683	-0.104900	0.500134
Br101	Br	1.214873	0.003892	0.839325
Br102	Br	1.714873	0.503892	1.339325
H103	H	1.412937	-0.263236	0.000228
H104	H	1.912937	0.236764	0.500228
H105	H	1.408305	-0.500901	0.000225
H106	H	1.908305	-0.000901	0.500225
Br107	Br	0.966184	0.344708	0.161002
Br108	Br	1.466184	0.844708	0.661002
Br109	Br	1.214874	0.003920	0.161028
Br110	Br	1.714874	0.503920	0.661028
H111	H	0.853377	0.499284	0.369624
H112	H	1.353377	0.999284	0.869624
H113	H	1.327674	-0.150670	0.630702
H114	H	1.827674	0.349330	1.130702
H115	H	0.768112	-0.388133	0.000107
H116	H	1.268112	0.111867	0.500107
H117	H	0.966194	0.344698	0.761186
H118	H	1.466194	0.844698	1.261186
H119	H	1.262999	-0.117589	0.000210
H120	H	1.762999	0.382411	0.500210
H121	H	0.927316	-0.058468	0.000139
H122	H	1.427316	0.441532	0.500139
H123	H	1.327660	-0.150664	0.369659
H124	H	1.827660	0.349336	0.869659
H125	H	0.772749	-0.150473	0.000105
H126	H	1.272749	0.349527	0.500105
H127	H	0.853395	0.499274	0.630664
H128	H	1.353395	0.999274	1.130664
