data_functionalizedCrystal
_audit_creation_method	'MofGen! by Chris Wilmer'
_symmetry_space_group_name_H-M	'P1'
_symmetry_Int_Tables_number	1
_symmetry_cell_setting	triclinic
loop_
_symmetry_equiv_pos_as_xyz
  x,y,z
_cell_length_a	13.897448
_cell_length_b	14.908571
_cell_length_c	14.908308
_cell_angle_alpha	89.824947
_cell_angle_beta	93.267188
_cell_angle_gamma	93.286109
loop_
_atom_site_label
_atom_site_type_symbol
_atom_site_fract_x
_atom_site_fract_y
_atom_site_fract_z
Zn1	Zn	-0.503381	-1.345318	-0.587582
Zn2	Zn	-0.003381	-0.845318	-0.087582
Zn3	Zn	-0.655952	-1.353905	-0.437223
Zn4	Zn	-0.155952	-0.853905	0.062777
Zn5	Zn	-0.484854	-1.203632	-0.428580
Zn6	Zn	0.015146	-0.703632	0.071420
Zn7	Zn	-0.654806	-1.194933	-0.578874
Zn8	Zn	-0.154806	-0.694933	-0.078874
O9	O	-0.574748	-1.274447	-0.508065
O10	O	-0.074748	-0.774447	-0.008065
O11	O	-0.531853	-1.472283	-0.574898
O12	O	-0.031853	-0.972283	-0.074898
O13	O	-0.625981	-1.341206	-0.310251
O14	O	-0.125981	-0.841206	0.189749
O15	O	-0.352335	-1.222474	-0.449699
O16	O	0.147665	-0.722474	0.050301
O17	O	-0.643947	-1.478592	-0.464429
O18	O	-0.143947	-0.978592	0.035571
O19	O	-0.365946	-1.326570	-0.566518
O20	O	0.134054	-0.826570	-0.066518
O21	O	-0.500276	-1.230801	-0.303902
O22	O	-0.000276	-0.730801	0.196098
O23	O	-0.499165	-1.076652	-0.441256
O24	O	0.000835	-0.576652	0.058744
O25	O	-0.641993	-1.207647	-0.705854
O26	O	-0.141993	-0.707647	-0.205854
O27	O	-0.624028	-1.070260	-0.551676
O28	O	-0.124028	-0.570260	-0.051676
O29	O	-0.530742	-1.318134	-0.712252
O30	O	-0.030742	-0.818134	-0.212252
O31	O	-0.790777	-1.332770	-0.455986
O32	O	-0.290777	-0.832770	0.044014
O33	O	-0.789935	-1.215974	-0.560056
O34	O	-0.289935	-0.715974	-0.060056
C35	C	-0.559463	-1.040831	-0.494584
C36	C	-0.059463	-0.540831	0.005416
C37	C	-0.552948	-0.940888	-0.488838
C38	C	-0.052948	-0.440888	0.011162
C39	C	-0.825357	-1.274383	-0.508035
C40	C	-0.325357	-0.774383	-0.008035
C41	C	-0.932575	-1.274436	-0.508057
C42	C	-0.432575	-0.774436	-0.008057
C43	C	-0.588307	-1.260963	-0.742590
C44	C	-0.088307	-0.760963	-0.242590
C45	C	-0.594084	-1.255216	-0.842531
C46	C	-0.094084	-0.755216	-0.342531
C47	C	-1.128880	-1.274527	-0.508119
C48	C	-0.628880	-0.774527	-0.008119
C49	C	-1.019642	-1.274474	-0.508087
C50	C	-0.519642	-0.774474	-0.008087
C51	C	-0.323164	-1.274535	-0.508116
C52	C	0.176836	-0.774535	-0.008116
C53	C	-0.215954	-1.274572	-0.508138
C54	C	0.284046	-0.774572	-0.008138
C55	C	-0.590094	-1.508975	-0.521599
C56	C	-0.090094	-1.008975	-0.021599
C57	C	-0.596634	-1.608918	-0.527367
C58	C	-0.096634	-1.108918	-0.027367
C59	C	-0.670908	-0.746485	-0.592867
C60	C	-0.170908	-0.246485	-0.092867
C61	C	-0.664790	-0.652579	-0.587471
C62	C	-0.164790	-0.152579	-0.087471
C63	C	-0.534590	-0.659168	-0.472656
C64	C	-0.034590	-0.159168	0.027344
C65	C	-0.540708	-0.753074	-0.478051
C66	C	-0.040708	-0.253074	0.021949
C67	C	-0.608870	-0.796729	-0.538158
C68	C	-0.108870	-0.296729	-0.038158
C69	C	-0.614992	-0.890637	-0.543549
C70	C	-0.114992	-0.390637	-0.043549
C71	C	-0.484788	-0.897224	-0.428738
C72	C	0.015212	-0.397224	0.071262
C73	C	-0.478670	-0.803318	-0.423343
C74	C	0.021330	-0.303318	0.076657
C75	C	-0.489073	-1.359466	-1.036993
C76	C	0.010927	-0.859466	-0.536993
C77	C	-0.494498	-1.354070	-1.130897
C78	C	0.005502	-0.854070	-0.630897
C79	C	-0.610355	-1.239023	-1.124242
C80	C	-0.110355	-0.739023	-0.624242
C81	C	-0.604930	-1.244420	-1.030339
C82	C	-0.104930	-0.744420	-0.530339
C83	C	-0.544287	-1.304644	-0.986718
C84	C	-0.044287	-0.804644	-0.486718
C85	C	-0.538868	-1.310044	-0.892813
C86	C	-0.038868	-0.810044	-0.392813
C87	C	-0.654719	-1.194994	-0.886160
C88	C	-0.154719	-0.694994	-0.386160
C89	C	-0.660144	-1.189597	-0.980064
C90	C	-0.160144	-0.689597	-0.480064
C91	C	-0.561177	-1.287931	-0.274455
C92	C	-0.061177	-0.787931	0.225545
C93	C	-0.555139	-1.293851	-0.174525
C94	C	-0.055139	-0.793851	0.325475
H95	H	-0.670495	-0.926180	-0.592489
H96	H	-0.170495	-0.426180	-0.092489
C97	C	-0.772487	-1.193498	-1.150627
C98	C	-0.272487	-0.693498	-0.650627
C99	C	-0.677000	-1.172824	-1.172206
C100	C	-0.177000	-0.672824	-0.672206
H101	H	-0.813626	-1.152624	-1.180236
H102	H	-0.313626	-0.652624	-0.680236
H103	H	-0.791436	-1.253015	-1.169502
H104	H	-0.291436	-0.753015	-0.669502
H105	H	-0.777158	-1.188859	-1.087506
H106	H	-0.277158	-0.688859	-0.587506
H107	H	-0.672327	-1.177469	-1.235326
H108	H	-0.172327	-0.677469	-0.735326
H109	H	-0.658045	-1.113292	-1.153335
H110	H	-0.158045	-0.613292	-0.653335
H111	H	-0.449534	-1.398709	-1.171828
H112	H	0.050466	-0.898709	-0.671828
C113	C	-0.355473	-0.894300	-0.314703
C114	C	0.144527	-0.394300	0.185297
C115	C	-0.416588	-0.952453	-0.368597
C116	C	0.083412	-0.452453	0.131403
H117	H	-0.313377	-0.928398	-0.277571
H118	H	0.186623	-0.428398	0.222429
H119	H	-0.318522	-0.855437	-0.351834
H120	H	0.181478	-0.355437	0.148166
H121	H	-0.393074	-0.859636	-0.278141
H122	H	0.106926	-0.359636	0.221859
H123	H	-0.378986	-0.987112	-0.405164
H124	H	0.121014	-0.487112	0.094836
H125	H	-0.453541	-0.991332	-0.331462
H126	H	0.046459	-0.491332	0.168538
H127	H	-0.489491	-1.359083	-0.857299
H128	H	0.010509	-0.859083	-0.357299
H129	H	-0.715306	-0.611674	-0.632022
H130	H	-0.215306	-0.111674	-0.132022
C131	C	-0.728828	-0.766690	-0.746708
C132	C	-0.228828	-0.266690	-0.246708
C133	C	-0.745829	-0.794481	-0.658930
C134	C	-0.245829	-0.294481	-0.158930
H135	H	-0.775079	-0.796326	-0.787492
H136	H	-0.275079	-0.296326	-0.287492
H137	H	-0.734072	-0.703581	-0.751320
H138	H	-0.234072	-0.203581	-0.251320
H139	H	-0.665807	-0.781332	-0.760845
H140	H	-0.165807	-0.281332	-0.260845
H141	H	-0.808848	-0.779833	-0.644791
H142	H	-0.308848	-0.279833	-0.144791
H143	H	-0.740595	-0.857604	-0.654315
H144	H	-0.240595	-0.357604	-0.154315
H145	H	-0.699682	-1.150356	-0.845216
H146	H	-0.199682	-0.650356	-0.345216
H147	H	-0.479089	-0.623607	-0.423726
H148	H	0.020911	-0.123607	0.076274
H149	H	-0.709515	-1.140563	-1.015593
H150	H	-0.209515	-0.640563	-0.515593
H151	H	-0.423172	-0.767761	-0.374408
H152	H	0.076828	-0.267761	0.125592
H153	H	-0.439701	-1.408508	-1.001477
H154	H	0.060299	-0.908508	-0.501477
