data_functionalizedCrystal
_audit_creation_method	'MofGen! by Chris Wilmer'
_symmetry_space_group_name_H-M	'P1'
_symmetry_Int_Tables_number	1
_symmetry_cell_setting	triclinic
loop_
_symmetry_equiv_pos_as_xyz
  x,y,z
_cell_length_a	18.050591
_cell_length_b	25.639239
_cell_length_c	18.050582
_cell_angle_alpha	89.974655
_cell_angle_beta	89.978183
_cell_angle_gamma	90.034692
loop_
_atom_site_label
_atom_site_type_symbol
_atom_site_fract_x
_atom_site_fract_y
_atom_site_fract_z
Zn1	Zn	1.135245	-0.208236	-0.420021
Zn2	Zn	1.135131	-0.295665	-0.295826
Zn3	Zn	1.011062	-0.208239	-0.295832
Zn4	Zn	1.010990	-0.295636	-0.419962
O5	O	1.073107	-0.251944	-0.357910
O6	O	1.239155	-0.219844	-0.403568
O7	O	1.118656	-0.284081	-0.191902
O8	O	1.027614	-0.135074	-0.312333
O9	O	1.239071	-0.284078	-0.312323
O10	O	1.118850	-0.135071	-0.403574
O11	O	1.027503	-0.219850	-0.191906
O12	O	0.907128	-0.219822	-0.312276
O13	O	1.027490	-0.284029	-0.523894
O14	O	0.907075	-0.284032	-0.403473
O15	O	1.118780	-0.219817	-0.523938
O16	O	1.118585	-0.368826	-0.312266
O17	O	1.027379	-0.368805	-0.403468
C18	C	0.880155	-0.251925	-0.357869
C19	C	0.797609	-0.251929	-0.357869
C20	C	0.598166	-0.216971	-0.308390
C21	C	0.548734	-0.264659	-0.290112
C22	C	0.646479	-0.251945	-0.357903
C23	C	0.548829	-0.204274	-0.376179
C24	C	0.500494	-0.251956	-0.357934
C25	C	0.598134	-0.299658	-0.339589
C26	C	0.598234	-0.239240	-0.425688
C27	C	0.548824	-0.286961	-0.407435
C28	C	0.730577	-0.251938	-0.357883
C29	C	0.416397	-0.251968	-0.357954
C30	C	1.072982	-0.387787	-0.357876
C31	C	1.072997	-0.445901	-0.357886
C32	C	1.120722	-0.806262	-0.310502
C33	C	1.120751	-0.860866	-0.310512
O34	O	1.161199	-0.889102	-0.270187
N35	N	1.073238	-0.888183	-0.357959
C36	C	1.025698	-0.860893	-0.405405
O37	O	0.985287	-0.889142	-0.445764
C38	C	1.025673	-0.806289	-0.405398
C39	C	1.073184	-0.778976	-0.357943
C40	C	1.168230	-0.778948	-0.263051
C41	C	1.168200	-0.724348	-0.263040
C42	C	1.120662	-0.697061	-0.310481
C43	C	1.073154	-0.724375	-0.357932
C44	C	0.978138	-0.779000	-0.452847
C45	C	0.978118	-0.724393	-0.452837
C46	C	1.025629	-0.697079	-0.405381
C47	C	1.025587	-0.642488	-0.405362
N48	N	1.073100	-0.615171	-0.357914
C49	C	1.120638	-0.642458	-0.310474
C50	C	1.025754	-0.975563	-0.405416
C51	C	1.025774	-1.030166	-0.405420
C52	C	1.120828	-1.030136	-0.310528
C53	C	1.120804	-0.975532	-0.310521
C54	C	1.073267	-0.948247	-0.357969
C55	C	1.120571	-0.527793	-0.310455
C56	C	1.120534	-0.473187	-0.310446
C57	C	1.025483	-0.473222	-0.405340
C58	C	1.025516	-0.527823	-0.405347
C59	C	1.073066	-0.555107	-0.357901
O60	O	0.985161	-0.614218	-0.445668
O61	O	1.161048	-0.614202	-0.270129
C62	C	1.266813	-0.251964	-0.357952
C63	C	1.349358	-0.251973	-0.357970
C64	C	1.073139	-0.251919	-0.551616
C65	C	1.073153	-0.251909	-0.634162
C66	C	1.073253	-0.115571	-0.357961
C67	C	1.073315	-0.057457	-0.357982
C68	C	1.023556	-0.286770	-0.882964
C69	C	1.005428	-0.239081	-0.833577
C70	C	1.073216	-0.251832	-0.931282
C71	C	1.091277	-0.299556	-0.833588
C72	C	1.073183	-0.251872	-0.785297
C73	C	1.055053	-0.204117	-0.882982
C74	C	1.140934	-0.264624	-0.882998
C75	C	1.122832	-0.216902	-0.833633
C76	C	1.073233	-0.251809	-1.015381
C77	C	1.073166	-0.251889	-0.701200
C78	C	1.073118	-0.251931	-0.164958
C79	C	1.073248	-0.251794	-0.082413
H80	H	0.619993	-0.228472	-0.482982
C81	C	0.929098	-0.224205	-0.726696
C82	C	0.928105	-0.224489	-0.804261
H83	H	0.881363	-0.215195	-0.708600
H84	H	0.942275	-0.257852	-0.709063
H85	H	0.964322	-0.199368	-0.709821
H86	H	0.892885	-0.249329	-0.821136
H87	H	0.914919	-0.190837	-0.821900
H88	H	1.164814	-0.187339	-0.812109
C89	C	1.237061	-0.329229	-0.887446
C90	C	1.218238	-0.279231	-0.912335
H91	H	1.284783	-0.338251	-0.905564
H92	H	1.237503	-0.329661	-0.834832
H93	H	1.201666	-0.353683	-0.905075
H94	H	1.253629	-0.254777	-0.894702
H95	H	1.217801	-0.278795	-0.964961
C96	C	0.544774	-0.376807	-0.444677
C97	C	0.519750	-0.326937	-0.463976
H98	H	0.526819	-0.401487	-0.479578
H99	H	0.597390	-0.377216	-0.444686
H100	H	0.527071	-0.385541	-0.396680
H101	H	0.537458	-0.318201	-0.511971
H102	H	0.467123	-0.326527	-0.463974
H103	H	1.206945	-0.801159	-0.224419
H104	H	0.527132	-0.163959	-0.391599
C105	C	1.214499	-0.478651	-0.216650
C106	C	1.172765	-0.443165	-0.258282
H107	H	1.246746	-0.460116	-0.184453
H108	H	1.182171	-0.499980	-0.188216
H109	H	1.242893	-0.499916	-0.249051
H110	H	1.144367	-0.421902	-0.225882
H111	H	1.205097	-0.421826	-0.286719
C112	C	1.112336	-0.353343	-0.726734
C113	C	1.111923	-0.354018	-0.804299
H114	H	1.125073	-0.386967	-0.708657
H115	H	1.147655	-0.328583	-0.709849
H116	H	1.064555	-0.344029	-0.709094
H117	H	1.159706	-0.363329	-0.821940
H118	H	1.076603	-0.378786	-0.821192
H119	H	1.039697	-0.163762	-0.904588
H120	H	1.159292	-0.550001	-0.271822
C121	C	1.262168	-0.729820	-0.169259
C122	C	1.220437	-0.694329	-0.210886
H123	H	1.294424	-0.711289	-0.137066
H124	H	1.229839	-0.751145	-0.140820
H125	H	1.290552	-0.751089	-0.201663
H126	H	1.192049	-0.673062	-0.178482
H127	H	1.252770	-0.672995	-0.239328
H128	H	0.619831	-0.187427	-0.266473
H129	H	0.619701	-0.339989	-0.324080
C130	C	0.475626	-0.238360	-0.185471
C131	C	0.519374	-0.279149	-0.212737
H132	H	0.457499	-0.247297	-0.137702
H133	H	0.504610	-0.207515	-0.182209
H134	H	0.435091	-0.232611	-0.218008
H135	H	0.559912	-0.284895	-0.180203
H136	H	0.490388	-0.310002	-0.215995
C137	C	1.214759	-0.981000	-0.216726
C138	C	1.173033	-0.945512	-0.258362
H139	H	1.247008	-0.962467	-0.184528
H140	H	1.182427	-1.002326	-0.188292
H141	H	1.243151	-1.002269	-0.249124
H142	H	1.144638	-0.924245	-0.225964
H143	H	1.205370	-0.924177	-0.286798
C144	C	0.985088	-0.376405	-0.886210
C145	C	0.966844	-0.326583	-0.912216
H146	H	0.950072	-0.400980	-0.904268
H147	H	1.033182	-0.385558	-0.903134
H148	H	0.984369	-0.376467	-0.833587
H149	H	0.967568	-0.326520	-0.964838
H150	H	0.918737	-0.317428	-0.895295
H151	H	0.986776	-0.450997	-0.443964
H152	H	1.159539	-1.052362	-0.271902
C153	C	0.989524	-1.046944	-0.531139
C154	C	0.973544	-1.060186	-0.457580
H155	H	0.957283	-1.065479	-0.563342
H156	H	0.982705	-1.010523	-0.537912
H157	H	1.039421	-1.055859	-0.542051
H158	H	0.923649	-1.051268	-0.446665
H159	H	0.980358	-1.096615	-0.450804
C160	C	1.015324	-0.914133	-0.505305
C161	C	0.973489	-0.945573	-0.457569
H162	H	0.983057	-0.895624	-0.537504
H163	H	1.043606	-0.890049	-0.477050
H164	H	1.047672	-0.935408	-0.533745
H165	H	0.941145	-0.924298	-0.429125
H166	H	0.945194	-0.969661	-0.485827
H167	H	0.939445	-0.801229	-0.491487
H168	H	0.939408	-0.702179	-0.491477
H169	H	0.986831	-0.550063	-0.443991
