data_functionalizedCrystal
_audit_creation_method	'MofGen! by Chris Wilmer'
_symmetry_space_group_name_H-M	'P1'
_symmetry_Int_Tables_number	1
_symmetry_cell_setting	triclinic
loop_
_symmetry_equiv_pos_as_xyz
  x,y,z
_cell_length_a	18.215405
_cell_length_b	29.839134
_cell_length_c	18.215407
_cell_angle_alpha	89.978475
_cell_angle_beta	90.014818
_cell_angle_gamma	89.979768
loop_
_atom_site_label
_atom_site_type_symbol
_atom_site_fract_x
_atom_site_fract_y
_atom_site_fract_z
Zn1	Zn	-0.293197	-0.686762	0.416324
Zn2	Zn	-0.416235	-0.686718	0.293252
Zn3	Zn	-0.293177	-0.611647	0.293247
Zn4	Zn	-0.416217	-0.611614	0.416253
O5	O	-0.354706	-0.649185	0.354769
O6	O	-0.309535	-0.749623	0.400030
O7	O	-0.399910	-0.676756	0.190267
O8	O	-0.190195	-0.621643	0.309601
O9	O	-0.399930	-0.749591	0.309610
O10	O	-0.190210	-0.676830	0.400025
O11	O	-0.309500	-0.621601	0.190264
O12	O	-0.309482	-0.548776	0.309532
O13	O	-0.399899	-0.621587	0.519246
O14	O	-0.399879	-0.548751	0.399904
O15	O	-0.309517	-0.676797	0.519299
O16	O	-0.519217	-0.676723	0.309541
O17	O	-0.519203	-0.621545	0.399909
C18	C	-0.354677	-0.532463	0.354710
C19	C	-0.354682	-0.482528	0.354703
C20	C	-0.545913	-0.649138	0.354734
C21	C	-0.627712	-0.649159	0.354743
C22	C	-0.815888	-0.677958	0.307775
C23	C	-0.892747	-0.677978	0.307793
C24	C	-0.892773	-0.620470	0.401816
C25	C	-0.815916	-0.620453	0.401801
C26	C	-0.777475	-0.649196	0.354777
C27	C	-0.931191	-0.649233	0.354809
C28	C	-1.014525	-0.649255	0.354829
C29	C	-0.694136	-0.649175	0.354758
C30	C	-0.401852	-0.172882	0.401745
C31	C	-0.401876	0.014791	0.401768
O32	O	-0.441944	0.039059	0.441745
N33	N	-0.354743	0.038257	0.354791
C34	C	-0.307598	0.014801	0.307808
O35	O	-0.267504	0.039066	0.267857
C36	C	-0.307571	-0.172871	0.307788
C37	C	-0.354712	-0.196334	0.354764
C38	C	-0.448989	-0.196345	0.448716
C39	C	-0.448986	-0.243260	0.448707
C40	C	-0.401845	-0.266713	0.401726
C41	C	-0.354709	-0.243250	0.354754
C42	C	-0.260423	-0.196326	0.260810
C43	C	-0.260419	-0.243247	0.260810
C44	C	-0.307560	-0.266710	0.307785
C45	C	-0.307565	-0.313618	0.307764
N46	N	-0.354698	-0.337083	0.354741
C47	C	-0.401838	-0.313630	0.401722
C48	C	-0.307616	0.113332	0.307820
C49	C	-0.307623	0.160249	0.307824
C50	C	-0.401901	0.160237	0.401786
C51	C	-0.401896	0.113318	0.401777
C52	C	-0.354749	0.089866	0.354797
C53	C	-0.401828	-0.412156	0.401699
C54	C	-0.401822	-0.459076	0.401684
C55	C	-0.307542	-0.459059	0.307725
C56	C	-0.307550	-0.412143	0.307737
C57	C	-0.354695	-0.388693	0.354730
O58	O	-0.267512	-0.337914	0.267814
O59	O	-0.441915	-0.337903	0.441679
C60	C	-0.401856	-0.125966	0.401754
C61	C	-0.354719	-0.102503	0.354782
C62	C	-0.307579	-0.125956	0.307801
C63	C	-0.354727	-0.055585	0.354786
C64	C	-0.401867	-0.032133	0.401767
C65	C	-0.448999	-0.055598	0.448744
C66	C	-0.448996	-0.102514	0.448735
C67	C	-0.260446	-0.102490	0.260824
C68	C	-0.260454	-0.055575	0.260836
C69	C	-0.307594	-0.032122	0.307817
C70	C	-0.162754	-0.649245	0.354821
C71	C	-0.080955	-0.649271	0.354843
C72	C	-0.354708	-0.649193	0.546722
C73	C	-0.354709	-0.649196	0.628521
C74	C	-0.354740	0.233636	0.354816
C75	C	-0.354764	0.183702	0.354805
C76	C	-0.307655	-0.677936	0.816743
C77	C	-0.307655	-0.677933	0.893602
C78	C	-0.401774	-0.620442	0.893536
C79	C	-0.401770	-0.620443	0.816679
C80	C	-0.354712	-0.649192	0.778284
C81	C	-0.354715	-0.649189	0.932000
C82	C	-0.354715	-0.649186	1.015334
C83	C	-0.354711	-0.649195	0.694945
C84	C	-0.354720	-0.649178	1.163563
C85	C	-0.354718	-0.649185	1.081764
H86	H	-0.784592	-0.701363	0.269486
H87	H	-0.924080	-0.597068	0.440100
C88	C	-0.773658	-0.588813	0.453504
H89	H	-0.807558	-0.571692	0.481505
H90	H	-0.743641	-0.605976	0.485595
H91	H	-0.743713	-0.569244	0.425304
C92	C	-0.500849	-0.170554	0.500399
H93	H	-0.528919	-0.191254	0.528365
H94	H	-0.472759	-0.152263	0.532523
H95	H	-0.532880	-0.152241	0.472188
H96	H	-0.440089	-0.597037	0.924806
C97	C	-0.500852	-0.269065	0.500367
H98	H	-0.494113	-0.300368	0.493633
H99	H	-0.490174	-0.261394	0.549838
H100	H	-0.550278	-0.261357	0.489486
C101	C	-0.453540	-0.588826	0.774371
H102	H	-0.481575	-0.571710	0.808244
H103	H	-0.425385	-0.569261	0.744383
H104	H	-0.485607	-0.606008	0.744393
C105	C	-0.255890	-0.709554	0.774508
H106	H	-0.262630	-0.705442	0.723226
H107	H	-0.206443	-0.702993	0.787115
H108	H	-0.266671	-0.739738	0.787121
H109	H	-0.269335	-0.701338	0.924912
C110	C	-0.255758	0.087540	0.256131
H111	H	-0.227699	0.108239	0.228151
H112	H	-0.223728	0.069224	0.284329
H113	H	-0.283863	0.069253	0.224008
C114	C	-0.934998	-0.709614	0.256088
H115	H	-0.901094	-0.726726	0.228078
H116	H	-0.964944	-0.729183	0.284279
H117	H	-0.965014	-0.692447	0.223994
H118	H	-0.440213	-0.478177	0.439937
C119	C	-0.453663	-0.386367	0.453413
H120	H	-0.481728	-0.407066	0.481386
H121	H	-0.425546	-0.368087	0.485528
H122	H	-0.485700	-0.368044	0.425226
H123	H	-0.440284	0.179340	0.440039
C124	C	-0.453745	0.087513	0.453455
H125	H	-0.481816	0.108204	0.481436
H126	H	-0.485765	0.069221	0.425249
H127	H	-0.425636	0.069200	0.485576
C128	C	-0.255684	-0.484861	0.256056
H129	H	-0.227609	-0.464170	0.228077
H130	H	-0.223668	-0.503175	0.284275
H131	H	-0.283782	-0.503151	0.223932
C132	C	-0.255773	0.186054	0.256147
H133	H	-0.227694	0.165362	0.228174
H134	H	-0.283871	0.204371	0.224029
H135	H	-0.223750	0.204342	0.284363
C136	C	-0.208561	-0.170527	0.209142
H137	H	-0.180482	-0.191221	0.181173
H138	H	-0.236652	-0.152209	0.177020
H139	H	-0.176538	-0.152241	0.237362
C140	C	-0.208555	-0.269041	0.209131
H141	H	-0.180487	-0.248345	0.181156
H142	H	-0.176533	-0.287358	0.237339
H143	H	-0.236654	-0.287329	0.177004
C144	C	-0.255699	-0.386333	0.256064
H145	H	-0.227622	-0.407022	0.228086
H146	H	-0.283796	-0.368012	0.223952
H147	H	-0.223675	-0.368049	0.284286
H148	H	-0.487383	-0.121613	0.486987
H149	H	-0.487385	-0.036495	0.486996
C150	C	-0.208594	-0.029771	0.209161
H151	H	-0.180516	-0.050462	0.181188
H152	H	-0.236687	-0.011451	0.177043
H153	H	-0.176570	-0.011486	0.237383
H154	H	-0.222058	-0.121581	0.222565
