data_functionalizedCrystal
_audit_creation_method	'MofGen! by Chris Wilmer'
_symmetry_space_group_name_H-M	'P1'
_symmetry_Int_Tables_number	1
_symmetry_cell_setting	triclinic
loop_
_symmetry_equiv_pos_as_xyz
  x,y,z
_cell_length_a	19.805407
_cell_length_b	12.759394
_cell_length_c	19.805407
_cell_angle_alpha	90.008809
_cell_angle_beta	90.003560
_cell_angle_gamma	90.015796
loop_
_atom_site_label
_atom_site_type_symbol
_atom_site_fract_x
_atom_site_fract_y
_atom_site_fract_z
Zn1	Zn	1.034682	-0.418376	0.382760
Zn2	Zn	1.034655	-0.594028	0.269582
Zn3	Zn	0.921530	-0.418370	0.269583
Zn4	Zn	0.921485	-0.594020	0.382727
O5	O	0.978088	-0.506198	0.326163
O6	O	1.129395	-0.441683	0.367760
O7	O	1.019656	-0.570728	0.174865
O8	O	0.936570	-0.271349	0.284610
O9	O	1.129375	-0.570734	0.284608
O10	O	1.019702	-0.271354	0.367760
O11	O	0.936544	-0.441672	0.174866
O12	O	0.826808	-0.441664	0.284578
O13	O	0.936493	-0.570719	0.477448
O14	O	0.826775	-0.570713	0.367705
O15	O	1.019659	-0.441675	0.477472
O16	O	1.019613	-0.741048	0.284577
O17	O	0.936467	-0.741042	0.367704
C18	C	0.802232	-0.506188	0.326138
C19	C	0.727000	-0.506208	0.326144
C20	C	0.265223	-0.439127	0.369552
C21	C	0.335911	-0.439129	0.369547
C22	C	0.371238	-0.506214	0.326185
C23	C	0.335873	-0.573309	0.282829
C24	C	0.265186	-0.573312	0.282838
C25	C	0.620947	-0.573301	0.282793
C26	C	0.691639	-0.573291	0.282786
C27	C	0.691672	-0.439119	0.369502
C28	C	0.620985	-0.439121	0.369511
C29	C	0.585626	-0.506220	0.326158
C30	C	0.508977	-0.506218	0.326165
C31	C	0.447886	-0.506211	0.326174
C32	C	0.978051	-0.779166	0.326152
C33	C	0.978096	-0.895943	0.326169
C34	C	1.064597	-0.895789	0.412819
C35	C	1.107869	-0.950573	0.456149
C36	C	1.107909	-1.060295	0.456164
C37	C	1.064672	-1.115235	0.412845
C38	C	1.021400	-1.060451	0.369515
C39	C	1.021366	-0.950727	0.369504
C40	C	0.934897	-1.060604	0.282870
C41	C	0.934859	-0.950883	0.282851
C42	C	0.891659	-1.115544	0.239551
C43	C	0.848390	-1.060760	0.196217
C44	C	0.848352	-0.951032	0.196204
C45	C	0.891587	-0.896098	0.239521
C46	C	1.154631	-0.506210	0.326188
C47	C	1.229863	-0.506215	0.326198
C48	C	0.978074	-0.506197	0.502705
C49	C	0.978068	-0.506196	0.577937
C50	C	0.978144	-0.232165	0.326189
C51	C	0.978168	-0.115388	0.326200
C52	C	1.021368	-0.573409	1.039726
C53	C	1.021362	-0.573410	0.969037
C54	C	0.978088	-0.506217	0.933699
C55	C	0.934812	-0.439026	0.969053
C56	C	0.934815	-0.439032	1.039740
C57	C	0.934798	-0.439004	0.683980
C58	C	0.934800	-0.439002	0.613288
C59	C	1.021345	-0.573383	0.613277
C60	C	1.021348	-0.573388	0.683964
C61	C	0.978070	-0.506202	0.719312
C62	C	0.978076	-0.506203	0.795960
C63	C	0.978085	-0.506210	0.857052
C64	C	0.978095	-0.506223	1.150307
C65	C	0.978097	-0.506222	1.075075
H66	H	0.236397	-0.627944	0.247536
F67	F	0.802292	-0.892735	0.150088
H68	H	0.592225	-0.384490	0.404819
F69	F	0.373541	-0.367730	0.415693
H70	H	0.720470	-0.384487	0.404804
F71	F	0.729235	-0.644696	0.236631
F72	F	0.227631	-0.367719	0.415702
F73	F	0.583324	-0.644690	0.236638
F74	F	0.888762	-0.367517	1.077361
H75	H	0.891563	-0.806757	0.239511
H76	H	0.813186	-1.105501	0.160954
H77	H	0.364642	-0.627935	0.247525
F78	F	0.888713	-0.367536	0.721591
F79	F	0.888739	-0.367483	0.575680
H80	H	1.064575	-0.806448	0.412805
F81	F	1.067431	-0.644921	1.077329
F82	F	1.067418	-0.644919	0.931419
H83	H	1.143071	-0.905832	0.491420
H84	H	1.056589	-0.628100	0.712733
H85	H	1.143138	-1.104900	0.491454
F86	F	1.067405	-0.644892	0.575652
H87	H	1.064702	-1.204576	0.412867
F88	F	0.891775	-1.232320	0.239496
F89	F	0.888762	-0.367504	0.931442
