data_functionalizedCrystal
_audit_creation_method	'MofGen! by Chris Wilmer'
_symmetry_space_group_name_H-M	'P1'
_symmetry_Int_Tables_number	1
_symmetry_cell_setting	triclinic
loop_
_symmetry_equiv_pos_as_xyz
  x,y,z
_cell_length_a	6.817900
_cell_length_b	11.353959
_cell_length_c	12.908943
_cell_angle_alpha	105.957120
_cell_angle_beta	100.860631
_cell_angle_gamma	107.526623
loop_
_atom_site_label
_atom_site_type_symbol
_atom_site_fract_x
_atom_site_fract_y
_atom_site_fract_z
V1	V	-4.033109	-0.179109	-0.361558
O2	O	-3.982191	0.010285	-0.320537
O3	O	-4.021429	-0.356757	-0.391917
O4	O	-3.970667	-0.175618	-0.504266
O5	O	-4.033304	-0.172108	-0.207410
V6	V	-4.513799	-0.156542	-0.339132
O7	O	-4.300583	-0.228611	-0.410750
O8	O	-4.696522	-0.107040	-0.289939
O9	O	-4.302273	0.021105	-0.308772
O10	O	-4.682114	-0.345936	-0.380152
O11	O	-4.631001	-0.163543	-0.493279
O12	O	-4.353035	-0.160034	-0.196423
C13	C	-3.875817	-0.400087	-0.394685
C14	C	-3.947460	-0.545311	-0.420459
C15	C	-3.946121	-0.592784	-0.337035
C16	C	-4.020167	-0.742881	-0.363672
C17	C	-3.811064	-0.169024	-0.537996
C18	C	-3.841537	-0.167345	-0.654877
C19	C	-4.264729	-0.177153	-0.887624
C20	C	-4.293371	-0.175576	-0.997444
C21	C	-3.927460	-0.162605	-0.984337
C22	C	-3.898818	-0.164182	-0.874517
C23	C	-4.067462	-0.171458	-0.826165
C24	C	-4.038823	-0.173044	-0.716345
C25	C	-3.672909	-0.160063	-0.703238
C26	C	-3.701551	-0.158486	-0.813058
C27	C	-4.111229	0.064428	-0.306003
C28	C	-4.018823	0.209652	-0.280236
C29	C	-4.175981	-0.166632	-0.162689
C30	C	-4.124746	-0.168304	-0.045806
H31	H	-4.003430	-0.615789	-0.511601
O32	O	-3.481477	-0.154796	-0.643538
C33	C	-3.297217	-0.262927	-0.547351
C34	C	-3.514138	-0.268982	-0.614884
H35	H	-3.323541	-0.355247	-0.524185
H36	H	-3.225763	-0.171651	-0.467116
H37	H	-3.181715	-0.257433	-0.600834
H38	H	-3.629799	-0.274525	-0.561495
H39	H	-3.585415	-0.360243	-0.695126
H40	H	-4.176146	-0.178975	-0.676981
H41	H	-3.890169	-0.522307	-0.245894
H42	H	-3.564251	-0.152557	-0.852440
O43	O	-4.086907	-0.827126	-0.472347
C44	C	-4.221770	-1.053547	-0.597983
C45	C	-4.146192	-0.958286	-0.474862
H46	H	-4.269765	-1.159611	-0.600059
H47	H	-4.085384	-1.030777	-0.637578
H48	H	-4.366266	-1.040766	-0.647474
H49	H	-4.001740	-0.971013	-0.425279
H50	H	-4.282703	-0.981081	-0.435355
O51	O	-3.951913	-0.706099	-0.171554
C52	C	-3.817317	-0.479691	-0.045922
C53	C	-3.892990	-0.574950	-0.169048
H54	H	-3.769700	-0.373638	-0.043857
H55	H	-3.672659	-0.492285	0.003619
H56	H	-3.953733	-0.502644	-0.006375
H57	H	-3.756720	-0.552057	-0.208694
H58	H	-4.037708	-0.562337	-0.218508
H59	H	-4.402054	-0.183092	-0.848260
O60	O	-4.484993	-0.181285	-1.057316
C61	C	-4.790040	-0.300710	-1.224048
C62	C	-4.573031	-0.294389	-1.156369
H63	H	-4.861305	-0.392161	-1.304134
H64	H	-4.763974	-0.208572	-1.247477
H65	H	-4.905575	-0.306116	-1.170583
H66	H	-4.457386	-0.289026	-1.209769
H67	H	-4.599265	-0.386526	-1.132928
H68	H	-3.790163	-0.156672	-1.023722
