data_functionalizedCrystal
_audit_creation_method	'MofGen! by Chris Wilmer'
_symmetry_space_group_name_H-M	'P1'
_symmetry_Int_Tables_number	1
_symmetry_cell_setting	triclinic
loop_
_symmetry_equiv_pos_as_xyz
  x,y,z
_cell_length_a	20.453700
_cell_length_b	17.110477
_cell_length_c	10.992410
_cell_angle_alpha	84.845976
_cell_angle_beta	108.764651
_cell_angle_gamma	80.939702
loop_
_atom_site_label
_atom_site_type_symbol
_atom_site_fract_x
_atom_site_fract_y
_atom_site_fract_z
V1	V	1.355081	-0.109483	0.400427
O2	O	1.358244	0.005261	0.392975
O3	O	1.331554	-0.217086	0.397525
O4	O	1.347863	-0.107799	0.575142
O5	O	1.341821	-0.104783	0.214128
V6	V	1.516094	-0.095758	0.378164
O7	O	1.442523	-0.139589	0.449263
O8	O	1.578718	-0.065652	0.329329
O9	O	1.465219	0.011845	0.381067
O10	O	1.552064	-0.210502	0.385617
O11	O	1.568487	-0.100458	0.564464
O12	O	1.448910	-0.097442	0.203449
V13	V	1.021748	-0.109483	0.400427
O14	O	1.024910	0.005261	0.392975
O15	O	0.998220	-0.217086	0.397525
O16	O	1.014530	-0.107799	0.575142
O17	O	1.008488	-0.104783	0.214128
V18	V	1.182760	-0.095758	0.378164
O19	O	1.109190	-0.139589	0.449263
O20	O	1.245384	-0.065652	0.329329
O21	O	1.131886	0.011845	0.381067
O22	O	1.218731	-0.210502	0.385617
O23	O	1.235153	-0.100458	0.564464
O24	O	1.115576	-0.097442	0.203449
V25	V	1.688415	-0.109483	0.400427
O26	O	1.691577	0.005261	0.392975
O27	O	1.664887	-0.217086	0.397525
O28	O	1.681197	-0.107799	0.575142
O29	O	1.675154	-0.104783	0.214128
V30	V	1.849427	-0.095758	0.378164
O31	O	1.775856	-0.139589	0.449263
O32	O	1.912051	-0.065652	0.329329
O33	O	1.798553	0.011845	0.381067
O34	O	1.885397	-0.210502	0.385617
O35	O	1.901820	-0.100458	0.564464
O36	O	1.782243	-0.097442	0.203449
C37	C	1.277800	-0.243317	0.391166
C38	C	1.285718	-0.331284	0.389957
C39	C	1.350193	-0.376641	0.395792
C40	C	1.357630	-0.459296	0.394664
C41	C	1.300590	-0.496591	0.387692
C42	C	1.236111	-0.451228	0.381860
C43	C	1.228676	-0.368575	0.382998
C44	C	1.320001	-0.745946	0.383946
C45	C	1.327440	-0.828604	0.382805
C46	C	1.448959	-0.836667	0.395611
C47	C	1.441517	-0.754012	0.396740
C48	C	1.377040	-0.708657	0.390915
C49	C	1.308190	-0.581077	0.386534
C50	C	1.369443	-0.624173	0.392082
C51	C	1.298604	-0.103909	0.617733
C52	C	1.319748	-0.103244	0.760562
C53	C	1.406753	0.038072	0.387423
C54	C	1.391915	0.126038	0.388640
C55	C	1.385949	-0.101334	0.160852
C56	C	1.357885	-0.101995	0.018022
C57	C	0.944466	-0.243317	0.391166
C58	C	0.952385	-0.331284	0.389957
C59	C	1.276360	-0.097186	0.955695
C60	C	1.254358	-0.098206	0.807210
C61	C	1.374113	-0.181267	0.837548
C62	C	1.395654	-0.180577	0.986116
C63	C	1.377450	-0.029498	0.948313
C64	C	1.353935	-0.029128	0.799300
C65	C	0.965271	-0.103909	0.617733
C66	C	0.986415	-0.103244	0.760562
C67	C	1.073420	0.038072	0.387423
C68	C	1.058582	0.126038	0.388640
C69	C	1.052616	-0.101334	0.160852
C70	C	1.024551	-0.101995	0.018022
C71	C	1.611133	-0.243317	0.391166
C72	C	1.619051	-0.331284	0.389957
C73	C	1.631938	-0.103909	0.617733
C74	C	1.653082	-0.103244	0.760562
C75	C	1.740087	0.038072	0.387423
C76	C	1.725248	0.126038	0.388640
C77	C	1.719282	-0.101334	0.160852
C78	C	1.691218	-0.101995	0.018022
C79	C	1.016866	-0.376629	0.395803
C80	C	1.024319	-0.459285	0.394687
C81	C	0.967287	-0.496595	0.387716
C82	C	0.902801	-0.451244	0.381874
C83	C	0.895351	-0.368590	0.382999
C84	C	1.109096	0.171383	0.382797
C85	C	1.095158	0.254039	0.383920
C86	C	1.030708	0.291348	0.390893
C87	C	0.980189	0.245998	0.396732
C88	C	0.994125	0.163344	0.395601
C89	C	1.683533	-0.376629	0.395803
C90	C	1.690985	-0.459285	0.394687
C91	C	1.633954	-0.496595	0.387716
C92	C	1.569468	-0.451244	0.381874
C93	C	1.562018	-0.368590	0.382999
C94	C	1.775763	0.171383	0.382797
C95	C	1.761825	0.254039	0.383920
C96	C	1.697375	0.291348	0.390893
C97	C	1.646856	0.245998	0.396732
C98	C	1.660792	0.163344	0.395601
C99	C	0.943027	-0.097186	0.955695
C100	C	0.921024	-0.098206	0.807210
C101	C	1.040780	-0.181267	0.837548
C102	C	1.062320	-0.180577	0.986116
C103	C	1.044116	-0.029498	0.948313
C104	C	1.020602	-0.029128	0.799300
C105	C	1.609693	-0.097186	0.955695
C106	C	1.587691	-0.098206	0.807210
C107	C	1.707446	-0.181267	0.837548
C108	C	1.728987	-0.180577	0.986116
C109	C	1.710783	-0.029498	0.948313
C110	C	1.687269	-0.029128	0.799300
H111	H	1.396640	-0.346281	0.401457
F112	F	1.426252	-0.507565	0.400873
H113	H	1.523036	-0.481634	0.376198
F114	F	1.502222	-0.714323	0.404121
H115	H	1.686036	0.358650	0.391813
H116	H	1.176176	-0.331647	0.378252
F117	F	1.015885	0.379317	0.392096
H118	H	1.103355	-0.032333	0.989149
F119	F	1.517577	-0.884943	0.401810
F120	F	1.788211	-0.033201	1.001692
H121	H	1.267500	-0.709027	0.379195
F122	F	0.940356	0.115093	0.401823
F123	F	1.844361	0.131691	0.375376
H124	H	1.594380	0.276388	0.402409
F125	F	1.140292	-0.189430	1.041825
H126	H	1.743497	-0.496199	0.399441
F127	F	0.885816	-0.167240	0.774666
F128	F	0.842108	-0.490963	0.374451
F129	F	1.175406	-0.490923	0.374448
H130	H	0.842841	-0.331675	0.378232
H131	H	1.640030	-0.563898	0.386801
H132	H	0.927713	0.276388	0.402409
F133	F	1.148933	0.302289	0.377707
H134	H	1.213243	-0.042104	0.753954
F135	F	1.255334	-0.165272	1.018314
H136	H	1.048943	-0.235470	1.032303
F137	F	1.607023	0.115093	0.401823
H138	H	1.509507	-0.331675	0.378232
H139	H	1.802968	0.290952	0.379167
H140	H	1.227418	-0.151019	0.782315
H141	H	1.161579	0.141017	0.377120
H142	H	1.715610	-0.235470	1.032303
F143	F	0.867269	-0.024888	0.737598
F144	F	0.902975	-0.023292	0.980245
F145	F	1.744241	-0.336938	0.403230
F146	F	1.092954	-0.507536	0.400900
F147	F	1.677501	0.047945	0.975043
H148	H	0.926942	-0.149276	1.003608
F149	F	1.105031	-0.189771	0.799894
H150	H	1.017316	-0.236295	0.811860
H151	H	1.280993	-0.858970	0.377158
F152	F	1.636109	0.046315	0.730988
F153	F	1.806958	-0.189430	1.041825
H154	H	0.973363	-0.563898	0.386801
H155	H	1.018651	0.029751	0.968761
F156	F	0.969443	0.046315	0.730988
F157	F	1.082695	-0.027924	0.756797
H158	H	1.382276	-0.235470	1.032303
H159	H	1.546576	-0.042104	0.753954
F160	F	1.430147	-0.584481	0.399509
H161	H	1.579053	-0.040699	0.974609
H162	H	1.350649	-0.236295	0.811860
F163	F	1.749362	-0.027924	0.756797
H164	H	1.593609	-0.149276	1.003608
F165	F	1.552483	-0.167240	0.774666
F166	F	1.771697	-0.189771	0.799894
F167	F	1.236308	-0.023292	0.980245
F168	F	1.247486	-0.620775	0.379109
F169	F	1.473625	-0.189430	1.041825
H170	H	1.683982	-0.236295	0.811860
H171	H	1.423268	-0.187771	0.808735
H172	H	1.351985	0.029751	0.968761
H173	H	1.314795	0.028590	0.747030
H174	H	1.401443	-0.028211	0.766790
F175	F	1.454877	-0.033201	1.001692
H176	H	1.063311	-0.346262	0.401471
