data_functionalizedCrystal
_audit_creation_method	'MofGen! by Chris Wilmer'
_symmetry_space_group_name_H-M	'P1'
_symmetry_Int_Tables_number	1
_symmetry_cell_setting	triclinic
loop_
_symmetry_equiv_pos_as_xyz
  x,y,z
_cell_length_a	14.908993
_cell_length_b	16.625545
_cell_length_c	14.908308
_cell_angle_alpha	93.266177
_cell_angle_beta	96.370715
_cell_angle_gamma	93.327136
loop_
_atom_site_label
_atom_site_type_symbol
_atom_site_fract_x
_atom_site_fract_y
_atom_site_fract_z
Zn1	Zn	1.354211	-0.273367	-0.432047
Zn2	Zn	1.854211	0.226633	0.067953
Zn3	Zn	1.362836	-0.399963	-0.280694
Zn4	Zn	1.862836	0.100037	0.219306
Zn5	Zn	1.211585	-0.273406	-0.289425
Zn6	Zn	1.711585	0.226594	0.210575
Zn7	Zn	1.202805	-0.416425	-0.440725
Zn8	Zn	1.702805	0.083575	0.059275
O9	O	1.282859	-0.340790	-0.360722
O10	O	1.782859	0.159210	0.139278
O11	O	1.482018	-0.283255	-0.404684
O12	O	1.982018	0.216745	0.095316
O13	O	1.350056	-0.376302	-0.155191
O14	O	1.850056	0.123698	0.344809
O15	O	1.230569	-0.160566	-0.308366
O16	O	1.730569	0.339434	0.191634
O17	O	1.488355	-0.376264	-0.293485
O18	O	1.988355	0.123736	0.206515
O19	O	1.335356	-0.160538	-0.413150
O20	O	1.835356	0.339462	0.086850
O21	O	1.238932	-0.283321	-0.161606
O22	O	1.738932	0.216679	0.338394
O23	O	1.083757	-0.299283	-0.316781
O24	O	1.583757	0.200717	0.183219
O25	O	1.215606	-0.404321	-0.566235
O26	O	1.715606	0.095679	-0.066235
O27	O	1.077307	-0.404358	-0.427940
O28	O	1.577307	0.095642	0.072060
O29	O	1.326843	-0.299218	-0.559859
O30	O	1.826843	0.200782	-0.059859
O31	O	1.341543	-0.514981	-0.301900
O32	O	1.841543	-0.014981	0.198100
O33	O	1.223969	-0.527076	-0.419474
O34	O	1.723969	-0.027076	0.080526
C35	C	1.047689	-0.353612	-0.374250
C36	C	1.547689	0.146388	0.125750
C37	C	0.947081	-0.359117	-0.380059
C38	C	1.447081	0.140883	0.119941
C39	C	0.764684	-0.259902	-0.275386
C40	C	1.264684	0.240098	0.224614
C41	C	0.670154	-0.265072	-0.280840
C42	C	1.170154	0.234928	0.219160
C43	C	0.663490	-0.374632	-0.396418
C44	C	1.163490	0.125368	0.103582
C45	C	0.758020	-0.369461	-0.390963
C46	C	1.258020	0.130539	0.109037
C47	C	0.808614	-0.312094	-0.330446
C48	C	1.308614	0.187906	0.169554
C49	C	0.903145	-0.306920	-0.324996
C50	C	1.403145	0.193080	0.175004
C51	C	0.896480	-0.416483	-0.440569
C52	C	1.396480	0.083517	0.059431
C53	C	0.801950	-0.421653	-0.446024
C54	C	1.301950	0.078347	0.053976
C55	C	1.282762	-0.550285	-0.360700
C56	C	1.782762	-0.050285	0.139300
C57	C	1.282802	-0.639905	-0.360715
C58	C	1.782802	-0.139905	0.139285
C59	C	1.282836	-0.712686	-0.360731
C60	C	1.782836	-0.212686	0.139269
C61	C	1.282888	-0.803993	-0.360748
C62	C	1.782888	-0.303993	0.139252
C63	C	1.282934	-0.876767	-0.360757
C64	C	1.782934	-0.376767	0.139243
C65	C	1.282985	-0.968080	-0.360773
C66	C	1.782985	-0.468080	0.139227
C67	C	1.518947	-0.327919	-0.347142
C68	C	2.018947	0.172081	0.152858
C69	C	1.619554	-0.322434	-0.341355
C70	C	2.119554	0.177566	0.158645
C71	C	1.269283	-0.353601	-0.596807
C72	C	1.769283	0.146399	-0.096807
C73	C	1.263498	-0.359061	-0.697412
C74	C	1.763498	0.140939	-0.197412
C75	C	1.282980	-0.130477	-0.360764
C76	C	1.782980	0.369523	0.139236
C77	C	1.283031	-0.040854	-0.360781
C78	C	1.783031	0.459146	0.139219
C79	C	1.368455	-0.259856	-0.879822
C80	C	1.868455	0.240144	-0.379822
C81	C	1.363022	-0.264983	-0.974349
C82	C	1.863022	0.235017	-0.474349
C83	C	1.247195	-0.374436	-0.980995
C84	C	1.747195	0.125564	-0.480995
C85	C	1.252628	-0.369310	-0.886468
C86	C	1.752628	0.130690	-0.386468
C87	C	1.313261	-0.312019	-0.835885
C88	C	1.813261	0.187981	-0.335885
C89	C	1.318698	-0.306896	-0.741355
C90	C	1.818698	0.193104	-0.241355
C91	C	1.202867	-0.416345	-0.748003
C92	C	1.702867	0.083655	-0.248003
C93	C	1.197434	-0.421472	-0.842531
C94	C	1.697434	0.078528	-0.342531
C95	C	1.296435	-0.327968	-0.125554
C96	C	1.796435	0.172032	0.374446
C97	C	1.302395	-0.322272	-0.024939
C98	C	1.802395	0.177728	0.475061
H99	H	0.634390	-0.222571	-0.236005
H100	H	1.134390	0.277429	0.263995
O101	O	1.416507	-0.214236	-1.017077
O102	O	1.916507	0.285764	-0.517077
C103	C	1.422603	-0.110528	-1.123155
C104	C	1.922603	0.389472	-0.623155
C105	C	1.361926	-0.167948	-1.074814
C106	C	1.861926	0.332052	-0.574814
H107	H	1.378499	-0.073101	-1.169860
H108	H	1.878499	0.426899	-0.669860
H109	H	1.466850	-0.068646	-1.070801
H110	H	1.966850	0.431354	-0.570801
H111	H	1.467392	-0.147375	-1.164640
H112	H	1.967392	0.352625	-0.664640
H113	H	1.317082	-0.131166	-1.033331
H114	H	1.817082	0.368834	-0.533331
H115	H	1.317740	-0.209831	-1.127213
H116	H	1.817740	0.290169	-0.627213
H117	H	0.622281	-0.421344	-0.445680
H118	H	1.122281	0.078656	0.054320
O119	O	0.813805	-0.204261	-0.216477
O120	O	1.313805	0.295739	0.283523
C121	C	0.851531	-0.154954	-0.060926
C122	C	1.351531	0.345046	0.439074
C123	C	0.795868	-0.218025	-0.127540
C124	C	1.295868	0.281975	0.372460
H125	H	0.837035	-0.166050	0.010992
H126	H	1.337035	0.333950	0.510992
H127	H	0.926655	-0.160227	-0.066407
H128	H	1.426655	0.339773	0.433593
H129	H	0.832065	-0.091849	-0.078061
H130	H	1.332065	0.408151	0.421939
H131	H	0.815256	-0.281158	-0.110448
H132	H	1.315256	0.218842	0.389552
H133	H	0.720758	-0.212681	-0.122046
H134	H	1.220758	0.287319	0.377954
H135	H	0.760744	-0.468362	-0.495292
H136	H	1.260744	0.031638	0.004708
H137	H	0.944337	-0.260204	-0.275726
H138	H	1.444337	0.239796	0.224274
H139	H	0.932257	-0.458977	-0.485408
H140	H	1.432257	0.041023	0.014592
O141	O	1.377613	-0.251175	-0.692355
O142	O	1.877613	0.248825	-0.192355
C143	C	1.491957	-0.143181	-0.695743
C144	C	1.991957	0.356819	-0.195743
C145	C	1.425261	-0.206239	-0.751342
C146	C	1.925261	0.293761	-0.251342
H147	H	1.530511	-0.106844	-0.743409
H148	H	2.030511	0.393156	-0.243409
H149	H	1.453006	-0.100834	-0.653908
H150	H	1.953006	0.399166	-0.153908
H151	H	1.541776	-0.175229	-0.648735
H152	H	2.041776	0.324771	-0.148735
H153	H	1.375427	-0.174260	-0.798399
H154	H	1.875427	0.325740	-0.298399
H155	H	1.464272	-0.248582	-0.793116
H156	H	1.964272	0.251418	-0.293116
O157	O	1.427375	-0.204141	-0.830818
O158	O	1.927375	0.295859	-0.330818
C159	C	1.541736	-0.096160	-0.834196
C160	C	2.041736	0.403840	-0.334196
C161	C	1.475033	-0.159208	-0.889801
C162	C	1.975033	0.340792	-0.389801
H163	H	1.580299	-0.059826	-0.881859
H164	H	2.080299	0.440174	-0.381859
H165	H	1.502790	-0.053808	-0.792361
H166	H	2.002790	0.446192	-0.292361
H167	H	1.591547	-0.128215	-0.787188
H168	H	2.091547	0.371785	-0.287188
H169	H	1.425206	-0.127221	-0.936858
H170	H	1.925206	0.372779	-0.436858
H171	H	1.514038	-0.201555	-0.931576
H172	H	2.014038	0.298445	-0.431576
O173	O	1.188364	-0.430050	-1.030276
O174	O	1.688364	0.069950	-0.530276
C175	C	1.128596	-0.486386	-1.178855
C176	C	1.628596	0.013614	-0.678855
C177	C	1.195283	-0.423386	-1.123154
C178	C	1.695283	0.076614	-0.623154
H179	H	1.134153	-0.481009	-1.253959
H180	H	1.634153	0.018991	-0.753959
H181	H	1.145506	-0.549559	-1.159430
H182	H	1.645506	-0.049559	-0.659430
H183	H	1.056705	-0.475194	-1.164407
H184	H	1.556705	0.024806	-0.664407
H185	H	1.267197	-0.434504	-1.137573
H186	H	1.767197	0.065496	-0.637573
H187	H	1.178295	-0.360235	-1.142589
H188	H	1.678295	0.139765	-0.642589
O189	O	1.138615	-0.477098	-0.891806
O190	O	1.638615	0.022902	-0.391806
C191	C	1.078870	-0.533471	-1.040377
C192	C	1.578870	-0.033471	-0.540377
C193	C	1.145535	-0.470447	-0.984686
C194	C	1.645535	0.029553	-0.484686
H195	H	1.084428	-0.528103	-1.115482
H196	H	1.584428	-0.028103	-0.615482
H197	H	1.095800	-0.596634	-1.020936
H198	H	1.595800	-0.096634	-0.520936
H199	H	1.006973	-0.522294	-1.025937
H200	H	1.506973	-0.022294	-0.525937
H201	H	1.217455	-0.481549	-0.999098
H202	H	1.717455	0.018451	-0.499098
H203	H	1.128527	-0.407305	-1.004136
H204	H	1.628527	0.092695	-0.504136
H205	H	1.157926	-0.458822	-0.712220
H206	H	1.657926	0.041178	-0.212220
