data_functionalizedCrystal
_audit_creation_method	'MofGen! by Chris Wilmer'
_symmetry_space_group_name_H-M	'P1'
_symmetry_Int_Tables_number	1
_symmetry_cell_setting	triclinic
loop_
_symmetry_equiv_pos_as_xyz
  x,y,z
_cell_length_a	8.497374
_cell_length_b	12.759399
_cell_length_c	12.759401
_cell_angle_alpha	90.016641
_cell_angle_beta	89.998247
_cell_angle_gamma	89.991562
loop_
_atom_site_label
_atom_site_type_symbol
_atom_site_fract_x
_atom_site_fract_y
_atom_site_fract_z
Zn1	Zn	0.891958	0.418406	-1.606064
Zn2	Zn	0.628160	0.594052	-1.606013
Zn3	Zn	0.628185	0.418393	-1.430422
Zn4	Zn	0.891892	0.594048	-1.430354
O5	O	0.760048	0.506225	-1.518213
O6	O	0.856982	0.441713	-1.753079
O7	O	0.407401	0.570747	-1.582728
O8	O	0.663213	0.271373	-1.453771
O9	O	0.663171	0.570760	-1.753041
O10	O	0.857005	0.271383	-1.582815
O11	O	0.407419	0.441691	-1.453722
O12	O	0.663149	0.441686	-1.283392
O13	O	1.112663	0.570752	-1.453655
O14	O	0.856893	0.570739	-1.283342
O15	O	1.112711	0.441709	-1.582749
O16	O	0.663107	0.741073	-1.582661
O17	O	0.856869	0.741069	-1.453605
C18	C	0.760017	0.506212	-1.245246
C19	C	0.760041	0.506232	-1.128469
C20	C	0.760013	0.779192	-1.518149
C21	C	0.760050	0.895969	-1.518217
C22	C	0.760081	0.506238	-1.792246
C23	C	0.760095	0.506244	-1.909023
C24	C	1.171529	0.506226	-1.518205
C25	C	1.350173	0.506237	-1.518208
C26	C	0.760119	0.232191	-1.518307
C27	C	0.760149	0.115415	-1.518346
C28	C	0.659273	0.950797	-1.585494
C29	C	0.659326	1.060521	-1.585561
C30	C	0.860938	1.060578	-1.451067
C31	C	0.860891	0.950856	-1.451006
C32	C	0.860765	0.573532	-1.073609
C33	C	0.860796	0.573536	-0.963885
C34	C	0.659366	0.438937	-0.963891
C35	C	0.659344	0.438928	-1.073613
H36	H	0.577164	0.906111	-1.640223
Br37	Br	0.522559	1.134928	-1.676874
H38	H	0.943037	1.105281	-1.396344
Br39	Br	0.997428	0.664869	-1.148053
Br40	Br	0.997507	0.664871	-0.889435
H41	H	0.942964	0.906212	-1.396221
H42	H	0.577323	0.384118	-1.118282
Br43	Br	0.522712	0.347601	-0.889438
