data_functionalizedCrystal
_audit_creation_method	'MofGen! by Chris Wilmer'
_symmetry_space_group_name_H-M	'P1'
_symmetry_Int_Tables_number	1
_symmetry_cell_setting	triclinic
loop_
_symmetry_equiv_pos_as_xyz
  x,y,z
_cell_length_a	19.805407
_cell_length_b	18.050590
_cell_length_c	19.805399
_cell_angle_alpha	90.027426
_cell_angle_beta	90.019573
_cell_angle_gamma	90.018553
loop_
_atom_site_label
_atom_site_type_symbol
_atom_site_fract_x
_atom_site_fract_y
_atom_site_fract_z
Zn1	Zn	1.034773	-0.295677	0.382720
Zn2	Zn	1.534773	0.204323	0.882720
Zn3	Zn	1.034703	-0.419869	0.269532
Zn4	Zn	1.534703	0.080131	0.769532
Zn5	Zn	0.921587	-0.295697	0.269545
Zn6	Zn	1.421587	0.204303	0.769545
Zn7	Zn	0.921566	-0.419829	0.382679
Zn8	Zn	1.421566	0.080171	0.882679
O9	O	0.978157	-0.357768	0.326119
O10	O	1.478157	0.142232	0.826119
O11	O	1.129480	-0.312159	0.367718
O12	O	1.629480	0.187841	0.867718
O13	O	1.019678	-0.403422	0.174817
O14	O	1.519678	0.096578	0.674817
O15	O	0.936639	-0.191770	0.284580
O16	O	1.436639	0.308230	0.784580
O17	O	1.129429	-0.403402	0.284559
O18	O	1.629429	0.096598	0.784559
O19	O	1.019796	-0.191755	0.367730
O20	O	1.519796	0.308245	0.867730
O21	O	0.936572	-0.312194	0.174827
O22	O	1.436572	0.187806	0.674827
O23	O	0.826868	-0.312156	0.284540
O24	O	1.326868	0.187844	0.784540
O25	O	0.936604	-0.403335	0.477401
O26	O	1.436604	0.096665	0.977401
O27	O	0.826853	-0.403355	0.367660
O28	O	1.326853	0.096645	0.867660
O29	O	1.019776	-0.312121	0.477432
O30	O	1.519776	0.187879	0.977432
O31	O	1.019657	-0.523788	0.284519
O32	O	1.519657	-0.023788	0.784519
O33	O	0.936536	-0.523759	0.367648
O34	O	1.436536	-0.023759	0.867648
C35	C	0.802301	-0.357754	0.326097
C36	C	1.302301	0.142246	0.826097
C37	C	0.727069	-0.357766	0.326104
C38	C	1.227069	0.142234	0.826104
C39	C	0.691735	-0.405325	0.369314
C40	C	1.191735	0.094675	0.869314
C41	C	0.621046	-0.405326	0.369324
C42	C	1.121046	0.094674	0.869324
C43	C	0.585694	-0.357771	0.326119
C44	C	1.085694	0.142229	0.826119
C45	C	0.621033	-0.310207	0.282907
C46	C	1.121033	0.189793	0.782907
C47	C	0.691720	-0.310203	0.282902
C48	C	1.191720	0.189797	0.782902
C49	C	0.335960	-0.310224	0.282930
C50	C	0.835960	0.189776	0.782930
C51	C	0.265268	-0.310233	0.282937
C52	C	0.765268	0.189767	0.782937
C53	C	0.265286	-0.405347	0.369352
C54	C	0.765286	0.094653	0.869352
C55	C	0.335973	-0.405342	0.369346
C56	C	0.835973	0.094658	0.869346
C57	C	0.371306	-0.357776	0.326137
C58	C	0.871306	0.142224	0.826137
C59	C	0.447955	-0.357774	0.326128
C60	C	0.947955	0.142226	0.826128
C61	C	0.509047	-0.357776	0.326124
C62	C	1.009047	0.142224	0.826124
C63	C	0.978105	-0.550720	0.326092
C64	C	1.478105	-0.050720	0.826092
C65	C	0.978145	-0.633266	0.326103
C66	C	1.478145	-0.133266	0.826103
C67	C	1.023440	-0.832705	0.280961
C68	C	1.523440	-0.332705	0.780961
C69	C	1.039973	-0.882039	0.342736
C70	C	1.539973	-0.382039	0.842736
C71	C	0.978183	-0.784396	0.326130
C72	C	1.478183	-0.284396	0.826130
C73	C	0.961720	-0.882144	0.264383
C74	C	1.461720	-0.382144	0.764383
C75	C	0.978222	-0.930381	0.326151
C76	C	1.478222	-0.430381	0.826151
C77	C	0.994748	-0.832643	0.387938
C78	C	1.494748	-0.332643	0.887938
C79	C	0.916466	-0.832743	0.309543
C80	C	1.416466	-0.332743	0.809543
C81	C	0.932975	-0.882055	0.371361
C82	C	1.432975	-0.382055	0.871361
C83	C	0.978163	-0.700298	0.326118
C84	C	1.478163	-0.200298	0.826118
C85	C	0.978242	-1.014478	0.326171
C86	C	1.478242	-0.514478	0.826171
C87	C	1.154700	-0.357783	0.326142
C88	C	1.654700	0.142217	0.826142
C89	C	1.229932	-0.357789	0.326151
C90	C	1.729932	0.142211	0.826151
C91	C	0.978195	-0.357721	0.502662
C92	C	1.478195	0.142279	1.002662
C93	C	0.978211	-0.357701	0.577894
C94	C	1.478211	0.142299	1.077894
C95	C	0.978228	-0.164062	0.326161
C96	C	1.478228	0.335938	0.826161
C97	C	0.978258	-0.081517	0.326179
C98	C	1.478258	0.418483	0.826179
C99	C	0.978158	-0.357761	0.150263
C100	C	1.478158	0.142239	0.650263
C101	C	0.978273	-0.357572	0.075032
C102	C	1.478273	0.142428	0.575032
C103	C	1.021520	-0.310204	0.613255
C104	C	1.521520	0.189796	1.113255
C105	C	1.021527	-0.310182	0.683944
C106	C	1.521527	0.189818	1.183944
C107	C	0.978228	-0.357662	0.719270
C108	C	1.478228	0.142338	1.219270
C109	C	0.934915	-0.405162	0.683904
C110	C	1.434915	0.094838	1.183904
C111	C	0.934905	-0.405180	0.613217
C112	C	1.434905	0.094820	1.113217
C113	C	0.934953	-0.405093	0.968977
C114	C	1.434953	0.094907	1.468977
C115	C	0.934968	-0.405074	1.039669
C116	C	1.434968	0.094926	1.539669
C117	C	1.021575	-0.310096	1.039704
C118	C	1.521575	0.189904	1.539704
C119	C	1.021565	-0.310113	0.969017
C120	C	1.521565	0.189887	1.469017
C121	C	0.978250	-0.357609	0.933657
C122	C	1.478250	0.142391	1.433657
C123	C	0.978242	-0.357631	0.857009
C124	C	1.478242	0.142369	1.357009
C125	C	0.978239	-0.357645	0.795917
C126	C	1.478239	0.142355	1.295917
H127	H	0.592243	-0.271484	0.247732
H128	H	1.092243	0.228516	0.747732
C129	C	0.374821	-0.257907	0.235400
C130	C	0.874821	0.242093	0.735400
H131	H	0.421983	-0.264705	0.241587
H132	H	0.921983	0.235295	0.741587
H133	H	0.363215	-0.268710	0.189906
H134	H	0.863215	0.231290	0.689906
H135	H	0.363248	-0.208023	0.245394
H136	H	0.863248	0.291977	0.745394
H137	H	0.899632	-0.443850	0.584427
H138	H	1.399632	0.056150	1.084427
H139	H	1.092183	-0.903694	0.356779
H140	H	1.592183	-0.403694	0.856779
C141	C	0.730620	-0.457639	0.416834
C142	C	1.230620	0.042361	0.916834
H143	H	0.777780	-0.450832	0.410638
H144	H	1.277780	0.049168	0.910638
H145	H	0.719059	-0.446841	0.462331
H146	H	1.219059	0.053159	0.962331
H147	H	0.719016	-0.507524	0.406840
H148	H	1.219016	-0.007524	0.906840
C149	C	1.013669	-0.803400	0.458511
C150	C	1.513669	-0.303400	0.958511
H151	H	1.013564	-0.750771	0.458066
H152	H	1.513564	-0.250771	0.958066
H153	H	0.981738	-0.820691	0.490630
H154	H	1.481738	-0.320691	0.990630
H155	H	1.057392	-0.820688	0.470368
H156	H	1.557392	-0.320688	0.970368
H157	H	0.236486	-0.271504	0.247755
H158	H	0.736486	0.228496	0.747755
H159	H	0.894719	-0.903587	0.409612
H160	H	1.394719	-0.403587	0.909612
H161	H	1.056781	-0.271542	0.584498
H162	H	1.556781	0.228458	1.084498
C163	C	0.845959	-0.803459	0.290548
C164	C	1.345959	-0.303459	0.790548
H165	H	0.834313	-0.820378	0.246631
H166	H	1.334313	-0.320378	0.746631
H167	H	0.813709	-0.821090	0.322192
H168	H	1.313709	-0.321090	0.822192
H169	H	0.846361	-0.750833	0.291084
H170	H	1.346361	-0.250833	0.791084
H171	H	0.592280	-0.444054	0.404509
H172	H	1.092280	0.055946	0.904509
C173	C	0.374858	-0.457650	0.416873
C174	C	0.874858	0.042350	0.916873
H175	H	0.343689	-0.485970	0.442614
H176	H	0.843689	0.014030	0.942614
H177	H	0.402416	-0.489969	0.390929
H178	H	0.902416	0.010031	0.890929
H179	H	0.402449	-0.429273	0.446409
H180	H	0.902449	0.070727	0.946409
C181	C	1.075156	-0.803424	0.229415
C182	C	1.575156	-0.303424	0.729415
H183	H	1.119000	-0.820302	0.241321
H184	H	1.619000	-0.320302	0.741321
H185	H	1.063878	-0.821098	0.185655
H186	H	1.563878	-0.321098	0.685655
H187	H	1.074502	-0.750799	0.229481
H188	H	1.574502	-0.250799	0.729481
C189	C	0.942881	-0.911513	0.193831
C190	C	1.442881	-0.411513	0.693831
H191	H	0.975068	-0.894605	0.161789
H192	H	1.475068	-0.394605	0.661789
H193	H	0.942624	-0.964133	0.194441
H194	H	1.442624	-0.464133	0.694441
H195	H	0.899332	-0.893901	0.181731
H196	H	1.399332	-0.393901	0.681731
C197	C	0.730588	-0.257887	0.235372
C198	C	1.230588	0.242113	0.735372
H199	H	0.699411	-0.229569	0.209638
H200	H	1.199411	0.270431	0.709638
H201	H	0.758181	-0.225566	0.261317
H202	H	1.258181	0.274434	0.761317
H203	H	0.758145	-0.286252	0.205828
H204	H	1.258145	0.213748	0.705828
C205	C	1.069170	-0.257938	0.722838
C206	C	1.569170	0.242062	1.222838
H207	H	1.094962	-0.229670	0.691675
H208	H	1.594962	0.270330	1.191675
H209	H	1.043298	-0.225567	0.750415
H210	H	1.543298	0.274433	1.250415
H211	H	1.098655	-0.286350	0.750412
H212	H	1.598655	0.213650	1.250412
H213	H	1.056826	-0.271452	0.940258
H214	H	1.556826	0.228548	1.440258
H215	H	1.056843	-0.271419	1.068503
H216	H	1.556843	0.228581	1.568503
H217	H	0.899705	-0.443739	1.068430
H218	H	1.399705	0.056261	1.568430
C219	C	0.226418	-0.457662	0.416889
C220	C	0.726418	0.042338	0.916889
H221	H	0.179256	-0.450851	0.410712
H222	H	0.679256	0.049149	0.910712
H223	H	0.237985	-0.507545	0.406900
H224	H	0.737985	-0.007545	0.906900
H225	H	0.238028	-0.446854	0.462384
H226	H	0.738028	0.053146	0.962384
H227	H	0.899693	-0.443779	0.940196
H228	H	1.399693	0.056221	1.440196
H229	H	0.899658	-0.443819	0.712672
H230	H	1.399658	0.056181	1.212672
