data_functionalizedCrystal
_audit_creation_method	'MofGen! by Chris Wilmer'
_symmetry_space_group_name_H-M	'P1'
_symmetry_Int_Tables_number	1
_symmetry_cell_setting	triclinic
loop_
_symmetry_equiv_pos_as_xyz
  x,y,z
_cell_length_a	17.038272
_cell_length_b	15.995292
_cell_length_c	15.072220
_cell_angle_alpha	89.986330
_cell_angle_beta	89.999202
_cell_angle_gamma	87.290086
loop_
_atom_site_label
_atom_site_type_symbol
_atom_site_fract_x
_atom_site_fract_y
_atom_site_fract_z
O1	O	0.100556	1.118189	-0.073808
O2	O	0.113048	0.875297	-0.073804
O3	O	-0.007013	0.995300	-0.073799
O4	O	0.220618	0.998187	-0.073813
O5	O	-0.007006	0.995268	0.073766
O6	O	0.113055	0.875266	0.073761
O7	O	0.100563	1.118158	0.073757
Zn8	Zn	0.106810	0.996707	0.097188
Zn9	Zn	0.106801	0.996748	-0.097235
O10	O	0.220624	0.998155	0.073752
C11	C	0.112543	0.844050	-0.000021
C12	C	0.111019	0.750988	-0.000020
C13	C	0.105415	0.412851	-0.000029
C14	C	0.192073	0.442336	-0.000364
C15	C	0.193720	0.539129	-0.000028
C16	C	0.108196	0.580605	-0.000025
C17	C	0.064875	0.548399	0.084241
C18	C	0.063832	0.451534	0.084308
C19	C	0.062055	0.451588	-0.083501
C20	C	0.065266	0.548309	-0.084611
C21	C	0.109763	0.675412	-0.000020
C22	C	0.103846	0.318043	-0.000029
C23	C	-0.036138	0.992658	-0.000016
C24	C	-0.122932	0.984824	-0.000017
C25	C	-0.173042	1.056753	-0.000017
C26	C	-0.254593	1.049387	-0.000025
C27	C	-0.286032	0.970090	-0.000027
C28	C	-0.235915	0.898155	-0.000029
C29	C	-0.154365	0.905522	-0.000028
C30	C	-0.531791	0.944064	-0.000039
C31	C	-0.613347	0.936702	-0.000038
C32	C	-0.632019	1.087934	-0.000035
C33	C	-0.550468	1.095294	-0.000028
C34	C	-0.500358	1.023359	-0.000035
C35	C	-0.369390	0.962559	-0.000033
C36	C	-0.417001	1.030892	-0.000036
C37	C	0.249749	1.000797	-0.000032
C38	C	0.336543	1.008632	-0.000038
N39	N	0.106816	0.996685	0.229877
C40	C	0.101068	1.149405	-0.000028
C41	C	0.102592	1.242467	-0.000035
N42	N	0.106789	0.996776	-0.229924
C43	C	0.106798	0.996746	0.589079
C44	C	0.170825	0.932289	0.551469
C45	C	0.171059	0.932464	0.448643
C46	C	0.106807	0.996715	0.410875
C47	C	0.124608	1.085350	0.448163
C48	C	0.125063	1.084996	0.551021
C49	C	0.024780	0.973334	0.551184
C50	C	0.025328	0.971368	0.448321
C51	C	0.106810	0.996703	0.310161
C52	C	0.106797	0.996764	0.689792
H53	H	0.225292	0.415671	0.059724
N54	N	-0.040743	1.028928	0.414286
H55	H	-0.042542	1.025976	0.347385
H56	H	-0.031607	1.088226	0.433294
H57	H	0.227857	0.559951	0.060477
H58	H	0.160397	0.866394	0.576232
N59	N	0.104747	0.577775	0.167302
H60	H	0.123946	0.527704	0.203436
H61	H	0.066123	0.613378	0.203517
H62	H	-0.672827	1.146499	-0.000031
N63	N	0.098001	0.416739	-0.168108
H64	H	0.142762	0.375482	-0.153183
H65	H	0.118434	0.463957	-0.204674
H66	H	0.079213	1.134702	0.423696
N67	N	-0.647258	0.851171	-0.000041
H68	H	-0.603140	0.806718	-0.000048
H69	H	-0.680689	0.844841	-0.054745
H70	H	-0.491001	0.885489	-0.000044
N71	N	0.238652	0.567558	-0.080042
H72	H	0.257567	0.517181	-0.115850
H73	H	0.285271	0.599330	-0.059853
N74	N	-0.100305	0.827949	-0.000024
H75	H	-0.110410	0.793619	-0.054725
H76	H	-0.110436	0.793660	0.054716
N77	N	0.103580	0.418822	0.167742
H78	H	0.159614	0.436754	0.169165
H79	H	0.103246	0.355704	0.168572
H80	H	0.183740	1.105415	0.422390
H81	H	-0.261519	0.833590	-0.000037
H82	H	-0.391400	1.095455	-0.000054
N83	N	-0.516560	1.180821	-0.000021
H84	H	-0.560680	1.225272	-0.000022
H85	H	-0.483128	1.187186	-0.054722
N86	N	-0.403296	0.877031	-0.000027
H87	H	-0.436714	0.870617	-0.054730
H88	H	-0.436678	0.870653	0.054711
N89	N	0.002108	0.889150	0.585584
H90	H	0.044779	0.865336	0.626088
H91	H	-0.004807	0.849875	0.534011
N92	N	0.007455	0.884936	0.416104
H93	H	0.051942	0.862290	0.377405
H94	H	-0.042913	0.888022	0.380677
H95	H	0.160456	0.866767	0.423434
H96	H	-0.022866	1.020272	0.575505
N97	N	-0.018484	0.584678	0.088412
H98	H	-0.056183	0.537818	0.087583
H99	H	-0.028922	0.622437	0.035584
N100	N	0.236322	0.408424	-0.080410
H101	H	0.200628	0.373615	-0.117234
H102	H	0.283315	0.372508	-0.060234
N103	N	0.204294	1.111131	0.582798
H104	H	0.197308	1.163398	0.620105
H105	H	0.238559	1.122731	0.529945
H106	H	0.000295	0.432457	0.088138
H107	H	0.231347	0.947665	0.577303
H108	H	0.231923	0.948019	0.424025
N109	N	0.107030	0.575913	-0.167193
H110	H	0.153565	0.609199	-0.149896
H111	H	0.069615	0.611893	-0.204563
H112	H	0.002842	0.576834	-0.089698
H113	H	0.080266	1.134767	0.575898
H114	H	-0.001731	0.433051	-0.084068
H115	H	-0.147452	1.121325	-0.000010
H116	H	-0.295390	1.107960	-0.000023
