data_functionalizedCrystal
_audit_creation_method	'MofGen! by Chris Wilmer'
_symmetry_space_group_name_H-M	'P1'
_symmetry_Int_Tables_number	1
_symmetry_cell_setting	triclinic
loop_
_symmetry_equiv_pos_as_xyz
  x,y,z
_cell_length_a	14.044220
_cell_length_b	10.654550
_cell_length_c	9.730223
_cell_angle_alpha	89.996971
_cell_angle_beta	90.000490
_cell_angle_gamma	91.163110
loop_
_atom_site_label
_atom_site_type_symbol
_atom_site_fract_x
_atom_site_fract_y
_atom_site_fract_z
O1	O	0.133225	-1.681221	0.114408
O2	O	0.145918	-1.317018	0.114387
O3	O	0.001551	-1.493653	0.114384
O4	O	0.277592	-1.504586	0.114411
O5	O	0.001560	-1.493653	-0.114196
O6	O	0.145927	-1.317019	-0.114193
O7	O	0.133234	-1.681221	-0.114172
Zn8	Zn	0.139582	-1.499120	-0.150474
Zn9	Zn	0.139570	-1.499119	0.150689
O10	O	0.277601	-1.504587	-0.114169
C11	C	-0.033790	-1.488867	0.000093
C12	C	-0.139110	-1.474592	0.000090
C13	C	0.144991	-1.270127	0.000094
C14	C	0.142202	-1.130403	0.000085
C15	C	0.134161	-1.728113	0.000124
C16	C	0.136950	-1.867836	0.000142
C17	C	-0.331943	-1.448493	0.000108
C18	C	-0.388911	-1.549741	0.000119
C19	C	-0.496210	-1.535219	0.000129
C20	C	-0.224634	-1.463013	0.000098
C21	C	0.312942	-1.509372	0.000125
C22	C	0.418262	-1.523648	0.000137
N23	N	0.139590	-1.499130	-0.356011
C24	C	0.227203	-1.059459	0.000114
C25	C	0.224578	-0.928175	0.000137
C26	C	0.051942	-0.938790	0.000109
C27	C	0.054569	-1.070072	0.000076
C28	C	0.326873	-1.053329	0.000136
C29	C	0.324247	-0.922045	0.000159
C30	C	0.203468	-1.420889	-0.571855
C31	C	0.203484	-1.420891	-0.427972
C32	C	0.075670	-1.577362	-0.427940
C33	C	0.075650	-1.577353	-0.571821
C34	C	0.277263	-1.330556	-0.571872
C35	C	0.277279	-1.330558	-0.427989
N36	N	0.139554	-1.499119	0.356226
H37	H	-0.363754	-1.350913	0.000106
H38	H	-0.357098	-1.647328	0.000217
H39	H	0.354373	-0.879401	-0.098522
H40	H	-0.014647	-1.127830	0.000033
H41	H	-0.019406	-0.889652	0.000123
C42	C	0.408778	-0.994148	-0.207301
C43	C	0.379494	-1.098227	-0.129003
H44	H	0.441256	-1.021870	-0.287027
H45	H	0.450286	-0.942072	-0.154139
H46	H	0.354647	-0.947930	-0.233855
H47	H	0.433627	-1.144441	-0.102439
H48	H	0.337984	-1.150325	-0.182174
H49	H	0.261014	-1.232406	-0.610911
C50	C	0.395175	-1.006327	0.220881
C51	C	0.369717	-1.105781	0.133355
H52	H	0.421627	-1.038712	0.303121
H53	H	0.340277	-0.959521	0.242292
H54	H	0.440899	-0.953312	0.176592
H55	H	0.323987	-1.158792	0.177639
H56	H	0.424622	-1.152608	0.111946
H57	H	0.361798	-0.884086	0.095831
H58	H	0.023599	-1.641042	-0.630376
C59	C	-0.053251	-1.590118	-0.266165
C60	C	0.005396	-1.663330	-0.348872
H61	H	-0.096642	-1.643187	-0.217358
H62	H	-0.087705	-1.533972	-0.322310
H63	H	-0.015176	-1.543558	-0.202719
H64	H	-0.032678	-1.709884	-0.412326
H65	H	0.039853	-1.719498	-0.292723
H66	H	0.346146	-1.368001	-0.616519
H67	H	0.254187	-1.237048	-0.383357
C68	C	0.435385	-1.392985	-0.487233
C69	C	0.375706	-1.369412	-0.375286
H70	H	0.496145	-1.416978	-0.454693
H71	H	0.442077	-1.319207	-0.541465
H72	H	0.408412	-1.458775	-0.541449
H73	H	0.402675	-1.303615	-0.321075
H74	H	0.369017	-1.443199	-0.321031
