data_functionalizedCrystal
_audit_creation_method	'MofGen! by Chris Wilmer'
_symmetry_space_group_name_H-M	'P1'
_symmetry_Int_Tables_number	1
_symmetry_cell_setting	triclinic
loop_
_symmetry_equiv_pos_as_xyz
  x,y,z
_cell_length_a	12.759399
_cell_length_b	21.395362
_cell_length_c	21.395355
_cell_angle_alpha	90.048039
_cell_angle_beta	89.985737
_cell_angle_gamma	89.966621
loop_
_atom_site_label
_atom_site_type_symbol
_atom_site_fract_x
_atom_site_fract_y
_atom_site_fract_z
Zn1	Zn	-0.417876	-0.957927	-0.354673
Zn2	Zn	-0.593540	-0.957858	-0.249903
Zn3	Zn	-0.417932	-0.853142	-0.249866
Zn4	Zn	-0.593569	-0.853140	-0.354600
O5	O	-0.505729	-0.905517	-0.302261
O6	O	-0.441142	-1.045596	-0.340820
O7	O	-0.570257	-0.943940	-0.162220
O8	O	-0.270904	-0.867072	-0.263784
O9	O	-0.570202	-1.045545	-0.263847
O10	O	-0.270862	-0.944057	-0.340785
O11	O	-0.441238	-0.867005	-0.162193
O12	O	-0.441266	-0.765464	-0.263714
O13	O	-0.570252	-0.867068	-0.442288
O14	O	-0.570306	-0.765462	-0.340661
O15	O	-0.441171	-0.944055	-0.442341
O16	O	-0.740565	-0.943937	-0.263776
O17	O	-0.740587	-0.867001	-0.340697
C18	C	-0.505796	-0.742729	-0.302176
C19	C	-0.505850	-0.673088	-0.302155
C20	C	-0.573133	-0.640390	-0.342159
C21	C	-0.573111	-0.574955	-0.342182
C22	C	-0.505819	-0.542220	-0.302190
C23	C	-0.438523	-0.574925	-0.262183
C24	C	-0.438539	-0.640359	-0.262166
C25	C	-0.497362	-0.438494	-0.245777
C26	C	-0.497354	-0.373061	-0.245794
C27	C	-0.505764	-0.340399	-0.302245
C28	C	-0.514205	-0.373178	-0.358681
C29	C	-0.514221	-0.438613	-0.358664
C30	C	-0.505794	-0.471267	-0.302205
C31	C	-0.573027	-0.236749	-0.342278
C32	C	-0.572999	-0.171312	-0.342302
C33	C	-0.438416	-0.171284	-0.262297
C34	C	-0.438439	-0.236719	-0.262279
C35	C	-0.505751	-0.269448	-0.302268
C36	C	-0.778697	-0.905479	-0.302246
C37	C	-0.895473	-0.905520	-0.302261
C38	C	-0.950289	-0.945626	-0.262254
C39	C	-1.060013	-0.945666	-0.262275
C40	C	-1.060096	-0.865488	-0.342312
C41	C	-0.950374	-0.865452	-0.342294
C42	C	-1.209842	-1.019620	-0.240011
C43	C	-1.264661	-1.059720	-0.199995
C44	C	-1.229086	-1.069357	-0.138866
C45	C	-1.138693	-1.038884	-0.117741
C46	C	-1.083879	-0.998779	-0.157754
C47	C	-1.119453	-0.989154	-0.218892
C48	C	-0.800543	-0.791497	-0.364551
C49	C	-0.745727	-0.751388	-0.404562
C50	C	-0.781300	-0.741745	-0.465692
C51	C	-0.871697	-0.772207	-0.486814
C52	C	-0.926513	-0.812316	-0.446804
C53	C	-0.890932	-0.821960	-0.385674
C54	C	-0.231696	-0.905573	-0.302289
C55	C	-0.114919	-0.905596	-0.302301
C56	C	-0.505708	-0.905569	-0.465684
C57	C	-0.505699	-0.905591	-0.535325
C58	C	-0.505681	-0.068940	-0.302328
C59	C	-0.505704	-0.138582	-0.302310
C60	C	-0.438484	-0.945677	-0.568067
C61	C	-0.438438	-0.945676	-0.633503
C62	C	-0.505627	-0.905596	-0.666194
C63	C	-0.572848	-0.865503	-0.633444
C64	C	-0.572883	-0.865501	-0.568010
C65	C	-0.600229	-0.900636	-0.769861
C66	C	-0.600195	-0.900642	-0.835294
C67	C	-0.505516	-0.905600	-0.868014
C68	C	-0.410869	-0.910564	-0.835294
C69	C	-0.410905	-0.910561	-0.769859
C70	C	-0.505596	-0.905594	-0.737146
C71	C	-0.438246	-0.945686	-0.971709
C72	C	-0.438199	-0.945681	-1.037146
C73	C	-0.572618	-0.865512	-1.037086
C74	C	-0.572655	-0.865514	-0.971650
C75	C	-0.505471	-0.905604	-0.938966
C76	C	-0.505675	-0.905501	-0.139473
C77	C	-0.505388	-0.905600	-0.069832
H78	H	-0.490488	-0.346377	-0.199840
O79	O	-0.488296	-0.473718	-0.184886
H80	H	-0.413492	-0.461162	-0.161586
O81	O	-0.645359	-0.822251	-0.532689
H82	H	-0.692067	-0.794374	-0.566411
H83	H	-0.627786	-0.144691	-0.374882
H84	H	-1.000116	-0.837122	-0.464008
H85	H	-0.383621	-0.144631	-0.229738
H86	H	-0.736660	-0.709083	-0.498267
H87	H	-0.383731	-0.548268	-0.229623
H88	H	-1.238809	-1.011783	-0.289790
H89	H	-0.771565	-0.799351	-0.314775
O90	O	-0.910088	-0.761792	-0.552743
H91	H	-0.982167	-0.789703	-0.560704
O92	O	-0.365879	-0.271982	-0.219118
H93	H	-0.312490	-0.301846	-0.247202
H94	H	-0.627831	-0.263398	-0.374843
O95	O	-0.523251	-0.337963	-0.419577
H96	H	-0.598060	-0.350506	-0.442878
O97	O	-1.119308	-0.822261	-0.385477
H98	H	-1.204814	-0.829016	-0.378762
O99	O	-0.702354	-0.895287	-0.734573
H100	H	-0.700721	-0.852838	-0.704732
H101	H	-0.672117	-0.726588	-0.387360
H102	H	-0.383776	-0.978321	-0.541459
H103	H	-1.338259	-1.084532	-0.217200
H104	H	-0.521091	-0.465299	-0.404616
O105	O	-0.365949	-0.988917	-0.668830
H106	H	-0.319244	-1.016797	-0.635109
O107	O	-0.702271	-0.895282	-0.870585
H108	H	-0.768110	-0.891819	-0.836842
H109	H	-0.905592	-0.978253	-0.229658
O110	O	-0.645714	-0.675692	-0.385297
H111	H	-0.692489	-0.641958	-0.413124
H112	H	-0.627550	-0.832868	-0.660065
H113	H	-1.010282	-0.973969	-0.140556
O114	O	-0.645723	-0.539676	-0.385307
H115	H	-0.692547	-0.573427	-0.413100
H116	H	-0.383746	-0.666981	-0.229589
O117	O	-0.308831	-0.915912	-0.734565
H118	H	-0.242984	-0.919357	-0.768305
O119	O	-1.100322	-1.049276	-0.051806
H120	H	-1.153617	-1.082288	-0.027533
O121	O	-1.288197	-1.112617	-0.095705
H122	H	-1.357020	-1.132190	-0.120665
H123	H	-0.333773	-0.914602	-0.861933
O124	O	-0.365777	-0.988917	-0.936449
H125	H	-0.319015	-1.016784	-0.970213
H126	H	-0.383458	-0.978323	-1.063803
H127	H	-0.627314	-0.832872	-1.063702
O128	O	-0.645124	-0.822262	-0.936329
H129	H	-0.691831	-0.794386	-0.970052
