data_functionalizedCrystal
_audit_creation_method	'MofGen! by Chris Wilmer'
_symmetry_space_group_name_H-M	'P1'
_symmetry_Int_Tables_number	1
_symmetry_cell_setting	triclinic
loop_
_symmetry_equiv_pos_as_xyz
  x,y,z
_cell_length_a	23.532407
_cell_length_b	14.519709
_cell_length_c	13.596369
_cell_angle_alpha	90.006934
_cell_angle_beta	89.992211
_cell_angle_gamma	96.735589
loop_
_atom_site_label
_atom_site_type_symbol
_atom_site_fract_x
_atom_site_fract_y
_atom_site_fract_z
O1	O	0.755765	-0.111951	-0.081849
O2	O	0.589975	-0.128149	-0.081839
O3	O	0.677266	0.014241	-0.081835
O4	O	0.668474	-0.254340	-0.081852
O5	O	0.677257	0.014248	0.081748
O6	O	0.589966	-0.128142	0.081744
O7	O	0.755756	-0.111943	0.081734
Zn8	Zn	0.672860	-0.120041	0.107711
Zn9	Zn	0.672871	-0.120051	-0.107816
O10	O	0.668466	-0.254333	0.081730
C11	C	0.676852	0.048599	-0.000044
C12	C	0.675624	0.150966	-0.000043
C13	C	0.568753	-0.127733	-0.000046
C14	C	0.505530	-0.126493	-0.000042
C15	C	0.776979	-0.112360	-0.000061
C16	C	0.840201	-0.113600	-0.000071
C17	C	1.238959	-0.037115	-0.000032
C18	C	1.298365	-0.038267	-0.000028
O19	O	1.334789	0.032635	0.000012
N20	N	1.321373	-0.122918	-0.000036
C21	C	1.284972	-0.206422	-0.000039
O22	O	1.309997	-0.278529	-0.000045
C23	C	1.225568	-0.205269	-0.000036
C24	C	1.202563	-0.120613	-0.000038
C25	C	1.215954	0.047534	-0.000033
C26	C	1.156553	0.048686	-0.000039
C27	C	1.120157	-0.034812	-0.000045
C28	C	1.143162	-0.119461	-0.000044
C29	C	1.189168	-0.288771	-0.000032
C30	C	1.129760	-0.287611	-0.000028
C31	C	1.106756	-0.202955	-0.000030
C32	C	1.047364	-0.201807	-0.000056
N33	N	1.024356	-0.117156	-0.000047
C34	C	1.060752	-0.033659	-0.000042
C35	C	1.409726	-0.208837	-0.000043
C36	C	1.469129	-0.209991	-0.000053
C37	C	1.482517	-0.041836	-0.000040
C38	C	1.423113	-0.040683	-0.000037
C39	C	1.386717	-0.124186	-0.000035
C40	C	0.936005	-0.031247	-0.000056
C41	C	0.876598	-0.030102	-0.000066
C42	C	0.863214	-0.198257	-0.000073
C43	C	0.922616	-0.199401	-0.000068
C44	C	0.959011	-0.115889	-0.000056
O45	O	1.010905	-0.272672	-0.000091
O46	O	1.035719	0.038437	-0.000023
C47	C	0.668880	-0.288692	-0.000063
C48	C	0.670107	-0.391058	-0.000070
N49	N	0.672856	-0.120034	0.254803
C50	C	0.671104	0.525808	-0.000068
C51	C	0.672359	0.421515	-0.000061
C52	C	0.673364	0.338390	-0.000055
C53	C	0.674619	0.234091	-0.000049
N54	N	0.672880	-0.120051	-0.254908
C55	C	0.672871	-0.120052	0.656094
C56	C	0.672865	-0.120050	0.544443
C57	C	0.672864	-0.120044	0.455452
C58	C	0.672858	-0.120040	0.343794
H59	H	0.965631	0.036758	-0.000046
O60	O	1.211579	-0.370944	0.000090
C61	C	1.270842	-0.469868	0.084841
C62	C	1.245509	-0.376763	0.084824
H63	H	1.298270	-0.474611	0.153352
H64	H	1.298358	-0.474624	0.016424
H65	H	1.234612	-0.529331	0.084789
H66	H	1.281702	-0.317246	0.084911
H67	H	1.217978	-0.372087	0.153235
O68	O	1.517936	0.039217	-0.000159
C69	C	1.592768	0.135518	-0.084921
C70	C	1.552698	0.043690	-0.084896
H71	H	1.620874	0.139173	-0.153434
H72	H	1.620947	0.139189	-0.016506
H73	H	1.566113	0.196209	-0.084868
H74	H	1.579307	-0.017053	-0.084983
H75	H	1.524517	0.040100	-0.153305
H76	H	0.833570	-0.266238	-0.000083
H77	H	1.245583	0.115532	-0.000025
H78	H	0.857871	0.038838	-0.000070
H79	H	1.487853	-0.278926	-0.000065
H80	H	1.137828	0.117621	-0.000036
O81	O	1.374349	-0.289933	0.000116
C82	C	1.299482	-0.386216	0.084813
C83	C	1.339518	-0.294353	0.084767
H84	H	1.271303	-0.389811	0.153236
H85	H	1.326107	-0.446946	0.084867
H86	H	1.271368	-0.389871	0.016321
H87	H	1.367639	-0.290608	0.153248
H88	H	1.312859	-0.233667	0.084662
H89	H	0.941347	-0.268335	-0.000068
H90	H	1.100129	-0.355611	-0.000022
H91	H	1.404387	0.028252	-0.000038
