data_functionalizedCrystal
_audit_creation_method	'MofGen! by Chris Wilmer'
_symmetry_space_group_name_H-M	'P1'
_symmetry_Int_Tables_number	1
_symmetry_cell_setting	triclinic
loop_
_symmetry_equiv_pos_as_xyz
  x,y,z
_cell_length_a	12.759401
_cell_length_b	12.594516
_cell_length_c	12.759393
_cell_angle_alpha	89.971602
_cell_angle_beta	90.020938
_cell_angle_gamma	89.971744
loop_
_atom_site_label
_atom_site_type_symbol
_atom_site_fract_x
_atom_site_fract_y
_atom_site_fract_z
Zn1	Zn	1.606179	0.423647	0.594035
Zn2	Zn	1.606033	0.601663	0.418362
Zn3	Zn	1.430477	0.423704	0.418371
Zn4	Zn	1.430432	0.601589	0.593999
O5	O	1.518280	0.512651	0.506192
O6	O	1.753180	0.447269	0.570744
O7	O	1.582703	0.578111	0.271342
O8	O	1.453864	0.274751	0.441692
O9	O	1.753073	0.578057	0.441677
O10	O	1.582951	0.274709	0.570752
O11	O	1.453723	0.447365	0.271348
O12	O	1.283450	0.447293	0.441657
O13	O	1.453788	0.577930	0.741025
O14	O	1.283417	0.577985	0.570690
O15	O	1.582908	0.447197	0.741052
O16	O	1.582659	0.750599	0.441642
O17	O	1.453646	0.750545	0.570682
C18	C	1.245313	0.512638	0.506171
C19	C	1.128536	0.512658	0.506187
C20	C	1.518160	0.789192	0.506180
C21	C	1.518205	0.907497	0.506210
C22	C	1.073685	0.580813	0.573269
C23	C	0.963960	0.580817	0.573290
C24	C	0.963949	0.444509	0.439138
C25	C	1.073672	0.444500	0.439123
C26	C	0.814057	0.619009	0.697152
C27	C	0.759201	0.687180	0.764224
C28	C	0.794777	0.791053	0.780176
C29	C	0.885207	0.826776	0.729040
C30	C	0.940057	0.758611	0.661959
C31	C	0.904482	0.654723	0.646027
C32	C	1.223577	0.406319	0.315259
C33	C	1.278429	0.338158	0.248173
C34	C	1.242855	0.234283	0.232210
C35	C	1.152422	0.198564	0.283328
C36	C	1.097570	0.266725	0.350415
C37	C	1.133152	0.370598	0.366379
C38	C	1.448016	0.976759	0.576345
C39	C	1.422402	1.047629	0.480477
C40	C	1.543877	1.047427	0.602093
C41	C	1.492541	0.976808	0.410291
C42	C	1.614060	0.976601	0.531971
C43	C	1.588483	1.047438	0.436038
C44	C	1.792313	0.512665	0.506213
C45	C	1.909090	0.512671	0.506223
C46	C	1.518359	0.512549	0.780225
C47	C	1.518392	0.512505	0.897002
C48	C	1.518383	1.235030	0.506225
C49	C	1.518308	1.116725	0.506236
C50	C	1.518262	0.512676	0.233224
C51	C	1.518432	0.512420	0.116448
C52	C	1.585630	0.444422	0.951879
C53	C	1.585648	0.444376	1.061604
C54	C	1.451187	0.580506	1.061563
C55	C	1.451165	0.580546	0.951841
C56	C	1.623286	0.318796	1.211577
C57	C	1.690540	0.250722	1.266458
C58	C	1.793056	0.234401	1.230866
C59	C	1.828339	0.286169	1.140395
C60	C	1.761091	0.354251	1.085519
C61	C	1.658560	0.370552	1.121110
C62	C	1.413538	0.706127	0.801865
C63	C	1.346294	0.774215	0.746988
C64	C	1.243776	0.790547	0.782578
C65	C	1.208497	0.738798	0.873053
C66	C	1.275741	0.670710	0.927930
C67	C	1.378258	0.654375	0.892333
H68	H	1.013683	0.787696	0.620324
H69	H	1.911822	0.272882	1.111429
O70	O	0.735612	0.864588	0.852510
H71	H	0.787933	0.890143	0.917264
H72	H	1.470776	0.945916	0.329193
O73	O	0.661665	0.648661	0.819376
H74	H	0.673243	0.653838	0.905442
H75	H	1.647884	1.078276	0.376669
H76	H	0.919265	0.389018	0.384535
O77	O	1.369274	0.935636	0.654788
H78	H	1.389811	0.965144	0.734133
O79	O	1.721468	0.935477	0.560741
H80	H	1.742605	0.963795	0.640351
O81	O	1.171248	0.863985	0.723383
H82	H	1.094034	0.866643	0.763336
H83	H	1.247008	0.628573	1.001600
H84	H	1.252557	0.490900	0.328260
O85	O	0.923574	0.938820	0.746228
H86	H	0.941199	0.950656	0.830609
H87	H	0.785089	0.534423	0.684181
H88	H	1.789819	0.396404	1.011862
H89	H	1.565548	1.078448	0.683169
H90	H	1.640368	0.389016	0.907233
H91	H	1.023939	0.237630	0.392046
O92	O	1.114027	0.086536	0.266085
H93	H	1.041916	0.073158	0.312884
O94	O	1.865594	0.160965	1.290044
H95	H	1.823836	0.127704	1.358924
H96	H	1.341388	1.078851	0.458710
H97	H	1.661803	0.208573	1.340121
O98	O	1.512705	0.336390	1.249956
H99	H	1.499480	0.288967	1.322089
O100	O	1.378681	0.653893	1.120709
H101	H	1.389996	0.642435	1.206226
H102	H	1.118352	0.636308	0.627880
O103	O	1.302014	0.160760	0.159852
H104	H	1.370875	0.203043	0.126984
H105	H	1.125019	0.752100	0.902034
O106	O	1.384337	0.830034	0.649400
H107	H	1.466917	0.807227	0.633858
O108	O	1.375971	0.376677	0.193034
H109	H	1.391506	0.460355	0.215414
O110	O	1.524119	0.688510	0.763483
H111	H	1.537359	0.735950	0.691363
