data_functionalizedCrystal
_audit_creation_method	'MofGen! by Chris Wilmer'
_symmetry_space_group_name_H-M	'P1'
_symmetry_Int_Tables_number	1
_symmetry_cell_setting	triclinic
loop_
_symmetry_equiv_pos_as_xyz
  x,y,z
_cell_length_a	29.839131
_cell_length_b	12.759401
_cell_length_c	12.759393
_cell_angle_alpha	89.981504
_cell_angle_beta	89.962110
_cell_angle_gamma	90.041581
loop_
_atom_site_label
_atom_site_type_symbol
_atom_site_fract_x
_atom_site_fract_y
_atom_site_fract_z
Zn1	Zn	-0.178825	1.606060	-0.593935
Zn2	Zn	-0.253963	1.605873	-0.418236
Zn3	Zn	-0.178848	1.430362	-0.418275
Zn4	Zn	-0.253929	1.430269	-0.593877
O5	O	-0.216391	1.518141	-0.506081
O6	O	-0.188797	1.753056	-0.570636
O7	O	-0.244024	1.582551	-0.271220
O8	O	-0.115978	1.453787	-0.441617
O9	O	-0.244001	1.752919	-0.441551
O10	O	-0.115961	1.582871	-0.570674
O11	O	-0.188837	1.453605	-0.271248
O12	O	-0.188803	1.283329	-0.441561
O13	O	-0.243942	1.453628	-0.740906
O14	O	-0.243965	1.283260	-0.570575
O15	O	-0.188763	1.582781	-0.740949
O16	O	-0.316826	1.582461	-0.441495
O17	O	-0.316801	1.453446	-0.570538
C18	C	-0.216383	1.245174	-0.506066
C19	C	-0.216390	1.128397	-0.506085
C20	C	-0.245159	1.073527	-0.573152
C21	C	-0.245165	0.963803	-0.573163
C22	C	-0.187632	0.963829	-0.439032
C23	C	-0.187624	1.073551	-0.439027
C24	C	-0.278376	1.073511	-0.650588
C25	C	-0.278382	0.963787	-0.650600
C26	C	-0.333114	1.517951	-0.506029
C27	C	-0.383048	1.517966	-0.506041
C28	C	-0.692692	1.585441	-0.438986
C29	C	-0.880365	1.585571	-0.439027
O30	O	-0.904631	1.642790	-0.381974
N31	N	-0.903833	1.518359	-0.506160
C32	C	-0.880380	1.451114	-0.573292
O33	O	-0.904648	1.393957	-0.630402
C34	C	-0.692708	1.450991	-0.573256
C35	C	-0.669243	1.518200	-0.506111
C36	C	-0.669227	1.652646	-0.371848
C37	C	-0.622311	1.652609	-0.371834
C38	C	-0.598861	1.585367	-0.438959
C39	C	-0.622327	1.518163	-0.506098
C40	C	-0.669256	1.383752	-0.640393
C41	C	-0.622335	1.383729	-0.640380
C42	C	-0.598869	1.450938	-0.573235
C43	C	-0.551962	1.450884	-0.573209
N44	N	-0.528494	1.518096	-0.506076
C45	C	-0.551944	1.585338	-0.438951
C46	C	-0.978911	1.451183	-0.573305
C47	C	-1.025829	1.451212	-0.573313
C48	C	-1.025811	1.585670	-0.439049
C49	C	-0.978892	1.585635	-0.439036
C50	C	-0.955443	1.518395	-0.506172
C51	C	-0.453418	1.585254	-0.438927
C52	C	-0.406498	1.585208	-0.438916
C53	C	-0.406521	1.450754	-0.573184
C54	C	-0.453436	1.450796	-0.573191
C55	C	-0.476884	1.518054	-0.506059
O56	O	-0.527668	1.393703	-0.630240
O57	O	-0.527668	1.642503	-0.381867
C58	C	-0.739608	1.585479	-0.439000
C59	C	-0.763073	1.518274	-0.506138
C60	C	-0.739624	1.451033	-0.573263
C61	C	-0.809991	1.518304	-0.506146
C62	C	-0.833441	1.585545	-0.439021
C63	C	-0.809973	1.652757	-0.371888
C64	C	-0.763058	1.652720	-0.371875
C65	C	-0.763092	1.383820	-0.640396
C66	C	-0.810007	1.383862	-0.640404
C67	C	-0.833457	1.451104	-0.573279
C68	C	-0.099213	1.518360	-0.506156
C69	C	-0.049279	1.518454	-0.506188
C70	C	-0.216346	1.518215	-0.780114
C71	C	-0.216327	1.518246	-0.896891
C72	C	-0.216400	1.792174	-0.506096
C73	C	-0.216404	1.908951	-0.506102
C74	C	-0.187593	1.585505	-0.951777
C75	C	-0.187576	1.585530	-1.061501
C76	C	-0.245032	1.451034	-1.061444
C77	C	-0.245046	1.451004	-0.951722
C78	C	-0.154422	1.663159	-0.951811
C79	C	-0.154406	1.663184	-1.061535
C80	C	-0.216404	1.518128	-0.233113
C81	C	-0.216297	1.518301	-0.116337
H82	H	-0.387394	1.639938	-0.384235
H83	H	-0.121348	1.634107	-1.095591
N84	N	-1.049795	1.382565	-0.641906
N85	N	-1.075936	1.419509	-0.708898
H86	H	-1.092862	1.371029	-0.757348
H87	H	-0.603208	1.707339	-0.317162
H88	H	-0.164195	1.118222	-0.384422
H89	H	-0.166895	1.740417	-0.917772
N90	N	-0.266728	1.110946	-0.752698
N91	N	-0.264750	1.207274	-0.769975
H92	H	-0.256522	1.233715	-0.842087
H93	H	-0.268443	1.396232	-0.907038
N94	N	-0.693183	1.721334	-0.303285
N95	N	-0.719324	1.788287	-0.340296
H96	H	-0.736241	1.836798	-0.291865
N97	N	-0.477410	1.382123	-0.641751
N98	N	-0.472219	1.285177	-0.634691
H99	H	-0.489149	1.236679	-0.683116
N100	N	-0.166104	1.765233	-1.098917
N101	N	-0.168070	1.782525	-1.195236
H102	H	-0.176333	1.854593	-1.221639
H103	H	-0.164212	0.919160	-0.384437
N104	N	-0.319812	1.116145	-0.613828
N105	N	-0.333264	1.095531	-0.523337
H106	H	-0.362528	1.125642	-0.497370
N107	N	-0.833980	1.315201	-0.708980
N108	N	-0.860204	1.248288	-0.671976
H109	H	-0.877135	1.199802	-0.720411
H110	H	-0.472503	1.640025	-0.384264
H111	H	-0.265962	0.929803	-0.727955
N112	N	-0.274362	1.382354	-1.117470
N113	N	-0.274344	1.382382	-1.215435
H114	H	-0.295059	1.333876	-1.255004
H115	H	-0.313167	0.933953	-0.628659
N116	N	-0.739144	1.315142	-0.708982
N117	N	-0.744354	1.322063	-0.805933
H118	H	-0.727443	1.273552	-0.854375
N119	N	-0.954931	1.654291	-0.370441
N120	N	-0.975880	1.714315	-0.310511
H121	H	-0.958960	1.762807	-0.262063
H122	H	-1.044911	1.640422	-0.384393
N123	N	-0.954969	1.382488	-0.641896
N124	N	-0.975933	1.322487	-0.701825
H125	H	-0.959026	1.273968	-0.750266
H126	H	-0.119630	1.641428	-0.922064
N127	N	-0.693211	1.315091	-0.708987
N128	N	-0.672259	1.255072	-0.768915
H129	H	-0.689176	1.206577	-0.817366
H130	H	-0.603245	1.328975	-0.695053
H131	H	-0.387420	1.396003	-0.627834
N132	N	-0.739095	1.721363	-0.303271
N133	N	-0.744377	1.714441	-0.206323
H134	H	-0.727457	1.762923	-0.157865
N135	N	-0.833938	1.721430	-0.303320
N136	N	-0.875829	1.721440	-0.303350
H137	H	-0.892757	1.769940	-0.254930
