data_functionalizedCrystal
_audit_creation_method	'MofGen! by Chris Wilmer'
_symmetry_space_group_name_H-M	'P1'
_symmetry_Int_Tables_number	1
_symmetry_cell_setting	triclinic
loop_
_symmetry_equiv_pos_as_xyz
  x,y,z
_cell_length_a	16.974897
_cell_length_b	15.455313
_cell_length_c	10.654550
_cell_angle_alpha	92.691149
_cell_angle_beta	96.058087
_cell_angle_gamma	96.324780
loop_
_atom_site_label
_atom_site_type_symbol
_atom_site_fract_x
_atom_site_fract_y
_atom_site_fract_z
O1	O	1.056978	0.146249	-0.149000
O2	O	0.826115	0.130062	-0.170601
O3	O	0.946854	0.138522	0.023049
O4	O	0.936239	0.137789	-0.342650
O5	O	0.939949	-0.006224	0.012020
O6	O	0.819210	-0.014684	-0.181629
O7	O	1.050073	0.001503	-0.160028
Cu8	Cu	0.934011	-0.019807	-0.171836
Cu9	Cu	0.942177	0.151372	-0.158794
O10	O	0.929334	-0.006957	-0.353678
C11	C	0.793102	0.055616	-0.175495
C12	C	0.705019	0.049440	-0.173633
C13	C	0.667394	0.125433	-0.166750
C14	C	0.584629	0.119617	-0.165021
C15	C	0.539491	0.037807	-0.170166
C16	C	0.577122	-0.038191	-0.177053
C17	C	0.659884	-0.032375	-0.178791
C18	C	0.291563	0.011950	-0.165621
C19	C	0.208795	0.006139	-0.163879
C20	C	0.216307	0.163949	-0.151849
C21	C	0.299072	0.169758	-0.153580
C22	C	0.336695	0.093759	-0.160474
N23	N	0.454892	0.031861	-0.168395
N24	N	0.421292	0.099707	-0.162254
N25	N	0.928274	-0.140205	-0.181008
C26	C	0.979586	-0.182003	-0.098769
C27	C	0.975255	-0.273115	-0.105717
C28	C	0.919614	-0.322425	-0.194912
C29	C	0.868296	-0.280621	-0.277154
C30	C	0.872624	-0.189511	-0.270199
C31	C	0.900931	-0.595316	-0.224899
C32	C	0.896608	-0.686431	-0.231850
C33	C	1.003566	-0.678919	-0.060411
C34	C	1.007893	-0.587808	-0.053469
C35	C	0.956572	-0.546011	-0.135707
N36	N	0.915187	-0.415556	-0.202019
N37	N	0.960996	-0.452883	-0.128593
C38	C	1.083087	0.075951	-0.155134
C39	C	1.171169	0.082132	-0.156996
C40	C	0.942622	0.066095	0.064316
C41	C	0.940290	0.065933	0.203711
N42	N	0.947920	0.271770	-0.149611
C43	C	0.933566	0.065472	-0.394945
C44	C	0.935898	0.065640	-0.534340
C45	C	1.011380	0.070918	0.284673
C46	C	1.009184	0.070774	0.415649
C47	C	0.864803	0.060657	0.384688
C48	C	0.867000	0.060807	0.253715
H49	H	0.185666	0.225822	-0.146239
C50	C	0.835395	-0.740672	-0.329968
C51	C	0.830637	-0.840889	-0.337629
C52	C	0.769429	-0.895128	-0.435744
C53	C	0.712979	-0.849150	-0.526199
C54	C	0.717735	-0.748928	-0.518541
C55	C	0.778943	-0.694689	-0.420426
H56	H	0.872426	-0.874929	-0.270667
H57	H	0.765908	-0.969319	-0.441413
H58	H	0.667669	-0.889301	-0.598830
H59	H	0.675946	-0.714888	-0.585504
H60	H	0.782464	-0.620498	-0.414758
H61	H	1.071057	0.075093	0.243965
H62	H	1.045348	-0.712958	0.006545
C63	C	0.788796	0.055321	0.164646
C64	C	0.732524	0.126288	0.175599
C65	C	0.654324	0.120806	0.086531
C66	C	0.632396	0.044357	-0.013489
C67	C	0.688669	-0.026616	-0.024446
C68	C	0.766869	-0.021134	0.064622
H69	H	0.748756	0.182885	0.249643
H70	H	0.612667	0.173345	0.094643
H71	H	0.574507	0.040298	-0.079422
H72	H	0.672437	-0.083213	-0.098490
H73	H	0.808525	-0.073673	0.056511
C74	C	0.332924	-0.071660	-0.173170
C75	C	0.380381	-0.089993	-0.285048
C76	C	0.421737	-0.173614	-0.292586
C77	C	0.415636	-0.238902	-0.188245
C78	C	0.368177	-0.220571	-0.076359
C79	C	0.326821	-0.136950	-0.068822
H80	H	0.384899	-0.041662	-0.362295
H81	H	0.456870	-0.187184	-0.375412
H82	H	0.446250	-0.300803	-0.193825
H83	H	0.363659	-0.268902	0.000887
H84	H	0.291688	-0.123380	0.014004
H85	H	1.053200	-0.547660	0.019160
H86	H	0.805133	0.056482	0.425417
C87	C	1.040793	-0.127766	-0.000652
C88	C	1.045561	-0.027548	0.007005
C89	C	1.106767	0.026686	0.105128
C90	C	1.163206	-0.019297	0.195594
C91	C	1.158440	-0.119520	0.187940
C92	C	1.097233	-0.173754	0.089817
H93	H	1.003780	0.006496	-0.059966
H94	H	1.110295	0.100878	0.110794
H95	H	1.208514	0.020850	0.268231
H96	H	1.200221	-0.153565	0.254911
H97	H	1.093706	-0.247946	0.084152
C98	C	1.087384	0.076253	0.504706
C99	C	1.102140	0.002381	0.593292
C100	C	1.180344	0.007861	0.682349
C101	C	1.243793	0.087214	0.682820
C102	C	1.229040	0.161092	0.594231
C103	C	1.150835	0.155611	0.505174
H104	H	1.055169	-0.056365	0.592947
H105	H	1.191265	-0.046828	0.747929
H106	H	1.301684	0.091271	0.748746
H107	H	1.276010	0.219838	0.594577
H108	H	1.139914	0.210301	0.439595
C109	C	0.717042	0.215426	-0.161090
C110	C	0.717159	0.280309	-0.046856
C111	C	0.766805	0.370305	-0.041201
C112	C	0.816334	0.395417	-0.149781
C113	C	0.816218	0.330533	-0.264024
C114	C	0.766572	0.240537	-0.269678
H115	H	0.680494	0.261721	0.033529
H116	H	0.766890	0.418336	0.043369
H117	H	0.853084	0.462037	-0.145595
H118	H	0.852884	0.349121	-0.344408
H119	H	0.766487	0.192506	-0.354249
H120	H	1.017037	-0.307146	-0.038751
H121	H	0.553998	0.181499	-0.159416
C122	C	0.701279	-0.115966	-0.186363
C123	C	0.748739	-0.134246	-0.298257
C124	C	0.790134	-0.217838	-0.305837
C125	C	0.784069	-0.283151	-0.201523
C126	C	0.736607	-0.264872	-0.089621
C127	C	0.695212	-0.181280	-0.082041
H128	H	0.753230	-0.085896	-0.375483
H129	H	0.825268	-0.231369	-0.388675
H130	H	0.814712	-0.345031	-0.207135
H131	H	0.732116	-0.313222	-0.012394
H132	H	0.660078	-0.167749	0.000797
H133	H	0.335819	0.236376	-0.149381
C134	C	0.807089	-0.334858	-0.375272
C135	C	0.802362	-0.435073	-0.382992
C136	C	0.741156	-0.489307	-0.481115
C137	C	0.684676	-0.443327	-0.571518
C138	C	0.689402	-0.343107	-0.563800
C139	C	0.750608	-0.288872	-0.465677
H140	H	0.844173	-0.469115	-0.316068
H141	H	0.737658	-0.563497	-0.486828
H142	H	0.639368	-0.483474	-0.644154
H143	H	0.647591	-0.309064	-0.630724
H144	H	0.754106	-0.214683	-0.459965
C145	C	0.159136	-0.083855	-0.169556
C146	C	0.159003	-0.148725	-0.283809
C147	C	0.109342	-0.238712	-0.289487
C148	C	0.059813	-0.263830	-0.180910
C149	C	0.059943	-0.198958	-0.066647
C150	C	0.109604	-0.108971	-0.060970
H151	H	0.195670	-0.130133	-0.364192
H152	H	0.109246	-0.286735	-0.374072
H153	H	0.023051	-0.330444	-0.185112
H154	H	0.023277	-0.217550	0.013735
H155	H	0.109701	-0.060948	0.023615
H156	H	0.540363	-0.104803	-0.181250
H157	H	0.859145	-0.561292	-0.291863
H158	H	0.830839	-0.155480	-0.337166
