data_functionalizedCrystal
_audit_creation_method	'MofGen! by Chris Wilmer'
_symmetry_space_group_name_H-M	'P1'
_symmetry_Int_Tables_number	1
_symmetry_cell_setting	triclinic
loop_
_symmetry_equiv_pos_as_xyz
  x,y,z
_cell_length_a	16.974800
_cell_length_b	13.339070
_cell_length_c	15.455313
_cell_angle_alpha	93.394339
_cell_angle_beta	90.973911
_cell_angle_gamma	99.476486
loop_
_atom_site_label
_atom_site_type_symbol
_atom_site_fract_x
_atom_site_fract_y
_atom_site_fract_z
O1	O	1.077288	0.129038	0.003523
O2	O	1.577288	0.629038	0.503523
O3	O	0.851236	0.144496	-0.012353
O4	O	1.351236	0.644496	0.487647
O5	O	0.938318	-0.010570	-0.006234
O6	O	1.438318	0.489430	0.493766
O7	O	0.990206	0.284104	-0.002595
O8	O	1.490206	0.784104	0.497405
O9	O	0.933331	-0.001739	0.137677
O10	O	1.433331	0.498261	0.637677
O11	O	0.846248	0.153327	0.131559
O12	O	1.346248	0.653327	0.631559
O13	O	1.072301	0.137869	0.147435
O14	O	1.572301	0.637869	0.647435
Cu15	Cu	0.958819	0.146404	0.152637
Cu16	Cu	1.458819	0.646404	0.652637
Cu17	Cu	0.964718	0.135961	-0.017555
Cu18	Cu	1.464718	0.635961	0.482445
O19	O	0.985218	0.292935	0.141316
O20	O	1.485218	0.792935	0.641316
C21	C	0.819219	0.148162	0.057530
C22	C	1.319219	0.648162	0.557530
C23	C	0.731246	0.145916	0.051351
C24	C	1.231246	0.645916	0.551351
C25	C	0.687201	0.149672	0.126897
C26	C	1.187201	0.649672	0.626897
C27	C	0.604540	0.147545	0.121094
C28	C	1.104540	0.647545	0.621094
C29	C	0.565925	0.141670	0.039745
C30	C	1.065925	0.641670	0.539745
C31	C	0.609975	0.137911	-0.035806
C32	C	1.109975	0.637911	0.464194
C33	C	0.692634	0.140030	-0.030003
C34	C	1.192634	0.640030	0.469997
C35	C	0.319000	0.134809	0.013975
C36	C	0.819000	0.634809	0.513975
C37	C	0.236335	0.132693	0.008177
C38	C	0.736335	0.632693	0.508177
C39	C	0.230906	0.142326	0.165079
C40	C	0.730906	0.642326	0.665079
C41	C	0.313567	0.144451	0.170875
C42	C	0.813567	0.644451	0.670875
C43	C	0.357610	0.140686	0.095324
C44	C	0.857610	0.640686	0.595324
N45	N	0.481432	0.139499	0.033811
N46	N	0.981432	0.639499	0.533811
N47	N	0.442100	0.142849	0.101258
N48	N	0.942100	0.642849	0.601258
C49	C	0.927060	-0.043869	0.065105
C50	C	1.427060	0.456131	0.565105
C51	C	0.900934	-0.156245	0.063267
C52	C	1.400934	0.343755	0.563267
C53	C	1.104073	-0.520460	0.077533
C54	C	1.604073	-0.020460	0.577533
C55	C	1.128622	-0.414877	0.079266
C56	C	1.628622	0.085123	0.579266
C57	C	1.071702	-0.350214	0.075266
C58	C	1.571702	0.149786	0.575266
C59	C	0.990230	-0.391144	0.069534
C60	C	1.490230	0.108856	0.569534
C61	C	0.965678	-0.496737	0.067808
C62	C	1.465678	0.003263	0.567808
C63	C	0.933307	-0.326491	0.065541
C64	C	1.433307	0.173509	0.565541
C65	C	0.851835	-0.367422	0.059809
C66	C	1.351835	0.132578	0.559809
C67	C	0.827288	-0.473005	0.058083
C68	C	1.327288	0.026995	0.558083
C69	C	0.884207	-0.537667	0.062083
C70	C	1.384207	-0.037667	0.562083
C71	C	0.957858	-0.220898	0.067266
C72	C	1.457858	0.279102	0.567266
C73	C	0.819463	-0.197176	0.057541
C74	C	1.319463	0.302824	0.557541
C75	C	0.794915	-0.302759	0.055809
C76	C	1.294915	0.197241	0.555809
C77	C	1.104318	0.134203	0.077550
C78	C	1.604318	0.634203	0.577550
C79	C	1.192291	0.136449	0.083723
C80	C	1.692291	0.636449	0.583723
C81	C	0.996477	0.326234	0.069975
C82	C	1.496477	0.826234	0.569975
C83	C	1.022602	0.438610	0.071808
C84	C	1.522602	0.938610	0.571808
N85	N	0.954676	0.153749	0.272342
N86	N	1.454676	0.653749	0.772342
N87	N	0.968865	0.128608	-0.137259
N88	N	1.468865	0.628608	0.362741
C89	C	0.991695	0.087896	0.320337
C90	C	1.491695	0.587896	0.820337
C91	C	0.988571	0.093459	0.410925
C92	C	1.488571	0.593459	0.910925
C93	C	0.948432	0.164882	0.453517
C94	C	1.448432	0.664882	0.953517
C95	C	0.911408	0.230739	0.405515
C96	C	1.411408	0.730739	0.905515
C97	C	0.914528	0.225169	0.314928
C98	C	1.414528	0.725169	0.814928
C99	C	0.934961	0.188895	0.724152
C100	C	1.434961	0.688895	1.224152
C101	C	0.931846	0.194461	0.814746
C102	C	1.431846	0.694461	1.314746
C103	C	1.009008	0.057180	0.820149
C104	C	1.509008	0.557180	1.320149
C105	C	1.012128	0.051621	0.729560
C106	C	1.512128	0.551621	1.229560
C107	C	0.975100	0.117474	0.681566
C108	C	1.475100	0.617474	1.181566
N109	N	0.945240	0.170573	0.546113
N110	N	1.445240	0.670573	1.046113
N111	N	0.978288	0.111777	0.588972
N112	N	1.478288	0.611777	1.088972
H113	H	1.024193	-0.187583	0.071933
H114	H	1.524193	0.312417	0.571933
H115	H	1.091695	-0.264244	0.076677
H116	H	1.591695	0.235756	0.576677
H117	H	1.194956	-0.381559	0.083934
H118	H	1.694956	0.118441	0.583934
C119	C	1.127876	-0.692855	0.079209
C120	C	1.627876	-0.192855	0.579209
C121	C	1.166632	-0.591537	0.081932
C122	C	1.666632	-0.091537	0.581932
H123	H	1.166502	-0.736734	0.081922
H124	H	1.666502	-0.236734	0.581922
H125	H	1.093685	-0.702195	0.127110
H126	H	1.593685	-0.202195	0.627110
H127	H	1.097165	-0.708352	0.026740
H128	H	1.597165	-0.208352	0.526740
H129	H	1.197338	-0.576038	0.134405
H130	H	1.697338	-0.076038	0.634405
H131	H	1.200836	-0.582191	0.034027
H132	H	1.700836	-0.082191	0.534027
H133	H	0.204898	0.127911	-0.058070
H134	H	0.704898	0.627911	0.441930
C135	C	0.813942	-0.686992	-0.017031
C136	C	1.313942	-0.186992	0.482969
C137	C	0.857227	-0.653732	0.060174
C138	C	1.357227	-0.153732	0.560174
H139	H	0.797293	-0.758648	-0.018211
H140	H	1.297293	-0.258648	0.481789
H141	H	0.768383	-0.654353	-0.020219
H142	H	1.268383	-0.154353	0.479781
H143	H	0.846800	-0.670547	-0.065022
H144	H	1.346800	-0.170547	0.434978
H145	H	0.824367	-0.670170	0.108165
H146	H	1.324367	-0.170170	0.608165
H147	H	0.902792	-0.686382	0.063371
H148	H	1.402792	-0.186382	0.563371
H149	H	0.578527	0.133120	-0.102043
H150	H	1.078527	0.633120	0.397957
H151	H	0.760947	-0.506326	0.053422
H152	H	1.260947	-0.006326	0.553422
H153	H	0.345001	0.149230	0.237118
H154	H	0.845001	0.649230	0.737118
H155	H	0.728579	-0.336099	0.051142
H156	H	1.228579	0.163901	0.551142
C157	C	0.404953	0.044666	-0.071238
C158	C	0.904953	0.544666	0.428762
C159	C	0.367409	0.130681	-0.069068
C160	C	0.867409	0.630681	0.430932
H161	H	0.434838	0.042118	-0.122510
H162	H	0.934838	0.542118	0.377490
H163	H	0.439777	0.048472	-0.021966
H164	H	0.939777	0.548472	0.478034
H165	H	0.365703	-0.014927	-0.070725
H166	H	0.865703	0.485073	0.429275
H167	H	0.406659	0.190275	-0.069575
H168	H	0.906659	0.690275	0.430425
H169	H	0.332582	0.126884	-0.118353
H170	H	0.832582	0.626884	0.381647
H171	H	0.773114	-0.144526	0.054288
H172	H	1.273114	0.355474	0.554288
C173	C	0.905488	0.241332	0.582898
C174	C	1.405488	0.741332	1.082898
C175	C	0.894278	0.261296	0.671405
C176	C	1.394278	0.761296	1.171405
H177	H	0.880369	0.286032	0.550333
H178	H	1.380369	0.786032	1.050333
H179	H	0.961029	0.251593	0.571909
H180	H	1.461029	0.751593	1.071909
H181	H	0.882654	0.172833	0.566426
H182	H	1.382654	0.672833	1.066426
H183	H	0.917117	0.329793	0.687878
H184	H	1.417117	0.829793	1.187878
H185	H	0.838726	0.251042	0.682399
H186	H	1.338726	0.751042	1.182399
C187	C	1.065181	-0.042766	0.407169
C188	C	1.565181	0.457234	0.907169
C189	C	1.029279	0.021087	0.463682
C190	C	1.529279	0.521087	0.963682
H191	H	1.090320	-0.087440	0.439741
H192	H	1.590320	0.412560	0.939741
H193	H	1.025614	-0.081480	0.368991
H194	H	1.525614	0.418520	0.868991
H195	H	1.103967	-0.002680	0.374457
H196	H	1.603967	0.497320	0.874457
H197	H	0.990488	-0.019000	0.496389
H198	H	1.490488	0.481000	0.996389
H199	H	1.068850	0.059804	0.501875
H200	H	1.568850	0.559804	1.001875
H201	H	1.024384	0.029740	0.285665
H202	H	1.524384	0.529740	0.785665
C203	C	1.088075	-0.083527	0.744004
C204	C	1.588075	0.416473	1.244004
C205	C	1.056244	-0.026895	0.682746
C206	C	1.556244	0.473105	1.182746
H207	H	1.115308	-0.132001	0.715100
H208	H	1.615308	0.367999	1.215100
H209	H	1.124437	-0.039118	0.781960
H210	H	1.624437	0.460882	1.281960
H211	H	1.046063	-0.117881	0.776486
H212	H	1.546063	0.382119	1.276486
H213	H	1.098256	0.007466	0.650267
H214	H	1.598256	0.507466	1.150267
H215	H	1.019879	-0.071310	0.644774
H216	H	1.519879	0.428690	1.144774
H217	H	0.568680	0.150587	0.182611
H218	H	1.068680	0.650587	0.682611
H219	H	0.195037	0.145389	0.226588
H220	H	0.695037	0.645389	0.726588
H221	H	1.039152	0.003565	0.859234
H222	H	1.539152	0.503565	1.359234
H223	H	0.884382	0.278793	0.275851
H224	H	1.384382	0.778793	0.775851
C225	C	0.855859	0.329579	0.800309
C226	C	1.355859	0.829579	1.300309
C227	C	0.887708	0.272961	0.861564
C228	C	1.387708	0.772961	1.361564
H229	H	0.828606	0.378032	0.829214
H230	H	1.328606	0.878032	1.329214
H231	H	0.897856	0.363950	0.767832
H232	H	1.397856	0.863950	1.267832
H233	H	0.819503	0.285151	0.762346
H234	H	1.319503	0.785151	1.262346
H235	H	0.924069	0.317388	0.899523
H236	H	1.424069	0.817388	1.399523
H237	H	0.845706	0.238588	0.894055
H238	H	1.345706	0.738588	1.394055
C239	C	0.805380	0.258580	0.500222
C240	C	1.305380	0.758580	1.000222
C241	C	0.867287	0.309246	0.452335
C242	C	1.367287	0.809246	0.952335
H243	H	0.778147	0.307052	0.529129
H244	H	1.278147	0.807052	1.029129
H245	H	0.769020	0.214180	0.462257
H246	H	1.269020	0.714180	0.962257
H247	H	0.826992	0.220159	0.541767
H248	H	1.326992	0.720159	1.041767
H249	H	0.845674	0.347661	0.410785
H250	H	1.345674	0.847661	0.910785
H251	H	0.903653	0.353664	0.490303
H252	H	1.403653	0.853664	0.990303
H253	H	0.718636	0.154465	0.193141
H254	H	1.218636	0.654465	0.693141
H255	H	0.728495	0.136973	-0.091520
H256	H	1.228495	0.636973	0.408480
