data_functionalizedCrystal
_audit_creation_method	'MofGen! by Chris Wilmer'
_symmetry_space_group_name_H-M	'P1'
_symmetry_Int_Tables_number	1
_symmetry_cell_setting	triclinic
loop_
_symmetry_equiv_pos_as_xyz
  x,y,z
_cell_length_a	29.839135
_cell_length_b	21.395363
_cell_length_c	21.395355
_cell_angle_alpha	90.003952
_cell_angle_beta	89.971956
_cell_angle_gamma	89.996030
loop_
_atom_site_label
_atom_site_type_symbol
_atom_site_fract_x
_atom_site_fract_y
_atom_site_fract_z
Zn1	Zn	-0.686897	-0.249480	0.354383
Zn2	Zn	-0.353563	0.083853	0.687717
Zn3	Zn	-0.020230	0.417186	1.021050
Zn4	Zn	-0.686864	-0.354240	0.249632
Zn5	Zn	-0.353531	-0.020907	0.582966
Zn6	Zn	-0.020198	0.312426	0.916299
Zn7	Zn	-0.611763	-0.249484	0.249614
Zn8	Zn	-0.278430	0.083849	0.582947
Zn9	Zn	0.054903	0.417183	0.916280
Zn10	Zn	-0.611779	-0.354227	0.354366
Zn11	Zn	-0.278445	-0.020894	0.687700
Zn12	Zn	0.054888	0.312439	1.021033
O13	O	-0.649326	-0.301858	0.301999
O14	O	-0.315993	0.031475	0.635332
O15	O	0.017341	0.364809	0.968666
O16	O	-0.749760	-0.263381	0.340503
O17	O	-0.416426	0.069952	0.673836
O18	O	-0.083093	0.403286	1.007170
O19	O	-0.676882	-0.340351	0.161952
O20	O	-0.343549	-0.007018	0.495285
O21	O	-0.010215	0.326316	0.828619
O22	O	-0.621737	-0.161806	0.263511
O23	O	-0.288404	0.171528	0.596844
O24	O	0.044929	0.504861	0.930177
O25	O	-0.749736	-0.340348	0.263543
O26	O	-0.416402	-0.007014	0.596876
O27	O	-0.083069	0.326319	0.930210
O28	O	-0.676937	-0.161803	0.340485
O29	O	-0.343604	0.171530	0.673818
O30	O	-0.010271	0.504864	1.007151
O31	O	-0.621706	-0.263387	0.161938
O32	O	-0.288372	0.069946	0.495272
O33	O	0.044961	0.403280	0.828605
O34	O	-0.548898	-0.263374	0.263494
O35	O	-0.215565	0.069959	0.596828
O36	O	0.117768	0.403292	0.930161
O37	O	-0.621763	-0.340326	0.442046
O38	O	-0.288430	-0.006992	0.775380
O39	O	0.044903	0.326341	1.108713
O40	O	-0.548910	-0.340329	0.340456
O41	O	-0.215576	-0.006996	0.673789
O42	O	0.117757	0.326338	1.007122
O43	O	-0.676952	-0.263369	0.442059
O44	O	-0.343619	0.069965	0.775392
O45	O	-0.010286	0.403298	1.108726
O46	O	-0.676897	-0.441916	0.263526
O47	O	-0.343564	-0.108583	0.596860
O48	O	-0.010230	0.224750	0.930193
O49	O	-0.621732	-0.441907	0.340474
O50	O	-0.288399	-0.108574	0.673807
O51	O	0.044935	0.224760	1.007140
C52	C	-0.532603	-0.301851	0.301971
C53	C	-0.199270	0.031482	0.635305
C54	C	0.134063	0.364815	0.968638
C55	C	-0.482669	-0.301863	0.301974
C56	C	-0.149336	0.031470	0.635308
C57	C	0.183998	0.364803	0.968641
C58	C	-0.173035	-0.261834	0.342128
C59	C	0.160298	0.071499	0.675461
C60	C	0.493632	0.404833	1.008795
C61	C	0.014638	-0.261835	0.342145
C62	C	0.347971	0.071498	0.675478
C63	C	0.681305	0.404831	1.008811
O64	O	0.038895	-0.227791	0.376256
O65	O	0.372228	0.105543	0.709590
O66	O	0.705562	0.438876	1.042923
N67	N	0.038116	-0.301847	0.302017
N68	N	0.371450	0.031486	0.635351
N69	N	0.704783	0.364820	0.968684
C70	C	0.014673	-0.341858	0.261880
C71	C	0.348007	-0.008525	0.595214
C72	C	0.681340	0.324808	0.928547
O73	O	0.038949	-0.375886	0.227746
O74	O	0.372282	-0.042553	0.561079
O75	O	0.705616	0.290780	0.894412
C76	C	-0.172999	-0.341854	0.261861
C77	C	0.160334	-0.008520	0.595194
C78	C	0.493668	0.324813	0.928528
C79	C	-0.196475	-0.301844	0.301995
C80	C	0.136859	0.031490	0.635329
C81	C	0.470192	0.364823	0.968662
C82	C	-0.196511	-0.221827	0.382258
C83	C	0.136823	0.111506	0.715592
C84	C	0.470156	0.444840	1.048925
C85	C	-0.243426	-0.221830	0.382256
C86	C	0.089907	0.111504	0.715590
C87	C	0.423241	0.444837	1.048923
C88	C	-0.266866	-0.261839	0.342124
C89	C	0.066467	0.071494	0.675457
C90	C	0.399801	0.404827	1.008790
C91	C	-0.243390	-0.301846	0.301993
C92	C	0.089943	0.031487	0.635327
C93	C	0.423277	0.364820	0.968660
C94	C	-0.196441	-0.381861	0.221721
C95	C	0.136892	-0.048528	0.555055
C96	C	0.470226	0.284805	0.888388
C97	C	-0.243362	-0.381855	0.221719
C98	C	0.089971	-0.048522	0.555052
C99	C	0.423305	0.284811	0.888386
C100	C	-0.266838	-0.341846	0.261853
C101	C	0.066495	-0.008512	0.595187
C102	C	0.399829	0.324821	0.928520
C103	C	-0.313745	-0.341858	0.261858
C104	C	0.019588	-0.008525	0.595192
C105	C	0.352921	0.324808	0.928525
N106	N	-0.337223	-0.301847	0.301986
N107	N	-0.003890	0.031487	0.635319
N108	N	0.329443	0.364820	0.968652
C109	C	-0.313784	-0.261837	0.342118
C110	C	0.019550	0.071496	0.675451
C111	C	0.352883	0.404830	1.008785
C112	C	0.113204	-0.341859	0.261894
C113	C	0.446537	-0.008525	0.595228
C114	C	0.779870	0.324808	0.928561
C115	C	0.160122	-0.341861	0.261900
C116	C	0.493455	-0.008528	0.595233
C117	C	0.826788	0.324806	0.928566
C118	C	0.160083	-0.261837	0.342163
C119	C	0.493417	0.071497	0.675497
C120	C	0.826750	0.404830	1.008830
C121	C	0.113165	-0.261838	0.342160
C122	C	0.446498	0.071495	0.675494
C123	C	0.779831	0.404828	1.008827
C124	C	0.089726	-0.301847	0.302021
C125	C	0.423059	0.031486	0.635355
C126	C	0.756392	0.364820	0.968688
C127	C	-0.412310	-0.261846	0.342111
C128	C	-0.078976	0.071487	0.675444
C129	C	0.254357	0.404821	1.008778
C130	C	-0.459229	-0.261854	0.342107
C131	C	-0.125896	0.071480	0.675440
C132	C	0.207438	0.404813	1.008774
C133	C	-0.459187	-0.341875	0.261842
C134	C	-0.125853	-0.008542	0.595175
C135	C	0.207480	0.324791	0.928508
C136	C	-0.412271	-0.341870	0.261847
C137	C	-0.078938	-0.008537	0.595181
C138	C	0.254395	0.324797	0.928514
C139	C	-0.388834	-0.301850	0.301984
C140	C	-0.055500	0.031483	0.635318
C141	C	0.277833	0.364816	0.968651
O142	O	-0.338031	-0.375880	0.227760
O143	O	-0.004698	-0.042547	0.561093
O144	O	0.328636	0.290787	0.894426
O145	O	-0.338068	-0.227804	0.376238
O146	O	-0.004734	0.105529	0.709571
O147	O	0.328599	0.438862	1.042905
C148	C	-0.126119	-0.261832	0.342130
C149	C	0.207214	0.071502	0.675463
C150	C	0.540547	0.404835	1.008797
C151	C	-0.102644	-0.301839	0.302000
C152	C	0.230690	0.031495	0.635333
C153	C	0.564023	0.364828	0.968666
C154	C	-0.126083	-0.341848	0.261867
C155	C	0.207250	-0.008515	0.595200
C156	C	0.540583	0.324818	0.928534
C157	C	-0.055726	-0.301841	0.302005
C158	C	0.277607	0.031493	0.635338
C159	C	0.610941	0.364826	0.968672
C160	C	-0.032286	-0.261831	0.342138
C161	C	0.301047	0.071502	0.675471
C162	C	0.634380	0.404836	1.008804
C163	C	-0.055764	-0.221819	0.382265
C164	C	0.277569	0.111514	0.715598
C165	C	0.610902	0.444847	1.048932
C166	C	-0.102680	-0.221822	0.382263
C167	C	0.230654	0.111511	0.715596
C168	C	0.563987	0.444845	1.048929
C169	C	-0.102605	-0.381860	0.221740
C170	C	0.230728	-0.048527	0.555073
C171	C	0.564061	0.284807	0.888407
C172	C	-0.055690	-0.381855	0.221746
C173	C	0.277643	-0.048521	0.555079
C174	C	0.610977	0.284812	0.888413
C175	C	-0.032250	-0.341845	0.261878
C176	C	0.301083	-0.008512	0.595212
C177	C	0.634417	0.324822	0.928545
C178	C	-0.649325	-0.464646	0.302014
C179	C	-0.315991	-0.131312	0.635347
C180	C	0.017342	0.202021	0.968681
C181	C	-0.649365	-0.534287	0.302041
C182	C	-0.316032	-0.200954	0.635375
C183	C	0.017301	0.132380	0.968708
C184	C	0.233496	-0.301861	0.302025
C185	C	0.566829	0.031472	0.635359
C186	C	0.900162	0.364806	0.968692
C187	C	0.183561	-0.301851	0.302032
C188	C	0.516895	0.031482	0.635366
C189	C	0.850228	0.364815	0.968699
C190	C	-0.649363	-0.301845	0.465422
C191	C	-0.316030	0.031488	0.798756
C192	C	0.017304	0.364821	1.132089
C193	C	-0.649379	-0.301840	0.535064
C194	C	-0.316046	0.031493	0.868397
C195	C	0.017288	0.364827	1.201730
C196	C	-0.649339	-0.138435	0.301997
C197	C	-0.316006	0.194899	0.635331
C198	C	0.017327	0.528232	0.968664
C199	C	-0.649345	-0.068794	0.301997
C200	C	-0.316012	0.264540	0.635330
C201	C	0.017322	0.597873	0.968664
C202	C	-0.620610	-0.036081	0.261922
C203	C	-0.287277	0.297253	0.595255
C204	C	0.046056	0.630586	0.928588
C205	C	-0.620610	0.029355	0.261929
C206	C	-0.287276	0.362688	0.595262
C207	C	0.046057	0.696021	0.928596
C208	C	-0.649352	0.062075	0.302005
C209	C	-0.316019	0.395408	0.635339
C210	C	0.017315	0.728741	0.968672
C211	C	-0.678088	0.029354	0.342088
C212	C	-0.344755	0.362687	0.675422
C213	C	-0.011422	0.696021	1.008755
C214	C	-0.678085	-0.036080	0.342084
C215	C	-0.344752	0.297253	0.675417
C216	C	-0.011418	0.630587	1.008751
C217	C	-0.689834	0.165742	0.306967
C218	C	-0.356501	0.499075	0.640300
C219	C	-0.023167	0.832408	0.973633
C220	C	-0.689838	0.231175	0.306966
C221	C	-0.356505	0.564508	0.640300
C222	C	-0.023172	0.897841	0.973633
C223	C	-0.649362	0.263896	0.302022
C224	C	-0.316029	0.597229	0.635355
C225	C	0.017304	0.930562	0.968688
C226	C	-0.608881	0.231175	0.297064
C227	C	-0.275548	0.564509	0.630397
C228	C	0.057786	0.897842	0.963731
C229	C	-0.608877	0.165741	0.297060
C230	C	-0.275544	0.499075	0.630393
C231	C	0.057789	0.832408	0.963726
C232	C	-0.649359	0.133027	0.302014
C233	C	-0.316025	0.466361	0.635348
C234	C	0.017308	0.799694	0.968681
C235	C	-0.620625	0.367561	0.261952
C236	C	-0.287292	0.700894	0.595286
C237	C	0.046042	1.034228	0.928619
C238	C	-0.620624	0.432998	0.261964
C239	C	-0.287290	0.766331	0.595297
C240	C	0.046043	1.099664	0.928631
C241	C	-0.678106	0.432996	0.342120
C242	C	-0.344773	0.766329	0.675453
C243	C	-0.011439	1.099662	1.008787
C244	C	-0.678103	0.367560	0.342111
C245	C	-0.344770	0.700894	0.675445
C246	C	-0.011437	1.034227	1.008778
C247	C	-0.649363	0.334847	0.302024
C248	C	-0.316030	0.668180	0.635358
C249	C	0.017303	1.001514	0.968691
C250	C	-0.649315	-0.301825	0.139211
C251	C	-0.315981	0.031508	0.472545
C252	C	0.017352	0.364841	0.805878
C253	C	-0.649386	-0.301654	0.069570
C254	C	-0.316052	0.031679	0.402904
C255	C	0.017281	0.365012	0.736237
C256	C	-0.678115	-0.261767	0.567784
C257	C	-0.344781	0.071567	0.901117
C258	C	-0.011448	0.404900	1.234451
C259	C	-0.678114	-0.261740	0.633220
C260	C	-0.344781	0.071594	0.966553
C261	C	-0.011447	0.404927	1.299886
C262	C	-0.649383	-0.301797	0.665932
C263	C	-0.316049	0.031536	0.999265
C264	C	0.017284	0.364869	1.332599
C265	C	-0.620641	-0.341873	0.633203
C266	C	-0.287308	-0.008540	0.966537
C267	C	0.046025	0.324793	1.299870
C268	C	-0.620640	-0.341895	0.567769
C269	C	-0.287306	-0.008561	0.901102
C270	C	0.046027	0.324772	1.234436
C271	C	-0.645835	-0.358213	0.769611
C272	C	-0.312501	-0.024879	1.102945
C273	C	0.020832	0.308454	1.436278
C274	C	-0.645840	-0.358192	0.835044
C275	C	-0.312506	-0.024859	1.168378
C276	C	0.020827	0.308474	1.501711
C277	C	-0.649385	-0.301731	0.867753
C278	C	-0.316052	0.031602	1.201086
C279	C	0.017281	0.364936	1.534419
C280	C	-0.652935	-0.245288	0.835020
C281	C	-0.319602	0.088045	1.168353
C282	C	0.013731	0.421378	1.501687
C283	C	-0.652934	-0.245310	0.769586
C284	C	-0.319600	0.088024	1.102919
C285	C	0.013733	0.421357	1.436252
C286	C	-0.649381	-0.301778	0.736884
C287	C	-0.316048	0.031555	1.070218
C288	C	0.017286	0.364888	1.403551
C289	C	-0.678122	-0.261625	0.971426
C290	C	-0.344788	0.071708	1.304759
C291	C	-0.011455	0.405042	1.638093
C292	C	-0.678118	-0.261597	1.036863
C293	C	-0.344785	0.071736	1.370196
C294	C	-0.011451	0.405070	1.703529
C295	C	-0.620648	-0.341736	1.036845
C296	C	-0.287314	-0.008403	1.370178
C297	C	0.046019	0.324930	1.703512
C298	C	-0.620649	-0.341759	0.971410
C299	C	-0.287316	-0.008425	1.304743
C300	C	0.046018	0.324908	1.638076
C301	C	-0.649388	-0.301704	0.938704
C302	C	-0.316055	0.031629	1.272037
C303	C	0.017278	0.364963	1.605371
H304	H	-0.262536	-0.189248	0.414937
H305	H	0.070797	0.144085	0.748270
H306	H	0.404131	0.477418	1.081603
H307	H	-0.597238	-0.374526	0.541128
H308	H	-0.263904	-0.041193	0.874462
H309	H	0.069429	0.292140	1.207795
H310	H	-0.701507	0.459636	0.374753
H311	H	-0.368173	0.792969	0.708087
H312	H	-0.034840	1.126303	1.041420
O313	O	-0.565222	0.266460	0.291720
O314	O	-0.231889	0.599794	0.625054
O315	O	0.101445	0.933127	0.958387
H316	H	-0.537075	0.232716	0.288264
H317	H	-0.203742	0.566049	0.621598
H318	H	0.129592	0.899382	0.954931
H319	H	-0.177335	-0.414441	0.189039
H320	H	0.155998	-0.081108	0.522372
H321	H	0.489331	0.252226	0.855706
H322	H	0.094124	-0.374441	0.229207
H323	H	0.427457	-0.041107	0.562540
H324	H	0.760791	0.292226	0.895873
O325	O	-0.709113	-0.218368	1.072152
O326	O	-0.375780	0.114965	1.405485
O327	O	-0.042447	0.448299	1.738818
H328	H	-0.689009	-0.186472	1.101934
H329	H	-0.355676	0.146862	1.435267
H330	H	-0.022343	0.480195	1.768601
O331	O	-0.709107	-0.218504	0.668510
O332	O	-0.375774	0.114829	1.001843
O333	O	-0.042441	0.448162	1.335177
H334	H	-0.689000	-0.186611	0.698291
H335	H	-0.355667	0.146723	1.031625
H336	H	-0.022334	0.480056	1.364958
H337	H	-0.478280	-0.374451	0.229168
H338	H	-0.144946	-0.041118	0.562501
H339	H	0.188387	0.292215	0.895835
H340	H	-0.478341	-0.229272	0.374791
H341	H	-0.145008	0.104061	0.708125
H342	H	0.188326	0.437394	1.041458
O343	O	-0.656760	-0.184435	0.734283
O344	O	-0.323426	0.148898	1.067617
O345	O	0.009907	0.482231	1.400950
H346	H	-0.656166	-0.193939	0.683289
H347	H	-0.322833	0.139394	1.016623
H348	H	0.010501	0.472727	1.349956
H349	H	-0.642952	-0.404152	0.861690
H350	H	-0.309618	-0.070818	1.195024
H351	H	0.023715	0.262515	1.528357
H352	H	-0.597247	-0.374486	0.659842
H353	H	-0.263913	-0.041153	0.993175
H354	H	0.069420	0.292180	1.326509
O355	O	-0.709100	0.332270	0.385330
O356	O	-0.375766	0.665604	0.718663
O357	O	-0.042433	0.998937	1.051996
H358	H	-0.729089	0.366014	0.413196
H359	H	-0.395756	0.699347	0.746529
H360	H	-0.062422	1.032680	1.079863
H361	H	-0.597222	0.459633	0.229332
H362	H	-0.263889	0.792966	0.562665
H363	H	0.069445	1.126299	0.895999
O364	O	-0.387033	-0.218687	0.385403
O365	O	-0.053700	0.114646	0.718737
O366	O	0.279633	0.447980	1.052070
H367	H	-0.411246	-0.190876	0.413309
H368	H	-0.077913	0.142458	0.746642
H369	H	0.255421	0.475791	1.079976
O370	O	-0.656748	-0.184382	0.870286
O371	O	-0.323414	0.148952	1.203619
O372	O	0.009919	0.482285	1.536953
H373	H	-0.656143	-0.193845	0.921285
H374	H	-0.322810	0.139488	1.254619
H375	H	0.010524	0.472822	1.587952
O376	O	-0.709112	-0.218419	0.936143
O377	O	-0.375778	0.114914	1.269476
O378	O	-0.042445	0.448247	1.602810
H379	H	-0.729089	-0.190540	0.969892
H380	H	-0.395755	0.142793	1.303225
H381	H	-0.062422	0.476126	1.636559
O382	O	-0.386946	-0.385023	0.218563
O383	O	-0.053613	-0.051690	0.551897
O384	O	0.279720	0.281644	0.885230
H385	H	-0.411130	-0.412842	0.190655
H386	H	-0.077797	-0.079509	0.523988
H387	H	0.255537	0.253824	0.857321
O388	O	-0.565220	0.130446	0.291718
O389	O	-0.231887	0.463779	0.625051
O390	O	0.101446	0.797112	0.958384
H391	H	-0.543173	0.142998	0.331556
H392	H	-0.209840	0.476331	0.664890
H393	H	0.123493	0.809664	0.998223
O394	O	0.185368	-0.218675	0.385445
O395	O	0.518701	0.114658	0.718778
O396	O	0.852035	0.447992	1.052111
H397	H	0.221936	-0.225398	0.378697
H398	H	0.555269	0.107936	0.712030
H399	H	0.888603	0.441269	1.045363
H400	H	-0.597249	-0.374346	1.063479
H401	H	-0.263916	-0.041012	1.396812
H402	H	0.069417	0.292321	1.730145
H403	H	-0.177431	-0.189243	0.414939
H404	H	0.155902	0.144090	0.748273
H405	H	0.489236	0.477424	1.081606
H406	H	-0.722800	0.257813	0.310999
H407	H	-0.389467	0.591146	0.644333
H408	H	-0.056133	0.924479	0.977666
O409	O	-0.733493	0.130452	0.312304
O410	O	-0.400160	0.463785	0.645637
O411	O	-0.066826	0.797118	0.978970
H412	H	-0.738063	0.100635	0.270333
H413	H	-0.404730	0.433968	0.603666
H414	H	-0.071397	0.767302	0.937000
O415	O	0.087845	-0.218678	0.385439
O416	O	0.421178	0.114655	0.718772
O417	O	0.754511	0.447989	1.052106
H418	H	0.112031	-0.190856	0.413341
H419	H	0.445364	0.142477	0.746674
H420	H	0.778698	0.475810	1.080008
O421	O	-0.030475	-0.178666	0.425549
O422	O	0.302858	0.154668	0.758883
O423	O	0.636191	0.488001	1.092216
H424	H	-0.054678	-0.150843	0.453460
H425	H	0.278655	0.182490	0.786793
H426	H	0.611989	0.515824	1.120127
O427	O	-0.268644	-0.425010	0.178427
O428	O	0.064690	-0.091676	0.511760
O429	O	0.398023	0.241657	0.845093
H430	H	-0.244434	-0.452831	0.150526
H431	H	0.088899	-0.119497	0.483859
H432	H	0.422233	0.213836	0.817193
H433	H	-0.121790	-0.189241	0.414944
H434	H	0.211544	0.144092	0.748277
H435	H	0.544877	0.477425	1.081610
H436	H	-0.597210	0.055994	0.229294
H437	H	-0.263876	0.389328	0.562627
H438	H	0.069457	0.722661	0.895961
H439	H	-0.701490	0.055998	0.374720
H440	H	-0.368157	0.389331	0.708053
H441	H	-0.034823	0.722665	1.041387
H442	H	0.179232	-0.374448	0.229225
H443	H	0.512565	-0.041115	0.562559
H444	H	0.845898	0.292219	0.895892
O445	O	-0.030371	-0.425007	0.178451
O446	O	0.302962	-0.091673	0.511785
O447	O	0.636296	0.241660	0.845118
H448	H	-0.054557	-0.452820	0.150541
H449	H	0.278776	-0.119487	0.483874
H450	H	0.612110	0.213847	0.817208
O451	O	-0.709081	-0.071370	0.385306
O452	O	-0.375747	0.261964	0.718639
O453	O	-0.042414	0.595297	1.051973
H454	H	-0.729069	-0.037627	0.413174
H455	H	-0.395736	0.295706	0.746508
H456	H	-0.062402	0.629040	1.079841
H457	H	-0.701516	-0.229150	0.541159
H458	H	-0.368183	0.104183	0.874493
H459	H	-0.034849	0.437517	1.207826
H460	H	-0.642827	-0.404179	0.742986
H461	H	-0.309494	-0.070845	1.076319
H462	H	0.023839	0.262488	1.409653
H463	H	-0.121685	-0.414440	0.189058
H464	H	0.211648	-0.081107	0.522391
H465	H	0.544981	0.252226	0.855724
O466	O	-0.589610	-0.071366	0.218693
O467	O	-0.256276	0.261967	0.552026
O468	O	0.077057	0.595300	0.885360
H469	H	-0.569625	-0.037621	0.190831
H470	H	-0.236292	0.295712	0.524164
H471	H	0.097041	0.629046	0.857498
O472	O	-0.589642	-0.384972	0.936124
O473	O	-0.256309	-0.051639	1.269457
O474	O	0.077024	0.281694	1.602790
H475	H	-0.597334	-0.434148	0.948692
H476	H	-0.264000	-0.100815	1.282026
H477	H	0.069333	0.232519	1.615359
O478	O	-0.589623	0.332269	0.218726
O479	O	-0.256290	0.665603	0.552060
O480	O	0.077043	0.998936	0.885393
H481	H	-0.569636	0.366013	0.190868
H482	H	-0.236302	0.699346	0.524201
H483	H	0.097031	1.032680	0.857534
