data_functionalizedCrystal
_audit_creation_method	'MofGen! by Chris Wilmer'
_symmetry_space_group_name_H-M	'P1'
_symmetry_Int_Tables_number	1
_symmetry_cell_setting	triclinic
loop_
_symmetry_equiv_pos_as_xyz
  x,y,z
_cell_length_a	10.723024
_cell_length_b	11.792241
_cell_length_c	9.798715
_cell_angle_alpha	89.996704
_cell_angle_beta	89.996609
_cell_angle_gamma	84.330643
loop_
_atom_site_label
_atom_site_type_symbol
_atom_site_fract_x
_atom_site_fract_y
_atom_site_fract_z
O1	O	1.656766	0.159192	-0.113483
O2	O	1.293573	0.174430	-0.113488
O3	O	1.483983	0.001660	-0.113475
O4	O	1.466356	0.331962	-0.113495
O5	O	1.483969	0.001659	0.113507
O6	O	1.293559	0.174430	0.113495
O7	O	1.656752	0.159192	0.113499
Zn8	Zn	1.475153	0.166811	0.149535
Zn9	Zn	1.475172	0.166811	-0.149523
O10	O	1.466342	0.331962	0.113487
C11	C	1.247070	0.173321	0.000003
C12	C	1.108524	0.170003	0.000001
C13	C	1.033286	0.266676	-0.000005
C14	C	0.890091	0.263249	-0.000007
C15	C	1.482869	-0.040634	0.000015
C16	C	1.479555	-0.166655	0.000014
C17	C	1.473461	-0.397380	-0.000009
C18	C	1.476847	-0.268988	0.000003
C19	C	1.703256	0.160301	0.000006
C20	C	1.841801	0.163619	-0.000002
C21	C	1.467456	0.374255	-0.000006
C22	C	1.470770	0.500276	-0.000014
N23	N	1.475150	0.166809	0.353635
N24	N	1.475186	0.166803	-0.353623
C25	C	1.555098	0.093948	0.421417
C26	C	1.555118	0.093944	0.578580
H27	H	1.066928	0.084701	-0.000028
O28	O	1.636596	0.019526	0.351673
C29	C	1.569026	-0.050821	0.269023
H30	H	1.471750	-0.006216	0.247804
H31	H	1.559840	-0.134812	0.323963
C32	C	1.758507	-0.129247	0.159246
C33	C	1.639033	-0.074457	0.133176
H34	H	1.801692	-0.143832	0.075452
H35	H	1.804031	-0.081856	0.214933
H36	H	1.750835	-0.199233	0.205033
H37	H	1.646707	-0.004467	0.087406
H38	H	1.593512	-0.121837	0.077478
O39	O	1.636723	0.019365	0.647960
C40	C	1.615332	-0.093105	0.613182
H41	H	1.567299	-0.093322	0.509409
H42	H	1.552793	-0.128487	0.693586
C43	C	1.800325	-0.167609	0.734212
C44	C	1.741339	-0.167876	0.606752
H45	H	1.878050	-0.213733	0.730252
H46	H	1.814735	-0.091836	0.757648
H47	H	1.748196	-0.197091	0.801202
H48	H	1.793461	-0.138381	0.539768
H49	H	1.726941	-0.243645	0.583304
O50	O	1.393693	0.241279	0.576708
C51	C	1.461288	0.311625	0.494066
H52	H	1.558534	0.266979	0.472781
H53	H	1.470549	0.395578	0.549048
C54	C	1.271815	0.390207	0.384416
C55	C	1.391250	0.335367	0.358263
H56	H	1.228611	0.404858	0.300648
H57	H	1.226273	0.342817	0.440096
H58	H	1.279549	0.460162	0.430238
H59	H	1.383515	0.265408	0.312458
H60	H	1.436790	0.382747	0.302571
O61	O	0.918861	0.064845	-0.000238
C62	C	0.895750	0.001202	-0.117773
H63	H	0.851596	0.060735	-0.199941
H64	H	0.829127	-0.065094	-0.091190
C65	C	1.074376	-0.132300	-0.070155
C66	C	1.020155	-0.059179	-0.171080
H67	H	1.151113	-0.169551	-0.103035
H68	H	1.089945	-0.089426	0.009033
H69	H	1.018845	-0.187537	-0.048012
H70	H	1.075679	-0.003936	-0.193209
H71	H	1.004599	-0.102046	-0.250273
O72	O	1.083103	0.368349	-0.000065
C73	C	1.214986	0.349136	-0.000022
H74	H	1.244829	0.260775	-0.042992
H75	H	1.251256	0.354868	0.108876
C76	C	1.233084	0.548293	-0.036254
C77	C	1.269738	0.439770	-0.089042
H78	H	1.266860	0.604203	-0.091160
H79	H	1.144233	0.561240	-0.036278
H80	H	1.263312	0.553054	0.054493
H81	H	1.239497	0.435007	-0.179781
H82	H	1.358586	0.426825	-0.089036
O83	O	0.812794	0.361881	0.000044
C84	C	0.687031	0.336502	0.000005
H85	H	0.681554	0.247294	0.042984
H86	H	0.649428	0.340469	-0.108892
C87	C	0.614573	0.533492	0.036222
C88	C	0.607846	0.423929	0.089019
H89	H	0.565726	0.587423	0.091124
H90	H	0.699302	0.550591	0.036243
H91	H	0.583240	0.536781	-0.054525
H92	H	0.639194	0.420637	0.179758
H93	H	0.523121	0.406831	0.089016
H94	H	1.406712	0.229182	0.411955
