data_functionalizedCrystal
_audit_creation_method	'MofGen! by Chris Wilmer'
_symmetry_space_group_name_H-M	'P1'
_symmetry_Int_Tables_number	1
_symmetry_cell_setting	triclinic
loop_
_symmetry_equiv_pos_as_xyz
  x,y,z
_cell_length_a	20.875641
_cell_length_b	14.395555
_cell_length_c	20.875641
_cell_angle_alpha	90.003252
_cell_angle_beta	60.089808
_cell_angle_gamma	62.439513
loop_
_atom_site_label
_atom_site_type_symbol
_atom_site_fract_x
_atom_site_fract_y
_atom_site_fract_z
Zr1	Zr	0.694320	0.937435	-0.105736
O2	O	0.820564	0.801299	-0.209006
O3	O	0.563064	0.974074	-0.070804
O4	O	0.687087	0.987755	-0.204275
O5	O	0.703995	0.782621	0.026025
O6	O	0.687083	1.140629	-0.204270
O7	O	0.696542	0.787619	-0.075534
O8	O	0.465228	1.116156	0.034487
O9	O	0.925849	0.807093	-0.212731
O10	O	0.618905	1.109942	-0.059858
O11	O	0.624470	0.992125	0.015930
O12	O	0.770491	1.008232	-0.141216
O13	O	0.776057	0.890415	-0.065427
Zr14	Zr	0.706201	1.173281	0.056247
Zr15	Zr	0.694313	1.181251	-0.105728
Zr16	Zr	0.706208	0.929465	0.056238
Zr17	Zr	0.862238	0.946676	-0.111679
Zr18	Zr	0.538284	1.164040	0.062190
O19	O	0.837457	1.136641	0.021314
O20	O	0.820555	1.147974	-0.208993
O21	O	0.837467	0.789967	0.021302
O22	O	0.579957	1.309416	0.159516
O23	O	0.563054	1.320749	-0.070791
O24	O	0.579967	0.962742	0.159504
O25	O	0.696526	1.328094	-0.075514
O26	O	0.713434	1.122961	0.154786
O27	O	0.713439	0.970087	0.154781
O28	O	0.703980	1.323097	0.026045
O29	O	0.925844	1.000894	-0.212724
O30	O	0.474677	1.109821	0.163235
O31	O	0.474672	1.303622	0.163242
O32	O	0.465223	1.309957	0.034494
O33	O	0.935298	0.800758	-0.083983
O34	O	0.935293	0.994559	-0.083976
O35	O	0.630030	1.102483	0.091727
O36	O	0.624464	1.220301	0.015938
O37	O	0.776051	1.118591	-0.065419
O38	O	0.781616	1.000773	0.010369
C39	C	0.490222	1.043799	-0.017312
C40	C	0.418936	1.039876	-0.014789
C41	C	0.382541	1.099529	-0.053165
C42	C	0.315557	1.095845	-0.050787
C43	C	0.284973	1.032502	-0.010038
C44	C	0.321371	0.972846	0.028342
C45	C	0.388350	0.976537	0.025969
C46	C	0.084962	1.014875	0.001307
C47	C	0.017980	1.011187	0.003676
C48	C	0.012169	1.134188	-0.075453
C49	C	0.079153	1.137867	-0.077827
C50	C	0.115542	1.078217	-0.039443
N51	N	0.216506	1.028732	-0.007609
N52	N	0.184004	1.081993	-0.041868
C53	C	0.700269	0.750382	-0.024756
C54	C	0.700272	0.646875	-0.024759
C55	C	0.782925	0.530829	-0.069113
C56	C	0.737893	0.499110	-0.097543
C57	C	0.745300	0.494172	0.003665
C58	C	0.655237	0.616522	-0.053231
C59	C	0.662660	0.611578	0.048016
C60	C	0.617566	0.579928	0.019606
C61	C	0.910300	1.066917	-0.032177
C62	C	0.981585	1.070840	-0.034700
C63	C	0.685391	1.065327	-0.227350
C64	C	0.680344	1.068711	-0.296113
C65	C	0.700252	1.360334	-0.024733
C66	C	0.700249	1.463840	-0.024730
C67	C	0.757098	1.017211	-0.370885
C68	C	0.752351	1.020404	-0.435492
C69	C	0.670850	1.075092	-0.425325
C70	C	0.594090	1.126599	-0.350545
C71	C	0.598838	1.123411	-0.285940
C72	C	0.648165	1.090324	-0.613991
C73	C	0.643423	1.093505	-0.678604
C74	C	0.801685	0.987312	-0.763547
C75	C	0.806425	0.984123	-0.698936
C76	C	0.729666	1.035635	-0.624162
N77	N	0.665995	1.078355	-0.491363
N78	N	0.734521	1.032379	-0.558126
C79	C	0.715130	1.045388	0.177861
C80	C	0.720177	1.042005	0.246624
C81	C	0.490213	1.348775	-0.017301
C82	C	0.418925	1.448358	-0.014774
C83	C	0.505091	1.033829	0.185294
C84	C	0.438852	1.026523	0.256579
C85	C	0.505082	1.338806	0.185305
C86	C	0.438841	1.435005	0.256594
C87	C	0.895439	0.771910	-0.234794
C88	C	0.961681	0.675710	-0.306083
C89	C	0.910308	0.761941	-0.032188
C90	C	0.981597	0.662357	-0.034715
C91	C	0.895430	1.076886	-0.234783
C92	C	0.961669	1.084193	-0.306068
C93	C	0.382544	1.437518	-0.053160
C94	C	0.315570	1.531079	-0.050801
C95	C	0.284972	1.635478	-0.010053
C96	C	0.321359	1.646317	0.028334
C97	C	0.388337	1.552757	0.025970
C98	C	0.410648	1.080697	0.329627
C99	C	0.348420	1.073828	0.396613
C100	C	0.314392	1.012790	0.390549
C101	C	0.342602	0.958609	0.317494
C102	C	0.404834	0.965472	0.250509
C103	C	0.404828	1.541691	0.250512
C104	C	0.342595	1.632091	0.317489
C105	C	0.314373	1.615802	0.390548
C106	C	0.348392	1.509105	0.396628
C107	C	0.410628	1.418708	0.329652
C108	C	0.995702	0.569025	-0.300001
C109	C	1.057955	0.478626	-0.366979
C110	C	1.086181	0.494915	-0.440038
C111	C	1.052157	0.601612	-0.446119
C112	C	0.989910	0.692009	-0.379142
C113	C	1.017983	0.673198	0.003664
C114	C	1.084975	0.579639	0.001287
C115	C	1.115575	0.475240	-0.039464
C116	C	1.079185	0.464401	-0.077847
C117	C	1.012199	0.557960	-0.075475
C118	C	0.995677	1.145240	-0.299980
C119	C	1.057907	1.152127	-0.366953
C120	C	1.086132	1.097959	-0.440015
C121	C	1.052117	1.036910	-0.446102
C122	C	0.989884	1.030030	-0.379129
H123	H	0.114580	0.966308	0.032565
F124	F	1.094152	0.365081	-0.360491
F125	F	0.288810	0.905445	0.071721
F126	F	0.415088	1.166943	-0.096540
F127	F	0.566470	1.145110	-0.534418
H128	H	0.230433	1.711651	-0.008134
F129	F	0.427044	1.564311	0.066833
F130	F	0.795082	0.425214	0.035071
F131	F	0.434840	0.907814	0.172768
H132	H	0.314887	0.908912	0.312568
H133	H	0.547618	0.599875	0.057120
H134	H	0.296436	1.731331	0.061510
F135	F	0.434857	1.559052	0.172763
H136	H	0.993075	0.758197	0.036853
F137	F	0.834044	0.965589	-0.515071
F138	F	0.427083	0.913048	0.066815
F139	F	1.186869	0.375675	-0.041982
F140	F	0.973476	0.546404	-0.116320
H141	H	0.314902	1.718960	0.312524
H142	H	0.285923	1.144421	-0.082035
F143	F	1.123690	0.591198	0.042144
F144	F	1.111759	0.353282	-0.121213
F145	F	0.318347	1.491786	0.474390
F146	F	0.965650	1.202899	-0.222228
H147	H	0.852811	0.511095	-0.106674
F148	F	-0.026565	1.197670	-0.116299
H149	H	0.769684	0.450550	-0.159075
H150	H	0.407455	1.352520	-0.086351
H151	H	0.285951	1.522232	-0.082060
F152	F	0.621145	0.675053	0.128425
F153	F	0.843844	0.959001	-0.381715
F154	F	0.507349	1.184805	-0.339726
H155	H	1.085596	1.201837	-0.361982
F156	F	0.893171	0.925876	-0.709765
H157	H	0.617186	0.669138	-0.077329
H158	H	1.136807	1.103570	-0.494542
F159	F	0.248134	1.712022	0.461824
H160	H	0.864178	0.945375	-0.824433
F161	F	0.111701	1.205281	-0.121202
H162	H	1.075107	0.992809	-0.505597
F163	F	0.517146	1.178235	-0.206359
F164	F	0.446817	1.305166	0.336138
H165	H	0.438348	1.130400	0.334579
H166	H	0.962201	0.980315	-0.384097
F167	F	0.318406	1.131501	0.474357
H168	H	-0.006917	0.959599	0.036858
H169	H	0.577051	1.138037	-0.670316
F170	F	0.248158	1.005495	0.461848
F171	F	0.965671	0.551664	-0.222252
F172	F	1.152431	0.398696	-0.511315
H173	H	1.075147	0.614862	-0.505611
H174	H	0.962209	0.778875	-0.384103
