data_functionalizedCrystal
_audit_creation_method	'MofGen! by Chris Wilmer'
_symmetry_space_group_name_H-M	'P1'
_symmetry_Int_Tables_number	1
_symmetry_cell_setting	triclinic
loop_
_symmetry_equiv_pos_as_xyz
  x,y,z
_cell_length_a	10.654547
_cell_length_b	16.992695
_cell_length_c	16.053802
_cell_angle_alpha	87.258926
_cell_angle_beta	87.393121
_cell_angle_gamma	92.422861
loop_
_atom_site_label
_atom_site_type_symbol
_atom_site_fract_x
_atom_site_fract_y
_atom_site_fract_z
O1	O	1.682334	-0.106925	-0.069445
O2	O	1.317762	-0.117421	-0.069443
O3	O	1.498586	0.001977	-0.069437
O4	O	1.501510	-0.226324	-0.069451
O5	O	1.488630	-0.004568	0.069421
O6	O	1.307807	-0.123966	0.069415
O7	O	1.672378	-0.113470	0.069414
Zn8	Zn	1.488512	-0.119757	0.091461
Zn9	Zn	1.501629	-0.111134	-0.091491
O10	O	1.491554	-0.232868	0.069408
C11	C	1.265920	-0.119923	-0.000014
C12	C	1.126277	-0.117616	-0.000013
C13	C	0.874737	-0.106131	-0.151412
C14	C	0.945775	-0.103649	-0.227104
C15	C	1.076981	-0.105822	-0.227102
C16	C	1.137150	-0.110477	-0.151399
C17	C	1.066111	-0.112959	-0.075707
C18	C	0.934903	-0.110787	-0.075718
C19	C	1.055239	-0.120098	0.075679
C20	C	0.924033	-0.117930	0.075679
C21	C	1.115408	-0.124753	0.151381
C22	C	1.044368	-0.127241	0.227075
C23	C	0.913155	-0.125068	0.227070
C24	C	0.852994	-0.120413	0.151371
C25	C	1.489848	0.027938	-0.000008
C26	C	1.478629	0.115043	-0.000008
C27	C	1.724221	-0.110969	-0.000018
C28	C	1.863864	-0.113276	-0.000024
C29	C	1.500293	-0.258829	-0.000023
C30	C	1.511512	-0.345934	-0.000028
N31	N	1.479569	-0.125642	0.216321
C32	C	1.586880	0.164694	-0.000008
C33	C	1.576331	0.246538	-0.000016
C34	C	1.457530	0.278730	-0.000018
C35	C	1.349271	0.229072	-0.000021
C36	C	1.359822	0.147230	-0.000019
C37	C	1.413804	0.522566	-0.000030
C38	C	1.403261	0.604415	-0.000029
C39	C	1.630322	0.621875	-0.000025
C40	C	1.640862	0.540030	-0.000018
C41	C	1.532603	0.490380	-0.000026
N42	N	1.446745	0.362388	-0.000024
N43	N	1.543390	0.406724	-0.000026
N44	N	1.510581	-0.105244	-0.216351
C45	C	1.556541	-0.074856	0.260018
C46	C	1.550298	-0.078980	0.347424
C47	C	1.467088	-0.133894	0.391133
C48	C	1.390107	-0.184682	0.347430
C49	C	1.396344	-0.180553	0.260025
C50	C	1.439838	-0.151904	0.652542
C51	C	1.433609	-0.156029	0.739953
C52	C	1.593799	-0.050326	0.739941
C53	C	1.600035	-0.046206	0.652534
C54	C	1.523049	-0.096991	0.608839
N55	N	1.460707	-0.138112	0.480476
N56	N	1.529424	-0.092769	0.519497
H57	H	0.767902	-0.104371	-0.151421
H58	H	1.377155	-0.193256	0.616972
N59	N	1.313331	-0.235335	0.212894
H60	H	1.329905	-0.224386	0.150892
H61	H	1.222196	-0.226475	0.228189
N62	N	0.836541	-0.127738	0.308711
H63	H	0.894631	-0.130469	0.356660
H64	H	0.777161	-0.175834	0.312261
N65	N	1.221135	0.263791	-0.000016
H66	H	1.154160	0.219916	-0.000017
H67	H	1.215501	0.299793	-0.051491
H68	H	1.656476	-0.008978	0.775525
N69	N	0.711481	-0.118067	0.151370
H70	H	0.676694	-0.164688	0.121646
H71	H	0.687432	-0.067565	0.121669
N72	N	1.297042	0.469023	-0.000035
H73	H	1.292662	0.432250	0.051436
H74	H	1.300124	0.437158	-0.051548
H75	H	1.624305	-0.030143	0.224436
N76	N	1.275119	0.639136	-0.000040
H77	H	1.284867	0.698516	-0.000036
H78	H	1.223689	0.618593	0.051434
H79	H	1.612974	-0.037626	0.383002
H80	H	0.896771	-0.099856	-0.288739
N81	N	1.109255	-0.132260	0.308719
H82	H	1.168758	-0.084773	0.312101
H83	H	1.158072	-0.181894	0.312038
N84	N	1.243062	0.093675	0.000003
H85	H	1.267771	0.036944	0.000007
H86	H	1.195320	0.106584	-0.051470
H87	H	1.134821	-0.103800	-0.288737
H88	H	1.667791	-0.001491	0.616948
N89	N	1.715015	0.129976	0.000003
H90	H	1.781990	0.173852	0.000000
H91	H	1.728032	0.098820	-0.051472
N92	N	1.693086	0.300091	-0.000011
H93	H	1.769945	0.267279	-0.000001
H94	H	1.689952	0.332005	0.051466
N95	N	1.343869	-0.215268	0.787099
H96	H	1.296047	-0.246816	0.746156
H97	H	1.282726	-0.186627	0.823386
H98	H	1.322348	-0.229391	0.383023
H99	H	1.243985	-0.112237	-0.151404
N100	N	1.769001	0.505315	-0.000044
H101	H	1.759258	0.445934	-0.000048
H102	H	1.813063	0.521006	0.051426
N103	N	1.256923	-0.127083	0.151376
H104	H	1.285356	-0.174750	0.121654
H105	H	1.284170	-0.130374	0.210834
H106	H	1.718460	0.662309	-0.000021
