data_functionalizedCrystal
_audit_creation_method	'MofGen! by Chris Wilmer'
_symmetry_space_group_name_H-M	'P1'
_symmetry_Int_Tables_number	1
_symmetry_cell_setting	triclinic
loop_
_symmetry_equiv_pos_as_xyz
  x,y,z
_cell_length_a	6.817900
_cell_length_b	9.108949
_cell_length_c	12.200875
_cell_angle_alpha	98.159128
_cell_angle_beta	107.143593
_cell_angle_gamma	111.764586
loop_
_atom_site_label
_atom_site_type_symbol
_atom_site_fract_x
_atom_site_fract_y
_atom_site_fract_z
V1	V	-4.126530	-0.225760	-0.379892
V2	V	-3.626530	0.274240	0.120108
O3	O	-4.052340	0.010468	-0.349822
O4	O	-3.552340	0.510468	0.150178
O5	O	-4.134881	-0.447279	-0.399259
O6	O	-3.634881	0.052721	0.100741
O7	O	-4.095400	-0.222455	-0.535555
O8	O	-3.595400	0.277545	-0.035555
O9	O	-4.092094	-0.215912	-0.212583
O10	O	-3.592094	0.284088	0.287417
V11	V	-4.600566	-0.197485	-0.357212
V12	V	-4.100566	0.302515	0.142788
O13	O	-4.408598	-0.287785	-0.429642
O14	O	-3.908598	0.212215	0.070358
O15	O	-4.768695	-0.135461	-0.307462
O16	O	-4.268695	0.364539	0.192538
O17	O	-4.369008	0.024033	-0.337845
O18	O	-3.869008	0.524033	0.162155
O19	O	-4.792152	-0.433713	-0.387282
O20	O	-4.292152	0.066287	0.112718
O21	O	-4.752398	-0.207333	-0.524521
O22	O	-4.252398	0.292667	-0.024521
O23	O	-4.408489	-0.200791	-0.201549
O24	O	-3.908489	0.299209	0.298451
C25	C	-3.993129	-0.501275	-0.398934
C26	C	-3.493129	-0.001275	0.101066
C27	C	-4.081360	-0.682370	-0.415806
C28	C	-3.581360	-0.182370	0.084194
C29	C	-3.942766	-0.214488	-0.572791
C30	C	-3.442766	0.285512	-0.072791
C31	C	-3.998973	-0.213251	-0.700190
C32	C	-3.498973	0.286749	-0.200190
C33	C	-4.101842	-0.210988	-0.933442
C34	C	-3.601842	0.289012	-0.433442
C35	C	-4.044590	-0.212246	-0.803644
C36	C	-3.544590	0.287754	-0.303644
C37	C	-4.174104	0.078021	-0.338168
C38	C	-3.674104	0.578021	0.161832
C39	C	-4.065113	0.259114	-0.321303
C40	C	-3.565113	0.759114	0.178697
C41	C	-4.224466	-0.208763	-0.164308
C42	C	-3.724466	0.291237	0.335692
C43	C	-4.147495	-0.209992	-0.036906
C44	C	-3.647495	0.290008	0.463094
H45	H	-3.983711	-0.652432	-0.227484
H46	H	-3.483711	-0.152432	0.272516
H47	H	-4.162771	-0.770815	-0.509619
H48	H	-3.662771	-0.270815	-0.009619
