data_functionalizedCrystal
_audit_creation_method	'MofGen! by Chris Wilmer'
_symmetry_space_group_name_H-M	'P1'
_symmetry_Int_Tables_number	1
_symmetry_cell_setting	triclinic
loop_
_symmetry_equiv_pos_as_xyz
  x,y,z
_cell_length_a	13.033293
_cell_length_b	16.120444
_cell_length_c	13.032268
_cell_angle_alpha	80.356652
_cell_angle_beta	90.920818
_cell_angle_gamma	100.431871
loop_
_atom_site_label
_atom_site_type_symbol
_atom_site_fract_x
_atom_site_fract_y
_atom_site_fract_z
Zn1	Zn	1.479894	-0.262707	0.795796
Zn2	Zn	1.493060	-0.384053	0.630435
Zn3	Zn	1.330069	-0.258248	0.601729
Zn4	Zn	1.296822	-0.419254	0.782392
O5	O	1.399961	-0.331066	0.702588
O6	O	1.626468	-0.265939	0.791483
O7	O	1.490862	-0.350767	0.481814
O8	O	1.358348	-0.140674	0.621068
O9	O	1.636141	-0.355091	0.669993
O10	O	1.468423	-0.143950	0.763649
O11	O	1.371114	-0.258339	0.460724
O12	O	1.180831	-0.292471	0.608071
O13	O	1.301683	-0.415085	0.928983
O14	O	1.156404	-0.410762	0.740804
O15	O	1.436185	-0.300071	0.938831
O16	O	1.458624	-0.506888	0.656996
O17	O	1.314450	-0.532750	0.768639
C18	C	1.131065	-0.354953	0.669869
C19	C	1.016026	-0.365195	0.655897
C20	C	0.959932	-0.325741	0.709881
C21	C	0.841033	-0.336326	0.695442
C22	C	1.384383	-0.550458	0.714504
C23	C	1.377809	-0.644311	0.719648
C24	C	1.434289	-0.845131	0.676157
C25	C	1.365823	-0.816133	0.729053
C26	C	1.372494	-0.720522	0.723818
C27	C	1.427620	-0.940750	0.681390
C28	C	1.669907	-0.307086	0.735435
C29	C	1.784942	-0.296867	0.749433
C30	C	1.363757	-0.362002	0.972505
C31	C	1.348329	-0.375185	1.087528
C32	C	1.415625	-0.110816	0.690651
C33	C	1.422300	-0.016959	0.685565
C34	C	1.436088	-0.300183	0.433725
C35	C	1.451734	-0.286744	0.318714
C36	C	1.407999	-0.324156	1.143681
C37	C	1.392055	-0.337781	1.262563
H38	H	0.801036	-0.377941	0.638528
H39	H	1.514623	-0.232962	1.278782
H40	H	1.497910	-0.798155	0.626943
H41	H	0.976025	-0.406807	0.598988
H42	H	1.470886	-0.270379	1.103743
C43	C	1.289852	-0.963361	0.787876
C44	C	1.279923	-0.879549	0.795488
H45	H	1.236817	-1.002512	0.828882
H46	H	1.356347	-0.973260	0.812314
H47	H	1.283109	-0.971155	0.717267
H48	H	1.286674	-0.871754	0.866096
H49	H	1.213411	-0.869647	0.771054
C50	C	1.209417	-0.398296	1.276959
C51	C	1.307149	-0.410380	1.316465
H52	H	1.157003	-0.443113	1.310243
H53	H	1.208997	-0.398671	1.204150
H54	H	1.195966	-0.344912	1.289709
H55	H	1.320603	-0.463761	1.303708
H56	H	1.307570	-0.410014	1.389291
C57	C	1.165695	-0.435697	1.101928
C58	C	1.263427	-0.447781	1.141434
H59	H	1.113281	-0.480514	1.135212
H60	H	1.165275	-0.436072	1.029119
H61	H	1.152244	-0.382313	1.114678
H62	H	1.276882	-0.501162	1.128677
H63	H	1.263849	-0.447415	1.214260
H64	H	0.824938	-0.255245	0.806339
C65	C	1.121258	-0.269952	0.786143
C66	C	1.013921	-0.269563	0.786708
H67	H	1.154583	-0.235273	0.833580
H68	H	1.149105	-0.247978	0.718097
H69	H	1.132878	-0.326872	0.806387
H70	H	1.002301	-0.212644	0.766457
H71	H	0.986065	-0.291533	0.854769
