data_functionalizedCrystal
_audit_creation_method	'MofGen! by Chris Wilmer'
_symmetry_space_group_name_H-M	'P1'
_symmetry_Int_Tables_number	1
_symmetry_cell_setting	triclinic
loop_
_symmetry_equiv_pos_as_xyz
  x,y,z
_cell_length_a	16.704494
_cell_length_b	14.628931
_cell_length_c	14.628931
_cell_angle_alpha	59.999972
_cell_angle_beta	90.000601
_cell_angle_gamma	56.632323
loop_
_atom_site_label
_atom_site_type_symbol
_atom_site_fract_x
_atom_site_fract_y
_atom_site_fract_z
Zr1	Zr	0.815200	0.905008	-0.072169
O2	O	0.680082	1.111554	-0.226051
O3	O	0.856620	0.709446	-0.024995
O4	O	0.856620	0.900152	-0.215701
O5	O	0.680082	0.920848	0.115086
O6	O	0.995877	0.883826	-0.207537
O7	O	0.680082	0.920848	-0.035346
O8	O	0.995877	0.542688	0.133601
O9	O	0.680082	1.261986	-0.226052
O10	O	0.978211	0.773631	0.001216
O11	O	0.874286	0.785815	0.107389
O12	O	0.874286	1.010346	-0.117143
O13	O	0.770360	1.022530	-0.010970
Zr14	Zr	1.037298	0.878970	0.180774
Zr15	Zr	1.037298	0.878970	-0.059148
Zr16	Zr	0.815200	0.905007	0.167753
Zr17	Zr	0.815200	1.144929	-0.072169
Zr18	Zr	1.037298	0.639048	0.180774
O19	O	0.995878	1.074531	0.133600
O20	O	0.995877	1.074531	-0.207537
O21	O	0.680083	1.111554	0.115086
O22	O	1.172416	0.672423	0.334657
O23	O	1.172415	0.672423	-0.006481
O24	O	0.856621	0.709446	0.316142
O25	O	1.172416	0.863129	-0.006481
O26	O	0.995878	0.883826	0.324306
O27	O	0.856621	0.900151	0.316142
O28	O	1.172416	0.863129	0.143951
O29	O	0.856621	1.241289	-0.215702
O30	O	0.995877	0.542688	0.324307
O31	O	1.172416	0.521991	0.334657
O32	O	1.172415	0.521991	0.143951
O33	O	0.680082	1.261986	-0.035346
O34	O	0.856621	1.241289	-0.024996
O35	O	0.978212	0.773631	0.225748
O36	O	1.082137	0.761447	0.119575
O37	O	0.978212	0.998162	0.001216
O38	O	0.874286	1.010346	0.107389
C39	C	0.926248	0.591883	0.054303
C40	C	0.926248	0.490030	0.054303
C41	C	0.977802	0.438577	0.001634
C42	C	0.977803	0.333307	0.001633
C43	C	0.648438	0.924558	0.038015
C44	C	0.554151	0.935612	0.032487
C45	C	0.485483	0.709230	0.145694
C46	C	0.396896	0.719610	0.140503
C47	C	0.288387	0.966749	0.016922
C48	C	0.376975	0.956370	0.022113
C49	C	0.475522	0.827606	0.086500
C50	C	0.564111	0.817228	0.091683
C51	C	0.455601	1.064366	-0.031891
C52	C	0.367013	1.074745	-0.037082
C53	C	1.204060	0.859419	0.070590
C54	C	1.298346	0.848365	0.076118
C55	C	0.926248	0.891989	-0.245803
C56	C	0.926248	0.891989	-0.347656
C57	C	0.926249	1.192094	0.054302
C58	C	0.926249	1.293947	0.054302
C59	C	0.999157	0.883441	-0.388790
C60	C	0.999158	0.883441	-0.494061
C61	C	0.926249	0.891988	0.354408
C62	C	0.926250	0.891988	0.456261
C63	C	1.204060	0.559314	0.070590
C64	C	1.298346	0.446407	0.076118
C65	C	0.926249	0.591883	0.354408
C66	C	0.926249	0.490030	0.456261
C67	C	1.204060	0.559314	0.370696
C68	C	1.298347	0.446407	0.478077
C69	C	0.648438	1.224663	-0.262091
C70	C	0.554151	1.337570	-0.369472
C71	C	0.648438	1.224663	0.038015
C72	C	0.554152	1.337570	0.032487
C73	C	0.926249	1.192094	-0.245803
C74	C	0.926249	1.293947	-0.347656
C75	C	1.288376	0.399745	0.016922
C76	C	1.376959	0.293671	0.022094
C77	C	1.475512	0.234255	0.086468
C78	C	1.485480	0.280927	0.145666
C79	C	1.396898	0.387005	0.140487
C80	C	1.396882	0.387024	0.473083
C81	C	1.485483	0.280948	0.573971
C82	C	1.475546	0.234251	0.679850
C83	C	1.377000	0.293645	0.684840
C84	C	1.288402	0.399725	0.583954
C85	C	0.455616	1.396965	-0.364478
C86	C	0.367015	1.503070	-0.465365
C87	C	0.376952	1.549772	-0.571245
C88	C	0.475498	1.490372	-0.576235
C89	C	0.564096	1.384275	-0.475349
C90	C	0.564122	1.384242	0.091673
C91	C	0.475539	1.490342	0.086475
C92	C	0.376986	1.549762	0.022097
C93	C	0.367017	1.503085	-0.037096
C94	C	0.455600	1.396994	-0.031904
C95	C	0.977803	0.438577	0.560385
C96	C	0.977805	0.333307	0.665656
H97	H	0.644350	0.712381	0.144117
H98	H	0.405015	0.623217	0.188706
Cl99	Cl	0.265559	1.683152	-0.698064
Cl100	Cl	1.095537	0.872132	-0.322842
Cl101	Cl	1.609384	0.206212	0.226595
H102	H	1.405030	0.424984	0.188699
Cl103	Cl	1.409401	0.445714	0.339991
Cl104	Cl	1.609356	0.206297	0.567670
H105	H	1.021943	0.289080	0.754975
Cl106	Cl	1.095530	0.872153	-0.548702
Cl107	Cl	1.586939	0.100888	0.806669
H108	H	0.882105	0.338172	0.099390
H109	H	1.021944	0.472453	-0.043452
H110	H	0.208138	1.071582	-0.035483
Cl111	Cl	0.687966	1.309611	-0.481646
H112	H	1.208137	0.448120	-0.035512
H113	H	0.863832	0.899299	-0.390369
Cl114	Cl	0.829865	0.903298	-0.489115
Cl115	Cl	1.164532	0.474358	0.590252
H116	H	0.447505	1.358948	-0.278276
Cl117	Cl	0.265634	1.683132	0.015585
Cl118	Cl	0.688007	1.309571	0.172607
H119	H	1.368822	0.255685	-0.026113
Cl120	Cl	0.488094	1.548993	0.160902
Cl121	Cl	0.858095	0.437733	0.438945
Cl122	Cl	0.443047	1.338325	-0.106310
H123	H	0.882116	0.338160	0.563032
Cl124	Cl	0.443079	1.213189	-0.106342
Cl125	Cl	0.243122	1.236610	-0.118015
Cl126	Cl	1.586864	0.100896	0.092969
Cl127	Cl	0.243142	1.577718	-0.459065
Cl128	Cl	0.858108	0.437717	0.123931
H129	H	1.368925	0.255609	0.771061
Cl130	Cl	0.243114	1.577793	-0.118018
Cl131	Cl	1.045945	0.265039	-0.067996
Cl132	Cl	0.487972	1.549094	-0.709350
Cl133	Cl	0.609372	0.547362	0.226620
H134	H	1.021936	0.472466	0.571592
