data_functionalizedCrystal
_audit_creation_method	'MofGen! by Chris Wilmer'
_symmetry_space_group_name_H-M	'P1'
_symmetry_Int_Tables_number	1
_symmetry_cell_setting	triclinic
loop_
_symmetry_equiv_pos_as_xyz
  x,y,z
_cell_length_a	21.395362
_cell_length_b	16.625546
_cell_length_c	21.395364
_cell_angle_alpha	90.003845
_cell_angle_beta	90.036401
_cell_angle_gamma	90.038346
loop_
_atom_site_label
_atom_site_type_symbol
_atom_site_fract_x
_atom_site_fract_y
_atom_site_fract_z
Zn1	Zn	0.957849	-0.320870	0.354586
Zn2	Zn	1.457849	0.179130	0.854586
Zn3	Zn	0.957780	-0.455651	0.249808
Zn4	Zn	1.457780	0.044349	0.749808
Zn5	Zn	0.853077	-0.320873	0.249787
Zn6	Zn	1.353077	0.179127	0.749787
Zn7	Zn	0.853048	-0.455702	0.354513
Zn8	Zn	1.353048	0.044298	0.854513
O9	O	0.905438	-0.388274	0.302173
O10	O	1.405438	0.111726	0.802173
O11	O	1.045517	-0.338726	0.340726
O12	O	1.545517	0.161274	0.840726
O13	O	0.943875	-0.437752	0.162128
O14	O	1.443875	0.062248	0.662128
O15	O	0.867017	-0.208040	0.263710
O16	O	1.367017	0.291960	0.763710
O17	O	1.045467	-0.437749	0.263747
O18	O	1.545467	0.062251	0.763747
O19	O	0.943992	-0.208038	0.340705
O20	O	1.443992	0.291962	0.840705
O21	O	0.866950	-0.338731	0.162112
O22	O	1.366950	0.161269	0.662112
O23	O	0.765396	-0.338781	0.263640
O24	O	1.265396	0.161219	0.763640
O25	O	0.866966	-0.437836	0.442200
O26	O	1.366966	0.062164	0.942200
O27	O	0.765374	-0.437839	0.340581
O28	O	1.265374	0.062161	0.840581
O29	O	0.943963	-0.338776	0.442254
O30	O	1.443963	0.161224	0.942254
O31	O	0.943846	-0.568490	0.263676
O32	O	1.443846	-0.068490	0.763676
O33	O	0.866900	-0.568527	0.340602
O34	O	1.366900	-0.068527	0.840602
C35	C	0.742651	-0.388316	0.302101
C36	C	1.242651	0.111684	0.802101
C37	C	0.673010	-0.388354	0.302085
C38	C	1.173010	0.111646	0.802085
C39	C	0.905379	-0.597765	0.302147
C40	C	1.405379	-0.097765	0.802147
C41	C	0.905411	-0.687386	0.302157
C42	C	1.405411	-0.187386	0.802157
C43	C	0.640301	-0.440002	0.342088
C44	C	1.140301	0.059998	0.842088
C45	C	0.574866	-0.439982	0.342116
C46	C	1.074866	0.060018	0.842116
C47	C	0.542141	-0.388323	0.302129
C48	C	1.042141	0.111677	0.802129
C49	C	0.574857	-0.336665	0.262123
C50	C	1.074857	0.163335	0.762123
C51	C	0.640291	-0.336681	0.262100
C52	C	1.140291	0.163319	0.762100
C53	C	0.438423	-0.381809	0.245724
C54	C	0.938423	0.118191	0.745724
C55	C	0.372990	-0.381799	0.245745
C56	C	0.872990	0.118201	0.745745
C57	C	0.340321	-0.388270	0.302198
C58	C	0.840321	0.111730	0.802198
C59	C	0.373092	-0.394769	0.358632
C60	C	0.873092	0.105231	0.858632
C61	C	0.438526	-0.394784	0.358610
C62	C	0.938526	0.105216	0.858610
C63	C	0.471189	-0.388300	0.302149
C64	C	0.971189	0.111700	0.802149
C65	C	0.236660	-0.439899	0.342236
C66	C	0.736660	0.060101	0.842236
C67	C	0.171223	-0.439874	0.342265
C68	C	0.671223	0.060126	0.842265
C69	C	0.171216	-0.336561	0.262266
C70	C	0.671216	0.163439	0.762266
C71	C	0.236651	-0.336583	0.262242
C72	C	0.736651	0.163417	0.762242
C73	C	0.269369	-0.388256	0.302226
C74	C	0.769369	0.111744	0.802226
C75	C	0.905520	-1.015561	0.302222
C76	C	1.405520	-0.515561	0.802222
C77	C	0.905488	-0.924253	0.302206
C78	C	1.405488	-0.424253	0.802206
C79	C	0.905465	-0.851476	0.302189
C80	C	1.405465	-0.351476	0.802189
C81	C	0.905434	-0.760162	0.302173
C82	C	1.405434	-0.260162	0.802173
C83	C	1.068862	-0.388231	0.302247
C84	C	1.568862	0.111769	0.802247
C85	C	1.138503	-0.388214	0.302278
C86	C	1.638503	0.111786	0.802278
C87	C	0.905469	-0.388311	0.465597
C88	C	1.405469	0.111689	0.965597
C89	C	0.905482	-0.388327	0.535238
C90	C	1.405482	0.111673	1.035238
C91	C	0.905515	-0.177965	0.302213
C92	C	1.405515	0.322035	0.802213
C93	C	0.905548	-0.088344	0.302231
C94	C	1.405548	0.411656	0.802231
C95	C	0.945568	-0.336755	0.567980
C96	C	1.445568	0.163245	1.067980
C97	C	0.945559	-0.336742	0.633415
C98	C	1.445559	0.163258	1.133415
C99	C	0.905470	-0.388315	0.666106
C100	C	1.405470	0.111685	1.166106
C101	C	0.865376	-0.439891	0.633356
C102	C	1.365376	0.060109	1.133356
C103	C	0.865382	-0.439897	0.567922
C104	C	1.365382	0.060103	1.067922
C105	C	0.900488	-0.460952	0.769770
C106	C	1.400488	0.039048	1.269770
C107	C	0.900486	-0.460947	0.835203
C108	C	1.400486	0.039053	1.335203
C109	C	0.905447	-0.388296	0.867927
C110	C	1.405447	0.111704	1.367927
C111	C	0.910422	-0.315648	0.835210
C112	C	1.410422	0.184352	1.335210
C113	C	0.910429	-0.315654	0.769776
C114	C	1.410429	0.184346	1.269776
C115	C	0.905458	-0.388314	0.737059
C116	C	1.405458	0.111686	1.237059
C117	C	0.945525	-0.336706	0.971621
C118	C	1.445525	0.163294	1.471621
C119	C	0.945511	-0.336691	1.037058
C120	C	1.445511	0.163309	1.537058
C121	C	0.865331	-0.439847	1.036998
C122	C	1.365331	0.060153	1.536998
C123	C	0.865342	-0.439855	0.971563
C124	C	1.365342	0.060145	1.471563
C125	C	0.905442	-0.388285	0.938878
C126	C	1.405442	0.111715	1.438878
C127	C	0.905411	-0.388261	1.139386
C128	C	1.405411	0.111739	1.639386
C129	C	0.905421	-0.388264	1.069745
C130	C	1.405421	0.111736	1.569745
H131	H	0.666937	-0.482077	0.374647
H132	H	1.166937	0.017923	0.874647
H133	H	0.465206	-0.400073	0.404560
H134	H	0.965206	0.099927	0.904560
N135	N	0.915498	-0.241443	0.736366
N136	N	1.415498	0.258557	1.236366
N137	N	0.875169	-0.187897	0.743646
N138	N	1.375169	0.312103	1.243646
H139	H	0.878747	-0.135483	0.720051
H140	H	1.378747	0.364517	1.220051
H141	H	0.832733	-0.481880	0.659978
H142	H	1.332733	0.018120	1.159978
N143	N	0.541442	-0.283898	0.221268
N144	N	1.041442	0.216102	0.721268
N145	N	0.570657	-0.237788	0.185550
N146	N	1.070657	0.262212	0.685550
H147	H	0.547060	-0.200517	0.156696
H148	H	1.047060	0.299483	0.656696
N149	N	0.270095	-0.492659	0.383084
N150	N	0.770095	0.007341	0.883084
N151	N	0.328518	-0.492666	0.383059
N152	N	0.828518	0.007334	0.883059
H153	H	0.352131	-0.529925	0.411910
H154	H	0.852131	-0.029925	0.911910
N155	N	0.895454	-0.535180	0.736357
N156	N	1.395454	-0.035180	1.236357
N157	N	0.938017	-0.556286	0.699891
N158	N	1.438017	-0.056286	1.199891
H159	H	0.934470	-0.608712	0.676298
H160	H	1.434470	-0.108712	1.176298
H161	H	0.832736	-0.481892	0.541264
H162	H	1.332736	0.018108	1.041264
N163	N	0.270065	-0.283844	0.221364
N164	N	0.770065	0.216156	0.721364
N165	N	0.306518	-0.312137	0.181386
N166	N	0.806518	0.187863	0.681386
H167	H	0.330118	-0.274888	0.152514
H168	H	0.830118	0.225112	0.652514
N169	N	0.673695	-0.283913	0.221234
N170	N	1.173695	0.216087	0.721234
N171	N	0.644473	-0.237785	0.185538
N172	N	1.144473	0.262215	0.685538
H173	H	0.668065	-0.200517	0.156675
H174	H	1.168065	0.299483	0.656675
H175	H	0.548230	-0.482039	0.374694
H176	H	1.048230	0.017961	0.874694
H177	H	0.465017	-0.376536	0.199750
H178	H	0.965017	0.123464	0.699750
N179	N	0.986533	-0.284076	0.534605
N180	N	1.486533	0.215924	1.034605
N181	N	1.022323	-0.238033	0.563852
N182	N	1.522323	0.261967	1.063852
H183	H	1.051255	-0.200828	0.540280
H184	H	1.551255	0.299172	1.040280
N185	N	0.986507	-0.284049	0.666860
N186	N	1.486507	0.215951	1.166860
N187	N	1.022302	-0.238005	0.637670
N188	N	1.522302	0.261995	1.137670
H189	H	1.051222	-0.200789	0.661288
H190	H	1.551222	0.299211	1.161288
H191	H	0.346313	-0.376513	0.199793
H192	H	0.846313	0.123487	0.699793
N193	N	0.986479	-0.284034	0.938222
N194	N	1.486479	0.215966	1.438222
N195	N	1.026399	-0.312396	0.901740
N196	N	1.526399	0.187604	1.401740
H197	H	1.055323	-0.275197	0.878152
H198	H	1.555323	0.224803	1.378152
N199	N	0.915489	-0.241437	0.868637
N200	N	1.415489	0.258563	1.368637
N201	N	0.915477	-0.241438	0.927060
N202	N	1.415477	0.258562	1.427060
H203	H	0.919055	-0.189029	0.950671
H204	H	1.419055	0.310971	1.450671
N205	N	0.986460	-0.283997	1.070496
N206	N	1.486460	0.216003	1.570496
N207	N	1.022257	-0.237959	1.041302
N208	N	1.522257	0.262041	1.541302
H209	H	1.051178	-0.200743	1.064918
H210	H	1.551178	0.299257	1.564918
H211	H	0.832684	-0.481831	1.063614
H212	H	1.332684	0.018169	1.563614
N213	N	0.824391	-0.492541	0.938123
N214	N	1.324391	0.007459	1.438123
N215	N	0.788597	-0.538583	0.967316
N216	N	1.288597	-0.038583	1.467316
H217	H	0.759672	-0.575795	0.943701
H218	H	1.259672	-0.075795	1.443701
N219	N	0.339720	-0.401403	0.416295
N220	N	0.839720	0.098597	0.916295
N221	N	0.281297	-0.401398	0.416310
N222	N	0.781297	0.098602	0.916310
H223	H	0.257725	-0.406093	0.457032
H224	H	0.757725	0.093907	0.957032
H225	H	0.896439	-0.520102	0.861836
H226	H	1.396439	-0.020102	1.361836
H227	H	0.144594	-0.481930	0.374844
H228	H	0.644594	0.018070	0.874844
N229	N	0.137787	-0.283788	0.221431
N230	N	0.637787	0.216212	0.721431
N231	N	0.079364	-0.283775	0.221459
N232	N	0.579364	0.216225	0.721459
H233	H	0.055751	-0.246498	0.192621
H234	H	0.555751	0.253502	0.692621
