data_functionalizedCrystal
_audit_creation_method	'MofGen! by Chris Wilmer'
_symmetry_space_group_name_H-M	'P1'
_symmetry_Int_Tables_number	1
_symmetry_cell_setting	triclinic
loop_
_symmetry_equiv_pos_as_xyz
  x,y,z
_cell_length_a	6.817900
_cell_length_b	16.305597
_cell_length_c	16.305656
_cell_angle_alpha	95.366340
_cell_angle_beta	103.457069
_cell_angle_gamma	103.455834
loop_
_atom_site_label
_atom_site_type_symbol
_atom_site_fract_x
_atom_site_fract_y
_atom_site_fract_z
V1	V	-4.026188	-0.117404	-0.263319
O2	O	-4.013848	0.004935	-0.258009
O3	O	-3.977578	-0.232112	-0.261804
O4	O	-3.977597	-0.115908	-0.378031
O5	O	-4.013829	-0.112074	-0.140978
V6	V	-4.509868	-0.102734	-0.248651
O7	O	-4.287102	-0.149583	-0.295494
O8	O	-4.699151	-0.070554	-0.216476
O9	O	-4.335271	0.011975	-0.250166
O10	O	-4.639605	-0.225073	-0.253961
O11	O	-4.639623	-0.108064	-0.370992
O12	O	-4.335253	-0.104230	-0.133939
C13	C	-3.822534	-0.260066	-0.257724
C14	C	-3.864076	-0.353843	-0.257250
C15	C	-4.015203	-0.694597	-0.255569
C16	C	-3.779484	-0.653755	-0.250963
C17	C	-3.735946	-0.556156	-0.251121
C18	C	-3.940226	-0.525545	-0.256404
C19	C	-4.023199	-0.550708	-0.177799
C20	C	-4.065004	-0.648239	-0.177218
C21	C	-4.153228	-0.673992	-0.338554
C22	C	-4.106397	-0.576483	-0.340010
C23	C	-3.897862	-0.430004	-0.256873
C24	C	-4.057571	-0.790138	-0.255095
C25	C	-3.822557	-0.111834	-0.405981
C26	C	-3.864110	-0.111370	-0.499761
C27	C	-3.940239	-0.110497	-0.671458
C28	C	-3.736021	-0.105218	-0.701975
C29	C	-3.778996	-0.104399	-0.799465
C30	C	-4.015191	-0.109639	-0.840506
C31	C	-4.067483	-0.031561	-0.794880
C32	C	-4.022751	-0.031955	-0.697262
C33	C	-4.109599	-0.193268	-0.722787
C34	C	-4.149300	-0.193740	-0.820437
C35	C	-4.057561	-0.109151	-0.936045
C36	C	-3.897873	-0.110980	-0.575919
C37	C	-4.153657	0.039924	-0.254243
C38	C	-4.091354	0.133701	-0.254723
C39	C	-4.153635	-0.108306	-0.105984
C40	C	-4.091320	-0.108765	-0.012204
H41	H	-4.235019	-0.675083	-0.177165
Cl42	Cl	-4.341619	-0.545903	-0.353500
Cl43	Cl	-3.615818	-0.011194	-0.818135
Cl44	Cl	-4.419757	-0.715680	-0.345026
H45	H	-3.669707	-0.539386	-0.307290
Cl46	Cl	-3.839420	0.064239	-0.644482
Cl47	Cl	-4.331087	-0.032881	-0.835893
H48	H	-3.966023	-0.659576	-0.114783
Cl49	Cl	-3.841028	-0.495480	-0.082242
H50	H	-3.733466	-0.160194	-0.830553
H51	H	-4.171967	-0.032373	-0.676904
Cl52	Cl	-3.708674	-0.701042	-0.337329
Cl53	Cl	-4.032328	-0.285510	-0.697204
H54	H	-4.173227	-0.530858	-0.178657
Cl55	Cl	-3.919431	0.064524	-0.815094
Cl56	Cl	-3.632272	-0.191741	-0.676763
H57	H	-3.609640	-0.045501	-0.666275
Cl58	Cl	-4.110492	-0.724432	-0.430590
Cl59	Cl	-4.089248	-0.282989	-0.867862
H60	H	-4.047536	-0.560945	-0.398173
H61	H	-4.323341	-0.202460	-0.849405
H62	H	-4.261865	-0.197923	-0.703639
H63	H	-3.674448	-0.667098	-0.191112
H64	H	-3.609152	-0.521566	-0.191098
