data_functionalizedCrystal
_audit_creation_method	'MofGen! by Chris Wilmer'
_symmetry_space_group_name_H-M	'P1'
_symmetry_Int_Tables_number	1
_symmetry_cell_setting	triclinic
loop_
_symmetry_equiv_pos_as_xyz
  x,y,z
_cell_length_a	6.817900
_cell_length_b	10.773890
_cell_length_c	11.168144
_cell_angle_alpha	95.440872
_cell_angle_beta	108.508840
_cell_angle_gamma	96.645716
loop_
_atom_site_label
_atom_site_type_symbol
_atom_site_fract_x
_atom_site_fract_y
_atom_site_fract_z
V1	V	-4.049521	-0.172612	-0.391642
O2	O	-4.072362	0.008277	-0.386303
O3	O	-3.966488	-0.342243	-0.386928
O4	O	-4.026737	-0.169965	-0.563379
O5	O	-4.011696	-0.165194	-0.208630
V6	V	-4.534317	-0.150975	-0.370000
O7	O	-4.307986	-0.220075	-0.439116
O8	O	-4.726048	-0.103512	-0.322525
O9	O	-4.394143	0.018656	-0.374714
O10	O	-4.628872	-0.331863	-0.375338
O11	O	-4.689539	-0.158392	-0.553011
O12	O	-4.333893	-0.153622	-0.198262
C13	C	-3.802235	-0.383595	-0.380224
C14	C	-3.815804	-0.522271	-0.377514
C15	C	-3.879088	-0.163836	-0.605304
C16	C	-3.941514	-0.162794	-0.745687
C17	C	-4.015015	-0.052690	-0.937515
C18	C	-3.950494	-0.053764	-0.792421
C19	C	-3.994581	-0.590134	-0.382223
C20	C	-4.008609	-0.733463	-0.379422
C21	C	-4.221736	0.060002	-0.381414
C22	C	-4.187406	0.198677	-0.384132
C23	C	-4.144883	-0.159755	-0.156331
C24	C	-4.061696	-0.160791	-0.015947
H25	H	-4.022828	0.040655	-0.977783
F26	F	-4.373918	-0.738587	-0.392121
H27	H	-3.910406	0.038784	-0.725032
H28	H	-3.673135	-0.570283	-0.371417
H29	H	-3.981571	-0.255346	-0.813068
F30	F	-4.051517	-0.282804	-0.963322
F31	F	-4.181076	-0.527389	-0.390210
F32	F	-3.822108	-0.796205	-0.371452
