data_functionalizedCrystal
_audit_creation_method	'MofGen! by Chris Wilmer'
_symmetry_space_group_name_H-M	'P1'
_symmetry_Int_Tables_number	1
_symmetry_cell_setting	triclinic
loop_
_symmetry_equiv_pos_as_xyz
  x,y,z
_cell_length_a	16.109293
_cell_length_b	16.109301
_cell_length_c	15.186229
_cell_angle_alpha	90.000894
_cell_angle_beta	90.006769
_cell_angle_gamma	96.540124
loop_
_atom_site_label
_atom_site_type_symbol
_atom_site_fract_x
_atom_site_fract_y
_atom_site_fract_z
O1	O	-1.103135	0.106835	-0.073289
O2	O	-0.861072	0.120141	-0.073274
O3	O	-0.988753	-0.007543	-0.073287
O4	O	-0.975454	0.234519	-0.073277
O5	O	-0.988744	-0.007545	0.073171
O6	O	-0.861063	0.120139	0.073183
O7	O	-1.103126	0.106833	0.073168
Zn8	Zn	-0.982093	0.113486	0.096429
Zn9	Zn	-0.982105	0.113488	-0.096535
O10	O	-0.975445	0.234517	0.073181
C11	C	-0.830093	0.119602	-0.000044
C12	C	-0.737797	0.117990	-0.000039
C13	C	-0.525451	0.114260	0.079792
C14	C	-0.438730	0.112736	0.079791
C15	C	-0.438750	0.112742	-0.079885
C16	C	-0.525469	0.114260	-0.079883
C17	C	-0.568817	0.115024	-0.000042
C18	C	-0.395377	0.111981	-0.000044
C19	C	-0.301351	0.110329	-0.000046
C20	C	-0.662849	0.116675	-0.000040
C21	C	-0.988210	-0.038519	-0.000061
C22	C	-0.986595	-0.130814	-0.000070
C23	C	-0.134104	0.107380	-0.000057
C24	C	-0.226397	0.109015	-0.000048
C25	C	-0.975988	0.265493	-0.000047
C26	C	-0.977603	0.357788	-0.000044
N27	N	-0.982092	0.113484	0.228122
C28	C	-0.905595	0.580063	-0.000052
C29	C	-0.907119	0.666783	-0.000059
C30	C	-1.058609	0.646905	-0.000064
C31	C	-1.057084	0.560186	-0.000064
C32	C	-0.980575	0.526768	-0.000053
C33	C	-0.983624	0.700207	-0.000060
C34	C	-0.985277	0.794233	-0.000068
C35	C	-0.978921	0.432736	-0.000048
N36	N	-0.982113	0.113484	-0.228228
C37	C	-1.038648	0.056964	0.453839
C38	C	-1.038651	0.056962	0.546029
C39	C	-0.925550	0.170006	0.546049
C40	C	-0.925544	0.170003	0.453861
C41	C	-0.982098	0.113483	0.407758
C42	C	-0.982107	0.113484	0.592136
C43	C	-0.982109	0.113482	0.692092
C44	C	-0.982095	0.113484	0.307796
H45	H	-0.560742	0.114882	0.144804
N46	N	-0.572244	0.115077	-0.165998
H47	H	-0.550406	0.166321	-0.200901
H48	H	-0.633748	0.116117	-0.153811
H49	H	-0.846063	0.710173	-0.000059
H50	H	-1.084698	0.010938	0.583545
N51	N	-0.864541	0.230959	0.404151
H52	H	-0.828719	0.266768	0.447344
H53	H	-0.896353	0.267722	0.365890
H54	H	-0.879507	0.216025	0.583594
H55	H	-0.403446	0.112122	-0.144888
N56	N	-0.391956	0.111909	0.165898
H57	H	-0.432654	0.112037	0.216471
H58	H	-0.349616	0.163084	0.169648
N59	N	-1.141126	0.682949	-0.000057
H60	H	-1.130716	0.745972	-0.000050
H61	H	-1.173919	0.663446	0.054240
N62	N	-0.823079	0.544016	-0.000040
H63	H	-0.775812	0.590941	-0.000041
H64	H	-0.819150	0.508466	-0.054331
N65	N	-1.137958	0.502695	-0.000068
H66	H	-1.186657	0.537023	-0.000068
H67	H	-1.140617	0.466283	0.054225
H68	H	-1.084696	0.010941	0.416305
