data_functionalizedCrystal
_audit_creation_method	'MofGen! by Chris Wilmer'
_symmetry_space_group_name_H-M	'P1'
_symmetry_Int_Tables_number	1
_symmetry_cell_setting	triclinic
loop_
_symmetry_equiv_pos_as_xyz
  x,y,z
_cell_length_a	10.654551
_cell_length_b	10.654550
_cell_length_c	11.892095
_cell_angle_alpha	93.928097
_cell_angle_beta	86.063779
_cell_angle_gamma	84.485087
loop_
_atom_site_label
_atom_site_type_symbol
_atom_site_fract_x
_atom_site_fract_y
_atom_site_fract_z
O1	O	1.675799	0.168446	-0.093986
O2	O	1.310321	0.185251	-0.093991
O3	O	1.501463	-0.005890	-0.093984
O4	O	1.484658	0.359587	-0.093993
O5	O	1.485526	0.010022	0.094023
O6	O	1.294384	0.201163	0.094016
O7	O	1.659862	0.184359	0.094021
Zn8	Zn	1.474593	0.195287	0.123869
Zn9	Zn	1.495591	0.174322	-0.123839
O10	O	1.468720	0.375500	0.094014
C11	C	1.255555	0.191973	0.000012
C12	C	1.116112	0.188280	0.000010
C13	C	0.910893	0.191736	0.102494
C14	C	1.041913	0.195217	0.102494
C15	C	1.059283	0.177875	-0.102481
C16	C	0.928264	0.174404	-0.102481
C17	C	0.836701	0.198661	0.204985
C18	C	0.893521	0.209068	0.307476
C19	C	1.024541	0.212549	0.307477
C20	C	1.098742	0.205622	0.204985
C21	C	1.492261	-0.044732	0.000018
C22	C	1.488569	-0.184176	0.000014
C23	C	1.601110	-0.263661	0.000019
C24	C	1.597634	-0.394682	0.000011
C25	C	1.369066	-0.366721	-0.000002
C26	C	1.372544	-0.235702	-0.000002
C27	C	1.717135	-0.212134	0.000035
C28	C	1.829686	-0.291620	0.000042
C29	C	1.826210	-0.422642	0.000034
C30	C	1.710184	-0.474177	0.000019
C31	C	1.714629	0.177636	0.000016
C32	C	1.854072	0.181328	0.000010
C33	C	1.477923	0.414341	0.000010
C34	C	1.481615	0.553784	0.000006
N35	N	1.460271	0.209595	0.292922
N36	N	1.509922	0.160005	-0.292892
C37	C	1.609576	0.060376	0.529575
C38	C	1.599575	0.070385	0.647917
C39	C	1.430262	0.239618	0.647949
C40	C	1.440263	0.229608	0.529607
C41	C	1.529925	0.139985	0.470425
C42	C	1.539931	0.129982	0.352081
C43	C	1.370613	0.299207	0.352115
C44	C	1.360612	0.309217	0.470457
H45	H	1.070799	0.221035	0.390930
C46	C	1.332843	0.336717	0.712369
C47	C	1.249670	0.274833	0.780337
C48	C	1.159921	0.364238	0.839711
H49	H	1.286695	0.382751	0.660330
H50	H	1.374536	0.393300	0.758598
H51	H	1.207980	0.218272	0.734112
H52	H	1.295781	0.228805	0.832396
H53	H	1.201614	0.420821	0.885940
H54	H	1.113783	0.410267	0.787665
H55	H	1.103485	0.322264	0.885842
C56	C	1.948288	-0.509079	0.000208
C57	C	1.944751	-0.576960	0.096914
C58	C	2.057183	-0.656608	0.097110
H59	H	2.017979	-0.459777	0.000274
H60	H	1.957249	-0.566384	-0.065323
H61	H	1.935804	-0.519662	0.162429
H62	H	1.875084	-0.626287	0.096869
H63	H	2.066144	-0.713914	0.031579
H64	H	2.126866	-0.607296	0.097173
H65	H	2.054794	-0.702684	0.162718
H66	H	1.274603	-0.408692	-0.000012
H67	H	1.205425	0.208471	0.204994
C68	C	0.866806	0.163042	-0.213865
C69	C	0.959824	0.157681	-0.303623
C70	C	0.903258	0.147209	-0.406248
H71	H	0.807131	0.234407	-0.218278
H72	H	0.825028	0.088188	-0.218190
H73	H	1.001582	0.232527	-0.299301
H74	H	1.019505	0.086318	-0.299248
H75	H	0.861479	0.072355	-0.410572
H76	H	0.843583	0.218576	-0.410649
H77	H	0.966362	0.143558	-0.467161
C78	C	1.955521	-0.235427	0.000108
C79	C	1.934480	-0.103670	0.000144
C80	C	2.050370	-0.051865	0.000220
H81	H	2.007564	-0.268045	-0.065435
H82	H	1.996358	-0.257028	0.065698
H83	H	1.893662	-0.082080	-0.065438
H84	H	1.882457	-0.071018	0.065683
H85	H	2.091208	-0.073466	0.065809
H86	H	2.102404	-0.084492	-0.065325
H87	H	2.036109	0.037537	0.000254
H88	H	1.707363	-0.580866	0.000001
C89	C	1.637309	0.032555	0.288027
C90	C	1.704897	-0.035045	0.365164
C91	C	1.794599	-0.124820	0.306202
H92	H	1.694006	0.074161	0.241847
H93	H	1.595603	-0.024113	0.241895
H94	H	1.746601	0.021615	0.411276
H95	H	1.648235	-0.076677	0.411346
H96	H	1.752893	-0.181488	0.260071
H97	H	1.851287	-0.083204	0.260025
H98	H	1.840460	-0.170705	0.358531
H99	H	0.730017	0.195826	0.204996
C100	C	1.686211	-0.016121	0.711935
C101	C	1.766887	-0.096728	0.634770
C102	C	1.846725	-0.176430	0.693701
H103	H	1.636819	-0.065031	0.758112
H104	H	1.735057	0.033409	0.758066
H105	H	1.718047	-0.146253	0.588658
H106	H	1.816307	-0.047853	0.588591
H107	H	1.895570	-0.126900	0.739833
H108	H	1.797323	-0.225331	0.739876
H109	H	1.901481	-0.231123	0.641355
H110	H	1.287608	0.382183	0.518657
H111	H	1.719978	-0.105451	0.000045
C112	C	1.284343	0.385708	0.287753
C113	C	1.357666	0.457438	0.219789
C114	C	1.278248	0.537129	0.160473
H115	H	1.229496	0.440625	0.339826
H116	H	1.235592	0.336181	0.241526
H117	H	1.406396	0.506961	0.266012
H118	H	1.412510	0.402554	0.167695
H119	H	1.229496	0.487602	0.114246
H120	H	1.223404	0.592038	0.212555
H121	H	1.327985	0.585799	0.114345
H122	H	0.833097	0.214718	0.390921
H123	H	1.280903	-0.170983	-0.000005
H124	H	1.119707	0.172235	-0.185925
H125	H	1.682591	-0.012591	0.481388
