data_functionalizedCrystal
_audit_creation_method	'MofGen! by Chris Wilmer'
_symmetry_space_group_name_H-M	'P1'
_symmetry_Int_Tables_number	1
_symmetry_cell_setting	triclinic
loop_
_symmetry_equiv_pos_as_xyz
  x,y,z
_cell_length_a	21.395364
_cell_length_b	21.395361
_cell_length_c	21.395355
_cell_angle_alpha	90.021511
_cell_angle_beta	89.975484
_cell_angle_gamma	89.973528
loop_
_atom_site_label
_atom_site_type_symbol
_atom_site_fract_x
_atom_site_fract_y
_atom_site_fract_z
Zn1	Zn	0.957859	0.249582	-0.354248
Zn2	Zn	1.291192	0.582915	-0.020914
Zn3	Zn	1.624526	0.916249	0.312419
Zn4	Zn	0.957761	0.354342	-0.249465
Zn5	Zn	1.291095	0.687675	0.083869
Zn6	Zn	1.624428	1.021008	0.417202
Zn7	Zn	0.853074	0.249574	-0.249485
Zn8	Zn	1.186407	0.582908	0.083849
Zn9	Zn	1.519741	0.916241	0.417182
Zn10	Zn	0.853043	0.354318	-0.354205
Zn11	Zn	1.186376	0.687651	-0.020872
Zn12	Zn	1.519710	1.020985	0.312462
O13	O	0.905434	0.301954	-0.301851
O14	O	1.238768	0.635287	0.031483
O15	O	1.572101	0.968621	0.364816
O16	O	1.045524	0.263492	-0.340358
O17	O	1.378857	0.596825	-0.007024
O18	O	1.712191	0.930158	0.326309
O19	O	0.943847	0.340451	-0.161789
O20	O	1.277180	0.673784	0.171544
O21	O	1.610513	1.007118	0.504877
O22	O	0.867028	0.161897	-0.263408
O23	O	1.200361	0.495231	0.069926
O24	O	1.533694	0.828564	0.403259
O25	O	1.045452	0.340458	-0.263374
O26	O	1.378786	0.673792	0.069959
O27	O	1.712119	1.007125	0.403293
O28	O	0.944013	0.161903	-0.340377
O29	O	1.277346	0.495236	-0.007043
O30	O	1.610679	0.828570	0.326290
O31	O	0.866933	0.263479	-0.161804
O32	O	1.200266	0.596812	0.171529
O33	O	1.533600	0.930145	0.504863
O34	O	0.765392	0.263456	-0.263366
O35	O	1.098725	0.596789	0.069967
O36	O	1.432059	0.930122	0.403300
O37	O	0.866975	0.340418	-0.441889
O38	O	1.200308	0.673751	-0.108555
O39	O	1.533642	1.007084	0.224778
O40	O	0.765369	0.340410	-0.340304
O41	O	1.098703	0.673744	-0.006971
O42	O	1.432036	1.007077	0.326363
O43	O	0.943983	0.263469	-0.441920
O44	O	1.277316	0.596802	-0.108587
O45	O	1.610650	0.930135	0.224747
O46	O	0.943817	0.442016	-0.263333
O47	O	1.277150	0.775350	0.070001
O48	O	1.610483	1.108683	0.403334
O49	O	0.866881	0.441999	-0.340285
O50	O	1.200214	0.775332	-0.006952
O51	O	1.533547	1.108666	0.326382
C52	C	0.905352	0.464742	-0.301816
C53	C	1.238685	0.798075	0.031518
C54	C	1.572018	1.131408	0.364851
C55	C	0.905374	0.534383	-0.301822
C56	C	1.238707	0.867716	0.031512
C57	C	1.572040	1.201050	0.364845
C58	C	0.742647	0.301930	-0.301833
C59	C	1.075980	0.635263	0.031500
C60	C	1.409313	0.968597	0.364834
C61	C	0.673006	0.301935	-0.301840
C62	C	1.006339	0.635268	0.031493
C63	C	1.339672	0.968601	0.364826
C64	C	0.905486	0.301941	-0.465274
C65	C	1.238820	0.635275	-0.131941
C66	C	1.572153	0.968608	0.201393
C67	C	0.905509	0.301936	-0.534915
C68	C	1.238842	0.635269	-0.201582
C69	C	1.572175	0.968603	0.131752
C70	C	0.171246	0.261972	-0.342010
C71	C	0.504579	0.595305	-0.008677
C72	C	0.837913	0.928639	0.324657
C73	C	0.236681	0.261967	-0.342010
C74	C	0.570015	0.595301	-0.008677
C75	C	0.903348	0.928634	0.324657
C76	C	0.269367	0.301973	-0.301865
C77	C	0.602701	0.635306	0.031469
C78	C	0.936034	0.968640	0.364802
C79	C	0.236612	0.341998	-0.261728
C80	C	0.569946	0.675331	0.071606
C81	C	0.903279	1.008665	0.404939
C82	C	0.171178	0.342006	-0.261734
C83	C	0.504511	0.675339	0.071600
C84	C	0.837845	1.008672	0.404933
C85	C	0.373004	0.306825	-0.245397
C86	C	0.706337	0.640158	0.087936
C87	C	1.039670	0.973492	0.421270
C88	C	0.438437	0.306813	-0.245390
C89	C	0.771770	0.640146	0.087943
C90	C	1.105103	0.973479	0.421276
C91	C	0.471188	0.301952	-0.301847
C92	C	0.804521	0.635286	0.031486
C93	C	1.137855	0.968619	0.364819
C94	C	0.438498	0.297091	-0.358313
C95	C	0.771832	0.630425	-0.024979
C96	C	1.105165	0.963758	0.308354
C97	C	0.373064	0.297099	-0.358318
C98	C	0.706397	0.630432	-0.024985
C99	C	1.039731	0.963766	0.308348
C100	C	0.340320	0.301969	-0.301854
C101	C	0.673653	0.635303	0.031479
C102	C	1.006986	0.968636	0.364812
C103	C	0.574888	0.261928	-0.341984
C104	C	0.908221	0.595261	-0.008651
C105	C	1.241554	0.928595	0.324682
C106	C	0.640324	0.261928	-0.341985
C107	C	0.973658	0.595261	-0.008652
C108	C	1.306991	0.928595	0.324681
C109	C	0.640254	0.341955	-0.261698
C110	C	0.973587	0.675288	0.071636
C111	C	1.306920	1.008622	0.404969
C112	C	0.574818	0.341959	-0.261702
C113	C	0.908152	0.675292	0.071631
C114	C	1.241485	1.008625	0.404964
C115	C	0.542139	0.301942	-0.301845
C116	C	0.875473	0.635275	0.031488
C117	C	1.208806	0.968608	0.364822
C118	C	1.068858	0.301979	-0.301868
C119	C	1.402191	0.635312	0.031465
C120	C	1.735524	0.968645	0.364798
C121	C	1.138499	0.301989	-0.301876
C122	C	1.471832	0.635322	0.031457
C123	C	1.805166	0.968656	0.364791
C124	C	0.905535	0.138531	-0.301899
C125	C	1.238868	0.471864	0.031434
C126	C	1.572201	0.805197	0.364767
C127	C	0.905577	0.068889	-0.301920
C128	C	1.238911	0.402223	0.031413
C129	C	1.572244	0.735556	0.364747
C130	C	0.945470	0.567084	-0.261794
C131	C	1.278803	0.900418	0.071540
C132	C	1.612136	1.233751	0.404873
C133	C	0.945499	0.632520	-0.261808
C134	C	1.278832	0.965853	0.071526
C135	C	1.612166	1.299186	0.404859
C136	C	0.905421	0.665251	-0.301843
C137	C	1.238754	0.998584	0.031490
C138	C	1.572087	1.331918	0.364824
C139	C	0.865322	0.632542	-0.341879
C140	C	1.198655	0.965875	-0.008546
C141	C	1.531988	1.299208	0.324788
C142	C	0.865298	0.567108	-0.341868
C143	C	1.198632	0.900441	-0.008535
C144	C	1.531965	1.233774	0.324798
C145	C	0.849006	0.768962	-0.306753
C146	C	1.182339	1.102295	0.026580
C147	C	1.515673	1.435629	0.359914
C148	C	0.849029	0.834395	-0.306759
C149	C	1.182362	1.167728	0.026574
C150	C	1.515695	1.501062	0.359907
C151	C	0.905494	0.867072	-0.301880
C152	C	1.238827	1.200405	0.031453
C153	C	1.572160	1.533739	0.364787
C154	C	0.961938	0.834308	-0.296981
C155	C	1.295271	1.167641	0.036352
C156	C	1.628605	1.500974	0.369686
C157	C	0.961915	0.768873	-0.296970
C158	C	1.295248	1.102207	0.036363
C159	C	1.628581	1.435540	0.369697
C160	C	0.905442	0.736203	-0.301860
C161	C	1.238775	1.069537	0.031474
C162	C	1.572109	1.402870	0.364807
C163	C	0.945625	0.970726	-0.261865
C164	C	1.278958	1.304059	0.071468
C165	C	1.612291	1.637393	0.404802
C166	C	0.945655	1.036162	-0.261883
C167	C	1.278988	1.369496	0.071450
C168	C	1.612322	1.702829	0.404783
C169	C	0.865472	1.036183	-0.341951
C170	C	1.198806	1.369517	-0.008618
C171	C	1.532139	1.702850	0.324715
C172	C	0.865448	0.970748	-0.341936
C173	C	1.198781	1.304081	-0.008603
C174	C	1.532114	1.637415	0.324730
C175	C	0.905523	0.938023	-0.301890
C176	C	1.238856	1.271356	0.031444
C177	C	1.572190	1.604690	0.364777
C178	C	0.945605	0.261867	-0.567646
C179	C	1.278938	0.595200	-0.234312
C180	C	1.612271	0.928533	0.099021
C181	C	0.945604	0.261840	-0.633081
C182	C	1.278937	0.595173	-0.299748
C183	C	1.612271	0.928507	0.033586
C184	C	0.905513	0.301893	-0.665784
C185	C	1.238847	0.635227	-0.332450
C186	C	1.572180	0.968560	0.000883
C187	C	0.865409	0.341965	-0.633045
C188	C	1.198743	0.675298	-0.299712
C189	C	1.532076	1.008632	0.033621
C190	C	0.865407	0.341986	-0.567611
C191	C	1.198740	0.675320	-0.234278
C192	C	1.532074	1.008653	0.099056
C193	C	0.900538	0.358308	-0.769446
C194	C	1.233871	0.691641	-0.436113
C195	C	1.567204	1.024975	-0.102779
C196	C	0.900544	0.358288	-0.834879
C197	C	1.233878	0.691621	-0.501546
C198	C	1.567211	1.024955	-0.168212
C199	C	0.905517	0.301827	-0.867604
C200	C	1.238851	0.635160	-0.534271
C201	C	1.572184	0.968494	-0.200938
C202	C	0.910497	0.245385	-0.834889
C203	C	1.243830	0.578718	-0.501555
C204	C	1.577163	0.912051	-0.168222
C205	C	0.910494	0.245406	-0.769454
C206	C	1.243828	0.578739	-0.436121
C207	C	1.577161	0.912073	-0.102788
C208	C	0.905511	0.301874	-0.736736
C209	C	1.238845	0.635208	-0.403403
C210	C	1.572178	0.968541	-0.070069
C211	C	0.945615	0.261725	-0.971287
C212	C	1.278948	0.595059	-0.637954
C213	C	1.612281	0.928392	-0.304621
C214	C	0.945610	0.261697	-1.036724
C215	C	1.278943	0.595031	-0.703391
C216	C	1.612276	0.928364	-0.370057
C217	C	0.865418	0.341828	-1.036687
C218	C	1.198752	0.675161	-0.703354
C219	C	1.532085	1.008495	-0.370020
C220	C	0.865420	0.341850	-0.971252
C221	C	1.198754	0.675184	-0.637918
C222	C	1.532087	1.008517	-0.304585
C223	C	0.905522	0.301800	-0.938556
C224	C	1.238855	0.635133	-0.605222
C225	C	1.572189	0.968467	-0.271889
C226	C	0.905419	0.301921	-0.139063
C227	C	1.238752	0.635255	0.194270
C228	C	1.572085	0.968588	0.527604
C229	C	0.905518	0.301750	-0.069422
C230	C	1.238851	0.635084	0.263911
C231	C	1.572185	0.968417	0.597245
H232	H	0.144643	0.229390	-0.374700
H233	H	0.477976	0.562723	-0.041366
H234	H	0.811309	0.896056	0.291967
Cl235	Cl	0.681338	0.392254	-0.211234
Cl236	Cl	1.014672	0.725587	0.122100
Cl237	Cl	1.348005	1.058921	0.455433
H238	H	0.832795	0.944121	-0.374528
H239	H	1.166128	1.277454	-0.041195
H240	H	1.499462	1.610787	0.292139
H241	H	0.548279	0.229344	-0.374671
H242	H	0.881612	0.562677	-0.041338
H243	H	1.214946	0.896011	0.291996
Cl244	Cl	0.894291	0.429243	-0.876001
Cl245	Cl	1.227624	0.762577	-0.542667
Cl246	Cl	1.560957	1.095910	-0.209334
Cl247	Cl	0.277858	0.211655	-0.392466
Cl248	Cl	0.611191	0.544988	-0.059133
Cl249	Cl	0.944525	0.878321	0.274201
H250	H	0.896320	0.404274	-0.742807
H251	H	1.229654	0.737607	-0.409473
H252	H	1.562987	1.070940	-0.076140
Cl253	Cl	0.995859	0.525948	-0.211459
Cl254	Cl	1.329193	0.859281	0.121875
Cl255	Cl	1.662526	1.192615	0.455208
Cl256	Cl	0.996024	0.211374	-0.930181
Cl257	Cl	1.329357	0.544707	-0.596848
Cl258	Cl	1.662690	0.878041	-0.263514
Cl259	Cl	0.479664	0.290972	-0.429292
Cl260	Cl	0.812997	0.624305	-0.095958
Cl261	Cl	1.146330	0.957639	0.237375
H262	H	0.978254	0.229207	-0.659735
H263	H	1.311587	0.562541	-0.326402
H264	H	1.644920	0.895874	0.006931
H265	H	0.914547	0.199409	-0.861532
H266	H	1.247880	0.532742	-0.528199
H267	H	1.581214	0.866076	-0.194865
H268	H	0.666986	0.229343	-0.374672
H269	H	1.000319	0.562676	-0.041338
H270	H	1.333653	0.896010	0.291995
H271	H	1.007873	0.742198	-0.292983
H272	H	1.341206	1.075532	0.040350
H273	H	1.674540	1.408865	0.373684
Cl274	Cl	0.331971	0.290994	-0.429300
Cl275	Cl	0.665304	0.624327	-0.095967
Cl276	Cl	0.998637	0.957660	0.237366
H277	H	0.978259	0.944080	-0.229259
H278	H	1.311592	1.277414	0.104075
H279	H	1.644925	1.610747	0.437408
Cl280	Cl	0.815012	0.392176	-1.077792
Cl281	Cl	1.148346	0.725509	-0.744459
Cl282	Cl	1.481679	1.058842	-0.411126
Cl283	Cl	0.995908	0.673639	-0.211482
Cl284	Cl	1.329242	1.006972	0.121852
Cl285	Cl	1.662575	1.340305	0.455185
Cl286	Cl	0.814941	0.673689	-0.392212
Cl287	Cl	1.148274	1.007022	-0.058879
Cl288	Cl	1.481607	1.340356	0.274455
Cl289	Cl	0.996071	1.077274	-0.211562
Cl290	Cl	1.329404	1.410607	0.121771
Cl291	Cl	1.662738	1.743940	0.455105
Cl292	Cl	1.032928	0.875379	-0.290840
Cl293	Cl	1.366261	1.208713	0.042494
Cl294	Cl	1.699594	1.542046	0.375827
Cl295	Cl	0.814997	0.392364	-0.526462
Cl296	Cl	1.148330	0.725697	-0.193129
Cl297	Cl	1.481663	1.059030	0.140205
H298	H	0.832843	1.062833	-0.374552
H299	H	1.166176	1.396166	-0.041218
H300	H	1.499509	1.729499	0.292115
Cl301	Cl	0.277702	0.392293	-0.211262
Cl302	Cl	0.611035	0.725627	0.122071
Cl303	Cl	0.944369	1.058960	0.455405
H304	H	0.832766	0.374575	-0.659676
H305	H	1.166099	0.707908	-0.326342
H306	H	1.499432	1.041241	0.006991
H307	H	0.548155	0.374542	-0.229018
H308	H	0.881489	0.707875	0.104315
H309	H	1.214822	1.041209	0.437648
H310	H	0.803068	0.861067	-0.310742
H311	H	1.136401	1.194400	0.022591
H312	H	1.469735	1.527733	0.355924
H313	H	0.465048	0.310767	-0.199413
H314	H	0.798381	0.644100	0.133921
H315	H	1.131714	0.977434	0.467254
Cl316	Cl	0.778014	0.727890	-0.312888
Cl317	Cl	1.111347	1.061223	0.020445
Cl318	Cl	1.444681	1.394556	0.353779
H319	H	0.346343	0.310785	-0.199420
H320	H	0.679676	0.644119	0.133913
H321	H	1.013010	0.977452	0.467247
H322	H	0.832647	0.540482	-0.374465
H323	H	1.165980	0.873815	-0.041131
H324	H	1.499313	1.207148	0.292202
Cl325	Cl	0.996014	0.211514	-0.526546
Cl326	Cl	1.329348	0.544847	-0.193212
Cl327	Cl	1.662681	0.878181	0.140121
Cl328	Cl	0.916749	0.174453	-0.728328
Cl329	Cl	1.250082	0.507787	-0.394995
Cl330	Cl	1.583416	0.841120	-0.061661
H331	H	0.144516	0.374594	-0.229051
H332	H	0.477849	0.707927	0.104282
H333	H	0.811182	1.041260	0.437616
Cl334	Cl	0.996031	0.211330	-1.077872
Cl335	Cl	1.329364	0.544663	-0.744538
Cl336	Cl	1.662698	0.877996	-0.411205
H337	H	0.832773	0.374483	-0.944602
H338	H	1.166107	0.707816	-0.611269
H339	H	1.499440	1.041150	-0.277935
