data_functionalizedCrystal
_audit_creation_method	'MofGen! by Chris Wilmer'
_symmetry_space_group_name_H-M	'P1'
_symmetry_Int_Tables_number	1
_symmetry_cell_setting	triclinic
loop_
_symmetry_equiv_pos_as_xyz
  x,y,z
_cell_length_a	14.044220
_cell_length_b	11.792254
_cell_length_c	10.268362
_cell_angle_alpha	89.998485
_cell_angle_beta	90.000071
_cell_angle_gamma	88.693738
loop_
_atom_site_label
_atom_site_type_symbol
_atom_site_fract_x
_atom_site_fract_y
_atom_site_fract_z
O1	O	-1.259125	-0.273764	0.108163
O2	O	-0.925791	0.059570	0.441496
O3	O	-0.592458	0.392903	0.774830
O4	O	-0.983104	-0.263885	0.108196
O5	O	-0.649771	0.069449	0.441529
O6	O	-0.316438	0.402782	0.774863
O7	O	-1.127806	-0.104283	0.108169
O8	O	-0.794473	0.229051	0.441503
O9	O	-0.461140	0.562384	0.774836
O10	O	-1.114423	-0.433366	0.108189
O11	O	-0.781089	-0.100032	0.441523
O12	O	-0.447756	0.233301	0.774856
O13	O	-1.127793	-0.104287	-0.108431
O14	O	-0.794459	0.229046	0.224902
O15	O	-0.461126	0.562379	0.558235
O16	O	-0.983090	-0.263889	-0.108405
O17	O	-0.649757	0.069444	0.224929
O18	O	-0.316424	0.402777	0.558262
O19	O	-1.259111	-0.273768	-0.108438
O20	O	-0.925777	0.059565	0.224896
O21	O	-0.592444	0.392898	0.558229
Cu22	Cu	-1.121099	-0.268829	-0.128199
Cu23	Cu	-0.787766	0.064504	0.205135
Cu24	Cu	-0.454433	0.397838	0.538468
Cu25	Cu	-1.121116	-0.268824	0.127957
Cu26	Cu	-0.787782	0.064510	0.461290
Cu27	Cu	-0.454449	0.397843	0.794623
O28	O	-1.114409	-0.433370	-0.108411
O29	O	-0.781075	-0.100037	0.224922
O30	O	-0.447742	0.233297	0.558256
C31	C	-0.947761	-0.259563	-0.000100
C32	C	-0.614427	0.073771	0.333233
C33	C	-0.281094	0.407104	0.666566
C34	C	-0.842468	-0.246664	-0.000088
C35	C	-0.509135	0.086670	0.333245
C36	C	-0.175801	0.420003	0.666579
C37	C	-1.294455	-0.278090	-0.000139
C38	C	-0.961121	0.055243	0.333195
C39	C	-0.627788	0.388576	0.666528
C40	C	-1.399747	-0.290989	-0.000142
C41	C	-1.066414	0.042344	0.333191
C42	C	-0.733080	0.375677	0.666524
C43	C	-1.126956	-0.061915	-0.000130
C44	C	-0.793623	0.271418	0.333203
C45	C	-0.460290	0.604751	0.666536
C46	C	-1.124433	0.064335	-0.000129
C47	C	-0.791100	0.397668	0.333204
C48	C	-0.457766	0.731001	0.666538
C49	C	-0.649685	-0.223082	-0.000115
C50	C	-0.316351	0.110252	0.333218
C51	C	0.016982	0.443585	0.666551
C52	C	-0.592525	-0.314566	-0.000115
C53	C	-0.259192	0.018767	0.333218
C54	C	0.074142	0.352100	0.666552
C55	C	-0.485254	-0.301445	-0.000130
C56	C	-0.151920	0.031888	0.333203
C57	C	0.181413	0.365222	0.666536
C58	C	-0.756966	-0.236201	-0.000100
C59	C	-0.423633	0.097132	0.333233
C60	C	-0.090299	0.430465	0.666567
C61	C	-1.115259	-0.475738	-0.000108
C62	C	-0.781925	-0.142404	0.333225
C63	C	-0.448592	0.190929	0.666558
C64	C	-1.117782	-0.601988	-0.000101
C65	C	-0.784449	-0.268654	0.333232
C66	C	-0.451116	0.064679	0.666565
C67	C	-1.122383	0.166864	-0.000124
C68	C	-0.789049	0.500197	0.333209
C69	C	-0.455716	0.833530	0.666543
C70	C	-1.119819	0.295491	-0.000112
C71	C	-0.786485	0.628824	0.333222
C72	C	-0.453152	0.962158	0.666555
N73	N	-1.121095	-0.268833	-0.308364
N74	N	-0.787761	0.064500	0.024969
N75	N	-0.454428	0.397834	0.358302
C76	C	-1.121102	-0.268834	-0.426207
C77	C	-0.787768	0.064499	-0.092873
C78	C	-0.454435	0.397832	0.240460
C79	C	-1.121113	-0.268825	-0.574045
C80	C	-0.787780	0.064508	-0.240711
C81	C	-0.454447	0.397842	0.092622
N82	N	-1.121128	-0.268812	0.308123
N83	N	-0.787795	0.064522	0.641456
N84	N	-0.454461	0.397855	0.974789
H85	H	-0.624152	-0.402743	-0.000103
H86	H	-0.290819	-0.069410	0.333230
H87	H	0.042514	0.263923	0.666563
Br88	Br	-0.596973	-0.076122	-0.000131
Br89	Br	-0.263639	0.257212	0.333203
Br90	Br	0.069694	0.590545	0.666536
