data_functionalizedCrystal
_audit_creation_method	'MofGen! by Chris Wilmer'
_symmetry_space_group_name_H-M	'P1'
_symmetry_Int_Tables_number	1
_symmetry_cell_setting	triclinic
loop_
_symmetry_equiv_pos_as_xyz
  x,y,z
_cell_length_a	14.971482
_cell_length_b	8.597278
_cell_length_c	13.448316
_cell_angle_alpha	82.293422
_cell_angle_beta	89.993798
_cell_angle_gamma	84.478045
loop_
_atom_site_label
_atom_site_type_symbol
_atom_site_fract_x
_atom_site_fract_y
_atom_site_fract_z
O1	O	1.188615	0.204506	-0.100196
O2	O	1.688615	0.704506	0.399804
O3	O	0.928414	0.229005	-0.102299
O4	O	1.428414	0.729005	0.397701
O5	O	1.063633	-0.011704	-0.081672
O6	O	1.563633	0.488296	0.418328
O7	O	1.053396	0.445215	-0.120823
O8	O	1.553396	0.945215	0.379177
O9	O	1.063616	-0.011719	0.083713
O10	O	1.563616	0.488281	0.583713
O11	O	0.928397	0.228990	0.063086
O12	O	1.428397	0.728990	0.563086
O13	O	1.188598	0.204491	0.065189
O14	O	1.688598	0.704491	0.565189
Cu15	Cu	1.058496	0.216739	0.079238
Cu16	Cu	1.558496	0.716739	0.579238
Cu17	Cu	1.058516	0.216757	-0.116349
Cu18	Cu	1.558516	0.716757	0.383651
O19	O	1.053379	0.445200	0.044562
O20	O	1.553379	0.945200	0.544562
C21	C	0.895072	0.227903	-0.019514
C22	C	1.395072	0.727903	0.480486
C23	C	0.795748	0.224623	-0.019234
C24	C	1.295748	0.724623	0.480766
C25	C	1.062524	-0.070185	0.006029
C26	C	1.562524	0.429815	0.506029
C27	C	1.059234	-0.244420	0.020951
C28	C	1.559234	0.255580	0.520951
C29	C	0.749081	0.223070	0.071050
C30	C	1.249081	0.723070	0.571050
C31	C	0.655757	0.219963	0.071318
C32	C	1.155757	0.719963	0.571318
C33	C	0.609101	0.218420	-0.018702
C34	C	1.109101	0.718420	0.481298
C35	C	0.655775	0.219968	-0.108993
C36	C	1.155775	0.719968	0.391007
C37	C	0.749098	0.223064	-0.109259
C38	C	1.249098	0.723064	0.390741
C39	C	0.461260	0.213519	-0.108434
C40	C	0.961260	0.713519	0.391566
C41	C	0.367931	0.210426	-0.108170
C42	C	0.867931	0.710426	0.391830
C43	C	0.367920	0.210418	0.072142
C44	C	0.867920	0.710418	0.572142
C45	C	0.461243	0.213514	0.071877
C46	C	0.961243	0.713514	0.571877
C47	C	0.507910	0.215065	-0.018415
C48	C	1.007910	0.715065	0.481585
C49	C	1.221940	0.205593	-0.017599
C50	C	1.721940	0.705593	0.482401
C51	C	1.321264	0.208873	-0.017885
C52	C	1.821264	0.708873	0.482115
C53	C	1.054488	0.503681	-0.043141
C54	C	1.554488	1.003681	0.456859
C55	C	1.057778	0.677916	-0.058070
C56	C	1.557778	1.177916	0.441930
N57	N	1.058488	0.216726	0.216804
N58	N	1.558488	0.716726	0.716804
N59	N	1.058531	0.216758	-0.253913
N60	N	1.558531	0.716758	0.246087
C61	C	1.118382	0.110184	0.277974
C62	C	1.618382	0.610184	0.777974
C63	C	1.118388	0.110183	0.382077
C64	C	1.618388	0.610183	0.882077
C65	C	1.058503	0.216732	0.425008
C66	C	1.558503	0.716732	0.925008
C67	C	0.998602	0.323279	0.363830
C68	C	1.498602	0.823279	0.863830
C69	C	0.998593	0.323272	0.259729
C70	C	1.498593	0.823272	0.759729
C71	C	0.998627	0.323290	0.580809
C72	C	1.498627	0.823290	1.080809
C73	C	0.998637	0.323300	0.684917
C74	C	1.498637	0.823300	1.184917
C75	C	1.118422	0.110201	0.703157
C76	C	1.618422	0.610201	1.203157
C77	C	1.118412	0.110193	0.599057
C78	C	1.618412	0.610193	1.099057
C79	C	1.058513	0.216743	0.537886
C80	C	1.558513	0.716743	1.037886
H81	H	0.787061	0.224339	0.144354
H82	H	1.287061	0.724339	0.644354
O83	O	1.059451	-0.233608	-0.162826
O84	O	1.559451	0.266392	0.337174
H85	H	1.121665	-0.172892	-0.172290
H86	H	1.621665	0.327108	0.327710
O87	O	0.605464	0.218297	-0.206092
O88	O	1.105464	0.718297	0.293908
H89	H	0.555913	0.323786	-0.219455
H90	H	1.055913	0.823786	0.280545
O91	O	0.317577	0.208794	0.169520
O92	O	0.817577	0.708794	0.669520
H93	H	0.282094	0.100503	0.183138
H94	H	0.782094	0.600503	0.683138
O95	O	1.057568	-0.332892	0.125701
O96	O	1.557568	0.167108	0.625701
H97	H	1.055173	-0.460452	0.121383
H98	H	1.555173	0.039548	0.621383
O99	O	0.511587	0.215184	-0.205825
O100	O	1.011587	0.715184	0.294175
H101	H	0.561138	0.109693	-0.201104
H102	H	1.061138	0.609693	0.298896
O103	O	1.182969	-0.004744	0.231672
O104	O	1.682969	0.495256	0.731672
H105	H	1.224611	-0.078841	0.291702
H106	H	1.724611	0.421159	0.791702
O107	O	1.183004	-0.004701	0.448056
O108	O	1.683004	0.495299	0.948056
H109	H	1.224657	-0.078769	0.400712
H110	H	1.724657	0.421231	0.900712
H111	H	1.167180	0.023440	0.564103
H112	H	1.667180	0.523440	1.064103
O113	O	1.183025	-0.004737	0.769126
O114	O	1.683025	0.495263	1.269126
H115	H	1.172964	0.013149	0.848728
H116	H	1.672964	0.513149	1.348728
O117	O	0.934030	0.438184	0.731230
O118	O	1.434030	0.938184	1.231230
H119	H	0.892362	0.512249	0.671209
H120	H	1.392362	1.012249	1.171209
O121	O	0.511555	0.215205	0.168972
O122	O	1.011555	0.715205	0.668972
H123	H	0.561122	0.109738	0.182333
H124	H	1.061122	0.609738	0.682333
H125	H	0.787092	0.224332	-0.182778
H126	H	1.287092	0.724332	0.317222
O127	O	0.934027	0.438215	0.514825
O128	O	1.434027	0.938215	1.014825
H129	H	0.892394	0.512322	0.562163
H130	H	1.392394	1.012322	1.062163
H131	H	0.949838	0.410029	0.398790
H132	H	1.449838	0.910029	0.898790
O133	O	0.933994	0.438173	0.193736
O134	O	1.433994	0.938173	0.693736
H135	H	0.946457	0.560567	0.203199
H136	H	1.446457	1.060567	0.703199
O137	O	0.605472	0.218256	0.168730
O138	O	1.105472	0.718256	0.668730
H139	H	0.630473	0.111954	0.221038
H140	H	1.130473	0.611954	0.721038
O141	O	0.317603	0.208753	-0.205258
O142	O	0.817603	0.708753	0.294742
H143	H	0.365732	0.210328	-0.268086
H144	H	0.865732	0.710328	0.231914
