data_functionalizedCrystal
_audit_creation_method	'MofGen! by Chris Wilmer'
_symmetry_space_group_name_H-M	'P1'
_symmetry_Int_Tables_number	1
_symmetry_cell_setting	triclinic
loop_
_symmetry_equiv_pos_as_xyz
  x,y,z
_cell_length_a	12.827893
_cell_length_b	18.050589
_cell_length_c	12.827885
_cell_angle_alpha	90.032172
_cell_angle_beta	90.021189
_cell_angle_gamma	90.033934
loop_
_atom_site_label
_atom_site_type_symbol
_atom_site_fract_x
_atom_site_fract_y
_atom_site_fract_z
Zn1	Zn	-1.597521	0.295663	-0.590885
Zn2	Zn	-1.097521	0.795663	-0.090885
Zn3	Zn	-1.597352	0.419871	-0.416138
Zn4	Zn	-1.097352	0.919871	0.083862
Zn5	Zn	-1.422762	0.295695	-0.416153
Zn6	Zn	-0.922762	0.795695	0.083847
Zn7	Zn	-1.422685	0.419811	-0.590832
Zn8	Zn	-0.922685	0.919811	-0.090832
O9	O	-1.510080	0.357760	-0.503502
O10	O	-1.010080	0.857760	-0.003502
O11	O	-1.743734	0.312151	-0.567720
O12	O	-1.243734	0.812151	-0.067720
O13	O	-1.574154	0.403437	-0.269904
O14	O	-1.074154	0.903437	0.230096
O15	O	-1.446047	0.191766	-0.439359
O16	O	-0.946047	0.691766	0.060641
O17	O	-1.743610	0.403406	-0.439334
O18	O	-1.243610	0.903406	0.060666
O19	O	-1.574441	0.191742	-0.567734
O20	O	-1.074441	0.691742	-0.067734
O21	O	-1.445884	0.312205	-0.269914
O22	O	-0.945884	0.812205	0.230086
O23	O	-1.276516	0.312147	-0.439308
O24	O	-0.776516	0.812147	0.060692
O25	O	-1.445915	0.403304	-0.737075
O26	O	-0.945915	0.903304	-0.237075
O27	O	-1.276459	0.403335	-0.567644
O28	O	-0.776459	0.903335	-0.067644
O29	O	-1.574366	0.312093	-0.737114
O30	O	-1.074366	0.812093	-0.237114
O31	O	-1.574079	0.523787	-0.439283
O32	O	-1.074079	1.023787	0.060717
O33	O	-1.445752	0.523744	-0.567630
O34	O	-0.945752	1.023744	-0.067630
C35	C	-1.238570	0.357739	-0.503473
C36	C	-0.738570	0.857739	-0.003473
C37	C	-1.122417	0.357748	-0.503485
C38	C	-0.622417	0.857748	-0.003485
C39	C	-1.509917	0.550712	-0.503472
C40	C	-1.009917	1.050712	-0.003472
C41	C	-1.509943	0.633258	-0.503494
C42	C	-1.009943	1.133258	-0.003494
C43	C	-1.070632	0.402940	-0.566890
C44	C	-0.570632	0.902940	-0.066890
C45	C	-0.950581	0.402950	-0.566905
C46	C	-0.450581	0.902950	-0.066905
C47	C	-0.782650	0.357775	-0.503523
C48	C	-0.282650	0.857775	-0.003523
C49	C	-0.898803	0.357766	-0.503511
C50	C	-0.398803	0.857766	-0.003511
C51	C	-1.510151	0.357689	-0.776072
C52	C	-1.010151	0.857689	-0.276072
C53	C	-1.510181	0.357658	-0.892225
C54	C	-1.010181	0.857658	-0.392225
C55	C	-1.440230	0.882087	-0.573292
C56	C	-0.940230	1.382087	-0.073292
C57	C	-1.535527	0.832617	-0.598935
C58	C	-1.035527	1.332617	-0.098935
C59	C	-1.510114	0.930378	-0.503555
C60	C	-1.010114	1.430378	-0.003555
C61	C	-1.414738	0.832766	-0.477931
C62	C	-0.914738	1.332766	0.022069
C63	C	-1.510025	0.784393	-0.503527
C64	C	-1.010025	1.284393	-0.003527
C65	C	-1.605461	0.881995	-0.529248
C66	C	-1.105461	1.381995	-0.029248
C67	C	-1.484609	0.882149	-0.408199
C68	C	-0.984609	1.382149	0.091801
C69	C	-1.579972	0.832702	-0.433806
C70	C	-1.079972	1.332702	0.066194
C71	C	-1.510164	1.014476	-0.503573
C72	C	-1.010164	1.514476	-0.003573
C73	C	-1.509986	0.700296	-0.503509
C74	C	-1.009986	1.200296	-0.003509
C75	C	-1.510232	1.164054	-0.503556
C76	C	-1.010232	1.664054	-0.003556
C77	C	-1.510197	1.081508	-0.503585
C78	C	-1.010197	1.581508	-0.003585
C79	C	-1.573750	0.312515	-0.944029
C80	C	-1.073750	0.812515	-0.444029
C81	C	-1.573783	0.312483	-1.064080
C82	C	-1.073783	0.812483	-0.564080
C83	C	-1.510069	0.357777	-0.231992
C84	C	-1.010069	0.857777	0.268008
C85	C	-1.510241	0.357598	-0.115839
C86	C	-1.010241	0.857598	0.384161
H87	H	-1.115173	0.441620	-0.621167
H88	H	-0.615173	0.941620	-0.121167
H89	H	-1.557068	0.810861	-0.679564
H90	H	-1.057068	1.310861	-0.179564
H91	H	-1.639100	0.811155	-0.374820
H92	H	-1.139100	1.311155	0.125180
O93	O	-0.891605	0.454202	-0.638820
O94	O	-0.391605	0.954202	-0.138820
H95	H	-0.806568	0.446163	-0.627552
H96	H	-0.306568	0.946163	-0.127552
H97	H	-1.463040	0.903921	-0.327593
H98	H	-0.963040	1.403921	0.172407
O99	O	-1.438126	0.408794	-1.056856
O100	O	-0.938126	0.908794	-0.556856
H101	H	-1.484876	0.446567	-1.007113
H102	H	-0.984876	0.946567	-0.507113
O103	O	-1.712283	0.910518	-0.558071
O104	O	-1.212283	1.410518	-0.058071
H105	H	-1.765324	0.862975	-0.572340
H106	H	-1.265324	1.362975	-0.072340
O107	O	-1.307940	0.804162	-0.449181
O108	O	-0.807940	1.304162	0.050819
H109	H	-1.250113	0.823965	-0.507180
H110	H	-0.750113	1.323965	-0.007180
O111	O	-1.645822	0.261353	-0.885066
O112	O	-1.145822	0.761353	-0.385066
H113	H	-1.634494	0.269413	-0.800026
H114	H	-1.134494	0.769413	-0.300026
O115	O	-1.645861	0.261270	-1.123077
O116	O	-1.145861	0.761270	-0.623077
H117	H	-1.634562	0.269271	-1.208111
H118	H	-1.134562	0.769271	-0.708111
H119	H	-1.077875	0.319062	-0.449217
H120	H	-0.577875	0.819062	0.050783
O121	O	-0.957767	0.306511	-0.431590
O122	O	-0.457767	0.806511	0.068410
H123	H	-1.007539	0.268787	-0.478488
H124	H	-0.507539	0.768787	0.021512
O125	O	-1.362092	0.910817	-0.651474
O126	O	-0.862092	1.410817	-0.151474
H127	H	-1.383481	0.890976	-0.730557
H128	H	-0.883481	1.390976	-0.230557
O129	O	-1.438111	0.408819	-0.951194
O130	O	-0.938111	0.908819	-0.451194
H131	H	-1.455942	0.467126	-0.930290
H132	H	-0.955942	0.967126	-0.430290
