data_functionalizedCrystal
_audit_creation_method	'MofGen! by Chris Wilmer'
_symmetry_space_group_name_H-M	'P1'
_symmetry_Int_Tables_number	1
_symmetry_cell_setting	triclinic
loop_
_symmetry_equiv_pos_as_xyz
  x,y,z
_cell_length_a	19.288859
_cell_length_b	19.288859
_cell_length_c	18.366186
_cell_angle_alpha	89.994011
_cell_angle_beta	89.990083
_cell_angle_gamma	83.133726
loop_
_atom_site_label
_atom_site_type_symbol
_atom_site_fract_x
_atom_site_fract_y
_atom_site_fract_z
O1	O	0.921354	0.086628	-0.060564
O2	O	1.254687	0.419962	0.272770
O3	O	1.588020	0.753295	0.606103
O4	O	0.719092	0.098322	-0.060562
O5	O	1.052425	0.431655	0.272772
O6	O	1.385759	0.764988	0.606105
O7	O	0.826069	-0.008656	-0.060558
O8	O	1.159403	0.324678	0.272775
O9	O	1.492736	0.658011	0.606108
O10	O	0.814376	0.193606	-0.060567
O11	O	1.147709	0.526939	0.272766
O12	O	1.481043	0.860273	0.606100
O13	O	0.826051	-0.008661	0.060541
O14	O	1.159385	0.324672	0.393874
O15	O	1.492718	0.658006	0.727208
O16	O	0.719074	0.098317	0.060538
O17	O	1.052407	0.431650	0.393871
O18	O	1.385741	0.764983	0.727204
O19	O	0.921335	0.086623	0.060536
O20	O	1.254669	0.419957	0.393869
O21	O	1.588002	0.753290	0.727202
Zn22	Zn	0.820202	0.092469	0.079764
Zn23	Zn	1.153535	0.425802	0.413097
Zn24	Zn	1.486868	0.759136	0.746431
Zn25	Zn	0.820226	0.092476	-0.079790
Zn26	Zn	1.153559	0.425809	0.253544
Zn27	Zn	1.486892	0.759143	0.586877
O28	O	0.814358	0.193601	0.060532
O29	O	1.147691	0.526934	0.393866
O30	O	1.481025	0.860267	0.727199
C31	C	0.693206	0.097944	-0.000012
C32	C	1.026540	0.431277	0.333321
C33	C	1.359873	0.764610	0.666655
C34	C	0.616103	0.096816	-0.000011
C35	C	0.949436	0.430150	0.333322
C36	C	1.282769	0.763483	0.666656
C37	C	0.825685	-0.034535	-0.000009
C38	C	1.159018	0.298799	0.333324
C39	C	1.492351	0.632132	0.666657
C40	C	0.824558	-0.111639	-0.000011
C41	C	1.157891	0.221695	0.333323
C42	C	1.491224	0.555028	0.666656
C43	C	0.052061	0.151960	-0.000015
C44	C	0.385394	0.485293	0.333319
C45	C	0.718727	0.818626	0.666652
C46	C	0.124507	0.153025	-0.000018
C47	C	0.457841	0.486358	0.333315
C48	C	0.791174	0.819692	0.666648
C49	C	0.169215	0.090256	-0.000014
C50	C	0.502549	0.423589	0.333319
C51	C	0.835882	0.756922	0.666652
C52	C	0.141472	0.026416	-0.000025
C53	C	0.474805	0.359749	0.333308
C54	C	0.808138	0.693083	0.666641
C55	C	0.069026	0.025353	-0.000029
C56	C	0.402360	0.358686	0.333305
C57	C	0.735693	0.692019	0.666638
C58	C	0.290480	0.043441	0.042417
C59	C	0.623814	0.376774	0.375750
C60	C	0.957147	0.710107	0.709083
C61	C	0.362924	0.044507	0.042425
C62	C	0.696257	0.377840	0.375758
C63	C	1.029591	0.711173	0.709091
C64	C	0.392661	0.093533	-0.000007
C65	C	0.725994	0.426867	0.333326
C66	C	1.059328	0.760200	0.666660
C67	C	0.349944	0.141505	-0.042437
C68	C	0.683278	0.474838	0.290896
C69	C	1.016611	0.808172	0.624229
C70	C	0.277499	0.140442	-0.042441
C71	C	0.610832	0.473775	0.290893
C72	C	0.944166	0.807108	0.624226
C73	C	0.247771	0.091402	-0.000011
C74	C	0.581104	0.424735	0.333322
C75	C	0.914438	0.758068	0.666656
C76	C	0.498951	0.158524	-0.000006
C77	C	0.832285	0.491857	0.333328
C78	C	1.165618	0.825190	0.666661
C79	C	0.571399	0.159586	-0.000014
C80	C	0.904733	0.492920	0.333319
C81	C	1.238066	0.826253	0.666653
C82	C	0.588363	0.032976	-0.000013
C83	C	0.921696	0.366309	0.333320
C84	C	1.255029	0.699642	0.666653
C85	C	0.515916	0.031915	-0.000012
C86	C	0.849249	0.365248	0.333321
C87	C	1.182582	0.698581	0.666654
C88	C	0.471214	0.094691	-0.000005
C89	C	0.804547	0.428024	0.333328
C90	C	1.137881	0.761358	0.666662
C91	C	0.947221	0.087001	-0.000016
C92	C	1.280554	0.420335	0.333318
C93	C	1.613888	0.753668	0.666651
C94	C	1.024325	0.088129	-0.000021
C95	C	1.357658	0.421462	0.333312
C96	C	1.690991	0.754795	0.666645
C97	C	0.879701	-0.675680	-0.000030
C98	C	1.213034	-0.342347	0.333303
C99	C	1.546368	-0.009014	0.666636
C100	C	0.880766	-0.603234	-0.000024
C101	C	1.214100	-0.269901	0.333310
C102	C	1.547433	0.063433	0.666643
C103	C	0.817997	-0.558526	-0.000023
C104	C	1.151330	-0.225193	0.333310
C105	C	1.484664	0.108141	0.666643
C106	C	0.754157	-0.586269	-0.000011
C107	C	1.087491	-0.252936	0.333322
C108	C	1.420824	0.080397	0.666656
C109	C	0.753094	-0.658715	-0.000010
C110	C	1.086427	-0.325381	0.333323
C111	C	1.419760	0.007952	0.666656
C112	C	0.771190	-0.437249	-0.042448
C113	C	1.104523	-0.103916	0.290885
C114	C	1.437857	0.229417	0.624218
C115	C	0.772256	-0.364806	-0.042453
C116	C	1.105590	-0.031472	0.290880
C117	C	1.438923	0.301861	0.624213
C118	C	0.821274	-0.335080	-0.000023
C119	C	1.154608	-0.001747	0.333311
C120	C	1.487941	0.331587	0.666644
C121	C	0.869238	-0.377809	0.042404
C122	C	1.202571	-0.044475	0.375737
C123	C	1.535905	0.288858	0.709071
C124	C	0.868175	-0.450254	0.042405
C125	C	1.201508	-0.116921	0.375738
C126	C	1.534841	0.216413	0.709072
C127	C	0.819143	-0.479970	-0.000024
C128	C	1.152476	-0.146637	0.333309
C129	C	1.485810	0.186697	0.666643
C130	C	0.886265	-0.228790	-0.000023
C131	C	1.219598	0.104543	0.333310
C132	C	1.552932	0.437877	0.666644
C133	C	0.887328	-0.156342	-0.000012
C134	C	1.220661	0.176992	0.333321
C135	C	1.553994	0.510325	0.666655
C136	C	0.760717	-0.139378	-0.000007
C137	C	1.094050	0.193955	0.333327
C138	C	1.427383	0.527288	0.666660
C139	C	0.759656	-0.211825	-0.000010
C140	C	1.092989	0.121508	0.333323
C141	C	1.426323	0.454841	0.666656
C142	C	0.822432	-0.256527	-0.000022
C143	C	1.155765	0.076806	0.333311
C144	C	1.489099	0.410140	0.666645
C145	C	0.814743	0.219480	-0.000018
C146	C	1.148076	0.552813	0.333315
C147	C	1.481409	0.886146	0.666648
C148	C	0.815870	0.296584	-0.000022
C149	C	1.149203	0.629917	0.333312
C150	C	1.482537	0.963250	0.666645
N151	N	0.820191	0.092464	0.188655
N152	N	1.153524	0.425797	0.521988
N153	N	1.486857	0.759131	0.855322
N154	N	0.820242	0.092476	-0.188681
N155	N	1.153576	0.425809	0.144652
N156	N	1.486909	0.759142	0.477986
C157	C	0.867576	0.045118	0.226757
C158	C	1.200909	0.378451	0.560090
C159	C	1.534242	0.711784	0.893424
C160	C	0.867580	0.045114	0.302985
C161	C	1.200913	0.378448	0.636318
C162	C	1.534247	0.711781	0.969651
C163	C	0.820206	0.092470	0.341108
C164	C	1.153539	0.425803	0.674441
C165	C	1.486873	0.759136	1.007774
C166	C	0.772812	0.139820	0.302997
C167	C	1.106145	0.473153	0.636330
C168	C	1.439479	0.806486	0.969663
C169	C	0.772804	0.139817	0.226770
C170	C	1.106138	0.473150	0.560104
C171	C	1.439471	0.806483	0.893437
C172	C	0.810906	0.155758	0.461865
C173	C	1.144240	0.489091	0.795199
C174	C	1.477573	0.822425	1.128532
C175	C	0.810919	0.155762	0.538090
C176	C	1.144252	0.489095	0.871424
C177	C	1.477586	0.822428	1.204757
C178	C	0.820226	0.092478	0.576215
C179	C	1.153559	0.425812	0.909549
C180	C	1.486892	0.759145	1.242882
C181	C	0.829535	0.029188	0.538106
C182	C	1.162868	0.362522	0.871439
C183	C	1.496201	0.695855	1.204772
C184	C	0.829527	0.029186	0.461879
C185	C	1.162860	0.362519	0.795213
C186	C	1.496194	0.695852	1.128546
C187	C	0.820209	0.092478	0.423762
C188	C	1.153542	0.425811	0.757096
C189	C	1.486875	0.759144	1.090429
C190	C	0.867618	0.045125	0.696972
C191	C	1.200951	0.378458	1.030305
C192	C	1.534285	0.711791	1.363639
C193	C	0.867618	0.045121	0.773201
C194	C	1.200951	0.378454	1.106535
C195	C	1.534284	0.711787	1.439868
C196	C	0.772853	0.139832	0.773212
C197	C	1.106186	0.473165	1.106545
C198	C	1.439520	0.806499	1.439878
C199	C	0.772850	0.139830	0.696984
C200	C	1.106184	0.473163	1.030317
C201	C	1.439517	0.806497	1.363651
C202	C	0.820236	0.092477	0.658869
C203	C	1.153570	0.425810	0.992202
C204	C	1.486903	0.759144	1.325535
H205	H	0.015668	0.203077	-0.000012
H206	H	0.349002	0.536410	0.333321
H207	H	0.682335	0.869744	0.666655
H208	H	0.937381	-0.265188	-0.000032
H209	H	1.270714	0.068145	0.333301
H210	H	1.604048	0.401479	0.666635
Br211	Br	0.842175	-0.056702	0.589836
Br212	Br	1.175508	0.276631	0.923170
Br213	Br	1.508841	0.609964	1.256503
H214	H	0.177878	-0.024691	-0.000024
H215	H	0.511211	0.308642	0.333309
H216	H	0.844544	0.641976	0.666643
Br217	Br	0.708491	0.204077	0.175056
Br218	Br	1.041824	0.537410	0.508389
Br219	Br	1.375157	0.870743	0.841723
Br220	Br	0.162159	0.239659	-0.000009
Br221	Br	0.495493	0.572993	0.333324
Br222	Br	0.828826	0.906326	0.666657
Br223	Br	0.798293	0.241653	0.589803
Br224	Br	1.131627	0.574987	0.923136
Br225	Br	1.464960	0.908320	1.256469
Br226	Br	0.031382	-0.061282	-0.000042
Br227	Br	0.364715	0.272051	0.333291
Br228	Br	0.698049	0.605384	0.666624
H229	H	0.242722	0.179501	-0.076990
H230	H	0.576055	0.512834	0.256343
H231	H	0.909388	0.846168	0.589676
Br232	Br	0.675528	-0.078711	0.000007
Br233	Br	1.008861	0.254623	0.333341
Br234	Br	1.342194	0.587956	0.666674
Br235	Br	0.390290	0.208055	-0.100016
Br236	Br	0.723624	0.541388	0.233317
Br237	Br	1.056957	0.874722	0.566650
Br238	Br	0.673023	-0.249470	-0.000004
Br239	Br	1.006356	0.083863	0.333330
Br240	Br	1.339690	0.417197	0.666663
Br241	Br	0.609042	0.246222	-0.000016
Br242	Br	0.942375	0.579556	0.333317
Br243	Br	1.275709	0.912889	0.666651
Br244	Br	0.478271	-0.054718	-0.000027
Br245	Br	0.811604	0.278615	0.333306
Br246	Br	1.144938	0.611948	0.666639
H247	H	0.930818	-0.712073	-0.000036
H248	H	1.264152	-0.378739	0.333298
H249	H	1.597485	-0.045406	0.666631
H250	H	0.734268	0.178387	0.665959
H251	H	1.067601	0.511720	0.999293
H252	H	1.400934	0.845053	1.332626
Br253	Br	0.967400	-0.565582	-0.000023
Br254	Br	1.300734	-0.232249	0.333310
Br255	Br	1.634067	0.101085	0.666643
Br256	Br	0.931893	-0.019148	0.354704
Br257	Br	1.265226	0.314186	0.688037
Br258	Br	1.598559	0.647519	1.021370
H259	H	0.624764	-0.018133	-0.000016
H260	H	0.958097	0.315201	0.333318
H261	H	1.291430	0.648534	0.666651
Br262	Br	0.931925	-0.019141	0.645242
Br263	Br	1.265258	0.314192	0.978576
Br264	Br	1.598591	0.647525	1.311909
H265	H	0.734238	0.178376	0.334040
H266	H	1.067572	0.511709	0.667374
H267	H	1.400905	0.845043	1.000707
H268	H	0.462553	0.209640	-0.000001
H269	H	0.795886	0.542973	0.333332
H270	H	1.129220	0.876306	0.666666
Br271	Br	0.420888	-0.020589	0.100017
Br272	Br	0.754222	0.312744	0.433350
Br273	Br	1.087555	0.646077	0.766683
Br274	Br	0.935772	-0.337478	0.099988
Br275	Br	1.269105	-0.004144	0.433321
Br276	Br	1.602438	0.329189	0.766655
H277	H	0.803316	0.207294	0.430830
H278	H	1.136649	0.540627	0.764164
H279	H	1.469982	0.873961	1.097497
H280	H	0.907227	-0.485041	0.076951
H281	H	1.240561	-0.151707	0.410285
H282	H	1.573894	0.181626	0.743618
Br283	Br	0.707172	-0.306825	-0.100041
Br284	Br	1.040505	0.026508	0.233292
Br285	Br	1.373838	0.359841	0.566626
H286	H	0.731265	-0.461444	-0.076995
H287	H	1.064598	-0.128110	0.256338
H288	H	1.397931	0.205223	0.589672
H289	H	0.703050	-0.549863	-0.000009
H290	H	1.036383	-0.216530	0.333325
H291	H	1.369717	0.116803	0.666658
H292	H	0.266276	0.003514	0.076971
H293	H	0.599609	0.336847	0.410305
H294	H	0.932942	0.670181	0.743638
H295	H	0.939309	-0.133762	-0.000014
H296	H	1.272642	0.199572	0.333319
H297	H	1.605975	0.532905	0.666652
Br298	Br	0.666459	-0.696359	0.000002
Br299	Br	0.999792	-0.363026	0.333335
Br300	Br	1.333126	-0.029693	0.666668
Br301	Br	0.931881	-0.019147	0.175028
Br302	Br	1.265214	0.314186	0.508362
Br303	Br	1.598548	0.647519	0.841695
Br304	Br	0.931925	-0.019146	0.824915
Br305	Br	1.265258	0.314187	1.158249
Br306	Br	1.598591	0.647521	1.491582
Br307	Br	0.842153	-0.056703	0.410161
Br308	Br	1.175487	0.276631	0.743494
Br309	Br	1.508820	0.609964	1.076828
H310	H	0.734278	0.178387	0.804251
H311	H	1.067611	0.511720	1.137584
H312	H	1.400944	0.845053	1.470918
