data_functionalizedCrystal
_audit_creation_method	'MofGen! by Chris Wilmer'
_symmetry_space_group_name_H-M	'P1'
_symmetry_Int_Tables_number	1
_symmetry_cell_setting	triclinic
loop_
_symmetry_equiv_pos_as_xyz
  x,y,z
_cell_length_a	10.489741
_cell_length_b	27.732048
_cell_length_c	8.965430
_cell_angle_alpha	89.995481
_cell_angle_beta	89.998843
_cell_angle_gamma	83.590915
loop_
_atom_site_label
_atom_site_type_symbol
_atom_site_fract_x
_atom_site_fract_y
_atom_site_fract_z
O1	O	1.691056	0.068187	-0.123965
O2	O	1.319579	0.074588	-0.123990
O3	O	1.516855	0.001064	-0.123949
O4	O	1.493781	0.141711	-0.124007
O5	O	1.516839	0.001068	0.124130
O6	O	1.319563	0.074593	0.124089
O7	O	1.691040	0.068192	0.124113
Cu8	Cu	1.505300	0.071393	0.146753
Cu9	Cu	1.505319	0.071387	-0.146629
O10	O	1.493764	0.141716	0.124072
C11	C	1.272061	0.074107	0.000046
C12	C	1.130495	0.072661	0.000038
C13	C	1.064411	0.025879	0.000072
C14	C	0.971321	0.047976	-0.122250
C15	C	0.971338	0.047992	0.122336
C16	C	1.039269	0.094776	-0.122385
C17	C	1.039296	0.094786	0.122311
C18	C	0.946232	0.116916	-0.000040
C19	C	1.516363	-0.016944	0.000095
C20	C	1.514904	-0.070608	0.000107
C21	C	1.622299	-0.408745	0.000038
C22	C	1.616888	-0.610439	0.000016
O23	O	1.715093	-0.641075	-0.000042
N24	N	1.499911	-0.630301	0.000010
C25	C	1.384279	-0.599736	-0.000001
O26	O	1.284660	-0.621258	-0.000022
C27	C	1.389692	-0.398044	0.000010
C28	C	1.506676	-0.378184	0.000031
C29	C	1.739274	-0.388886	0.000058
C30	C	1.740625	-0.338465	0.000071
C31	C	1.625002	-0.307904	0.000064
C32	C	1.508028	-0.327764	0.000045
C33	C	1.274062	-0.367480	-0.000012
C34	C	1.275425	-0.317054	-0.000013
C35	C	1.392409	-0.297195	0.000008
C36	C	1.393757	-0.246783	0.000052
N37	N	1.510733	-0.226920	0.000058
C38	C	1.626356	-0.257481	0.000064
C39	C	1.381446	-0.705628	-0.000003
C40	C	1.380092	-0.756051	-0.000003
C41	C	1.612701	-0.766751	0.000011
C42	C	1.614053	-0.716327	0.000022
C43	C	1.498422	-0.685766	0.000003
C44	C	1.629186	-0.151594	0.000094
C45	C	1.630527	-0.101169	0.000113
C46	C	1.397919	-0.090474	0.000091
C47	C	1.396577	-0.140895	0.000079
C48	C	1.512221	-0.171454	0.000076
O49	O	1.295604	-0.216118	0.000093
O50	O	1.725961	-0.235950	0.000053
C51	C	1.620947	-0.459166	0.000024
C52	C	1.503973	-0.479025	0.000004
C53	C	1.388350	-0.448464	-0.000002
C54	C	1.502619	-0.529448	0.000004
C55	C	1.618242	-0.560009	0.000011
C56	C	1.735219	-0.540147	0.000017
C57	C	1.736570	-0.489727	0.000031
C58	C	1.271374	-0.468327	-0.000009
C59	C	1.270032	-0.518748	-0.000020
C60	C	1.385654	-0.549308	-0.000014
C61	C	1.738559	0.068673	0.000074
C62	C	1.880124	0.070119	0.000072
C63	C	1.494257	0.159724	0.000025
C64	C	1.495715	0.213388	0.000003
N65	N	1.505295	0.071397	0.353102
N66	N	1.505334	0.071379	-0.352979
C67	C	1.414034	0.105388	0.450388
C68	C	1.529101	0.115168	0.549805
C69	C	1.390277	0.061621	0.549812
C70	C	1.620420	0.081198	0.450330
C71	C	1.481520	0.027633	0.450328
C72	C	1.596671	0.037394	0.549700
H73	H	1.725793	-0.085003	0.000135
H74	H	1.835885	-0.322301	0.000082
N75	N	1.078937	0.120970	-0.259537
H76	H	1.121957	0.150209	-0.228538
H77	H	1.140753	0.098350	-0.320305
H78	H	1.723354	-0.176470	0.000085
N79	N	0.878510	0.167909	-0.000139
H80	H	0.903176	0.185507	-0.092577
H81	H	0.782676	0.166613	0.000800
N82	N	1.132409	-0.025070	-0.000044
H83	H	1.107888	-0.042680	-0.092517
H84	H	1.228214	-0.023699	0.000956
N85	N	1.270401	-0.162315	0.000067
H86	H	1.264662	-0.182990	-0.091906
H87	H	1.264722	-0.182979	0.092080
H88	H	1.831831	-0.473562	0.000048
N89	N	1.555780	0.164177	0.607714
H90	H	1.641996	0.171819	0.569971
H91	H	1.486713	0.189808	0.571593
H92	H	1.069466	0.114566	0.225716
N93	N	1.261411	0.050677	0.607686
H94	H	1.242727	0.017878	0.569946
H95	H	1.262717	0.050467	0.720325
N96	N	0.931440	0.021768	0.259321
H97	H	0.974893	-0.012619	0.259218
H98	H	0.957384	0.039130	0.351622
H99	H	1.833433	-0.413764	0.000057
N100	N	1.311897	0.143492	0.392597
H101	H	1.225160	0.136452	0.430342
H102	H	1.330152	0.176518	0.428792
N103	N	0.931393	0.021758	-0.259218
H104	H	0.974837	-0.012630	-0.259118
H105	H	0.835261	0.021287	-0.258608
N106	N	1.749318	0.092197	0.392708
H107	H	1.748496	0.092150	0.280058
H108	H	1.767428	0.125129	0.429880
H109	H	1.709312	-0.700161	0.000038
H110	H	1.706846	-0.791642	0.000017
N111	N	1.150715	-0.284087	-0.000026
H112	H	1.099640	-0.290518	-0.091995
H113	H	1.099728	-0.290542	0.091992
H114	H	1.284832	-0.772216	0.000005
N115	N	1.699021	-0.000695	0.607112
H116	H	1.785828	0.006747	0.570728
H117	H	1.697871	-0.000666	0.719755
H118	H	1.461348	-0.009359	0.406599
H119	H	1.178801	-0.383640	-0.000039
N120	N	1.256725	-0.672668	-0.000012
H121	H	1.205648	-0.679104	-0.091974
H122	H	1.205749	-0.679124	0.092012
N123	N	1.273230	-0.057499	0.000082
H124	H	1.222153	-0.063926	-0.091890
H125	H	1.222231	-0.063947	0.092097
N126	N	1.859926	-0.573116	0.000010
H127	H	1.934246	-0.552888	0.000019
H128	H	1.864420	-0.594275	0.091971
N129	N	1.143848	-0.540164	-0.000019
H130	H	1.070813	-0.513148	-0.000021
H131	H	1.138220	-0.560847	-0.091991
H132	H	1.177217	-0.443448	-0.000017
