data_functionalizedCrystal
_audit_creation_method	'MofGen! by Chris Wilmer'
_symmetry_space_group_name_H-M	'P1'
_symmetry_Int_Tables_number	1
_symmetry_cell_setting	triclinic
loop_
_symmetry_equiv_pos_as_xyz
  x,y,z
_cell_length_a	42.774135
_cell_length_b	42.790298
_cell_length_c	42.784893
_cell_angle_alpha	89.996576
_cell_angle_beta	59.996868
_cell_angle_gamma	119.987826
loop_
_atom_site_label
_atom_site_type_symbol
_atom_site_fract_x
_atom_site_fract_y
_atom_site_fract_z
O1	O	0.275792	-0.214383	-0.009296
O2	O	0.211767	-0.168938	0.009256
O3	O	0.275782	-0.168942	-0.054746
O4	O	0.211777	-0.214380	0.054706
O5	O	0.223795	-0.220912	-0.054745
O6	O	0.159780	-0.220908	0.009257
O7	O	0.223805	-0.266353	-0.009295
Zn8	Zn	0.183539	-0.251882	-0.000019
Zn9	Zn	0.252033	-0.183409	-0.000020
O10	O	0.159791	-0.266349	0.054707
C11	C	0.051260	-0.079145	0.028125
C12	C	0.069887	-0.041539	0.028388
C13	C	-0.005353	-0.079148	0.028123
C14	C	0.013360	-0.041542	0.028386
C15	C	0.051245	-0.022562	0.028122
C16	C	0.013376	-0.098039	0.028388
C17	C	0.096106	-0.170798	0.017883
C18	C	0.116828	-0.188733	0.014987
C19	C	0.155562	-0.169397	0.013533
C20	C	0.178037	-0.188838	0.010386
C21	C	0.173571	-0.132125	0.014978
C22	C	0.152845	-0.114196	0.017879
C23	C	0.114111	-0.133534	0.019331
C24	C	0.153159	0.113893	0.017873
C25	C	0.173991	0.152535	0.014975
C26	C	0.156099	0.171920	0.013518
C27	C	0.178686	0.213819	0.010370
C28	C	0.117368	0.152658	0.014963
C29	C	0.096533	0.114015	0.017868
C30	C	0.114435	0.094635	0.019320
C31	C	-0.131599	-0.170809	0.017875
C32	C	-0.167355	-0.188745	0.014972
C33	C	-0.185300	-0.169411	0.013517
C34	C	-0.224067	-0.188856	0.010368
C35	C	-0.167486	-0.132142	0.014960
C36	C	-0.131731	-0.114208	0.017861
C37	C	-0.113792	-0.133547	0.019322
C38	C	0.091643	-0.114088	0.022473
C39	C	0.073732	-0.098588	0.024979
C40	C	-0.044120	-0.098594	0.024975
C41	C	-0.075022	-0.114096	0.022468
C42	C	0.073835	0.019337	0.024975
C43	C	0.091841	0.052735	0.022467
O44	O	-0.236754	-0.220928	0.009243
O45	O	-0.327659	-0.266370	-0.009318
O46	O	-0.327672	-0.266370	0.054688
O47	O	-0.236741	-0.220929	-0.054763
O48	O	-0.327687	-0.214400	0.054687
O49	O	-0.327674	-0.214400	-0.009319
O50	O	-0.236769	-0.168958	0.009241
Zn51	Zn	-0.282224	-0.183428	-0.000039
Zn52	Zn	-0.282204	-0.251901	-0.000037
O53	O	-0.236756	-0.168959	-0.054764
C54	C	0.384488	-0.079148	-0.361604
C55	C	0.422369	-0.041543	-0.380501
C56	C	0.384488	-0.079148	-0.305006
C57	C	0.422369	-0.041543	-0.323989
C58	C	0.441089	-0.022565	-0.361604
C59	C	0.365854	-0.098039	-0.323989
C60	C	0.282556	-0.170800	-0.396165
C61	C	0.261717	-0.188735	-0.413979
C62	C	0.279603	-0.169400	-0.451254
C63	C	0.257006	-0.188842	-0.470569
C64	C	0.318331	-0.132131	-0.470715
C65	C	0.339170	-0.114201	-0.452902
C66	C	0.321281	-0.133537	-0.415625
C67	C	0.567332	0.113884	-0.453283
C68	C	0.603087	0.152525	-0.471223
C69	C	0.621023	0.171910	-0.451885
C70	C	0.659786	0.213808	-0.471330
C71	C	0.603203	0.152650	-0.414605
C72	C	0.567454	0.114009	-0.396668
C73	C	0.549518	0.094628	-0.416011
C74	C	0.282556	-0.170800	-0.168518
C75	C	0.261714	-0.188733	-0.129865
C76	C	0.279600	-0.169398	-0.110475
C77	C	0.257003	-0.188840	-0.068564
C78	C	0.318325	-0.132131	-0.129739
C79	C	0.339164	-0.114199	-0.168391
C80	C	0.321278	-0.133539	-0.187779
C81	C	0.343878	-0.114091	-0.396312
C82	C	0.361890	-0.098591	-0.380917
C83	C	0.361891	-0.098591	-0.263096
C84	C	0.343878	-0.114090	-0.229690
C85	C	0.479852	0.019332	-0.381053
C86	C	0.510752	0.052729	-0.396557
C87	C	0.440916	-0.356163	-0.028187
C88	C	0.422201	-0.393769	-0.028452
C89	C	0.384303	-0.356160	-0.028184
C90	C	0.365674	-0.393766	-0.028448
C91	C	0.384315	-0.412746	-0.028186
C92	C	0.422189	-0.337269	-0.028450
C93	C	0.567170	-0.264510	-0.017944
C94	C	0.602930	-0.246575	-0.015048
C95	C	0.620873	-0.265912	-0.013595
C96	C	0.659642	-0.246470	-0.010448
C97	C	0.603057	-0.303182	-0.015042
C98	C	0.567304	-0.321112	-0.017942
C99	C	0.549360	-0.301774	-0.019393
C100	C	0.339524	-0.549199	-0.017941
C101	C	0.318816	-0.587841	-0.015045
C102	C	0.280080	-0.607226	-0.013587
C103	C	0.257620	-0.649124	-0.010441
C104	C	0.262057	-0.587964	-0.015032
C105	C	0.282769	-0.549322	-0.017935
C106	C	0.321504	-0.529942	-0.019388
C107	C	0.339464	-0.264501	-0.017931
C108	C	0.318740	-0.246566	-0.015027
C109	C	0.280005	-0.265900	-0.013572
C110	C	0.257531	-0.246456	-0.010421
C111	C	0.261994	-0.303169	-0.015017
C112	C	0.282718	-0.321102	-0.017919
C113	C	0.321456	-0.301763	-0.019379
C114	C	0.510588	-0.321220	-0.022535
C115	C	0.479685	-0.336720	-0.025041
C116	C	0.361833	-0.336715	-0.025035
C117	C	0.343923	-0.321214	-0.022526
C118	C	0.361858	-0.454644	-0.025039
C119	C	0.343958	-0.488042	-0.022532
O120	O	0.223889	0.337058	-0.009311
O121	O	0.159902	0.227634	0.009238
O122	O	0.223904	0.291613	-0.054763
O123	O	0.159888	0.273079	0.054690
O124	O	0.275901	0.291616	-0.054761
O125	O	0.211900	0.227636	0.009240
O126	O	0.275886	0.337060	-0.009309
Zn127	Zn	0.252149	0.282349	-0.000034
Zn128	Zn	0.183640	0.282346	-0.000037
O129	O	0.211885	0.273081	0.054692
O130	O	0.763380	0.337045	-0.496875
O131	O	0.672475	0.227623	-0.451425
O132	O	0.672462	0.291608	-0.451421
O133	O	0.763394	0.273061	-0.496879
O134	O	0.672463	0.291609	-0.503406
O135	O	0.672476	0.227625	-0.503410
O136	O	0.763381	0.337047	-0.548860
Zn137	Zn	0.717929	0.282336	-0.534388
Zn138	Zn	0.717928	0.282334	-0.465896
O139	O	0.763395	0.273062	-0.548863
O140	O	0.211773	-0.214384	-0.548613
O141	O	0.275781	-0.168943	-0.503164
O142	O	0.211764	-0.168941	-0.503160
O143	O	0.275789	-0.214386	-0.548617
O144	O	0.159779	-0.220909	-0.451175
O145	O	0.223795	-0.220912	-0.451179
O146	O	0.159787	-0.266353	-0.496628
Zn147	Zn	0.183537	-0.251883	-0.465650
Zn148	Zn	0.252030	-0.183412	-0.534142
O149	O	0.223803	-0.266355	-0.496632
C150	C	-0.005274	-0.412484	0.361565
C151	C	0.013445	-0.393506	0.380462
C152	C	0.051327	-0.355901	0.304967
C153	C	0.069960	-0.337010	0.323950
C154	C	0.051327	-0.355902	0.361565
C155	C	0.013446	-0.393506	0.323949
C156	C	-0.131517	-0.548932	0.396125
C157	C	-0.167272	-0.587573	0.413939
C158	C	-0.185208	-0.606958	0.451214
C159	C	-0.223971	-0.648857	0.470529
C160	C	-0.167388	-0.587698	0.470675
C161	C	-0.131639	-0.549058	0.452862
C162	C	-0.113704	-0.529676	0.415586
C163	C	0.096138	-0.321352	0.453244
C164	C	0.116850	-0.303542	0.471184
C165	C	0.155582	-0.266280	0.451846
C166	C	0.178047	-0.246969	0.471292
C167	C	0.173597	-0.246824	0.414566
C168	C	0.152881	-0.264630	0.396630
C169	C	0.114149	-0.301898	0.415973
C170	C	0.096140	-0.321349	0.168479
C171	C	0.116857	-0.303541	0.129826
C172	C	0.155588	-0.266277	0.110436
C173	C	0.178054	-0.246967	0.068525
C174	C	0.173603	-0.246823	0.129700
C175	C	0.152886	-0.264633	0.168352
C176	C	0.114152	-0.301896	0.187740
C177	C	-0.074937	-0.487778	0.396273
C178	C	-0.044037	-0.454381	0.380878
C179	C	0.073789	-0.336593	0.263057
C180	C	0.091693	-0.321202	0.229651
C181	C	0.073788	-0.336594	0.381014
C182	C	0.091691	-0.321204	0.396519
C183	C	-0.615743	-0.356174	0.361539
C184	C	-0.634371	-0.393779	0.380435
C185	C	-0.559122	-0.356172	0.304942
C186	C	-0.577836	-0.393777	0.323924
C187	C	-0.615725	-0.412756	0.361539
C188	C	-0.577854	-0.337281	0.323924
C189	C	-0.660596	-0.264522	0.396098
C190	C	-0.681321	-0.246588	0.413912
C191	C	-0.720059	-0.265924	0.451186
C192	C	-0.742537	-0.246482	0.470500
C193	C	-0.738070	-0.303194	0.470646
C194	C	-0.717341	-0.321123	0.452834
C195	C	-0.678603	-0.301786	0.415558
C196	C	-0.717647	-0.549207	0.453214
C197	C	-0.738480	-0.587849	0.471153
C198	C	-0.720584	-0.607234	0.451815
C199	C	-0.743172	-0.649132	0.471260
C200	C	-0.681848	-0.587973	0.414536
C201	C	-0.661012	-0.549331	0.396600
C202	C	-0.678918	-0.529951	0.415943
C203	C	-0.432858	-0.264515	0.168458
C204	C	-0.397097	-0.246581	0.129805
C205	C	-0.379148	-0.265915	0.110416
C206	C	-0.340376	-0.246472	0.068505
C207	C	-0.396963	-0.303183	0.129679
C208	C	-0.432724	-0.321116	0.168330
C209	C	-0.450666	-0.301777	0.187718
C210	C	-0.656131	-0.321232	0.396246
C211	C	-0.638218	-0.336731	0.380852
C212	C	-0.520349	-0.336727	0.263033
C213	C	-0.489442	-0.321227	0.229628
C214	C	-0.638316	-0.454654	0.380987
C215	C	-0.656324	-0.488051	0.396490
C216	C	0.051298	-0.022819	-0.361616
C217	C	0.069944	-0.041796	-0.380512
C218	C	-0.005306	-0.079403	-0.305018
C219	C	0.013426	-0.098294	-0.324001
C220	C	0.051315	-0.079402	-0.361615
C221	C	0.013409	-0.041798	-0.324001
C222	C	0.096080	0.113631	-0.396176
C223	C	0.116787	0.152272	-0.413989
C224	C	0.155526	0.171657	-0.451263
C225	C	0.177985	0.213557	-0.470578
C226	C	0.173554	0.152397	-0.470723
C227	C	0.152843	0.113757	-0.452911
C228	C	0.114104	0.094374	-0.415636
C229	C	0.153289	-0.113951	-0.453289
C230	C	0.174140	-0.131760	-0.471228
C231	C	0.156261	-0.169024	-0.451890
C232	C	0.178868	-0.188335	-0.471335
C233	C	0.117526	-0.188480	-0.414611
C234	C	0.096672	-0.170674	-0.396675
C235	C	0.114561	-0.133406	-0.416019
C236	C	-0.131588	-0.113957	-0.168534
C237	C	-0.167348	-0.131766	-0.129881
C238	C	-0.185280	-0.169031	-0.110492
C239	C	-0.224052	-0.188341	-0.068582
C240	C	-0.167447	-0.188484	-0.129755
C241	C	-0.131686	-0.170674	-0.168406
C242	C	-0.113762	-0.133410	-0.187794
C243	C	0.091652	0.052476	-0.396323
C244	C	0.073753	0.019079	-0.380928
C245	C	-0.044079	-0.098712	-0.263110
C246	C	-0.074986	-0.114103	-0.229704
C247	C	0.073925	-0.098709	-0.381063
C248	C	0.091947	-0.114100	-0.396566
C249	C	0.440984	0.310433	-0.361612
C250	C	0.422260	0.310692	-0.380509
C251	C	0.384372	0.310442	-0.305016
C252	C	0.365734	0.310701	-0.323999
C253	C	0.384371	0.310430	-0.361614
C254	C	0.422262	0.310704	-0.323998
C255	C	0.567258	0.300187	-0.396167
C256	C	0.603021	0.297288	-0.413979
C257	C	0.620960	0.295827	-0.451253
C258	C	0.659733	0.292677	-0.470566
C259	C	0.603136	0.297268	-0.470714
C260	C	0.567378	0.300172	-0.452903
C261	C	0.549439	0.301631	-0.415628
C262	C	0.339551	0.300165	-0.453291
C263	C	0.318834	0.297263	-0.471231
C264	C	0.280096	0.295810	-0.451894
C265	C	0.257626	0.292659	-0.471340
C266	C	0.262077	0.297263	-0.414616
C267	C	0.282797	0.300170	-0.396679
C268	C	0.321536	0.301619	-0.416021
C269	C	0.339558	0.300223	-0.168531
C270	C	0.318840	0.297329	-0.129878
C271	C	0.280101	0.295877	-0.110490
C272	C	0.257633	0.292737	-0.068580
C273	C	0.262081	0.297317	-0.129755
C274	C	0.282800	0.300209	-0.168406
C275	C	0.321542	0.301666	-0.187792
C276	C	0.510663	0.304776	-0.396317
C277	C	0.479756	0.307284	-0.380923
C278	C	0.361908	0.307303	-0.263108
C279	C	0.344003	0.304803	-0.229702
C280	C	0.361905	0.307279	-0.381063
C281	C	0.343998	0.304768	-0.396567
O282	O	-0.788374	-0.772371	0.496806
O283	O	-0.724385	-0.662948	0.451355
O284	O	-0.788378	-0.726931	0.451348
O285	O	-0.724381	-0.708388	0.496813
O286	O	-0.840382	-0.726931	0.503330
O287	O	-0.776389	-0.662948	0.503337
O288	O	-0.840378	-0.772371	0.548788
Zn289	Zn	-0.816641	-0.717660	0.534316
Zn290	Zn	-0.748123	-0.717659	0.465827
O291	O	-0.776385	-0.708388	0.548795
C292	C	0.051173	0.254264	0.361543
C293	C	0.013284	0.254002	0.380438
C294	C	0.051172	0.254253	0.304945
C295	C	0.013283	0.253992	0.323926
C296	C	-0.005439	0.254263	0.361540
C297	C	0.069809	0.253992	0.323928
C298	C	0.153121	0.264515	0.396107
C299	C	0.173963	0.267416	0.413921
C300	C	0.156074	0.268876	0.451195
C301	C	0.178674	0.272028	0.470510
C302	C	0.117339	0.267434	0.470654
C303	C	0.096497	0.264529	0.452841
C304	C	0.114390	0.263070	0.415565
C305	C	-0.131709	0.264524	0.453211
C306	C	-0.167472	0.267424	0.471149
C307	C	-0.185411	0.268876	0.451810
C308	C	-0.224183	0.272025	0.471253
C309	C	-0.167588	0.267423	0.414531
C310	C	-0.131832	0.264517	0.396597
C311	C	-0.113892	0.263070	0.415941
C312	C	0.153117	0.264473	0.168462
C313	C	0.173961	0.267367	0.129809
C314	C	0.156071	0.268817	0.110419
C315	C	0.178671	0.271957	0.068509
C316	C	0.117340	0.267377	0.129681
C317	C	0.096499	0.264484	0.168332
C318	C	0.114389	0.263028	0.187721
C319	C	0.091789	0.259923	0.396252
C320	C	0.073774	0.257413	0.380857
C321	C	0.073772	0.257391	0.263036
C322	C	0.091786	0.259892	0.229631
C323	C	-0.044211	0.257413	0.380987
C324	C	-0.075117	0.259922	0.396489
H325	H	-0.117231	-0.083863	0.019039
H326	H	-0.117169	-0.186516	-0.184088
Cl327	Cl	-0.010754	-0.145997	-0.300471
H328	H	-0.182051	-0.218829	-0.113967
Cl329	Cl	0.341472	-0.612052	-0.013226
Cl330	Cl	0.047450	-0.368196	0.192850
H331	H	-0.667273	-0.603755	0.398792
H332	H	0.205130	-0.216481	0.398823
Cl333	Cl	0.260063	-0.195109	-0.349303
H334	H	0.370702	-0.083858	-0.468750
Cl335	Cl	0.175527	-0.240172	0.349768
Cl336	Cl	-0.739981	-0.367972	0.477298
Cl337	Cl	0.625753	0.177017	-0.390294
Cl338	Cl	0.175608	0.262667	0.349253
H339	H	0.335186	-0.409001	-0.028871
Cl340	Cl	0.222656	0.269232	0.389457
H341	H	0.064537	0.097852	-0.365825
Cl342	Cl	-0.658681	-0.199739	0.389447
H343	H	-0.181855	-0.219090	0.013795
Cl344	Cl	-0.612319	-0.525120	0.349740
H345	H	-0.562157	-0.409012	0.308683
Cl346	Cl	0.094125	0.176481	-0.389525
H347	H	0.100436	-0.026556	-0.411416
Cl348	Cl	-0.553675	-0.289579	0.300393
Cl349	Cl	-0.787173	-0.612059	0.518013
Cl350	Cl	-0.374705	-0.199732	0.105590
H351	H	-0.002384	0.253565	0.308683
H352	H	-0.116917	-0.533154	0.365774
Cl353	Cl	0.175609	0.262645	0.192835
Cl354	Cl	0.213365	-0.612330	-0.013205
H355	H	0.335364	-0.128933	-0.308746
Cl356	Cl	0.341493	0.295517	-0.105662
H357	H	0.230179	-0.219075	-0.114181
Cl358	Cl	0.094845	0.269196	0.105307
H359	H	0.335244	0.311125	-0.308758
H360	H	0.205501	0.268545	0.114127
H361	H	-0.732226	-0.533430	0.468966
H362	H	0.617592	0.168203	-0.501575
H363	H	0.617526	0.296108	-0.398129
H364	H	0.552733	0.098105	-0.469036
Cl365	Cl	0.446450	0.311361	-0.300464
H366	H	-0.002385	0.253580	0.411345
Cl367	Cl	-0.010795	-0.018275	-0.300471
H368	H	0.552802	-0.351456	-0.019122
Cl369	Cl	-0.189667	-0.611782	0.389473
Cl370	Cl	0.260147	0.301998	-0.349819
H371	H	-0.117135	-0.533379	0.468710
Cl372	Cl	0.544616	-0.240197	-0.019769
Cl373	Cl	0.047980	-0.195133	-0.349815
H374	H	0.371105	0.301412	-0.184315
H375	H	0.102775	0.268621	0.501003
Cl376	Cl	0.625688	0.295432	-0.517570
Cl377	Cl	-0.189940	-0.612065	0.517534
Cl378	Cl	0.340815	-0.107828	-0.517573
H379	H	0.230451	-0.318912	-0.013830
Cl380	Cl	0.116882	0.253335	0.300399
H381	H	0.268124	0.301379	-0.184088
H382	H	0.437933	0.311116	-0.411416
Cl383	Cl	0.117019	-0.289305	0.300423
Cl384	Cl	0.544711	0.302024	-0.349309
Cl385	Cl	-0.455118	-0.367966	0.192545
Cl386	Cl	-0.374396	-0.327488	0.105307
Cl387	Cl	0.222249	0.176766	-0.517581
Cl388	Cl	0.222293	-0.199975	0.105327
H389	H	-0.182200	0.268599	0.398787
H390	H	0.371094	0.301346	-0.469043
H391	H	0.167522	0.098079	-0.468758
Cl392	Cl	0.544975	0.301985	-0.477369
Cl393	Cl	0.341486	0.295436	-0.518092
Cl394	Cl	0.213382	0.295443	-0.390307
H395	H	-0.117324	0.263333	0.366246
Cl396	Cl	0.213379	0.295489	-0.105382
Cl397	Cl	-0.189763	-0.107308	-0.105667
H398	H	-0.117003	-0.083619	-0.184321
Cl399	Cl	0.094205	-0.328002	0.518045
Cl400	Cl	0.047845	0.089803	0.019687
Cl401	Cl	0.175775	-0.067103	-0.477606
H402	H	-0.447466	-0.248767	0.184241
Cl403	Cl	0.047410	-0.195113	0.019713
H404	H	-0.629053	-0.248773	0.365748
H405	H	0.064959	0.263353	0.468687
Cl406	Cl	0.222833	-0.107300	-0.518088
H407	H	0.268050	-0.351447	-0.019095
H408	H	0.102966	-0.218823	-0.398867
Cl409	Cl	-0.109160	0.262702	0.477529
Cl410	Cl	-0.189872	0.269252	0.518009
Cl411	Cl	0.047808	0.262670	0.192546
Cl412	Cl	0.047447	-0.368198	0.477562
H413	H	-0.002318	-0.026308	0.028814
Cl414	Cl	0.625320	-0.199726	-0.013226
Cl415	Cl	0.116945	-0.018016	0.029056
H416	H	-0.002284	-0.128938	0.028814
Cl417	Cl	-0.010735	-0.417033	0.428175
Cl418	Cl	-0.109045	-0.195119	0.019706
Cl419	Cl	0.545056	0.089799	-0.349806
Cl420	Cl	0.094190	-0.235583	0.013167
H421	H	0.370694	-0.083855	-0.184074
Cl422	Cl	0.446402	-0.417293	-0.029116
H423	H	0.205106	-0.116386	0.013797
H424	H	0.167509	-0.083851	0.019058
H425	H	0.205525	0.168215	0.013797
Cl426	Cl	0.175660	0.089530	0.019704
Cl427	Cl	0.094868	0.177023	0.013138
Cl428	Cl	-0.190038	-0.107831	0.013122
H429	H	0.438031	-0.026306	-0.308745
Cl430	Cl	0.260069	-0.195112	-0.192890
Cl431	Cl	0.213033	-0.235583	-0.389513
Cl432	Cl	0.446562	-0.018021	-0.428220
Cl433	Cl	-0.681441	-0.417304	0.428151
Cl434	Cl	0.340803	-0.107817	-0.105361
Cl435	Cl	0.446369	-0.289566	-0.029103
H436	H	0.333407	-0.216221	-0.013848
H437	H	0.371005	-0.248753	-0.019117
H438	H	0.617672	-0.318922	-0.013861
H439	H	0.371065	-0.533421	-0.019127
H440	H	0.268093	-0.533642	-0.019112
Cl441	Cl	0.175533	-0.240175	0.192568
H442	H	0.102187	-0.319384	0.114143
Cl443	Cl	-0.010738	-0.417029	0.300417
Cl444	Cl	-0.786765	-0.327497	0.517503
