data_functionalizedCrystal
_audit_creation_method	'MofGen! by Chris Wilmer'
_symmetry_space_group_name_H-M	'P1'
_symmetry_Int_Tables_number	1
_symmetry_cell_setting	triclinic
loop_
_symmetry_equiv_pos_as_xyz
  x,y,z
_cell_length_a	12.827893
_cell_length_b	13.897449
_cell_length_c	12.827885
_cell_angle_alpha	90.020099
_cell_angle_beta	89.974949
_cell_angle_gamma	89.995211
loop_
_atom_site_label
_atom_site_type_symbol
_atom_site_fract_x
_atom_site_fract_y
_atom_site_fract_z
Zn1	Zn	0.415947	1.474792	0.590906
Zn2	Zn	0.915947	1.974792	1.090906
Zn3	Zn	0.590724	1.474727	0.416181
Zn4	Zn	1.090724	1.974727	0.916181
Zn5	Zn	0.416002	1.313483	0.416177
Zn6	Zn	0.916002	1.813483	0.916177
Zn7	Zn	0.590650	1.313502	0.590878
Zn8	Zn	1.090650	1.813502	1.090878
O9	O	0.503331	1.394126	0.503536
O10	O	1.003331	1.894126	1.003536
O11	O	0.439139	1.609765	0.567742
O12	O	0.939139	2.109765	1.067742
O13	O	0.567601	1.453303	0.269944
O14	O	1.067601	1.953303	0.769944
O15	O	0.269758	1.334899	0.439366
O16	O	0.769758	1.834899	0.939366
O17	O	0.567547	1.609717	0.439372
O18	O	1.067547	2.109717	0.939372
O19	O	0.269718	1.453412	0.567738
O20	O	0.769718	1.953412	1.067738
O21	O	0.439233	1.334837	0.269942
O22	O	0.939233	1.834837	0.769942
O23	O	0.439161	1.178504	0.439339
O24	O	0.939161	1.678504	0.939339
O25	O	0.567422	1.334933	0.737118
O26	O	1.067422	1.834933	1.237118
O27	O	0.567475	1.178518	0.567691
O28	O	1.067475	1.678518	1.067691
O29	O	0.439068	1.453431	0.737139
O30	O	0.939068	1.953431	1.237139
O31	O	0.736950	1.453322	0.439345
O32	O	1.236950	1.953322	0.939345
O33	O	0.736896	1.334871	0.567694
O34	O	1.236896	1.834871	1.067694
C35	C	0.503317	1.143512	0.503512
C36	C	1.003317	1.643512	1.003512
C37	C	0.503336	1.036298	0.503526
C38	C	1.003336	1.536298	1.003526
C39	C	0.230761	1.394161	0.503555
C40	C	0.730761	1.894161	1.003555
C41	C	0.114607	1.394175	0.503563
C42	C	0.614607	1.894175	1.003563
C43	C	0.062843	1.335544	0.440050
C44	C	0.562843	1.835544	0.940050
C45	C	-0.057208	1.335558	0.440057
C46	C	0.442792	1.835558	0.940057
C47	C	0.503340	0.840003	0.503554
C48	C	1.003340	1.340003	1.003554
C49	C	0.503334	0.949235	0.503536
C50	C	1.003334	1.449235	1.003536
C51	C	0.774841	1.394118	0.503540
C52	C	1.274841	1.894118	1.003540
C53	C	0.890994	1.394202	0.503576
C54	C	1.390994	1.894202	1.003576
C55	C	0.503230	1.394192	0.776106
C56	C	1.003230	1.894192	1.276106
C57	C	0.503188	1.394220	0.892259
C58	C	1.003188	1.894220	1.392259
C59	C	0.503345	1.645719	0.503560
C60	C	1.003345	2.145719	1.003560
C61	C	0.503352	1.752933	0.503571
C62	C	1.003352	2.252933	1.003571
C63	C	0.503355	1.394116	0.232026
C64	C	1.003355	1.894116	0.732026
C65	C	0.503104	1.394275	0.115873
C66	C	1.003104	1.894275	0.615873
C67	C	0.439661	1.452863	0.944054
C68	C	0.939661	1.952863	1.444054
C69	C	0.439616	1.452893	1.064104
C70	C	0.939616	1.952893	1.564104
H71	H	0.107402	1.285334	0.385673
H72	H	0.607402	1.785334	0.885673
H73	H	-0.064497	1.444405	0.557951
H74	H	0.435503	1.944405	1.057951
O75	O	0.367665	1.519350	0.885080
O76	O	0.867665	2.019350	1.385080
H77	H	0.379007	1.508900	0.800042
H78	H	0.879007	2.008900	1.300042
H79	H	0.557534	1.344029	0.936793
H80	H	1.057534	1.844029	1.436793
H81	H	0.070049	1.444379	0.557947
H82	H	0.570049	1.944379	1.057947
H83	H	0.557497	1.344069	1.071338
H84	H	1.057497	1.844069	1.571338
H85	H	-0.101723	1.285365	0.385677
H86	H	0.398277	1.785365	0.885677
O87	O	0.367557	1.519384	1.123105
O88	O	0.867557	2.019384	1.623105
H89	H	0.414348	1.568420	1.172849
H90	H	0.914348	2.068420	1.672849
