data_functionalizedCrystal
_audit_creation_method	'MofGen! by Chris Wilmer'
_symmetry_space_group_name_H-M	'P1'
_symmetry_Int_Tables_number	1
_symmetry_cell_setting	triclinic
loop_
_symmetry_equiv_pos_as_xyz
  x,y,z
_cell_length_a	10.654541
_cell_length_b	15.500227
_cell_length_c	10.654545
_cell_angle_alpha	92.858000
_cell_angle_beta	95.515322
_cell_angle_gamma	92.870557
loop_
_atom_site_label
_atom_site_type_symbol
_atom_site_fract_x
_atom_site_fract_y
_atom_site_fract_z
O1	O	1.673633	0.071913	-0.170607
O2	O	1.308155	0.071920	-0.187416
O3	O	1.499296	0.071916	0.003728
O4	O	1.482492	0.071917	-0.361751
O5	O	1.487697	-0.071973	-0.007826
O6	O	1.296556	-0.071969	-0.198969
O7	O	1.662034	-0.071976	-0.182160
Cu8	Cu	1.478236	-0.085110	-0.191620
Cu9	Cu	1.491953	0.085054	-0.177957
O10	O	1.470893	-0.071971	-0.373304
C11	C	1.255557	-0.000023	-0.191959
C12	C	1.116114	-0.000021	-0.188268
N13	N	1.468597	-0.204795	-0.201229
C14	C	1.088145	-0.000009	-0.416831
C15	C	1.008652	0.000001	-0.529374
C16	C	0.877634	0.000001	-0.525898
C17	C	0.826108	-0.000010	-0.409868
C18	C	0.905601	-0.000019	-0.297326
C19	C	1.036620	-0.000017	-0.300814
C20	C	0.933569	-0.000037	-0.068766
C21	C	1.064588	-0.000032	-0.072238
C22	C	0.882042	-0.000048	0.047265
C23	C	0.961536	-0.000051	0.159810
C24	C	1.092561	-0.000051	0.156330
C25	C	1.144081	-0.000041	0.040305
C26	C	1.549619	-0.250073	-0.120265
C27	C	1.542340	-0.340646	-0.127544
C28	C	1.454046	-0.385939	-0.215794
C29	C	1.373015	-0.340654	-0.296761
C30	C	1.380288	-0.250083	-0.289475
C31	C	1.427845	-0.659405	-0.242019
C32	C	1.420580	-0.749982	-0.249302
C33	C	1.589905	-0.749968	-0.080082
C34	C	1.597175	-0.659396	-0.072809
C35	C	1.516140	-0.614119	-0.153772
C36	C	1.446607	-0.478519	-0.223239
C37	C	1.523574	-0.521541	-0.146320
C38	C	1.714632	-0.000031	-0.177617
C39	C	1.854076	-0.000028	-0.181308
C40	C	1.492263	-0.000027	0.044749
C41	C	1.488571	-0.000022	0.184193
N42	N	1.501602	0.204739	-0.168338
C43	C	1.477927	-0.000027	-0.414325
C44	C	1.481619	-0.000026	-0.553769
C45	C	1.501232	0.156850	0.196797
C46	C	1.505832	0.235285	0.268609
C47	C	1.502363	0.235286	0.399628
C48	C	1.494289	0.156843	0.458836
C49	C	1.489689	0.078408	0.387024
C50	C	1.493162	0.078415	0.256004
C51	C	1.477019	-0.078462	0.374419
C52	C	1.480497	-0.078465	0.243402
C53	C	1.468945	-0.156905	0.433628
C54	C	1.464353	-0.235342	0.361817
C55	C	1.467824	-0.235340	0.230791
C56	C	1.475896	-0.156900	0.171590
H57	H	1.194827	0.000010	-0.419671
H58	H	1.457771	-0.299204	0.410035
H59	H	1.361865	-0.622548	-0.307945
H60	H	0.775359	-0.000052	0.050086
H61	H	0.919572	-0.000060	0.254273
H62	H	1.491450	0.156851	0.565518
H63	H	1.301117	-0.377536	-0.368612
H64	H	1.314310	-0.213218	-0.355403
H65	H	1.050620	0.000007	-0.623844
H66	H	1.655879	-0.786841	-0.014165
H67	H	1.464058	-0.299212	0.172326
H68	H	1.608314	-0.377511	-0.061616
H69	H	0.719424	-0.000019	-0.407049
H70	H	1.504071	0.156857	0.090117
H71	H	0.812909	0.000003	-0.617541
H72	H	1.621523	-0.213202	-0.048408
H73	H	1.348676	-0.786855	-0.321170
H74	H	1.478729	-0.156891	0.064909
H75	H	1.669072	-0.622520	-0.000949
H76	H	1.595460	-0.484661	-0.074462
H77	H	1.374717	-0.515403	-0.295096
H78	H	1.157278	-0.000062	0.247976
H79	H	1.250761	-0.000031	0.037461
H80	H	1.512404	0.299152	0.220386
H81	H	1.506098	0.299155	0.458096
H82	H	1.466113	-0.156898	0.540310
