data_functionalizedCrystal
_audit_creation_method	'MofGen! by Chris Wilmer'
_symmetry_space_group_name_H-M	'P1'
_symmetry_Int_Tables_number	1
_symmetry_cell_setting	triclinic
loop_
_symmetry_equiv_pos_as_xyz
  x,y,z
_cell_length_a	16.109302
_cell_length_b	14.586319
_cell_length_c	16.109301
_cell_angle_alpha	89.994230
_cell_angle_beta	96.538369
_cell_angle_gamma	90.006080
loop_
_atom_site_label
_atom_site_type_symbol
_atom_site_fract_x
_atom_site_fract_y
_atom_site_fract_z
O1	O	1.103131	0.076284	-0.106870
O2	O	1.353131	0.326284	0.143130
O3	O	1.603131	0.576284	0.393130
O4	O	1.853131	0.826284	0.643130
O5	O	0.861069	0.076278	-0.120168
O6	O	1.111069	0.326278	0.129832
O7	O	1.361069	0.576278	0.379832
O8	O	1.611069	0.826278	0.629832
O9	O	0.988750	0.076272	0.007512
O10	O	1.238750	0.326272	0.257512
O11	O	1.488750	0.576272	0.507512
O12	O	1.738750	0.826272	0.757512
O13	O	0.975451	0.076290	-0.234550
O14	O	1.225451	0.326290	0.015450
O15	O	1.475451	0.576290	0.265450
O16	O	1.725451	0.826290	0.515450
O17	O	0.988740	-0.076209	0.007515
O18	O	1.238740	0.173791	0.257515
O19	O	1.488740	0.423791	0.507515
O20	O	1.738740	0.673791	0.757515
O21	O	0.861059	-0.076203	-0.120165
O22	O	1.111059	0.173797	0.129835
O23	O	1.361059	0.423797	0.379835
O24	O	1.611059	0.673797	0.629835
O25	O	1.103121	-0.076196	-0.106867
O26	O	1.353121	0.173804	0.143133
O27	O	1.603121	0.423804	0.393133
O28	O	1.853121	0.673804	0.643133
Cu29	Cu	0.982089	-0.090122	-0.113516
Cu30	Cu	1.232089	0.159878	0.136484
Cu31	Cu	1.482089	0.409878	0.386484
Cu32	Cu	1.732089	0.659878	0.636484
Cu33	Cu	0.982101	0.090204	-0.113519
Cu34	Cu	1.232101	0.340204	0.136481
Cu35	Cu	1.482101	0.590204	0.386481
Cu36	Cu	1.732101	0.840204	0.636481
O37	O	0.975440	-0.076191	-0.234547
O38	O	1.225440	0.173809	0.015453
O39	O	1.475440	0.423809	0.265453
O40	O	1.725440	0.673809	0.515453
C41	C	0.830089	0.000036	-0.119628
C42	C	1.080089	0.250036	0.130372
C43	C	1.330089	0.500036	0.380372
C44	C	1.580089	0.750036	0.630372
C45	C	0.737794	0.000033	-0.118013
C46	C	0.987794	0.250033	0.131987
C47	C	1.237794	0.500033	0.381987
C48	C	1.487794	0.750033	0.631987
N49	N	0.982087	-0.216954	-0.113513
N50	N	1.232087	0.033046	0.136487
N51	N	1.482087	0.283046	0.386487
N52	N	1.732087	0.533046	0.636487
C53	C	1.038646	-0.547951	-0.056994
C54	C	1.288646	-0.297951	0.193006
C55	C	1.538646	-0.047951	0.443006
C56	C	1.788646	0.202049	0.693006
C57	C	1.038643	-0.451969	-0.056995
C58	C	1.288643	-0.201969	0.193005
C59	C	1.538643	0.048031	0.443005
C60	C	1.788643	0.298031	0.693005
C61	C	0.925548	-0.451975	-0.170040
C62	C	1.175548	-0.201975	0.079960
C63	C	1.425548	0.048025	0.329960
C64	C	1.675548	0.298025	0.579960
C65	C	0.925555	-0.547954	-0.170043
C66	C	1.175555	-0.297954	0.079957
C67	C	1.425555	-0.047954	0.329957
C68	C	1.675555	0.202046	0.579957
C69	C	0.982103	-0.595940	-0.113515
C70	C	1.232103	-0.345940	0.136485
C71	C	1.482103	-0.095940	0.386485
C72	C	1.732103	0.154060	0.636485
C73	C	0.982094	-0.403979	-0.113513
C74	C	1.232094	-0.153979	0.136487
C75	C	1.482094	0.096021	0.386487
C76	C	1.732094	0.346021	0.636487
C77	C	0.982091	-0.299912	-0.113514
C78	C	1.232091	-0.049912	0.136486
C79	C	1.482091	0.200088	0.386486
C80	C	1.732091	0.450088	0.636486
C81	C	0.982107	-0.700014	-0.113515
C82	C	1.232107	-0.450014	0.136485
C83	C	1.482107	-0.200014	0.386485
C84	C	1.732107	0.049986	0.636485
C85	C	0.525447	-0.083075	-0.114276
C86	C	0.775447	0.166925	0.135724
C87	C	1.025447	0.416925	0.385724
C88	C	1.275447	0.666925	0.635724
C89	C	0.438727	-0.083072	-0.112749
C90	C	0.688727	0.166928	0.137251
C91	C	0.938727	0.416928	0.387251
C92	C	1.188727	0.666928	0.637251
C93	C	0.438749	0.083171	-0.112757
C94	C	0.688749	0.333171	0.137243
C95	C	0.938749	0.583171	0.387243
C96	C	1.188749	0.833171	0.637243
C97	C	0.525468	0.083167	-0.114277
C98	C	0.775468	0.333167	0.135723
C99	C	1.025468	0.583167	0.385723
C100	C	1.275468	0.833167	0.635723
C101	C	0.568815	0.000041	-0.115041
C102	C	0.818815	0.250041	0.134959
C103	C	1.068815	0.500041	0.384959
C104	C	1.318815	0.750041	0.634959
C105	C	0.395375	0.000048	-0.111994
C106	C	0.645375	0.250048	0.138006
C107	C	0.895375	0.500048	0.388006
C108	C	1.145375	0.750048	0.638006
C109	C	0.301350	0.000052	-0.110338
C110	C	0.551350	0.250052	0.139662
C111	C	0.801350	0.500052	0.389662
C112	C	1.051350	0.750052	0.639662
C113	C	0.662847	0.000037	-0.116695
C114	C	0.912847	0.250037	0.133305
C115	C	1.162847	0.500037	0.383305
C116	C	1.412847	0.750037	0.633305
C117	C	1.134101	0.000047	-0.107407
C118	C	1.384101	0.250047	0.142593
C119	C	1.634101	0.500047	0.392593
C120	C	1.884101	0.750047	0.642593
C121	C	1.226396	0.000056	-0.109022
C122	C	1.476396	0.250056	0.140978
C123	C	1.726396	0.500056	0.390978
C124	C	1.976396	0.750056	0.640978
C125	C	0.988206	0.000031	0.038488
C126	C	1.238206	0.250031	0.288488
C127	C	1.488206	0.500031	0.538488
C128	C	1.738206	0.750031	0.788488
C129	C	0.986591	0.000030	0.130784
C130	C	1.236591	0.250030	0.380784
C131	C	1.486591	0.500030	0.630784
C132	C	1.736591	0.750030	0.880784
N133	N	0.982110	0.217035	-0.113516
N134	N	1.232110	0.467035	0.136484
N135	N	1.482110	0.717035	0.386484
N136	N	1.732110	0.967035	0.636484
C137	C	0.975984	0.000052	-0.265523
C138	C	1.225984	0.250052	-0.015523
C139	C	1.475984	0.500052	0.234477
C140	C	1.725984	0.750052	0.484477
C141	C	0.977599	0.000060	-0.357819
C142	C	1.227599	0.250060	-0.107819
C143	C	1.477599	0.500060	0.142181
C144	C	1.727599	0.750060	0.392181
C145	C	1.058599	0.000046	0.353056
C146	C	1.308599	0.250046	0.603056
C147	C	1.558599	0.500046	0.853056
C148	C	1.808599	0.750046	1.103056
C149	C	1.057074	0.000054	0.439776
C150	C	1.307074	0.250054	0.689776
C151	C	1.557074	0.500054	0.939776
C152	C	1.807074	0.750054	1.189776
C153	C	0.905586	0.000046	0.419902
C154	C	1.155586	0.250046	0.669902
C155	C	1.405586	0.500046	0.919902
C156	C	1.655586	0.750046	1.169902
C157	C	0.907111	0.000045	0.333184
C158	C	1.157111	0.250045	0.583184
C159	C	1.407111	0.500045	0.833184
C160	C	1.657111	0.750045	1.083184
C161	C	0.983620	0.000040	0.299763
C162	C	1.233620	0.250040	0.549763
C163	C	1.483620	0.500040	0.799763
C164	C	1.733620	0.750040	1.049763
C165	C	0.980571	0.000049	0.473202
C166	C	1.230571	0.250049	0.723202
C167	C	1.480571	0.500049	0.973202
C168	C	1.730571	0.750049	1.223202
C169	C	0.978918	0.000057	0.567228
C170	C	1.228918	0.250057	0.817228
C171	C	1.478918	0.500057	1.067228
C172	C	1.728918	0.750057	1.317228
C173	C	0.985273	0.000034	0.205731
C174	C	1.235273	0.250034	0.455731
C175	C	1.485273	0.500034	0.705731
C176	C	1.735273	0.750034	0.955731
H177	H	1.084691	-0.587018	-0.010967
H178	H	1.334691	-0.337018	0.239033
H179	H	1.584691	-0.087018	0.489033
H180	H	1.834691	0.162982	0.739033
O181	O	0.391987	0.172819	-0.111938
O182	O	0.641987	0.422819	0.138062
O183	O	0.891987	0.672819	0.388062
O184	O	1.141987	0.922819	0.638062
H185	H	0.416057	0.212668	-0.055593
H186	H	0.666057	0.462668	0.194407
H187	H	0.916057	0.712668	0.444407
H188	H	1.166057	0.962668	0.694407
H189	H	1.118130	0.000060	0.483165
H190	H	1.368130	0.250060	0.733165
H191	H	1.618130	0.500060	0.983165
H192	H	1.868130	0.750060	1.233165
H193	H	0.843295	0.000048	0.447124
H194	H	1.093295	0.250048	0.697124
H195	H	1.343295	0.500048	0.947124
H196	H	1.593295	0.750048	1.197124
O197	O	0.826237	0.000028	0.275693
O198	O	1.076237	0.250028	0.525693
O199	O	1.326237	0.500028	0.775693
O200	O	1.576237	0.750028	1.025693
H201	H	0.772780	0.000015	0.313500
H202	H	1.022780	0.250015	0.563500
H203	H	1.272780	0.500015	0.813500
H204	H	1.522780	0.750015	1.063500
H205	H	0.560738	-0.150762	-0.114898
H206	H	0.810738	0.099238	0.135102
H207	H	1.060738	0.349238	0.385102
H208	H	1.310738	0.599238	0.635102
O209	O	0.572253	0.172817	-0.115106
O210	O	0.822253	0.422817	0.134894
O211	O	1.072253	0.672817	0.384894
O212	O	1.322253	0.922817	0.634894
H213	H	0.527542	0.230621	-0.114332
H214	H	0.777542	0.480621	0.135668
H215	H	1.027542	0.730621	0.385668
H216	H	1.277542	0.980621	0.635668
H217	H	1.084687	-0.412899	-0.010971
H218	H	1.334687	-0.162899	0.239029
H219	H	1.584687	0.087101	0.489029
H220	H	1.834687	0.337101	0.739029
H221	H	0.879511	-0.587030	-0.216073
H222	H	1.129511	-0.337030	0.033927
H223	H	1.379511	-0.087030	0.283927
H224	H	1.629511	0.162970	0.533927
O225	O	0.864536	-0.400221	-0.230985
O226	O	1.114536	-0.150221	0.019015
O227	O	1.364536	0.099779	0.269015
O228	O	1.614536	0.349779	0.519015
H229	H	0.874017	-0.325417	-0.221476
H230	H	1.124017	-0.075417	0.028524
H231	H	1.374017	0.174583	0.278524
H232	H	1.624017	0.424583	0.528524
H233	H	0.403422	-0.150754	-0.112126
H234	H	0.653422	0.099246	0.137874
H235	H	0.903422	0.349246	0.387874
H236	H	1.153422	0.599246	0.637874
O237	O	1.141114	0.000060	0.317004
O238	O	1.391114	0.250060	0.567004
O239	O	1.641114	0.500060	0.817004
O240	O	1.891114	0.750060	1.067004
H241	H	1.192995	0.000077	0.368635
H242	H	1.442995	0.250077	0.618635
H243	H	1.692995	0.500077	0.868635
H244	H	1.942995	0.750077	1.118635
