data_functionalizedCrystal
_audit_creation_method	'MofGen! by Chris Wilmer'
_symmetry_space_group_name_H-M	'P1'
_symmetry_Int_Tables_number	1
_symmetry_cell_setting	triclinic
loop_
_symmetry_equiv_pos_as_xyz
  x,y,z
_cell_length_a	23.532407
_cell_length_b	23.532357
_cell_length_c	22.610064
_cell_angle_alpha	89.998517
_cell_angle_beta	89.997161
_cell_angle_gamma	82.838485
loop_
_atom_site_label
_atom_site_type_symbol
_atom_site_fract_x
_atom_site_fract_y
_atom_site_fract_z
O1	O	0.755251	0.069129	-0.049118
O2	O	1.255251	0.569129	0.450882
O3	O	0.589386	0.079132	-0.049136
O4	O	1.089386	0.579132	0.450864
O5	O	0.677335	-0.008803	-0.049114
O6	O	1.177335	0.491197	0.450886
O7	O	0.667302	0.157064	-0.049140
O8	O	1.167302	0.657064	0.450860
O9	O	0.677319	-0.008790	0.049255
O10	O	1.177319	0.491210	0.549255
O11	O	0.589370	0.079145	0.049233
O12	O	1.089370	0.579145	0.549233
O13	O	0.755236	0.069142	0.049251
O14	O	1.255236	0.569142	0.549251
Zn15	Zn	0.672301	0.074145	0.064860
Zn16	Zn	1.172301	0.574145	0.564860
Zn17	Zn	0.672321	0.074128	-0.064745
Zn18	Zn	1.172321	0.574128	0.435255
O19	O	0.667286	0.157077	0.049229
O20	O	1.167286	0.657077	0.549229
C21	C	0.568162	0.078884	0.000046
C22	C	1.068162	0.578884	0.500046
C23	C	0.504945	0.078118	0.000040
C24	C	1.004945	0.578118	0.500040
C25	C	0.105834	0.125353	0.000059
C26	C	0.605834	0.625353	0.500059
C27	C	0.046434	0.124641	0.000063
C28	C	0.546434	0.624641	0.500063
O29	O	0.009681	0.168428	0.000078
O30	O	0.509681	0.668428	0.500078
N31	N	0.023817	0.072364	0.000070
N32	N	0.523817	0.572364	0.500070
C33	C	0.060604	0.020794	0.000079
C34	C	0.560604	0.520794	0.500079
O35	O	0.035912	-0.023737	0.000086
O36	O	0.535912	0.476263	0.500086
C37	C	0.120003	0.021506	0.000080
C38	C	0.620003	0.521506	0.500080
C39	C	0.142616	0.073787	0.000067
C40	C	0.642616	0.573787	0.500067
C41	C	0.128448	0.177629	0.000047
C42	C	0.628448	0.677629	0.500047
C43	C	0.187844	0.178341	0.000042
C44	C	0.687844	0.678341	0.500042
C45	C	0.224626	0.126775	0.000050
C46	C	0.724626	0.626775	0.500050
C47	C	0.202012	0.074498	0.000062
C48	C	0.702012	0.574498	0.500062
C49	C	0.156788	-0.030063	0.000093
C50	C	0.656788	0.469937	0.500093
C51	C	0.216191	-0.029346	0.000094
C52	C	0.716191	0.470654	0.500094
C53	C	0.238804	0.022935	0.000081
C54	C	0.738804	0.522935	0.500081
C55	C	0.298190	0.023644	0.000065
C56	C	0.798190	0.523644	0.500065
N57	N	0.320807	0.075922	0.000058
N58	N	0.820807	0.575922	0.500058
C59	C	0.284025	0.127487	0.000050
C60	C	0.784025	0.627487	0.500050
C61	C	-0.064139	0.019303	0.000079
C62	C	0.435861	0.519303	0.500079
C63	C	-0.123536	0.018590	0.000075
C64	C	0.376464	0.518590	0.500075
C65	C	-0.137702	0.122437	0.000059
C66	C	0.362298	0.622437	0.500059
C67	C	-0.078303	0.123149	0.000060
C68	C	0.421697	0.623149	0.500060
C69	C	-0.041522	0.071580	0.000072
C70	C	0.458478	0.571580	0.500072
C71	C	0.408761	0.128977	0.000040
C72	C	0.908761	0.628977	0.500040
C73	C	0.468163	0.129684	0.000032
C74	C	0.968163	0.629684	0.500032
C75	C	0.482324	0.025837	0.000051
C76	C	0.982324	0.525837	0.500051
C77	C	0.422927	0.025130	0.000055
C78	C	0.922927	0.525130	0.500055
C79	C	0.386147	0.076704	0.000051
C80	C	0.886147	0.576704	0.500051
O81	O	0.334977	-0.020120	0.000052
O82	O	0.834977	0.479880	0.500052
O83	O	0.308725	0.172011	0.000051
O84	O	0.808725	0.672011	0.500051
C85	C	0.677076	-0.030013	0.000072
C86	C	1.177076	0.469987	0.500072
C87	C	0.676322	-0.093232	0.000078
C88	C	1.176322	0.406768	0.500078
C89	C	0.671594	-0.485250	-0.053576
C90	C	1.171594	0.014750	0.446424
C91	C	0.670876	-0.544650	-0.053579
C92	C	1.170876	-0.044650	0.446421
O93	O	0.670493	-0.575372	-0.099182
O94	O	1.170493	-0.075372	0.400818
N95	N	0.670512	-0.574354	0.000041
N96	N	1.170512	-0.074354	0.500041
C97	C	0.670859	-0.544655	0.053668
C98	C	1.170859	-0.044655	0.553668
O99	O	0.670483	-0.575375	0.099276
O100	O	1.170483	-0.075375	0.599276
C101	C	0.671573	-0.485256	0.053671
C102	C	1.171573	0.014744	0.553671
C103	C	0.671943	-0.455556	0.000047
C104	C	1.171943	0.044444	0.500047
C105	C	0.671963	-0.455550	-0.107195
C106	C	1.171963	0.044450	0.392805
C107	C	0.672681	-0.396155	-0.107192
C108	C	1.172681	0.103845	0.392808
C109	C	0.673030	-0.366460	-0.053569
C110	C	1.173030	0.133540	0.446431
C111	C	0.672661	-0.396160	0.000051
C112	C	1.172661	0.103840	0.500051
C113	C	0.671916	-0.455557	0.107298
C114	C	1.171916	0.044443	0.607298
C115	C	0.672629	-0.396154	0.107296
C116	C	1.172629	0.103846	0.607296
C117	C	0.672998	-0.366454	0.053672
C118	C	1.172998	0.133546	0.553672
C119	C	0.673728	-0.307070	0.053678
C120	C	1.173728	0.192930	0.553678
N121	N	0.674092	-0.277366	0.000057
N122	N	1.174092	0.222634	0.500057
C123	C	0.673743	-0.307061	-0.053566
C124	C	1.173743	0.192939	0.446434
C125	C	0.669361	-0.669396	0.053658
C126	C	1.169361	-0.169396	0.553658
C127	C	0.668652	-0.728795	0.053656
C128	C	1.168652	-0.228795	0.553656
C129	C	0.668668	-0.728785	-0.053592
C130	C	1.168668	-0.228785	0.446408
C131	C	0.669381	-0.669387	-0.053589
C132	C	1.169381	-0.169387	0.446411
C133	C	0.669725	-0.639692	0.000038
C134	C	1.169725	-0.139692	0.500038
C135	C	0.675252	-0.182327	-0.053554
C136	C	1.175252	0.317673	0.446446
C137	C	0.675973	-0.122927	-0.053545
C138	C	1.175973	0.377073	0.446455
C139	C	0.675954	-0.122941	0.053702
C140	C	1.175954	0.377059	0.553702
C141	C	0.675236	-0.182336	0.053694
C142	C	1.175236	0.317664	0.553694
C143	C	0.674883	-0.212027	0.000061
C144	C	1.174883	0.287973	0.500061
O145	O	0.674109	-0.276310	0.099257
O146	O	1.174109	0.223690	0.599257
O147	O	0.674112	-0.276333	-0.099166
O148	O	1.174112	0.223667	0.400834
C149	C	0.776459	0.069390	0.000068
C150	C	1.276459	0.569390	0.500068
C151	C	0.839676	0.070156	0.000070
C152	C	1.339676	0.570156	0.500070
C153	C	0.667545	0.178287	0.000042
C154	C	1.167545	0.678287	0.500042
C155	C	0.668300	0.241506	0.000032
C156	C	1.168300	0.741506	0.500032
N157	N	0.672291	0.074157	0.153313
N158	N	1.172291	0.574157	0.653313
N159	N	0.672335	0.074113	-0.153198
N160	N	1.172335	0.574113	0.346802
C161	C	0.711267	0.035197	0.561964
C162	C	1.211267	0.535197	1.061964
C163	C	0.711269	0.035192	0.623884
C164	C	1.211269	0.535192	1.123884
O165	O	0.744384	0.002076	0.655911
O166	O	1.244384	0.502076	1.155911
N167	N	0.672321	0.074117	0.654850
N168	N	1.172321	0.574117	1.154850
C169	C	0.633362	0.113044	0.623893
C170	C	1.133362	0.613044	1.123893
O171	O	0.600233	0.146151	0.655918
O172	O	1.100233	0.646151	1.155918
C173	C	0.633357	0.113045	0.561974
C174	C	1.133357	0.613045	1.061974
C175	C	0.672312	0.074122	0.531011
C176	C	1.172312	0.574122	1.031011
C177	C	0.750218	-0.003724	0.531001
C178	C	1.250218	0.496276	1.031001
C179	C	0.750216	-0.003719	0.469085
C180	C	1.250216	0.496281	0.969085
C181	C	0.711262	0.035207	0.438133
C182	C	1.211262	0.535207	0.938133
C183	C	0.672310	0.074127	0.469096
C184	C	1.172310	0.574127	0.969096
C185	C	0.594397	0.151969	0.531018
C186	C	1.094397	0.651969	1.031018
C187	C	0.594395	0.151966	0.469095
C188	C	1.094395	0.651966	0.969095
C189	C	0.633350	0.113043	0.438133
C190	C	1.133350	0.613043	0.938133
C191	C	0.633354	0.113057	0.376227
C192	C	1.133354	0.613057	0.876227
N193	N	0.672303	0.074133	0.345261
N194	N	1.172303	0.574133	0.845261
C195	C	0.711257	0.035208	0.376214
C196	C	1.211257	0.535208	0.876214
C197	C	0.633376	0.113038	0.753927
C198	C	1.133376	0.613038	1.253927
C199	C	0.633383	0.113040	0.815844
C200	C	1.133383	0.613040	1.315844
C201	C	0.711290	0.035188	0.815831
C202	C	1.211290	0.535188	1.315831
C203	C	0.711284	0.035189	0.753912
C204	C	1.211284	0.535189	1.253912
C205	C	0.672324	0.074114	0.722961
C206	C	1.172324	0.574114	1.222961
C207	C	0.711249	0.035221	0.246187
C208	C	1.211249	0.535221	0.746187
C209	C	0.711245	0.035231	0.184265
C210	C	1.211245	0.535231	0.684265
C211	C	0.633337	0.113081	0.184284
C212	C	1.133337	0.613081	0.684284
C213	C	0.633342	0.113073	0.246200
C214	C	1.133342	0.613073	0.746200
C215	C	0.672301	0.074139	0.277150
C216	C	1.172301	0.574139	0.777150
O217	O	0.600255	0.146155	0.344161
O218	O	1.100255	0.646155	0.844161
O219	O	0.744375	0.002101	0.344182
O220	O	1.244375	0.502101	0.844182
H221	H	-0.034193	-0.022694	0.000084
H222	H	0.465807	0.477306	0.500084
C223	C	0.667568	-0.819839	-0.101209
C224	C	1.167568	-0.319839	0.398791
C225	C	0.668277	-0.761433	-0.112537
C226	C	1.168277	-0.261433	0.387463
H227	H	0.667323	-0.839994	-0.137598
H228	H	1.167323	-0.339994	0.362402
H229	H	0.700662	-0.834104	-0.079179
H230	H	1.200662	-0.334104	0.420821
H231	H	0.634230	-0.825030	-0.079176
H232	H	1.134230	-0.325030	0.420824
H233	H	0.701616	-0.756242	-0.134567
H234	H	1.201616	-0.256242	0.365433
H235	H	0.635179	-0.747164	-0.134576
H236	H	1.135179	-0.247164	0.365424
C237	C	0.333751	0.188450	0.050600
C238	C	0.833751	0.688450	0.550600
C239	C	0.368339	0.185669	0.000032
C240	C	0.868339	0.685669	0.500032
H241	H	0.308800	0.223450	0.050593
H242	H	0.808800	0.723450	0.550593
H243	H	0.311777	0.157222	0.050605
H244	H	0.811777	0.657222	0.550605
H245	H	0.357223	0.186572	0.084900
H246	H	0.857223	0.686572	0.584900
H247	H	0.344867	0.187543	-0.034268
H248	H	0.844867	0.687543	0.465732
H249	H	0.390315	0.216904	0.000022
H250	H	0.890315	0.716904	0.500022
H251	H	0.486571	0.172259	0.000021
H252	H	0.986571	0.672259	0.500021
C253	C	0.788829	0.022385	0.684228
C254	C	1.288829	0.522385	1.184228
C255	C	0.754066	-0.007617	0.719860
C256	C	1.254066	0.492383	1.219860
H257	H	0.815233	-0.004050	0.663205
H258	H	1.315233	0.495950	1.163205
H259	H	0.765628	0.045577	0.656946
H260	H	1.265628	0.545577	1.156946
H261	H	0.809210	0.045969	0.708370
H262	H	1.309210	0.545969	1.208370
H263	H	0.733682	-0.031198	0.695717
H264	H	1.233682	0.468802	1.195717
H265	H	0.777271	-0.030819	0.747145
H266	H	1.277271	0.469181	1.247145
C267	C	0.618863	-0.788897	0.115868
C268	C	1.118863	-0.288897	0.615868
C269	C	0.668243	-0.761435	0.112602
C270	C	1.168243	-0.261435	0.612602
H271	H	0.618609	-0.809047	0.152260
H272	H	1.118609	-0.309047	0.652260
H273	H	0.585937	-0.761188	0.113628
H274	H	1.085937	-0.261188	0.613628
H275	H	0.618561	-0.815090	0.083935
H276	H	1.118561	-0.315090	0.583935
H277	H	0.668544	-0.735239	0.144534
H278	H	1.168544	-0.235239	0.644534
H279	H	0.701178	-0.789147	0.114848
H280	H	1.201178	-0.289147	0.614848
H281	H	0.743007	0.003492	0.841044
H282	H	1.243007	0.503492	1.341044
H283	H	0.206249	0.220913	0.000031
H284	H	0.706249	0.720913	0.500031
H285	H	0.742969	0.003536	0.159057
H286	H	1.242969	0.503536	0.659057
H287	H	0.562667	0.183663	0.443898
H288	H	1.062667	0.683663	0.943898
C289	C	0.176782	-0.132635	0.000131
C290	C	0.676782	0.367365	0.500131
C291	C	0.131943	-0.087533	0.000116
C292	C	0.631943	0.412467	0.500116
H293	H	0.161443	-0.168116	0.000151
H294	H	0.661443	0.331884	0.500151
H295	H	0.199652	-0.130205	-0.034174
H296	H	0.699652	0.369795	0.465826
H297	H	0.199655	-0.130177	0.034433
H298	H	0.699655	0.369823	0.534433
H299	H	0.109072	-0.089989	-0.034188
H300	H	0.609072	0.410011	0.465812
H301	H	0.109063	-0.089965	0.034425
H302	H	0.609063	0.410035	0.534425
C303	C	-0.019730	0.184207	0.050614
C304	C	0.480270	0.684207	0.550614
C305	C	-0.053447	0.180616	0.000048
C306	C	0.446553	0.680616	0.500048
H307	H	-0.004384	0.219685	0.050604
H308	H	0.495616	0.719685	0.550604
H309	H	-0.042611	0.181779	0.084911
H310	H	0.457389	0.681779	0.584911
H311	H	0.010678	0.153598	0.050615
H312	H	0.510678	0.653598	0.550615
H313	H	-0.083858	0.211223	0.000049
H314	H	0.416142	0.711223	0.500049
H315	H	-0.030564	0.183050	-0.034258
H316	H	0.469436	0.683050	0.465742
H317	H	0.601627	0.144773	0.271411
H318	H	1.101627	0.644773	0.771411
H319	H	0.098505	0.219623	0.000043
H320	H	0.598505	0.719623	0.500043
C321	C	0.579672	-0.019171	0.000063
C322	C	1.079672	0.480829	0.500063
C323	C	0.522763	-0.030843	0.000064
C324	C	1.022763	0.469157	0.500064
H325	H	0.604637	-0.054163	0.000079
H326	H	1.104637	0.445837	0.500079
H327	H	0.586493	0.002267	-0.034245
H328	H	1.086493	0.502267	0.465755
H329	H	0.586483	0.002291	0.034362
H330	H	1.086483	0.502291	0.534362
H331	H	0.515950	-0.052301	-0.034238
H332	H	1.015950	0.447699	0.465762
H333	H	0.515939	-0.052290	0.034375
H334	H	1.015939	0.447710	0.534375
C335	C	-0.235051	0.167449	0.000062
C336	C	0.264949	0.667449	0.500062
C337	C	-0.178142	0.179121	0.000056
C338	C	0.321858	0.679121	0.500056
H339	H	-0.260016	0.202441	0.000063
H340	H	0.239984	0.702441	0.500063
H341	H	-0.241869	0.145998	-0.034236
H342	H	0.258131	0.645998	0.465764
H343	H	-0.241866	0.146000	0.034371
H344	H	0.258134	0.646000	0.534371
H345	H	-0.171326	0.200567	-0.034255
H346	H	0.328674	0.700567	0.465745
H347	H	-0.171322	0.200581	0.034358
H348	H	0.328678	0.700581	0.534358
C349	C	0.622209	-0.515654	-0.169442
C350	C	1.122209	-0.015654	0.330558
C351	C	0.671581	-0.488183	-0.166145
C352	C	1.171581	0.011817	0.333855
H353	H	0.621976	-0.535795	-0.205840
H354	H	1.121976	-0.035795	0.294160
H355	H	0.621892	-0.541850	-0.137519
H356	H	1.121892	-0.041850	0.362481
H357	H	0.589273	-0.487945	-0.167213
H358	H	1.089273	0.012055	0.332787
H359	H	0.704517	-0.515893	-0.168370
H360	H	1.204517	-0.015893	0.331630
H361	H	0.671904	-0.461985	-0.198077
H362	H	1.171904	0.038015	0.301923
C363	C	-0.103553	-0.083985	0.000090
C364	C	0.396447	0.416015	0.500090
C365	C	-0.148389	-0.038879	0.000084
C366	C	0.351611	0.461121	0.500084
H367	H	-0.118895	-0.119464	0.000102
H368	H	0.381105	0.380536	0.500102
H369	H	-0.080682	-0.081550	-0.034214
H370	H	0.419318	0.418450	0.465786
H371	H	-0.080680	-0.081535	0.034394
H372	H	0.419320	0.418465	0.534394
H373	H	-0.171260	-0.041326	-0.034222
H374	H	0.328740	0.458674	0.465778
H375	H	-0.171269	-0.041315	0.034391
H376	H	0.328731	0.458685	0.534391
H377	H	0.676275	-0.098748	-0.097214
H378	H	1.176275	0.401252	0.402786
H379	H	0.669643	-0.645223	0.097330
H380	H	1.169643	-0.145223	0.597330
C381	C	0.291210	-0.088804	-0.050463
C382	C	0.791210	0.411196	0.449537
C383	C	0.256623	-0.086033	0.000105
C384	C	0.756623	0.413967	0.500105
H385	H	0.316172	-0.123798	-0.050455
H386	H	0.816172	0.376202	0.449545
H387	H	0.267743	-0.086930	-0.084759
H388	H	0.767743	0.413070	0.415241
H389	H	0.313179	-0.057566	-0.050465
H390	H	0.813179	0.442434	0.449535
H391	H	0.234651	-0.117269	0.000105
H392	H	0.734651	0.382731	0.500105
H393	H	0.280092	-0.087912	0.034410
H394	H	0.780092	0.412088	0.534410
H395	H	0.404515	-0.017442	0.000057
H396	H	0.904515	0.482558	0.500057
C397	C	0.623909	-0.371257	-0.198588
C398	C	1.123909	0.128743	0.301412
C399	C	0.673055	-0.363541	-0.166157
C400	C	1.173055	0.136459	0.333843
H401	H	0.624130	-0.351131	-0.234997
H402	H	1.124130	0.148869	0.265003
H403	H	0.623445	-0.410887	-0.206219
H404	H	1.123445	0.089113	0.293781
H405	H	0.590820	-0.356976	-0.176544
H406	H	1.090820	0.143024	0.323456
H407	H	0.706144	-0.377826	-0.188199
H408	H	1.206144	0.122174	0.311801
H409	H	0.673523	-0.323903	-0.158527
H410	H	1.173523	0.176097	0.341473
C411	C	0.675327	-0.176333	-0.159564
C412	C	1.175327	0.323667	0.340436
C413	C	0.674855	-0.214956	-0.112507
C414	C	1.174855	0.285044	0.387493
H415	H	0.675084	-0.196479	-0.195958
H416	H	1.175084	0.303521	0.304042
H417	H	0.642397	-0.148629	-0.157325
H418	H	1.142397	0.351371	0.342675
H419	H	0.708828	-0.157705	-0.157326
H420	H	1.208828	0.342295	0.342674
H421	H	0.641352	-0.233581	-0.114743
H422	H	1.141352	0.266419	0.385257
H423	H	0.707789	-0.242671	-0.114747
H424	H	1.207789	0.257329	0.385253
C425	C	0.719137	-0.609253	-0.115809
C426	C	1.219137	-0.109253	0.384191
C427	C	0.669769	-0.636734	-0.112529
C428	C	1.169769	-0.136734	0.387471
H429	H	0.719372	-0.589098	-0.152199
H430	H	1.219372	-0.089098	0.347801
H431	H	0.719445	-0.583070	-0.083876
H432	H	1.219445	-0.083070	0.416124
H433	H	0.752075	-0.636958	-0.113588
H434	H	1.252075	-0.136958	0.386412
H435	H	0.636830	-0.609028	-0.114747
H436	H	1.136830	-0.109028	0.385253
H437	H	0.669456	-0.662919	-0.144472
H438	H	1.169456	-0.162919	0.355528
C439	C	0.517382	0.228909	0.524786
C440	C	1.017382	0.728909	1.024786
C441	C	0.551572	0.194752	0.565042
C442	C	1.051572	0.694752	1.065042
H443	H	0.490940	0.255320	0.545791
H444	H	0.990940	0.755320	1.045791
H445	H	0.540966	0.249276	0.500636
H446	H	1.040966	0.749276	1.000636
H447	H	0.497045	0.205293	0.500635
H448	H	0.997045	0.705293	1.000635
H449	H	0.571913	0.218367	0.589190
H450	H	1.071913	0.718367	1.089190
H451	H	0.527985	0.174384	0.589202
H452	H	1.027985	0.674384	1.089202
H453	H	0.671616	-0.479729	0.150964
H454	H	1.171616	0.020271	0.650964
H455	H	0.672900	-0.371979	0.150966
H456	H	1.172900	0.128021	0.650966
H457	H	0.674940	-0.206520	0.097359
H458	H	1.174940	0.293480	0.597359
C459	C	0.556376	0.189991	0.809623
C460	C	1.056376	0.689991	1.309623
C461	C	0.590565	0.155828	0.849875
C462	C	1.090565	0.655828	1.349875
H463	H	0.529937	0.216403	0.830631
H464	H	1.029937	0.716403	1.330631
H465	H	0.579961	0.210358	0.785474
H466	H	1.079961	0.710358	1.285474
H467	H	0.536034	0.166380	0.785471
H468	H	1.036034	0.666380	1.285471
H469	H	0.610910	0.179439	0.874023
H470	H	1.110910	0.679439	1.374023
H471	H	0.566977	0.135461	0.874034
H472	H	1.066977	0.635461	1.374034
H473	H	0.676241	-0.098753	0.097360
H474	H	1.176241	0.401247	0.597360
H475	H	0.601651	0.144740	0.728729
H476	H	1.101651	0.644740	1.228729
H477	H	0.742972	0.003516	0.271379
H478	H	1.242972	0.503516	0.771379
H479	H	0.781935	-0.035415	0.443879
H480	H	1.281935	0.464585	0.943879
H481	H	0.781939	-0.035424	0.556197
H482	H	1.281939	0.464576	1.056197
H483	H	0.601622	0.144775	0.159073
H484	H	1.101622	0.644775	0.659073
