data_functionalizedCrystal
_audit_creation_method	'MofGen! by Chris Wilmer'
_symmetry_space_group_name_H-M	'P1'
_symmetry_Int_Tables_number	1
_symmetry_cell_setting	triclinic
loop_
_symmetry_equiv_pos_as_xyz
  x,y,z
_cell_length_a	17.077404
_cell_length_b	18.050589
_cell_length_c	17.077396
_cell_angle_alpha	90.024642
_cell_angle_beta	90.019501
_cell_angle_gamma	90.028446
loop_
_atom_site_label
_atom_site_type_symbol
_atom_site_fract_x
_atom_site_fract_y
_atom_site_fract_z
Zn1	Zn	1.200026	-0.295655	0.443864
Zn2	Zn	1.700026	0.204345	0.943864
Zn3	Zn	1.199920	-0.419852	0.312606
Zn4	Zn	1.699920	0.080148	0.812606
Zn5	Zn	1.068757	-0.295681	0.312612
Zn6	Zn	1.568757	0.204319	0.812612
Zn7	Zn	1.068713	-0.419808	0.443830
Zn8	Zn	1.568713	0.080192	0.943830
O9	O	1.134354	-0.357749	0.378228
O10	O	1.634354	0.142251	0.878228
O11	O	1.309858	-0.312138	0.426464
O12	O	1.809858	0.187862	0.926464
O13	O	1.182496	-0.403410	0.202760
O14	O	1.682496	0.096590	0.702760
O15	O	1.086233	-0.191753	0.330039
O16	O	1.586233	0.308247	0.830039
O17	O	1.309781	-0.403385	0.330030
O18	O	1.809781	0.096615	0.830030
O19	O	1.182675	-0.191734	0.426469
O20	O	1.682675	0.308266	0.926469
O21	O	1.086131	-0.312182	0.202764
O22	O	1.586131	0.187818	0.702764
O23	O	0.958905	-0.312139	0.330006
O24	O	1.458905	0.187861	0.830006
O25	O	1.086157	-0.403310	0.553681
O26	O	1.586157	0.096690	1.053681
O27	O	0.958872	-0.403335	0.426412
O28	O	1.458872	0.096665	0.926412
O29	O	1.182632	-0.312095	0.553706
O30	O	1.682632	0.187905	1.053706
O31	O	1.182453	-0.523771	0.329997
O32	O	1.682453	-0.023771	0.829997
O33	O	1.086056	-0.523739	0.426407
O34	O	1.586056	-0.023739	0.926407
C35	C	0.930406	-0.357736	0.378206
C36	C	1.430406	0.142264	0.878206
C37	C	0.843156	-0.357748	0.378216
C38	C	1.343156	0.142252	0.878216
C39	C	0.802170	-0.405305	0.428333
C40	C	1.302170	0.094695	0.928333
C41	C	0.720189	-0.405307	0.428346
C42	C	1.220189	0.094693	0.928346
C43	C	0.679197	-0.357754	0.378236
C44	C	1.179197	0.142246	0.878236
C45	C	0.720189	-0.310192	0.328116
C46	C	1.220189	0.189808	0.828116
C47	C	0.802168	-0.310187	0.328108
C48	C	1.302168	0.189813	0.828108
C49	C	0.549319	-0.310206	0.328135
C50	C	1.049319	0.189794	0.828135
C51	C	0.467335	-0.310212	0.328142
C52	C	0.967335	0.189788	0.828142
C53	C	0.467340	-0.405326	0.428373
C54	C	0.967340	0.094674	0.928373
C55	C	0.549319	-0.405321	0.428365
C56	C	1.049319	0.094679	0.928365
C57	C	0.590306	-0.357760	0.378244
C58	C	1.090306	0.142240	0.878244
C59	C	1.134259	-0.550701	0.378215
C60	C	1.634259	-0.050701	0.878215
C61	C	1.134291	-0.633247	0.378236
C62	C	1.634291	-0.133247	0.878236
C63	C	1.081921	-0.832707	0.430645
C64	C	1.581921	-0.332707	0.930645
C65	C	1.062786	-0.882149	0.359016
C66	C	1.562786	-0.382149	0.859016
C67	C	1.134368	-0.784377	0.378246
C68	C	1.634368	-0.284377	0.878246
C69	C	1.153541	-0.882017	0.449883
C70	C	1.653541	-0.382017	0.949883
C71	C	1.134441	-0.930362	0.378262
C72	C	1.634441	-0.430362	0.878262
C73	C	1.115195	-0.832732	0.306579
C74	C	1.615195	-0.332732	0.806579
C75	C	1.205984	-0.832596	0.397495
C76	C	1.705984	-0.332596	0.897495
C77	C	1.186876	-0.882016	0.325816
C78	C	1.686876	-0.382016	0.825816
C79	C	1.134324	-0.700279	0.378238
C80	C	1.634324	-0.200279	0.878238
C81	C	1.134485	-1.014459	0.378262
C82	C	1.634485	-0.514459	0.878262
C83	C	1.339098	-0.357763	0.378250
C84	C	1.839098	0.142237	0.878250
C85	C	1.426348	-0.357769	0.378260
C86	C	1.926348	0.142231	0.878260
C87	C	1.134402	-0.357694	0.582972
C88	C	1.634402	0.142306	1.082972
C89	C	1.134422	-0.357671	0.670222
C90	C	1.634422	0.142329	1.170222
C91	C	1.134471	-0.164043	0.378258
C92	C	1.634471	0.335957	0.878258
C93	C	1.134520	-0.081498	0.378271
C94	C	1.634520	0.418502	0.878271
C95	C	1.134352	-0.357750	0.174280
C96	C	1.634352	0.142250	0.674280
C97	C	1.134484	-0.357564	0.087031
C98	C	1.634484	0.142436	0.587031
C99	C	1.184658	-0.310172	0.711226
C100	C	1.684658	0.189828	1.211226
C101	C	1.184667	-0.310147	0.793207
C102	C	1.684667	0.189853	1.293207
C103	C	1.134444	-0.357626	0.834182
C104	C	1.634444	0.142374	1.334182
C105	C	1.084202	-0.405128	0.793172
C106	C	1.584202	0.094872	1.293172
C107	C	1.084190	-0.405148	0.711193
C108	C	1.584190	0.094852	1.211193
C109	C	1.084234	-0.405083	0.964042
C110	C	1.584234	0.094917	1.464042
C111	C	1.084248	-0.405064	1.046026
C112	C	1.584248	0.094936	1.546026
C113	C	1.184712	-0.310082	1.046056
C114	C	1.684712	0.189918	1.546056
C115	C	1.184699	-0.310102	0.964077
C116	C	1.684699	0.189898	1.464077
C117	C	1.134458	-0.357605	0.923073
C118	C	1.634458	0.142395	1.423073
H119	H	0.582693	-0.444047	0.469164
H120	H	1.082693	0.055953	0.969164
H121	H	0.835538	-0.271457	0.287301
H122	H	1.335538	0.228543	0.787301
H123	H	0.433965	-0.444050	0.469186
H124	H	0.933965	0.055950	0.969186
H125	H	1.098937	-0.811172	0.245986
H126	H	1.598937	-0.311172	0.745986
O127	O	1.238873	-0.258900	0.919879
O128	O	1.738873	0.241100	1.419879
H129	H	1.225449	-0.200606	0.935611
H130	H	1.725449	0.299394	1.435611
H131	H	1.043307	-0.443783	0.826540
H132	H	1.543307	0.056217	1.326540
O133	O	1.030005	-0.456378	0.666960
O134	O	1.530005	0.043622	1.166960
H135	H	0.990083	-0.423135	0.629618
H136	H	1.490083	0.076865	1.129618
O137	O	1.286143	-0.803742	0.419086
O138	O	1.786143	-0.303742	0.919086
H139	H	1.309581	-0.769931	0.370134
H140	H	1.809581	-0.269931	0.870134
O141	O	0.846383	-0.456591	0.482384
O142	O	1.346383	0.043409	0.982384
H143	H	0.804106	-0.489654	0.517242
H144	H	1.304106	0.010346	1.017242
O145	O	1.245666	-0.910520	0.267065
O146	O	1.745666	-0.410520	0.767065
H147	H	1.304875	-0.889785	0.282574
H148	H	1.804875	-0.389785	0.782574
H149	H	0.686822	-0.444033	0.469156
H150	H	1.186822	0.055967	0.969156
H151	H	0.433961	-0.271482	0.287347
H152	H	0.933961	0.228518	0.787347
O153	O	0.593531	-0.258916	0.274070
O154	O	1.093531	0.241084	0.774070
H155	H	0.551256	-0.225858	0.239217
H156	H	1.051256	0.274142	0.739217
O157	O	0.675969	-0.258922	0.274055
O158	O	1.175969	0.241078	0.774055
H159	H	0.638635	-0.221186	0.309248
H160	H	1.138635	0.278814	0.809248
O161	O	1.023093	-0.804012	0.489256
O162	O	1.523093	-0.304012	0.989256
H163	H	0.963720	-0.823859	0.473091
H164	H	1.463720	-0.323859	0.973091
O165	O	0.982608	-0.910982	0.337444
O166	O	1.482608	-0.410982	0.837444
H167	H	0.939145	-0.891239	0.381014
H168	H	1.439145	-0.391239	0.881014
H169	H	1.169729	-0.903667	0.510460
H170	H	1.669729	-0.403667	1.010460
O171	O	1.238828	-0.258962	0.667033
O172	O	1.738828	0.241038	1.167033
H173	H	1.273756	-0.225924	0.709322
H174	H	1.773756	0.274076	1.209322
H175	H	1.225577	-0.271470	0.826589
H176	H	1.725577	0.228530	1.326589
H177	H	1.225619	-0.271402	1.079446
H178	H	1.725619	0.228598	1.579446
O179	O	1.030073	-0.456264	1.090226
O180	O	1.530073	0.043736	1.590226
H181	H	0.995125	-0.489290	1.047942
H182	H	1.495125	0.010710	1.547942
O183	O	1.030042	-0.456312	0.919811
O184	O	1.530042	0.043688	1.419811
H185	H	0.995124	-0.489328	0.962074
H186	H	1.495124	0.010672	1.462074
