data_functionalizedCrystal
_audit_creation_method	'MofGen! by Chris Wilmer'
_symmetry_space_group_name_H-M	'P1'
_symmetry_Int_Tables_number	1
_symmetry_cell_setting	triclinic
loop_
_symmetry_equiv_pos_as_xyz
  x,y,z
_cell_length_a	19.805407
_cell_length_b	12.827892
_cell_length_c	19.805399
_cell_angle_alpha	89.977281
_cell_angle_beta	89.982197
_cell_angle_gamma	90.012708
loop_
_atom_site_label
_atom_site_type_symbol
_atom_site_fract_x
_atom_site_fract_y
_atom_site_fract_z
Zn1	Zn	1.034787	-0.416132	-0.382711
Zn2	Zn	1.034724	-0.590887	-0.269532
Zn3	Zn	0.921602	-0.416153	-0.269539
Zn4	Zn	0.921587	-0.590824	-0.382682
O5	O	0.978175	-0.503499	-0.326116
O6	O	1.129496	-0.439332	-0.367706
O7	O	1.019698	-0.567744	-0.174816
O8	O	0.936649	-0.269914	-0.284566
O9	O	1.129449	-0.567724	-0.284554
O10	O	1.019806	-0.269899	-0.367713
O11	O	0.936588	-0.439367	-0.174821
O12	O	0.826884	-0.439305	-0.284538
O13	O	0.936624	-0.567615	-0.477403
O14	O	0.826873	-0.567635	-0.367664
O15	O	1.019792	-0.439270	-0.477423
O16	O	1.019684	-0.737115	-0.284527
O17	O	0.936563	-0.737068	-0.367658
C18	C	0.802319	-0.503466	-0.326099
C19	C	0.727087	-0.503477	-0.326108
C20	C	0.978133	-0.775009	-0.326103
C21	C	0.978177	-0.891162	-0.326121
C22	C	0.691768	-0.436742	-0.369471
C23	C	0.621080	-0.436747	-0.369474
C24	C	0.585712	-0.503494	-0.326117
C25	C	0.621036	-0.570233	-0.282749
C26	C	0.691723	-0.570221	-0.282743
C27	C	0.335963	-0.570280	-0.282769
C28	C	0.265271	-0.570288	-0.282780
C29	C	0.265319	-0.436806	-0.369500
C30	C	0.336006	-0.436794	-0.369495
C31	C	0.371324	-0.503528	-0.326125
C32	C	0.447973	-0.503520	-0.326122
C33	C	0.509065	-0.503509	-0.326123
C34	C	1.019307	-0.942856	-0.367301
C35	C	1.019353	-1.062906	-0.367320
C36	C	1.154718	-0.503533	-0.326133
C37	C	1.229950	-0.503547	-0.326140
C38	C	0.978213	-0.503433	-0.502659
C39	C	0.978229	-0.503405	-0.577891
C40	C	0.978236	-0.230929	-0.326143
C41	C	0.978262	-0.114776	-0.326155
C42	C	1.021536	-0.436572	-0.613247
C43	C	1.021543	-0.436542	-0.683935
C44	C	0.978246	-0.503350	-0.719266
C45	C	0.934935	-0.570186	-0.683905
C46	C	0.934925	-0.570210	-0.613218
C47	C	0.934973	-0.570089	-0.968979
C48	C	0.934988	-0.570061	-1.039671
C49	C	1.021591	-0.436420	-1.039696
C50	C	1.021581	-0.436445	-0.969009
C51	C	0.978268	-0.503276	-0.933654
C52	C	0.978260	-0.503307	-0.857005
C53	C	0.978257	-0.503326	-0.795913
C54	C	0.978176	-0.503489	-0.150260
C55	C	0.978291	-0.503223	-0.075028
H56	H	0.720560	-0.382391	-0.404780
C57	C	1.068538	-0.363887	-1.078205
C58	C	1.059268	-0.378135	-1.147672
C59	C	1.102498	-0.311330	-1.183164
H60	H	1.114038	-0.379129	-1.066709
H61	H	1.058640	-0.293653	-1.066662
H62	H	1.069171	-0.448353	-1.159210
H63	H	1.013778	-0.362886	-1.159188
H64	H	1.092600	-0.241097	-1.171622
H65	H	1.147994	-0.326578	-1.171663
H66	H	1.096210	-0.320982	-1.230301
H67	H	0.364710	-0.624620	-0.247456
C68	C	0.374527	-0.364439	-0.416543
C69	C	0.443992	-0.378733	-0.407269
C70	C	0.479497	-0.312104	-0.450604
H71	H	0.363026	-0.294165	-0.406759
H72	H	0.362999	-0.379836	-0.462019
H73	H	0.455515	-0.363328	-0.361803
H74	H	0.455512	-0.448993	-0.417058
H75	H	0.467968	-0.327501	-0.496080
H76	H	0.467990	-0.241833	-0.440816
H77	H	0.526632	-0.321799	-0.444322
H78	H	0.943049	-1.070328	-0.290894
H79	H	1.054569	-1.107362	-0.402574
H80	H	0.942995	-0.935782	-0.290881
H81	H	0.592326	-0.382407	-0.404786
C82	C	1.068571	-0.363921	-0.575013
C83	C	1.106484	-0.305365	-0.621110
C84	C	1.149812	-0.238414	-0.585915
H85	H	1.098110	-0.403792	-0.547435
H86	H	1.042700	-0.318337	-0.547453
H87	H	1.132353	-0.350944	-0.648657
H88	H	1.076962	-0.265473	-0.648688
H89	H	1.123941	-0.192830	-0.558356
H90	H	1.179347	-0.278294	-0.558339
H91	H	1.175537	-0.198669	-0.617187
C92	C	0.226850	-0.364380	-0.416511
C93	C	0.157375	-0.378648	-0.407225
C94	C	0.121919	-0.311943	-0.450513
H95	H	0.238370	-0.379702	-0.461997
H96	H	0.238400	-0.294122	-0.406677
H97	H	0.145830	-0.448890	-0.417064
H98	H	0.145836	-0.363319	-0.361748
H99	H	0.133469	-0.241685	-0.440679
H100	H	0.133444	-0.327271	-0.495996
H101	H	0.074777	-0.321608	-0.444214
H102	H	0.899680	-0.624579	-0.712677
C103	C	0.226991	-0.642795	-0.235625
C104	C	0.273050	-0.701215	-0.197628
C105	C	0.237812	-0.768006	-0.154180
H106	H	0.199421	-0.688480	-0.261393
H107	H	0.199421	-0.602781	-0.206149
H108	H	0.300609	-0.741226	-0.227101
H109	H	0.300621	-0.655559	-0.171847
H110	H	0.210241	-0.727992	-0.124704
H111	H	0.210243	-0.813683	-0.179953
H112	H	0.269057	-0.807645	-0.128390
C113	C	0.582517	-0.642662	-0.235747
C114	C	0.513052	-0.628412	-0.245046
C115	C	0.477549	-0.695130	-0.201767
H116	H	0.594002	-0.627341	-0.190258
H117	H	0.594062	-0.712917	-0.245581
H118	H	0.501511	-0.558174	-0.235207
H119	H	0.501547	-0.643742	-0.290526
H120	H	0.489094	-0.765384	-0.211600
H121	H	0.489040	-0.679802	-0.156280
H122	H	0.430414	-0.685477	-0.208074
C123	C	1.068447	-0.363839	-0.722352
C124	C	1.030139	-0.296812	-0.762912
C125	C	1.073322	-0.229805	-0.798301
H126	H	1.097949	-0.403675	-0.749988
H127	H	1.094216	-0.323999	-0.691202
H128	H	1.004381	-0.336649	-0.794058
H129	H	1.000638	-0.256953	-0.735293
H130	H	1.099092	-0.189964	-0.767152
H131	H	1.102822	-0.269650	-0.825933
H132	H	1.047337	-0.184313	-0.825821
C133	C	0.729950	-0.642797	-0.235640
C134	C	0.683849	-0.701276	-0.197684
C135	C	0.719038	-0.768152	-0.154289
H136	H	0.757520	-0.602875	-0.206131
H137	H	0.757517	-0.688433	-0.261465
H138	H	0.656294	-0.655646	-0.171861
H139	H	0.656278	-0.741219	-0.227175
H140	H	0.746605	-0.813788	-0.180114
H141	H	0.746606	-0.728222	-0.124784
H142	H	0.687764	-0.807845	-0.128535
H143	H	0.899654	-0.624622	-0.584432
H144	H	1.054484	-0.898239	-0.402547
H145	H	1.056840	-0.382046	-0.940246
H146	H	0.899728	-0.624467	-1.068435
C147	C	0.887913	-0.642746	-0.930721
C148	C	0.850009	-0.701258	-0.976795
C149	C	0.806649	-0.768204	-0.941574
H150	H	0.858370	-0.602872	-0.903152
H151	H	0.913761	-0.688357	-0.903152
H152	H	0.824163	-0.655652	-1.004353
H153	H	0.879535	-0.741152	-1.004366
H154	H	0.832497	-0.813816	-0.914005
H155	H	0.777110	-0.728323	-0.914006
H156	H	0.780930	-0.807920	-0.972830
