data_functionalizedCrystal
_audit_creation_method	'MofGen! by Chris Wilmer'
_symmetry_space_group_name_H-M	'P1'
_symmetry_Int_Tables_number	1
_symmetry_cell_setting	triclinic
loop_
_symmetry_equiv_pos_as_xyz
  x,y,z
_cell_length_a	17.699083
_cell_length_b	14.184957
_cell_length_c	17.699083
_cell_angle_alpha	103.127403
_cell_angle_beta	96.716985
_cell_angle_gamma	103.127349
loop_
_atom_site_label
_atom_site_type_symbol
_atom_site_fract_x
_atom_site_fract_y
_atom_site_fract_z
O1	O	1.021246	0.083283	-0.078537
O2	O	0.800874	0.083316	-0.090983
O3	O	0.917284	0.083290	0.025427
O4	O	0.904836	0.083310	-0.194947
O5	O	0.882877	-0.083554	-0.008974
O6	O	0.766467	-0.083528	-0.125384
O7	O	0.986839	-0.083561	-0.112939
Cu8	Cu	0.873511	-0.098778	-0.122303
Cu9	Cu	0.914202	0.098534	-0.081619
O10	O	0.870429	-0.083534	-0.229349
C11	C	0.755474	-0.000101	-0.107737
C12	C	0.671459	-0.000089	-0.106395
C13	C	0.622839	-0.000083	-0.174728
C14	C	0.543893	-0.000096	-0.173468
C15	C	0.513570	-0.000108	-0.103874
C16	C	0.562195	-0.000117	-0.035537
C17	C	0.641138	-0.000111	-0.036799
C18	C	0.243827	-0.000142	-0.030447
C19	C	0.164878	-0.000145	-0.029190
C20	C	0.146582	-0.000128	-0.167116
C21	C	0.225525	-0.000122	-0.168378
C22	C	0.274142	-0.000136	-0.100043
C23	C	0.359744	-0.000123	-0.101410
C24	C	0.427971	-0.000113	-0.102505
N25	N	0.844898	-0.237557	-0.150917
C26	C	1.026875	-0.605157	0.030994
C27	C	1.005203	-0.710185	0.009341
C28	C	0.902090	-0.710174	-0.093713
C29	C	0.923756	-0.605144	-0.072071
C30	C	0.986149	-0.552644	-0.009717
C31	C	0.883030	-0.552631	-0.112781
C32	C	0.904692	-0.447611	-0.091138
C33	C	0.967080	-0.395104	-0.028785
C34	C	1.007811	-0.447624	0.011926
C35	C	0.820634	-0.605133	-0.175132
C36	C	0.779908	-0.552620	-0.215842
C37	C	0.801574	-0.447598	-0.194203
C38	C	0.863962	-0.395091	-0.131850
C39	C	0.760843	-0.395078	-0.234914
C40	C	0.782505	-0.290057	-0.213271
C41	C	0.885624	-0.290070	-0.110207
C42	C	1.032239	-0.000141	-0.096185
C43	C	1.116256	-0.000146	-0.097524
C44	C	0.899634	-0.000132	0.036423
C45	C	0.898296	-0.000132	0.120441
N46	N	0.942821	0.237313	-0.052999
C47	C	0.888079	-0.000110	-0.240345
C48	C	0.889419	-0.000103	-0.324361
C49	C	0.966627	-0.000144	0.169060
C50	C	0.965366	-0.000135	0.248005
C51	C	0.895773	-0.000121	0.278329
C52	C	0.827437	-0.000107	0.229705
C53	C	0.828700	-0.000108	0.150762
C54	C	0.822344	-0.000098	0.548069
C55	C	0.821086	-0.000099	0.627017
C56	C	0.959010	-0.000124	0.645312
C57	C	0.960273	-0.000126	0.566370
C58	C	0.891939	-0.000106	0.517754
C59	C	0.893307	-0.000114	0.432153
C60	C	0.894403	-0.000121	0.363926
H61	H	0.106987	-0.000122	-0.222759
H62	H	1.021008	-0.000147	0.287587
H63	H	0.749341	-0.247301	-0.246422
F64	F	0.295559	-0.000157	0.042282
F65	F	0.529920	-0.000136	0.038529
H66	H	0.773058	-0.000099	0.111177
H67	H	0.140193	-0.000156	0.027485
H68	H	0.647522	-0.000073	-0.231399
F69	F	0.257794	-0.000103	-0.242448
F70	F	0.952037	-0.234193	-0.043848
F71	F	0.692883	-0.000121	0.035929
H72	H	0.770774	-0.000089	0.254401
H73	H	0.984714	-0.309589	-0.011162
F74	F	1.031739	-0.000142	0.697060
H75	H	0.504310	-0.000091	-0.229111
H76	H	1.058622	-0.404876	0.062696
H77	H	0.764410	-0.000090	0.651703
F78	F	0.749617	-0.000074	0.496339
H79	H	1.077686	-0.562410	0.081763
H80	H	1.038372	-0.752936	0.042499
F81	F	0.835687	-0.766057	-0.160071
H82	H	0.802997	-0.690648	-0.192748
F83	F	1.040697	-0.000168	0.136793
H84	H	0.729106	-0.595378	-0.266610
H85	H	0.710038	-0.437837	-0.285679
H86	H	1.016942	-0.000142	0.541684
