data_functionalizedCrystal
_audit_creation_method	'MofGen! by Chris Wilmer'
_symmetry_space_group_name_H-M	'P1'
_symmetry_Int_Tables_number	1
_symmetry_cell_setting	triclinic
loop_
_symmetry_equiv_pos_as_xyz
  x,y,z
_cell_length_a	6.817900
_cell_length_b	9.109307
_cell_length_c	12.908943
_cell_angle_alpha	100.614799
_cell_angle_beta	100.860631
_cell_angle_gamma	111.764999
loop_
_atom_site_label
_atom_site_type_symbol
_atom_site_fract_x
_atom_site_fract_y
_atom_site_fract_z
V1	V	-4.049339	-0.223199	-0.348877
O2	O	-3.981259	0.012817	-0.321266
O3	O	-4.053755	-0.444578	-0.366659
O4	O	-3.986580	-0.218849	-0.491833
O5	O	-4.048899	-0.214475	-0.195225
V6	V	-4.527983	-0.195078	-0.328049
O7	O	-4.321298	-0.284887	-0.394564
O8	O	-4.706221	-0.133390	-0.282361
O9	O	-4.300360	0.026301	-0.310267
O10	O	-4.713460	-0.431094	-0.355660
O11	O	-4.645820	-0.203802	-0.481700
O12	O	-4.367535	-0.199428	-0.185093
C13	C	-3.912069	-0.498574	-0.366359
C14	C	-3.996871	-0.679548	-0.381851
C15	C	-3.826379	-0.210632	-0.526029
C16	C	-3.856700	-0.208539	-0.643029
C17	C	-4.280781	-0.220762	-0.875081
C18	C	-4.309280	-0.218797	-0.985013
C19	C	-3.942194	-0.202632	-0.972825
C20	C	-3.913695	-0.204597	-0.862893
C21	C	-4.082998	-0.213665	-0.814026
C22	C	-4.054502	-0.215642	-0.704094
C23	C	-3.687412	-0.199465	-0.691905
C24	C	-3.715911	-0.197500	-0.801837
C25	C	-4.105391	0.080288	-0.310564
C26	C	-3.999827	0.261261	-0.295079
C27	C	-4.191080	-0.207651	-0.150891
C28	C	-4.139996	-0.209735	-0.033890
H29	H	-3.937527	-0.650962	-0.208917
H30	H	-4.059192	-0.767335	-0.468020
H31	H	-4.192363	-0.223032	-0.664309
H32	H	-4.418644	-0.228163	-0.835296
H33	H	-4.470332	-0.224577	-1.034722
H34	H	-3.804359	-0.195239	-1.012630
H35	H	-3.578074	-0.190112	-0.841639
H36	H	-3.526362	-0.193693	-0.642182
