data_functionalizedCrystal
_audit_creation_method	'MofGen! by Chris Wilmer'
_symmetry_space_group_name_H-M	'P1'
_symmetry_Int_Tables_number	1
_symmetry_cell_setting	triclinic
loop_
_symmetry_equiv_pos_as_xyz
  x,y,z
_cell_length_a	14.519709
_cell_length_b	10.065875
_cell_length_c	11.026607
_cell_angle_alpha	100.731764
_cell_angle_beta	96.133081
_cell_angle_gamma	81.242070
loop_
_atom_site_label
_atom_site_type_symbol
_atom_site_fract_x
_atom_site_fract_y
_atom_site_fract_z
O1	O	1.260605	-0.113307	0.141346
O2	O	0.995219	-0.113348	0.160080
O3	O	1.105917	-0.113326	-0.025988
O4	O	1.149907	-0.113329	0.327413
O5	O	1.084832	0.113659	0.009635
O6	O	0.974135	0.113637	0.195703
O7	O	1.239520	0.113678	0.176969
Zn8	Zn	1.103480	0.149696	0.191992
Zn9	Zn	1.131260	-0.149366	0.145057
O10	O	1.128823	0.113656	0.363037
C11	C	0.950174	0.000139	0.177017
C12	C	0.847363	0.000123	0.174397
N13	N	1.084527	0.353798	0.224023
C14	C	1.087259	0.000164	-0.053405
C15	C	1.063067	0.000155	-0.188173
C16	C	0.470874	0.000186	0.164772
C17	C	0.575624	0.000168	0.167445
C18	C	0.659115	0.000153	0.169584
C19	C	0.763872	0.000138	0.172258
C20	C	1.284566	0.000188	0.160032
C21	C	1.387378	0.000195	0.162650
N22	N	1.150218	-0.353468	0.113016
C23	C	1.124658	0.421585	0.156194
C24	C	1.110081	0.578749	0.180855
C25	C	1.129866	0.000163	-0.261832
C26	C	1.104865	0.000155	-0.401122
C27	C	1.147480	0.000163	0.390453
C28	C	1.171673	0.000163	0.525220
H29	H	1.169805	0.363269	0.079860
H30	H	1.064923	0.637061	0.257185
H31	H	0.987370	0.000135	-0.228232
H32	H	1.205564	0.000184	-0.221773
H33	H	1.195367	0.588220	0.036678
H34	H	1.039372	0.412115	0.300348
H35	H	1.247386	0.000072	-0.434746
H36	H	1.029162	0.000134	-0.441175
