data_functionalizedCrystal
_audit_creation_method	'MofGen! by Chris Wilmer'
_symmetry_space_group_name_H-M	'P1'
_symmetry_Int_Tables_number	1
_symmetry_cell_setting	triclinic
loop_
_symmetry_equiv_pos_as_xyz
  x,y,z
_cell_length_a	15.995350
_cell_length_b	15.072220
_cell_length_c	15.995292
_cell_angle_alpha	90.004866
_cell_angle_beta	83.480495
_cell_angle_gamma	90.001244
loop_
_atom_site_label
_atom_site_type_symbol
_atom_site_fract_x
_atom_site_fract_y
_atom_site_fract_z
O1	O	1.110963	0.073701	0.107934
O2	O	0.867185	0.073718	0.121261
O3	O	0.995763	0.073711	-0.007293
O4	O	0.982385	0.073709	0.236488
O5	O	0.995752	-0.073855	-0.007305
O6	O	0.867174	-0.073847	0.121249
O7	O	1.110952	-0.073864	0.107922
Zn8	Zn	0.989061	-0.097285	0.114584
Zn9	Zn	0.989076	0.097139	0.114599
O10	O	0.982374	-0.073856	0.236476
C11	C	0.835985	-0.000062	0.120704
C12	C	0.743035	-0.000055	0.119053
N13	N	0.989057	-0.229973	0.114572
C14	C	0.989067	-0.410971	0.114583
C15	C	1.057883	-0.448616	0.045820
C16	C	1.058132	-0.551442	0.046003
C17	C	0.989077	-0.589175	0.114593
C18	C	1.007778	-0.551832	0.202068
C19	C	1.008267	-0.448974	0.201659
C20	C	0.901343	-0.448883	0.096660
C21	C	0.901937	-0.551748	0.094680
C22	C	0.989080	-0.689888	0.114604
C23	C	0.989065	-0.310257	0.114578
C24	C	0.405288	-0.000073	0.113120
C25	C	0.452742	-0.000402	0.021566
C26	C	0.549431	-0.000063	0.023218
C27	C	0.572848	-0.000065	0.116063
C28	C	0.531758	0.084198	0.161227
C29	C	0.435123	0.084263	0.158927
C30	C	0.434771	-0.083546	0.160805
C31	C	0.531716	-0.084654	0.160784
C32	C	0.667546	-0.000057	0.117731
C33	C	0.310591	-0.000075	0.111455
C34	C	1.142152	-0.000082	0.108479
C35	C	1.235102	-0.000083	0.110130
C36	C	0.995213	-0.000070	-0.038495
C37	C	0.993581	-0.000063	-0.131448
N38	N	0.989086	0.229828	0.114604
C39	C	0.987580	-0.000071	-0.469186
C40	C	1.080384	-0.000407	-0.445874
C41	C	1.082148	-0.000071	-0.349199
C42	C	0.990557	-0.000067	-0.301631
C43	C	0.944166	0.084200	-0.330725
C44	C	0.943049	0.084268	-0.427515
C45	C	0.941141	-0.083541	-0.427386
C46	C	0.944580	-0.084652	-0.330894
C47	C	0.992235	-0.000062	-0.206934
C48	C	0.985899	-0.000069	-0.563882
C49	C	0.982924	-0.000074	0.267678
C50	C	0.984556	-0.000075	0.360631
H51	H	1.047052	-0.576691	-0.019010
H52	H	0.414237	-0.147416	0.130869
O53	O	0.854888	0.088370	-0.288517
H54	H	0.855524	0.091330	-0.219256
O55	O	1.130275	-0.080080	-0.323990
H56	H	1.185151	-0.057859	-0.292746
H57	H	1.072232	-0.424982	0.217402
O58	O	0.550451	0.088348	0.251580
H59	H	0.490481	0.087417	0.293949
O60	O	0.989313	-0.167233	-0.306297
H61	H	1.011404	-0.205851	-0.363666
H62	H	0.848357	-0.577430	0.141496
H63	H	0.976391	0.146908	-0.310659
O64	O	0.567898	-0.167235	0.117120
H65	H	0.614982	-0.148123	0.063790
O66	O	0.944386	-0.415973	0.271503
H67	H	0.913287	-0.473483	0.305425
H68	H	0.850137	-0.424537	0.146802
H69	H	0.547067	-0.089745	0.228489
H70	H	0.402995	-0.084117	0.228308
O71	O	0.877418	-0.414547	0.013939
H72	H	0.873653	-0.341037	0.016146
O73	O	0.569341	0.167274	0.119688
H74	H	0.617274	0.148762	0.066884
H75	H	1.116150	-0.060839	-0.473876
O76	O	0.392376	0.089328	0.247959
H77	H	0.352962	0.150046	0.255315
O78	O	0.985964	0.167579	-0.462892
H79	H	0.951850	0.226561	-0.434982
H80	H	1.115961	0.059681	-0.474887
O81	O	1.130556	0.080083	-0.324799
H82	H	1.152790	0.118761	-0.382083
H83	H	0.877728	-0.089738	-0.297925
H84	H	0.875004	0.088088	-0.442065
H85	H	0.416826	0.147253	0.126002
H86	H	0.433160	0.059694	-0.014857
H87	H	0.970362	-0.147416	-0.455480
H88	H	0.434223	-0.060830	-0.015036
O89	O	0.943145	-0.584209	0.271513
H90	H	0.896899	-0.627366	0.244351
O91	O	0.850658	-0.084307	-0.445925
H92	H	0.838779	-0.025561	-0.484716
H93	H	1.071011	-0.577591	0.218190
H94	H	0.887738	-0.576155	0.030329
O95	O	0.587102	-0.080078	-0.023796
H96	H	0.536264	-0.119361	-0.047925
H97	H	1.046999	-0.423870	-0.019409
O98	O	1.144373	-0.584040	0.061226
H99	H	1.144855	-0.657680	0.061401
O100	O	1.143621	-0.414239	0.060709
H101	H	1.137439	-0.370479	0.116887
O102	O	0.586360	0.080090	-0.024103
H103	H	0.535145	0.118766	-0.048250
