data_functionalizedCrystal
_audit_creation_method	'MofGen! by Chris Wilmer'
_symmetry_space_group_name_H-M	'P1'
_symmetry_Int_Tables_number	1
_symmetry_cell_setting	triclinic
loop_
_symmetry_equiv_pos_as_xyz
  x,y,z
_cell_length_a	27.732048
_cell_length_b	27.732048
_cell_length_c	26.809956
_cell_angle_alpha	90.003258
_cell_angle_beta	89.999364
_cell_angle_gamma	97.357345
loop_
_atom_site_label
_atom_site_type_symbol
_atom_site_fract_x
_atom_site_fract_y
_atom_site_fract_z
O1	O	0.057510	-0.640931	-0.041421
O2	O	0.390843	-0.307598	0.291913
O3	O	0.724177	0.025736	0.625246
O4	O	0.066256	-0.500138	-0.041436
O5	O	0.399589	-0.166804	0.291897
O6	O	0.732922	0.166529	0.625230
O7	O	-0.008514	-0.574907	-0.041419
O8	O	0.324820	-0.241574	0.291915
O9	O	0.658153	0.091760	0.625248
O10	O	0.132280	-0.566162	-0.041439
O11	O	0.465613	-0.232828	0.291895
O12	O	0.798946	0.100505	0.625228
O13	O	-0.008502	-0.574893	0.041541
O14	O	0.324831	-0.241560	0.374874
O15	O	0.658164	0.091774	0.708207
O16	O	0.066267	-0.500123	0.041523
O17	O	0.399600	-0.166790	0.374856
O18	O	0.732934	0.166543	0.708189
O19	O	0.057522	-0.640917	0.041539
O20	O	0.390855	-0.307584	0.374872
O21	O	0.724188	0.025750	0.708205
Zn22	Zn	0.061896	-0.570518	0.054702
Zn23	Zn	0.395229	-0.237185	0.388036
Zn24	Zn	0.728563	0.096149	0.721369
Zn25	Zn	0.061881	-0.570536	-0.054600
Zn26	Zn	0.395214	-0.237203	0.278733
Zn27	Zn	0.728548	0.096130	0.612067
O28	O	0.132291	-0.566147	0.041521
O29	O	0.465624	-0.232814	0.374854
O30	O	0.798958	0.100519	0.708187
C31	C	-0.026515	-0.574716	0.000062
C32	C	0.306818	-0.241383	0.333396
C33	C	0.640152	0.091950	0.666729
C34	C	-0.080170	-0.574164	0.000066
C35	C	0.253163	-0.240830	0.333400
C36	C	0.586497	0.092503	0.666733
C37	C	0.066078	-0.482124	0.000041
C38	C	0.399411	-0.148790	0.333375
C39	C	0.732744	0.184543	0.666708
C40	C	0.065525	-0.428469	0.000036
C41	C	0.398858	-0.095135	0.333369
C42	C	0.732192	0.238198	0.666702
C43	C	0.057699	-0.658931	0.000060
C44	C	0.391033	-0.325598	0.333393
C45	C	0.724366	0.007736	0.666726
C46	C	0.058252	-0.712586	0.000062
C47	C	0.391586	-0.379252	0.333395
C48	C	0.724919	-0.045919	0.666729
C49	C	-0.418985	-0.614867	0.000045
C50	C	-0.085652	-0.281534	0.333379
C51	C	0.247682	0.051799	0.666712
C52	C	-0.620645	-0.612816	0.000038
C53	C	-0.287311	-0.279483	0.333372
C54	C	0.046022	0.053850	0.666705
O55	O	-0.651900	-0.650037	0.000021
O56	O	-0.318567	-0.316704	0.333354
O57	O	0.014766	0.016630	0.666687
N58	N	-0.639768	-0.568481	0.000034
N59	N	-0.306435	-0.235148	0.333367
N60	N	0.026898	0.098186	0.666700
C61	C	-0.608474	-0.524656	0.000028
C62	C	-0.275140	-0.191322	0.333361
C63	C	0.058193	0.142011	0.666694
O64	O	-0.629367	-0.486899	0.000019
O65	O	-0.296033	-0.153565	0.333352
O66	O	0.037300	0.179768	0.666685
C67	C	-0.406815	-0.526707	0.000031
C68	C	-0.073482	-0.193374	0.333365
C69	C	0.259852	0.139960	0.666698
C70	C	-0.387694	-0.571045	0.000041
C71	C	-0.054361	-0.237712	0.333374
C72	C	0.278972	0.095622	0.666708
C73	C	-0.399864	-0.659202	0.000054
C74	C	-0.066530	-0.325868	0.333388
C75	C	0.266803	0.007465	0.666721
C76	C	-0.349452	-0.659714	0.000059
C77	C	-0.016118	-0.326381	0.333392
C78	C	0.317215	0.006953	0.666726
C79	C	-0.318161	-0.615892	0.000054
C80	C	0.015172	-0.282559	0.333388
C81	C	0.348506	0.050775	0.666721
C82	C	-0.337282	-0.571557	0.000045
C83	C	-0.003949	-0.238224	0.333379
C84	C	0.329384	0.095109	0.666712
C85	C	-0.375521	-0.482882	0.000022
C86	C	-0.042188	-0.149549	0.333355
C87	C	0.291145	0.183785	0.666688
C88	C	-0.325104	-0.483399	0.000021
C89	C	0.008229	-0.150066	0.333355
C90	C	0.341563	0.183268	0.666688
C91	C	-0.305983	-0.527737	0.000031
C92	C	0.027350	-0.194404	0.333364
C93	C	0.360683	0.138930	0.666698
C94	C	-0.255580	-0.528247	0.000045
C95	C	0.077754	-0.194914	0.333379
C96	C	0.411087	0.138419	0.666712
N97	N	-0.236456	-0.572583	0.000050
N98	N	0.096877	-0.239249	0.333383
N99	N	0.430211	0.094084	0.666717
C100	C	-0.267747	-0.616405	0.000054
C101	C	0.065587	-0.283072	0.333388
C102	C	0.398920	0.050262	0.666721
C103	C	-0.714348	-0.523582	0.000027
C104	C	-0.381014	-0.190248	0.333360
C105	C	-0.047681	0.143085	0.666693
C106	C	-0.764762	-0.523069	0.000027
C107	C	-0.431429	-0.189735	0.333360
C108	C	-0.098096	0.143598	0.666693
C109	C	-0.776930	-0.611230	0.000036
C110	C	-0.443596	-0.277896	0.333370
C111	C	-0.110263	0.055437	0.666703
C112	C	-0.726514	-0.611742	0.000040
C113	C	-0.393181	-0.278409	0.333373
C114	C	-0.059848	0.054925	0.666707
C115	C	-0.695224	-0.567917	0.000031
C116	C	-0.361891	-0.234583	0.333365
C117	C	-0.028557	0.098750	0.666698
C118	C	-0.161878	-0.617477	0.000064
C119	C	0.171456	-0.284144	0.333398
C120	C	0.504789	0.049189	0.666731
C121	C	-0.111461	-0.617986	0.000071
C122	C	0.221873	-0.284652	0.333404
C123	C	0.555206	0.048681	0.666738
C124	C	-0.099298	-0.529825	0.000059
C125	C	0.234036	-0.196492	0.333392
C126	C	0.567369	0.136842	0.666725
C127	C	-0.149710	-0.529316	0.000055
C128	C	0.183623	-0.195983	0.333388
C129	C	0.516957	0.137350	0.666721
C130	C	-0.180999	-0.573147	0.000056
C131	C	0.152334	-0.239813	0.333389
C132	C	0.485667	0.093520	0.666723
O133	O	-0.224296	-0.491047	0.000057
O134	O	0.109038	-0.157713	0.333391
O135	O	0.442371	0.175620	0.666724
O136	O	-0.246844	-0.654156	0.000053
O137	O	0.086489	-0.320823	0.333386
O138	O	0.419823	0.012510	0.666719
C139	C	-0.469397	-0.614355	0.000041
C140	C	-0.136064	-0.281022	0.333374
C141	C	0.197270	0.052312	0.666708
C142	C	-0.488518	-0.570021	0.000032
C143	C	-0.155185	-0.236687	0.333365
C144	C	0.178148	0.096646	0.666699
C145	C	-0.457228	-0.526198	0.000027
C146	C	-0.123894	-0.192865	0.333361
C147	C	0.209439	0.140468	0.666694
C148	C	-0.538933	-0.569508	0.000032
C149	C	-0.205599	-0.236174	0.333365
C150	C	0.127734	0.097159	0.666699
C151	C	-0.570223	-0.613330	0.000036
C152	C	-0.236890	-0.279996	0.333370
C153	C	0.096443	0.053337	0.666703
C154	C	-0.551100	-0.657665	0.000041
C155	C	-0.217766	-0.324332	0.333374
C156	C	0.115567	0.009002	0.666708
C157	C	-0.500688	-0.658177	0.000045
C158	C	-0.167354	-0.324844	0.333379
C159	C	0.165979	0.008489	0.666712
C160	C	-0.476351	-0.481863	0.000023
C161	C	-0.143018	-0.148530	0.333356
C162	C	0.190315	0.184803	0.666690
C163	C	-0.526764	-0.481355	0.000019
C164	C	-0.193430	-0.148021	0.333352
C165	C	0.139903	0.185312	0.666686
C166	C	-0.558054	-0.525177	0.000023
C167	C	-0.224721	-0.191843	0.333357
C168	C	0.108612	0.141490	0.666690
C169	C	0.150292	-0.566338	0.000039
C170	C	0.483626	-0.233005	0.333372
C171	C	0.816959	0.100329	0.666705
C172	C	0.203947	-0.566891	0.000031
C173	C	0.537280	-0.233557	0.333365
C174	C	0.870614	0.099776	0.666698
N175	N	0.061906	-0.570509	0.129298
N176	N	0.395239	-0.237175	0.462632
N177	N	0.728573	0.096158	0.795965
C178	C	0.106229	-0.089654	0.000051
C179	C	0.439562	0.243680	0.333385
C180	C	0.772895	0.577013	0.666718
C181	C	0.104178	0.112006	0.000056
C182	C	0.437511	0.445339	0.333390
C183	C	0.770844	0.778673	0.666723
O184	O	0.141398	0.143262	0.000073
O185	O	0.474732	0.476595	0.333406
O186	O	0.808065	0.809928	0.666739
N187	N	0.059843	0.131130	0.000062
N188	N	0.393176	0.464463	0.333395
N189	N	0.726509	0.797796	0.666728
C190	C	0.016017	0.099835	0.000069
C191	C	0.349350	0.433168	0.333402
C192	C	0.682684	0.766502	0.666736
O193	O	-0.021740	0.120728	0.000079
O194	O	0.311593	0.454062	0.333412
O195	O	0.644927	0.787395	0.666746
C196	C	0.018068	-0.101824	0.000068
C197	C	0.351402	0.231510	0.333401
C198	C	0.684735	0.564843	0.666735
C199	C	0.062407	-0.120944	0.000057
C200	C	0.395740	0.212389	0.333391
C201	C	0.729073	0.545722	0.666724
C202	C	0.150563	-0.108775	0.000042
C203	C	0.483897	0.224558	0.333375
C204	C	0.817230	0.557892	0.666708
C205	C	0.151076	-0.159187	0.000038
C206	C	0.484409	0.174147	0.333371
C207	C	0.817742	0.507480	0.666704
C208	C	0.107253	-0.190477	0.000044
C209	C	0.440587	0.142856	0.333377
C210	C	0.773920	0.476189	0.666710
C211	C	0.062919	-0.171356	0.000054
C212	C	0.396252	0.161977	0.333387
C213	C	0.729585	0.495310	0.666720
C214	C	-0.025757	-0.133117	0.000079
C215	C	0.307577	0.200216	0.333412
C216	C	0.640910	0.533549	0.666746
C217	C	-0.025240	-0.183535	0.000080
C218	C	0.308094	0.149799	0.333413
C219	C	0.641427	0.483132	0.666747
C220	C	0.019098	-0.202655	0.000069
C221	C	0.352432	0.130678	0.333403
C222	C	0.685765	0.464011	0.666736
C223	C	0.019609	-0.253059	0.000056
C224	C	0.352942	0.080275	0.333389
C225	C	0.686276	0.413608	0.666722
N226	N	0.063944	-0.272183	0.000050
N227	N	0.397277	0.061151	0.333384
N228	N	0.730611	0.394484	0.666717
C229	C	0.107766	-0.240892	0.000044
C230	C	0.441100	0.092441	0.333378
C231	C	0.774433	0.425775	0.666711
C232	C	0.014943	0.205709	0.000069
C233	C	0.348276	0.539043	0.333402
C234	C	0.681610	0.872376	0.666735
C235	C	0.014430	0.256124	0.000068
C236	C	0.347763	0.589457	0.333401
C237	C	0.681097	0.922790	0.666735
C238	C	0.102591	0.268291	0.000056
C239	C	0.435924	0.601624	0.333390
C240	C	0.769258	0.934958	0.666723
C241	C	0.103104	0.217876	0.000053
C242	C	0.436437	0.551209	0.333387
C243	C	0.769770	0.884542	0.666720
C244	C	0.059278	0.186585	0.000063
C245	C	0.392612	0.519919	0.333397
C246	C	0.725945	0.853252	0.666730
C247	C	0.108839	-0.346761	0.000036
C248	C	0.442172	-0.013428	0.333369
C249	C	0.775505	0.319906	0.666702
C250	C	0.109347	-0.397178	0.000030
C251	C	0.442681	-0.063845	0.333363
C252	C	0.776014	0.269489	0.666696
C253	C	0.021186	-0.409341	0.000044
C254	C	0.354520	-0.076008	0.333378
C255	C	0.687853	0.257326	0.666711
C256	C	0.020678	-0.358929	0.000048
C257	C	0.354011	-0.025595	0.333381
C258	C	0.687344	0.307738	0.666714
C259	C	0.064508	-0.327639	0.000045
C260	C	0.397841	0.005694	0.333378
C261	C	0.731175	0.339027	0.666712
O262	O	-0.017592	-0.284343	0.000045
O263	O	0.315741	0.048991	0.333378
O264	O	0.649075	0.382324	0.666712
O265	O	0.145518	-0.261794	0.000045
O266	O	0.478851	0.071539	0.333379
O267	O	0.812184	0.404872	0.666712
C268	C	0.105716	-0.039242	0.000055
C269	C	0.439050	0.294092	0.333389
C270	C	0.772383	0.627425	0.666722
C271	C	0.061382	-0.020120	0.000065
C272	C	0.394715	0.313213	0.333399
C273	C	0.728049	0.646546	0.666732
C274	C	0.017560	-0.051411	0.000071
C275	C	0.350893	0.281922	0.333405
C276	C	0.684226	0.615256	0.666738
C277	C	0.060869	0.030294	0.000065
C278	C	0.394202	0.363627	0.333398
C279	C	0.727536	0.696961	0.666731
C280	C	0.104691	0.061585	0.000059
C281	C	0.438025	0.394918	0.333392
C282	C	0.771358	0.728251	0.666725
C283	C	0.149026	0.042461	0.000053
C284	C	0.482360	0.375794	0.333387
C285	C	0.815693	0.709128	0.666720
C286	C	0.149539	-0.007951	0.000049
C287	C	0.482872	0.325382	0.333383
C288	C	0.816205	0.658716	0.666716
C289	C	-0.026775	-0.032287	0.000077
C290	C	0.306558	0.301046	0.333410
C291	C	0.639891	0.634379	0.666743
C292	C	-0.027284	0.018125	0.000080
C293	C	0.306049	0.351459	0.333413
C294	C	0.639383	0.684792	0.666747
C295	C	0.016538	0.049416	0.000074
C296	C	0.349871	0.382749	0.333407
C297	C	0.683205	0.716083	0.666741
N298	N	0.061867	-0.570549	-0.129196
N299	N	0.395201	-0.237216	0.204137
N300	N	0.728534	0.096117	0.537471
C301	C	0.028781	-0.603640	0.473932
C302	C	0.362115	-0.270307	0.807266
C303	C	0.695448	0.063027	1.140599
C304	C	0.028774	-0.603652	0.682810
C305	C	0.362107	-0.270318	1.016143
C306	C	0.695441	0.063015	1.349477
O307	O	0.000613	-0.631801	0.709820
O308	O	0.333946	-0.298468	1.043154
O309	O	0.667280	0.034865	1.376487
N310	N	0.061870	-0.570539	0.708925
N311	N	0.395204	-0.237206	1.042259
N312	N	0.728537	0.096127	1.375592
C313	C	0.094969	-0.537419	0.682818
C314	C	0.428302	-0.204086	1.016151
C315	C	0.761636	0.129247	1.349485
O316	O	0.123116	-0.509252	0.709824
O317	O	0.456450	-0.175919	1.043157
O318	O	0.789783	0.157415	1.376490
C319	C	0.094974	-0.537406	0.473941
C320	C	0.428307	-0.204073	0.807275
C321	C	0.761640	0.129261	1.140608
C322	C	0.061878	-0.570524	0.447829
C323	C	0.395212	-0.237191	0.781162
C324	C	0.728545	0.096143	1.114495
C325	C	-0.004312	-0.636755	0.447819
C326	C	0.329022	-0.303422	0.781153
C327	C	0.662355	0.029912	1.114486
C328	C	-0.004308	-0.636754	0.395603
C329	C	0.329025	-0.303420	0.728936
C330	C	0.662359	0.029913	1.062270
C331	C	0.028789	-0.603637	0.369500
C332	C	0.362123	-0.270304	0.702833
C333	C	0.695456	0.063029	1.036166
C334	C	0.061882	-0.570522	0.395612
C335	C	0.395216	-0.237189	0.728946
C336	C	0.728549	0.096144	1.062279
C337	C	0.128070	-0.504284	0.447835
C338	C	0.461403	-0.170951	0.781168
C339	C	0.794736	0.162382	1.114502
C340	C	0.128067	-0.504283	0.395613
C341	C	0.461401	-0.170950	0.728946
C342	C	0.794734	0.162384	1.062279
C343	C	0.094972	-0.537401	0.369500
C344	C	0.428305	-0.204068	0.702833
C345	C	0.761638	0.129266	1.036167
C346	C	0.094983	-0.537405	0.317293
C347	C	0.428317	-0.204071	0.650626
C348	C	0.761650	0.129262	0.983959
N349	N	0.061887	-0.570517	0.291177
N350	N	0.395220	-0.237184	0.624510
N351	N	0.728553	0.096150	0.957844
C352	C	0.028790	-0.603633	0.317281
C353	C	0.362123	-0.270300	0.650614
C354	C	0.695456	0.063033	0.983947
C355	C	0.094965	-0.537429	0.792481
C356	C	0.428298	-0.204096	1.125815
C357	C	0.761632	0.129237	1.459148
C358	C	0.094964	-0.537433	0.844700
C359	C	0.428298	-0.204100	1.178034
C360	C	0.761631	0.129233	1.511367
C361	C	0.028768	-0.603665	0.844689
C362	C	0.362102	-0.270332	1.178022
C363	C	0.695435	0.063002	1.511355
C364	C	0.028772	-0.603663	0.792469
C365	C	0.362105	-0.270330	1.125802
C366	C	0.695438	0.063004	1.459135
C367	C	0.061868	-0.570542	0.766366
C368	C	0.395202	-0.237209	1.099699
C369	C	0.728535	0.096125	1.433033
C370	C	0.028801	-0.603628	0.207623
C371	C	0.362134	-0.270295	0.540956
C372	C	0.695467	0.063039	0.874289
C373	C	0.028809	-0.603625	0.155402
C374	C	0.362142	-0.270292	0.488735
C375	C	0.695476	0.063042	0.822068
C376	C	0.095003	-0.537392	0.155418
C377	C	0.428336	-0.204058	0.488751
C378	C	0.761670	0.129275	0.822085
C379	C	0.094997	-0.537396	0.207635
C380	C	0.428330	-0.204063	0.540968
C381	C	0.761663	0.129270	0.874301
C382	C	0.061892	-0.570516	0.233735
C383	C	0.395225	-0.237183	0.567069
C384	C	0.728558	0.096150	0.900402
O385	O	0.123126	-0.509266	0.290250
O386	O	0.456459	-0.175933	0.623583
O387	O	0.789792	0.157401	0.956916
O388	O	0.000640	-0.631789	0.290266
O389	O	0.333973	-0.298456	0.623599
O390	O	0.667306	0.034877	0.956933
C391	C	0.028777	-0.603642	0.526149
C392	C	0.362111	-0.270308	0.859482
C393	C	0.695444	0.063025	1.192815
C394	C	0.061870	-0.570527	0.552261
C395	C	0.395204	-0.237193	0.885595
C396	C	0.728537	0.096140	1.218928
C397	C	0.094968	-0.537410	0.526158
C398	C	0.428301	-0.204077	0.859491
C399	C	0.761634	0.129256	1.192824
C400	C	0.061870	-0.570531	0.604480
C401	C	0.395203	-0.237197	0.937814
C402	C	0.728537	0.096136	1.271147
C403	C	0.028773	-0.603647	0.630584
C404	C	0.362106	-0.270314	0.963917
C405	C	0.695440	0.063020	1.297250
C406	C	-0.004324	-0.636759	0.604468
C407	C	0.329010	-0.303426	0.937802
C408	C	0.662343	0.029907	1.271135
C409	C	-0.004320	-0.636758	0.552252
C410	C	0.329014	-0.303425	0.885585
C411	C	0.662347	0.029909	1.218919
C412	C	0.128064	-0.504298	0.552273
C413	C	0.461397	-0.170965	0.885606
C414	C	0.794731	0.162369	1.218940
C415	C	0.128058	-0.504303	0.604489
C416	C	0.461391	-0.170969	0.937823
C417	C	0.794724	0.162364	1.271156
C418	C	0.094961	-0.537419	0.630593
C419	C	0.428294	-0.204086	0.963926
C420	C	0.761627	0.129248	1.297260
H421	H	-0.095896	-0.654093	0.000080
H422	H	0.237438	-0.320759	0.333413
H423	H	0.570771	0.012574	0.666747
H424	H	-0.020747	0.180236	0.000077
H425	H	0.312586	0.513570	0.333410
H426	H	0.645920	0.846903	0.666744
Br427	Br	-0.671889	-0.464098	0.000014
Br428	Br	-0.338556	-0.130765	0.333347
Br429	Br	-0.005222	0.202568	0.666681
Br430	Br	-0.049237	-0.681706	0.516821
Br431	Br	0.284097	-0.348373	0.850154
Br432	Br	0.617430	-0.015039	1.183487
H433	H	0.121919	-0.510471	0.865958
H434	H	0.455252	-0.177137	1.199291
H435	H	0.788585	0.156196	1.532624
Br436	Br	-0.175661	-0.469143	0.000053
Br437	Br	0.157673	-0.135810	0.333387
Br438	Br	0.491006	0.197524	0.666720
Br439	Br	-0.056822	-0.470355	0.000053
Br440	Br	0.276511	-0.137022	0.333386
Br441	Br	0.609844	0.196312	0.666719
Br442	Br	0.208499	0.084937	0.000041
Br443	Br	0.541832	0.418270	0.333375
Br444	Br	0.875165	0.751604	0.666708
H445	H	-0.061861	-0.117558	0.000088
H446	H	0.271472	0.215775	0.333421
H447	H	0.604805	0.549108	0.666755
H448	H	0.187180	-0.174750	0.000029
H449	H	0.520513	0.158583	0.333362
H450	H	0.853847	0.491917	0.666696
Br451	Br	-0.204334	-0.676962	0.000065
Br452	Br	0.129000	-0.343628	0.333399
Br453	Br	0.462333	-0.010295	0.666732
H454	H	0.155019	-0.477317	0.469089
H455	H	0.488352	-0.143983	0.802422
H456	H	0.821685	0.189350	1.135756
Br457	Br	-0.433892	-0.422384	0.000014
Br458	Br	-0.100559	-0.089050	0.333348
Br459	Br	0.232774	0.244283	0.666681
Br460	Br	0.172980	-0.459356	0.639923
Br461	Br	0.506313	-0.126022	0.973256
Br462	Br	0.839647	0.207311	1.306589
H463	H	-0.299629	-0.447710	0.000014
H464	H	0.033704	-0.114377	0.333347
H465	H	0.367037	0.218957	0.666680
H466	H	0.145454	-0.412743	0.000021
H467	H	0.478787	-0.079410	0.333354
H468	H	0.812121	0.253924	0.666687
Br469	Br	-0.474746	-0.718354	0.000055
Br470	Br	-0.141413	-0.385020	0.333389
Br471	Br	0.191920	-0.051687	0.666722
H472	H	0.185643	-0.023514	0.000042
H473	H	0.518977	0.309819	0.333375
H474	H	0.852310	0.643153	0.666708
H475	H	0.121917	-0.510457	0.771232
H476	H	0.455251	-0.177124	1.104565
H477	H	0.788584	0.156209	1.437899
H478	H	-0.060929	-0.209009	0.000089
H479	H	0.272405	0.124324	0.333422
H480	H	0.605738	0.457657	0.666755
H481	H	-0.031271	-0.663726	0.625730
H482	H	0.302062	-0.330392	0.959064
H483	H	0.635396	0.002941	1.292397
Br484	Br	-0.087463	0.044068	0.000086
Br485	Br	0.245870	0.377401	0.333419
Br486	Br	0.579204	0.710734	0.666752
H487	H	-0.062462	-0.057760	0.000083
H488	H	0.270872	0.275573	0.333416
H489	H	0.604205	0.608907	0.666749
H490	H	-0.802415	-0.646911	0.000040
H491	H	-0.469082	-0.313578	0.333374
H492	H	-0.135749	0.019755	0.666707
H493	H	0.186251	-0.083302	0.000038
H494	H	0.519584	0.250031	0.333372
H495	H	0.852917	0.583364	0.666705
Br496	Br	0.139920	-0.492456	0.243072
Br497	Br	0.473253	-0.159122	0.576405
Br498	Br	0.806586	0.174211	0.909738
Br499	Br	0.172985	-0.459350	0.516854
Br500	Br	0.506319	-0.126017	0.850187
Br501	Br	0.839652	0.207317	1.183520
H502	H	0.139207	0.202311	0.000047
H503	H	0.472541	0.535645	0.333381
H504	H	0.805874	0.868978	0.666714
H505	H	0.144530	-0.321291	0.000035
H506	H	0.477863	0.012043	0.333368
H507	H	0.811196	0.345376	0.666702
Br508	Br	-0.016145	-0.648610	0.757036
Br509	Br	0.317188	-0.315277	1.090369
Br510	Br	0.650521	0.018056	1.423702
Br511	Br	0.162064	0.310766	0.000049
Br512	Br	0.495397	0.644100	0.333382
Br513	Br	0.828730	0.977433	0.666715
H514	H	0.121952	-0.510430	0.134157
H515	H	0.455285	-0.177097	0.467490
H516	H	0.788618	0.156236	0.800823
Br517	Br	-0.593575	-0.717137	0.000051
Br518	Br	-0.260242	-0.383804	0.333384
Br519	Br	0.073091	-0.050471	0.666718
Br520	Br	-0.045745	0.282067	0.000067
Br521	Br	0.287588	0.615400	0.333401
Br522	Br	0.620921	0.948733	0.666734
Br523	Br	-0.016107	-0.648575	0.119966
Br524	Br	0.317226	-0.315242	0.453299
Br525	Br	0.650560	0.018091	0.786632
Br526	Br	-0.790705	-0.462893	0.000026
Br527	Br	-0.457372	-0.129560	0.333359
Br528	Br	-0.124039	0.203773	0.666692
Br529	Br	-0.039496	-0.332978	0.000063
Br530	Br	0.293838	0.000356	0.333397
Br531	Br	0.627171	0.333689	0.666730
H532	H	0.001843	-0.630597	0.228868
H533	H	0.335176	-0.297264	0.562202
H534	H	0.668510	0.036070	0.895535
Br535	Br	-0.049227	-0.681698	0.360170
Br536	Br	0.284106	-0.348365	0.693504
Br537	Br	0.617440	-0.015032	1.026837
Br538	Br	-0.016148	-0.648608	0.880125
Br539	Br	0.317185	-0.315275	1.213459
Br540	Br	0.650518	0.018058	1.546792
H541	H	-0.391080	-0.446777	0.000011
H542	H	-0.057747	-0.113444	0.333344
H543	H	0.275586	0.219889	0.666678
Br544	Br	0.172985	-0.459328	0.360191
Br545	Br	0.506319	-0.125995	0.693525
Br546	Br	0.839652	0.207339	1.026858
H547	H	-0.425336	-0.694889	0.000056
H548	H	-0.092003	-0.361556	0.333390
H549	H	0.241330	-0.028223	0.666723
H550	H	-0.333889	-0.695819	0.000065
H551	H	-0.000555	-0.362485	0.333398
H552	H	0.332778	-0.029152	0.666731
Br553	Br	-0.552706	-0.421176	0.000010
Br554	Br	-0.219373	-0.087842	0.333343
Br555	Br	0.113960	0.245491	0.666677
H556	H	-0.014492	-0.434827	0.000047
H557	H	0.318841	-0.101494	0.333381
H558	H	0.652174	0.231840	0.666714
H559	H	-0.710950	-0.647846	0.000047
H560	H	-0.377617	-0.314513	0.333381
H561	H	-0.044283	0.018821	0.666714
H562	H	-0.031266	-0.663722	0.469068
H563	H	0.302068	-0.330389	0.802402
H564	H	0.635401	0.002944	1.135735
