data_functionalizedCrystal
_audit_creation_method	'MofGen! by Chris Wilmer'
_symmetry_space_group_name_H-M	'P1'
_symmetry_Int_Tables_number	1
_symmetry_cell_setting	triclinic
loop_
_symmetry_equiv_pos_as_xyz
  x,y,z
_cell_length_a	19.805407
_cell_length_b	18.050590
_cell_length_c	19.805399
_cell_angle_alpha	89.972574
_cell_angle_beta	89.982197
_cell_angle_gamma	90.015869
loop_
_atom_site_label
_atom_site_type_symbol
_atom_site_fract_x
_atom_site_fract_y
_atom_site_fract_z
Zn1	Zn	1.034773	-0.295730	-0.382688
Zn2	Zn	1.284773	-0.045730	-0.132688
Zn3	Zn	1.534773	0.204270	0.117312
Zn4	Zn	1.784773	0.454270	0.367312
Zn5	Zn	1.034703	-0.419922	-0.269500
Zn6	Zn	1.284703	-0.169922	-0.019500
Zn7	Zn	1.534703	0.080078	0.230500
Zn8	Zn	1.784703	0.330078	0.480500
Zn9	Zn	0.921587	-0.295744	-0.269516
Zn10	Zn	1.171587	-0.045744	-0.019516
Zn11	Zn	1.421587	0.204256	0.230484
Zn12	Zn	1.671587	0.454256	0.480484
Zn13	Zn	0.921566	-0.419877	-0.382651
Zn14	Zn	1.171566	-0.169877	-0.132651
Zn15	Zn	1.421566	0.080123	0.117349
Zn16	Zn	1.671566	0.330123	0.367349
O17	O	0.978157	-0.357818	-0.326089
O18	O	1.228157	-0.107818	-0.076089
O19	O	1.478157	0.142182	0.173911
O20	O	1.728157	0.392182	0.423911
O21	O	1.129480	-0.312217	-0.367683
O22	O	1.379480	-0.062217	-0.117683
O23	O	1.629480	0.187783	0.132317
O24	O	1.879480	0.437783	0.382317
O25	O	1.019678	-0.403475	-0.174786
O26	O	1.269678	-0.153475	0.075214
O27	O	1.519678	0.096525	0.325214
O28	O	1.769678	0.346525	0.575214
O29	O	0.936639	-0.191818	-0.284551
O30	O	1.186639	0.058182	-0.034551
O31	O	1.436639	0.308182	0.215449
O32	O	1.686639	0.558182	0.465449
O33	O	1.129429	-0.403460	-0.284524
O34	O	1.379429	-0.153460	-0.034524
O35	O	1.629429	0.096540	0.215476
O36	O	1.879429	0.346540	0.465476
O37	O	1.019796	-0.191807	-0.367698
O38	O	1.269796	0.058193	-0.117698
O39	O	1.519796	0.308193	0.132302
O40	O	1.769796	0.558193	0.382302
O41	O	0.936572	-0.312242	-0.174798
O42	O	1.186572	-0.062242	0.075202
O43	O	1.436572	0.187758	0.325202
O44	O	1.686572	0.437758	0.575202
O45	O	0.826868	-0.312198	-0.284515
O46	O	1.076868	-0.062198	-0.034515
O47	O	1.326868	0.187802	0.215485
O48	O	1.576868	0.437802	0.465485
O49	O	0.936604	-0.403383	-0.477372
O50	O	1.186604	-0.153383	-0.227372
O51	O	1.436604	0.096617	0.022628
O52	O	1.686604	0.346617	0.272628
O53	O	0.826853	-0.403397	-0.367634
O54	O	1.076853	-0.153397	-0.117634
O55	O	1.326853	0.096603	0.132366
O56	O	1.576853	0.346603	0.382366
O57	O	1.019776	-0.312173	-0.477400
O58	O	1.269776	-0.062173	-0.227400
O59	O	1.519776	0.187827	0.022600
O60	O	1.769776	0.437827	0.272600
O61	O	1.019657	-0.523841	-0.284488
O62	O	1.269657	-0.273841	-0.034488
O63	O	1.519657	-0.023841	0.215512
O64	O	1.769657	0.226159	0.465512
O65	O	0.936536	-0.523807	-0.367619
O66	O	1.186536	-0.273807	-0.117619
O67	O	1.436536	-0.023807	0.132381
O68	O	1.686536	0.226193	0.382381
C69	C	0.802301	-0.357795	-0.326073
C70	C	1.052301	-0.107795	-0.076073
C71	C	1.302301	0.142205	0.173927
C72	C	1.552301	0.392205	0.423927
C73	C	0.727069	-0.357803	-0.326082
C74	C	0.977069	-0.107803	-0.076082
C75	C	1.227069	0.142197	0.173918
C76	C	1.477069	0.392197	0.423918
C77	C	0.691752	-0.310377	-0.369448
C78	C	0.941752	-0.060377	-0.119448
C79	C	1.191752	0.189623	0.130552
C80	C	1.441752	0.439623	0.380552
C81	C	0.621064	-0.310380	-0.369451
C82	C	0.871064	-0.060380	-0.119451
C83	C	1.121064	0.189620	0.130549
C84	C	1.371064	0.439620	0.380549
C85	C	0.585694	-0.357815	-0.326090
C86	C	0.835694	-0.107815	-0.076090
C87	C	1.085694	0.142185	0.173910
C88	C	1.335694	0.392185	0.423910
C89	C	0.621016	-0.405244	-0.282718
C90	C	0.871016	-0.155244	-0.032718
C91	C	1.121016	0.094756	0.217282
C92	C	1.371016	0.344756	0.467282
C93	C	0.691703	-0.405235	-0.282713
C94	C	0.941703	-0.155235	-0.032713
C95	C	1.191703	0.094765	0.217287
C96	C	1.441703	0.344765	0.467287
C97	C	0.335942	-0.405277	-0.282739
C98	C	0.585942	-0.155277	-0.032739
C99	C	0.835942	0.094723	0.217261
C100	C	1.085942	0.344723	0.467261
C101	C	0.265250	-0.405283	-0.282749
C102	C	0.515250	-0.155283	-0.032749
C103	C	0.765250	0.094717	0.217251
C104	C	1.015250	0.344717	0.467251
C105	C	0.265304	-0.310422	-0.369477
C106	C	0.515304	-0.060422	-0.119477
C107	C	0.765304	0.189578	0.130523
C108	C	1.015304	0.439578	0.380523
C109	C	0.335991	-0.310414	-0.369472
C110	C	0.585991	-0.060414	-0.119472
C111	C	0.835991	0.189586	0.130528
C112	C	1.085991	0.439586	0.380528
C113	C	0.371306	-0.357839	-0.326098
C114	C	0.621306	-0.107839	-0.076098
C115	C	0.871306	0.142161	0.173902
C116	C	1.121306	0.392161	0.423902
C117	C	0.447955	-0.357833	-0.326095
C118	C	0.697955	-0.107833	-0.076095
C119	C	0.947955	0.142167	0.173905
C120	C	1.197955	0.392167	0.423905
C121	C	0.509047	-0.357825	-0.326096
C122	C	0.759047	-0.107825	-0.076096
C123	C	1.009047	0.142175	0.173904
C124	C	1.259047	0.392175	0.423904
C125	C	0.978105	-0.550770	-0.326062
C126	C	1.228105	-0.300770	-0.076062
C127	C	1.478105	-0.050770	0.173938
C128	C	1.728105	0.199230	0.423938
C129	C	0.978145	-0.633316	-0.326073
C130	C	1.228145	-0.383316	-0.076073
C131	C	1.478145	-0.133316	0.173927
C132	C	1.728145	0.116684	0.423927
C133	C	1.023440	-0.832758	-0.280930
C134	C	1.273440	-0.582758	-0.030930
C135	C	1.523440	-0.332758	0.219070
C136	C	1.773440	-0.082758	0.469070
C137	C	1.039973	-0.882093	-0.342704
C138	C	1.289973	-0.632093	-0.092704
C139	C	1.539973	-0.382093	0.157296
C140	C	1.789973	-0.132093	0.407296
C141	C	0.978183	-0.784446	-0.326100
C142	C	1.228183	-0.534446	-0.076100
C143	C	1.478183	-0.284446	0.173900
C144	C	1.728183	-0.034446	0.423900
C145	C	0.961720	-0.882194	-0.264353
C146	C	1.211720	-0.632194	-0.014353
C147	C	1.461720	-0.382194	0.235647
C148	C	1.711720	-0.132194	0.485647
C149	C	0.978222	-0.930432	-0.326121
C150	C	1.228222	-0.680432	-0.076121
C151	C	1.478222	-0.430432	0.173879
C152	C	1.728222	-0.180432	0.423879
C153	C	0.994748	-0.832694	-0.387907
C154	C	1.244748	-0.582694	-0.137907
C155	C	1.494748	-0.332694	0.112093
C156	C	1.744748	-0.082694	0.362093
C157	C	0.916466	-0.832791	-0.309515
C158	C	1.166466	-0.582791	-0.059515
C159	C	1.416466	-0.332791	0.190485
C160	C	1.666466	-0.082791	0.440485
C161	C	0.932975	-0.882103	-0.371332
C162	C	1.182975	-0.632103	-0.121332
C163	C	1.432975	-0.382103	0.128668
C164	C	1.682975	-0.132103	0.378668
C165	C	0.978163	-0.700348	-0.326087
C166	C	1.228163	-0.450348	-0.076087
C167	C	1.478163	-0.200348	0.173913
C168	C	1.728163	0.049652	0.423913
C169	C	0.978242	-1.014528	-0.326141
C170	C	1.228242	-0.764528	-0.076141
C171	C	1.478242	-0.514528	0.173859
C172	C	1.728242	-0.264528	0.423859
C173	C	1.154700	-0.357842	-0.326106
C174	C	1.404700	-0.107842	-0.076106
C175	C	1.654700	0.142158	0.173894
C176	C	1.904700	0.392158	0.423894
C177	C	1.229932	-0.357852	-0.326113
C178	C	1.479932	-0.107852	-0.076113
C179	C	1.729932	0.142148	0.173887
C180	C	1.979932	0.392148	0.423887
C181	C	0.978195	-0.357771	-0.502632
C182	C	1.228195	-0.107771	-0.252632
C183	C	1.478195	0.142229	-0.002632
C184	C	1.728195	0.392229	0.247368
C185	C	0.978211	-0.357752	-0.577864
C186	C	1.228211	-0.107752	-0.327864
C187	C	1.478211	0.142248	-0.077864
C188	C	1.728211	0.392248	0.172136
C189	C	0.978228	-0.164113	-0.326131
C190	C	1.228228	0.085887	-0.076131
C191	C	1.478228	0.335887	0.173869
C192	C	1.728228	0.585887	0.423869
C193	C	0.978258	-0.081567	-0.326149
C194	C	1.228258	0.168433	-0.076149
C195	C	1.478258	0.418433	0.173851
C196	C	1.728258	0.668433	0.423851
C197	C	1.021520	-0.310256	-0.613223
C198	C	1.271520	-0.060256	-0.363223
C199	C	1.521520	0.189744	-0.113223
C200	C	1.771520	0.439744	0.136777
C201	C	1.021527	-0.310235	-0.683912
C202	C	1.271527	-0.060235	-0.433912
C203	C	1.521527	0.189765	-0.183912
C204	C	1.771527	0.439765	0.066088
C205	C	0.978228	-0.357713	-0.719239
C206	C	1.228228	-0.107713	-0.469239
C207	C	1.478228	0.142287	-0.219239
C208	C	1.728228	0.392287	0.030761
C209	C	0.934915	-0.405210	-0.683875
C210	C	1.184915	-0.155210	-0.433875
C211	C	1.434915	0.094790	-0.183875
C212	C	1.684915	0.344790	0.066125
C213	C	0.934905	-0.405228	-0.613188
C214	C	1.184905	-0.155228	-0.363188
C215	C	1.434905	0.094772	-0.113188
C216	C	1.684905	0.344772	0.136812
C217	C	0.934953	-0.405141	-0.968948
C218	C	1.184953	-0.155141	-0.718948
C219	C	1.434953	0.094859	-0.468948
C220	C	1.684953	0.344859	-0.218948
C221	C	0.934968	-0.405122	-1.039640
C222	C	1.184968	-0.155122	-0.789640
C223	C	1.434968	0.094878	-0.539640
C224	C	1.684968	0.344878	-0.289640
C225	C	1.021575	-0.310148	-1.039673
C226	C	1.271575	-0.060148	-0.789673
C227	C	1.521575	0.189852	-0.539673
C228	C	1.771575	0.439852	-0.289673
C229	C	1.021565	-0.310165	-0.968985
C230	C	1.271565	-0.060165	-0.718985
C231	C	1.521565	0.189835	-0.468985
C232	C	1.771565	0.439835	-0.218985
C233	C	0.978250	-0.357660	-0.933627
C234	C	1.228250	-0.107660	-0.683627
C235	C	1.478250	0.142340	-0.433627
C236	C	1.728250	0.392340	-0.183627
C237	C	0.978242	-0.357682	-0.856979
C238	C	1.228242	-0.107682	-0.606979
C239	C	1.478242	0.142318	-0.356979
C240	C	1.728242	0.392318	-0.106979
C241	C	0.978239	-0.357695	-0.795887
C242	C	1.228239	-0.107695	-0.545887
C243	C	1.478239	0.142305	-0.295887
C244	C	1.728239	0.392305	-0.045887
C245	C	0.978158	-0.357811	-0.150233
C246	C	1.228158	-0.107811	0.099767
C247	C	1.478158	0.142189	0.349767
C248	C	1.728158	0.392189	0.599767
C249	C	0.978273	-0.357622	-0.075001
C250	C	1.228273	-0.107622	0.174999
C251	C	1.478273	0.142378	0.424999
C252	C	1.728273	0.392378	0.674999
H253	H	0.592211	-0.443862	-0.247410
H254	H	0.842211	-0.193862	0.002590
H255	H	1.092211	0.056138	0.252590
H256	H	1.342211	0.306138	0.502590
H257	H	1.061725	-0.811091	-0.242770
H258	H	1.311725	-0.561091	0.007230
H259	H	1.561725	-0.311091	0.257230
H260	H	1.811725	-0.061091	0.507230
H261	H	0.899692	-0.443825	-0.940168
H262	H	1.149692	-0.193825	-0.690168
H263	H	1.399692	0.056175	-0.440168
H264	H	1.649692	0.306175	-0.190168
H265	H	0.364688	-0.443894	-0.247422
H266	H	0.614688	-0.193894	0.002578
H267	H	0.864688	0.056106	0.252578
H268	H	1.114688	0.306106	0.502578
Br269	Br	0.938484	-0.918436	-0.177307
Br270	Br	1.188484	-0.668436	0.072693
Br271	Br	1.438484	-0.418436	0.322693
Br272	Br	1.688484	-0.168436	0.572693
Br273	Br	1.126995	-0.918171	-0.366122
Br274	Br	1.376995	-0.668171	-0.116122
Br275	Br	1.626995	-0.418171	0.133878
Br276	Br	1.876995	-0.168171	0.383878
Br277	Br	1.080361	-0.245689	-1.087663
Br278	Br	1.330361	0.004311	-0.837663
Br279	Br	1.580361	0.254311	-0.587663
Br280	Br	1.830361	0.504311	-0.337663
Br281	Br	0.217372	-0.246057	-0.428342
Br282	Br	0.467372	0.003943	-0.178342
Br283	Br	0.717372	0.253943	0.071658
Br284	Br	0.967372	0.503943	0.321658
Br285	Br	0.739634	-0.469601	-0.223855
Br286	Br	0.989634	-0.219601	0.026145
Br287	Br	1.239634	0.030399	0.276145
Br288	Br	1.489634	0.280399	0.526145
Br289	Br	1.018094	-0.796614	-0.474979
Br290	Br	1.268094	-0.546614	-0.224979
Br291	Br	1.518094	-0.296614	0.025021
Br292	Br	1.768094	-0.046614	0.275021
Br293	Br	0.217248	-0.469663	-0.223898
Br294	Br	0.467248	-0.219663	0.026102
Br295	Br	0.717248	0.030337	0.276102
Br296	Br	0.967248	0.280337	0.526102
Br297	Br	0.869211	-0.917992	-0.435084
Br298	Br	1.119211	-0.667992	-0.185084
Br299	Br	1.369211	-0.417992	0.064916
Br300	Br	1.619211	-0.167992	0.314916
H301	H	0.864271	-0.811116	-0.295455
H302	H	1.114271	-0.561116	-0.045455
H303	H	1.364271	-0.311116	0.204545
H304	H	1.614271	-0.061116	0.454545
H305	H	1.056781	-0.271596	-0.584465
H306	H	1.306781	-0.021596	-0.334465
H307	H	1.556781	0.228404	-0.084465
H308	H	1.806781	0.478404	0.165535
Br309	Br	1.080337	-0.245808	-0.731898
Br310	Br	1.330337	0.004192	-0.481898
Br311	Br	1.580337	0.254192	-0.231898
Br312	Br	1.830337	0.504192	0.018102
H313	H	0.720546	-0.271752	-0.404760
H314	H	0.970546	-0.021752	-0.154760
H315	H	1.220546	0.228248	0.095240
H316	H	1.470546	0.478248	0.345240
H317	H	1.056826	-0.271506	-0.940225
H318	H	1.306826	-0.021506	-0.690225
H319	H	1.556826	0.228494	-0.440225
H320	H	1.806826	0.478494	-0.190225
H321	H	0.899658	-0.443865	-0.712644
H322	H	1.149658	-0.193865	-0.462644
H323	H	1.399658	0.056135	-0.212644
H324	H	1.649658	0.306135	0.037356
Br325	Br	0.876202	-0.469562	-1.087585
Br326	Br	1.126202	-0.219562	-0.837585
Br327	Br	1.376202	0.030438	-0.587585
Br328	Br	1.626202	0.280438	-0.337585
Br329	Br	0.383990	-0.246041	-0.428325
Br330	Br	0.633990	0.003959	-0.178325
Br331	Br	0.883990	0.253959	0.071675
Br332	Br	1.133990	0.503959	0.321675
Br333	Br	0.573136	-0.246014	-0.428309
Br334	Br	0.823136	0.003986	-0.178309
Br335	Br	1.073136	0.253986	0.071691
Br336	Br	1.323136	0.503986	0.321691
Br337	Br	0.876122	-0.469684	-0.565199
Br338	Br	1.126122	-0.219684	-0.315199
Br339	Br	1.376122	0.030316	-0.065199
Br340	Br	1.626122	0.280316	0.184801
