data_functionalizedCrystal
_audit_creation_method	'MofGen! by Chris Wilmer'
_symmetry_space_group_name_H-M	'P1'
_symmetry_Int_Tables_number	1
_symmetry_cell_setting	triclinic
loop_
_symmetry_equiv_pos_as_xyz
  x,y,z
_cell_length_a	19.121102
_cell_length_b	19.121063
_cell_length_c	19.121278
_cell_angle_alpha	89.864274
_cell_angle_beta	89.881378
_cell_angle_gamma	90.126902
loop_
_atom_site_label
_atom_site_type_symbol
_atom_site_fract_x
_atom_site_fract_y
_atom_site_fract_z
Zn1	Zn	1.041308	-0.304728	-0.454471
Zn2	Zn	1.374641	0.028605	-0.121138
Zn3	Zn	1.707975	0.361938	0.212195
Zn4	Zn	1.040794	-0.426950	-0.342206
Zn5	Zn	1.374128	-0.093617	-0.008872
Zn6	Zn	1.707461	0.239716	0.324461
Zn7	Zn	0.929056	-0.305167	-0.332271
Zn8	Zn	1.262389	0.028167	0.001063
Zn9	Zn	1.595723	0.361500	0.334396
Zn10	Zn	0.919052	-0.416939	-0.454003
Zn11	Zn	1.252385	-0.083606	-0.120670
Zn12	Zn	1.585719	0.249727	0.212664
O13	O	0.982553	-0.363446	-0.395738
O14	O	1.315886	-0.030113	-0.062404
O15	O	1.649219	0.303220	0.270929
O16	O	1.139167	-0.324947	-0.443933
O17	O	1.472501	0.008386	-0.110600
O18	O	1.805834	0.341719	0.222734
O19	O	1.029944	-0.415169	-0.242959
O20	O	1.363277	-0.081835	0.090375
O21	O	1.696610	0.251498	0.423708
O22	O	0.948348	-0.207181	-0.344519
O23	O	1.281681	0.126152	-0.011186
O24	O	1.615015	0.459486	0.322148
O25	O	1.138790	-0.414743	-0.361452
O26	O	1.472123	-0.081410	-0.028119
O27	O	1.805457	0.251923	0.305215
O28	O	1.030819	-0.206859	-0.434299
O29	O	1.364152	0.126474	-0.100966
O30	O	1.697486	0.459808	0.232367
O31	O	0.947850	-0.325695	-0.235659
O32	O	1.281183	0.007638	0.097674
O33	O	1.614517	0.340972	0.431007
O34	O	0.829801	-0.315988	-0.344065
O35	O	1.163135	0.017346	-0.010731
O36	O	1.496468	0.350679	0.322602
O37	O	0.931298	-0.397681	-0.551994
O38	O	1.264631	-0.064348	-0.218661
O39	O	1.597964	0.268986	0.114672
O40	O	0.822452	-0.398106	-0.433501
O41	O	1.155785	-0.064773	-0.100168
O42	O	1.489118	0.268560	0.233166
O43	O	1.021119	-0.315240	-0.552338
O44	O	1.354452	0.018093	-0.219005
O45	O	1.687785	0.351427	0.114328
O46	O	1.020243	-0.523550	-0.360998
O47	O	1.353577	-0.190217	-0.027664
O48	O	1.686910	0.143117	0.305669
O49	O	0.930800	-0.516195	-0.443135
O50	O	1.264133	-0.182862	-0.109801
O51	O	1.597466	0.150472	0.223532
C52	C	0.800735	-0.356009	-0.387654
C53	C	1.134068	-0.022675	-0.054321
C54	C	1.467402	0.310658	0.279012
C55	C	0.722951	-0.352843	-0.384214
C56	C	1.056285	-0.019510	-0.050880
C57	C	1.389618	0.313824	0.282453
C58	C	0.682600	-0.394181	-0.429094
C59	C	1.015933	-0.060848	-0.095761
C60	C	1.349266	0.272485	0.237572
C61	C	0.609514	-0.391197	-0.425864
C62	C	0.942847	-0.057864	-0.092531
C63	C	1.276181	0.275469	0.240802
C64	C	0.576781	-0.346879	-0.377750
C65	C	0.910114	-0.013545	-0.044416
C66	C	1.243448	0.319788	0.288917
C67	C	0.617138	-0.305536	-0.332867
C68	C	0.950471	0.027798	0.000466
C69	C	1.283804	0.361131	0.333799
C70	C	0.690222	-0.308516	-0.336101
C71	C	1.023556	0.024817	-0.002768
C72	C	1.356889	0.358150	0.330566
C73	C	0.356304	-0.335733	-0.365663
C74	C	0.689637	-0.002400	-0.032329
C75	C	1.022970	0.330934	0.301004
C76	C	0.283214	-0.332757	-0.362431
C77	C	0.616547	0.000576	-0.029097
C78	C	0.949880	0.333910	0.304236
C79	C	0.275595	-0.418418	-0.455429
C80	C	0.608928	-0.085085	-0.122096
C81	C	0.942262	0.248248	0.211238
C82	C	0.348681	-0.421398	-0.458656
C83	C	0.682014	-0.088065	-0.125322
C84	C	1.015348	0.245269	0.208011
C85	C	0.389032	-0.380052	-0.413776
C86	C	0.722365	-0.046719	-0.080442
C87	C	1.055698	0.286614	0.252891
C88	C	0.502076	-0.343829	-0.374446
C89	C	0.835409	-0.010496	-0.041112
C90	C	1.168742	0.322838	0.292221
C91	C	0.463736	-0.383099	-0.417084
C92	C	0.797069	-0.049765	-0.083751
C93	C	1.130402	0.283568	0.249583
C94	C	0.974399	-0.545264	-0.403110
C95	C	1.307732	-0.211931	-0.069776
C96	C	1.641065	0.121403	0.263557
C97	C	0.970973	-0.623048	-0.406290
C98	C	1.304307	-0.289715	-0.072956
C99	C	1.637640	0.043619	0.260377
C100	C	1.015966	-0.663397	-0.365058
C101	C	1.349299	-0.330064	-0.031725
C102	C	1.682633	0.003270	0.301609
C103	C	1.012748	-0.736483	-0.368053
C104	C	1.346082	-0.403150	-0.034720
C105	C	1.679415	-0.069816	0.298614
C106	C	0.964535	-0.769219	-0.412277
C107	C	1.297868	-0.435885	-0.078943
C108	C	1.631201	-0.102552	0.254390
C109	C	0.919540	-0.728864	-0.453513
C110	C	1.252873	-0.395531	-0.120180
C111	C	1.586207	-0.062198	0.213154
C112	C	0.922761	-0.655780	-0.450521
C113	C	1.256095	-0.322446	-0.117188
C114	C	1.589428	0.010887	0.216146
C115	C	0.952480	-0.989697	-0.423451
C116	C	1.285813	-0.656364	-0.090118
C117	C	1.619146	-0.323030	0.243216
C118	C	0.949260	-1.062787	-0.426438
C119	C	1.282594	-0.729454	-0.093105
C120	C	1.615927	-0.396120	0.240229
C121	C	1.042470	-1.070401	-0.340979
C122	C	1.375803	-0.737067	-0.007645
C123	C	1.709137	-0.403734	0.325688
C124	C	1.045684	-0.997314	-0.337988
C125	C	1.379018	-0.663981	-0.004654
C126	C	1.712351	-0.330648	0.328679
C127	C	1.000692	-0.956966	-0.379227
C128	C	1.334026	-0.623633	-0.045893
C129	C	1.667359	-0.290300	0.287440
C130	C	0.961243	-0.843924	-0.415337
C131	C	1.294576	-0.510591	-0.082004
C132	C	1.627910	-0.177258	0.251329
C133	C	1.003988	-0.882262	-0.376169
C134	C	1.337321	-0.548929	-0.042836
C135	C	1.670654	-0.215595	0.290498
C136	C	1.165080	-0.370913	-0.403853
C137	C	1.498413	-0.037580	-0.070520
C138	C	1.831747	0.295753	0.262814
C139	C	1.242862	-0.374095	-0.407311
C140	C	1.576196	-0.040762	-0.073978
C141	C	1.909529	0.292571	0.259355
C142	C	0.975150	-0.355295	-0.578268
C143	C	1.308483	-0.021962	-0.244935
C144	C	1.641816	0.311372	0.088398
C145	C	0.971995	-0.351821	-0.656052
C146	C	1.305328	-0.018488	-0.322719
C147	C	1.638661	0.314845	0.010615
C148	C	0.990757	-0.180918	-0.388353
C149	C	1.324090	0.152415	-0.055020
C150	C	1.657423	0.485748	0.278313
C151	C	0.994253	-0.103136	-0.385206
C152	C	1.327586	0.230197	-0.051873
C153	C	1.660920	0.563531	0.281460
C154	C	0.952011	-0.329846	-1.095791
C155	C	1.285344	0.003488	-0.762457
C156	C	1.618678	0.336821	-0.429124
C157	C	0.954979	-0.333107	-1.022705
C158	C	1.288312	0.000226	-0.689371
C159	C	1.621645	0.333560	-0.356038
C160	C	0.999200	-0.381325	-0.989961
C161	C	1.332534	-0.047992	-0.656628
C162	C	1.665867	0.285341	-0.323295
C163	C	1.040462	-0.426280	-1.030308
C164	C	1.373795	-0.092947	-0.696974
C165	C	1.707129	0.240386	-0.363641
C166	C	1.037498	-0.423015	-1.103392
C167	C	1.370831	-0.089682	-0.770059
C168	C	1.704164	0.243651	-0.436726
C169	C	1.010292	-0.393511	-0.769483
C170	C	1.343626	-0.060178	-0.436150
C171	C	1.676959	0.273155	-0.102816
C172	C	1.013252	-0.396775	-0.696393
C173	C	1.346585	-0.063441	-0.363060
C174	C	1.679919	0.269892	-0.029726
C175	C	0.927769	-0.303600	-0.688795
C176	C	1.261102	0.029734	-0.355462
C177	C	1.594436	0.363067	-0.022128
C178	C	0.924806	-0.300342	-0.761881
C179	C	1.258139	0.032992	-0.428548
C180	C	1.591472	0.366325	-0.095215
C181	C	0.966070	-0.345294	-0.802221
C182	C	1.299403	-0.011961	-0.468888
C183	C	1.632737	0.321372	-0.135555
C184	C	1.002233	-0.384661	-0.915256
C185	C	1.335566	-0.051328	-0.581922
C186	C	1.668900	0.282005	-0.248589
C187	C	0.963041	-0.341954	-0.876926
C188	C	1.296374	-0.008621	-0.543592
C189	C	1.629707	0.324712	-0.210259
C190	C	0.989969	-0.371517	-0.213917
C191	C	1.323303	-0.038184	0.119416
C192	C	1.656636	0.295150	0.452750
C193	C	0.993268	-0.374799	-0.136132
C194	C	1.326602	-0.041465	0.197202
C195	C	1.659935	0.291868	0.530535
H196	H	0.256565	-0.296659	-0.323254
H197	H	0.589899	0.036674	0.010079
H198	H	0.923232	0.370008	0.343413
H199	H	0.709245	-0.430273	-0.468272
H200	H	1.042579	-0.096940	-0.134939
H201	H	1.375912	0.236394	0.198394
H202	H	0.880286	-0.755524	-0.489524
H203	H	1.213619	-0.422190	-0.156191
H204	H	1.546953	-0.088857	0.177143
H205	H	0.576663	-0.424860	-0.462410
H206	H	0.909996	-0.091527	-0.129077
H207	H	1.243329	0.241807	0.204256
H208	H	1.071095	-0.459620	-1.136238
H209	H	1.404428	-0.126286	-0.802904
H210	H	1.737762	0.207047	-0.469571
Cl211	Cl	1.106308	-0.956166	-0.282400
Cl212	Cl	1.439641	-0.622833	0.050933
Cl213	Cl	1.772975	-0.289500	0.384266
H214	H	1.049386	-0.769332	-0.334477
H215	H	1.382719	-0.435999	-0.001144
H216	H	1.716052	-0.102666	0.332190
Cl217	Cl	1.096061	-0.486893	-0.989145
Cl218	Cl	1.429395	-0.153559	-0.655811
Cl219	Cl	1.762728	0.179774	-0.322478
Cl220	Cl	0.224865	-0.470393	-0.511845
Cl221	Cl	0.558198	-0.137060	-0.178512
Cl222	Cl	0.891532	0.196274	0.154822
Cl223	Cl	0.389826	-0.477117	-0.519143
Cl224	Cl	0.723159	-0.143784	-0.185810
Cl225	Cl	1.056492	0.189549	0.147523
Cl226	Cl	0.407020	-0.283753	-0.309243
Cl227	Cl	0.740354	0.049580	0.024090
Cl228	Cl	1.073687	0.382914	0.357424
H229	H	1.055224	-0.636749	-0.329043
H230	H	1.388557	-0.303415	0.004290
H231	H	1.721890	0.029918	0.337624
Cl232	Cl	1.099032	-1.121128	-0.289143
Cl233	Cl	1.432365	-0.787794	0.044190
Cl234	Cl	1.765699	-0.454461	0.377523
H235	H	1.043246	-0.855606	-0.340165
H236	H	1.376579	-0.522273	-0.006832
H237	H	1.709913	-0.188940	0.326502
Cl238	Cl	0.900632	-0.885084	-0.470930
Cl239	Cl	1.233966	-0.551751	-0.137597
Cl240	Cl	1.567299	-0.218418	0.195736
H241	H	0.910007	-1.089438	-0.462463
H242	H	1.243340	-0.756105	-0.129130
H243	H	1.576673	-0.422771	0.204204
Cl244	Cl	0.866199	-0.605055	-0.502360
Cl245	Cl	1.199532	-0.271722	-0.169027
Cl246	Cl	1.532866	0.061612	0.164307
H247	H	0.475416	-0.307746	-0.335269
H248	H	0.808749	0.025587	-0.001936
H249	H	1.142083	0.358921	0.331397
Cl250	Cl	0.907452	-0.281337	-0.918090
Cl251	Cl	1.240786	0.051996	-0.584757
Cl252	Cl	1.574119	0.385330	-0.251423
H253	H	0.915844	-0.956851	-0.457028
H254	H	1.249178	-0.623518	-0.123695
H255	H	1.582511	-0.290185	0.209639
H256	H	0.915999	-0.290583	-1.122445
H257	H	1.249333	0.042751	-0.789111
H258	H	1.582666	0.376084	-0.455778
Cl259	Cl	0.575988	-0.249815	-0.272384
Cl260	Cl	0.909321	0.083518	0.060949
Cl261	Cl	1.242654	0.416851	0.394282
Cl262	Cl	1.062159	-0.450032	-0.820187
Cl263	Cl	1.395493	-0.116699	-0.486854
Cl264	Cl	1.728826	0.216634	-0.153520
H265	H	1.038237	-0.423922	-0.888588
H266	H	1.371570	-0.090589	-0.555255
H267	H	1.704904	0.242744	-0.221921
H268	H	0.888793	-0.261080	-0.788536
H269	H	1.222126	0.072253	-0.455202
H270	H	1.555459	0.405587	-0.121869
Cl271	Cl	0.740950	-0.256544	-0.279679
Cl272	Cl	1.074284	0.076789	0.053655
Cl273	Cl	1.407617	0.410123	0.386988
H274	H	0.490390	-0.419180	-0.456261
H275	H	0.823723	-0.085846	-0.122928
H276	H	1.157057	0.247487	0.210405
Cl277	Cl	0.903111	-0.276590	-0.971993
Cl278	Cl	1.236444	0.056743	-0.638660
Cl279	Cl	1.569778	0.390076	-0.305326
Cl280	Cl	0.875907	-0.247082	-0.638078
Cl281	Cl	1.209241	0.086251	-0.304745
Cl282	Cl	1.542574	0.419584	0.028589
H283	H	1.049279	-0.436028	-0.669736
H284	H	1.382613	-0.102695	-0.336403
H285	H	1.715946	0.230639	-0.003069
