data_functionalizedCrystal
_audit_creation_method	'MofGen! by Chris Wilmer'
_symmetry_space_group_name_H-M	'P1'
_symmetry_Int_Tables_number	1
_symmetry_cell_setting	triclinic
loop_
_symmetry_equiv_pos_as_xyz
  x,y,z
_cell_length_a	10.654545
_cell_length_b	10.654550
_cell_length_c	9.730223
_cell_angle_alpha	90.004253
_cell_angle_beta	89.997167
_cell_angle_gamma	95.515995
loop_
_atom_site_label
_atom_site_type_symbol
_atom_site_fract_x
_atom_site_fract_y
_atom_site_fract_z
O1	O	1.667842	-0.176372	-0.114276
O2	O	1.302363	-0.193184	-0.114282
O3	O	1.493506	-0.002038	-0.114270
O4	O	1.476700	-0.367517	-0.114287
O5	O	1.493493	-0.002033	0.114310
O6	O	1.302351	-0.193178	0.114298
O7	O	1.667830	-0.176366	0.114304
Zn8	Zn	1.485088	-0.184771	0.150593
Zn9	Zn	1.485105	-0.184778	-0.150571
O10	O	1.476687	-0.367512	0.114292
C11	C	1.255559	-0.191948	0.000008
C12	C	1.116115	-0.188258	0.000006
C13	C	1.050604	-0.186518	0.124606
C14	C	0.919585	-0.183031	0.124606
C15	C	0.919599	-0.183028	-0.124605
C16	C	1.050617	-0.186507	-0.124603
C17	C	1.492266	0.044762	0.000019
C18	C	1.488574	0.184206	0.000017
C19	C	1.714634	-0.177602	0.000012
C20	C	1.854078	-0.181292	0.000005
C21	C	1.477927	-0.414312	0.000000
C22	C	1.481619	-0.553755	-0.000007
N23	N	1.485086	-0.184766	0.356130
C24	C	1.601115	0.263693	0.000018
C25	C	1.597639	0.394714	0.000002
C26	C	1.369069	0.366747	-0.000012
C27	C	1.372547	0.235729	-0.000005
N28	N	1.485117	-0.184774	-0.356107
C29	C	1.569753	-0.100163	0.428061
C30	C	1.569766	-0.100163	0.571944
C31	C	1.400440	-0.269381	0.571952
C32	C	1.400423	-0.269374	0.428071
H33	H	1.103958	-0.187920	-0.226074
C34	C	1.727209	0.207994	-0.000048
C35	C	1.825023	0.305656	-0.000091
C36	C	1.941200	0.254399	-0.000178
H37	H	1.733498	0.157490	0.079643
H38	H	1.733385	0.157494	-0.079790
H39	H	1.818850	0.356135	0.079643
H40	H	1.818775	0.356168	-0.079775
H41	H	1.947376	0.203898	-0.079920
H42	H	1.947476	0.203895	0.079514
H43	H	2.007580	0.320653	-0.000220
C44	C	1.719790	0.481074	-0.000279
C45	C	1.724501	0.557067	-0.117904
C46	C	1.837021	0.636625	-0.118222
H47	H	1.723300	0.532896	0.079333
H48	H	1.789419	0.431662	-0.000340
H49	H	1.654892	0.606475	-0.117830
H50	H	1.721013	0.505279	-0.197535
H51	H	1.906650	0.587213	-0.118284
H52	H	1.840521	0.688439	-0.038606
H53	H	1.840238	0.688187	-0.198035
C54	C	0.848582	-0.180889	-0.259933
C55	C	0.893626	-0.073863	-0.335092
C56	C	0.828228	-0.071850	-0.459758
H57	H	0.861074	-0.254484	-0.311293
H58	H	0.761164	-0.178506	-0.242153
H59	H	0.981023	-0.076257	-0.352876
H60	H	0.881132	-0.000251	-0.283774
H61	H	0.740810	-0.069466	-0.441978
H62	H	0.840725	-0.145449	-0.511105
H63	H	0.858772	0.000772	-0.510763
C64	C	1.243228	0.422932	0.000049
C65	C	1.264266	0.554686	0.000084
C66	C	1.148369	0.606483	0.000165
H67	H	1.196747	0.395849	-0.079640
H68	H	1.196825	0.395791	0.079792
H69	H	1.310649	0.581816	-0.079650
H70	H	1.310728	0.581804	0.079768
H71	H	1.101966	0.579342	0.079907
H72	H	1.101897	0.579391	-0.079526
H73	H	1.162628	0.695882	0.000201
C74	C	1.250252	0.149567	-0.000220
C75	C	1.180454	0.173011	-0.117807
C76	C	1.067789	0.093676	-0.118048
H77	H	1.268764	0.064118	-0.000288
H78	H	1.202647	0.165316	0.079446
H79	H	1.228049	0.157252	-0.197452
H80	H	1.161909	0.258445	-0.117763
H81	H	1.020184	0.109425	-0.038382
H82	H	1.086313	0.008232	-0.118113
H83	H	1.020412	0.109580	-0.197822
C84	C	1.308327	-0.361094	0.649995
C85	C	1.184738	-0.339550	0.615056
C86	C	1.099850	-0.424002	0.686934
H87	H	1.322512	-0.445096	0.626461
H88	H	1.320381	-0.348975	0.746000
H89	H	1.172689	-0.351679	0.519072
H90	H	1.170513	-0.255564	0.638594
H91	H	1.111904	-0.411883	0.782939
H92	H	1.114047	-0.507999	0.663394
H93	H	1.015986	-0.409388	0.663248
C94	C	1.661515	-0.008064	0.350060
C95	C	1.640027	0.115520	0.385101
C96	C	1.724521	0.200413	0.313282
H97	H	1.745505	-0.022303	0.373574
H98	H	1.649398	-0.020059	0.254047
H99	H	1.652154	0.127510	0.481093
H100	H	1.556054	0.129799	0.361584
H101	H	1.712404	0.188418	0.217269
H102	H	1.808505	0.186163	0.336802
H103	H	1.709945	0.284275	0.337038
C104	C	0.848270	-0.181331	0.259784
C105	C	0.759824	-0.287169	0.267042
C106	C	0.694094	-0.285632	0.391543
H107	H	0.905892	-0.182930	0.334109
H108	H	0.806035	-0.106896	0.264977
H109	H	0.802057	-0.361585	0.261862
H110	H	0.702175	-0.285592	0.192745
H111	H	0.651859	-0.211197	0.396737
H112	H	0.751726	-0.287228	0.465859
H113	H	0.634068	-0.357434	0.396479
C114	C	1.308640	-0.361441	0.350039
C115	C	1.330096	-0.485051	0.384983
C116	C	1.245583	-0.569890	0.313114
H117	H	1.224655	-0.347193	0.373579
H118	H	1.320759	-0.349401	0.254033
H119	H	1.317967	-0.497086	0.480967
H120	H	1.414064	-0.499340	0.361439
H121	H	1.257702	-0.557850	0.217107
H122	H	1.161604	-0.555630	0.336659
H123	H	1.260137	-0.653768	0.336803
H124	H	1.638708	-0.031270	0.630506
H125	H	1.103929	-0.187944	0.226070
