data_functionalizedCrystal
_audit_creation_method	'MofGen! by Chris Wilmer'
_symmetry_space_group_name_H-M	'P1'
_symmetry_Int_Tables_number	1
_symmetry_cell_setting	triclinic
loop_
_symmetry_equiv_pos_as_xyz
  x,y,z
_cell_length_a	14.519731
_cell_length_b	10.540510
_cell_length_c	9.016244
_cell_angle_alpha	89.996420
_cell_angle_beta	89.996936
_cell_angle_gamma	84.101082
loop_
_atom_site_label
_atom_site_type_symbol
_atom_site_fract_x
_atom_site_fract_y
_atom_site_fract_z
O1	O	1.224737	0.166531	-0.123335
O2	O	0.956367	0.186099	-0.123336
O3	O	1.096689	-0.008456	-0.123335
O4	O	1.084415	0.361086	-0.123336
O5	O	1.096682	-0.008467	0.123346
O6	O	0.956359	0.186088	0.123344
O7	O	1.224730	0.166520	0.123346
Cu8	Cu	1.090544	0.176303	0.145869
Cu9	Cu	1.090553	0.176316	-0.145860
O10	O	1.084408	0.361075	0.123344
C11	C	0.921999	0.185176	0.000004
C12	C	0.819604	0.182429	0.000003
C13	C	0.736448	0.180197	-0.000003
C14	C	0.632125	0.177407	-0.000004
C15	C	0.548974	0.175193	-0.000004
C16	C	0.444644	0.172404	-0.000007
C17	C	1.095771	-0.055756	0.000002
C18	C	1.093034	-0.196678	-0.000007
C19	C	1.190516	-0.415118	0.000559
C20	C	1.193435	-0.268552	-0.000005
C21	C	1.041643	-0.240911	-0.140871
C22	C	1.039436	-0.387650	-0.140981
C23	C	1.037336	-0.387450	0.139541
C24	C	1.042098	-0.241157	0.141395
C25	C	1.259098	0.167443	0.000002
C26	C	1.361493	0.170190	-0.000007
C27	C	1.085326	0.408375	0.000004
C28	C	1.088063	0.549297	0.000003
N29	N	1.090544	0.176292	0.351055
C30	C	1.165649	0.072230	0.413980
C31	C	1.165929	0.072514	0.585871
C32	C	1.112038	0.308977	0.586524
C33	C	1.112569	0.308354	0.414579
C34	C	0.993743	0.148888	0.414443
C35	C	0.994381	0.145894	0.586399
N36	N	1.090561	0.176315	0.648954
H37	H	1.233645	-0.239619	0.100970
H38	H	1.059818	0.387967	0.372951
H39	H	1.229627	-0.457473	0.101580
N40	N	1.086429	-0.202645	-0.272372
N41	N	1.156183	-0.142812	-0.262712
H42	H	1.187819	-0.115788	-0.355582
H43	H	1.181848	0.333588	0.629577
N44	N	0.950134	-0.178710	0.152084
N45	N	0.899393	-0.202803	0.258282
H46	H	0.834438	-0.158703	0.265822
N47	N	1.077122	-0.441081	0.273505
N48	N	1.028347	-0.495665	0.362666
H49	H	1.056453	-0.533541	0.457275
N50	N	1.045288	0.408533	0.637779
N51	N	1.051262	0.521313	0.599257
H52	H	1.004120	0.591625	0.635459
N53	N	1.256007	0.094688	0.637500
N54	N	1.271861	0.098792	0.773586
H55	H	1.335475	0.114489	0.810052
H56	H	1.079492	-0.212928	0.245605
N57	N	1.239299	-0.470186	-0.125457
N58	N	1.198940	-0.535525	-0.215673
H59	H	1.233390	-0.574419	-0.304675
N60	N	0.942779	-0.414314	0.140762
N61	N	0.912396	-0.473545	0.247233
H62	H	0.845619	-0.492530	0.248088
H63	H	1.153004	-0.026688	0.372615
N64	N	0.945236	-0.415547	-0.149052
N65	N	0.918918	-0.478788	-0.255411
H66	H	0.852390	-0.498483	-0.261123
H67	H	1.183179	0.332390	0.374464
N68	N	0.948928	-0.180500	-0.147444
N69	N	0.934623	-0.061639	-0.153662
H70	H	0.869143	-0.018969	-0.158300
H71	H	1.074563	-0.428215	-0.246279
N72	N	1.255240	0.093986	0.359752
N73	N	1.264016	0.185799	0.274964
H74	H	1.327289	0.201169	0.236661
N75	N	0.973933	0.023481	0.637626
N76	N	0.903027	0.013798	0.713711
H77	H	0.888587	-0.072655	0.749904
H78	H	1.233885	-0.240551	-0.101155
H79	H	0.973216	0.054174	0.371093
N80	N	0.920945	0.234750	0.640281
N81	N	0.938376	0.322341	0.726038
H82	H	0.886513	0.385106	0.764093
H83	H	0.937847	0.224768	0.373749
H84	H	1.153072	-0.026076	0.628083
