data_functionalizedCrystal
_audit_creation_method	'MofGen! by Chris Wilmer'
_symmetry_space_group_name_H-M	'P1'
_symmetry_Int_Tables_number	1
_symmetry_cell_setting	triclinic
loop_
_symmetry_equiv_pos_as_xyz
  x,y,z
_cell_length_a	10.654543
_cell_length_b	27.732048
_cell_length_c	9.730223
_cell_angle_alpha	89.990670
_cell_angle_beta	89.998625
_cell_angle_gamma	96.437585
loop_
_atom_site_label
_atom_site_type_symbol
_atom_site_fract_x
_atom_site_fract_y
_atom_site_fract_z
O1	O	-1.664991	0.067870	-0.114159
O2	O	-1.299239	0.074341	-0.114196
O3	O	-1.493474	0.000780	-0.114150
O4	O	-1.470756	0.141432	-0.114205
O5	O	-1.493462	0.000778	0.114430
O6	O	-1.299227	0.074339	0.114384
O7	O	-1.664979	0.067868	0.114421
Zn8	Zn	-1.482101	0.071104	0.150695
Zn9	Zn	-1.482117	0.071106	-0.150469
O10	O	-1.470743	0.141430	0.114375
C11	C	-1.252455	0.073866	0.000090
C12	C	-1.113071	0.072446	0.000077
C13	C	-1.492991	-0.017231	0.000144
C14	C	-1.491555	-0.070895	0.000155
C15	C	-1.031764	0.115758	0.000062
C16	C	-0.900799	0.114421	0.000083
C17	C	-0.932460	0.026458	0.000128
C18	C	-1.063423	0.027795	0.000117
C19	C	-1.597295	-0.409052	0.000095
C20	C	-1.591967	-0.610745	0.000075
O21	O	-1.688659	-0.641400	0.000025
N22	N	-1.476794	-0.630585	0.000065
C23	C	-1.362944	-0.599998	0.000051
O24	O	-1.264860	-0.621501	0.000027
C25	C	-1.368273	-0.398307	0.000060
C26	C	-1.483454	-0.378470	0.000085
C27	C	-1.712467	-0.389215	0.000118
C28	C	-1.713798	-0.338795	0.000130
C29	C	-1.599957	-0.308212	0.000120
C30	C	-1.484785	-0.328049	0.000097
C31	C	-1.254425	-0.367721	0.000036
C32	C	-1.255768	-0.317295	0.000035
C33	C	-1.370949	-0.297458	0.000059
C34	C	-1.372275	-0.247046	0.000099
N35	N	-1.487449	-0.227207	0.000109
C36	C	-1.601289	-0.257789	0.000120
C37	C	-1.360154	-0.705890	0.000048
C38	C	-1.358822	-0.756313	0.000048
C39	C	-1.587845	-0.767056	0.000070
C40	C	-1.589176	-0.716632	0.000080
C41	C	-1.475328	-0.686050	0.000058
C42	C	-1.604076	-0.151903	0.000147
C43	C	-1.605396	-0.101478	0.000165
C44	C	-1.376373	-0.090739	0.000136
C45	C	-1.375052	-0.141159	0.000125
C46	C	-1.488913	-0.171741	0.000126
O47	O	-1.275635	-0.216363	0.000134
O48	O	-1.699359	-0.236277	0.000113
C49	C	-1.595964	-0.459473	0.000083
C50	C	-1.480793	-0.479310	0.000060
C51	C	-1.366952	-0.448727	0.000050
C52	C	-1.479460	-0.529733	0.000060
C53	C	-1.593301	-0.560316	0.000070
C54	C	-1.708474	-0.540476	0.000080
C55	C	-1.709805	-0.490055	0.000093
C56	C	-1.251779	-0.468567	0.000039
C57	C	-1.250457	-0.518988	0.000028
C58	C	-1.364298	-0.549571	0.000039
C59	C	-0.711762	0.068346	0.000126
C60	C	-0.851143	0.069773	0.000109
C61	C	-1.471226	0.159441	0.000079
C62	C	-1.472662	0.213105	0.000058
N63	N	-1.482099	0.071101	0.356231
N64	N	-1.482129	0.071105	-0.356006
C65	C	-1.568135	0.038542	0.428177
C66	C	-1.568147	0.038542	0.572060
C67	C	-1.396084	0.103665	0.572038
C68	C	-1.396066	0.103662	0.428158
H69	H	-0.834604	0.149690	0.000074
H70	H	-1.072183	0.152116	0.000040
C71	C	-1.782638	-0.791736	-0.117434
C72	C	-1.712986	-0.800677	0.000070
H73	H	-1.859893	-0.812491	-0.117434
H74	H	-1.735361	-0.797785	-0.197128
H75	H	-1.799915	-0.758866	-0.117415
H76	H	-1.695700	-0.833545	0.000046
H77	H	-1.760273	-0.794631	0.079785
C78	C	-1.739167	0.028629	0.266283
C79	C	-1.662633	0.002736	0.349078
H80	H	-1.797491	0.006518	0.217451
H81	H	-1.687924	0.048026	0.202874
H82	H	-1.784006	0.048896	0.322383
H83	H	-1.617786	-0.017528	0.292977
H84	H	-1.713882	-0.016670	0.412495
C85	C	-1.643545	-0.044865	0.616386
C86	C	-1.662725	0.002753	0.651141
H87	H	-1.701942	-0.066961	0.665202
H88	H	-1.559860	-0.050413	0.639986
H89	H	-1.655847	-0.049519	0.520399
H90	H	-1.650414	0.007407	0.747127
H91	H	-1.746431	0.008303	0.627550
H92	H	-1.807590	-0.322649	0.000144
H93	H	-1.326040	0.130176	0.630615
C94	C	-1.225992	0.168040	0.442577
C95	C	-1.301491	0.139456	0.349064
H96	H	-1.167613	0.190137	0.393744
H97	H	-1.181226	0.147762	0.498712
H98	H	-1.277938	0.185615	0.498679
H99	H	-1.249546	0.121879	0.292967
H100	H	-1.346260	0.159737	0.292905
C101	C	-1.120402	-0.405642	0.117543
C102	C	-1.126637	-0.434953	0.000033
H103	H	-1.043143	-0.384889	0.117536
H104	H	-1.124642	-0.425544	0.197233
H105	H	-1.189185	-0.386610	0.117538
H106	H	-1.057859	-0.453988	0.000044
H107	H	-1.122385	-0.415049	-0.079677
C108	C	-0.803546	-0.026076	-0.117349
C109	C	-0.877883	-0.022622	0.000153
H110	H	-0.769862	-0.056378	-0.117338
H111	H	-0.736385	-0.000476	-0.117346
H112	H	-0.853988	-0.023725	-0.197053
H113	H	-0.827439	-0.024970	0.079857
H114	H	-0.945054	-0.048229	0.000163
C115	C	-1.081576	-0.059292	0.000147
C116	C	-1.152807	-0.019817	0.000127
H117	H	-1.136760	-0.088683	0.000148
H118	H	-1.029847	-0.057985	0.079856
H119	H	-1.029827	-0.057981	-0.079567
H120	H	-1.204549	-0.021126	0.079846
H121	H	-1.204557	-0.021124	-0.079590
C122	C	-1.801023	-0.095104	-0.117323
C123	C	-1.732010	-0.079673	0.000181
H124	H	-1.879182	-0.081641	-0.117317
H125	H	-1.816514	-0.129507	-0.117318
H126	H	-1.754180	-0.084622	-0.197025
H127	H	-1.778849	-0.090158	0.079884
H128	H	-1.716522	-0.045263	0.000188
H129	H	-1.265030	-0.772459	0.000052
C130	C	-1.735491	-0.214823	-0.117355
C131	C	-1.729233	-0.185512	0.000154
H132	H	-1.812761	-0.235569	-0.117346
H133	H	-1.666727	-0.233858	-0.117361
H134	H	-1.731249	-0.194918	-0.197054
H135	H	-1.733466	-0.205417	0.079853
H136	H	-1.798016	-0.166475	0.000172
H137	H	-1.805175	-0.414111	0.000121
H138	H	-1.682967	-0.700485	0.000099
C139	C	-1.133641	-0.700346	0.000046
C140	C	-1.234999	-0.672277	0.000044
H141	H	-1.056377	-0.679596	0.000058
H142	H	-1.137889	-0.720229	-0.079663
H143	H	-1.137907	-0.720244	0.079760
H144	H	-1.230738	-0.652382	-0.079675
H145	H	-1.230748	-0.652386	0.079761
H146	H	-1.160633	-0.383863	0.000008
H147	H	-1.163056	-0.292397	0.000016
C148	C	-1.116094	-0.569442	-0.117517
C149	C	-1.123839	-0.540790	-0.000001
H150	H	-1.037930	-0.582902	-0.117537
H151	H	-1.121388	-0.549986	-0.197202
H152	H	-1.183702	-0.594874	-0.117494
H153	H	-1.056236	-0.515355	-0.000028
H154	H	-1.118532	-0.560247	0.079706
C155	C	-1.240666	-0.191640	0.117604
C156	C	-1.248442	-0.162965	0.000113
H157	H	-1.162496	-0.205096	0.117589
H158	H	-1.308261	-0.217071	0.117591
H159	H	-1.245947	-0.172197	0.197315
H160	H	-1.243171	-0.182409	-0.079599
H161	H	-1.180829	-0.137531	0.000113
C162	C	-1.844187	-0.439582	-0.117393
C163	C	-1.836415	-0.468254	0.000107
H164	H	-1.922353	-0.426124	-0.117379
H165	H	-1.838906	-0.459024	-0.197090
H166	H	-1.776582	-0.414149	-0.117381
H167	H	-1.904016	-0.493690	0.000090
H168	H	-1.841709	-0.448811	0.079824
C169	C	-1.276750	-0.008671	0.000119
C170	C	-1.251243	-0.057116	0.000116
H171	H	-1.199497	0.012087	0.000090
H172	H	-1.323997	-0.002624	0.079837
H173	H	-1.324036	-0.002618	-0.079586
H174	H	-1.203965	-0.063169	0.079826
H175	H	-1.203975	-0.063165	-0.079610
H176	H	-1.801168	-0.565385	0.000095
