data_functionalizedCrystal
_audit_creation_method	'MofGen! by Chris Wilmer'
_symmetry_space_group_name_H-M	'P1'
_symmetry_Int_Tables_number	1
_symmetry_cell_setting	triclinic
loop_
_symmetry_equiv_pos_as_xyz
  x,y,z
_cell_length_a	6.817900
_cell_length_b	10.943925
_cell_length_c	10.943881
_cell_angle_alpha	91.770917
_cell_angle_beta	108.843448
_cell_angle_gamma	108.844289
loop_
_atom_site_label
_atom_site_type_symbol
_atom_site_fract_x
_atom_site_fract_y
_atom_site_fract_z
V1	V	-4.115585	-0.178596	-0.402535
O2	O	-4.073255	0.008620	-0.394890
O3	O	-4.093571	-0.354163	-0.399764
O4	O	-4.093571	-0.175832	-0.578102
O5	O	-4.073255	-0.170945	-0.215318
V6	V	-4.592375	-0.156205	-0.380144
O7	O	-4.391613	-0.227713	-0.451650
O8	O	-4.766545	-0.107088	-0.331029
O9	O	-4.391183	0.019361	-0.382915
O10	O	-4.752102	-0.343421	-0.387789
O11	O	-4.752102	-0.163857	-0.567361
O12	O	-4.391183	-0.158969	-0.204577
C13	C	-3.944137	-0.396962	-0.393410
C14	C	-4.007601	-0.540490	-0.392315
C15	C	-4.274968	-0.717223	-0.397746
C16	C	-4.085621	-0.611233	-0.288090
C17	C	-4.196129	-0.644567	-0.501937
C18	C	-3.931177	-0.690206	-0.280610
C19	C	-4.041765	-0.723564	-0.494554
C20	C	-3.852281	-0.617604	-0.384866
C21	C	-3.944135	-0.169483	-0.620896
C22	C	-4.007594	-0.168385	-0.764423
C23	C	-4.237038	-0.174465	-0.855305
C24	C	-4.123561	-0.063484	-0.921053
C25	C	-4.234082	-0.277331	-0.954402
C26	C	-3.893234	-0.057330	-0.828266
C27	C	-4.003830	-0.271274	-0.861623
C28	C	-3.890181	-0.160263	-0.927323
C29	C	-4.203959	0.062154	-0.389266
C30	C	-4.119736	0.205681	-0.390369
C31	C	-4.203961	-0.165322	-0.161777
C32	C	-4.119739	-0.166414	-0.018248
H33	H	-4.382948	-0.180344	-0.823436
O34	O	-4.020509	-0.781759	-0.598784
C35	C	-3.947231	-0.686475	-0.673603
H36	H	-3.991975	-0.597804	-0.654300
H37	H	-4.030490	-0.728780	-0.781744
H38	H	-3.759978	-0.655792	-0.645266
H39	H	-4.307528	-0.623856	-0.595482
H40	H	-3.748607	0.035728	-0.773674
O41	O	-3.638488	-0.565927	-0.378578
C42	C	-3.630888	-0.507572	-0.490830
H43	H	-3.797969	-0.552930	-0.573127
H44	H	-3.496593	-0.524412	-0.522294
H45	H	-3.591955	-0.398191	-0.467842
O46	O	-3.797992	-0.714476	-0.168848
C47	C	-3.644701	-0.595280	-0.091707
H48	H	-3.623211	-0.516095	-0.156572
H49	H	-3.478508	-0.606965	-0.041095
H50	H	-3.708425	-0.566395	-0.015076
H51	H	-3.952682	-0.359147	-0.835060
O52	O	-4.488867	-0.769000	-0.404249
C53	C	-4.628546	-0.744466	-0.519873
H54	H	-4.529462	-0.656386	-0.554728
H55	H	-4.769618	-0.723587	-0.499914
H56	H	-4.699507	-0.833585	-0.598471
O57	O	-4.185006	0.041225	-0.952697
C58	C	-4.368580	0.033428	-0.916281
H59	H	-4.459304	-0.072495	-0.910111
H60	H	-4.485691	0.070818	-0.992263
H61	H	-4.309193	0.095656	-0.817025
H62	H	-3.743946	-0.154215	-0.958923
H63	H	-4.378818	-0.370291	-1.009139
H64	H	-4.103500	-0.562324	-0.200807
