data_functionalizedCrystal
_audit_creation_method	'MofGen! by Chris Wilmer'
_symmetry_space_group_name_H-M	'P1'
_symmetry_Int_Tables_number	1
_symmetry_cell_setting	triclinic
loop_
_symmetry_equiv_pos_as_xyz
  x,y,z
_cell_length_a	14.908742
_cell_length_b	14.908178
_cell_length_c	12.759393
_cell_angle_alpha	86.668139
_cell_angle_beta	93.280459
_cell_angle_gamma	90.210560
loop_
_atom_site_label
_atom_site_type_symbol
_atom_site_fract_x
_atom_site_fract_y
_atom_site_fract_z
Zn1	Zn	1.353962	-0.437235	-0.473452
Zn2	Zn	1.853962	0.062765	0.026548
Zn3	Zn	1.345183	-0.587627	-0.288241
Zn4	Zn	1.845183	-0.087627	0.211759
Zn5	Zn	1.203595	-0.428608	-0.308489
Zn6	Zn	1.703595	0.071392	0.191511
Zn7	Zn	1.194907	-0.578891	-0.474582
Zn8	Zn	1.694907	-0.078891	0.025418
O9	O	1.274412	-0.508090	-0.386191
O10	O	1.774412	-0.008090	0.113809
O11	O	1.478617	-0.464452	-0.439936
O12	O	1.978617	0.035548	0.060064
O13	O	1.326363	-0.566578	-0.143906
O14	O	1.826363	-0.066578	0.356094
O15	O	1.230852	-0.303918	-0.338373
O16	O	1.730852	0.196082	0.161627
O17	O	1.472167	-0.574944	-0.303863
O18	O	1.972167	-0.074944	0.196137
O19	O	1.341325	-0.310257	-0.459570
O20	O	1.841325	0.189743	0.040430
O21	O	1.222339	-0.449747	-0.158782
O22	O	1.722339	0.050253	0.341218
O23	O	1.076623	-0.441276	-0.339469
O24	O	1.576623	0.058724	0.160531
O25	O	1.216043	-0.560055	-0.621454
O26	O	1.716043	-0.060055	-0.121454
O27	O	1.070239	-0.551689	-0.461497
O28	O	1.570239	-0.051689	0.038503
O29	O	1.332900	-0.455981	-0.620623
O30	O	1.832900	0.044019	-0.120623
O31	O	1.317938	-0.712302	-0.304959
O32	O	1.817938	-0.212302	0.195041
O33	O	1.207531	-0.705884	-0.441863
O34	O	1.707531	-0.205884	0.058137
C35	C	1.040807	-0.494599	-0.402803
C36	C	1.540807	0.005401	0.097197
C37	C	0.940869	-0.488849	-0.409934
C38	C	1.440869	0.011151	0.090066
C39	C	0.803359	-0.423319	-0.490920
C40	C	1.303359	0.076681	0.009080
C41	C	0.897261	-0.428714	-0.484226
C42	C	1.397261	0.071286	0.015774
C43	C	0.890570	-0.543595	-0.342332
C44	C	1.390570	-0.043595	0.157668
C45	C	0.796669	-0.538200	-0.349026
C46	C	1.296669	-0.038200	0.150974
C47	C	0.753067	-0.478059	-0.423321
C48	C	1.253067	0.021941	0.076679
C49	C	0.659164	-0.472661	-0.430009
C50	C	1.159164	0.027339	0.069991
C51	C	0.652475	-0.587546	-0.288121
C52	C	1.152475	-0.087546	0.211879
C53	C	0.746376	-0.592941	-0.281428
C54	C	1.246376	-0.092941	0.218572
C55	C	1.260863	-0.741721	-0.371358
C56	C	1.760863	-0.241721	0.128642
C57	C	1.255150	-0.841675	-0.365041
C58	C	1.755150	-0.341675	0.134959
C59	C	1.359362	-1.035942	-0.479525
C60	C	1.859362	-0.535942	0.020475
C61	C	1.353997	-1.129858	-0.473593
C62	C	1.853997	-0.629858	0.026407
C63	C	1.239050	-1.123421	-0.347253
C64	C	1.739050	-0.623421	0.152747
C65	C	1.244415	-1.029506	-0.353185
C66	C	1.744415	-0.529506	0.146815
C67	C	1.304574	-0.985770	-0.419322
C68	C	1.804574	-0.485770	0.080678
C69	C	1.309944	-0.891854	-0.425247
C70	C	1.809944	-0.391854	0.074753
C71	C	1.194993	-0.885419	-0.298913
C72	C	1.694993	-0.385419	0.201087
C73	C	1.189627	-0.979334	-0.292981
C74	C	1.689627	-0.479334	0.207019
C75	C	1.508928	-0.521635	-0.369515
C76	C	2.008928	-0.021635	0.130485
C77	C	1.608865	-0.527407	-0.362408
C78	C	2.108865	-0.027407	0.137592
C79	C	1.274482	-0.508005	-0.660226
C80	C	1.774482	-0.008005	-0.160226
C81	C	1.274512	-0.507969	-0.777003
C82	C	1.774512	-0.007969	-0.277003
C83	C	1.288037	-0.273548	-0.401104
C84	C	1.788037	0.226452	0.098896
C85	C	1.293843	-0.173600	-0.407458
C86	C	1.793843	0.326400	0.092542
C87	C	1.335385	-0.453736	-0.941166
C88	C	1.835385	0.046264	-0.441166
C89	C	1.335366	-0.453770	-0.831441
C90	C	1.835366	0.046230	-0.331441
C91	C	1.213680	-0.562145	-0.832294
C92	C	1.713680	-0.062145	-0.332294
C93	C	1.213704	-0.562115	-0.942017
C94	C	1.713704	-0.062115	-0.442017
C95	C	1.274397	-0.508113	-0.113223
C96	C	1.774397	-0.008113	0.386777
C97	C	1.274556	-0.507906	0.003550
C98	C	1.774556	-0.007906	0.503550
H99	H	0.623665	-0.423687	-0.490500
H100	H	1.123665	0.076313	0.009500
H101	H	1.190067	-1.159047	-0.293413
H102	H	1.690067	-0.659047	0.206587
H103	H	1.384933	-0.409595	-0.985483
H104	H	1.884933	0.090405	-0.485483
F105	F	1.125599	-1.025890	-0.222605
F106	F	1.625599	-0.525890	0.277395
F107	F	1.400110	-0.396117	-0.772608
F108	F	1.900110	0.103883	-0.272608
H109	H	1.408352	-1.000333	-0.533368
H110	H	1.908352	-0.500333	-0.033368
H111	H	0.938205	-0.384139	-0.539272
H112	H	1.438205	0.115861	-0.039272
F113	F	1.373972	-0.845308	-0.495631
F114	F	1.873972	-0.345308	0.004369
H115	H	0.781890	-0.641908	-0.220941
H116	H	1.281890	-0.141908	0.279059
H117	H	1.150383	-0.844558	-0.249888
H118	H	1.650383	-0.344558	0.250112
H119	H	0.926087	-0.592562	-0.281848
H120	H	1.426087	-0.092562	0.218152
H121	H	1.164169	-0.606232	-0.987030
H122	H	1.664169	-0.106232	-0.487030
F123	F	0.598943	-0.645804	-0.216169
F124	F	1.098943	-0.145804	0.283831
F125	F	0.756954	-0.359304	-0.569978
F126	F	1.256954	0.140696	-0.069978
F127	F	1.412307	-1.183251	-0.537673
F128	F	1.912307	-0.683251	-0.037673
F129	F	1.148917	-0.619831	-0.774354
F130	F	1.648917	-0.119831	-0.274354
