data_functionalizedCrystal
_audit_creation_method	'MofGen! by Chris Wilmer'
_symmetry_space_group_name_H-M	'P1'
_symmetry_Int_Tables_number	1
_symmetry_cell_setting	triclinic
loop_
_symmetry_equiv_pos_as_xyz
  x,y,z
_cell_length_a	9.065218
_cell_length_b	19.288864
_cell_length_c	18.366186
_cell_angle_alpha	90.022894
_cell_angle_beta	89.995673
_cell_angle_gamma	95.923934
loop_
_atom_site_label
_atom_site_type_symbol
_atom_site_fract_x
_atom_site_fract_y
_atom_site_fract_z
O1	O	0.184031	-0.922782	-0.060781
O2	O	0.208857	-0.720714	-0.060731
O3	O	-0.018345	-0.825924	-0.060755
O4	O	0.411233	-0.817571	-0.060756
O5	O	-0.018356	-0.825906	0.060344
O6	O	0.208846	-0.720696	0.060369
O7	O	0.184020	-0.922763	0.060319
Zn8	Zn	0.196431	-0.821727	0.079571
Zn9	Zn	0.196446	-0.821751	-0.079983
O10	O	0.411222	-0.817553	0.060343
C11	C	0.208053	-0.694822	-0.000174
C12	C	0.205655	-0.617700	-0.000155
C13	C	-0.073309	-0.825112	-0.000206
C14	C	-0.237067	-0.822712	-0.000209
C15	C	0.184825	-0.948655	-0.000239
C16	C	0.187223	-1.025777	-0.000263
C17	C	0.466186	-0.818365	-0.000207
C18	C	0.629945	-0.820765	-0.000209
N19	N	0.196420	-0.821715	0.188462
C20	C	0.338966	-0.574039	-0.000167
C21	C	0.336713	-0.501574	-0.000175
C22	C	0.201142	-0.472774	-0.000186
C23	C	0.067812	-0.516445	-0.000170
C24	C	0.070069	-0.588908	-0.000155
C25	C	0.094571	-0.363691	-0.042637
C26	C	0.092320	-0.291229	-0.042657
C27	C	0.194176	-0.249274	-0.000230
C28	C	0.298308	-0.279789	0.042207
C29	C	0.300565	-0.352252	0.042222
C30	C	0.198680	-0.394201	-0.000202
C31	C	0.325054	-0.127038	-0.000250
C32	C	0.322796	-0.054572	-0.000253
C33	C	0.053891	-0.069445	-0.000256
C34	C	0.056153	-0.141909	-0.000245
C35	C	0.191739	-0.170701	-0.000245
N36	N	0.196445	-0.821767	-0.188874
C37	C	0.095865	-0.868318	0.226552
C38	C	0.095858	-0.868323	0.302779
C39	C	0.196433	-0.821731	0.340915
C40	C	0.296996	-0.775119	0.302816
C41	C	0.296990	-0.775111	0.226590
C42	C	0.330848	-0.813476	0.461676
C43	C	0.330856	-0.813489	0.537901
C44	C	0.196451	-0.821751	0.576022
C45	C	0.062032	-0.830015	0.537909
C46	C	0.062026	-0.830007	0.461683
C47	C	0.196450	-0.821734	0.423570
C48	C	0.095880	-0.868361	0.696767
C49	C	0.095871	-0.868361	0.772996
C50	C	0.297022	-0.775160	0.773031
C51	C	0.297018	-0.775157	0.696803
C52	C	0.196448	-0.821761	0.658676
H53	H	0.445275	-0.466018	-0.000183
H54	H	-0.038493	-0.624457	-0.000146
H55	H	0.385348	-0.377094	0.076778
H56	H	0.440305	-0.806736	0.430644
N57	N	0.485201	-0.605090	-0.000151
H58	H	0.466407	-0.657621	-0.000138
H59	H	0.543526	-0.589204	-0.045046
H60	H	0.381248	-0.245631	0.076755
H61	H	0.013972	-0.906265	0.195510
N62	N	-0.087642	-0.189000	-0.000235
H63	H	-0.146810	-0.179665	-0.045129
H64	H	-0.065528	-0.239256	-0.000194
N65	N	0.471283	-0.158099	-0.000246
H66	H	0.555397	-0.119441	-0.000249
H67	H	0.478069	-0.187819	0.044651
N68	N	0.466592	-0.007479	-0.000272
H69	H	0.444593	0.042796	-0.000278
H70	H	0.525705	-0.016874	0.044620
N71	N	-0.012594	-0.918589	0.343879
H72	H	-0.117262	-0.909940	0.330629
H73	H	0.004268	-0.967964	0.330573
H74	H	-0.056494	-0.045997	-0.000310
H75	H	0.007535	-0.266389	-0.077214
N76	N	-0.082944	-0.838918	0.420576
H77	H	-0.062545	-0.837662	0.366504
H78	H	-0.139094	-0.885135	0.433880
N79	N	0.405474	-0.724892	0.655715
H80	H	0.469187	-0.695375	0.691438
H81	H	0.470550	-0.751883	0.624068
N82	N	0.475827	-0.804570	0.579006
H83	H	0.537142	-0.843554	0.565714
H84	H	0.531911	-0.758326	0.565743
N85	N	-0.082948	-0.838930	0.579013
H86	H	-0.062555	-0.837678	0.633085
H87	H	-0.144179	-0.799932	0.565710
N88	N	-0.015299	-0.408939	-0.088397
H89	H	-0.081597	-0.378614	-0.115287
H90	H	0.039928	-0.436023	-0.124628
H91	H	0.378875	-0.737160	0.195577
N92	N	0.405466	-0.724862	0.343942
H93	H	0.390215	-0.731939	0.398012
H94	H	0.510079	-0.733536	0.330606
H95	H	-0.042571	-0.492991	-0.000189
H96	H	0.013986	-0.906307	0.665722
N97	N	-0.012566	-0.918639	0.814082
H98	H	-0.076259	-0.948165	0.778359
H99	H	0.043791	-0.949689	0.845682
H100	H	0.378906	-0.737221	0.804081
