data_functionalizedCrystal
_audit_creation_method	'MofGen! by Chris Wilmer'
_symmetry_space_group_name_H-M	'P1'
_symmetry_Int_Tables_number	1
_symmetry_cell_setting	triclinic
loop_
_symmetry_equiv_pos_as_xyz
  x,y,z
_cell_length_a	17.699083
_cell_length_b	22.610064
_cell_length_c	17.699083
_cell_angle_alpha	89.994649
_cell_angle_beta	96.716985
_cell_angle_gamma	90.009251
loop_
_atom_site_label
_atom_site_type_symbol
_atom_site_fract_x
_atom_site_fract_y
_atom_site_fract_z
O1	O	1.004088	0.049103	-0.095709
O2	O	1.504088	0.549103	0.404291
O3	O	0.783709	0.049122	-0.108162
O4	O	1.283709	0.549122	0.391838
O5	O	0.900125	0.049107	0.008253
O6	O	1.400125	0.549107	0.508253
O7	O	0.887672	0.049118	-0.212125
O8	O	1.387672	0.549118	0.287875
O9	O	0.900091	-0.049262	0.008254
O10	O	1.400091	0.450738	0.508254
O11	O	0.783675	-0.049247	-0.108162
O12	O	1.283675	0.450753	0.391838
O13	O	1.004054	-0.049266	-0.095709
O14	O	1.504054	0.450734	0.404291
Zn15	Zn	0.893859	-0.064875	-0.101936
Zn16	Zn	1.393859	0.435125	0.398064
Zn17	Zn	0.893904	0.064731	-0.101936
Zn18	Zn	1.393904	0.564731	0.398064
O19	O	0.887638	-0.049251	-0.212125
O20	O	1.387638	0.450749	0.287875
C21	C	0.755495	-0.000060	-0.107716
C22	C	1.255495	0.499940	0.392284
C23	C	0.671477	-0.000053	-0.106377
C24	C	1.171477	0.499947	0.393623
N25	N	0.893834	-0.153327	-0.101935
N26	N	1.393834	0.346673	0.398065
C27	C	0.622856	-0.000049	-0.174710
C28	C	1.122856	0.499951	0.325290
C29	C	0.543913	-0.000057	-0.173448
C30	C	1.043913	0.499943	0.326552
C31	C	0.513592	-0.000064	-0.103852
C32	C	1.013592	0.499936	0.396148
C33	C	0.562219	-0.000069	-0.035513
C34	C	1.062219	0.499931	0.464487
C35	C	0.641161	-0.000065	-0.036776
C36	C	1.141161	0.499935	0.463224
C37	C	0.243856	-0.000084	-0.030418
C38	C	0.743856	0.499916	0.469582
C39	C	0.164908	-0.000085	-0.029160
C40	C	0.664908	0.499915	0.470840
C41	C	0.146608	-0.000075	-0.167090
C42	C	0.646608	0.499925	0.332910
C43	C	0.225550	-0.000072	-0.168353
C44	C	0.725550	0.499928	0.331647
C45	C	0.274170	-0.000080	-0.100015
C46	C	0.774170	0.499920	0.399985
C47	C	0.359769	-0.000073	-0.101384
C48	C	0.859769	0.499927	0.398616
C49	C	0.427995	-0.000067	-0.102481
C50	C	0.927995	0.499933	0.397519
C51	C	0.939722	-0.561971	-0.147774
C52	C	1.439722	-0.061971	0.352226
C53	C	0.939731	-0.623890	-0.147773
C54	C	1.439731	-0.123890	0.352227
O55	O	0.978717	-0.655911	-0.186742
O56	O	1.478717	-0.155911	0.313258
N57	N	0.893919	-0.654864	-0.101927
N58	N	1.393919	-0.154864	0.398073
C59	C	0.848099	-0.623915	-0.056075
C60	C	1.348099	-0.123915	0.443925
O61	O	0.809133	-0.655947	-0.017079
O62	O	1.309133	-0.155947	0.482921
C63	C	0.848094	-0.561997	-0.056073
C64	C	1.348094	-0.061997	0.443927
C65	C	0.893904	-0.531026	-0.101927
C66	C	1.393904	-0.031026	0.398073
C67	C	0.985529	-0.531000	-0.193624
C68	C	1.485529	-0.031000	0.306376
C69	C	0.985518	-0.469084	-0.193627
C70	C	1.485518	0.030916	0.306373
C71	C	0.939700	-0.438139	-0.147780
C72	C	1.439700	0.061861	0.352220
C73	C	0.893893	-0.469110	-0.101930
C74	C	1.393893	0.030890	0.398070
C75	C	0.802279	-0.531049	-0.010217
C76	C	1.302279	-0.031049	0.489783
C77	C	0.802279	-0.469126	-0.010219
C78	C	1.302279	0.030874	0.489781
C79	C	0.848089	-0.438155	-0.056073
C80	C	1.348089	0.061845	0.443927
C81	C	0.848065	-0.376250	-0.056086
C82	C	1.348065	0.123750	0.443914
N83	N	0.893878	-0.345276	-0.101931
N84	N	1.393878	0.154724	0.398069
C85	C	0.939695	-0.376220	-0.147778
C86	C	1.439695	0.123780	0.352222
C87	C	0.848114	-0.753949	-0.056081
C88	C	1.348114	-0.253949	0.443919
C89	C	0.848114	-0.815867	-0.056086
C90	C	1.348114	-0.315867	0.443914
C91	C	0.939748	-0.815837	-0.147783
C92	C	1.439748	-0.315837	0.352217
C93	C	0.939743	-0.753919	-0.147781
C94	C	1.439743	-0.253919	0.352219
C95	C	0.893927	-0.722975	-0.101926
C96	C	1.393927	-0.222975	0.398074
C97	C	0.939669	-0.246193	-0.147781
C98	C	1.439669	0.253807	0.352219
C99	C	0.939652	-0.184272	-0.147782
C100	C	1.439652	0.315728	0.352218
C101	C	0.848022	-0.184307	-0.056082
C102	C	1.348022	0.315693	0.443918
C103	C	0.848035	-0.246222	-0.056084
C104	C	1.348035	0.253778	0.443916
C105	C	0.893865	-0.277164	-0.101936
C106	C	1.393865	0.222836	0.398064
O107	O	0.809102	-0.344190	-0.017134
O108	O	1.309102	0.155810	0.482866
O109	O	0.978662	-0.344181	-0.186760
O110	O	1.478662	0.155819	0.313240
C111	C	1.032268	-0.000083	-0.096156
C112	C	1.532268	0.499917	0.403844
C113	C	1.116286	-0.000086	-0.097494
C114	C	1.616286	0.499914	0.402506
C115	C	0.899662	-0.000078	0.036451
C116	C	1.399662	0.499922	0.536451
C117	C	0.898323	-0.000078	0.120469
C118	C	1.398323	0.499922	0.620469
N119	N	0.893935	0.153183	-0.101930
N120	N	1.393935	0.653183	0.398070
C121	C	0.888102	-0.000065	-0.240322
C122	C	1.388102	0.499935	0.259678
C123	C	0.889440	-0.000061	-0.324340
C124	C	1.389440	0.499939	0.175660
C125	C	0.966656	-0.000085	0.169090
C126	C	1.466656	0.499915	0.669090
C127	C	0.965394	-0.000079	0.248033
C128	C	1.465394	0.499921	0.748033
C129	C	0.895798	-0.000071	0.278354
C130	C	1.395798	0.499929	0.778354
C131	C	0.827459	-0.000063	0.229727
C132	C	1.327459	0.499937	0.729727
C133	C	0.828722	-0.000064	0.150785
C134	C	1.328722	0.499936	0.650785
C135	C	0.822364	-0.000058	0.548090
C136	C	1.322364	0.499942	1.048090
C137	C	0.821106	-0.000058	0.627038
C138	C	1.321106	0.499942	1.127038
C139	C	0.959036	-0.000073	0.645338
C140	C	1.459036	0.499927	1.145338
C141	C	0.960299	-0.000074	0.566396
C142	C	1.460299	0.499926	1.066396
C143	C	0.891961	-0.000062	0.517776
C144	C	1.391961	0.499938	1.017776
C145	C	0.893330	-0.000067	0.432177
C146	C	1.393330	0.499933	0.932177
C147	C	0.894427	-0.000071	0.363951
C148	C	1.394427	0.499929	0.863951
H149	H	0.647537	-0.000043	-0.231384
H150	H	1.147537	0.499957	0.268616
F151	F	0.988514	-0.848782	-0.196575
F152	F	1.488514	-0.348782	0.303425
F153	F	0.492170	-0.000051	-0.246178
F154	F	0.992170	0.499949	0.253822
H155	H	0.250232	-0.000063	-0.225025
H156	H	0.750232	0.499937	0.274975
H157	H	0.283434	-0.000091	0.025228
H158	H	0.783434	0.499909	0.525228
H159	H	1.021038	-0.000086	0.287618
H160	H	1.521038	0.499914	0.787618
F161	F	0.799346	-0.848821	-0.007292
F162	F	1.299346	-0.348821	0.492708
F163	F	0.755992	-0.000055	0.099039
F164	F	1.255992	0.499945	0.599039
H165	H	1.022843	-0.556188	-0.230959
H166	H	1.522843	-0.056188	0.269041
F167	F	1.040732	-0.000099	0.136828
F168	F	1.540732	0.499901	0.636828
F169	F	1.034373	-0.000082	0.534131
F170	F	1.534373	0.499918	1.034131
H171	H	0.107012	-0.000072	-0.222734
H172	H	0.607012	0.499928	0.277266
H173	H	1.014680	-0.000080	0.684934
H174	H	1.514680	0.499920	1.184934
F175	F	0.132641	-0.000093	0.044918
F176	F	0.632641	0.499907	0.544918
H177	H	0.764977	-0.556254	0.027123
H178	H	1.264977	-0.056254	0.527123
H179	H	0.977045	-0.728706	-0.185120
H180	H	1.477045	-0.228706	0.314880
H181	H	0.810716	-0.159100	-0.018757
H182	H	1.310716	0.340900	0.481243
H183	H	0.764429	-0.000053	0.651721
H184	H	1.264429	0.499947	1.151721
H185	H	0.766718	-0.000048	0.508512
H186	H	1.266718	0.499952	1.008512
H187	H	0.537526	-0.000083	0.021154
H188	H	1.037526	0.499917	0.521154
F189	F	0.692907	-0.000071	0.035954
F190	F	1.192907	0.499929	0.535954
H191	H	0.976955	-0.159058	-0.185126
H192	H	1.476955	0.340942	0.314874
H193	H	0.770792	-0.000053	0.254420
H194	H	1.270792	0.499947	0.754420
F195	F	0.988446	-0.279115	-0.196581
F196	F	1.488446	0.220885	0.303419
H197	H	1.022824	-0.443873	-0.230963
H198	H	1.522824	0.056127	0.269037
F199	F	0.799339	-0.721022	-0.007280
F200	F	1.299339	-0.221022	0.492720
H201	H	0.764970	-0.443934	0.027123
H202	H	1.264970	0.056066	0.527123
F203	F	0.799272	-0.279185	-0.007289
F204	F	1.299272	0.220815	0.492711
