data_functionalizedCrystal
_audit_creation_method	'MofGen! by Chris Wilmer'
_symmetry_space_group_name_H-M	'P1'
_symmetry_Int_Tables_number	1
_symmetry_cell_setting	triclinic
loop_
_symmetry_equiv_pos_as_xyz
  x,y,z
_cell_length_a	16.120530
_cell_length_b	25.639239
_cell_length_c	16.120256
_cell_angle_alpha	92.870449
_cell_angle_beta	90.128265
_cell_angle_gamma	87.134054
loop_
_atom_site_label
_atom_site_type_symbol
_atom_site_fract_x
_atom_site_fract_y
_atom_site_fract_z
Zn1	Zn	1.247329	-0.264893	-0.534538
Zn2	Zn	1.747329	0.235107	-0.034538
Zn3	Zn	1.254246	-0.348122	-0.395471
Zn4	Zn	1.754246	0.151878	0.104529
Zn5	Zn	1.115324	-0.256055	-0.388456
Zn6	Zn	1.615324	0.243945	0.111544
Zn7	Zn	1.108202	-0.347643	-0.527441
Zn8	Zn	1.608202	0.152357	-0.027441
O9	O	1.181275	-0.304178	-0.461477
O10	O	1.681275	0.195822	0.038523
O11	O	1.364612	-0.279833	-0.521996
O12	O	1.864612	0.220167	-0.021996
O13	O	1.241692	-0.332411	-0.278175
O14	O	1.741692	0.167589	0.221825
O15	O	1.132920	-0.184066	-0.407869
O16	O	1.632920	0.315934	0.092131
O17	O	1.369693	-0.340981	-0.419824
O18	O	1.869693	0.159019	0.080176
O19	O	1.229905	-0.190559	-0.515195
O20	O	1.729905	0.309441	-0.015195
O21	O	1.139627	-0.264770	-0.273021
O22	O	1.639627	0.235230	0.226979
O23	O	0.998014	-0.264306	-0.400987
O24	O	1.498014	0.235694	0.099013
O25	O	1.120783	-0.340164	-0.644748
O26	O	1.620783	0.159836	-0.144748
O27	O	0.992782	-0.331595	-0.503098
O28	O	1.492782	0.168405	-0.003098
O29	O	1.222999	-0.279368	-0.649962
O30	O	1.722999	0.220632	-0.149962
O31	O	1.234787	-0.421220	-0.412942
O32	O	1.734787	0.078780	0.087058
O33	O	1.127489	-0.420868	-0.509900
O34	O	1.627489	0.079132	-0.009900
C35	C	0.965226	-0.296940	-0.450512
C36	C	1.465226	0.203060	0.049488
C37	C	0.872798	-0.293856	-0.445841
C38	C	1.372798	0.206144	0.054159
C39	C	0.703571	-0.288214	-0.437320
C40	C	1.203571	0.211786	0.062680
C41	C	0.659817	-0.320183	-0.485694
C42	C	1.159817	0.179817	0.014306
C43	C	0.565653	-0.317044	-0.480953
C44	C	1.065653	0.182956	0.019047
C45	C	0.797744	-0.291352	-0.442060
C46	C	1.297744	0.208648	0.057940
C47	C	1.181137	-0.440015	-0.461431
C48	C	1.681137	0.059985	0.038569
C49	C	1.181153	-0.498130	-0.461444
C50	C	1.681153	0.001870	0.038556
C51	C	1.237279	-0.858676	-0.411088
C52	C	1.737279	-0.358676	0.088912
C53	C	1.237311	-0.913282	-0.411101
C54	C	1.737311	-0.413282	0.088899
O55	O	1.284888	-0.941668	-0.368238
O56	O	1.784888	-0.441668	0.131762
N57	N	1.181419	-0.940424	-0.461539
N58	N	1.681419	-0.440424	0.038461
C59	C	1.125497	-0.912958	-0.511974
C60	C	1.625497	-0.412958	-0.011974
O61	O	1.077959	-0.941059	-0.554877
O62	O	1.577959	-0.441059	-0.054877
C63	C	1.125470	-0.858354	-0.511965
C64	C	1.625470	-0.358354	-0.011965
C65	C	1.181360	-0.831214	-0.461517
C66	C	1.681360	-0.331214	0.038483
C67	C	1.293166	-0.831536	-0.360646
C68	C	1.793166	-0.331536	0.139354
C69	C	1.293133	-0.776934	-0.360632
C70	C	1.793133	-0.276934	0.139368
C71	C	1.237213	-0.749472	-0.411061
C72	C	1.737213	-0.249472	0.088939
C73	C	1.181327	-0.776612	-0.461504
C74	C	1.681327	-0.276612	0.038496
C75	C	1.069552	-0.830889	-0.562404
C76	C	1.569552	-0.330889	-0.062404
C77	C	1.069530	-0.776281	-0.562391
C78	C	1.569530	-0.276281	-0.062391
C79	C	1.125421	-0.749141	-0.511943
C80	C	1.625421	-0.249141	-0.011943
C81	C	1.125375	-0.694548	-0.511919
C82	C	1.625375	-0.194548	-0.011919
N83	N	1.181267	-0.667405	-0.461481
N84	N	1.681267	-0.167405	0.038519
C85	C	1.237186	-0.694868	-0.411052
C86	C	1.737186	-0.194868	0.088948
C87	C	1.125559	-1.027631	-0.511990
C88	C	1.625559	-0.527631	-0.011990
C89	C	1.125581	-1.082234	-0.511995
C90	C	1.625581	-0.582234	-0.011995
C91	C	1.237396	-1.082554	-0.411123
C92	C	1.737396	-0.582554	0.088877
C93	C	1.237369	-1.027950	-0.411114
C94	C	1.737369	-0.527950	0.088886
C95	C	1.181451	-1.000489	-0.461552
C96	C	1.681451	-0.500489	0.038448
C97	C	1.237112	-0.580199	-0.411026
C98	C	1.737112	-0.080199	0.088974
C99	C	1.237072	-0.525592	-0.411015
C100	C	1.737072	-0.025592	0.088985
C101	C	1.125260	-0.525277	-0.511889
C102	C	1.625260	-0.025277	-0.011889
C103	C	1.125297	-0.579879	-0.511898
C104	C	1.625297	-0.079879	-0.011898
C105	C	1.181230	-0.607339	-0.461464
C106	C	1.681230	-0.107339	0.038536
O107	O	1.077824	-0.666127	-0.554763
O108	O	1.577824	-0.166127	-0.054763
O109	O	1.284723	-0.666761	-0.368164
O110	O	1.784723	-0.166761	0.131836
C111	C	1.398168	-0.311446	-0.472484
C112	C	1.898168	0.188554	0.027516
C113	C	1.490595	-0.314543	-0.477175
C114	C	1.990595	0.185457	0.022825
C115	C	1.170325	-0.310699	-0.678371
C116	C	1.670325	0.189301	-0.178371
C117	C	1.165659	-0.313477	-0.770798
C118	C	1.665659	0.186523	-0.270798
C119	C	1.181435	-0.167813	-0.461541
C120	C	1.681435	0.332187	0.038459
C121	C	1.181504	-0.109701	-0.461569
C122	C	1.681504	0.390299	0.038431
C123	C	1.205608	-0.289675	-0.983785
C124	C	1.705608	0.210325	-0.483785
C125	C	1.157112	-0.318528	-0.940018
C126	C	1.657112	0.181472	-0.440018
C127	C	1.161869	-0.315717	-0.845855
C128	C	1.661869	0.184283	-0.345855
C129	C	1.200852	-0.292485	-1.077956
C130	C	1.700852	0.207515	-0.577956
C131	C	1.192230	-0.297647	-0.245428
C132	C	1.692230	0.202353	0.254572
C133	C	1.197058	-0.294727	-0.153010
C134	C	1.697058	0.205273	0.346990
H135	H	1.282585	-0.503497	-0.369931
H136	H	1.782585	-0.003497	0.130069
H137	H	0.670313	-0.258490	-0.392349
H138	H	1.170313	0.241510	0.107651
H139	H	1.282660	-0.602551	-0.369960
H140	H	1.782660	-0.102551	0.130040
F141	F	1.352628	-0.748058	-0.306948
F142	F	1.852628	-0.248058	0.193052
F143	F	1.352689	-0.860756	-0.306969
F144	F	1.852689	-0.360756	0.193031
H145	H	1.024037	-0.852976	-0.603479
H146	H	1.524037	-0.352976	-0.103479
F147	F	1.264533	-0.254626	-0.940329
F148	F	1.764533	0.245374	-0.440329
F149	F	1.066086	-1.111112	-0.565678
F150	F	1.566086	-0.611112	-0.065678
H151	H	1.282880	-1.005856	-0.370036
H152	H	1.782880	-0.505856	0.129964
F153	F	0.703287	-0.359036	-0.544484
F154	F	1.203287	0.140964	-0.044484
F155	F	1.296910	-1.111791	-0.357450
F156	F	1.796910	-0.611791	0.142550
H157	H	1.080016	-1.005275	-0.553059
H158	H	1.580016	-0.505275	-0.053059
F159	F	1.010014	-0.747058	-0.616077
F160	F	1.510014	-0.247058	-0.116077
H161	H	1.112016	-0.345337	-0.973266
H162	H	1.612016	0.154663	-0.473266
H163	H	1.079729	-0.502909	-0.552946
H164	H	1.579729	-0.002909	-0.052946
F165	F	1.065798	-0.608763	-0.565574
F166	F	1.565798	-0.108763	-0.065574
