data_functionalizedCrystal
_audit_creation_method	'MofGen! by Chris Wilmer'
_symmetry_space_group_name_H-M	'P1'
_symmetry_Int_Tables_number	1
_symmetry_cell_setting	triclinic
loop_
_symmetry_equiv_pos_as_xyz
  x,y,z
_cell_length_a	19.188905
_cell_length_b	15.995350
_cell_length_c	15.072220
_cell_angle_alpha	89.998899
_cell_angle_beta	89.980393
_cell_angle_gamma	96.686535
loop_
_atom_site_label
_atom_site_type_symbol
_atom_site_fract_x
_atom_site_fract_y
_atom_site_fract_z
O1	O	0.926431	-0.104428	-0.073924
O2	O	1.426431	0.395572	0.426076
O3	O	0.723153	-0.118522	-0.073894
O4	O	1.223153	0.381478	0.426106
O5	O	0.830348	0.010434	-0.073909
O6	O	1.330348	0.510434	0.426091
O7	O	0.819235	-0.233384	-0.073909
O8	O	1.319235	0.266616	0.426091
O9	O	0.830322	0.010426	0.073656
O10	O	1.330322	0.510426	0.573656
O11	O	0.723126	-0.118529	0.073672
O12	O	1.223126	0.381471	0.573672
O13	O	0.926404	-0.104435	0.073641
O14	O	1.426404	0.395565	0.573641
Zn15	Zn	0.824761	-0.111483	0.097085
Zn16	Zn	1.324761	0.388517	0.597085
Zn17	Zn	0.824796	-0.111474	-0.097338
Zn18	Zn	1.324796	0.388526	0.402662
O19	O	0.819208	-0.233391	0.073656
O20	O	1.319208	0.266609	0.573656
C21	C	0.697127	-0.118073	-0.000107
C22	C	1.197127	0.381927	0.499893
C23	C	0.619618	-0.116713	-0.000095
C24	C	1.119618	0.383287	0.499905
C25	C	0.583239	-0.116056	-0.080536
C26	C	1.083239	0.383944	0.419464
C27	C	0.510412	-0.114769	-0.080547
C28	C	1.010412	0.385231	0.419453
C29	C	0.473969	-0.114123	-0.000113
C30	C	0.973969	0.385877	0.499887
C31	C	0.510356	-0.114785	0.080338
C32	C	1.010356	0.385215	0.580338
C33	C	0.583181	-0.116080	0.080347
C34	C	1.083181	0.383920	0.580347
N35	N	0.364811	-0.064443	0.059746
N36	N	0.864811	0.435557	0.559746
N37	N	0.295631	-0.063211	0.059732
N38	N	0.795631	0.436789	0.559732
C39	C	0.254552	-0.110222	-0.000134
C40	C	0.754552	0.389778	0.499866
N41	N	0.285268	-0.158501	-0.060000
N42	N	0.785268	0.341499	0.440000
N43	N	0.354455	-0.159730	-0.059989
N44	N	0.854455	0.340270	0.440011
C45	C	0.395003	-0.112719	-0.000113
C46	C	0.895003	0.387281	0.499887
C47	C	0.139206	-0.108171	-0.080592
C48	C	0.639206	0.391829	0.419408
C49	C	0.066377	-0.106889	-0.080600
C50	C	0.566377	0.393111	0.419400
C51	C	0.066323	-0.106896	0.080287
C52	C	0.566323	0.393104	0.580287
C53	C	0.139150	-0.108186	0.080292
C54	C	0.639150	0.391814	0.580292
C55	C	0.175587	-0.108820	-0.000150
C56	C	0.675587	0.391180	0.499850
C57	C	0.829876	0.041623	-0.000128
C58	C	1.329876	0.541623	0.499872
C59	C	0.828498	0.134568	-0.000133
C60	C	1.328498	0.634568	0.499867
C61	C	0.952430	-0.104885	-0.000148
C62	C	1.452430	0.395115	0.499852
C63	C	1.029939	-0.106244	-0.000165
C64	C	1.529939	0.393756	0.499835
C65	C	0.819681	-0.264580	-0.000127
C66	C	1.319681	0.235420	0.499873
C67	C	0.821058	-0.357526	-0.000128
C68	C	1.321058	0.142474	0.499872
N69	N	0.824742	-0.111489	0.229774
N70	N	1.324742	0.388511	0.729774
C71	C	0.823552	0.472297	-0.000129
C72	C	1.323552	0.972297	0.499871
C73	C	0.747209	0.424575	-0.000449
C74	C	1.247209	0.924575	0.499551
C75	C	0.748586	0.327890	-0.000116
C76	C	1.248586	0.827890	0.499884
C77	C	0.826005	0.304746	-0.000132
C78	C	1.326005	0.804746	0.499868
C79	C	0.863645	0.345961	0.084128
C80	C	1.363645	0.845961	0.584128
C81	C	0.861727	0.442589	0.084199
C82	C	1.361727	0.942589	0.584199
C83	C	0.863334	0.442962	-0.083610
C84	C	1.363334	0.942962	0.416390
C85	C	0.863316	0.346016	-0.084724
C86	C	1.363316	0.846016	0.415276
C87	C	0.827396	0.210053	-0.000130
C88	C	1.327396	0.710053	0.499870
C89	C	0.822163	0.566990	-0.000125
C90	C	1.322163	1.066990	0.499875
N91	N	0.824820	-0.111461	-0.230027
N92	N	1.324820	0.388539	0.269973
C93	C	0.824794	-0.111471	0.588976
C94	C	1.324794	0.388529	1.088976
C95	C	0.767243	-0.180242	0.551377
C96	C	1.267243	0.319758	1.051377
C97	C	0.767375	-0.180492	0.448551
C98	C	1.267375	0.319508	0.948551
C99	C	0.824768	-0.111480	0.410772
C100	C	1.324768	0.388520	0.910772
C101	C	0.897619	-0.130287	0.448052
C102	C	1.397619	0.369713	0.948052
C103	C	0.897297	-0.130775	0.550910
C104	C	1.397297	0.369225	1.050910
C105	C	0.810144	-0.023686	0.551079
C106	C	1.310144	0.476314	1.051079
C107	C	0.808472	-0.024279	0.448216
C108	C	1.308472	0.475721	0.948216
C109	C	0.824758	-0.111484	0.310058
C110	C	1.324758	0.388516	0.810058
C111	C	0.824810	-0.111469	0.689689
C112	C	1.324810	0.388531	1.189689
H113	H	0.612902	-0.116572	-0.146038
H114	H	1.112902	0.383428	0.353962
Cl115	Cl	0.683756	-0.163310	0.409636
Cl116	Cl	1.183756	0.336690	0.909636
Cl117	Cl	0.464669	-0.113942	-0.181679
Cl118	Cl	0.964669	0.386058	0.318321
Cl119	Cl	0.823250	0.301990	0.180956
Cl120	Cl	1.323250	0.801990	0.680956
H121	H	0.835797	0.318667	-0.147057
H122	H	1.335797	0.818667	0.352943
H123	H	0.716706	0.442995	-0.060872
H124	H	1.216706	0.942995	0.439128
H125	H	0.920522	0.332050	0.087251
H126	H	1.420522	0.832050	0.587251
Cl127	Cl	0.702561	0.284684	0.093309
Cl128	Cl	1.202561	0.784684	0.593309
H129	H	0.480679	-0.114260	0.145827
H130	H	0.980679	0.385740	0.645827
H131	H	0.910838	-0.193568	0.422280
H132	H	1.410838	0.306432	0.922280
Cl133	Cl	0.628917	-0.116905	0.181480
Cl134	Cl	1.128917	0.383095	0.681480
H135	H	0.754882	-0.010000	0.423852
H136	H	1.254882	0.490000	0.923852
H137	H	0.941468	-0.081518	0.423576
H138	H	1.441468	0.418482	0.923576
Cl139	Cl	0.020642	-0.106071	-0.181734
Cl140	Cl	0.520642	0.393929	0.318266
H141	H	0.919622	0.474935	-0.084188
H142	H	1.419622	0.974935	0.415812
H143	H	0.036651	-0.106375	0.145778
H144	H	0.536651	0.393625	0.645778
Cl145	Cl	0.700160	0.455002	0.092061
Cl146	Cl	1.200160	0.955002	0.592061
H147	H	0.834258	0.460784	0.147195
H148	H	1.334258	0.960784	0.647195
H149	H	0.168874	-0.108696	-0.146093
H150	H	0.668874	0.391304	0.353907
Cl151	Cl	0.948259	0.492708	0.090098
Cl152	Cl	1.448259	0.992708	0.590098
Cl153	Cl	0.184887	-0.109007	0.181423
Cl154	Cl	0.684887	0.390993	0.681423
H155	H	0.838386	0.463410	-0.147475
H156	H	1.338386	0.963410	0.352525
Cl157	Cl	0.950484	0.322625	-0.092603
Cl158	Cl	1.450484	0.822625	0.407397
Cl159	Cl	0.702903	0.283837	-0.093368
Cl160	Cl	1.202903	0.783837	0.406632
Cl161	Cl	0.683361	-0.163284	0.589598
Cl162	Cl	1.183361	0.336716	1.089598
H163	H	0.776470	-0.245025	0.577213
H164	H	1.276470	0.254975	1.077213
H165	H	0.776731	-0.245641	0.423935
H166	H	1.276731	0.254359	0.923935
H167	H	0.910207	-0.194788	0.574889
H168	H	1.410207	0.305212	1.074889
Cl169	Cl	0.965338	-0.056279	0.589309
Cl170	Cl	1.465338	0.443721	1.089309
H171	H	0.758174	-0.005534	0.577077
H172	H	1.258174	0.494466	1.077077
H173	H	0.847666	0.029274	0.422502
H174	H	1.347666	0.529274	0.922502
H175	H	0.852113	0.027488	0.575391
H176	H	1.352113	0.527488	1.075391
