data_functionalizedCrystal
_audit_creation_method	'MofGen! by Chris Wilmer'
_symmetry_space_group_name_H-M	'P1'
_symmetry_Int_Tables_number	1
_symmetry_cell_setting	triclinic
loop_
_symmetry_equiv_pos_as_xyz
  x,y,z
_cell_length_a	15.297327
_cell_length_b	18.215407
_cell_length_c	18.215399
_cell_angle_alpha	90.019833
_cell_angle_beta	99.648308
_cell_angle_gamma	80.292603
loop_
_atom_site_label
_atom_site_type_symbol
_atom_site_fract_x
_atom_site_fract_y
_atom_site_fract_z
Zn1	Zn	-0.359166	-1.074360	-0.466794
Zn2	Zn	-0.510038	-1.052966	-0.365016
Zn3	Zn	-0.359195	-0.951288	-0.343746
Zn4	Zn	-0.509988	-0.929963	-0.488034
O5	O	-0.434597	-1.002144	-0.415897
O6	O	-0.379188	-1.174505	-0.453306
O7	O	-0.490062	-1.039449	-0.259215
O8	O	-0.232944	-0.985492	-0.342278
O9	O	-0.490033	-1.158787	-0.378530
O10	O	-0.232922	-1.075912	-0.432681
O11	O	-0.379238	-0.964747	-0.243588
O12	O	-0.379190	-0.845476	-0.362873
O13	O	-0.489948	-0.949146	-0.588196
O14	O	-0.489976	-0.829808	-0.468881
O15	O	-0.379139	-1.055234	-0.572591
O16	O	-0.636279	-1.018771	-0.399125
O17	O	-0.636242	-0.928401	-0.489506
C18	C	-0.434581	-0.810940	-0.415874
C19	C	-0.434597	-0.729139	-0.415885
C20	C	-0.668995	-0.968970	-0.448944
C21	C	-0.769272	-0.954846	-0.463106
C22	C	-0.434535	-1.002198	-0.607842
C23	C	-0.434508	-1.002220	-0.689637
C24	C	-1.051887	-1.103397	-0.314929
C25	C	-0.957672	-1.116667	-0.301619
C26	C	-0.910567	-1.076213	-0.341990
C27	C	-0.957687	-1.022486	-0.395673
C28	C	-1.051911	-1.009211	-0.408980
C29	C	-0.910591	-0.982027	-0.436041
C30	C	-0.957711	-0.928300	-0.489723
C31	C	-1.051926	-0.915027	-0.503028
C32	C	-1.099031	-0.955481	-0.462658
C33	C	-0.816367	-0.995303	-0.422734
C34	C	-0.816392	-0.901116	-0.516784
C35	C	-0.910606	-0.887846	-0.530094
C36	C	-0.199283	-1.035467	-0.382738
C37	C	-0.099006	-1.049667	-0.368607
C38	C	-0.434613	-1.194095	-0.415921
C39	C	-0.434620	-1.275892	-0.415931
C40	C	-0.492374	-0.532793	-0.471037
C41	C	-0.492377	-0.455934	-0.471046
C42	C	-0.376836	-0.472244	-0.360776
C43	C	-0.376830	-0.549103	-0.360771
C44	C	-0.434603	-0.579374	-0.415900
C45	C	-0.434613	-0.425657	-0.415916
C46	C	-0.434616	-0.342323	-0.415926
C47	C	-0.434600	-0.662714	-0.415891
C48	C	-0.376756	-1.057485	-0.869699
C49	C	-0.376730	-1.057497	-0.946554
C50	C	-0.492120	-0.947028	-0.962793
C51	C	-0.492141	-0.947013	-0.885938
C52	C	-0.434461	-1.002245	-0.839394
C53	C	-0.434413	-1.002273	-0.993103
C54	C	-0.434385	-1.002286	-1.076433
C55	C	-0.434487	-1.002232	-0.756058
C56	C	-0.434594	-1.002142	-0.224691
C57	C	-0.434366	-1.002298	-0.142860
H58	H	-0.778011	-1.039047	-0.379024
O59	O	-0.956283	-0.835566	-0.582187
C60	C	-0.933369	-0.765453	-0.562792
H61	H	-0.864983	-0.773573	-0.524843
H62	H	-0.930142	-0.732880	-0.615420
H63	H	-0.986453	-0.733210	-0.532430
H64	H	-0.329780	-0.587032	-0.315871
O65	O	-0.770604	-0.861928	-0.556079
C66	C	-0.716009	-0.911493	-0.595926
H67	H	-0.744344	-0.965459	-0.604527
H68	H	-0.714920	-0.884997	-0.652384
H69	H	-0.644618	-0.924101	-0.563092
H70	H	-0.833853	-1.087021	-0.331149
H71	H	-0.539418	-0.418010	-0.515945
H72	H	-0.919310	-1.160411	-0.257910
O73	O	-0.320804	-0.442710	-0.307261
C74	C	-0.333180	-0.364887	-0.319098
H75	H	-0.402843	-0.344541	-0.352928
H76	H	-0.326973	-0.336532	-0.263110
H77	H	-0.279732	-0.350656	-0.350828
O78	O	-0.320637	-1.111167	-0.824586
C79	C	-0.269715	-1.159935	-0.867821
H80	H	-0.266578	-1.130243	-0.922160
H81	H	-0.198639	-1.177843	-0.835604
H82	H	-0.302750	-1.211152	-0.880661
H83	H	-1.090248	-1.136324	-0.282060
O84	O	-0.320578	-1.111066	-0.976009
C85	C	-0.262304	-1.077424	-1.012257
H86	H	-0.256741	-1.020246	-0.988300
H87	H	-0.192875	-1.113869	-1.003347
H88	H	-0.290175	-1.070952	-1.074435
O89	O	-0.548124	-0.893454	-1.008118
C90	C	-0.535718	-0.905301	-1.082449
H91	H	-0.506172	-0.966280	-1.088794
H92	H	-0.603287	-0.890747	-1.121176
H93	H	-0.487667	-0.868456	-1.097482
O94	O	-1.190554	-0.942728	-0.475588
C95	C	-1.221935	-1.008826	-0.499004
H96	H	-1.167599	-1.058873	-0.478797
H97	H	-1.284979	-1.013051	-0.474724
H98	H	-1.238603	-1.008003	-0.562422
H99	H	-1.090288	-0.871270	-0.546732
O100	O	-0.548361	-0.562300	-0.524610
C101	C	-0.497062	-0.614021	-0.564985
H102	H	-0.428654	-0.635206	-0.529470
H103	H	-0.533820	-0.662870	-0.579981
H104	H	-0.487232	-0.585813	-0.618150
H105	H	-0.539131	-0.902025	-0.861264
