data_functionalizedCrystal
_audit_creation_method	'MofGen! by Chris Wilmer'
_symmetry_space_group_name_H-M	'P1'
_symmetry_Int_Tables_number	1
_symmetry_cell_setting	triclinic
loop_
_symmetry_equiv_pos_as_xyz
  x,y,z
_cell_length_a	12.759401
_cell_length_b	13.897448
_cell_length_c	12.759393
_cell_angle_alpha	89.968008
_cell_angle_beta	89.981798
_cell_angle_gamma	90.017853
loop_
_atom_site_label
_atom_site_type_symbol
_atom_site_fract_x
_atom_site_fract_y
_atom_site_fract_z
Zn1	Zn	1.606230	-0.383967	-0.593968
Zn2	Zn	1.606117	-0.545292	-0.418283
Zn3	Zn	1.430533	-0.384013	-0.418308
Zn4	Zn	1.430512	-0.545222	-0.593924
O5	O	1.518348	-0.464624	-0.506121
O6	O	1.753236	-0.405377	-0.570671
O7	O	1.582786	-0.523947	-0.271265
O8	O	1.453897	-0.249026	-0.441638
O9	O	1.753153	-0.523902	-0.441596
O10	O	1.582981	-0.248991	-0.570695
O11	O	1.453786	-0.405456	-0.271283
O12	O	1.283509	-0.405388	-0.441596
O13	O	1.453860	-0.523782	-0.740951
O14	O	1.283494	-0.523827	-0.570621
O15	O	1.582960	-0.405309	-0.740984
O16	O	1.582766	-0.680265	-0.441554
O17	O	1.453750	-0.680213	-0.570597
C18	C	1.245381	-0.464606	-0.506107
C19	C	1.128604	-0.464622	-0.506125
C20	C	1.518271	-0.715238	-0.506090
C21	C	1.518335	-0.822452	-0.506113
C22	C	1.073761	-0.526392	-0.573198
C23	C	0.964037	-0.526404	-0.573209
C24	C	0.964008	-0.402873	-0.439067
C25	C	1.073730	-0.402857	-0.439062
C26	C	1.128635	-0.588156	-0.640261
C27	C	1.073792	-0.649932	-0.707338
C28	C	0.964068	-0.649944	-0.707349
C29	C	0.909187	-0.588181	-0.640284
C30	C	1.518445	-1.018747	-0.506178
C31	C	1.518381	-0.909514	-0.506145
C32	C	1.792381	-0.464642	-0.506136
C33	C	1.909158	-0.464650	-0.506142
C34	C	1.518420	-0.464532	-0.780154
C35	C	1.518451	-0.464493	-0.896931
C36	C	1.518454	-0.213031	-0.506174
C37	C	1.518499	-0.105817	-0.506197
C38	C	1.585660	-0.526122	-1.061513
C39	C	1.585628	-0.526165	-0.951788
C40	C	1.451293	-0.402781	-0.951804
C41	C	1.451320	-0.402743	-1.061526
C42	C	1.652849	-0.587790	-1.116364
C43	C	1.720006	-0.649504	-1.061499
C44	C	1.719974	-0.649547	-0.951775
C45	C	1.652786	-0.587877	-0.896916
C46	C	1.518337	-0.464645	-0.233154
C47	C	1.518509	-0.464412	-0.116377
H48	H	1.217978	-0.588155	-0.640258
H49	H	1.118484	-0.700211	-0.761947
Cl50	Cl	1.142681	-0.325202	-0.354741
H51	H	1.396644	-0.352491	-1.106198
Cl52	Cl	1.652897	-0.587737	-1.254303
Cl53	Cl	1.804455	-0.727037	-1.130463
Cl54	Cl	0.895125	-0.727596	-0.791681
Cl55	Cl	1.366846	-0.325248	-0.882837
H56	H	0.919315	-0.352589	-0.384465
H57	H	0.819842	-0.588187	-0.640308
H58	H	1.774650	-0.699803	-0.907107
Cl59	Cl	1.652734	-0.587947	-0.758975
