data_functionalizedCrystal
_audit_creation_method	'MofGen! by Chris Wilmer'
_symmetry_space_group_name_H-M	'P1'
_symmetry_Int_Tables_number	1
_symmetry_cell_setting	triclinic
loop_
_symmetry_equiv_pos_as_xyz
  x,y,z
_cell_length_a	21.295419
_cell_length_b	21.295417
_cell_length_c	13.897441
_cell_angle_alpha	90.035375
_cell_angle_beta	90.021883
_cell_angle_gamma	90.044503
loop_
_atom_site_label
_atom_site_type_symbol
_atom_site_fract_x
_atom_site_fract_y
_atom_site_fract_z
Zn1	Zn	0.962343	-0.250341	0.545379
Zn2	Zn	0.962251	-0.355620	0.384067
Zn3	Zn	0.857071	-0.250395	0.384094
Zn4	Zn	0.857037	-0.355603	0.545316
O5	O	0.909675	-0.302990	0.464714
O6	O	1.050420	-0.264290	0.523995
O7	O	0.948275	-0.341691	0.249089
O8	O	0.871088	-0.162299	0.405526
O9	O	1.050353	-0.341638	0.405480
O10	O	0.948430	-0.162258	0.524022
O11	O	0.870999	-0.264383	0.249109
O12	O	0.768977	-0.264367	0.405466
O13	O	0.871030	-0.341610	0.680306
O14	O	0.768952	-0.341663	0.523915
O15	O	0.948398	-0.264274	0.680352
O16	O	0.948242	-0.443707	0.405419
O17	O	0.870941	-0.443695	0.523889
C18	C	0.746124	-0.303020	0.464687
C19	C	0.676156	-0.303048	0.464698
C20	C	0.643346	-0.262839	0.526505
C21	C	0.577604	-0.262822	0.526508
C22	C	0.544673	-0.303025	0.464716
C23	C	0.577490	-0.343237	0.402898
C24	C	0.643232	-0.343249	0.402889
N25	N	0.441399	-0.358104	0.457179
N26	N	0.378947	-0.358091	0.457193
C27	C	0.346598	-0.302993	0.464737
N28	N	0.379060	-0.247906	0.472286
N29	N	0.441517	-0.247919	0.472277
C30	C	0.473388	-0.303017	0.464718
C31	C	0.242504	-0.262762	0.526551
C32	C	0.176760	-0.262744	0.526548
C33	C	0.176648	-0.343165	0.402942
C34	C	0.242390	-0.343177	0.402940
C35	C	0.275314	-0.302977	0.464750
C36	C	0.909595	-0.466541	0.464665
C37	C	0.909618	-0.536509	0.464677
C38	C	0.949868	-0.569298	0.526421
C39	C	0.949890	-0.635040	0.526445
C40	C	0.909669	-0.667992	0.464707
C41	C	0.869412	-0.635195	0.402958
C42	C	0.869387	-0.569454	0.402943
N43	N	0.904912	-0.771260	0.380290
N44	N	0.904940	-0.833711	0.380307
C45	C	0.909743	-0.866066	0.464751
N46	N	0.914529	-0.833611	0.549178
N47	N	0.914504	-0.771154	0.549160
C48	C	0.909692	-0.739277	0.464717
C49	C	0.950019	-0.970141	0.526526
C50	C	0.950036	-1.035884	0.526552
C51	C	0.869562	-1.036038	0.403056
C52	C	0.869541	-0.970296	0.403039
C53	C	0.909772	-0.937351	0.464773
C54	C	1.073866	-0.302960	0.464742
C55	C	1.143834	-0.302947	0.464754
C56	C	0.909720	-0.302934	0.716307
C57	C	0.909739	-0.302910	0.823521
C58	C	0.909773	-0.138799	0.464784
C59	C	0.909815	-0.068831	0.464814
C60	C	0.909667	-0.303000	0.214100
C61	C	0.909770	-0.302846	0.106886
C62	C	0.909756	-0.302868	1.019816
C63	C	0.909745	-0.302893	0.910584
H64	H	0.550674	-0.375971	0.352585
H65	H	0.550885	-0.230075	0.576837
C66	C	0.993516	-0.533417	0.593350
C67	C	0.984891	-0.468824	0.580110
C68	C	1.025092	-0.435750	0.641741
H69	H	0.984324	-0.544096	0.658187
H70	H	1.035834	-0.544111	0.579287
H71	H	0.942582	-0.458134	0.594180
H72	H	0.994088	-0.458126	0.515285
H73	H	1.067411	-0.446444	0.627678
H74	H	1.015897	-0.446434	0.706575
H75	H	1.019250	-0.391920	0.632760
C76	C	0.678824	-0.387016	0.335906
C77	C	0.662789	-0.449313	0.356753
C78	C	0.695571	-0.489651	0.295078
H79	H	0.668069	-0.377834	0.271087
H80	H	0.722698	-0.381309	0.344762
H81	H	0.618924	-0.455017	0.347888
H82	H	0.673545	-0.458515	0.421560
H83	H	0.739446	-0.483944	0.303935
H84	H	0.684814	-0.480463	0.230263
H85	H	0.684701	-0.531924	0.309220
H86	H	0.836663	-0.662029	0.352693
H87	H	0.269312	-0.230024	0.576874
H88	H	0.150048	-0.229997	0.576876
H89	H	0.149836	-0.375900	0.352629
H90	H	0.269104	-0.375923	0.352615
C91	C	0.993653	-0.670536	0.593533
C92	C	1.028886	-0.627613	0.647584
C93	C	1.069209	-0.660286	0.709391
H94	H	0.969632	-0.696187	0.635615
H95	H	1.021138	-0.696158	0.556706
H96	H	1.001405	-0.602002	0.684408
H97	H	1.052920	-0.601960	0.605527
H98	H	1.096693	-0.685908	0.672564
H99	H	1.045183	-0.685937	0.751466
H100	H	1.093123	-0.631168	0.746065
H101	H	0.836769	-0.943597	0.352757
H102	H	0.836610	-0.542757	0.352662
C103	C	0.993710	-0.934480	0.593669
C104	C	1.028947	-0.977270	0.647778
C105	C	1.069193	-0.944445	0.709653
H106	H	1.021200	-0.908818	0.556918
H107	H	0.969614	-0.908855	0.635704
H108	H	1.053041	-1.002884	0.605749
H109	H	1.001473	-1.002933	0.684549
H110	H	1.045097	-0.918820	0.751688
H111	H	1.096679	-0.918784	0.672894
H112	H	1.093102	-0.973473	0.746379
C113	C	0.993635	-1.071517	0.593714
C114	C	0.957988	-1.109255	0.655524
C115	C	0.998130	-1.142082	0.717415
H116	H	1.021095	-1.097203	0.556970
H117	H	1.017578	-1.042497	0.630529
H118	H	0.934055	-1.138272	0.618713
H119	H	0.930530	-1.083585	0.692288
H120	H	1.022074	-1.113062	0.754230
H121	H	1.025588	-1.167764	0.680664
H122	H	0.973950	-1.167686	0.759366
H123	H	0.836810	-1.062866	0.352794
H124	H	0.670149	-0.230103	0.576834
