data_functionalizedCrystal
_audit_creation_method	'MofGen! by Chris Wilmer'
_symmetry_space_group_name_H-M	'P1'
_symmetry_Int_Tables_number	1
_symmetry_cell_setting	triclinic
loop_
_symmetry_equiv_pos_as_xyz
  x,y,z
_cell_length_a	15.297979
_cell_length_b	15.297327
_cell_length_c	15.296720
_cell_angle_alpha	107.319222
_cell_angle_beta	88.354193
_cell_angle_gamma	110.796881
loop_
_atom_site_label
_atom_site_type_symbol
_atom_site_fract_x
_atom_site_fract_y
_atom_site_fract_z
Zn1	Zn	1.197207	-0.284921	-0.766908
Zn2	Zn	1.697207	0.215079	-0.266908
Zn3	Zn	1.197104	-0.413558	-0.638287
Zn4	Zn	1.697104	0.086442	-0.138287
Zn5	Zn	1.077921	-0.275615	-0.593782
Zn6	Zn	1.577921	0.224385	-0.093782
Zn7	Zn	1.014744	-0.467255	-0.766759
Zn8	Zn	1.514744	0.032745	-0.266759
O9	O	1.121744	-0.360337	-0.691434
O10	O	1.621744	0.139663	-0.191434
O11	O	1.323433	-0.283407	-0.768533
O12	O	1.823433	0.216593	-0.268533
O13	O	1.207691	-0.368892	-0.506163
O14	O	1.707691	0.131108	-0.006163
O15	O	1.120227	-0.142813	-0.598184
O16	O	1.620227	0.357187	-0.098184
O17	O	1.323358	-0.377916	-0.674036
O18	O	1.823358	0.122084	-0.174036
O19	O	1.207866	-0.149650	-0.725379
O20	O	1.707866	0.350350	-0.225379
O21	O	1.120127	-0.267547	-0.473466
O22	O	1.620127	0.232453	0.026534
O23	O	0.943300	-0.319615	-0.598040
O24	O	1.443300	0.180385	-0.098040
O25	O	1.012552	-0.469435	-0.892998
O26	O	1.512552	0.030565	-0.392998
O27	O	0.896885	-0.460411	-0.725125
O28	O	1.396885	0.039589	-0.225125
O29	O	1.146606	-0.335475	-0.893107
O30	O	1.646606	0.164525	-0.393107
O31	O	1.146431	-0.554717	-0.673892
O32	O	1.646431	-0.054717	-0.173892
O33	O	1.012452	-0.594168	-0.768280
O34	O	1.512452	-0.094168	-0.268280
C35	C	0.887360	-0.394831	-0.656738
C36	C	1.387360	0.105169	-0.156738
C37	C	0.787080	-0.409615	-0.641919
C38	C	1.287080	0.090385	-0.141919
C39	C	0.739966	-0.465650	-0.585652
C40	C	1.239966	0.034350	-0.085652
C41	C	0.645747	-0.479544	-0.571734
C42	C	1.145747	0.020456	-0.071734
C43	C	0.598634	-0.437397	-0.614076
C44	C	1.098634	0.062603	-0.114076
C45	C	0.645750	-0.381355	-0.670340
C46	C	1.145750	0.118645	-0.170340
C47	C	0.739976	-0.367466	-0.684265
C48	C	1.239976	0.132534	-0.184265
C49	C	0.598644	-0.339213	-0.712689
C50	C	1.098644	0.160787	-0.212689
C51	C	0.645760	-0.283171	-0.768952
C52	C	1.145760	0.216829	-0.268952
C53	C	0.739977	-0.269285	-0.782874
C54	C	1.239977	0.230715	-0.282874
C55	C	0.787090	-0.311431	-0.740532
C56	C	1.287090	0.188569	-0.240532
C57	C	0.504418	-0.353102	-0.698764
C58	C	1.004418	0.146898	-0.198764
C59	C	0.504428	-0.254918	-0.797376
C60	C	1.004428	0.245082	-0.297376
C61	C	0.598647	-0.241025	-0.811294
C62	C	1.098647	0.258975	-0.311294
C63	C	1.072596	-0.609198	-0.725922
C64	C	1.572596	-0.109198	-0.225922
C65	C	1.051646	-0.715655	-0.740719
C66	C	1.551646	-0.215655	-0.240719
C67	C	1.271783	-0.933460	-0.586042
C68	C	1.771783	-0.433460	-0.086042
C69	C	1.291466	-0.833436	-0.572136
C70	C	1.791466	-0.333436	-0.072136
C71	C	1.231513	-0.803986	-0.614280
C72	C	1.731513	-0.303986	-0.114280
C73	C	1.151872	-0.874569	-0.670334
C74	C	1.651872	-0.374569	-0.170334
C75	C	1.132183	-0.974602	-0.684236
C76	C	1.632183	-0.474602	-0.184236
C77	C	1.091913	-0.845128	-0.712474
C78	C	1.591913	-0.345128	-0.212474
C79	C	1.012272	-0.915711	-0.768528
C80	C	1.512272	-0.415711	-0.268528
C81	C	0.992586	-1.015734	-0.782428
C82	C	1.492586	-0.515734	-0.282428
C83	C	1.052540	-1.045184	-0.740284
C84	C	1.552540	-0.545184	-0.240284
C85	C	1.111603	-0.745095	-0.698572
C86	C	1.611603	-0.245095	-0.198572
C87	C	0.972003	-0.786238	-0.796766
C88	C	1.472003	-0.286238	-0.296766
C89	C	0.952319	-0.886261	-0.810673
C90	C	1.452319	-0.386261	-0.310673
C91	C	1.357044	-0.325709	-0.726266
C92	C	1.857044	0.174291	-0.226266
C93	C	1.457314	-0.310953	-0.741109
C94	C	1.957314	0.189047	-0.241109
C95	C	1.072543	-0.409482	-0.926695
C96	C	1.572543	0.090518	-0.426695
C97	C	1.051577	-0.430425	-1.026950
C98	C	1.551577	0.069575	-0.526950
C99	C	1.171105	-0.110505	-0.656834
C100	C	1.671105	0.389495	-0.156834
C101	C	1.192140	-0.004042	-0.642090
C102	C	1.692140	0.495958	-0.142090
C103	C	1.271662	-0.210483	-1.309780
C104	C	1.771662	0.289517	-0.809780
C105	C	1.291366	-0.190807	-1.215587
C106	C	1.791366	0.309193	-0.715587
C107	C	1.231420	-0.250709	-1.168423
C108	C	1.731420	0.249291	-0.668423
C109	C	1.151767	-0.330292	-1.215462
C110	C	1.651767	0.169708	-0.715462
C111	C	1.132065	-0.349975	-1.309665
C112	C	1.632065	0.150025	-0.809665
C113	C	1.091823	-0.390201	-1.168308
C114	C	1.591823	0.109799	-0.668308
C115	C	1.012170	-0.469784	-1.215346
C116	C	1.512170	0.030216	-0.715346
C117	C	0.992471	-0.489462	-1.309541
C118	C	1.492471	0.010538	-0.809541
C119	C	1.052416	-0.429560	-1.356705
C120	C	1.552416	0.070440	-0.856705
C121	C	1.111526	-0.370519	-1.074104
C122	C	1.611526	0.129481	-0.574104
C123	C	0.971928	-0.510011	-1.073989
C124	C	1.471928	-0.010011	-0.573989
C125	C	0.952224	-0.529687	-1.168182
C126	C	1.452224	-0.029687	-0.668182
C127	C	1.170819	-0.311306	-0.457085
C128	C	1.670819	0.188694	0.042915
C129	C	1.192014	-0.290068	-0.356820
C130	C	1.692014	0.209932	0.143180
H131	H	0.521917	-0.448712	-0.602741
H132	H	1.021917	0.051288	-0.102741
H133	H	0.923182	-0.762261	-0.831082
H134	H	1.423182	-0.262261	-0.331082
Br135	Br	1.353016	-0.129206	-1.373795
Br136	Br	1.853016	0.370794	-0.873795
H137	H	1.036519	-1.126630	-0.751606
H138	H	1.536519	-0.626630	-0.251606
Br139	Br	1.258162	-0.224004	-1.040587
Br140	Br	1.758162	0.275996	-0.540587
Br141	Br	0.662599	-0.164970	-0.887649
Br142	Br	1.162599	0.335030	-0.387649
H143	H	0.927729	-1.073201	-0.828059
H144	H	1.427729	-0.573201	-0.328059
H145	H	1.247544	-0.722541	-0.602953
H146	H	1.747544	-0.222541	-0.102953
H147	H	0.923117	-0.558790	-1.035589
H148	H	1.423117	-0.058790	-0.535589
H149	H	1.356309	-0.775971	-0.526496
H150	H	1.856309	-0.275971	-0.026496
H151	H	0.607393	-0.525173	-0.525925
H152	H	1.107393	-0.025173	-0.025925
Br153	Br	0.803904	-0.522855	-0.528207
Br154	Br	1.303904	-0.022855	-0.028207
Br155	Br	1.353134	-0.973433	-0.528848
Br156	Br	1.853134	-0.473433	-0.028848
H157	H	0.887474	-0.943743	-0.856312
H158	H	1.387474	-0.443743	-0.356312
Br159	Br	1.399464	-0.082809	-1.151757
Br160	Br	1.899464	0.417191	-0.651757
H161	H	0.466065	-0.398733	-0.652955
H162	H	0.966065	0.101267	-0.152955
Br163	Br	1.025680	-0.456264	-1.484545
Br164	Br	1.525680	0.043736	-0.984545
H165	H	1.176380	-0.305721	-1.035815
H166	H	1.676380	0.194279	-0.535815
Br167	Br	0.884384	-0.597485	-1.373383
Br168	Br	1.384384	-0.097485	-0.873383
Br169	Br	0.844126	-0.637688	-1.232030
Br170	Br	1.344126	-0.137688	-0.732030
H171	H	0.863812	-0.300119	-0.751858
H172	H	1.363812	0.199881	-0.251858
H173	H	0.778332	-0.223662	-0.828696
H174	H	1.278332	0.276338	-0.328696
H175	H	0.466068	-0.220600	-0.831856
H176	H	0.966068	0.279400	-0.331856
Br177	Br	1.219682	-0.649316	-0.622500
Br178	Br	1.719682	-0.149316	-0.122500
