data_functionalizedCrystal
_audit_creation_method	'MofGen! by Chris Wilmer'
_symmetry_space_group_name_H-M	'P1'
_symmetry_Int_Tables_number	1
_symmetry_cell_setting	triclinic
loop_
_symmetry_equiv_pos_as_xyz
  x,y,z
_cell_length_a	18.101398
_cell_length_b	21.295417
_cell_length_c	18.101389
_cell_angle_alpha	90.022566
_cell_angle_beta	90.024327
_cell_angle_gamma	90.025773
loop_
_atom_site_label
_atom_site_type_symbol
_atom_site_fract_x
_atom_site_fract_y
_atom_site_fract_z
Zn1	Zn	1.132124	-0.250755	0.418817
Zn2	Zn	1.132021	-0.356008	0.294967
Zn3	Zn	1.008283	-0.250748	0.294979
Zn4	Zn	1.008235	-0.355981	0.418755
O5	O	1.070166	-0.303373	0.356880
O6	O	1.235743	-0.264731	0.402409
O7	O	1.115584	-0.342054	0.191335
O8	O	1.024774	-0.162660	0.311437
O9	O	1.235668	-0.342060	0.311417
O10	O	1.115759	-0.162664	0.402421
O11	O	1.024674	-0.264720	0.191344
O12	O	0.904644	-0.264694	0.311377
O13	O	1.024692	-0.342014	0.522397
O14	O	0.904609	-0.342008	0.402315
O15	O	1.115713	-0.264705	0.522442
O16	O	1.115538	-0.444094	0.311357
O17	O	1.024592	-0.444074	0.402304
C18	C	0.877755	-0.303348	0.356841
C19	C	0.795441	-0.303352	0.356842
C20	C	0.496350	-0.303391	0.356904
C21	C	0.527673	-0.254504	0.299967
C22	C	0.613291	-0.254635	0.299724
C23	C	0.644733	-0.303371	0.356873
C24	C	0.613615	-0.369679	0.335543
C25	C	0.527970	-0.369407	0.335147
C26	C	0.527965	-0.286547	0.435305
C27	C	0.613615	-0.285070	0.434877
C28	C	0.728592	-0.303364	0.356857
C29	C	0.412491	-0.303403	0.356919
C30	C	1.070069	-0.466925	0.356839
C31	C	1.070095	-0.536893	0.356846
C32	C	1.117492	-0.569749	0.309538
C33	C	1.117527	-0.635491	0.309555
C34	C	1.070151	-0.668375	0.356871
C35	C	1.022751	-0.635511	0.404188
C36	C	1.022722	-0.569770	0.404175
N37	N	1.005367	-0.771637	0.362504
N38	N	1.005396	-0.834089	0.362512
C39	C	1.070234	-0.866450	0.356914
N40	N	1.135044	-0.834001	0.351293
N41	N	1.135014	-0.771543	0.351282
C42	C	1.070177	-0.739661	0.356891
C43	C	1.117673	-0.970592	0.309622
C44	C	1.117709	-1.036335	0.309644
C45	C	1.022926	-1.036354	0.404273
C46	C	1.022897	-0.970612	0.404255
C47	C	1.070269	-0.937734	0.356925
C48	C	1.263328	-0.303399	0.356919
C49	C	1.345642	-0.303410	0.356935
C50	C	1.070209	-0.303357	0.550042
C51	C	1.070227	-0.303350	0.632356
C52	C	1.070283	-0.139183	0.356937
C53	C	1.070334	-0.069215	0.356961
C54	C	1.070166	-0.303344	0.164469
C55	C	1.070291	-0.303173	0.082155
C56	C	1.070270	-0.303232	0.931447
C57	C	1.012805	-0.351719	0.900093
C58	C	1.012960	-0.351944	0.814475
C59	C	1.070248	-0.303291	0.783064
C60	C	1.148274	-0.321303	0.814168
C61	C	1.147953	-0.321621	0.899813
C62	C	1.050388	-0.236626	0.899877
C63	C	1.048652	-0.237011	0.814226
C64	C	1.070240	-0.303323	0.699205
C65	C	1.070283	-0.303202	1.015306
H66	H	0.507959	-0.383693	0.277832
N67	N	0.499132	-0.269082	0.223461
H68	H	0.519517	-0.237463	0.187226
H69	H	0.443398	-0.266909	0.223405
N70	N	0.640390	-0.269396	0.222777
H71	H	0.696184	-0.269542	0.222299
H72	H	0.621588	-0.236488	0.187288
H73	H	0.507249	-0.407065	0.374809
N74	N	1.100049	-0.186616	0.785912
H75	H	1.084825	-0.144600	0.806842
H76	H	1.097433	-0.185130	0.730206
H77	H	1.156067	-0.542982	0.271002
H78	H	0.984178	-0.662290	0.442715
N79	N	0.640561	-0.419220	0.388769
H80	H	0.673281	-0.399110	0.427310
H81	H	0.669569	-0.452060	0.360875
N82	N	0.935926	-0.336935	0.927340
H83	H	0.937599	-0.298666	0.960276
H84	H	0.916171	-0.373883	0.956195
N85	N	0.971598	-0.534328	0.455200
H86	H	0.941591	-0.565133	0.485181
H87	H	0.937332	-0.507092	0.425012
H88	H	0.984355	-1.063127	0.442802
H89	H	0.506392	-0.239037	0.454697
H90	H	1.156249	-0.943822	0.271085
N91	N	1.206508	-0.275995	0.787216
H92	H	1.245168	-0.299625	0.758154
H93	H	1.230504	-0.254731	0.830962
N94	N	1.030030	-0.416723	0.928572
H95	H	1.074893	-0.414900	0.961699
H96	H	1.040253	-0.445607	0.885511
N97	N	0.971768	-0.935166	0.455271
H98	H	0.983240	-0.946573	0.508199
H99	H	0.918888	-0.946664	0.443651
H100	H	0.635030	-0.384213	0.278847
N101	N	0.936330	-0.336986	0.786608
H102	H	0.902143	-0.330189	0.829960
H103	H	0.917560	-0.373112	0.755678
H104	H	1.156310	-1.063086	0.271122
N105	N	1.030355	-0.417343	0.787349
H106	H	1.080528	-0.430498	0.806225
H107	H	1.030481	-0.417731	0.731556
N108	N	1.170279	-0.386114	0.926286
H109	H	1.180234	-0.414070	0.882320
H110	H	1.129081	-0.404691	0.956903
N111	N	0.976333	-0.214885	0.928466
H112	H	0.954921	-0.247997	0.962178
H113	H	0.941751	-0.207693	0.885499
N114	N	1.206598	-0.276885	0.927296
H115	H	1.256539	-0.290777	0.908567
H116	H	1.206782	-0.276764	0.983090
N117	N	1.170989	-0.385113	0.785762
H118	H	1.133752	-0.417572	0.802155
H119	H	1.221276	-0.396228	0.806092
N120	N	0.972596	-0.219010	0.787296
H121	H	0.952208	-0.253640	0.755043
H122	H	0.975847	-0.178859	0.757797
N123	N	1.105819	-0.188767	0.926735
H124	H	1.156864	-0.201001	0.909434
H125	H	1.104906	-0.187189	0.982491
N126	N	0.641169	-0.189504	0.317428
H127	H	0.597822	-0.160450	0.325461
H128	H	0.672066	-0.173537	0.274952
H129	H	0.633959	-0.236275	0.450961
H130	H	0.507102	-0.205183	0.313191
N131	N	0.641958	-0.328799	0.494088
H132	H	0.697667	-0.326598	0.495922
H133	H	0.626091	-0.373186	0.482434
N134	N	0.501138	-0.333700	0.491515
H135	H	0.518427	-0.377080	0.477048
H136	H	0.445383	-0.332923	0.493361
N137	N	1.168651	-0.670940	0.258530
H138	H	1.198657	-0.640136	0.228546
H139	H	1.138531	-0.698253	0.224237
