data_functionalizedCrystal
_audit_creation_method	'MofGen! by Chris Wilmer'
_symmetry_space_group_name_H-M	'P1'
_symmetry_Int_Tables_number	1
_symmetry_cell_setting	triclinic
loop_
_symmetry_equiv_pos_as_xyz
  x,y,z
_cell_length_a	17.699083
_cell_length_b	10.540539
_cell_length_c	16.176319
_cell_angle_alpha	89.995366
_cell_angle_beta	89.998611
_cell_angle_gamma	83.904253
loop_
_atom_site_label
_atom_site_type_symbol
_atom_site_fract_x
_atom_site_fract_y
_atom_site_fract_z
O1	O	1.005122	0.160521	-0.068627
O2	O	0.784880	0.181405	-0.068653
O3	O	0.900026	-0.013836	-0.068638
O4	O	0.889976	0.355761	-0.068642
O5	O	0.900010	-0.013848	0.068855
O6	O	0.784864	0.181392	0.068840
O7	O	1.005106	0.160508	0.068866
Cu8	Cu	0.894984	0.170949	0.081407
Cu9	Cu	0.895003	0.170964	-0.081194
O10	O	0.889960	0.355749	0.068852
C11	C	0.756670	0.180650	0.000090
C12	C	0.672637	0.178405	0.000080
C13	C	0.624761	0.293007	0.000079
C14	C	0.545804	0.290890	0.000090
C15	C	0.514725	0.174170	0.000095
C16	C	0.562607	0.059559	0.000098
C17	C	0.641562	0.061677	0.000094
C18	C	0.244188	0.051014	0.000119
C19	C	0.165226	0.048904	0.000121
C20	C	0.148430	0.280227	0.000115
C21	C	0.227386	0.282345	0.000110
C22	C	0.275261	0.167735	0.000118
C23	C	0.360875	0.170032	0.000108
C24	C	0.429112	0.171872	0.000099
C25	C	0.899264	-0.061131	0.000107
C26	C	0.897009	-0.202038	0.000102
C27	C	0.810610	-0.383885	-0.000217
C28	C	0.812896	-0.237308	0.000093
C29	C	0.937479	-0.264443	0.078622
C30	C	0.934609	-0.410935	0.078688
C31	C	0.936338	-0.411471	-0.077667
C32	C	0.937113	-0.264503	-0.078705
C33	C	1.033316	0.161263	0.000122
C34	C	1.117349	0.163508	0.000126
C35	C	0.890722	0.403044	0.000105
C36	C	0.892977	0.543951	0.000104
N37	N	0.894976	0.170938	0.195773
N38	N	0.895016	0.170965	-0.195559
C39	C	0.945978	0.084521	0.239043
C40	C	0.945982	0.084519	0.325591
C41	C	0.894987	0.170942	0.368865
C42	C	0.843979	0.257364	0.325588
C43	C	0.843972	0.257358	0.239043
C44	C	0.844005	0.257387	0.674617
C45	C	0.844017	0.257389	0.761168
C46	C	0.946015	0.084549	0.761164
C47	C	0.946008	0.084543	0.674619
C48	C	0.894998	0.170959	0.631349
C49	C	0.894993	0.170958	0.537505
C50	C	0.894994	0.170951	0.462708
H51	H	0.139925	-0.046149	0.000127
Br52	Br	0.890604	-0.192599	0.176005
H53	H	0.680543	-0.031644	0.000094
Br54	Br	0.890968	-0.463202	-0.176861
Br55	Br	1.035430	-0.492738	0.084648
H56	H	0.802472	0.327753	0.639394
Br57	Br	0.774805	0.374686	0.819899
H58	H	0.904686	-0.438593	0.137376
H59	H	0.987511	0.014151	0.360821
H60	H	0.999250	-0.243219	0.081549
H61	H	0.777512	-0.413492	0.055768
Br62	Br	0.520428	-0.098850	0.000114
H63	H	0.781052	-0.194117	-0.056194
Br64	Br	0.774763	0.374646	0.384315
H65	H	0.987548	0.014180	0.796403
Br66	Br	0.666933	0.451422	0.000063
H67	H	0.777390	-0.411872	-0.056526
H68	H	0.802440	0.327726	0.203813
H69	H	0.109440	0.373548	0.000113
H70	H	0.506826	0.384211	0.000088
Br71	Br	0.269561	0.440756	0.000095
Br72	Br	0.759421	-0.166730	0.094048
Br73	Br	0.309152	-0.104529	0.000131
Br74	Br	0.888180	-0.194675	-0.175538
H75	H	0.998438	-0.241403	-0.083439
H76	H	0.987508	0.014151	0.203815
H77	H	0.997092	-0.459808	-0.078188
Br78	Br	1.015222	-0.032741	0.615891
