data_functionalizedCrystal
_audit_creation_method	'MofGen! by Chris Wilmer'
_symmetry_space_group_name_H-M	'P1'
_symmetry_Int_Tables_number	1
_symmetry_cell_setting	triclinic
loop_
_symmetry_equiv_pos_as_xyz
  x,y,z
_cell_length_a	18.101398
_cell_length_b	16.120484
_cell_length_c	16.120297
_cell_angle_alpha	95.614431
_cell_angle_beta	87.126816
_cell_angle_gamma	87.078898
loop_
_atom_site_label
_atom_site_type_symbol
_atom_site_fract_x
_atom_site_fract_y
_atom_site_fract_z
Zn1	Zn	1.094029	0.356856	0.489576
Zn2	Zn	1.093936	0.489546	0.356886
Zn3	Zn	0.976801	0.349780	0.349809
Zn4	Zn	0.963541	0.496574	0.496594
O5	O	1.032077	0.423189	0.423216
O6	O	1.197647	0.374477	0.471999
O7	O	1.083907	0.465103	0.238986
O8	O	0.997939	0.233754	0.362450
O9	O	1.197579	0.471964	0.374512
O10	O	1.084067	0.238953	0.465136
O11	O	0.997849	0.362418	0.233786
O12	O	0.871411	0.369233	0.369255
O13	O	0.975341	0.483942	0.612624
O14	O	0.861669	0.477082	0.477098
O15	O	1.071210	0.381292	0.607468
O16	O	1.071050	0.607443	0.381318
O17	O	0.975250	0.612606	0.483961
C18	C	0.839670	0.423153	0.423171
C19	C	0.757355	0.423158	0.423172
C20	C	1.021721	0.640353	0.434187
C21	C	1.017357	0.733258	0.438908
C22	C	1.021807	0.434191	0.641221
C23	C	1.017430	0.438879	0.734121
C24	C	0.458259	0.423214	0.423245
C25	C	0.495689	0.355052	0.355692
C26	C	0.581312	0.355212	0.355427
C27	C	0.606644	0.423186	0.423209
C28	C	0.572506	0.510013	0.403602
C29	C	0.486899	0.509630	0.403137
C30	C	0.486744	0.405322	0.510595
C31	C	0.572510	0.403337	0.510013
C32	C	0.690505	0.423175	0.423190
C33	C	0.374398	0.423231	0.423262
C34	C	1.225235	0.423226	0.423262
C35	C	1.307547	0.423242	0.423282
C36	C	1.042492	0.205178	0.412221
C37	C	1.046931	0.112274	0.407535
C38	C	1.009393	0.903357	0.447546
C39	C	1.054893	0.942181	0.398900
C40	C	1.050461	1.036830	0.403706
C41	C	1.013823	0.808700	0.442741
C42	C	1.042352	0.412170	0.206056
C43	C	1.046884	0.407246	0.113144
C44	C	1.009413	0.447420	0.904211
C45	C	1.054898	0.398707	0.943061
C46	C	1.050437	0.403460	1.037704
C47	C	1.013873	0.442669	0.809559
H48	H	0.604722	0.290686	0.367205
C49	C	1.112009	0.891062	0.337753
C50	C	1.109952	0.898226	0.243327
C51	C	1.167064	0.847105	0.182179
C52	C	1.226232	0.788819	0.215457
C53	C	1.228292	0.781652	0.309888
C54	C	1.171180	0.832774	0.371036
H55	H	1.066150	0.941375	0.218688
H56	H	1.165539	0.852410	0.112275
H57	H	1.268510	0.750976	0.170192
H58	H	1.272094	0.738504	0.334527
H59	H	1.172705	0.827468	0.440940
H60	H	1.097188	0.353433	0.905242
C61	C	0.471128	0.267596	0.371358
C62	C	0.416782	0.256998	0.445680
C63	C	0.392217	0.169539	0.461349
C64	C	0.421998	0.092678	0.402696
C65	C	0.476347	0.103274	0.328369
C66	C	0.500912	0.190733	0.312700
H67	H	0.394733	0.313897	0.489104
H68	H	0.351984	0.161695	0.516371
H69	H	0.403813	0.027936	0.414295
H70	H	0.498395	0.046375	0.284945
H71	H	0.541145	0.198576	0.257678
C72	C	0.469810	0.370336	0.268631
C73	C	0.414889	0.444378	0.258666
C74	C	0.389010	0.459666	0.171606
C75	C	0.418052	0.400911	0.094512
C76	C	0.472976	0.326864	0.104475
C77	C	0.498855	0.311576	0.191535
H78	H	0.393388	0.487876	0.315737
H79	H	0.348352	0.514480	0.164231
H80	H	0.398895	0.412228	0.030065
H81	H	0.494478	0.283366	0.047403
H82	H	0.539514	0.256761	0.198910
C83	C	0.612197	0.370719	0.267870
C84	C	0.558935	0.383000	0.197973
C85	C	0.589820	0.398512	0.110413
C86	C	0.673967	0.401744	0.092750
C87	C	0.727234	0.389463	0.162648
C88	C	0.696350	0.373950	0.250208
H89	H	0.496639	0.380607	0.211047
H90	H	0.550387	0.407604	0.058670
H91	H	0.696830	0.413228	0.027933
H92	H	0.789530	0.391855	0.149574
H93	H	0.735782	0.364859	0.301951
H94	H	0.469051	0.525329	0.339413
H95	H	0.967127	0.492690	0.942027
C96	C	0.452846	0.580245	0.467020
C97	C	0.503566	0.636807	0.518292
C98	C	0.469518	0.707427	0.582167
C99	C	0.384749	0.721485	0.594768
C100	C	0.334024	0.664921	0.543494
C101	C	0.368073	0.594301	0.479620
H102	H	0.566321	0.626403	0.508965
H103	H	0.507068	0.749299	0.620123
H104	H	0.359544	0.773762	0.642052
H105	H	0.271269	0.675326	0.552822
H106	H	0.330522	0.552429	0.441664
C107	C	0.460234	0.321595	0.535844
C108	C	0.411363	0.319446	0.616511
C109	C	0.384854	0.235715	0.641750
C110	C	0.407216	0.154133	0.586321
C111	C	0.456089	0.156279	0.505648
C112	C	0.482598	0.240010	0.480409
H113	H	0.394807	0.379840	0.657548
H114	H	0.348675	0.234126	0.701469
H115	H	0.387592	0.092150	0.605003
H116	H	0.472645	0.095885	0.464611
H117	H	0.518778	0.241599	0.420690
H118	H	0.595056	0.339464	0.524878
C119	C	0.593950	0.580205	0.468247
C120	C	0.642827	0.559448	0.539764
C121	C	0.664273	0.629638	0.604410
C122	C	0.636842	0.720585	0.597539
C123	C	0.587963	0.741347	0.526019
C124	C	0.566517	0.671156	0.461373
H125	H	0.663135	0.492119	0.544853
H126	H	0.700456	0.614269	0.657354
H127	H	0.652718	0.772544	0.645394
H128	H	0.567655	0.808675	0.520931
H129	H	0.530334	0.686526	0.408430
C130	C	0.952271	0.954479	0.508675
C131	C	0.868956	0.942311	0.501161
C132	C	0.811834	0.993445	0.562286
C133	C	0.838027	1.056746	0.630924
C134	C	0.921346	1.068917	0.638441
C135	C	0.978468	1.017783	0.577316
H136	H	0.849563	0.895449	0.450348
H137	H	0.750155	0.984435	0.556721
H138	H	0.795741	1.094599	0.676173
H139	H	0.940739	1.115779	0.689254
H140	H	1.040147	1.026793	0.582881
H141	H	0.589458	0.449723	0.562681
C142	C	0.453303	0.472458	0.578525
C143	C	0.504504	0.527810	0.630436
C144	C	0.471061	0.594947	0.698359
C145	C	0.386417	0.606733	0.714370
C146	C	0.335210	0.551379	0.662458
C147	C	0.368654	0.484242	0.594535
H148	H	0.567168	0.519087	0.618584
H149	H	0.508968	0.635923	0.736788
H150	H	0.361660	0.656432	0.764651
H151	H	0.272547	0.560102	0.674309
H152	H	0.330747	0.443266	0.556106
C153	C	0.604284	0.531717	0.318478
C154	C	0.552075	0.545693	0.247982
C155	C	0.583852	0.567390	0.162856
C156	C	0.667837	0.575112	0.148225
C157	C	0.720051	0.561135	0.218723
C158	C	0.688275	0.539438	0.303850
H159	H	0.489899	0.539977	0.258811
H160	H	0.545199	0.577737	0.110669
H161	H	0.691360	0.591174	0.085210
H162	H	0.782227	0.566851	0.207895
H163	H	0.726927	0.529091	0.356037
