data_functionalizedCrystal
_audit_creation_method	'MofGen! by Chris Wilmer'
_symmetry_space_group_name_H-M	'P1'
_symmetry_Int_Tables_number	1
_symmetry_cell_setting	triclinic
loop_
_symmetry_equiv_pos_as_xyz
  x,y,z
_cell_length_a	16.959447
_cell_length_b	14.908571
_cell_length_c	14.908520
_cell_angle_alpha	90.205961
_cell_angle_beta	86.733916
_cell_angle_gamma	93.308220
loop_
_atom_site_label
_atom_site_type_symbol
_atom_site_fract_x
_atom_site_fract_y
_atom_site_fract_z
Zn1	Zn	-0.537362	-1.353918	0.437386
Zn2	Zn	-0.204028	-1.020585	0.770719
Zn3	Zn	0.129305	-0.687252	1.104053
Zn4	Zn	-0.412339	-1.345146	0.587755
Zn5	Zn	-0.079006	-1.011813	0.921089
Zn6	Zn	0.254328	-0.678479	1.254422
Zn7	Zn	-0.397172	-1.203565	0.428733
Zn8	Zn	-0.063838	-0.870232	0.762066
Zn9	Zn	0.269495	-0.536899	1.095400
Zn10	Zn	-0.536448	-1.194846	0.579010
Zn11	Zn	-0.203115	-0.861513	0.912343
Zn12	Zn	0.130219	-0.528180	1.245677
O13	O	-0.470830	-1.274369	0.508221
O14	O	-0.137497	-0.941036	0.841554
O15	O	0.195837	-0.607702	1.174888
O16	O	-0.527507	-1.478579	0.464614
O17	O	-0.194174	-1.145246	0.797947
O18	O	0.139160	-0.811912	1.131281
O19	O	-0.299717	-1.326343	0.566700
O20	O	0.033616	-0.993009	0.900033
O21	O	0.366950	-0.659676	1.233366
O22	O	-0.409803	-1.230830	0.304059
O23	O	-0.076469	-0.897497	0.637393
O24	O	0.256864	-0.564164	0.970726
O25	O	-0.435653	-1.472134	0.575090
O26	O	-0.102320	-1.138801	0.908423
O27	O	0.231013	-0.805467	1.241756
O28	O	-0.512800	-1.341294	0.310416
O29	O	-0.179466	-1.007961	0.643750
O30	O	0.153867	-0.674627	0.977083
O31	O	-0.288573	-1.222324	0.449866
O32	O	0.044760	-0.888991	0.783200
O33	O	0.378093	-0.555657	1.116533
O34	O	-0.408917	-1.076585	0.441386
O35	O	-0.075584	-0.743251	0.774720
O36	O	0.257750	-0.409918	1.108053
O37	O	-0.647179	-1.215970	0.560184
O38	O	-0.313846	-0.882637	0.893518
O39	O	0.019487	-0.549303	1.226851
O40	O	-0.511243	-1.070179	0.551794
O41	O	-0.177909	-0.736845	0.885128
O42	O	0.155424	-0.403512	1.218461
O43	O	-0.647850	-1.332840	0.456134
O44	O	-0.314517	-0.999506	0.789467
O45	O	0.018816	-0.666173	1.122800
O46	O	-0.434768	-1.317888	0.712417
O47	O	-0.101434	-0.984555	1.045750
O48	O	0.231899	-0.651222	1.379084
O49	O	-0.525950	-1.207464	0.705992
O50	O	-0.192617	-0.874130	1.039325
O51	O	0.140717	-0.540797	1.372658
C52	C	-0.481924	-1.260802	0.741830
C53	C	-0.148591	-0.927469	1.075163
C54	C	0.184743	-0.594136	1.408496
C55	C	-0.486701	-1.255081	0.841773
C56	C	-0.153368	-0.921747	1.175107
C57	C	0.179966	-0.588414	1.508440
C58	C	-0.458335	-1.040757	0.494703
C59	C	-0.125002	-0.707423	0.828036
C60	C	0.208331	-0.374090	1.161370
C61	C	-0.453010	-0.940815	0.488942
C62	C	-0.119676	-0.607482	0.822275
C63	C	0.213657	-0.274149	1.155608
C64	C	-0.676997	-1.274411	0.508149
C65	C	-0.343663	-0.941077	0.841482
C66	C	-0.010330	-0.607744	1.174815
C67	C	-0.764853	-1.274429	0.508118
C68	C	-0.431519	-0.941095	0.841451
C69	C	-0.098186	-0.607762	1.174785
C70	C	-1.135983	-1.213693	0.562204
C71	C	-0.802649	-0.880359	0.895537
C72	C	-0.469316	-0.547026	1.228870
C73	C	-1.136677	-1.335390	0.453855
C74	C	-0.803343	-1.002057	0.787188
C75	C	-0.470010	-0.668723	1.120522
C76	C	-1.054131	-1.335365	0.453873
C77	C	-0.720797	-1.002032	0.787206
C78	C	-0.387464	-0.668698	1.120539
C79	C	-1.012507	-1.274504	0.508058
C80	C	-0.679173	-0.941171	0.841391
C81	C	-0.345840	-0.607837	1.174724
C82	C	-1.053429	-1.213668	0.562225
C83	C	-0.720096	-0.880334	0.895558
C84	C	-0.386762	-0.547001	1.228892
C85	C	-1.013203	-1.396206	0.399713
C86	C	-0.679869	-1.062873	0.733047
C87	C	-0.346536	-0.729540	1.066380
C88	C	-0.930651	-1.396184	0.399729
C89	C	-0.597318	-1.062851	0.733063
C90	C	-0.263985	-0.729518	1.066396
C91	C	-0.889025	-1.335318	0.453910
C92	C	-0.555692	-1.001985	0.787244
C93	C	-0.222359	-0.668651	1.120577
C94	C	-0.929953	-1.274479	0.508079
C95	C	-0.596620	-0.941145	0.841412
C96	C	-0.263286	-0.607812	1.174746
C97	C	-0.888329	-1.213617	0.562264
C98	C	-0.554996	-0.880284	0.895597
C99	C	-0.221662	-0.546951	1.228931
C100	C	-0.929254	-1.152773	0.616429
C101	C	-0.595921	-0.819440	0.949762
C102	C	-0.262588	-0.486106	1.283095
C103	C	-1.011803	-1.152801	0.616406
C104	C	-0.678470	-0.819468	0.949739
C105	C	-0.345137	-0.486135	1.283073
C106	C	-0.806477	-1.335290	0.453933
C107	C	-0.473143	-1.001956	0.787266
C108	C	-0.139810	-0.668623	1.120600
C109	C	-0.805775	-1.213592	0.562285
C110	C	-0.472442	-0.880259	0.895619
C111	C	-0.139109	-0.546926	1.228952
C112	C	-0.265465	-1.274383	0.508231
C113	C	0.067868	-0.941050	0.841564
C114	C	0.401202	-0.607716	1.174898
C115	C	-0.177607	-1.274554	0.508019
C116	C	0.155727	-0.941221	0.841352
C117	C	0.489060	-0.607887	1.174685
C118	C	-0.483374	-1.508893	0.521793
C119	C	-0.150041	-1.175560	0.855126
C120	C	0.183293	-0.842227	1.188459
C121	C	-0.488719	-1.608834	0.527576
C122	C	-0.155386	-1.275501	0.860909
C123	C	0.177947	-0.942167	1.194243
C124	C	-0.549427	-0.746382	0.593261
C125	C	-0.216094	-0.413049	0.926595
C126	C	0.117240	-0.079715	1.259928
C127	C	-0.544426	-0.652478	0.587851
C128	C	-0.211093	-0.319144	0.921184
C129	C	0.122240	0.014189	1.254517
C130	C	-0.438011	-0.659101	0.472706
C131	C	-0.104678	-0.325768	0.806039
C132	C	0.228655	0.007566	1.139373
C133	C	-0.443012	-0.753005	0.478116
C134	C	-0.109679	-0.419672	0.811450
C135	C	0.223654	-0.086339	1.144783
C136	C	-0.498721	-0.796642	0.538397
C137	C	-0.165388	-0.463309	0.871730
C138	C	0.167945	-0.129976	1.205064
C139	C	-0.503718	-0.890548	0.543812
C140	C	-0.170385	-0.557215	0.877145
C141	C	0.162949	-0.223881	1.210478
C142	C	-0.397307	-0.897170	0.428663
C143	C	-0.063974	-0.563836	0.761996
C144	C	0.269359	-0.230503	1.095330
C145	C	-0.392306	-0.803266	0.423252
C146	C	-0.058973	-0.469932	0.756586
C147	C	0.274360	-0.136599	1.089919
C148	C	-0.459711	-1.288013	0.273702
C149	C	-0.126378	-0.954680	0.607035
C150	C	0.206955	-0.621347	0.940368
C151	C	-0.454973	-1.293828	0.173763
C152	C	-0.121640	-0.960494	0.507097
C153	C	0.211694	-0.627161	0.840430
C154	C	-0.400817	-1.359432	1.036214
C155	C	-0.067484	-1.026099	1.369548
C156	C	0.265850	-0.692766	1.702881
C157	C	-0.405303	-1.354059	1.130120
C158	C	-0.071970	-1.020726	1.463454
C159	C	0.261364	-0.687393	1.796787
C160	C	-0.500163	-1.238967	1.123494
C161	C	-0.166829	-0.905633	1.456827
C162	C	0.166504	-0.572300	1.790160
C163	C	-0.495677	-1.244340	1.029587
C164	C	-0.162343	-0.911006	1.362921
C165	C	0.170990	-0.577673	1.696254
C166	C	-0.446001	-1.304574	0.985951
C167	C	-0.112668	-0.971240	1.319285
C168	C	0.220665	-0.637907	1.652618
C169	C	-0.441512	-1.309941	0.892043
C170	C	-0.108178	-0.976608	1.225376
C171	C	0.225155	-0.643275	1.558710
C172	C	-0.536375	-1.194854	0.885418
C173	C	-0.203042	-0.861521	1.218752
C174	C	0.130292	-0.528187	1.552085
C175	C	-0.540861	-1.189481	0.979324
C176	C	-0.207528	-0.856148	1.312658
C177	C	0.125806	-0.522814	1.645991
H178	H	-0.771890	-1.164023	0.606401
H179	H	-0.438557	-0.830690	0.939735
H180	H	-0.105223	-0.497357	1.273068
H181	H	-0.346952	-0.767723	0.374171
H182	H	-0.013619	-0.434390	0.707505
H183	H	0.319715	-0.101057	1.040838
H184	H	-0.360363	-1.408471	1.000685
H185	H	-0.027030	-1.075137	1.334018
H186	H	0.306303	-0.741804	1.667351
H187	H	-0.895354	-1.103224	0.660550
H188	H	-0.562021	-0.769890	0.993884
H189	H	-0.228687	-0.436557	1.327217
H190	H	-0.368511	-1.398733	1.171041
H191	H	-0.035177	-1.065399	1.504375
H192	H	0.298156	-0.732066	1.837708
H193	H	-0.540611	-1.189933	1.159039
H194	H	-0.207278	-0.856600	1.492372
H195	H	0.126055	-0.523267	1.825706
H196	H	-0.401061	-1.358984	0.856515
H197	H	-0.067728	-1.025651	1.189849
H198	H	0.265605	-0.692318	1.523182
H199	H	-0.581307	-1.140443	1.014866
H200	H	-0.247974	-0.807110	1.348199
H201	H	0.085359	-0.473776	1.681533
H202	H	-0.573165	-1.150182	0.844483
H203	H	-0.239831	-0.816848	1.177816
H204	H	0.093502	-0.483515	1.511150
H205	H	-0.392661	-0.623556	0.423623
H206	H	-0.059327	-0.290222	0.756956
H207	H	0.274006	0.043111	1.090289
H208	H	-1.045132	-1.103268	0.660507
H209	H	-0.711799	-0.769935	0.993840
H210	H	-0.378466	-0.436601	1.327174
H211	H	-1.169308	-1.164152	0.606301
H212	H	-0.835974	-0.830819	0.939634
H213	H	-0.502641	-0.497486	1.272967
H214	H	-0.356017	-0.938102	0.383990
H215	H	-0.022684	-0.604768	0.717324
H216	H	0.310650	-0.271435	1.050657
H217	H	-0.549078	-0.926076	0.592897
H218	H	-0.215744	-0.592742	0.926230
H219	H	0.117589	-0.259409	1.259563
H220	H	-1.170572	-1.384945	0.409745
H221	H	-0.837239	-1.051612	0.743079
H222	H	-0.503906	-0.718279	1.076412
H223	H	-0.897337	-1.445727	0.355625
H224	H	-0.564003	-1.112394	0.688958
H225	H	-0.230670	-0.779060	1.022291
H226	H	-1.047099	-1.445761	0.355605
H227	H	-0.713766	-1.112428	0.688938
H228	H	-0.380433	-0.779095	1.022271
H229	H	-0.773159	-1.384831	0.409836
H230	H	-0.439826	-1.051497	0.743169
H231	H	-0.106492	-0.718164	1.076502
H232	H	-0.585718	-0.611559	0.632525
H233	H	-0.252384	-0.278226	0.965858
H234	H	0.080949	0.055107	1.299192
H235	H	-0.594784	-0.781912	0.642349
H236	H	-0.261450	-0.448578	0.975682
H237	H	0.071883	-0.115245	1.309016
