data_functionalizedCrystal
_audit_creation_method	'MofGen! by Chris Wilmer'
_symmetry_space_group_name_H-M	'P1'
_symmetry_Int_Tables_number	1
_symmetry_cell_setting	triclinic
loop_
_symmetry_equiv_pos_as_xyz
  x,y,z
_cell_length_a	18.215407
_cell_length_b	19.076808
_cell_length_c	18.215399
_cell_angle_alpha	92.328322
_cell_angle_beta	90.019833
_cell_angle_gamma	92.323864
loop_
_atom_site_label
_atom_site_type_symbol
_atom_site_fract_x
_atom_site_fract_y
_atom_site_fract_z
Zn1	Zn	1.113298	-0.280216	0.404332
Zn2	Zn	1.613298	0.219784	0.904332
Zn3	Zn	1.108261	-0.397924	0.276316
Zn4	Zn	1.608261	0.102076	0.776316
Zn5	Zn	0.990230	-0.280239	0.281279
Zn6	Zn	1.490230	0.219761	0.781279
Zn7	Zn	0.985252	-0.397885	0.399343
Zn8	Zn	1.485252	0.102115	0.899343
O9	O	1.049260	-0.339066	0.340318
O10	O	1.549260	0.160934	0.840318
O11	O	1.215614	-0.295837	0.387362
O12	O	1.715614	0.204163	0.887362
O13	O	1.092578	-0.382339	0.173989
O14	O	1.592578	0.117661	0.673989
O15	O	1.010746	-0.181739	0.301767
O16	O	1.510746	0.318261	0.801767
O17	O	1.211913	-0.382316	0.293309
O18	O	1.711913	0.117684	0.793309
O19	O	1.101164	-0.181722	0.392174
O20	O	1.601164	0.318278	0.892174
O21	O	1.005861	-0.295876	0.177635
O22	O	1.505861	0.204124	0.677635
O23	O	0.886585	-0.295838	0.296929
O24	O	1.386585	0.204162	0.796929
O25	O	1.002263	-0.382250	0.502990
O26	O	1.502263	0.117750	1.002990
O27	O	0.882928	-0.382272	0.383670
O28	O	1.382928	0.117728	0.883670
O29	O	1.096338	-0.295799	0.506656
O30	O	1.596338	0.204201	1.006656
O31	O	1.087752	-0.496415	0.288471
O32	O	1.587752	0.003585	0.788471
O33	O	0.997378	-0.496386	0.378858
O34	O	1.497378	0.003614	0.878858
C35	C	0.858054	-0.339054	0.340297
C36	C	1.358054	0.160946	0.840297
C37	C	0.776255	-0.339065	0.340305
C38	C	1.276255	0.160935	0.840305
C39	C	0.586173	-0.384142	0.385409
C40	C	1.086173	0.115858	0.885409
C41	C	0.509314	-0.384145	0.385418
C42	C	1.009314	0.115855	0.885418
C43	C	0.513098	-0.294002	0.295242
C44	C	1.013098	0.205998	0.795242
C45	C	0.589956	-0.293996	0.295237
C46	C	1.089956	0.206004	0.795237
C47	C	0.626491	-0.339071	0.340319
C48	C	1.126491	0.160929	0.840319
C49	C	0.472775	-0.339078	0.340333
C50	C	0.972775	0.160922	0.840333
C51	C	0.389441	-0.339080	0.340343
C52	C	0.889441	0.160920	0.840343
C53	C	0.709830	-0.339068	0.340311
C54	C	1.209830	0.160932	0.840311
C55	C	1.041498	-0.521940	0.332601
C56	C	1.541498	-0.021940	0.832601
C57	C	1.038245	-0.600174	0.329324
C58	C	1.538245	-0.100174	0.829324
C59	C	1.083757	-0.636859	0.374893
C60	C	1.583757	-0.136859	0.874893
C61	C	1.080698	-0.710369	0.371815
C62	C	1.580698	-0.210369	0.871815
C63	C	1.032129	-0.747192	0.323165
C64	C	1.532129	-0.247192	0.823165
C65	C	0.986612	-0.710501	0.277594
C66	C	1.486612	-0.210501	0.777594
C67	C	0.989668	-0.636993	0.280676
C68	C	1.489668	-0.136993	0.780676
C69	C	1.017940	-0.967045	0.308900
C70	C	1.517940	-0.467045	0.808900
C71	C	1.014889	-1.040558	0.305820
C72	C	1.514889	-0.540558	0.805820
C73	C	1.108974	-1.040420	0.400043
C74	C	1.608974	-0.540420	0.900043
C75	C	1.112029	-0.966911	0.403117
C76	C	1.612029	-0.466911	0.903117
C77	C	1.066510	-0.930227	0.357549
C78	C	1.566510	-0.430227	0.857549
N79	N	1.029002	-0.822330	0.320016
N80	N	1.529002	-0.322330	0.820016
N81	N	1.069633	-0.855090	0.360702
N82	N	1.569633	-0.355090	0.860702
C83	C	1.241212	-0.339078	0.340339
C84	C	1.741212	0.160922	0.840339
C85	C	1.323011	-0.339084	0.340348
C86	C	1.823011	0.160916	0.840348
C87	C	1.049307	-0.339017	0.532273
C88	C	1.549307	0.160983	1.032273
C89	C	1.049327	-0.338996	0.614072
C90	C	1.549327	0.161004	1.114072
C91	C	1.057072	-0.155477	0.348081
C92	C	1.557072	0.344523	0.848081
C93	C	1.060401	-0.077243	0.351389
C94	C	1.560401	0.422757	0.851389
C95	C	1.049258	-0.339063	0.149111
C96	C	1.549258	0.160937	0.649111
C97	C	1.049389	-0.338886	0.067320
C98	C	1.549389	0.161114	0.567320
C99	C	1.098330	-0.293939	0.804178
C100	C	1.598330	0.206061	1.304178
C101	C	1.098340	-0.293919	0.881038
C102	C	1.598340	0.206081	1.381038
C103	C	1.000380	-0.383945	0.877209
C104	C	1.500380	0.116055	1.377209
C105	C	1.000368	-0.383961	0.800351
C106	C	1.500368	0.116039	1.300351
C107	C	1.049347	-0.338959	0.763838
C108	C	1.549347	0.161041	1.263838
C109	C	1.049369	-0.338923	0.917555
C110	C	1.549369	0.161077	1.417555
C111	C	1.049379	-0.338901	1.000890
C112	C	1.549379	0.161099	1.500890
C113	C	1.049336	-0.338980	0.680498
C114	C	1.549336	0.161020	1.180498
H115	H	0.615918	-0.420843	0.422120
H116	H	1.115918	0.079157	0.922120
H117	H	0.476491	-0.420845	0.422136
H118	H	0.976491	0.079155	0.922136
N119	N	0.473692	-0.245406	0.246599
N120	N	0.973692	0.254594	0.746599
H121	H	0.418884	-0.252255	0.253435
H122	H	0.918884	0.247745	0.753435
H123	H	0.486654	-0.256316	0.193567
H124	H	0.986654	0.243684	0.693567
H125	H	0.622784	-0.257289	0.258520
H126	H	1.122784	0.242711	0.758520
N127	N	1.136146	-0.597146	0.427362
N128	N	1.636146	-0.097146	0.927362
H129	H	1.164512	-0.631543	0.455764
H130	H	1.664512	-0.131543	0.955764
H131	H	1.107438	-0.566651	0.462670
H132	H	1.607438	-0.066651	0.962670
H133	H	1.138226	-0.257258	0.913880
H134	H	1.638226	0.242742	1.413880
H135	H	0.960505	-0.420585	0.906948
H136	H	1.460505	0.079415	1.406948
H137	H	1.117764	-0.740235	0.408917
H138	H	1.617764	-0.240235	0.908917
H139	H	1.151578	-0.936931	0.442732
H140	H	1.651578	-0.436931	0.942732
N141	N	1.151158	-0.245404	0.764798
N142	N	1.651158	0.254596	1.264798
H143	H	1.184042	-0.274021	0.731712
H144	H	1.684042	0.225979	1.231712
H145	H	1.182139	-0.216895	0.802069
H146	H	1.682139	0.283105	1.302069
H147	H	0.960474	-0.420621	0.767505
H148	H	1.460474	0.079379	1.267505
N149	N	1.158067	-1.079986	0.449189
N150	N	1.658067	-0.579986	0.949189
H151	H	1.148763	-1.132140	0.439858
H152	H	1.648763	-0.632140	0.939858
H153	H	1.147116	-1.067114	0.502277
H154	H	1.647116	-0.567114	1.002277
H155	H	0.975335	-1.070537	0.266202
H156	H	1.475335	-0.570537	0.766202
H157	H	0.980878	-0.937182	0.271795
H158	H	1.480878	-0.437182	0.771795
H159	H	0.947063	-0.740488	0.237985
H160	H	1.447063	-0.240488	0.737985
H161	H	0.952607	-0.607124	0.243570
H162	H	1.452607	-0.107124	0.743570
