data_functionalizedCrystal
_audit_creation_method	'MofGen! by Chris Wilmer'
_symmetry_space_group_name_H-M	'P1'
_symmetry_Int_Tables_number	1
_symmetry_cell_setting	triclinic
loop_
_symmetry_equiv_pos_as_xyz
  x,y,z
_cell_length_a	17.077404
_cell_length_b	19.805405
_cell_length_c	17.077396
_cell_angle_alpha	89.967516
_cell_angle_beta	89.982756
_cell_angle_gamma	90.026635
loop_
_atom_site_label
_atom_site_type_symbol
_atom_site_fract_x
_atom_site_fract_y
_atom_site_fract_z
Zn1	Zn	1.200018	-0.269454	-0.443825
Zn2	Zn	1.533351	0.063880	-0.110492
Zn3	Zn	1.866685	0.397213	0.222841
Zn4	Zn	1.199922	-0.382648	-0.312552
Zn5	Zn	1.533255	-0.049315	0.020781
Zn6	Zn	1.866589	0.284018	0.354115
Zn7	Zn	1.068755	-0.269479	-0.312573
Zn8	Zn	1.402088	0.063854	0.020760
Zn9	Zn	1.735422	0.397188	0.354093
Zn10	Zn	1.068710	-0.382606	-0.443776
Zn11	Zn	1.402043	-0.049273	-0.110442
Zn12	Zn	1.735376	0.284060	0.222891
O13	O	1.134351	-0.326047	-0.378182
O14	O	1.467684	0.007287	-0.044848
O15	O	1.801018	0.340620	0.288485
O16	O	1.309852	-0.284476	-0.426424
O17	O	1.643185	0.048857	-0.093090
O18	O	1.976519	0.382191	0.240243
O19	O	1.182501	-0.367664	-0.202708
O20	O	1.515835	-0.034331	0.130625
O21	O	1.849168	0.299002	0.463959
O22	O	1.086226	-0.174759	-0.330014
O23	O	1.419560	0.158574	0.003319
O24	O	1.752893	0.491908	0.336653
O25	O	1.309782	-0.367640	-0.329978
O26	O	1.643115	-0.034306	0.003356
O27	O	1.976448	0.299027	0.336689
O28	O	1.182665	-0.174740	-0.426444
O29	O	1.515998	0.158593	-0.093111
O30	O	1.849331	0.491926	0.240222
O31	O	1.086133	-0.284519	-0.202724
O32	O	1.419467	0.048814	0.130610
O33	O	1.752800	0.382147	0.463943
O34	O	0.958902	-0.284479	-0.329966
O35	O	1.292235	0.048855	0.003368
O36	O	1.625569	0.382188	0.336701
O37	O	1.086149	-0.367568	-0.553629
O38	O	1.419482	-0.034235	-0.220296
O39	O	1.752816	0.299098	0.113037
O40	O	0.958869	-0.367593	-0.426360
O41	O	1.292202	-0.034260	-0.093026
O42	O	1.625535	0.299074	0.240307
O43	O	1.182621	-0.284435	-0.553666
O44	O	1.515954	0.048898	-0.220332
O45	O	1.849287	0.382231	0.113001
O46	O	1.182457	-0.477359	-0.329930
O47	O	1.515791	-0.144026	0.003404
O48	O	1.849124	0.189307	0.336737
O49	O	1.086056	-0.477329	-0.426339
O50	O	1.419390	-0.143995	-0.093006
O51	O	1.752723	0.189338	0.240328
C52	C	0.930403	-0.326035	-0.378160
C53	C	1.263737	0.007299	-0.044827
C54	C	1.597070	0.340632	0.288507
C55	C	0.843153	-0.326046	-0.378169
C56	C	1.176487	0.007288	-0.044836
C57	C	1.509820	0.340621	0.288497
C58	C	0.802167	-0.369388	-0.428281
C59	C	1.135500	-0.036055	-0.094948
C60	C	1.468833	0.297278	0.238386
C61	C	0.720186	-0.369390	-0.428294
C62	C	1.053519	-0.036057	-0.094960
C63	C	1.386853	0.297277	0.238373
C64	C	0.679194	-0.326051	-0.378190
C65	C	1.012527	0.007282	-0.044857
C66	C	1.345861	0.340615	0.288477
C67	C	0.720187	-0.282704	-0.328076
C68	C	1.053520	0.050630	0.005257
C69	C	1.386853	0.383963	0.338591
C70	C	0.802166	-0.282699	-0.328068
C71	C	1.135499	0.050634	0.005265
C72	C	1.468832	0.383967	0.338599
C73	C	0.549317	-0.282717	-0.328095
C74	C	0.882650	0.050616	0.005238
C75	C	1.215983	0.383950	0.338572
C76	C	0.467332	-0.282722	-0.328102
C77	C	0.800665	0.050611	0.005232
C78	C	1.133999	0.383945	0.338565
C79	C	0.467337	-0.369408	-0.428321
C80	C	0.800670	-0.036074	-0.094987
C81	C	1.134004	0.297259	0.238346
C82	C	0.549316	-0.369403	-0.428313
C83	C	0.882649	-0.036070	-0.094979
C84	C	1.215983	0.297263	0.238354
C85	C	0.590303	-0.326056	-0.378197
C86	C	0.923636	0.007277	-0.044864
C87	C	1.256970	0.340610	0.288469
C88	C	1.134263	-0.501903	-0.378144
C89	C	1.467596	-0.168570	-0.044810
C90	C	1.800929	0.164764	0.288523
C91	C	1.134297	-0.577135	-0.378154
C92	C	1.467630	-0.243801	-0.044820
C93	C	1.800964	0.089532	0.288513
C94	C	1.184542	-0.612472	-0.328006
C95	C	1.517875	-0.279139	0.005327
C96	C	1.851208	0.054194	0.338661
C97	C	1.184575	-0.683161	-0.328023
C98	C	1.517908	-0.349828	0.005310
C99	C	1.851242	-0.016494	0.338643
C100	C	1.134359	-0.718510	-0.378185
C101	C	1.467692	-0.385177	-0.044852
C102	C	1.801026	-0.051844	0.288482
C103	C	1.084112	-0.683168	-0.428338
C104	C	1.417445	-0.349834	-0.095005
C105	C	1.750779	-0.016501	0.238328
C106	C	1.084083	-0.612481	-0.428324
C107	C	1.417416	-0.279147	-0.094991
C108	C	1.750750	0.054186	0.238342
C109	C	1.084228	-0.968241	-0.428397
C110	C	1.417561	-0.634908	-0.095063
C111	C	1.750894	-0.301574	0.238270
C112	C	1.084259	-1.038933	-0.428405
C113	C	1.417592	-0.705600	-0.095072
C114	C	1.750925	-0.372266	0.238262
C115	C	1.184720	-1.038921	-0.328095
C116	C	1.518053	-0.705588	0.005238
C117	C	1.851386	-0.372255	0.338571
C118	C	1.184691	-0.968234	-0.328081
C119	C	1.518024	-0.634901	0.005252
C120	C	1.851357	-0.301567	0.338585
C121	C	1.134447	-0.932898	-0.378237
C122	C	1.467780	-0.599564	-0.044904
C123	C	1.801114	-0.266231	0.288429
C124	C	1.134413	-0.856249	-0.378219
C125	C	1.467746	-0.522916	-0.044886
C126	C	1.801079	-0.189583	0.288448
C127	C	1.134389	-0.795157	-0.378200
C128	C	1.467722	-0.461824	-0.044867
C129	C	1.801056	-0.128491	0.288467
C130	C	1.339095	-0.326060	-0.378204
C131	C	1.672429	0.007274	-0.044871
C132	C	2.005762	0.340607	0.288463
C133	C	1.426345	-0.326065	-0.378213
C134	C	1.759678	0.007268	-0.044880
C135	C	2.093012	0.340602	0.288453
C136	C	1.134391	-0.325994	-0.582926
C137	C	1.467724	0.007339	-0.249593
C138	C	1.801057	0.340672	0.083741
C139	C	1.134407	-0.325972	-0.670176
C140	C	1.467741	0.007361	-0.336843
C141	C	1.801074	0.340695	-0.003509
C142	C	1.134461	-0.149504	-0.378237
C143	C	1.467795	0.183829	-0.044904
C144	C	1.801128	0.517163	0.288430
C145	C	1.134508	-0.074272	-0.378261
C146	C	1.467841	0.259061	-0.044927
C147	C	1.801175	0.592395	0.288406
C148	C	1.084244	-0.282673	-0.711174
C149	C	1.417577	0.050660	-0.377840
C150	C	1.750911	0.383993	-0.044507
C151	C	1.084257	-0.282658	-0.793154
C152	C	1.417590	0.050675	-0.459821
C153	C	1.750923	0.384009	-0.126487
C154	C	1.134438	-0.325938	-0.834135
C155	C	1.467771	0.007395	-0.500802
C156	C	1.801104	0.340728	-0.167469
C157	C	1.184603	-0.369242	-0.793132
C158	C	1.517937	-0.035909	-0.459799
C159	C	1.851270	0.297425	-0.126465
C160	C	1.184586	-0.369260	-0.711153
C161	C	1.517919	-0.035927	-0.377820
C162	C	1.851253	0.297406	-0.044486
C163	C	1.184637	-0.369200	-0.964002
C164	C	1.517971	-0.035866	-0.630669
C165	C	1.851304	0.297467	-0.297335
C166	C	1.184656	-0.369181	-1.045987
C167	C	1.517989	-0.035847	-0.712653
C168	C	1.851323	0.297486	-0.379320
C169	C	1.084308	-0.282597	-1.046003
C170	C	1.417641	0.050736	-0.712670
C171	C	1.750975	0.384069	-0.379337
C172	C	1.084291	-0.282616	-0.964024
C173	C	1.417624	0.050718	-0.630691
C174	C	1.750957	0.384051	-0.297358
C175	C	1.134458	-0.325918	-0.923026
C176	C	1.467791	0.007415	-0.589693
C177	C	1.801124	0.340748	-0.256360
C178	C	1.134357	-0.326050	-0.174234
C179	C	1.467690	0.007283	0.159099
C180	C	1.801024	0.340616	0.492433
C181	C	1.134492	-0.325882	-0.086984
C182	C	1.467826	0.007451	0.246349
C183	C	1.801159	0.340785	0.579682
H184	H	0.835536	-0.404682	-0.469079
H185	H	1.168870	-0.071349	-0.135746
H186	H	1.502203	0.261985	0.197588
H187	H	0.686818	-0.404685	-0.469099
H188	H	1.020151	-0.071351	-0.135766
H189	H	1.353485	0.261982	0.197568
Cl190	Cl	1.021210	-0.228201	-0.912506
Cl191	Cl	1.354544	0.105133	-0.579172
Cl192	Cl	1.687877	0.438466	-0.245839
H193	H	1.225440	-0.404513	-0.677774
H194	H	1.558773	-0.071180	-0.344440
H195	H	1.892107	0.262153	-0.011107
Cl196	Cl	1.247746	-0.727582	-0.264980
Cl197	Cl	1.581079	-0.394249	0.068354
Cl198	Cl	1.914412	-0.060916	0.401687
Cl199	Cl	1.021242	-0.228158	-1.097543
Cl200	Cl	1.354576	0.105175	-0.764209
Cl201	Cl	1.687909	0.438508	-0.430876
Cl202	Cl	0.600848	-0.423891	-0.491296
Cl203	Cl	0.934181	-0.090558	-0.157962
Cl204	Cl	1.267515	0.242775	0.175371
Cl205	Cl	1.247822	-0.923799	-0.265019
Cl206	Cl	1.581156	-0.590465	0.068315
Cl207	Cl	1.914489	-0.257132	0.401648
Cl208	Cl	1.247889	-1.083349	-0.265045
Cl209	Cl	1.581222	-0.750015	0.068288
Cl210	Cl	1.914555	-0.416682	0.401621
Cl211	Cl	0.415800	-0.228242	-0.265110
Cl212	Cl	0.749133	0.105092	0.068224
Cl213	Cl	1.082467	0.438425	0.401557
Cl214	Cl	1.247702	-0.423641	-0.912463
Cl215	Cl	1.581036	-0.090308	-0.579130
Cl216	Cl	1.914369	0.243026	-0.245797
H217	H	1.225518	-0.404423	-1.079352
H218	H	1.558851	-0.071090	-0.746018
H219	H	1.892184	0.262243	-0.412685
Cl220	Cl	1.021154	-0.228254	-0.844691
Cl221	Cl	1.354488	0.105079	-0.511357
Cl222	Cl	1.687821	0.438413	-0.178024
Cl223	Cl	1.021126	-1.083372	-0.491472
Cl224	Cl	1.354460	-0.750038	-0.158139
Cl225	Cl	1.687793	-0.416705	0.175195
Cl226	Cl	1.021062	-0.923827	-0.491448
Cl227	Cl	1.354396	-0.590494	-0.158115
Cl228	Cl	1.687729	-0.257161	0.175218
Cl229	Cl	1.020918	-0.568056	-0.491373
Cl230	Cl	1.354251	-0.234723	-0.158039
Cl231	Cl	1.687585	0.098611	0.175294
H232	H	1.043385	-0.247425	-0.677812
H233	H	1.376718	0.085908	-0.344479
H234	H	1.710052	0.419241	-0.011146
Cl235	Cl	0.600842	-0.228223	-0.265092
Cl236	Cl	0.934175	0.105111	0.068242
Cl237	Cl	1.267509	0.438444	0.401575
H238	H	1.225457	-0.404485	-0.826506
H239	H	1.558791	-0.071152	-0.493172
H240	H	1.892124	0.262182	-0.159839
H241	H	0.686805	-0.247414	-0.287284
H242	H	1.020138	0.085919	0.046049
H243	H	1.353471	0.419253	0.379383
Cl244	Cl	0.415811	-0.423891	-0.491334
Cl245	Cl	0.749145	-0.090558	-0.158000
Cl246	Cl	1.082478	0.242775	0.175333
Cl247	Cl	1.020987	-0.727607	-0.491404
Cl248	Cl	1.354320	-0.394274	-0.158071
Cl249	Cl	1.687654	-0.060941	0.175263
H250	H	0.835536	-0.247402	-0.287266
H251	H	1.168870	0.085932	0.046067
H252	H	1.502203	0.419265	0.379401
H253	H	1.225430	-0.583696	-0.287155
H254	H	1.558763	-0.250362	0.046178
H255	H	1.892097	0.082971	0.379512
