data_functionalizedCrystal
_audit_creation_method	'MofGen! by Chris Wilmer'
_symmetry_space_group_name_H-M	'P1'
_symmetry_Int_Tables_number	1
_symmetry_cell_setting	triclinic
loop_
_symmetry_equiv_pos_as_xyz
  x,y,z
_cell_length_a	18.050591
_cell_length_b	25.639239
_cell_length_c	18.050583
_cell_angle_alpha	89.965476
_cell_angle_beta	89.975765
_cell_angle_gamma	90.034692
loop_
_atom_site_label
_atom_site_type_symbol
_atom_site_fract_x
_atom_site_fract_y
_atom_site_fract_z
Zn1	Zn	1.135263	-0.208189	-0.420021
Zn2	Zn	1.135144	-0.295632	-0.295826
Zn3	Zn	1.011075	-0.208206	-0.295832
Zn4	Zn	1.011007	-0.295589	-0.419962
O5	O	1.073122	-0.251904	-0.357910
O6	O	1.239172	-0.219799	-0.403568
O7	O	1.118664	-0.284059	-0.191902
O8	O	1.027627	-0.135038	-0.312333
O9	O	1.239084	-0.284043	-0.312323
O10	O	1.118867	-0.135026	-0.403574
O11	O	1.027511	-0.219828	-0.191906
O12	O	0.907141	-0.219787	-0.312276
O13	O	1.027512	-0.283970	-0.523894
O14	O	0.907092	-0.283987	-0.403473
O15	O	1.118802	-0.219757	-0.523938
O16	O	1.118599	-0.368791	-0.312266
O17	O	1.027396	-0.368760	-0.403468
C18	C	0.880170	-0.251884	-0.357869
C19	C	0.797624	-0.251889	-0.357869
C20	C	0.598179	-0.216936	-0.308390
C21	C	0.548746	-0.264626	-0.290112
C22	C	0.646494	-0.251904	-0.357903
C23	C	0.548845	-0.204231	-0.376179
C24	C	0.500509	-0.251915	-0.357934
C25	C	0.598148	-0.299619	-0.339589
C26	C	0.598252	-0.239192	-0.425688
C27	C	0.548841	-0.286915	-0.407435
C28	C	0.730592	-0.251897	-0.357883
C29	C	0.416412	-0.251928	-0.357954
C30	C	1.072997	-0.387746	-0.357876
C31	C	1.073012	-0.445860	-0.357886
C32	C	1.120735	-0.806227	-0.310502
C33	C	1.120764	-0.860831	-0.310512
O34	O	1.161211	-0.889071	-0.270187
N35	N	1.073253	-0.888143	-0.357959
C36	C	1.025715	-0.860847	-0.405405
O37	O	0.985306	-0.889091	-0.445764
C38	C	1.025690	-0.806244	-0.405398
C39	C	1.073199	-0.778935	-0.357943
C40	C	1.168241	-0.778919	-0.263051
C41	C	1.168211	-0.724318	-0.263040
C42	C	1.120675	-0.697026	-0.310481
C43	C	1.073169	-0.724335	-0.357932
C44	C	0.978157	-0.778949	-0.452847
C45	C	0.978137	-0.724342	-0.452837
C46	C	1.025646	-0.697033	-0.405381
C47	C	1.025604	-0.642442	-0.405362
N48	N	1.073115	-0.615131	-0.357914
C49	C	1.120651	-0.642423	-0.310474
C50	C	1.025771	-0.975518	-0.405416
C51	C	1.025791	-1.030120	-0.405420
C52	C	1.120841	-1.030101	-0.310528
C53	C	1.120817	-0.975497	-0.310521
C54	C	1.073282	-0.948206	-0.357969
C55	C	1.120584	-0.527758	-0.310455
C56	C	1.120547	-0.473152	-0.310446
C57	C	1.025500	-0.473176	-0.405340
C58	C	1.025534	-0.527777	-0.405347
C59	C	1.073081	-0.555066	-0.357901
O60	O	0.985180	-0.614167	-0.445668
O61	O	1.161060	-0.614172	-0.270129
C62	C	1.266828	-0.251924	-0.357952
C63	C	1.349373	-0.251932	-0.357970
C64	C	1.073162	-0.251857	-0.551616
C65	C	1.073180	-0.251837	-0.634162
C66	C	1.073268	-0.115531	-0.357961
C67	C	1.073330	-0.057417	-0.357982
C68	C	1.122869	-0.216883	-0.883011
C69	C	1.140979	-0.264591	-0.833596
C70	C	1.073228	-0.251804	-0.931282
C71	C	1.055129	-0.204115	-0.833615
C72	C	1.073206	-0.251818	-0.785297
C73	C	1.091372	-0.299537	-0.882955
C74	C	1.005491	-0.239029	-0.882978
C75	C	1.023575	-0.286770	-0.833586
C76	C	1.073242	-0.251795	-1.015381
C77	C	1.073191	-0.251832	-0.701200
C78	C	1.073125	-0.251913	-0.164958
C79	C	1.073252	-0.251785	-0.082413
H80	H	0.527314	-0.316525	-0.449320
H81	H	1.164891	-0.187383	-0.904711
C82	C	1.034620	-0.150381	-0.804615
C83	C	0.970028	-0.154006	-0.761942
C84	C	0.951125	-0.104517	-0.735210
H85	H	1.026367	-0.127453	-0.845130
H86	H	1.073866	-0.137282	-0.774898
H87	H	0.930791	-0.167097	-0.791657
H88	H	0.978264	-0.176925	-0.721416
H89	H	0.990371	-0.091419	-0.705493
H90	H	0.942876	-0.081593	-0.775730
H91	H	0.907302	-0.106971	-0.706248
C92	C	0.519641	-0.278862	-0.213694
C93	C	0.475916	-0.238012	-0.186602
C94	C	0.449087	-0.251094	-0.116207
H95	H	0.560113	-0.284607	-0.181081
H96	H	0.490618	-0.309700	-0.216936
H97	H	0.504938	-0.207183	-0.183355
H98	H	0.435433	-0.232262	-0.219194
H99	H	0.420064	-0.281932	-0.119449
H100	H	0.489563	-0.256839	-0.083601
H101	H	0.419411	-0.223382	-0.097819
C102	C	0.627043	-0.353357	-0.318880
C103	C	0.704605	-0.352714	-0.319057
C104	C	0.731250	-0.402204	-0.299973
H105	H	0.609834	-0.378263	-0.353812
H106	H	0.609722	-0.362453	-0.270869
H107	H	0.721919	-0.343624	-0.367061
H108	H	0.721834	-0.327818	-0.284124
H109	H	0.713929	-0.411300	-0.251962
H110	H	0.714036	-0.427106	-0.334908
H111	H	0.783878	-0.401773	-0.300084
C112	C	1.217398	-0.278911	-0.804707
C113	C	1.269160	-0.242214	-0.829729
C114	C	1.339564	-0.255380	-0.803126
H115	H	1.230690	-0.312536	-0.822309
H116	H	1.216752	-0.279101	-0.752078
H117	H	1.269808	-0.242029	-0.882347
H118	H	1.255892	-0.208586	-0.812129
H119	H	1.338918	-0.255570	-0.750497
H120	H	1.352848	-0.289006	-0.820730
H121	H	1.374692	-0.230481	-0.820094
H122	H	0.939429	-0.702124	-0.491477
C123	C	0.626970	-0.177472	-0.252560
C124	C	0.600902	-0.127737	-0.271142
C125	C	0.627402	-0.091373	-0.219723
H126	H	0.679590	-0.177452	-0.253208
H127	H	0.609995	-0.186559	-0.204422
H128	H	0.617881	-0.118652	-0.319267
H129	H	0.548285	-0.127740	-0.270489
H130	H	0.610427	-0.100461	-0.171586
H131	H	0.680021	-0.091358	-0.220375
H132	H	0.609713	-0.057625	-0.232320
H133	H	1.159303	-0.549970	-0.271822
H134	H	0.620013	-0.228417	-0.482982
C135	C	0.519820	-0.150498	-0.396731
C136	C	0.442263	-0.151335	-0.397107
C137	C	0.415501	-0.101844	-0.416018
H138	H	0.537418	-0.141173	-0.444542
H139	H	0.536671	-0.125683	-0.361480
H140	H	0.425419	-0.176142	-0.432356
H141	H	0.424646	-0.160651	-0.349303
H142	H	0.432352	-0.077028	-0.380767
H143	H	0.433104	-0.092523	-0.463828
H144	H	0.362877	-0.102403	-0.416269
H145	H	1.159235	-0.450919	-0.271799
H146	H	1.206899	-0.702087	-0.224400
C147	C	1.219882	-0.808450	-0.211455
C148	C	1.261460	-0.772836	-0.169892
C149	C	1.309031	-0.800017	-0.122339
H150	H	1.252305	-0.829719	-0.239807
H151	H	1.191519	-0.829771	-0.179027
H152	H	1.289821	-0.751524	-0.202316
H153	H	1.229057	-0.751566	-0.141525
H154	H	1.280668	-0.821338	-0.089911
H155	H	1.341449	-0.821285	-0.150697
H156	H	1.337243	-0.775857	-0.094128
C157	C	1.172482	-0.945945	-0.258973
C158	C	1.214124	-0.981540	-0.217442
C159	C	1.261736	-0.954339	-0.169954
H160	H	1.144169	-0.924676	-0.226516
H161	H	1.204858	-0.924622	-0.287393
H162	H	1.181753	-1.002854	-0.189024
H163	H	1.242453	-1.002810	-0.249880
H164	H	1.294111	-0.933015	-0.198375
H165	H	1.233416	-0.933070	-0.137502
H166	H	1.290000	-0.978486	-0.141775
C167	C	0.926490	-0.808618	-0.504254
C168	C	0.878907	-0.840012	-0.462178
C169	C	0.831295	-0.867345	-0.509513
H170	H	0.954808	-0.829923	-0.536659
H171	H	0.898140	-0.784554	-0.532495
H172	H	0.907253	-0.864073	-0.433950
H173	H	0.850572	-0.818719	-0.429775
H174	H	0.802945	-0.843281	-0.537753
H175	H	0.859619	-0.888647	-0.541916
H176	H	0.798999	-0.888645	-0.480971
C177	C	1.172489	-1.059833	-0.259164
C178	C	1.162379	-1.113496	-0.269375
C179	C	1.209973	-1.140902	-0.222108
H180	H	1.161755	-1.051005	-0.209200
H181	H	1.222372	-1.050855	-0.270150
H182	H	1.112507	-1.122470	-0.258384
H183	H	1.173118	-1.122338	-0.319329
H184	H	1.259856	-1.131924	-0.233094
H185	H	1.199236	-1.132070	-0.172148
H186	H	1.203125	-1.177315	-0.229035
H187	H	0.987097	-1.052350	-0.444056
C188	C	0.974069	-0.945984	-0.456956
C189	C	0.932457	-0.981594	-0.498491
C190	C	0.884817	-0.954410	-0.545970
H191	H	1.002360	-0.924647	-0.489411
H192	H	0.941676	-0.924730	-0.428529
H193	H	0.964846	-1.002839	-0.526916
H194	H	0.904150	-1.002933	-0.466056
H195	H	0.852423	-0.933157	-0.517543
H196	H	0.913114	-0.933074	-0.578420
H197	H	0.856573	-0.978568	-0.574152
H198	H	0.986795	-0.450947	-0.443964
C199	C	0.973923	-0.557335	-0.456948
C200	C	0.932299	-0.521744	-0.498503
C201	C	0.884761	-0.548949	-0.546060
H202	H	0.941528	-0.578679	-0.428600
H203	H	1.002312	-0.578584	-0.489381
H204	H	0.903912	-0.500504	-0.466074
H205	H	0.964675	-0.500399	-0.526867
H206	H	0.913151	-0.570198	-0.578493
H207	H	0.852371	-0.570292	-0.517706
H208	H	0.856519	-0.524805	-0.574266
H209	H	1.106753	-0.339880	-0.904538
H210	H	0.981585	-0.316341	-0.812022
C211	C	0.929214	-0.224518	-0.912036
C212	C	0.934707	-0.179589	-0.955827
C213	C	0.864459	-0.166203	-0.982617
H214	H	0.896878	-0.218042	-0.871547
H215	H	0.910175	-0.252392	-0.941006
H216	H	0.953736	-0.151721	-0.926858
H217	H	0.967029	-0.186054	-0.996326
H218	H	0.845420	-0.194077	-1.011587
H219	H	0.832128	-0.159729	-0.942124
H220	H	0.868177	-0.135720	-1.012337
