data_functionalizedCrystal
_audit_creation_method	'MofGen! by Chris Wilmer'
_symmetry_space_group_name_H-M	'P1'
_symmetry_Int_Tables_number	1
_symmetry_cell_setting	triclinic
loop_
_symmetry_equiv_pos_as_xyz
  x,y,z
_cell_length_a	10.654562
_cell_length_b	15.944545
_cell_length_c	9.130313
_cell_angle_alpha	89.996649
_cell_angle_beta	89.996930
_cell_angle_gamma	83.993138
loop_
_atom_site_label
_atom_site_type_symbol
_atom_site_fract_x
_atom_site_fract_y
_atom_site_fract_z
O1	O	1.666294	0.118024	-0.121903
O2	O	1.300672	0.129253	-0.121886
O3	O	1.493471	0.001421	-0.121878
O4	O	1.473494	0.245855	-0.121912
O5	O	1.493469	0.001425	0.121721
O6	O	1.300669	0.129256	0.121713
O7	O	1.666291	0.118027	0.121696
Cu8	Cu	1.483480	0.123642	0.143947
Cu9	Cu	1.483483	0.123638	-0.144137
O10	O	1.473492	0.245859	0.121687
C11	C	1.253883	0.128428	-0.000084
C12	C	1.114473	0.125954	-0.000077
C13	C	1.048956	0.124802	0.132698
C14	C	0.917964	0.122485	0.132674
C15	C	0.918017	0.122475	-0.132911
C16	C	1.049008	0.124786	-0.132885
C17	C	1.114421	0.125970	0.265507
C18	C	1.048904	0.124820	0.398292
C19	C	0.917912	0.122502	0.398268
C20	C	0.852437	0.121336	0.265458
C21	C	1.492642	-0.029876	-0.000077
C22	C	1.490160	-0.123137	-0.000073
C23	C	1.363237	-0.394508	-0.000096
C24	C	1.424430	-0.343568	-0.120207
C25	C	1.481308	-0.458832	-0.000114
C26	C	1.424459	-0.343592	0.119963
C27	C	1.485651	-0.293893	-0.000091
C28	C	1.542470	-0.409121	-0.120323
C29	C	1.542482	-0.409148	0.119954
C30	C	1.603761	-0.358240	-0.000186
C31	C	1.478803	-0.553849	-0.000128
C32	C	1.488165	-0.198879	-0.000087
C33	C	1.713080	0.118852	-0.000110
C34	C	1.852490	0.121326	-0.000126
C35	C	1.474321	0.277156	-0.000117
C36	C	1.476803	0.370417	-0.000131
N37	N	1.483487	0.123644	0.346569
N38	N	1.483486	0.123629	-0.346760
C39	C	1.568881	0.067060	0.423225
C40	C	1.568877	0.067050	0.576562
C41	C	1.398083	0.180216	0.576574
C42	C	1.398082	0.180221	0.423240
C43	C	1.654286	0.010483	0.346555
C44	C	1.739687	-0.046105	0.423210
C45	C	1.739684	-0.046115	0.576547
C46	C	1.654280	0.010463	0.653228
H47	H	0.864696	0.121527	-0.241038
H48	H	1.221081	0.127860	0.265541
H49	H	1.809214	-0.092174	0.360769
H50	H	1.654299	0.010488	0.221700
H51	H	1.592301	-0.437806	0.221498
H52	H	1.809212	-0.092197	0.638959
O53	O	1.112739	0.125762	-0.261825
C54	C	1.202736	0.054492	-0.269729
H55	H	1.173172	0.003040	-0.194375
H56	H	1.209013	0.030141	-0.387171
H57	H	1.298793	0.072662	-0.234036
O58	O	1.601704	-0.443157	-0.241713
C59	C	1.516214	-0.485404	-0.324835
H60	H	1.415514	-0.458606	-0.297607
H61	H	1.534781	-0.476203	-0.446448
H62	H	1.529220	-0.555565	-0.297665
O63	O	1.314960	0.235091	0.650994
C64	C	1.190651	0.220673	0.613512
H65	H	1.190040	0.153420	0.571357
H66	H	1.127634	0.229934	0.714359
H67	H	1.153760	0.267005	0.524516
H68	H	1.374567	-0.314925	-0.221747
H69	H	0.864573	0.121558	0.506388
O70	O	1.315307	0.235223	0.348603
C71	C	1.382554	0.287480	0.259928
H72	H	1.480821	0.254643	0.236959
H73	H	1.330142	0.300437	0.152102
H74	H	1.391075	0.349616	0.319013
O75	O	0.725184	0.119118	0.265695
C76	C	0.681397	0.118323	0.411365
H77	H	0.751675	0.146205	0.486572
H78	H	0.585796	0.157480	0.419410
H79	H	0.671312	0.050644	0.445906
H80	H	1.102224	0.125763	0.506420
O81	O	1.654472	0.010361	0.802180
C82	C	1.748127	-0.051735	0.853402
H83	H	1.822940	-0.065910	0.765041
H84	H	1.793869	-0.027795	0.955992
H85	H	1.703305	-0.111710	0.880593
O86	O	1.364785	-0.309538	0.241073
C87	C	1.238073	-0.327667	0.240604
H88	H	1.228956	-0.385789	0.170271
H89	H	1.207188	-0.340241	0.357410
H90	H	1.175612	-0.271630	0.193753
H91	H	1.261553	-0.410752	-0.000209
O92	O	1.725185	-0.339098	-0.000513
C93	C	1.786969	-0.372801	-0.127291
H94	H	1.714055	-0.382448	-0.215409
H95	H	1.854476	-0.327285	-0.169199
H96	H	1.842335	-0.435922	-0.099783
