data_functionalizedCrystal
_audit_creation_method	'MofGen! by Chris Wilmer'
_symmetry_space_group_name_H-M	'P1'
_symmetry_Int_Tables_number	1
_symmetry_cell_setting	triclinic
loop_
_symmetry_equiv_pos_as_xyz
  x,y,z
_cell_length_a	25.639242
_cell_length_b	11.169416
_cell_length_c	11.169409
_cell_angle_alpha	89.968635
_cell_angle_beta	90.031940
_cell_angle_gamma	89.994323
loop_
_atom_site_label
_atom_site_type_symbol
_atom_site_fract_x
_atom_site_fract_y
_atom_site_fract_z
Zn1	Zn	0.799379	0.477853	0.678939
Zn2	Zn	1.299379	0.977853	1.178939
Zn3	Zn	0.799331	0.678593	0.478259
Zn4	Zn	1.299331	1.178593	0.978259
Zn5	Zn	0.711941	0.477907	0.478231
Zn6	Zn	1.211941	0.977907	0.978231
Zn7	Zn	0.711944	0.678477	0.678862
Zn8	Zn	1.211944	1.178477	1.178862
O9	O	0.755649	0.578208	0.578573
O10	O	1.255649	1.078208	1.078573
O11	O	0.872538	0.504508	0.652362
O12	O	1.372538	1.004508	1.152362
O13	O	0.787717	0.652044	0.310305
O14	O	1.287717	1.152044	0.810305
O15	O	0.723558	0.309950	0.504876
O16	O	1.223558	0.809950	1.004876
O17	O	0.872503	0.651991	0.504924
O18	O	1.372503	1.151991	1.004924
O19	O	0.787799	0.309910	0.652335
O20	O	1.287799	0.809910	1.152335
O21	O	0.723512	0.504600	0.310285
O22	O	1.223512	1.004600	0.810285
O23	O	0.638776	0.504487	0.504801
O24	O	1.138776	1.004487	1.004801
O25	O	0.723564	0.651792	0.846822
O26	O	1.223564	1.151792	1.346822
O27	O	0.638779	0.651845	0.652203
O28	O	1.138779	1.151845	1.152203
O29	O	0.787802	0.504395	0.846878
O30	O	1.287802	1.004395	1.346878
O31	O	0.787721	0.846528	0.504849
O32	O	1.287721	1.346528	1.004849
O33	O	0.723518	0.846442	0.652231
O34	O	1.223518	1.346442	1.152231
C35	C	0.619806	0.578160	0.578491
C36	C	1.119806	1.078160	1.078491
C37	C	0.561692	0.578169	0.578485
C38	C	1.061692	1.078169	1.078485
C39	C	0.755629	0.890032	0.578561
C40	C	1.255629	1.390032	1.078561
C41	C	0.755668	1.023432	0.578596
C42	C	1.255668	1.523432	1.078596
C43	C	0.755689	0.578074	0.891615
C44	C	1.255689	1.078074	1.391615
C45	C	0.755706	0.578018	1.025015
C46	C	1.255706	1.078018	1.525015
C47	C	0.201339	0.655065	0.655252
C48	C	0.701339	1.155065	1.155252
C49	C	0.146735	0.655073	0.655271
C50	C	0.646735	1.155073	1.155271
O51	O	0.118507	0.720393	0.720473
O52	O	0.618507	1.220393	1.220473
N53	N	0.119410	0.578241	0.578651
N54	N	0.619410	1.078241	1.078651
C55	C	0.146692	0.501388	0.502015
C56	C	0.646692	1.001388	1.002015
O57	O	0.118435	0.436037	0.436846
O58	O	0.618435	0.936037	0.936846
C59	C	0.201295	0.501376	0.502003
C60	C	0.701295	1.001376	1.002003
C61	C	0.228617	0.578221	0.578620
C62	C	0.728617	1.078221	1.078620
C63	C	0.228662	0.731903	0.731864
C64	C	0.728662	1.231903	1.231864
C65	C	0.283263	0.731897	0.731843
C66	C	0.783263	1.231897	1.231843
C67	C	0.310541	0.655053	0.655211
C68	C	0.810541	1.155053	1.155211
C69	C	0.283218	0.578215	0.578599
C70	C	0.783218	1.078215	1.078599
C71	C	0.228576	0.424518	0.425374
C72	C	0.728576	0.924518	0.925374
C73	C	0.283183	0.424511	0.425370
C74	C	0.783183	0.924511	0.925370
C75	C	0.310505	0.501357	0.501986
C76	C	0.810505	1.001357	1.001986
C77	C	0.365096	0.501365	0.501946
C78	C	0.865096	1.001365	1.001946
N79	N	0.392422	0.578196	0.578566
N80	N	0.892422	1.078196	1.078566
C81	C	0.365144	0.655041	0.655199
C82	C	0.865144	1.155041	1.155199
C83	C	0.032021	0.501419	0.502048
C84	C	0.532021	1.001419	1.002048
C85	C	-0.022581	0.501436	0.502053
C86	C	0.477419	1.001436	1.002053
C87	C	-0.022534	0.655119	0.655311
C88	C	0.477466	1.155119	1.155311
C89	C	0.032069	0.655107	0.655299
C90	C	0.532069	1.155107	1.155299
C91	C	0.059346	0.578250	0.578668
C92	C	0.559346	1.078250	1.078668
C93	C	0.479809	0.655023	0.655148
C94	C	0.979809	1.155023	1.155148
C95	C	0.534414	0.655013	0.655117
C96	C	1.034414	1.155013	1.155117
C97	C	0.534362	0.501326	0.501864
C98	C	1.034362	1.001326	1.001864
C99	C	0.479762	0.501340	0.501890
C100	C	0.979762	1.001340	1.001890
C101	C	0.452486	0.578192	0.578542
C102	C	0.952486	1.078192	1.078542
O103	O	0.393359	0.436073	0.436781
O104	O	0.893359	0.936073	0.936781
O105	O	0.393407	0.720370	0.720368
O106	O	0.893407	1.220370	1.220368
C107	C	0.892022	0.578256	0.578655
C108	C	1.392022	1.078256	1.078655
C109	C	0.950136	0.578277	0.578690
C110	C	1.450136	1.078277	1.078690
C111	C	0.755683	0.265165	0.578611
C112	C	1.255683	0.765165	1.078611
C113	C	0.755698	0.131765	0.578627
C114	C	1.255698	0.631765	1.078627
C115	C	0.755639	0.578254	0.266748
C116	C	1.255639	1.078254	0.766748
C117	C	0.755723	0.577973	0.133348
C118	C	1.255723	1.077973	0.633348
H119	H	0.556658	0.717595	0.717509
H120	H	1.056658	1.217595	1.217509
H121	H	0.305389	0.361917	0.362973
H122	H	0.805389	0.861917	0.862973
H123	H	0.206339	0.361945	0.362981
H124	H	0.706339	0.861945	0.862981
H125	H	0.305504	0.794470	0.794235
H126	H	0.805504	1.294470	1.294235
H127	H	-0.044823	0.438873	0.439651
H128	H	0.455177	0.938873	0.939651
H129	H	0.054227	0.438834	0.439637
H130	H	0.554227	0.938834	0.939637
Cl131	Cl	0.445412	0.404752	0.405552
Cl132	Cl	0.945412	0.904752	0.905552
H133	H	0.556582	0.438765	0.439468
H134	H	1.056582	0.938765	0.939468
H135	H	0.457608	0.717600	0.717568
H136	H	0.957608	1.217600	1.217568
H137	H	0.206458	0.794480	0.794274
H138	H	0.706458	1.294480	1.294274
H139	H	-0.044754	0.717687	0.717713
H140	H	0.455246	1.217687	1.217713
Cl141	Cl	0.066412	0.751713	0.751623
Cl142	Cl	0.566412	1.251713	1.251623
