data_functionalizedCrystal
_audit_creation_method	'MofGen! by Chris Wilmer'
_symmetry_space_group_name_H-M	'P1'
_symmetry_Int_Tables_number	1
_symmetry_cell_setting	triclinic
loop_
_symmetry_equiv_pos_as_xyz
  x,y,z
_cell_length_a	14.044220
_cell_length_b	23.532407
_cell_length_c	13.101039
_cell_angle_alpha	86.645115
_cell_angle_beta	86.328313
_cell_angle_gamma	91.981183
loop_
_atom_site_label
_atom_site_type_symbol
_atom_site_fract_x
_atom_site_fract_y
_atom_site_fract_z
O1	O	1.251162	-0.140104	0.085153
O2	O	0.975238	-0.135153	0.085177
O3	O	1.121523	-0.055147	0.085131
O4	O	1.104878	-0.220110	0.085200
O5	O	1.132023	-0.049399	-0.085303
O6	O	0.985738	-0.129405	-0.085256
O7	O	1.261662	-0.134356	-0.085280
Zn8	Zn	1.125368	-0.130968	-0.112328
Zn9	Zn	1.111533	-0.138541	0.112225
O10	O	1.115378	-0.214363	-0.085233
C11	C	0.945194	-0.130111	-0.000037
C12	C	0.840029	-0.123646	-0.000029
C13	C	1.126349	-0.031034	-0.000093
C14	C	1.125076	0.032253	-0.000112
C15	C	0.647480	-0.111824	-0.000054
C16	C	0.589414	-0.157683	-0.000040
C17	C	0.482274	-0.151105	-0.000054
C18	C	0.754631	-0.118401	-0.000040
C19	C	1.291706	-0.139398	-0.000064
C20	C	1.396871	-0.145864	-0.000065
N21	N	1.102092	-0.143705	0.265477
C22	C	1.033252	0.303396	-0.000057
C23	C	1.034436	0.243931	-0.000061
O24	O	0.961594	0.211133	-0.000020
N25	N	1.121402	0.216592	-0.000079
C26	C	1.207189	0.248720	-0.000082
O27	O	1.281268	0.220006	-0.000097
C28	C	1.206003	0.308183	-0.000070
C29	C	1.119033	0.335519	-0.000063
C30	C	0.946289	0.330732	-0.000048
C31	C	0.945106	0.390192	-0.000046
C32	C	1.030886	0.422316	-0.000052
C33	C	1.117850	0.394979	-0.000060
C34	C	1.291789	0.340310	-0.000066
C35	C	1.290596	0.399776	-0.000054
C36	C	1.203625	0.427113	-0.000046
C37	C	1.202447	0.486563	-0.000064
N38	N	1.115481	0.513903	-0.000046
C39	C	1.029701	0.481779	-0.000040
C40	C	1.209671	0.123844	-0.000105
C41	C	1.210858	0.064382	-0.000123
C42	C	1.038105	0.059598	-0.000101
C43	C	1.036920	0.119060	-0.000089
C44	C	1.122705	0.151183	-0.000087
C45	C	1.027222	0.606650	-0.000036
C46	C	1.026047	0.666116	-0.000038
C47	C	1.198799	0.670895	-0.000056
C48	C	1.199975	0.611435	-0.000059
C49	C	1.114179	0.579313	-0.000046
O50	O	1.275251	0.519398	-0.000101
O51	O	0.955632	0.510500	-0.000012
C52	C	1.110552	0.761525	-0.000024
C53	C	1.111827	0.698239	-0.000044
N54	N	1.134816	-0.125800	-0.265580
C55	C	1.089238	-0.150731	0.474523
C56	C	1.147667	-0.118776	0.525380
C57	C	1.140515	-0.122685	0.641701
C58	C	1.096389	-0.146823	0.358192
H59	H	0.620168	-0.201885	-0.000016
C60	C	0.506327	-0.057108	-0.000075
C61	C	0.605970	-0.052156	-0.000073
H62	H	0.480694	-0.020272	-0.000076
H63	H	0.489024	-0.075191	-0.059502
H64	H	0.481687	-0.079213	0.059366
H65	H	0.630611	-0.030054	-0.059518
H66	H	0.623282	-0.034064	0.059361
H67	H	1.270794	0.589177	-0.000080
C68	C	0.922907	-0.176893	0.507823
C69	C	1.014455	-0.191622	0.533666
H70	H	0.876740	-0.202139	0.544340
H71	H	0.911916	-0.138961	0.525324
H72	H	0.917976	-0.179601	0.436279
H73	H	1.019389	-0.188911	0.605210
H74	H	1.025450	-0.229564	0.516172
C75	C	0.855403	0.655404	-0.000008
C76	C	0.930442	0.696162	-0.000022
H77	H	0.796383	0.673953	0.000010
H78	H	0.863118	0.634325	-0.059441
H79	H	0.855809	0.630296	0.059427
H80	H	0.930040	0.721267	-0.059461
H81	H	0.922724	0.717250	0.059417
C82	C	1.381494	0.075099	-0.000142
C83	C	1.306459	0.034339	-0.000140
H84	H	1.440514	0.056552	-0.000141
H85	H	1.381097	0.100203	-0.059572
H86	H	1.373764	0.096181	0.059296
H87	H	1.314184	0.013260	-0.059583
H88	H	1.306857	0.009225	0.059296
H89	H	1.203060	-0.088482	0.481560
H90	H	0.957359	0.580503	-0.000025
H91	H	0.874285	0.412444	-0.000031
H92	H	0.876432	0.304583	-0.000040
H93	H	0.966101	0.141314	-0.000087
C94	C	0.963226	-0.033686	-0.000079
C95	C	0.943810	0.024279	-0.000077
H96	H	0.905014	-0.055490	-0.000057
H97	H	1.002559	-0.040429	-0.059518
H98	H	0.995259	-0.044450	0.059350
H99	H	0.911783	0.035044	-0.059510
H100	H	0.904461	0.031025	0.059368
H101	H	1.279533	0.149995	-0.000110
C102	C	1.462419	0.351036	-0.000059
C103	C	1.387391	0.310272	-0.000067
H104	H	1.521442	0.332491	-0.000052
H105	H	1.462024	0.376140	-0.059488
H106	H	1.454680	0.372117	0.059380
H107	H	1.395126	0.289194	-0.059510
H108	H	1.387787	0.285158	0.059368
C109	C	1.273669	0.764177	-0.000043
C110	C	1.293085	0.706213	-0.000057
H111	H	1.331878	0.785980	-0.000032
H112	H	1.241658	0.774947	-0.059472
H113	H	1.234314	0.770914	0.059396
H114	H	1.332434	0.699475	-0.059500
H115	H	1.325111	0.695439	0.059379
C116	C	1.384096	0.466451	0.087565
C117	C	1.384897	0.435084	-0.000052
H118	H	1.442316	0.488244	0.087565
H119	H	1.332144	0.491243	0.087561
H120	H	1.377299	0.441135	0.146990
H121	H	1.391687	0.460401	-0.059477
H122	H	1.436864	0.410290	-0.000058
