data_functionalizedCrystal
_audit_creation_method	'MofGen! by Chris Wilmer'
_symmetry_space_group_name_H-M	'P1'
_symmetry_Int_Tables_number	1
_symmetry_cell_setting	triclinic
loop_
_symmetry_equiv_pos_as_xyz
  x,y,z
_cell_length_a	21.395362
_cell_length_b	21.395361
_cell_length_c	21.395364
_cell_angle_alpha	89.982373
_cell_angle_beta	90.034975
_cell_angle_gamma	89.953415
loop_
_atom_site_label
_atom_site_type_symbol
_atom_site_fract_x
_atom_site_fract_y
_atom_site_fract_z
Zn1	Zn	0.957804	0.249270	0.354572
Zn2	Zn	1.457804	0.749270	0.854572
Zn3	Zn	0.957723	0.354022	0.249789
Zn4	Zn	1.457723	0.854022	0.749789
Zn5	Zn	0.853035	0.249292	0.249774
Zn6	Zn	1.353035	0.749292	0.749774
Zn7	Zn	0.852988	0.354042	0.354494
Zn8	Zn	1.352988	0.854042	0.854494
O9	O	0.905388	0.301657	0.302157
O10	O	1.405388	0.801657	0.802157
O11	O	1.045471	0.263148	0.340712
O12	O	1.545471	0.763148	0.840712
O13	O	0.943822	0.340130	0.162109
O14	O	1.443822	0.840130	0.662109
O15	O	0.866987	0.161611	0.263702
O16	O	1.366987	0.661611	0.763702
O17	O	1.045412	0.340109	0.263728
O18	O	1.545412	0.840109	0.763728
O19	O	0.943960	0.161595	0.340697
O20	O	1.443960	0.661595	0.840697
O21	O	0.866908	0.263185	0.162098
O22	O	1.366908	0.763185	0.662098
O23	O	0.765351	0.263205	0.263626
O24	O	1.265351	0.763205	0.763626
O25	O	0.866906	0.340143	0.442182
O26	O	1.366906	0.840143	0.942182
O27	O	0.765316	0.340165	0.340563
O28	O	1.265316	0.840165	0.840563
O29	O	0.943914	0.263167	0.442240
O30	O	1.443914	0.763167	0.942240
O31	O	0.943776	0.441703	0.263653
O32	O	1.443776	0.941703	0.763653
O33	O	0.866828	0.441718	0.340579
O34	O	1.366828	0.941718	0.840579
C35	C	0.905305	0.464444	0.302123
C36	C	1.405305	0.964444	0.802123
C37	C	0.905327	0.534085	0.302129
C38	C	1.405327	1.034085	0.802129
C39	C	0.742600	0.301690	0.302085
C40	C	1.242600	0.801690	0.802085
C41	C	0.672959	0.301719	0.302068
C42	C	1.172959	0.801719	0.802068
C43	C	0.905414	0.301655	0.465581
C44	C	1.405414	0.801655	0.965581
C45	C	0.905425	0.301654	0.535222
C46	C	1.405425	0.801654	1.035222
C47	C	0.640244	0.341845	0.342070
C48	C	1.140244	0.841845	0.842070
C49	C	0.574808	0.341830	0.342098
C50	C	1.074808	0.841830	0.842098
C51	C	0.542090	0.301695	0.302113
C52	C	1.042090	0.801695	0.802113
C53	C	0.574813	0.261561	0.262109
C54	C	1.074813	0.761561	0.762109
C55	C	0.640247	0.261573	0.262087
C56	C	1.140247	0.761573	0.762087
C57	C	0.438374	0.296643	0.245708
C58	C	0.938374	0.796643	0.745708
C59	C	0.372942	0.296636	0.245729
C60	C	0.872942	0.796636	0.745729
C61	C	0.340270	0.301654	0.302182
C62	C	0.840270	0.801654	0.802182
C63	C	0.373039	0.306693	0.358616
C64	C	0.873039	0.806693	0.858616
C65	C	0.438473	0.306705	0.358593
C66	C	0.938473	0.806705	0.858593
C67	C	0.471138	0.301677	0.302133
C68	C	0.971138	0.801677	0.802133
C69	C	0.236602	0.341766	0.342217
C70	C	0.736602	0.841766	0.842217
C71	C	0.171166	0.341746	0.342246
C72	C	0.671166	0.841746	0.842246
C73	C	0.171172	0.261480	0.262252
C74	C	0.671172	0.761480	0.762252
C75	C	0.236607	0.261497	0.262228
C76	C	0.736607	0.761497	0.762228
C77	C	0.269318	0.301643	0.302210
C78	C	0.769318	0.801643	0.802210
C79	C	1.068811	0.301624	0.302231
C80	C	1.568811	0.801624	0.802231
C81	C	1.138452	0.301610	0.302262
C82	C	1.638452	0.801610	0.802262
C83	C	0.905488	0.138233	0.302206
C84	C	1.405488	0.638233	0.802206
C85	C	0.905530	0.068592	0.302227
C86	C	1.405530	0.568592	0.802227
C87	C	0.945429	0.566770	0.262114
C88	C	1.445429	1.066770	0.762114
C89	C	0.945458	0.632205	0.262128
C90	C	1.445458	1.132205	0.762128
C91	C	0.905374	0.664954	0.302150
C92	C	1.405374	1.164954	0.802150
C93	C	0.865269	0.632261	0.342172
C94	C	1.365269	1.132261	0.842172
C95	C	0.865245	0.566827	0.342161
C96	C	1.365245	1.066827	0.842161
C97	C	0.848958	0.768685	0.307041
C98	C	1.348958	1.268685	0.807041
C99	C	0.848981	0.834118	0.307047
C100	C	1.348981	1.334118	0.807047
C101	C	0.905447	0.866774	0.302187
C102	C	1.405447	1.366774	0.802187
C103	C	0.961892	0.833990	0.297307
C104	C	1.461892	1.333990	0.797307
C105	C	0.961869	0.768556	0.297296
C106	C	1.461869	1.268556	0.797296
C107	C	0.905395	0.735906	0.302166
C108	C	1.405395	1.235906	0.802166
C109	C	0.945584	0.970412	0.262186
C110	C	1.445584	1.470412	0.762186
C111	C	0.945614	1.035848	0.262204
C112	C	1.445614	1.535848	0.762204
C113	C	0.865419	1.035903	0.342245
C114	C	1.365419	1.535903	0.842245
C115	C	0.865395	0.970467	0.342230
C116	C	1.365395	1.470467	0.842230
C117	C	0.905476	0.937726	0.302197
C118	C	1.405476	1.437726	0.802197
C119	C	0.865383	0.261592	0.567919
C120	C	1.365383	0.761592	1.067919
C121	C	0.865371	0.261595	0.633355
C122	C	1.365371	0.761595	1.133355
C123	C	0.905414	0.301654	0.666090
C124	C	1.405414	0.801654	1.166090
C125	C	0.945459	0.341724	0.633385
C126	C	1.445459	0.841724	1.133385
C127	C	0.945465	0.341724	0.567951
C128	C	1.445465	0.841724	1.067951
C129	C	0.961851	0.306588	0.769795
C130	C	1.461851	0.806588	1.269795
C131	C	0.961847	0.306584	0.835228
C132	C	1.461847	0.806584	1.335228
C133	C	0.905396	0.301658	0.867911
C134	C	1.405396	0.801658	1.367911
C135	C	0.848948	0.296723	0.835153
C136	C	1.348948	0.796723	1.335153
C137	C	0.848954	0.296723	0.769719
C138	C	1.348954	0.796723	1.269719
C139	C	0.905412	0.301659	0.737043
C140	C	1.405412	0.801659	1.237043
C141	C	0.865338	0.261597	0.971561
C142	C	1.365338	0.761597	1.471561
C143	C	0.865325	0.261605	1.036997
C144	C	1.365325	0.761605	1.536997
C145	C	0.945419	0.341731	1.037027
C146	C	1.445419	0.841731	1.537027
C147	C	0.945426	0.341726	0.971591
C148	C	1.445426	0.841726	1.471591
C149	C	0.905386	0.301656	0.938862
C150	C	1.405386	0.801656	1.438862
C151	C	0.905362	0.301670	1.139370
C152	C	1.405362	0.801670	1.639370
C153	C	0.905368	0.301665	1.069729
C154	C	1.405368	0.801665	1.569729
H155	H	0.666873	0.374534	0.374627
H156	H	1.166873	0.874534	0.874627
C157	C	0.336898	0.291138	0.183654
C158	C	0.836898	0.791138	0.683654
H159	H	0.293249	0.291870	0.191750
H160	H	0.793249	0.791870	0.691750
H161	H	0.347624	0.252974	0.163661
H162	H	0.847624	0.752974	0.663661
H163	H	0.347581	0.325200	0.157257
H164	H	0.847581	0.825200	0.657257
C165	C	0.989721	1.071804	0.218180
C166	C	1.489721	1.571804	0.718180
H167	H	0.983998	1.115464	0.223921
H168	H	1.483998	1.615464	0.723921
H169	H	0.980564	1.061110	0.176072
H170	H	1.480564	1.561110	0.676072
H171	H	1.031814	1.061029	0.227393
H172	H	1.531814	1.561029	0.727393
H173	H	1.007810	0.310599	0.861895
H174	H	1.507810	0.810599	1.361895
C175	C	0.337109	0.312211	0.420717
C176	C	0.837109	0.812211	0.920717
H177	H	0.293446	0.311474	0.412651
H178	H	0.793446	0.811474	0.912651
H179	H	0.347811	0.350387	0.440679
H180	H	0.847811	0.850387	0.940679
H181	H	0.347895	0.278165	0.447130
H182	H	0.847895	0.778165	0.947130
H183	H	0.465151	0.310806	0.404543
H184	H	0.965151	0.810806	0.904543
H185	H	0.803020	0.860806	0.311015
H186	H	1.303020	1.360806	0.811015
H187	H	0.832765	0.228968	0.659982
H188	H	1.332765	0.728968	1.159982
C189	C	0.989509	0.385786	0.669389
C190	C	1.489509	0.885786	1.169389
H191	H	1.013357	0.409650	0.640541
H192	H	1.513357	0.909650	1.140541
H193	H	1.016821	0.361812	0.694939
H194	H	1.516821	0.861812	1.194939
H195	H	0.965521	0.413093	0.694891
H196	H	1.465521	0.913093	1.194891
H197	H	0.832784	1.062566	0.374834
H198	H	1.332784	1.562566	0.874834
C199	C	0.821274	0.934512	0.386238
C200	C	1.321274	1.434512	0.886238
H201	H	0.797400	0.963386	0.410072
H202	H	1.297400	1.463386	0.910072
H203	H	0.845211	0.908943	0.413564
H204	H	1.345211	1.408943	0.913564
H205	H	0.793979	0.909033	0.362225
H206	H	1.293979	1.409033	0.862225
C207	C	0.786842	0.732769	0.312392
C208	C	1.286842	1.232769	0.812392
H209	H	0.753230	0.761664	0.315292
H210	H	1.253230	1.261664	0.815292
H211	H	0.787624	0.707226	0.348708
H212	H	1.287624	1.207226	0.848708
H213	H	0.781348	0.707266	0.276469
H214	H	1.281348	1.207266	0.776469
H215	H	0.978024	0.374346	1.063679
H216	H	1.478024	0.874346	1.563679
C217	C	1.023949	0.312013	0.733848
C218	C	1.523949	0.812013	1.233848
H219	H	1.015868	0.311314	0.690186
H220	H	1.515868	0.811314	1.190186
H221	H	1.050328	0.277927	0.744598
H222	H	1.550328	0.777927	1.244598
H223	H	1.043954	0.350158	0.744576
H224	H	1.543954	0.850158	1.244576
H225	H	0.832633	0.658929	0.374759
H226	H	1.332633	1.158929	0.874759
H227	H	0.666883	0.228896	0.229512
H228	H	1.166883	0.728896	0.729512
H229	H	0.832713	0.228983	1.063618
H230	H	1.332713	0.728983	1.563618
H231	H	0.263237	0.374452	0.374776
H232	H	0.763237	0.874452	0.874776
H233	H	0.832734	0.228970	0.944911
H234	H	1.332734	0.728970	1.444911
C235	C	0.474307	0.291089	0.183609
C236	C	0.974307	0.791089	0.683609
H237	H	0.445421	0.288085	0.150005
H238	H	0.945421	0.788085	0.650005
H239	H	0.499858	0.254768	0.184503
H240	H	0.999858	0.754768	0.684503
H241	H	0.499804	0.326985	0.178007
H242	H	0.999804	0.826985	0.678007
C243	C	0.786866	0.291306	0.733686
C244	C	1.286866	0.791306	1.233686
H245	H	0.753243	0.288378	0.762518
H246	H	1.253243	0.788378	1.262518
H247	H	0.787702	0.254990	0.708169
H248	H	1.287702	0.754990	1.208169
H249	H	0.781346	0.327223	0.708149
H250	H	1.281346	0.827223	1.208149
H251	H	0.263244	0.228825	0.229652
H252	H	0.763244	0.728825	0.729652
C253	C	0.135190	0.217325	0.218277
C254	C	0.635190	0.717325	0.718277
H255	H	0.091533	0.223064	0.224019
H256	H	0.591533	0.723064	0.724019
H257	H	0.145969	0.175246	0.227527
H258	H	0.645969	0.675246	0.727527
H259	H	0.145859	0.226429	0.176154
H260	H	0.645859	0.726429	0.676154
C261	C	0.135179	0.385896	0.386241
C262	C	0.635179	0.885896	0.886241
H263	H	0.164035	0.409812	0.410041
H264	H	0.664035	0.909812	0.910041
H265	H	0.109700	0.361977	0.413600
H266	H	0.609700	0.861977	0.913600
H267	H	0.109607	0.413149	0.362217
H268	H	0.609607	0.913149	0.862217
H269	H	0.832588	0.540215	0.374747
H270	H	1.332588	1.040215	0.874747
H271	H	0.832777	0.228966	0.541275
H272	H	1.332777	0.728966	1.041275
H273	H	0.978075	0.374347	0.541329
H274	H	1.478075	0.874347	1.041329
C275	C	0.786847	0.291323	0.871094
C276	C	1.286847	0.791323	1.371094
H277	H	0.794925	0.292042	0.914756
H278	H	1.294925	0.792042	1.414756
H279	H	0.766825	0.253188	0.860377
H280	H	1.266825	0.753188	1.360377
H281	H	0.760484	0.325422	0.860332
H282	H	1.260484	0.825422	1.360332
C283	C	0.538826	0.217414	0.218127
C284	C	1.038826	0.717414	0.718127
H285	H	0.495170	0.223157	0.223865
H286	H	0.995170	0.723157	0.723865
H287	H	0.549599	0.175333	0.227371
H288	H	1.049599	0.675333	0.727371
H289	H	0.549501	0.226523	0.176006
H290	H	1.049501	0.726523	0.676006
C291	C	0.989481	0.385788	0.935623
C292	C	1.489481	0.885788	1.435623
H293	H	1.013332	0.409643	0.964489
H294	H	1.513332	0.909643	1.464489
H295	H	0.965502	0.413092	0.910069
H296	H	1.465502	0.913092	1.410069
H297	H	1.016799	0.361808	0.910126
H298	H	1.516799	0.861808	1.410126
H299	H	0.548167	0.374505	0.374674
H300	H	1.048167	0.874505	0.874674
H301	H	1.007872	0.860578	0.293349
H302	H	1.507872	1.360578	0.793349
C303	C	0.989524	0.530758	0.218087
C304	C	1.489524	1.030758	0.718087
H305	H	1.013416	0.559599	0.194262
H306	H	1.513416	1.059599	0.694262
H307	H	0.965569	0.505270	0.190753
H308	H	1.465569	1.005270	0.690753
H309	H	1.016802	0.505192	0.242090
H310	H	1.516802	1.005192	0.742090
C311	C	0.989571	0.668169	0.218111
C312	C	1.489571	1.168169	0.718111
H313	H	0.983846	0.711829	0.223855
H314	H	1.483846	1.211829	0.723855
H315	H	0.980423	0.657477	0.176001
H316	H	1.480423	1.157477	0.676001
H317	H	1.031662	0.657394	0.227333
H318	H	1.531662	1.157394	0.727333
C319	C	1.023951	0.732492	0.291939
C320	C	1.523951	1.232492	0.791939
H321	H	1.015847	0.688846	0.292626
H322	H	1.515847	1.188846	0.792626
H323	H	1.050287	0.743169	0.326058
H324	H	1.550287	1.243169	0.826058
H325	H	1.044017	0.743206	0.253819
H326	H	1.544017	1.243206	0.753819
C327	C	0.989678	0.934393	0.218159
C328	C	1.489678	1.434393	0.718159
H329	H	1.013574	0.963233	0.194336
H330	H	1.513574	1.463233	0.694336
H331	H	0.965721	0.908909	0.190823
H332	H	1.465721	1.408909	0.690823
H333	H	1.016953	0.908824	0.242162
H334	H	1.516953	1.408824	0.742162
