data_functionalizedCrystal
_audit_creation_method	'MofGen! by Chris Wilmer'
_symmetry_space_group_name_H-M	'P1'
_symmetry_Int_Tables_number	1
_symmetry_cell_setting	triclinic
loop_
_symmetry_equiv_pos_as_xyz
  x,y,z
_cell_length_a	8.497367
_cell_length_b	8.497374
_cell_length_c	11.169417
_cell_angle_alpha	90.000212
_cell_angle_beta	90.032599
_cell_angle_gamma	90.038609
loop_
_atom_site_label
_atom_site_type_symbol
_atom_site_fract_x
_atom_site_fract_y
_atom_site_fract_z
Zn1	Zn	0.628293	0.892409	1.835096
Zn2	Zn	1.128293	1.392409	2.335096
Zn3	Zn	0.892039	0.628828	1.835207
Zn4	Zn	1.392039	1.128828	2.335207
Zn5	Zn	0.628271	0.628643	1.634450
Zn6	Zn	1.128271	1.128643	2.134450
Zn7	Zn	0.892030	0.892566	1.634542
Zn8	Zn	1.392030	1.392566	2.134542
O9	O	0.760158	0.760611	1.734824
O10	O	1.260158	1.260611	2.234824
O11	O	0.663293	0.857455	2.003060
O12	O	1.163293	1.357455	2.503060
O13	O	0.857044	0.408041	1.808584
O14	O	1.357044	0.908041	2.308584
O15	O	0.407511	0.663488	1.660981
O16	O	0.907511	1.163488	2.160981
O17	O	0.857066	0.663804	2.003142
O18	O	1.357066	1.163804	2.503142
O19	O	0.407528	0.857276	1.808394
O20	O	0.907528	1.357276	2.308394
O21	O	0.663255	0.407905	1.661089
O22	O	1.163255	0.907905	2.161089
O23	O	0.663245	0.663641	1.466513
O24	O	1.163245	1.163641	1.966513
O25	O	0.857050	1.113308	1.661138
O26	O	1.357050	1.613308	2.161138
O27	O	0.857028	0.857545	1.466580
O28	O	1.357028	1.357545	1.966580
O29	O	0.663284	1.113192	1.808484
O30	O	1.163284	1.613192	2.308484
O31	O	1.112801	0.663957	1.808674
O32	O	1.612801	1.163957	2.308674
O33	O	1.112793	0.857724	1.661246
O34	O	1.612793	1.357724	2.161246
C35	C	0.760134	0.760591	1.422999
C36	C	1.260134	1.260591	1.922999
C37	C	0.760162	0.760620	1.289599
C38	C	1.260162	1.260620	1.789599
C39	C	1.348678	0.760466	1.734740
C40	C	1.848678	1.260466	2.234740
C41	C	1.170034	0.760754	1.734891
C42	C	1.670034	1.260754	2.234891
C43	C	0.760161	1.172092	1.734815
C44	C	1.260161	1.672092	2.234815
C45	C	0.760177	1.350736	1.734818
C46	C	1.260177	1.850736	2.234818
C47	C	0.760183	0.760633	2.047866
C48	C	1.260183	1.260633	2.547866
C49	C	0.760194	0.760642	2.181266
C50	C	1.260194	1.260642	2.681266
