data_functionalizedCrystal
_audit_creation_method	'MofGen! by Chris Wilmer'
_symmetry_space_group_name_H-M	'P1'
_symmetry_Int_Tables_number	1
_symmetry_cell_setting	triclinic
loop_
_symmetry_equiv_pos_as_xyz
  x,y,z
_cell_length_a	19.077105
_cell_length_b	13.032721
_cell_length_c	19.076919
_cell_angle_alpha	80.861841
_cell_angle_beta	89.923776
_cell_angle_gamma	95.201395
loop_
_atom_site_label
_atom_site_type_symbol
_atom_site_fract_x
_atom_site_fract_y
_atom_site_fract_z
Zn1	Zn	1.013397	-0.505360	0.481832
Zn2	Zn	1.003124	-0.673317	0.378090
Zn3	Zn	0.901858	-0.491366	0.358479
Zn4	Zn	0.881001	-0.672687	0.490791
O5	O	0.949845	-0.585683	0.427298
O6	O	1.109823	-0.533760	0.472529
O7	O	0.994119	-0.643588	0.276699
O8	O	0.929682	-0.347048	0.362886
O9	O	1.102275	-0.657157	0.396309
O10	O	1.011630	-0.357329	0.453513
O11	O	0.919720	-0.509909	0.262291
O12	O	0.801303	-0.509299	0.371572
O13	O	0.894135	-0.656084	0.588392
O14	O	0.785980	-0.642515	0.468781
O15	O	0.991406	-0.533149	0.581810
O16	O	0.973896	-0.819408	0.404996
O17	O	0.884173	-0.818945	0.487797
C18	C	0.768286	-0.574321	0.419021
C19	C	0.690611	-0.569486	0.415499
C20	C	0.646154	-0.636670	0.464393
C21	C	0.573171	-0.632114	0.461086
C22	C	0.544646	-0.560378	0.408881
C23	C	0.589109	-0.493187	0.359985
C24	C	0.662091	-0.497739	0.363296
C25	C	0.327230	-0.539312	0.393562
C26	C	0.254242	-0.534767	0.390254
C27	C	0.238309	-0.673693	0.491357
C28	C	0.311292	-0.678243	0.494660
C29	C	0.355749	-0.611048	0.445766
N30	N	0.470046	-0.555721	0.405499
N31	N	0.430348	-0.615700	0.449153
C32	C	0.925675	-0.857080	0.449513
C33	C	0.915397	-0.973191	0.459043
C34	C	0.955245	-1.025155	0.422357
C35	C	0.944623	-1.145161	0.432206
C36	C	1.132113	-0.597090	0.435607
C37	C	1.209785	-0.601951	0.439148
C38	C	0.941590	-0.596107	0.611432
C39	C	0.938072	-0.600549	0.689899
C40	C	0.974128	-0.313227	0.405012
C41	C	0.984476	-0.197123	0.395516
C42	C	0.958115	-0.575226	0.243875
C43	C	0.961794	-0.570498	0.165391
C44	C	0.987061	-0.538633	0.723338
C45	C	0.983747	-0.542803	0.797065
C46	C	0.931448	-0.608894	0.837354
C47	C	0.882454	-0.670812	0.803910
C48	C	0.885765	-0.666637	0.730183
C49	C	0.916112	-0.628240	1.058220
C50	C	0.912806	-0.632414	1.131952
C51	C	1.014098	-0.504402	1.125102
C52	C	1.017407	-0.500237	1.051375
C53	C	0.968412	-0.562151	1.017937
N54	N	0.928061	-0.613160	0.912715
N55	N	0.971796	-0.557879	0.942576
H56	H	0.231022	-0.476339	0.347746
C57	C	0.782662	-0.796922	0.803269
C58	C	0.824964	-0.743461	0.848192
H59	H	0.747168	-0.841770	0.830607
H60	H	0.810838	-0.837152	0.779172
H61	H	0.761282	-0.748096	0.769569
H62	H	0.846348	-0.792287	0.881889
H63	H	0.796784	-0.703228	0.872302
C64	C	0.414844	-0.524312	0.301131
C65	C	0.376088	-0.465458	0.339813
H66	H	0.445011	-0.478713	0.267949
H67	H	0.383535	-0.566450	0.276510
H68	H	0.442279	-0.567675	0.332702
H69	H	0.348649	-0.422100	0.308243
H70	H	0.407401	-0.423302	0.364435
H71	H	1.023640	-0.492387	0.824288
C72	C	1.037879	-0.362599	0.687728
C73	C	1.044549	-0.465979	0.679056
H74	H	1.073368	-0.317744	0.660388
H75	H	1.042919	-0.356234	0.736418
H76	H	0.992829	-0.343705	0.672248
H77	H	1.089597	-0.484876	0.694542
H78	H	1.039515	-0.472348	0.630356
H79	H	0.698288	-0.443025	0.323484
H80	H	0.536976	-0.686823	0.500901
C81	C	0.288209	-0.815102	0.594267
C82	C	0.342644	-0.757094	0.552047
H83	H	0.307567	-0.863779	0.629696
H84	H	0.257568	-0.851465	0.565438
H85	H	0.262584	-0.769399	0.616310
H86	H	0.368267	-0.802797	0.530001
H87	H	0.373297	-0.720729	0.580880
H88	H	0.997225	-0.980802	0.383660
H89	H	0.202105	-0.728397	0.531164
H90	H	0.565879	-0.434774	0.317481
C91	C	0.888396	-1.312319	0.484097
C92	C	0.887949	-1.205025	0.484454
H93	H	0.853406	-1.349274	0.516349
H94	H	0.933310	-1.333594	0.498056
H95	H	0.878765	-1.326856	0.437645
H96	H	0.897586	-1.190487	0.530905
H97	H	0.843025	-1.183742	0.470499
C98	C	0.623067	-0.773523	0.564001
C99	C	0.677504	-0.715522	0.521781
H100	H	0.642422	-0.822197	0.599435
H101	H	0.592427	-0.809890	0.535173
H102	H	0.597440	-0.727815	0.586038
H103	H	0.703128	-0.761229	0.499740
H104	H	0.708156	-0.679152	0.550614
C105	C	1.067418	-0.436928	0.935310
C106	C	1.074868	-0.427536	1.007086
H107	H	1.102888	-0.392037	0.907968
H108	H	1.022361	-0.418061	0.919857
H109	H	1.071964	-0.507058	0.929426
H110	H	1.070316	-0.357408	1.012970
H111	H	1.119935	-0.446397	1.022543
H112	H	1.053987	-0.453994	1.152335
C113	C	0.845863	-0.717070	0.620204
C114	C	0.831916	-0.734696	0.693424
H115	H	0.812613	-0.759082	0.597511
H116	H	0.891988	-0.734617	0.611518
H117	H	0.842435	-0.645557	0.601923
H118	H	0.835350	-0.806207	0.711705
H119	H	0.785780	-0.717156	0.702114
C120	C	1.040701	-1.029966	0.343617
C121	C	1.041148	-1.137261	0.343265
H122	H	1.075684	-0.993012	0.311356
H123	H	1.050337	-1.015424	0.390061
H124	H	0.995779	-1.008693	0.329662
H125	H	1.086069	-1.158535	0.357225
H126	H	1.031516	-1.151810	0.296811
C127	C	0.813003	-0.758522	1.131320
C128	C	0.855311	-0.705062	1.176239
H129	H	0.777509	-0.803365	1.158662
H130	H	0.841174	-0.798757	1.107221
H131	H	0.791622	-0.709696	1.097621
H132	H	0.876696	-0.753889	1.209935
H133	H	0.827136	-0.664825	1.200349
H134	H	0.873422	-1.017547	0.497745
H135	H	0.876225	-0.678671	1.031006
