data_functionalizedCrystal
_audit_creation_method	'MofGen! by Chris Wilmer'
_symmetry_space_group_name_H-M	'P1'
_symmetry_Int_Tables_number	1
_symmetry_cell_setting	triclinic
loop_
_symmetry_equiv_pos_as_xyz
  x,y,z
_cell_length_a	12.811449
_cell_length_b	10.723024
_cell_length_c	9.198806
_cell_angle_alpha	90.002265
_cell_angle_beta	95.435660
_cell_angle_gamma	84.254676
loop_
_atom_site_label
_atom_site_type_symbol
_atom_site_fract_x
_atom_site_fract_y
_atom_site_fract_z
O1	O	-1.393886	-0.168077	-0.304660
O2	O	-0.893886	0.331923	0.195340
O3	O	-1.088433	-0.186353	-0.264391
O4	O	-0.588433	0.313647	0.235609
O5	O	-1.248205	0.004397	-0.285449
O6	O	-0.748205	0.504397	0.214551
O7	O	-1.234114	-0.358826	-0.283602
O8	O	-0.734114	0.141174	0.216398
O9	O	-1.248193	0.004398	-0.043663
O10	O	-0.748193	0.504398	0.456337
O11	O	-1.088421	-0.186351	-0.022605
O12	O	-0.588421	0.313649	0.477395
O13	O	-1.393874	-0.168075	-0.062873
O14	O	-0.893874	0.331925	0.437127
Cu15	Cu	-1.241146	-0.177213	-0.020662
Cu16	Cu	-0.741146	0.322787	0.479338
Cu17	Cu	-1.241160	-0.177215	-0.306603
Cu18	Cu	-0.741160	0.322785	0.193397
O19	O	-1.234102	-0.358824	-0.041816
O20	O	-0.734102	0.141176	0.458184
C21	C	-1.049315	-0.185328	-0.138342
C22	C	-0.549315	0.314672	0.361658
C23	C	-0.932775	-0.182261	-0.122978
C24	C	-0.432775	0.317739	0.377022
C25	C	-1.247174	0.050892	-0.164422
C26	C	-0.747174	0.550892	0.335578
C27	C	-1.244106	0.189431	-0.164023
C28	C	-0.744106	0.689431	0.335977
C29	C	-0.768511	-0.177938	0.030466
C30	C	-0.268511	0.322062	0.530466
C31	C	-0.878011	-0.180820	0.016037
C32	C	-0.378011	0.319180	0.516037
C33	C	-0.878032	-0.180823	-0.247573
C34	C	-0.378032	0.319177	0.252427
C35	C	-0.768532	-0.177940	-0.233144
C36	C	-0.268532	0.322060	0.266856
C37	C	-0.713776	-0.176496	-0.094120
C38	C	-0.213776	0.323504	0.405880
C39	C	-0.604275	-0.173605	-0.079692
C40	C	-0.104275	0.326395	0.420308
C41	C	-0.604297	-0.173617	-0.343301
C42	C	-0.104297	0.326383	0.156699
C43	C	-0.713797	-0.176499	-0.357730
C44	C	-0.213797	0.323501	0.142270
C45	C	-0.432992	-0.169100	-0.188923
C46	C	0.067008	0.330900	0.311077
C47	C	-0.549532	-0.172167	-0.204287
C48	C	-0.049532	0.327833	0.295713
C49	C	-1.235133	-0.405320	-0.162846
C50	C	-0.735133	0.094680	0.337154
C51	C	-1.238201	-0.543859	-0.163254
C52	C	-0.738201	-0.043859	0.336746
N53	N	-1.241144	-0.177211	0.180452
N54	N	-0.741144	0.322789	0.680452
C55	C	-1.333506	0.264859	-0.175811
C56	C	-0.833506	0.764859	0.324189
C57	C	-1.330337	0.408047	-0.175398
C58	C	-0.830337	0.908047	0.324602
N59	N	-1.241171	-0.177207	-0.507718
N60	N	-0.741171	0.322793	-0.007718
C61	C	-1.174073	-0.257650	0.261524
C62	C	-0.674073	0.242350	0.761524
C63	C	-1.174087	-0.257649	0.428935
C64	C	-0.674087	0.242351	0.928935
H65	H	-0.559693	-0.172437	0.033509
H66	H	-0.059693	0.327563	0.533509
H67	H	-1.116661	-0.326512	0.498620
H68	H	-0.616661	0.173488	0.998620
H69	H	-0.922572	-0.181998	0.117488
H70	H	-0.422572	0.318002	0.617488
Cl71	Cl	-1.120028	0.356087	-0.147661
Cl72	Cl	-0.620028	0.856087	0.352339
Cl73	Cl	-1.329825	-0.070885	0.264628
Cl74	Cl	-0.829825	0.429115	0.764628
Cl75	Cl	-1.455304	0.200908	-0.191877
Cl76	Cl	-0.955304	0.700908	0.308123
Cl77	Cl	-1.085402	-0.363991	0.177351
Cl78	Cl	-0.585402	0.136009	0.677351
H79	H	-0.723927	-0.176769	0.143665
H80	H	-0.223927	0.323231	0.643665
H81	H	-1.298592	-0.108331	0.422607
H82	H	-0.798592	0.391669	0.922607
Cl83	Cl	-1.448505	0.508109	-0.190968
Cl84	Cl	-0.948505	1.008109	0.309032
Cl85	Cl	-1.122307	0.253382	-0.147981
Cl86	Cl	-0.622307	0.753382	0.352019
Cl87	Cl	-0.782644	-0.178311	-0.532493
Cl88	Cl	-0.282644	0.321689	-0.032493
Cl89	Cl	-0.946887	-0.182637	-0.422331
Cl90	Cl	-0.446887	0.317363	0.077669
H91	H	-0.559720	-0.172447	-0.444748
H92	H	-0.059720	0.327553	0.055252
