data_functionalizedCrystal
_audit_creation_method	'MofGen! by Chris Wilmer'
_symmetry_space_group_name_H-M	'P1'
_symmetry_Int_Tables_number	1
_symmetry_cell_setting	triclinic
loop_
_symmetry_equiv_pos_as_xyz
  x,y,z
_cell_length_a	12.827893
_cell_length_b	12.827892
_cell_length_c	12.827885
_cell_angle_alpha	90.029976
_cell_angle_beta	90.019272
_cell_angle_gamma	90.015362
loop_
_atom_site_label
_atom_site_type_symbol
_atom_site_fract_x
_atom_site_fract_y
_atom_site_fract_z
Zn1	Zn	1.597670	-0.415983	0.590847
Zn2	Zn	1.597564	-0.590761	0.416107
Zn3	Zn	1.422911	-0.416034	0.416121
Zn4	Zn	1.422896	-0.590683	0.590807
O5	O	1.510260	-0.503365	0.503471
O6	O	1.743892	-0.439179	0.567679
O7	O	1.574357	-0.567637	0.269873
O8	O	1.446144	-0.269791	0.439321
O9	O	1.743814	-0.567587	0.439298
O10	O	1.574538	-0.269754	0.567692
O11	O	1.446041	-0.439266	0.269883
O12	O	1.276673	-0.439190	0.439282
O13	O	1.446118	-0.567455	0.737048
O14	O	1.276662	-0.567504	0.567623
O15	O	1.574524	-0.439104	0.737078
O16	O	1.574343	-0.736986	0.439259
O17	O	1.446016	-0.736929	0.567610
C18	C	1.238750	-0.503345	0.503451
C19	C	1.122597	-0.503362	0.503467
C20	C	1.070835	-0.566954	0.566876
C21	C	0.950784	-0.566973	0.566895
C22	C	1.510195	-0.774875	0.503451
C23	C	1.510262	-0.891028	0.503478
C24	C	1.573768	-0.942711	0.567057
C25	C	1.573839	-1.062761	0.567086
C26	C	1.782830	-0.503386	0.503491
C27	C	1.898983	-0.503395	0.503500
C28	C	1.510331	-0.503265	0.776041
C29	C	1.510362	-0.503222	0.892194
C30	C	1.510354	-0.230795	0.503513
C31	C	1.510394	-0.114642	0.503531
C32	C	1.510249	-0.503390	0.231961
C33	C	1.510422	-0.503138	0.115808
C34	C	1.573907	-0.439697	0.943993
C35	C	1.573940	-0.439652	1.064044
H36	H	0.943491	-0.448952	0.449206
C37	C	1.646231	-0.883403	0.639733
C38	C	1.704812	-0.954349	0.698416
C39	C	1.771565	-0.899756	0.765391
H40	H	1.691815	-0.840806	0.599873
H41	H	1.606183	-0.840851	0.685236
H42	H	1.744858	-0.996883	0.652918
H43	H	1.659256	-0.996949	0.738297
H44	H	1.731517	-0.857204	0.810894
H45	H	1.817143	-0.857161	0.725522
H46	H	1.811314	-0.947884	0.805221
C47	C	1.063143	-0.430961	0.430952
C48	C	1.000469	-0.490128	0.363922
C49	C	0.945702	-0.423470	0.297090
H50	H	1.020499	-0.385493	0.470916
H51	H	1.111159	-0.391086	0.391106
H52	H	0.952459	-0.529986	0.403764
H53	H	1.043086	-0.535594	0.323935
H54	H	0.993717	-0.383595	0.257244
H55	H	0.903064	-0.378006	0.337063
H56	H	0.903178	-0.463606	0.251596
H57	H	1.456026	-1.070203	0.449091
C58	C	1.646162	-1.122074	0.639800
C59	C	1.586930	-1.184717	0.706699
C60	C	1.653518	-1.239363	0.773709
H61	H	1.691725	-1.164730	0.599959
H62	H	1.685939	-1.073987	0.679733
H63	H	1.547171	-1.232798	0.666770
H64	H	1.541371	-1.142087	0.746563
H65	H	1.693296	-1.191276	0.813642
H66	H	1.699078	-1.282013	0.733859
H67	H	1.613339	-1.281865	0.819114
H68	H	1.455941	-0.935657	0.449072
C69	C	1.646593	-0.367280	0.884766
C70	C	1.750009	-0.389994	0.911265
C71	C	1.816997	-0.323293	0.856740
H72	H	1.637077	-0.376874	0.811952
H73	H	1.631408	-0.297025	0.902636
H74	H	1.765189	-0.460232	0.893387
H75	H	1.759558	-0.380393	0.984069
H76	H	1.801812	-0.253038	0.874610
H77	H	1.807473	-0.332893	0.783928
H78	H	1.887172	-0.338689	0.874718
H79	H	0.906270	-0.621420	0.621179
H80	H	1.455975	-0.557567	0.936724
H81	H	1.115396	-0.621381	0.621153
H82	H	1.628348	-0.385270	1.108590
H83	H	1.456019	-0.557531	1.071269
