data_functionalizedCrystal
_audit_creation_method	'MofGen! by Chris Wilmer'
_symmetry_space_group_name_H-M	'P1'
_symmetry_Int_Tables_number	1
_symmetry_cell_setting	triclinic
loop_
_symmetry_equiv_pos_as_xyz
  x,y,z
_cell_length_a	18.050591
_cell_length_b	18.050589
_cell_length_c	11.169409
_cell_angle_alpha	90.032590
_cell_angle_beta	89.970077
_cell_angle_gamma	89.969296
loop_
_atom_site_label
_atom_site_type_symbol
_atom_site_fract_x
_atom_site_fract_y
_atom_site_fract_z
Zn1	Zn	1.135325	0.295679	-0.678840
Zn2	Zn	1.635325	0.795679	-0.178840
Zn3	Zn	1.135202	0.419894	-0.478155
Zn4	Zn	1.635202	0.919894	0.021845
Zn5	Zn	1.011125	0.295713	-0.478141
Zn6	Zn	1.511125	0.795713	0.021859
Zn7	Zn	1.011078	0.419823	-0.678768
Zn8	Zn	1.511078	0.919823	-0.178768
O9	O	1.073183	0.357777	-0.578476
O10	O	1.573183	0.857777	-0.078476
O11	O	1.239233	0.312171	-0.652255
O12	O	1.739233	0.812171	-0.152255
O13	O	1.118711	0.403465	-0.310204
O14	O	1.618711	0.903465	0.189796
O15	O	1.027671	0.191784	-0.504789
O16	O	1.527671	0.691784	-0.004789
O17	O	1.239143	0.403432	-0.504813
O18	O	1.739143	0.903432	-0.004813
O19	O	1.118921	0.191759	-0.652241
O20	O	1.618921	0.691759	-0.152241
O21	O	1.027552	0.312230	-0.310193
O22	O	1.527552	0.812230	0.189807
O23	O	0.907194	0.312162	-0.504719
O24	O	1.407194	0.812162	-0.004719
O25	O	1.027592	0.403311	-0.846727
O26	O	1.527592	0.903311	-0.346727
O27	O	0.907160	0.403344	-0.652118
O28	O	1.407160	0.903344	-0.152118
O29	O	1.118875	0.312103	-0.846780
O30	O	1.618875	0.812103	-0.346780
O31	O	1.118666	0.523809	-0.504743
O32	O	1.618666	1.023809	-0.004743
O33	O	1.027473	0.523757	-0.652132
O34	O	1.527473	1.023757	-0.152132
C35	C	0.880230	0.357750	-0.578410
C36	C	1.380230	0.857750	-0.078410
C37	C	0.797685	0.357756	-0.578410
C38	C	1.297685	0.857756	-0.078410
C39	C	0.598231	0.308113	-0.498439
C40	C	1.098231	0.808113	0.001561
C41	C	0.548801	0.375853	-0.468912
C42	C	1.048801	0.875853	0.031088
C43	C	0.646554	0.357778	-0.578464
C44	C	1.146554	0.857778	-0.078464
C45	C	0.548903	0.290061	-0.607988
C46	C	1.048903	0.790061	-0.107988
C47	C	0.500569	0.357794	-0.578514
C48	C	1.000569	0.857794	-0.078514
C49	C	0.598211	0.425554	-0.548880
C50	C	1.098211	0.925554	-0.048880
C51	C	0.598318	0.339716	-0.688007
C52	C	1.098318	0.839716	-0.188007
C53	C	0.548910	0.407504	-0.658522
C54	C	1.048910	0.907504	-0.158522
C55	C	0.730653	0.357768	-0.578432
C56	C	1.230653	0.857768	-0.078432
C57	C	0.416473	0.357812	-0.578546
C58	C	0.916473	0.857812	-0.078546
C59	C	1.073071	0.550729	-0.578457
C60	C	1.573071	1.050729	-0.078457
C61	C	1.073091	0.633275	-0.578489
C62	C	1.573091	1.133275	-0.078489
C63	C	1.023527	0.832724	-0.658612
C64	C	1.523527	1.332724	-0.158612
C65	C	1.005413	0.882174	-0.549093
C66	C	1.505413	1.382174	-0.049093
C67	C	1.073147	0.784405	-0.578506
C68	C	1.573147	1.284405	-0.078506
C69	C	1.091281	0.882037	-0.688039
C70	C	1.591281	1.382037	-0.188039
C71	C	1.073200	0.930391	-0.578531
C72	C	1.573200	1.430391	-0.078531
C73	C	1.054998	0.832768	-0.468928
C74	C	1.554998	1.332768	0.031072
C75	C	1.140898	0.832627	-0.607948
C76	C	1.640898	1.332627	-0.107948
C77	C	1.122810	0.882054	-0.498353
C78	C	1.622810	1.382054	0.001647
C79	C	1.073115	0.700307	-0.578493
C80	C	1.573115	1.200307	-0.078493
C81	C	1.073232	1.014487	-0.578532
C82	C	1.573232	1.514487	-0.078532
C83	C	1.266888	0.357805	-0.578543
C84	C	1.766888	0.857805	-0.078543
C85	C	1.349434	0.357818	-0.578572
C86	C	1.849434	0.857818	-0.078572
C87	C	1.073242	0.357695	-0.891519
C88	C	1.573242	0.857695	-0.391519
C89	C	1.073268	0.357660	-1.024919
C90	C	1.573268	0.857660	-0.524919
C91	C	1.073286	1.164072	-0.578523
C92	C	1.573286	1.664072	-0.078523
C93	C	1.073258	1.081526	-0.578546
C94	C	1.573258	1.581526	-0.078546
C95	C	1.073166	0.357806	-0.266651
C96	C	1.573166	0.857806	0.233349
C97	C	1.073285	0.357631	-0.133252
C98	C	1.573285	0.857631	0.366748
H99	H	0.527390	0.449559	-0.726218
H100	H	1.027390	0.949559	-0.226218
H101	H	0.620084	0.324407	-0.780596
H102	H	1.120084	0.824407	-0.280596
H103	H	0.527204	0.232795	-0.632897
H104	H	1.027204	0.732795	-0.132897
H105	H	0.981509	0.811064	-0.726260
H106	H	1.481509	1.311064	-0.226260
H107	H	0.948143	0.903954	-0.524213
H108	H	1.448143	1.403954	-0.024213
C109	C	0.626921	0.502000	-0.515692
C110	C	1.126921	1.002000	-0.015692
C111	C	0.601362	0.553889	-0.599164
C112	C	1.101362	1.053889	-0.099164
C113	C	0.627804	0.624314	-0.568636
C114	C	1.127804	1.124314	-0.068636
H115	H	0.609571	0.515018	-0.438178
H116	H	1.109571	1.015018	0.061822
H117	H	0.679553	0.501559	-0.515896
H118	H	1.179553	1.001559	-0.015896
H119	H	0.548742	0.554333	-0.598948
H120	H	1.048742	1.054333	-0.098948
H121	H	0.618711	0.540896	-0.676684
H122	H	1.118711	1.040896	-0.176684
H123	H	0.680435	0.623873	-0.568840
H124	H	1.180435	1.123873	-0.068840
H125	H	0.610451	0.637325	-0.491121
H126	H	1.110451	1.137325	0.008879
H127	H	0.610472	0.659528	-0.625272
H128	H	1.110472	1.159528	-0.125272
H129	H	1.039614	0.811215	-0.376282
H130	H	1.539614	1.311215	0.123718
H131	H	0.619887	0.266158	-0.430690
H132	H	1.119887	0.766158	0.069310
H133	H	0.527052	0.391142	-0.376295
H134	H	1.027052	0.891142	0.123705
H135	H	1.164795	0.903578	-0.430542
H136	H	1.664795	1.403578	0.069458
C137	C	1.217216	0.803620	-0.641433
C138	C	1.717216	1.303620	-0.141433
C139	C	1.235889	0.828523	-0.756239
C140	C	1.735889	1.328523	-0.256239
C141	C	1.306183	0.801807	-0.787146
C142	C	1.806183	1.301807	-0.287146
H143	H	1.252683	0.821227	-0.585449
H144	H	1.752683	1.321227	-0.085449
H145	H	1.216760	0.750993	-0.640527
H146	H	1.716760	1.250993	-0.140527
H147	H	1.236351	0.881139	-0.757136
H148	H	1.736351	1.381139	-0.257136
H149	H	1.200441	0.810918	-0.812249
H150	H	1.700441	1.310918	-0.312249
H151	H	1.305728	0.749180	-0.786240
H152	H	1.805728	1.249180	-0.286240
H153	H	1.341644	0.819416	-0.731155
H154	H	1.841644	1.319416	-0.231155
H155	H	1.318859	0.818694	-0.865048
H156	H	1.818859	1.318694	-0.365048
H157	H	1.106598	0.903680	-0.780660
H158	H	1.606598	1.403680	-0.280660
