data_functionalizedCrystal
_audit_creation_method	'MofGen! by Chris Wilmer'
_symmetry_space_group_name_H-M	'P1'
_symmetry_Int_Tables_number	1
_symmetry_cell_setting	triclinic
loop_
_symmetry_equiv_pos_as_xyz
  x,y,z
_cell_length_a	14.044220
_cell_length_b	14.044190
_cell_length_c	14.048226
_cell_angle_alpha	89.988942
_cell_angle_beta	89.998644
_cell_angle_gamma	93.190328
loop_
_atom_site_label
_atom_site_type_symbol
_atom_site_fract_x
_atom_site_fract_y
_atom_site_fract_z
O1	O	1.277176	0.230171	-0.079079
O2	O	1.000505	0.221865	-0.079102
O3	O	1.134684	0.087682	-0.079072
O4	O	1.142997	0.364354	-0.079109
O5	O	1.134666	0.087671	0.079249
O6	O	1.000486	0.221855	0.079219
O7	O	1.277158	0.230160	0.079243
Zn8	Zn	1.138819	0.226006	0.104368
Zn9	Zn	1.138844	0.226019	-0.104227
O10	O	1.142979	0.364344	0.079213
C11	C	0.964874	0.218224	0.000056
C12	C	0.858731	0.207380	0.000048
C13	C	0.664392	0.187553	0.000069
C14	C	0.613264	0.264468	0.000063
C15	C	0.505128	0.253436	0.000075
C16	C	0.772539	0.198583	0.000057
C17	C	1.131039	0.052054	0.000091
C18	C	1.120191	-0.054089	0.000099
C19	C	1.177292	-0.299547	0.000066
C20	C	1.100375	-0.248422	0.000066
C21	C	1.111404	-0.140285	0.000084
C22	C	1.166265	-0.407694	0.000048
C23	C	1.312789	0.233801	0.000083
C24	C	1.418932	0.244646	0.000085
C25	C	1.146624	0.399971	0.000047
C26	C	1.157472	0.506114	0.000034
N27	N	1.138810	0.225997	0.246729
N28	N	1.138860	0.226022	-0.246588
C29	C	1.198247	0.166609	0.296560
C30	C	1.198253	0.166609	0.396218
C31	C	1.138827	0.226003	0.446042
C32	C	1.079383	0.285393	0.396204
C33	C	1.079372	0.285387	0.296548
C34	C	1.079411	0.285402	0.603918
C35	C	1.079423	0.285409	0.703581
C36	C	1.198292	0.166624	0.703588
C37	C	1.198282	0.166618	0.603932
C38	C	1.138839	0.226010	0.554100
H39	H	1.026243	-0.285865	0.000054
Br40	Br	1.300844	-0.237142	0.000090
H41	H	1.246643	0.118248	0.255999
H42	H	1.246676	0.118261	0.563365
Br43	Br	1.278916	0.086006	0.463849
H44	H	0.650706	0.338602	0.000049
Br45	Br	1.278968	0.086026	0.771219
Br46	Br	0.998768	0.366018	0.771193
Br47	Br	0.998732	0.366003	0.536293
H48	H	0.626954	0.113425	0.000084
H49	H	1.030991	0.333749	0.436777
H50	H	1.030971	0.333746	0.255976
