data_functionalizedCrystal
_audit_creation_method	'MofGen! by Chris Wilmer'
_symmetry_space_group_name_H-M	'P1'
_symmetry_Int_Tables_number	1
_symmetry_cell_setting	triclinic
loop_
_symmetry_equiv_pos_as_xyz
  x,y,z
_cell_length_a	10.489741
_cell_length_b	10.654541
_cell_length_c	9.730217
_cell_angle_alpha	90.003041
_cell_angle_beta	89.998722
_cell_angle_gamma	84.511551
loop_
_atom_site_label
_atom_site_type_symbol
_atom_site_fract_x
_atom_site_fract_y
_atom_site_fract_z
O1	O	-1.693961	-0.177190	-0.114204
O2	O	-1.322757	-0.193823	-0.114226
O3	O	-1.516895	-0.002771	-0.114206
O4	O	-1.499823	-0.368242	-0.114224
O5	O	-1.516889	-0.002769	0.114374
O6	O	-1.322751	-0.193821	0.114354
O7	O	-1.693955	-0.177189	0.114376
Zn8	Zn	-1.508352	-0.185504	0.150657
Zn9	Zn	-1.508360	-0.185507	-0.150507
O10	O	-1.499817	-0.368240	0.114356
C11	C	-1.275223	-0.192565	0.000062
C12	C	-1.133596	-0.188807	0.000054
C13	C	-1.515640	0.044029	0.000083
C14	C	-1.511891	0.183474	0.000081
C15	C	-1.741489	-0.178446	0.000085
C16	C	-1.883117	-0.182204	0.000084
C17	C	-1.065515	-0.067247	0.000073
C18	C	-0.973363	-0.124671	-0.112629
C19	C	-0.973391	-0.124699	0.112733
C20	C	-1.043309	-0.246282	-0.112741
C21	C	-1.043346	-0.246292	0.112722
C22	C	-0.951222	-0.303806	-0.000007
C23	C	-1.501073	-0.415040	0.000064
C24	C	-1.504821	-0.554485	0.000058
N25	N	-1.508356	-0.185502	0.356194
C26	C	-1.744036	0.211336	0.000111
C27	C	-1.858342	0.290777	0.000129
C28	C	-1.854812	0.421796	0.000125
C29	C	-1.736963	0.473377	0.000098
C30	C	-1.622657	0.393936	0.000080
C31	C	-1.626200	0.262915	0.000089
C32	C	-1.390515	0.366074	0.000039
C33	C	-1.394042	0.235054	0.000054
C34	C	-1.272666	0.417655	0.000013
C35	C	-1.158358	0.338214	0.000005
C36	C	-1.161893	0.207187	0.000011
C37	C	-1.279736	0.155614	0.000036
N38	N	-1.508366	-0.185499	-0.356044
C39	C	-1.680336	-0.016376	0.356202
C40	C	-1.766335	0.068184	0.428145
C41	C	-1.766348	0.068185	0.572025
C42	C	-1.680350	-0.016381	0.643964
C43	C	-1.594352	-0.100940	0.572021
C44	C	-1.594351	-0.100934	0.428137
C45	C	-1.422368	-0.270059	0.572013
C46	C	-1.422359	-0.270068	0.428133
C47	C	-1.336370	-0.354624	0.643952
C48	C	-1.250375	-0.439192	0.572008
C49	C	-1.250367	-0.439190	0.428120
C50	C	-1.336360	-0.354627	0.356189
H51	H	-1.115254	0.032684	-0.000064
F52	F	-1.083893	-0.313467	0.237263
H53	H	-1.282626	0.048932	0.000049
F54	F	-0.932863	-0.057447	-0.237167
H55	H	-1.680345	-0.016378	0.239047
H56	H	-1.746922	0.104654	0.000133
F57	F	-1.083568	-0.313460	-0.237422
F58	F	-0.886552	-0.434558	-0.000090
H59	H	-0.942436	-0.073241	0.208014
H60	H	-1.954292	0.248765	0.000163
F61	F	-1.976468	0.506345	0.000133
F62	F	-1.857853	0.158185	0.351577
F63	F	-1.857871	0.158188	0.648594
H64	H	-1.734099	0.580061	0.000078
F65	F	-1.336364	-0.354622	0.203059
F66	F	-1.336378	-0.354618	0.797082
H67	H	-1.269800	0.524339	0.000001
F68	F	-1.680353	-0.016363	0.797094
F69	F	-1.032949	0.393117	-0.000038
H70	H	-1.180357	-0.508033	0.630590
F71	F	-1.040229	0.122648	-0.000018
F72	F	-1.158827	-0.529186	0.351563
