data_functionalizedCrystal
_audit_creation_method	'MofGen! by Chris Wilmer'
_symmetry_space_group_name_H-M	'P1'
_symmetry_Int_Tables_number	1
_symmetry_cell_setting	triclinic
loop_
_symmetry_equiv_pos_as_xyz
  x,y,z
_cell_length_a	21.295418
_cell_length_b	21.295417
_cell_length_c	11.169409
_cell_angle_alpha	89.959648
_cell_angle_beta	89.957636
_cell_angle_gamma	90.045515
loop_
_atom_site_label
_atom_site_type_symbol
_atom_site_fract_x
_atom_site_fract_y
_atom_site_fract_z
Zn1	Zn	0.962351	-0.250292	-0.679198
Zn2	Zn	0.962257	-0.355581	-0.478487
Zn3	Zn	0.857077	-0.250358	-0.478453
Zn4	Zn	0.857045	-0.355557	-0.679053
O5	O	0.909682	-0.302947	-0.578798
O6	O	1.050428	-0.264241	-0.652648
O7	O	0.948279	-0.341660	-0.310532
O8	O	0.871094	-0.162260	-0.505129
O9	O	1.050359	-0.341596	-0.505186
O10	O	0.948438	-0.162212	-0.652616
O11	O	0.871003	-0.264354	-0.310508
O12	O	0.768983	-0.264331	-0.504989
O13	O	0.871040	-0.341556	-0.847022
O14	O	0.768960	-0.341620	-0.652368
O15	O	0.948408	-0.264218	-0.847129
O16	O	0.948248	-0.443667	-0.505045
O17	O	0.870949	-0.443649	-0.652400
C18	C	0.746131	-0.302980	-0.578660
C19	C	0.676163	-0.303009	-0.578629
C20	C	0.643300	-0.343307	-0.655255
C21	C	0.577558	-0.343292	-0.655309
C22	C	0.544680	-0.302985	-0.578715
C23	C	0.577550	-0.262680	-0.502084
C24	C	0.643292	-0.262692	-0.502041
N25	N	0.441405	-0.298077	-0.473743
N26	N	0.378954	-0.298069	-0.473788
C27	C	0.346605	-0.302945	-0.578843
N28	N	0.379068	-0.307841	-0.683854
N29	N	0.441525	-0.307852	-0.683808
C30	C	0.473395	-0.302967	-0.578754
C31	C	0.242458	-0.343228	-0.655533
C32	C	0.176714	-0.343208	-0.655589
C33	C	0.176708	-0.262599	-0.502354
C34	C	0.242450	-0.262616	-0.502309
C35	C	0.275321	-0.302933	-0.578897
C36	C	0.909602	-0.466499	-0.578737
C37	C	0.909625	-0.536467	-0.578751
C38	C	0.949876	-0.569251	-0.655602
C39	C	0.949898	-0.634994	-0.655632
C40	C	0.909676	-0.667949	-0.578789
C41	C	0.869418	-0.635157	-0.501933
C42	C	0.869393	-0.569416	-0.501914
N43	N	0.904918	-0.771222	-0.473750
N44	N	0.904946	-0.833673	-0.473772
C45	C	0.909750	-0.866024	-0.578843
N46	N	0.914537	-0.833564	-0.683895
N47	N	0.914512	-0.771107	-0.683872
C48	C	0.909699	-0.739235	-0.578801
C49	C	0.950027	-0.970094	-0.655733
C50	C	0.950044	-1.035837	-0.655764
C51	C	0.869568	-1.036000	-0.502055
C52	C	0.869547	-0.970257	-0.502034
C53	C	0.909780	-0.937308	-0.578871
C54	C	1.073873	-0.302914	-0.578937
C55	C	1.143841	-0.302900	-0.578996
C56	C	0.909731	-0.302877	-0.891840
C57	C	0.909751	-0.302847	-1.025240
C58	C	0.909780	-0.138757	-0.578885
C59	C	0.909822	-0.068789	-0.578922
C60	C	0.909670	-0.302971	-0.266973
C61	C	0.909772	-0.302824	-0.133574
H62	H	0.670048	-0.229875	-0.439643
H63	H	0.836774	-0.943562	-0.439449
C64	C	1.034599	-0.708820	-0.672524
C65	C	0.994146	-0.671037	-0.740114
H66	H	1.061913	-0.731070	-0.724684
H67	H	1.058678	-0.683168	-0.620291
H68	H	1.010640	-0.737853	-0.626773
H69	H	1.018106	-0.642000	-0.785858
H70	H	0.970065	-0.696691	-0.792368
C71	C	0.156568	-0.374005	-0.858719
C72	C	0.140591	-0.387509	-0.739823
H73	H	0.134269	-0.401359	-0.910719
H74	H	0.145842	-0.331725	-0.876442
H75	H	0.200427	-0.379783	-0.869632
H76	H	0.096732	-0.381726	-0.728907
H77	H	0.151313	-0.429799	-0.722094
C78	C	0.476770	-0.226883	-0.434089
C79	C	0.541414	-0.218379	-0.417880
H80	H	0.454462	-0.199535	-0.382097
H81	H	0.466051	-0.217711	-0.514755
H82	H	0.465955	-0.269169	-0.416388
H83	H	0.552229	-0.176094	-0.435590
H84	H	0.552137	-0.227547	-0.337196
C85	C	1.034520	-0.495215	-0.672463
C86	C	0.994093	-0.533033	-0.740069
H87	H	1.061819	-0.472858	-0.724613
H88	H	1.010544	-0.466282	-0.626699
H89	H	1.058622	-0.520862	-0.620240
H90	H	0.969988	-0.507385	-0.792286
H91	H	1.018071	-0.561970	-0.785853
C92	C	0.762807	-0.549326	-0.443187
C93	C	0.825149	-0.533376	-0.417426
H94	H	0.735495	-0.527079	-0.391020
H95	H	0.753574	-0.538522	-0.523790
H96	H	0.757072	-0.593197	-0.432201
H97	H	0.830886	-0.489507	-0.428421
H98	H	0.834385	-0.544177	-0.336804
H99	H	0.670060	-0.376136	-0.717620
C100	C	0.833732	-0.736007	-0.433702
C101	C	0.825207	-0.671379	-0.417463
H102	H	0.806437	-0.758367	-0.381549
H103	H	0.824501	-0.746753	-0.514312
H104	H	0.876038	-0.746730	-0.416238
H105	H	0.782902	-0.660655	-0.434936
H106	H	0.834434	-0.660629	-0.336834
H107	H	0.149939	-0.229778	-0.439996
C108	C	0.235838	-0.182944	-0.350844
C109	C	0.278577	-0.218325	-0.418066
H110	H	0.258143	-0.155601	-0.298831
H111	H	0.210253	-0.158891	-0.403235
H112	H	0.210142	-0.210345	-0.304860
H113	H	0.304270	-0.190924	-0.464056
H114	H	0.304173	-0.242379	-0.365668
H115	H	0.982784	-0.943265	-0.718302
H116	H	0.982821	-1.062529	-0.718351
C117	C	0.784925	-1.110030	-0.485209
C118	C	0.825351	-1.072216	-0.417592
H119	H	0.757627	-1.132392	-0.433065
H120	H	0.760828	-1.084385	-0.537425
H121	H	0.808906	-1.138966	-0.530978
H122	H	0.801370	-1.043277	-0.371829
H123	H	0.849450	-1.097862	-0.365355
C124	C	0.584161	-0.422975	-0.806763
C125	C	0.541425	-0.387588	-0.739545
H126	H	0.561854	-0.450322	-0.858763
H127	H	0.609855	-0.395582	-0.852749
H128	H	0.609749	-0.447029	-0.754360
H129	H	0.515840	-0.363530	-0.791949
H130	H	0.515720	-0.414984	-0.693556
H131	H	0.269223	-0.376054	-0.717902
