data_functionalizedCrystal
_audit_creation_method	'MofGen! by Chris Wilmer'
_symmetry_space_group_name_H-M	'P1'
_symmetry_Int_Tables_number	1
_symmetry_cell_setting	triclinic
loop_
_symmetry_equiv_pos_as_xyz
  x,y,z
_cell_length_a	27.732048
_cell_length_b	27.731996
_cell_length_c	26.809956
_cell_angle_alpha	89.998344
_cell_angle_beta	89.996742
_cell_angle_gamma	82.632022
loop_
_atom_site_label
_atom_site_type_symbol
_atom_site_fract_x
_atom_site_fract_y
_atom_site_fract_z
O1	O	0.640920	0.057512	-0.041422
O2	O	1.140920	0.557512	0.458578
O3	O	0.500125	0.066257	-0.041438
O4	O	1.000125	0.566257	0.458562
O5	O	0.574909	-0.008514	-0.041418
O6	O	1.074909	0.491486	0.458582
O7	O	0.566137	0.132283	-0.041441
O8	O	1.066137	0.632283	0.458559
O9	O	0.574894	-0.008503	0.041541
O10	O	1.074894	0.491497	0.541541
O11	O	0.500111	0.066269	0.041522
O12	O	1.000111	0.566269	0.541522
O13	O	0.640906	0.057523	0.041538
O14	O	1.140906	0.557523	0.541538
Zn15	Zn	0.570506	0.061898	0.054701
Zn16	Zn	1.070506	0.561898	0.554701
Zn17	Zn	0.570525	0.061883	-0.054601
Zn18	Zn	1.070525	0.561883	0.445399
O19	O	0.566123	0.132294	0.041518
O20	O	1.066123	0.632294	0.541518
C21	C	0.482111	0.066079	0.000040
C22	C	0.982111	0.566079	0.500040
C23	C	0.428456	0.065527	0.000034
C24	C	0.928456	0.565527	0.500034
C25	C	0.574721	-0.026516	0.000063
C26	C	1.074721	0.473484	0.500063
C27	C	0.574179	-0.080172	0.000068
C28	C	1.074179	0.419828	0.500068
C29	C	0.089634	0.106232	0.000050
C30	C	0.589634	0.606232	0.500050
C31	C	-0.112026	0.104180	0.000054
C32	C	0.387974	0.604180	0.500054
O33	O	-0.143288	0.141402	0.000070
O34	O	0.356712	0.641402	0.500070
N35	N	-0.131141	0.059844	0.000060
N36	N	0.368859	0.559844	0.500060
C37	C	-0.099838	0.016017	0.000069
C38	C	0.400162	0.516017	0.500069
O39	O	-0.120724	-0.021740	0.000079
O40	O	0.379276	0.478260	0.500079
C41	C	0.101820	0.018069	0.000068
C42	C	0.601820	0.518069	0.500068
C43	C	0.120933	0.062408	0.000056
C44	C	0.620933	0.562408	0.500056
C45	C	0.108747	0.150567	0.000039
C46	C	0.608747	0.650567	0.500039
C47	C	0.159159	0.151079	0.000035
C48	C	0.659159	0.651079	0.500035
C49	C	0.190457	0.107256	0.000042
C50	C	0.690457	0.607256	0.500042
C51	C	0.171344	0.062920	0.000052
C52	C	0.671344	0.562920	0.500052
C53	C	0.133122	-0.025757	0.000079
C54	C	0.633122	0.474243	0.500079
C55	C	0.183539	-0.025240	0.000080
C56	C	0.683539	0.474760	0.500080
C57	C	0.202652	0.019099	0.000069
C58	C	0.702652	0.519099	0.500069
C59	C	0.253055	0.019609	0.000055
C60	C	0.753055	0.519609	0.500055
N61	N	0.272171	0.063946	0.000049
N62	N	0.772171	0.563946	0.500049
C63	C	0.240872	0.107769	0.000042
C64	C	0.740872	0.607769	0.500042
C65	C	-0.205712	0.014943	0.000068
C66	C	0.294288	0.514943	0.500068
C67	C	-0.256126	0.014430	0.000068
C68	C	0.243874	0.514430	0.500068
C69	C	-0.268310	0.102594	0.000054
C70	C	0.231690	0.602594	0.500054
C71	C	-0.217895	0.103106	0.000051
C72	C	0.282105	0.603106	0.500051
C73	C	-0.186597	0.059280	0.000062
C74	C	0.313403	0.559280	0.500062
C75	C	0.346741	0.108842	0.000034
C76	C	0.846741	0.608842	0.500034
C77	C	0.397158	0.109350	0.000028
C78	C	0.897158	0.609350	0.500028
C79	C	0.409337	0.021187	0.000044
C80	C	0.909337	0.521187	0.500044
C81	C	0.358925	0.020678	0.000047
C82	C	0.858925	0.520678	0.500047
C83	C	0.327627	0.064510	0.000044
C84	C	0.827627	0.564510	0.500044
O85	O	0.284346	-0.017592	0.000045
O86	O	0.784346	0.482408	0.500045
O87	O	0.261767	0.145521	0.000043
O88	O	0.761767	0.645521	0.500043
C89	C	0.039222	0.105719	0.000053
C90	C	0.539222	0.605719	0.500053
C91	C	0.020109	0.061384	0.000064
C92	C	0.520109	0.561384	0.500064
C93	C	0.051408	0.017560	0.000071
C94	C	0.551408	0.517560	0.500071
C95	C	-0.030305	0.060871	0.000064
C96	C	0.469695	0.560871	0.500064
C97	C	-0.061604	0.104694	0.000057
C98	C	0.438396	0.604694	0.500057
C99	C	-0.042489	0.149030	0.000051
C100	C	0.457511	0.649030	0.500051
C101	C	0.007923	0.149543	0.000047
C102	C	0.507923	0.649543	0.500047
C103	C	0.032292	-0.026776	0.000077
C104	C	0.532292	0.473224	0.500077
C105	C	-0.018120	-0.027285	0.000081
C106	C	0.481880	0.472715	0.500081
C107	C	-0.049419	0.016539	0.000074
C108	C	0.450581	0.516539	0.500074
C109	C	0.570772	-0.412894	-0.045178
C110	C	1.070772	0.087106	0.454822
C111	C	0.568711	-0.614553	-0.045187
C112	C	1.068711	-0.114553	0.454813
O113	O	0.568430	-0.640629	-0.083646
O114	O	1.068430	-0.140629	0.416354
N115	N	0.568447	-0.639764	0.000034
N116	N	1.068447	-0.139764	0.500034
C117	C	0.568695	-0.614556	0.045260
C118	C	1.068695	-0.114556	0.545260
O119	O	0.568419	-0.640626	0.083723
O120	O	1.068419	-0.140626	0.583723
C121	C	0.570753	-0.412899	0.045268
C122	C	1.070753	0.087101	0.545268
C123	C	0.571021	-0.387691	0.000045
C124	C	1.071021	0.112309	0.500045
C125	C	0.571040	-0.387687	-0.090398
C126	C	1.071040	0.112313	0.409602
C127	C	0.571557	-0.337276	-0.090395
C128	C	1.071557	0.162724	0.409605
C129	C	0.571807	-0.312072	-0.045173
C130	C	1.071807	0.187928	0.454827
C131	C	0.571539	-0.337280	0.000047
C132	C	1.071539	0.162720	0.500047
C133	C	0.570998	-0.387692	0.090494
C134	C	1.070998	0.112308	0.590494
C135	C	0.571511	-0.337274	0.090492
C136	C	1.071511	0.162726	0.590492
C137	C	0.571780	-0.312067	0.045268
C138	C	1.071780	0.187933	0.545268
C139	C	0.572307	-0.261665	0.045273
C140	C	1.072307	0.238335	0.545273
N141	N	0.572571	-0.236454	0.000052
N142	N	1.072571	0.263546	0.500052
C143	C	0.572321	-0.261658	-0.045171
C144	C	1.072321	0.238342	0.454829
C145	C	0.567616	-0.720430	0.045252
C146	C	1.067616	-0.220430	0.545252
C147	C	0.567102	-0.770844	0.045250
C148	C	1.067102	-0.270844	0.545250
C149	C	0.567117	-0.770837	-0.045197
C150	C	1.067117	-0.270837	0.454803
C151	C	0.567634	-0.720422	-0.045194
C152	C	1.067634	-0.220422	0.454806
C153	C	0.567880	-0.695219	0.000032
C154	C	1.067880	-0.195219	0.500032
C155	C	0.573409	-0.155791	-0.045161
C156	C	1.073409	0.344209	0.454839
C157	C	0.573929	-0.105375	-0.045155
C158	C	1.073929	0.394625	0.454845
C159	C	0.573912	-0.105387	0.045292
C160	C	1.073912	0.394613	0.545292
C161	C	0.573394	-0.155798	0.045286
C162	C	1.073394	0.344202	0.545286
C163	C	0.573141	-0.180999	0.000055
C164	C	1.073141	0.319001	0.500055
O165	O	0.572583	-0.235558	0.083712
O166	O	1.072583	0.264442	0.583712
O167	O	0.572587	-0.235578	-0.083627
O168	O	1.072587	0.264422	0.416373
C169	C	0.570254	-0.463306	-0.045181
C170	C	1.070254	0.036694	0.454819
C171	C	0.569986	-0.488513	0.000039
C172	C	1.069986	0.011487	0.500039
C173	C	0.570235	-0.463310	0.045262
C174	C	1.070235	0.036690	0.545262
C175	C	0.569472	-0.538928	0.000037
C176	C	1.069472	-0.038928	0.500037
C177	C	0.569222	-0.564131	-0.045185
C178	C	1.069222	-0.064131	0.454815
C179	C	0.569486	-0.538920	-0.090406
C180	C	1.069486	-0.038920	0.409594
C181	C	0.570004	-0.488509	-0.090403
C182	C	1.070004	0.011491	0.409597
C183	C	0.569972	-0.488521	0.090483
C184	C	1.069972	0.011479	0.590483
C185	C	0.569454	-0.538932	0.090476
C186	C	1.069454	-0.038932	0.590476
C187	C	0.569205	-0.564136	0.045253
C188	C	1.069205	-0.064136	0.545253
C189	C	0.658920	0.057701	0.000059
C190	C	1.158920	0.557701	0.500059
C191	C	0.712575	0.058254	0.000061
C192	C	1.212575	0.558254	0.500061
C193	C	0.566310	0.150296	0.000036
C194	C	1.066310	0.650296	0.500036
C195	C	0.566853	0.203952	0.000028
C196	C	1.066853	0.703952	0.500028
N197	N	0.570497	0.061908	0.129297
N198	N	1.070497	0.561908	0.629297
N199	N	0.570538	0.061869	-0.129197
N200	N	1.070538	0.561869	0.370803
C201	C	0.603635	0.028782	0.473932
C202	C	1.103635	0.528782	0.973932
C203	C	0.603646	0.028775	0.682809
C204	C	1.103646	0.528775	1.182809
O205	O	0.631801	0.000613	0.709820
O206	O	1.131801	0.500613	1.209820
N207	N	0.570528	0.061872	0.708924
N208	N	1.070528	0.561872	1.208924
C209	C	0.537402	0.094972	0.682816
C210	C	1.037402	0.594972	1.182816
O211	O	0.509229	0.123119	0.709821
O212	O	1.009229	0.623119	1.209821
C213	C	0.537388	0.094976	0.473940
C214	C	1.037388	0.594976	0.973940
C215	C	0.570512	0.061880	0.447828
C216	C	1.070512	0.561880	0.947828
C217	C	0.636756	-0.004312	0.447820
C218	C	1.136756	0.495688	0.947820
C219	C	0.636754	-0.004308	0.395603
C220	C	1.136754	0.495692	0.895603
C221	C	0.603632	0.028790	0.369499
C222	C	1.103632	0.528790	0.869499
C223	C	0.570511	0.061884	0.395611
C224	C	1.070511	0.561884	0.895611
C225	C	0.504260	0.128073	0.447833
C226	C	1.004260	0.628073	0.947833
C227	C	0.504259	0.128071	0.395610
C228	C	1.004259	0.628071	0.895610
C229	C	0.537383	0.094974	0.369498
C230	C	1.037383	0.594974	0.869498
C231	C	0.537387	0.094986	0.317291
C232	C	1.037387	0.594986	0.817291
N233	N	0.570506	0.061888	0.291176
N234	N	1.070506	0.561888	0.791176
C235	C	0.603628	0.028790	0.317280
C236	C	1.103628	0.528790	0.817280
C237	C	0.537412	0.094967	0.792480
C238	C	1.037412	0.594967	1.292480
C239	C	0.537415	0.094967	0.844699
C240	C	1.037415	0.594967	1.344699
C241	C	0.603660	0.028769	0.844688
C242	C	1.103660	0.528769	1.344688
C243	C	0.603658	0.028772	0.792468
C244	C	1.103658	0.528772	1.292468
C245	C	0.570530	0.061870	0.766365
C246	C	1.070530	0.561870	1.266365
C247	C	0.603623	0.028802	0.207622
C248	C	1.103623	0.528802	0.707622
C249	C	0.603620	0.028810	0.155401
C250	C	1.103620	0.528810	0.655401
C251	C	0.537374	0.095005	0.155416
C252	C	1.037374	0.595005	0.655416
C253	C	0.537379	0.094999	0.207633
C254	C	1.037379	0.594999	0.707633
C255	C	0.570505	0.061893	0.233734
C256	C	1.070505	0.561893	0.733734
O257	O	0.509243	0.123129	0.290248
O258	O	1.009243	0.623129	0.790248
O259	O	0.631789	0.000640	0.290266
O260	O	1.131789	0.500640	0.790266
C261	C	0.603636	0.028778	0.526148
C262	C	1.103636	0.528778	1.026148
C263	C	0.570515	0.061872	0.552260
C264	C	1.070515	0.561872	1.052260
C265	C	0.537393	0.094970	0.526156
C266	C	1.037393	0.594970	1.026156
C267	C	0.570519	0.061872	0.604479
C268	C	1.070519	0.561872	1.104479
C269	C	0.603641	0.028774	0.630583
C270	C	1.103641	0.528774	1.130583
C271	C	0.636760	-0.004324	0.604468
C272	C	1.136760	0.495676	1.104468
C273	C	0.636759	-0.004320	0.552252
C274	C	1.136759	0.495680	1.052252
C275	C	0.504274	0.128067	0.552271
C276	C	1.004274	0.628067	1.052271
C277	C	0.504279	0.128061	0.604487
C278	C	1.004279	0.628061	1.104487
C279	C	0.537401	0.094963	0.630591
C280	C	1.037401	0.594963	1.130591
H281	H	0.412716	0.145458	0.000018
H282	H	0.912716	0.645458	0.500018
F283	F	0.566825	-0.797668	0.093383
F284	F	1.066825	-0.297668	0.593383
F285	F	0.216847	-0.071888	0.000093
F286	F	0.716847	0.428112	0.500093
F287	F	0.469023	0.163291	0.632273
F288	F	0.969023	0.663291	1.132273
F289	F	-0.276461	-0.032761	0.000069
F290	F	0.223539	0.467239	0.500069
H291	H	0.630595	0.001859	0.134142
H292	H	1.130595	0.501859	0.634142
H293	H	0.510411	0.121954	0.228894
H294	H	1.010411	0.621954	0.728894
F295	F	0.569223	-0.565753	-0.138535
F296	F	1.069223	-0.065753	0.361465
H297	H	0.570222	-0.467989	-0.127229
H298	H	1.070222	0.032011	0.372771
F299	F	0.672012	-0.039543	0.475594
F300	F	1.172012	0.460457	0.975594
H301	H	0.343363	-0.015426	0.000049
H302	H	0.843363	0.484574	0.500049
H303	H	0.477288	0.155023	0.469086
H304	H	0.977288	0.655023	0.969086
H305	H	0.477281	0.155022	0.374360
H306	H	0.977281	0.655022	0.874360
H307	H	0.573200	-0.176303	-0.081993
H308	H	1.073200	0.323697	0.418007
H309	H	-0.180232	-0.020747	0.000077
H310	H	0.319768	0.479253	0.500077
F311	F	0.638912	-0.006453	0.764683
F312	F	1.138912	0.493547	1.264683
F313	F	0.672013	-0.039548	0.632259
F314	F	1.172013	0.460452	1.132259
F315	F	0.502125	0.130230	0.127627
F316	F	1.002125	0.630230	0.627627
F317	F	-0.038455	-0.074480	0.000086
F318	F	0.461545	0.425520	0.500086
H319	H	0.630630	0.001820	0.865951
H320	H	1.130630	0.501820	1.365951
F321	F	0.567919	-0.693599	-0.093327
F322	F	1.067919	-0.193599	0.406673
F323	F	0.672014	-0.039546	0.524468
F324	F	1.172014	0.460454	1.024468
H325	H	0.663725	-0.031259	0.374346
H326	H	1.163725	0.468741	0.874346
F327	F	0.469019	0.163296	0.524495
F328	F	0.969019	0.663296	1.024495
H329	H	0.057772	-0.062463	0.000084
H330	H	0.557772	0.437537	0.500084
H331	H	0.434830	-0.014493	0.000047
H332	H	0.934830	0.485507	0.500047
F333	F	0.028257	0.196735	0.000035
F334	F	0.528257	0.696735	0.500035
F335	F	0.569172	-0.565755	0.138613
F336	F	1.069172	-0.065755	0.638613
H337	H	0.571774	-0.316756	-0.127221
H338	H	1.071774	0.183244	0.372779
F339	F	-0.301629	0.149234	0.000048
F340	F	0.198371	0.649234	0.500048
H341	H	-0.067981	0.184713	0.000043
H342	H	0.432019	0.684713	0.500043
H343	H	0.321264	0.144533	0.000032
H344	H	0.821264	0.644533	0.500032
H345	H	-0.202337	0.139211	0.000045
H346	H	0.297663	0.639211	0.500045
F347	F	0.567875	-0.693613	0.093391
F348	F	1.067875	-0.193613	0.593391
F349	F	0.112792	-0.072950	0.000084
F350	F	0.612792	0.427050	0.500084
H351	H	0.574149	-0.084854	-0.081983
H352	H	1.074149	0.415146	0.418017
H353	H	0.574117	-0.084857	0.082111
H354	H	1.074117	0.415143	0.582111
H355	H	0.570834	-0.408202	-0.127226
H356	H	1.070834	0.091798	0.372774
H357	H	0.566914	-0.791366	-0.082019
H358	H	1.066914	-0.291366	0.417981
F359	F	0.570710	-0.414509	0.138628
F360	F	1.070710	0.085491	0.638628
F361	F	0.571772	-0.310454	0.138629
F362	F	1.071772	0.189546	0.638629
H363	H	0.573180	-0.176324	0.082110
H364	H	1.073180	0.323676	0.582110
H365	H	0.570176	-0.468005	0.127309
H366	H	1.070176	0.031995	0.627309
H367	H	0.174715	0.187185	0.000026
H368	H	0.674715	0.687185	0.500026
F369	F	0.502152	0.130197	0.764704
F370	F	1.002152	0.630197	1.264704
F371	F	0.638880	-0.006434	0.235394
F372	F	1.138880	0.493566	0.735394
H373	H	0.083267	0.186255	0.000035
H374	H	0.583267	0.686255	0.500035
F375	F	0.502166	0.130198	0.872484
F376	F	1.002166	0.630198	1.372484
