data_functionalizedCrystal
_audit_creation_method	'MofGen! by Chris Wilmer'
_symmetry_space_group_name_H-M	'P1'
_symmetry_Int_Tables_number	1
_symmetry_cell_setting	triclinic
loop_
_symmetry_equiv_pos_as_xyz
  x,y,z
_cell_length_a	16.109302
_cell_length_b	17.019294
_cell_length_c	14.586319
_cell_angle_alpha	86.117240
_cell_angle_beta	89.994552
_cell_angle_gamma	83.427801
loop_
_atom_site_label
_atom_site_type_symbol
_atom_site_fract_x
_atom_site_fract_y
_atom_site_fract_z
O1	O	1.103039	0.101398	-0.084285
O2	O	1.436372	0.434731	0.249048
O3	O	1.769706	0.768064	0.582382
O4	O	0.860966	0.114015	-0.085274
O5	O	1.194299	0.447349	0.248059
O6	O	1.527632	0.780682	0.581393
O7	O	0.988756	-0.007128	-0.075709
O8	O	1.322089	0.326205	0.257624
O9	O	1.655422	0.659539	0.590957
O10	O	0.975249	0.222541	-0.093849
O11	O	1.308583	0.555874	0.239484
O12	O	1.641916	0.889207	0.572817
O13	O	0.988747	-0.007130	0.076772
O14	O	1.322080	0.326204	0.410105
O15	O	1.655413	0.659537	0.743438
O16	O	0.860957	0.114014	0.067207
O17	O	1.194290	0.447347	0.400540
O18	O	1.527624	0.780680	0.733874
O19	O	1.103030	0.101396	0.068196
O20	O	1.436364	0.434729	0.401529
O21	O	1.769697	0.768062	0.734863
Cu22	Cu	0.981993	0.107704	0.081624
Cu23	Cu	1.315326	0.441038	0.414958
Cu24	Cu	1.648659	0.774371	0.748291
Cu25	Cu	0.982003	0.107707	-0.098702
Cu26	Cu	1.315337	0.441040	0.234631
Cu27	Cu	1.648670	0.774373	0.567964
O28	O	0.975240	0.222539	0.058631
O29	O	1.308574	0.555872	0.391965
O30	O	1.641907	0.889206	0.725298
C31	C	0.829987	0.113503	-0.008992
C32	C	1.163320	0.446837	0.324341
C33	C	1.496654	0.780170	0.657675
C34	C	0.737693	0.111971	-0.008868
C35	C	1.071026	0.445304	0.324465
C36	C	1.404360	0.778637	0.657798
C37	C	0.525351	0.108426	0.074520
C38	C	0.858684	0.441759	0.407853
C39	C	1.192017	0.775092	0.741187
C40	C	0.438632	0.106977	0.074631
C41	C	0.771965	0.440310	0.407965
C42	C	1.105298	0.773644	0.741298
C43	C	0.438652	0.106983	-0.091612
C44	C	0.771985	0.440316	0.241721
C45	C	1.105319	0.773650	0.575054
C46	C	0.525370	0.108426	-0.091722
C47	C	0.858703	0.441759	0.241611
C48	C	1.192037	0.775093	0.574945
C49	C	0.568716	0.109151	-0.008654
C50	C	0.902050	0.442485	0.324680
C51	C	1.235383	0.775818	0.658013
C52	C	0.395280	0.106260	-0.008432
C53	C	0.728613	0.439593	0.324901
C54	C	1.061946	0.772926	0.658234
C55	C	0.301255	0.104689	-0.008313
C56	C	0.634589	0.438023	0.325021
C57	C	0.967922	0.771356	0.658354
C58	C	0.662747	0.110720	-0.008773
C59	C	0.996080	0.444054	0.324560
C60	C	1.329414	0.777387	0.657894
C61	C	0.988239	-0.036518	0.002850
C62	C	1.321572	0.296815	0.336184
C63	C	1.654906	0.630149	0.669517
C64	C	0.986703	-0.124088	0.009761
C65	C	1.320036	0.209245	0.343095
C66	C	1.653369	0.542579	0.676428
C67	C	0.985988	-0.165223	-0.070109
C68	C	1.319321	0.168110	0.263225
C69	C	1.652654	0.501444	0.596558
C70	C	0.984539	-0.247504	-0.063612
C71	C	1.317872	0.085830	0.269721
C72	C	1.651205	0.419163	0.603055
C73	C	0.983811	-0.288648	0.022755
C74	C	1.317144	0.044685	0.356088
C75	C	1.650478	0.378018	0.689422
C76	C	0.984524	-0.247507	0.102631
C77	C	1.317857	0.085826	0.435964
C78	C	1.651190	0.419159	0.769298
C79	C	0.985966	-0.165227	0.096134
C80	C	1.319300	0.168106	0.429467
C81	C	1.652633	0.501439	0.762800
C82	C	0.979449	-0.537080	0.046531
C83	C	1.312782	-0.203747	0.379864
C84	C	1.646115	0.129587	0.713198
C85	C	0.978008	-0.619366	0.053023
C86	C	1.311342	-0.286033	0.386356
C87	C	1.644675	0.047301	0.719689
C88	C	0.978022	-0.619357	-0.113221
C89	C	1.311356	-0.286023	0.220112
C90	C	1.644689	0.047310	0.553445
C91	C	0.979470	-0.537076	-0.119711
C92	C	1.312803	-0.203742	0.213622
C93	C	1.646137	0.129591	0.546956
C94	C	0.980178	-0.495941	-0.039835
C95	C	1.313511	-0.162608	0.293498
C96	C	1.646845	0.170726	0.626831
C97	C	0.982333	-0.372753	0.029398
C98	C	1.315666	-0.039419	0.362731
C99	C	1.648999	0.293914	0.696064
C100	C	0.981650	-0.411838	-0.046479
C101	C	1.314984	-0.078504	0.286855
C102	C	1.648317	0.254829	0.620188
C103	C	1.134009	0.101908	-0.008088
C104	C	1.467342	0.435241	0.325245
C105	C	1.800676	0.768574	0.658579
C106	C	1.226303	0.103440	-0.008218
C107	C	1.559636	0.436774	0.325116
C108	C	1.892970	0.770107	0.658449
C109	C	0.975757	0.251929	-0.019930
C110	C	1.309090	0.585262	0.313403
C111	C	1.642424	0.918596	0.646736
C112	C	0.977293	0.339499	-0.026847
C113	C	1.310627	0.672832	0.306486
C114	C	1.643960	1.006166	0.639819
N115	N	0.981991	0.107702	0.208456
N116	N	1.315325	0.441036	0.541789
N117	N	1.648658	0.774369	0.875123
N118	N	0.982011	0.107702	-0.225534
N119	N	1.315344	0.441036	0.107800
N120	N	1.648678	0.774369	0.441133
C121	C	1.038595	0.054078	0.447696
C122	C	1.371929	0.387412	0.781030
C123	C	1.705262	0.720745	1.114363
C124	C	1.038598	0.054076	0.543678
C125	C	1.371931	0.387410	0.877011
C126	C	1.705265	0.720743	1.210344
C127	C	0.925401	0.161329	0.535219
C128	C	1.258734	0.494662	0.868553
C129	C	1.592068	0.827996	1.201886
C130	C	0.925395	0.161327	0.439240
C131	C	1.258729	0.494660	0.772573
C132	C	1.592062	0.827993	1.105907
C133	C	0.981997	0.107702	0.395481
C134	C	1.315331	0.441035	0.728814
C135	C	1.648664	0.774369	1.062148
C136	C	0.982005	0.107703	0.587442
C137	C	1.315339	0.441036	0.920775
C138	C	1.648672	0.774369	1.254108
C139	C	0.982008	0.107701	0.691509
C140	C	1.315341	0.441034	1.024842
C141	C	1.648674	0.774368	1.358176
C142	C	0.981994	0.107703	0.291407
C143	C	1.315328	0.441036	0.624740
C144	C	1.648661	0.774369	0.958074
H145	H	0.403348	0.106393	-0.159244
H146	H	0.736682	0.439727	0.174090
H147	H	1.070015	0.773060	0.507423
Cl148	Cl	1.109749	-0.013339	0.392689
Cl149	Cl	1.443082	0.319995	0.726022
Cl150	Cl	1.776415	0.653328	1.059356
Cl151	Cl	0.854234	0.228741	0.373592
Cl152	Cl	1.187567	0.562074	0.706925
Cl153	Cl	1.520901	0.895408	1.040258
H154	H	0.560680	0.109015	-0.159456
H155	H	0.894013	0.442348	0.173877
H156	H	1.227346	0.775681	0.507211
Cl157	Cl	0.986908	-0.113507	-0.178690
Cl158	Cl	1.320242	0.219826	0.154643
Cl159	Cl	1.653575	0.553160	0.487976
Cl160	Cl	1.109751	-0.013341	0.609318
Cl161	Cl	1.443084	0.319992	0.942651
Cl162	Cl	1.776418	0.653326	1.275984
H163	H	0.980042	-0.503600	0.111572
H164	H	1.313375	-0.170267	0.444905
H165	H	1.646709	0.163066	0.778239
Cl166	Cl	0.384118	0.106066	0.179197
Cl167	Cl	0.717451	0.439400	0.512530
Cl168	Cl	1.050785	0.772733	0.845864
H169	H	0.879318	0.204990	0.570858
H170	H	1.212652	0.538324	0.904191
H171	H	1.545985	0.871657	1.237524
H172	H	0.986537	-0.131735	0.161172
H173	H	1.319870	0.201599	0.494506
H174	H	1.653204	0.534932	0.827839
Cl175	Cl	0.981414	-0.424484	0.137971
Cl176	Cl	1.314747	-0.091151	0.471304
Cl177	Cl	1.648080	0.242183	0.804637
Cl178	Cl	0.983642	-0.299213	-0.164025
Cl179	Cl	1.316975	0.034120	0.169308
Cl180	Cl	1.650308	0.367454	0.502641
Cl181	Cl	0.579841	0.109332	0.178949
Cl182	Cl	0.913174	0.442666	0.512282
Cl183	Cl	1.246508	0.775999	0.845616
H184	H	0.980064	-0.503581	-0.190041
H185	H	1.313397	-0.170248	0.143293
H186	H	1.646730	0.163085	0.476626
H187	H	0.977444	-0.652857	-0.178252
H188	H	1.310777	-0.319524	0.155082
H189	H	1.644111	0.013810	0.488415
Cl190	Cl	0.977099	-0.671091	0.161607
Cl191	Cl	1.310432	-0.337757	0.494940
Cl192	Cl	1.643765	-0.004424	0.828274
H193	H	0.982237	-0.378333	-0.116799
H194	H	1.315571	-0.045000	0.216535
H195	H	1.648904	0.288333	0.549868
H196	H	0.983926	-0.281013	0.172953
H197	H	1.317259	0.052320	0.506287
H198	H	1.650593	0.385653	0.839620
