data_functionalizedCrystal
_audit_creation_method	'MofGen! by Chris Wilmer'
_symmetry_space_group_name_H-M	'P1'
_symmetry_Int_Tables_number	1
_symmetry_cell_setting	triclinic
loop_
_symmetry_equiv_pos_as_xyz
  x,y,z
_cell_length_a	14.853567
_cell_length_b	10.489741
_cell_length_c	13.930277
_cell_angle_alpha	89.995758
_cell_angle_beta	89.995755
_cell_angle_gamma	84.087052
loop_
_atom_site_label
_atom_site_type_symbol
_atom_site_fract_x
_atom_site_fract_y
_atom_site_fract_z
O1	O	1.197302	0.166528	-0.079764
O2	O	0.934954	0.186365	-0.079780
O3	O	1.072098	-0.009218	-0.079766
O4	O	1.060158	0.362111	-0.079778
O5	O	1.072078	-0.009222	0.079896
O6	O	0.934935	0.186361	0.079881
O7	O	1.197283	0.166524	0.079898
Zn8	Zn	1.066106	0.176442	0.105239
Zn9	Zn	1.066131	0.176447	-0.105122
O10	O	1.060139	0.362107	0.079883
C11	C	0.901351	0.185464	0.000048
C12	C	0.801252	0.182771	0.000042
C13	C	0.388003	0.055204	0.000068
C14	C	0.368025	0.287562	0.000059
C15	C	0.462072	0.290094	0.000056
C16	C	0.519090	0.175180	0.000057
C17	C	0.482060	0.057733	0.000062
C18	C	0.499110	0.407539	0.000042
C19	C	0.593163	0.410077	0.000038
C20	C	0.650183	0.295161	0.000046
C21	C	0.613147	0.177709	0.000051
C22	C	0.670164	0.062795	0.000053
C23	C	0.633130	-0.054658	0.000065
C24	C	0.539079	-0.057183	0.000070
C25	C	0.744234	0.297685	0.000041
C26	C	0.764221	0.065324	0.000047
C27	C	1.071186	-0.056742	0.000064
C28	C	1.068488	-0.198341	0.000062
C29	C	0.981228	-0.265502	0.000050
C30	C	1.022439	-0.358089	0.078774
C31	C	1.022479	-0.358060	-0.078640
C32	C	1.109736	-0.289063	0.078851
C33	C	1.109763	-0.289024	-0.078633
C34	C	1.151038	-0.381585	0.000110
C35	C	1.230886	0.167425	0.000067
C36	C	1.330985	0.170118	0.000067
C37	C	1.061051	0.409631	0.000051
C38	C	1.063748	0.551230	0.000047
N39	N	1.066095	0.176437	0.248805
N40	N	1.066149	0.176442	-0.248688
C41	C	1.005401	0.263018	0.701068
C42	C	1.126886	0.089867	0.701050
C43	C	1.126875	0.089863	0.600555
C44	C	1.066127	0.176439	0.550311
C45	C	1.005390	0.263019	0.600563
C46	C	1.187617	0.003293	0.550295
C47	C	1.187609	0.003287	0.449793
C48	C	1.126857	0.089858	0.399548
C49	C	1.066117	0.176440	0.449806
C50	C	1.005369	0.263016	0.399563
C51	C	0.944624	0.349593	0.449819
C52	C	0.944638	0.349590	0.550318
C53	C	1.126843	0.089861	0.299049
C54	C	1.005358	0.263017	0.299058
H55	H	0.508917	-0.152807	0.000103
H56	H	0.679566	-0.148221	0.000060
O57	O	1.153880	-0.252877	0.158273
C58	C	1.292982	-0.272499	0.248576
C59	C	1.243109	-0.313566	0.158582
H60	H	1.365126	-0.321568	0.248865
H61	H	1.294729	-0.164103	0.247966
H62	H	1.255981	-0.301491	0.315564
H63	H	1.280069	-0.284661	0.091546
H64	H	1.241353	-0.421958	0.159276
H65	H	1.237080	-0.067188	0.591206
H66	H	0.623308	0.505714	0.000028
H67	H	1.176349	0.019385	0.741962
O68	O	0.351990	-0.058852	-0.000092
C69	C	0.257356	-0.196532	-0.082760
C70	C	0.298098	-0.067333	-0.082710
H71	H	0.213761	-0.203419	-0.149539
H72	H	0.314229	-0.278278	-0.082824
H73	H	0.213864	-0.203509	-0.015906
H74	H	0.341581	-0.060230	-0.149553
H75	H	0.241182	0.014351	-0.082596
H76	H	0.321596	0.381119	0.000050
O77	O	0.978563	-0.394484	-0.158142
C78	C	0.973887	-0.398810	-0.331010
C79	C	1.023728	-0.357523	-0.241062
H80	H	1.010372	-0.368920	-0.398074
H81	H	0.972854	-0.507330	-0.330692
H82	H	0.901487	-0.350663	-0.330849
H83	H	1.096149	-0.405579	-0.241165
H84	H	1.024687	-0.248992	-0.241415
O85	O	1.246642	-0.080940	0.401127
C86	C	1.367173	-0.252638	0.411725
C87	C	1.300357	-0.157337	0.466959
H88	H	1.410633	-0.314411	0.464925
H89	H	1.327878	-0.316550	0.364717
H90	H	1.412519	-0.197432	0.364629
H91	H	1.254996	-0.212438	0.514106
H92	H	1.339709	-0.093426	0.513906
O93	O	0.946313	0.347243	0.250403
C94	C	0.825776	0.518930	0.261028
C95	C	0.892609	0.423635	0.316247
H96	H	0.782326	0.580700	0.314238
H97	H	0.865058	0.582846	0.213995
H98	H	0.780424	0.463719	0.213958
H99	H	0.937978	0.478741	0.363369
H100	H	0.853271	0.359719	0.363219
H101	H	0.452680	0.501096	0.000031
O102	O	0.885707	0.433869	0.401051
C103	C	0.834274	0.655519	0.370330
C104	C	0.901059	0.560221	0.425607
H105	H	0.846651	0.757694	0.390179
H106	H	0.844710	0.640757	0.289858
H107	H	0.761969	0.638641	0.390083
H108	H	0.973391	0.577041	0.405935
H109	H	0.890545	0.575006	0.506065
O110	O	0.895580	-0.205504	0.000178
C111	C	0.736002	-0.229667	0.001129
C112	C	0.832945	-0.297776	0.001002
H113	H	0.685335	-0.304238	0.001775
H114	H	0.725663	-0.166519	0.067632
H115	H	0.725242	-0.167807	-0.066000
H116	H	0.843772	-0.359703	0.068086
H117	H	0.843238	-0.360846	-0.065545
O118	O	0.885602	0.433514	0.599246
C119	C	0.762648	0.460343	0.712708
C120	C	0.829462	0.365159	0.657369
H121	H	0.717229	0.405115	0.759698
H122	H	0.801945	0.524142	0.759809
H123	H	0.719264	0.522250	0.659524
H124	H	0.872863	0.303167	0.710484
H125	H	0.790111	0.301448	0.610253
H126	H	0.810640	-0.028255	0.000051
H127	H	0.774383	0.393314	0.000033
H128	H	0.955941	0.333505	0.741990
H129	H	0.985509	-0.388688	0.145325
H130	H	1.222848	-0.431815	0.000158
H131	H	1.146662	-0.258392	-0.145188
H132	H	1.176304	0.019377	0.258135
