data_functionalizedCrystal
_audit_creation_method	'MofGen! by Chris Wilmer'
_symmetry_space_group_name_H-M	'P1'
_symmetry_Int_Tables_number	1
_symmetry_cell_setting	triclinic
loop_
_symmetry_equiv_pos_as_xyz
  x,y,z
_cell_length_a	19.288864
_cell_length_b	17.038272
_cell_length_c	17.766277
_cell_angle_alpha	89.993732
_cell_angle_beta	89.976791
_cell_angle_gamma	87.123901
loop_
_atom_site_label
_atom_site_type_symbol
_atom_site_fract_x
_atom_site_fract_y
_atom_site_fract_z
O1	O	0.927386	0.097514	-0.062838
O2	O	1.427386	0.597514	0.437162
O3	O	0.725940	0.110668	-0.062787
O4	O	1.225940	0.610668	0.437213
O5	O	0.825466	-0.009720	-0.062806
O6	O	1.325466	0.490280	0.437194
O7	O	0.827860	0.217903	-0.062819
O8	O	1.327860	0.717903	0.437181
O9	O	0.825447	-0.009726	0.062382
O10	O	1.325447	0.490274	0.562382
O11	O	0.725920	0.110662	0.062402
O12	O	1.225920	0.610662	0.562402
O13	O	0.927367	0.097508	0.062351
O14	O	1.427367	0.597508	0.562351
Cu15	Cu	0.826642	0.104085	0.073807
Cu16	Cu	1.326642	0.604085	0.573807
Cu17	Cu	0.826665	0.104092	-0.074243
Cu18	Cu	1.326665	0.604092	0.425757
O19	O	0.827841	0.217897	0.062370
O20	O	1.327841	0.717897	0.562370
C21	C	0.700027	0.110242	-0.000186
C22	C	1.200027	0.610242	0.499814
C23	C	0.622845	0.108972	-0.000166
C24	C	1.122845	0.608972	0.499834
C25	C	0.582519	0.179610	-0.000182
C26	C	1.082519	0.679610	0.499818
C27	C	0.509998	0.178417	-0.000190
C28	C	1.009998	0.678417	0.499810
C29	C	0.477806	0.106580	-0.000198
C30	C	0.977806	0.606580	0.499802
C31	C	0.518141	0.035932	-0.000178
C32	C	1.018141	0.535932	0.499822
C33	C	0.590661	0.037128	-0.000162
C34	C	1.090661	0.537128	0.499838
C35	C	0.366057	0.050111	-0.044079
C36	C	0.866057	0.550111	0.455921
C37	C	0.293539	0.048918	-0.044100
C38	C	0.793539	0.548918	0.455900
C39	C	0.254132	0.102889	-0.000243
C40	C	0.754132	0.602889	0.499757
C41	C	0.287252	0.158066	0.043624
C42	C	0.787252	0.658066	0.543624
C43	C	0.359772	0.159262	0.043640
C44	C	0.859772	0.659262	0.543640
C45	C	0.399172	0.105276	-0.000214
C46	C	0.899172	0.605276	0.499786
C47	C	0.135171	0.172238	-0.000267
C48	C	0.635171	0.672238	0.499733
C49	C	0.062649	0.171042	-0.000270
C50	C	0.562649	0.671042	0.499730
C51	C	0.070793	0.028556	-0.000266
C52	C	0.570793	0.528556	0.499734
C53	C	0.143314	0.029754	-0.000254
C54	C	0.643314	0.529754	0.499746
C55	C	0.175498	0.101598	-0.000259
C56	C	0.675498	0.601598	0.499741
C57	C	0.823278	-0.038845	-0.000211
C58	C	1.323278	0.461155	0.499789
C59	C	0.816781	-0.125616	-0.000210
C60	C	1.316781	0.374384	0.499790
C61	C	0.876437	-0.175923	-0.000224
C62	C	1.376437	0.324077	0.499776
C63	C	0.870327	-0.257454	-0.000230
C64	C	1.370327	0.242546	0.499770
C65	C	0.804561	-0.288677	-0.000216
C66	C	1.304561	0.211323	0.499784
C67	C	0.744901	-0.238363	-0.000204
C68	C	1.244901	0.261637	0.499796
C69	C	0.751011	-0.156834	-0.000203
C70	C	1.251011	0.343166	0.499797
C71	C	0.782976	-0.534365	-0.000221
C72	C	1.282976	-0.034365	0.499779
C73	C	0.776870	-0.615900	-0.000219
C74	C	1.276870	-0.115900	0.499781
C75	C	0.902297	-0.634985	-0.000246
C76	C	1.402297	-0.134985	0.499754
C77	C	0.908402	-0.553454	-0.000241
C78	C	1.408402	-0.053454	0.499759
C79	C	0.848741	-0.503148	-0.000233
C80	C	1.348741	-0.003148	0.499767
C81	C	0.798315	-0.372014	-0.000219
C82	C	1.298315	0.127986	0.499781
C83	C	0.854988	-0.419812	-0.000235
C84	C	1.354988	0.080188	0.499765
C85	C	0.953279	0.097934	-0.000252
C86	C	1.453279	0.597934	0.499748
C87	C	1.030462	0.099205	-0.000277
C88	C	1.530462	0.599205	0.499723
C89	C	0.830029	0.247021	-0.000227
C90	C	1.330029	0.747021	0.499773
C91	C	0.836526	0.333793	-0.000233
C92	C	1.336526	0.833793	0.499767
N93	N	0.826631	0.104079	0.177937
N94	N	1.326631	0.604079	0.677937
N95	N	0.826681	0.104091	-0.178373
N96	N	1.326681	0.604091	0.321627
C97	C	0.870718	0.050797	0.217315
C98	C	1.370718	0.550797	0.717315
C99	C	0.870722	0.050793	0.296117
C100	C	1.370722	0.550793	0.796117
C101	C	0.826646	0.104085	0.335538
C102	C	1.326646	0.604085	0.835538
C103	C	0.782551	0.157371	0.296150
C104	C	1.282551	0.657371	0.796150
C105	C	0.782543	0.157368	0.217350
C106	C	1.282543	0.657368	0.717350
C107	C	0.821754	0.175309	0.460373
C108	C	1.321754	0.675309	0.960373
C109	C	0.821767	0.175313	0.539172
C110	C	1.321767	0.675313	1.039172
C111	C	0.826665	0.104095	0.578584
C112	C	1.326665	0.604095	1.078584
C113	C	0.831566	0.032869	0.539188
C114	C	1.331566	0.532869	1.039188
C115	C	0.831559	0.032866	0.460387
C116	C	1.331559	0.532866	0.960387
C117	C	0.826649	0.104094	0.420983
C118	C	1.326649	0.604094	0.920983
C119	C	0.870759	0.050804	0.703408
C120	C	1.370759	0.550804	1.203408
C121	C	0.870758	0.050800	0.782212
C122	C	1.370758	0.550800	1.282212
C123	C	0.782590	0.157384	0.782243
C124	C	1.282590	0.657384	1.282243
C125	C	0.782587	0.157382	0.703441
C126	C	1.282587	0.657382	1.203441
C127	C	0.826676	0.104093	0.664028
C128	C	1.326676	0.604093	1.164028
H129	H	0.044583	-0.029935	-0.000318
H130	H	0.544583	0.470065	0.499682
H131	H	0.929990	-0.150509	-0.000231
H132	H	1.429990	0.349491	0.499769
N133	N	0.408554	-0.008103	-0.091388
N134	N	0.908554	0.491897	0.408612
H135	H	0.459520	0.001024	-0.084720
H136	H	0.959520	0.501024	0.415280
H137	H	0.399010	-0.063286	-0.074992
H138	H	0.899010	0.436714	0.425008
H139	H	0.908534	-0.394387	-0.000264
H140	H	1.408534	0.105613	0.499736
N141	N	0.918306	-0.006670	0.660892
N142	N	1.418306	0.493330	1.160892
H143	H	0.946232	-0.040430	0.697799
H144	H	1.446232	0.459570	1.197799
H145	H	0.889678	-0.041151	0.628215
H146	H	1.389678	0.458849	1.128215
N147	N	0.979341	-0.519794	-0.000273
N148	N	1.479341	-0.019794	0.499727
H149	H	0.984675	-0.486391	-0.046685
H150	H	1.484675	0.013609	0.453315
H151	H	0.984632	-0.486436	0.046161
H152	H	1.484632	0.013564	0.546161
N153	N	0.019130	0.247220	-0.000278
N154	N	0.519130	0.747220	0.499722
H155	H	-0.011158	0.249880	0.046128
H156	H	0.488842	0.749880	0.546128
H157	H	0.050553	0.292883	-0.000305
H158	H	0.550553	0.792883	0.499695
H159	H	0.817753	0.233307	0.428290
H160	H	1.317753	0.733307	0.928290
H161	H	0.744768	-0.397444	-0.000206
H162	H	1.244768	0.102556	0.499794
N163	N	0.257824	-0.010593	-0.091411
N164	N	0.757824	0.489407	0.408589
H165	H	0.229633	-0.044658	-0.057817
H166	H	0.729633	0.455342	0.442183
H167	H	0.226154	0.017672	-0.128925
H168	H	0.726154	0.517672	0.371075
H169	H	0.161377	0.230738	-0.000259
H170	H	0.661377	0.730738	0.499741
H171	H	0.723313	-0.641318	-0.000195
H172	H	1.223313	-0.141318	0.499805
H173	H	0.918906	-0.298411	-0.000240
H174	H	1.418906	0.201589	0.499760
N175	N	0.395490	0.218763	0.090961
N176	N	0.895490	0.718763	0.590961
H177	H	0.427197	0.190544	0.128472
H178	H	0.927197	0.690544	0.628472
H179	H	0.423641	0.252820	0.057322
H180	H	0.923641	0.752820	0.557322
N181	N	0.966642	-0.689242	-0.000254
N182	N	1.466642	-0.189242	0.499746
H183	H	0.952795	-0.745629	-0.000251
H184	H	1.452795	-0.245629	0.499749
H185	H	0.995104	-0.679154	-0.046669
H186	H	1.495104	-0.179154	0.453331
N187	N	0.244761	0.216288	0.090926
N188	N	0.744761	0.716288	0.590926
H189	H	0.193795	0.207159	0.084265
H190	H	0.693795	0.707159	0.584265
H191	H	0.257828	0.209188	0.145636
H192	H	0.757828	0.709188	0.645636
H193	H	0.691353	-0.263791	-0.000197
H194	H	1.191353	0.236209	0.499803
H195	H	0.746691	0.200773	0.671377
H196	H	1.246691	0.700773	1.171377
N197	N	0.918266	-0.006679	0.174806
N198	N	1.418266	0.493321	0.674806
H199	H	0.946195	-0.040435	0.211715
H200	H	1.446195	0.459565	0.711715
H201	H	0.889637	-0.041165	0.142134
H202	H	1.389637	0.458835	0.642134
N203	N	0.918273	-0.006679	0.338603
N204	N	1.418273	0.493321	0.838603
H205	H	0.946199	-0.040438	0.301678
H206	H	1.446199	0.459562	0.801678
H207	H	0.950739	0.023167	0.371275
H208	H	1.450739	0.523167	0.871275
N209	N	0.718629	-0.480115	-0.000207
N210	N	1.218629	0.019885	0.499793
H211	H	0.718374	-0.445862	-0.046617
H212	H	1.218374	0.054138	0.453383
H213	H	0.676079	-0.512326	-0.000168
H214	H	1.176079	-0.012326	0.499832
N215	N	0.735044	0.214859	0.824749
N216	N	1.235044	0.714859	1.324749
H217	H	0.741736	0.206776	0.880644
H218	H	1.241736	0.706776	1.380644
H219	H	0.746337	0.270292	0.810962
H220	H	1.246337	0.770292	1.310962
H221	H	0.746662	0.200761	0.328250
H222	H	1.246662	0.700761	0.828250
H223	H	0.835555	-0.025124	0.571275
H224	H	1.335555	0.474876	1.071275
H225	H	0.835548	-0.025128	0.428314
H226	H	1.335548	0.474872	0.928314
H227	H	0.491926	-0.022557	-0.000194
H228	H	0.991926	0.477443	0.499806
N229	N	0.186807	-0.046440	-0.000240
N230	N	0.686807	0.453560	0.499760
H231	H	0.175992	-0.077791	-0.046649
H232	H	0.675992	0.422209	0.453351
H233	H	0.237617	-0.034722	-0.000199
H234	H	0.737617	0.465278	0.499801
H235	H	0.906656	0.007407	0.814274
H236	H	1.406656	0.507407	1.314274
N237	N	0.634161	-0.039064	-0.000141
N238	N	1.134161	0.460936	0.499859
H239	H	0.602766	-0.084755	-0.000144
H240	H	1.102766	0.415245	0.499856
H241	H	0.664452	-0.041671	-0.046544
H242	H	1.164452	0.458329	0.453456
N243	N	0.816477	0.252129	0.581661
N244	N	1.316477	0.752129	1.081661
H245	H	0.813360	0.297245	0.544738
H246	H	1.313360	0.797245	1.044738
H247	H	0.773595	0.253878	0.614377
H248	H	1.273595	0.753878	1.114377
N249	N	0.734988	0.214836	0.174871
N250	N	1.234988	0.714836	0.674871
H251	H	0.707063	0.248595	0.211798
H252	H	1.207063	0.748595	0.711798
H253	H	0.763609	0.249320	0.142157
H254	H	1.263609	0.749320	0.642157
H255	H	0.477159	0.235941	-0.000201
H256	H	0.977159	0.735941	0.499799
N257	N	0.617233	0.257095	-0.000192
N258	N	1.117233	0.757095	0.499808
H259	H	0.580677	0.301664	-0.000205
H260	H	1.080677	0.801664	0.499795
H261	H	0.647120	0.260701	0.046222
H262	H	1.147120	0.760701	0.546222
N263	N	0.686668	-0.102571	-0.000193
N264	N	1.186668	0.397429	0.499807
H265	H	0.644078	-0.134720	-0.000183
H266	H	1.144078	0.365280	0.499817
H267	H	0.686462	-0.068331	0.046216
H268	H	1.186462	0.431669	0.546216
