data_functionalizedCrystal
_audit_creation_method	'MofGen! by Chris Wilmer'
_symmetry_space_group_name_H-M	'P1'
_symmetry_Int_Tables_number	1
_symmetry_cell_setting	triclinic
loop_
_symmetry_equiv_pos_as_xyz
  x,y,z
_cell_length_a	13.897449
_cell_length_b	25.639239
_cell_length_c	13.897441
_cell_angle_alpha	89.965695
_cell_angle_beta	89.979267
_cell_angle_gamma	90.039966
loop_
_atom_site_label
_atom_site_type_symbol
_atom_site_fract_x
_atom_site_fract_y
_atom_site_fract_z
Zn1	Zn	1.474562	-0.208116	-0.545356
Zn2	Zn	1.474397	-0.295559	-0.384047
Zn3	Zn	1.313251	-0.208141	-0.384075
Zn4	Zn	1.313174	-0.295524	-0.545300
O5	O	1.393846	-0.251835	-0.464695
O6	O	1.609522	-0.219720	-0.523970
O7	O	1.452984	-0.283987	-0.249069
O8	O	1.334751	-0.134973	-0.405504
O9	O	1.609400	-0.283963	-0.405457
O10	O	1.453265	-0.134954	-0.523997
O11	O	1.334591	-0.219762	-0.249089
O12	O	1.178259	-0.219729	-0.405449
O13	O	1.334619	-0.283905	-0.680289
O14	O	1.178202	-0.283929	-0.523901
O15	O	1.453190	-0.219686	-0.680331
O16	O	1.452909	-0.368719	-0.405403
O17	O	1.334459	-0.368694	-0.523874
C18	C	1.143232	-0.251828	-0.464673
C19	C	1.036018	-0.251838	-0.464686
C20	C	0.839722	-0.251840	-0.464711
C21	C	0.948955	-0.251837	-0.464695
C22	C	1.393684	-0.387678	-0.464650
C23	C	1.393702	-0.445792	-0.464664
C24	C	1.455684	-0.806155	-0.403111
C25	C	1.455721	-0.860760	-0.403124
O26	O	1.508251	-0.888997	-0.350742
N27	N	1.394015	-0.888074	-0.464758
C28	C	1.332275	-0.860782	-0.526391
O29	O	1.279794	-0.889029	-0.578817
C30	C	1.332243	-0.806178	-0.526382
C31	C	1.393946	-0.778867	-0.464737
C32	C	1.517382	-0.778844	-0.341472
C33	C	1.517343	-0.724243	-0.341458
C34	C	1.455606	-0.696954	-0.403084
C35	C	1.393907	-0.724266	-0.464723
C36	C	1.270509	-0.778887	-0.588018
C37	C	1.270483	-0.724280	-0.588004
C38	C	1.332186	-0.696968	-0.526359
C39	C	1.332131	-0.642377	-0.526334
N40	N	1.393837	-0.615062	-0.464700
C41	C	1.455574	-0.642351	-0.403075
C42	C	1.332348	-0.975452	-0.526405
C43	C	1.332374	-1.030055	-0.526410
C44	C	1.455821	-1.030029	-0.403145
C45	C	1.455790	-0.975426	-0.403136
C46	C	1.394054	-0.948138	-0.464771
C47	C	1.455487	-0.527686	-0.403050
C48	C	1.455440	-0.473081	-0.403038
C49	C	1.331997	-0.473111	-0.526307
C50	C	1.332040	-0.527712	-0.526315
C51	C	1.393793	-0.554998	-0.464683
O52	O	1.279630	-0.614105	-0.578693
O53	O	1.508056	-0.614097	-0.350666
C54	C	1.645439	-0.251843	-0.464717
C55	C	1.752653	-0.251846	-0.464727
C56	C	1.393914	-0.251789	-0.716288
C57	C	1.393943	-0.251769	-0.823502
C58	C	1.394035	-0.115462	-0.464760
C59	C	1.394116	-0.057348	-0.464788
C60	C	1.393970	-0.251734	-1.019797
C61	C	1.393952	-0.251755	-0.910564
C62	C	1.393833	-0.251843	-0.214080
C63	C	1.393991	-0.251716	-0.106867
H64	H	1.505686	-0.450845	-0.352836
H65	H	1.281799	-0.549950	-0.576514
C66	C	1.264497	-1.060094	-0.594211
H67	H	1.273350	-1.096523	-0.585396
H68	H	1.278573	-1.051108	-0.659030
H69	H	1.199686	-1.051187	-0.580026
H70	H	1.505774	-0.549896	-0.352865
C71	C	1.585294	-0.808853	-0.273673
H72	H	1.622023	-0.784759	-0.236962
H73	H	1.627323	-0.830119	-0.310597
H74	H	1.548423	-0.830186	-0.231607
C75	C	1.585229	-0.694207	-0.273660
H76	H	1.622005	-0.718286	-0.236973
H77	H	1.548353	-0.672941	-0.231587
H78	H	1.627230	-0.672872	-0.310601
H79	H	1.220211	-0.702064	-0.638198
C80	C	1.202648	-0.808920	-0.655839
H81	H	1.211497	-0.845350	-0.647028
H82	H	1.216739	-0.799931	-0.720652
H83	H	1.137834	-0.800013	-0.641667
C84	C	1.264099	-0.443089	-0.594101
H85	H	1.227351	-0.467172	-0.630816
H86	H	1.300975	-0.421753	-0.636147
H87	H	1.222071	-0.421824	-0.557162
C88	C	1.523669	-0.945387	-0.335335
H89	H	1.560443	-0.969465	-0.298642
H90	H	1.486789	-0.924120	-0.293268
H91	H	1.565673	-0.924053	-0.372274
C92	C	1.523730	-1.060053	-0.335355
H93	H	1.514911	-1.096484	-0.344198
H94	H	1.509641	-1.051139	-0.270530
H95	H	1.588533	-1.051067	-0.349529
C96	C	1.264422	-0.945440	-0.594197
H97	H	1.227676	-0.969532	-0.630895
H98	H	1.301276	-0.924102	-0.636260
H99	H	1.222395	-0.924179	-0.557251
