data_functionalizedCrystal
_audit_creation_method	'MofGen! by Chris Wilmer'
_symmetry_space_group_name_H-M	'P1'
_symmetry_Int_Tables_number	1
_symmetry_cell_setting	triclinic
loop_
_symmetry_equiv_pos_as_xyz
  x,y,z
_cell_length_a	12.594517
_cell_length_b	19.121063
_cell_length_c	12.594510
_cell_angle_alpha	92.399685
_cell_angle_beta	89.978880
_cell_angle_gamma	92.468805
loop_
_atom_site_label
_atom_site_type_symbol
_atom_site_fract_x
_atom_site_fract_y
_atom_site_fract_z
Zn1	Zn	1.609107	-0.279552	-0.619878
Zn2	Zn	1.601368	-0.397027	-0.449471
Zn3	Zn	1.431108	-0.279595	-0.441909
Zn4	Zn	1.423466	-0.396966	-0.627397
O5	O	1.516262	-0.338285	-0.534664
O6	O	1.757025	-0.295143	-0.597291
O7	O	1.578742	-0.381493	-0.299525
O8	O	1.461157	-0.181305	-0.459206
O9	O	1.751340	-0.381452	-0.472093
O10	O	1.591932	-0.181274	-0.589959
O11	O	1.453653	-0.295216	-0.293969
O12	O	1.281149	-0.295156	-0.466497
O13	O	1.448132	-0.381347	-0.775343
O14	O	1.275535	-0.381388	-0.602774
O15	O	1.584522	-0.295084	-0.769818
O16	O	1.571332	-0.495303	-0.479384
O17	O	1.440628	-0.495258	-0.610106
C18	C	1.239722	-0.338271	-0.534631
C19	C	1.121416	-0.338282	-0.534644
C20	C	1.504340	-0.520764	-0.546405
C21	C	1.499337	-0.598830	-0.551463
C22	C	1.055190	-0.291316	-0.460654
C23	C	0.980218	-0.355383	-0.438604
C24	C	0.985587	-0.274246	-0.556715
C25	C	1.048000	-0.402382	-0.512545
C26	C	1.053378	-0.321202	-0.630698
C27	C	0.978435	-0.385313	-0.608687
C28	C	1.565089	-0.635505	-0.485836
C29	C	1.560390	-0.708856	-0.490600
C30	C	1.489932	-0.745530	-0.560986
C31	C	1.424177	-0.708849	-0.626620
C32	C	1.428882	-0.635500	-0.621861
C33	C	1.472323	-0.966998	-0.578762
C34	C	1.467621	-1.040352	-0.583514
C35	C	1.603836	-1.040354	-0.447495
C36	C	1.608530	-0.967003	-0.442738
C37	C	1.542779	-0.930329	-0.508376
C38	C	1.485125	-0.820506	-0.565854
C39	C	1.547592	-0.855354	-0.503512
C40	C	1.793882	-0.338300	-0.534697
C41	C	1.912187	-0.338306	-0.534711
C42	C	1.516338	-0.338204	-0.812280
C43	C	1.516370	-0.338169	-0.930583
C44	C	1.528260	-0.155093	-0.522900
C45	C	1.533373	-0.077028	-0.517887
C46	C	1.590574	-0.291247	-0.996831
C47	C	1.494614	-0.274056	-1.066514
C48	C	1.612389	-0.355312	-1.071696
C49	C	1.420361	-0.320945	-0.998705
C50	C	1.538200	-0.402230	-1.003883
C51	C	1.442172	-0.385063	-1.073535
C52	C	1.516252	-0.338315	-0.258125
C53	C	1.516438	-0.338152	-0.139809
H54	H	1.088788	-0.251638	-0.398013
C55	C	1.390113	-1.080696	-0.660938
H56	H	1.396720	-1.129632	-0.654358
H57	H	1.406421	-1.068632	-0.731687
H58	H	1.319372	-1.068720	-0.644511
H59	H	1.653221	-0.251544	-0.963244
H60	H	0.945026	-0.425087	-0.671289
C61	C	1.346676	-0.749185	-0.704048
H62	H	1.308198	-0.716835	-0.742459
H63	H	1.298483	-0.777848	-0.665153
H64	H	1.385543	-0.777749	-0.752318
H65	H	1.075422	-0.456563	-0.493815
H66	H	1.476173	-0.219873	-1.094162
C67	C	1.357352	-0.438655	-1.118650
H68	H	1.289238	-0.426356	-1.093492
H69	H	1.372255	-0.484032	-1.096228
H70	H	1.358223	-0.438627	-1.194074
H71	H	1.556671	-0.456398	-0.976214
H72	H	1.085503	-0.306721	-0.711874
C73	C	1.722045	-0.374915	-1.114951
H74	H	1.774654	-0.341536	-1.088593
H75	H	1.721105	-0.375190	-1.190386
H76	H	1.738034	-0.420110	-1.092536
H77	H	1.418784	-0.937143	-0.632205
C78	C	0.948369	-0.201077	-0.581905
H79	H	0.974737	-0.167759	-0.529245
H80	H	0.872911	-0.201711	-0.582393
H81	H	0.974523	-0.188614	-0.649613
H82	H	1.604963	-0.825492	-0.446207
C83	C	1.310679	-0.301257	-0.955623
H84	H	1.311335	-0.301359	-0.880200
H85	H	1.257967	-0.334372	-0.982514
H86	H	1.295080	-0.255882	-0.977561
C87	C	1.642595	-0.595170	-0.408413
H88	H	1.681089	-0.627521	-0.370018
H89	H	1.603743	-0.566604	-0.360144
H90	H	1.690791	-0.566510	-0.447321
C91	C	0.936831	-0.374916	-0.328918
H92	H	0.892640	-0.416369	-0.336327
H93	H	0.896668	-0.337771	-0.299973
H94	H	0.994427	-0.382667	-0.282786
C95	C	1.686041	-0.926666	-0.365320
H96	H	1.724536	-0.959015	-0.326923
H97	H	1.647186	-0.898100	-0.317053
H98	H	1.734235	-0.898006	-0.404230
C99	C	1.632713	-0.749196	-0.418405
H100	H	1.675338	-0.716849	-0.375795
H101	H	1.677239	-0.777761	-0.461011
H102	H	1.590175	-0.777858	-0.373850
H103	H	1.657368	-1.070222	-0.394058
H104	H	1.375341	-0.605639	-0.675302
H105	H	1.427756	-0.850374	-0.623161
