data_functionalizedCrystal
_audit_creation_method	'MofGen! by Chris Wilmer'
_symmetry_space_group_name_H-M	'P1'
_symmetry_Int_Tables_number	1
_symmetry_cell_setting	triclinic
loop_
_symmetry_equiv_pos_as_xyz
  x,y,z
_cell_length_a	16.120490
_cell_length_b	16.120444
_cell_length_c	10.686551
_cell_angle_alpha	91.291368
_cell_angle_beta	97.502252
_cell_angle_gamma	90.165174
loop_
_atom_site_label
_atom_site_type_symbol
_atom_site_fract_x
_atom_site_fract_y
_atom_site_fract_z
Zn1	Zn	1.299161	-0.355281	0.840282
Zn2	Zn	1.799161	0.144719	1.340282
Zn3	Zn	1.281312	-0.504003	0.639306
Zn4	Zn	1.781312	-0.004003	1.139306
Zn5	Zn	1.148278	-0.358926	0.618009
Zn6	Zn	1.648278	0.141074	1.118009
Zn7	Zn	1.152949	-0.487282	0.839134
Zn8	Zn	1.652949	0.012718	1.339134
O9	O	1.220425	-0.426373	0.734183
O10	O	1.720425	0.073627	1.234183
O11	O	1.413658	-0.380482	0.823015
O12	O	1.913658	0.119518	1.323015
O13	O	1.254240	-0.493281	0.459830
O14	O	1.754240	0.006719	0.959830
O15	O	1.173808	-0.242485	0.639061
O16	O	1.673808	0.257515	1.139061
O17	O	1.400545	-0.489747	0.675359
O18	O	1.900545	0.010253	1.175359
O19	O	1.284661	-0.239807	0.802364
O20	O	1.784661	0.260193	1.302364
O21	O	1.156501	-0.386694	0.444183
O22	O	1.656501	0.113306	0.944183
O23	O	1.032033	-0.370481	0.637948
O24	O	1.532033	0.129519	1.137948
O25	O	1.181769	-0.461249	1.015937
O26	O	1.681769	0.038751	1.515937
O27	O	1.035465	-0.464783	0.800408
O28	O	1.535465	0.035217	1.300408
O29	O	1.289190	-0.364268	1.016780
O30	O	1.789190	0.135732	1.516780
O31	O	1.258770	-0.617743	0.674246
O32	O	1.758770	-0.117743	1.174246
O33	O	1.164462	-0.605458	0.821059
O34	O	1.664462	-0.105458	1.321059
C35	C	1.003447	-0.416213	0.716743
C36	C	1.503447	0.083787	1.216743
C37	C	0.910623	-0.411886	0.709314
C38	C	1.410623	0.088114	1.209314
C39	C	0.701025	-0.448816	0.772721
C40	C	1.201025	0.051184	1.272721
C41	C	0.740678	-0.403992	0.695749
C42	C	1.240678	0.096008	1.195749
C43	C	0.835245	-0.408385	0.703299
C44	C	1.335245	0.091615	1.203299
C45	C	0.606451	-0.444423	0.765172
C46	C	1.106451	0.055577	1.265172
C47	C	1.210210	-0.641667	0.749868
C48	C	1.710210	-0.141667	1.249868
C49	C	1.205919	-0.733772	0.756627
C50	C	1.705919	-0.233772	1.256627
C51	C	1.242906	-0.949498	0.699409
C52	C	1.742906	-0.449498	1.199409
C53	C	1.198100	-0.902404	0.768981
C54	C	1.698100	-0.402404	1.268981
C55	C	1.202452	-0.808568	0.762105
C56	C	1.702452	-0.308568	1.262105
C57	C	1.238555	-1.043342	0.706284
C58	C	1.738555	-0.543342	1.206284
C59	C	1.438251	-0.436573	0.751691
C60	C	1.938251	0.063427	1.251691
C61	C	1.531075	-0.440920	0.759152
C62	C	2.031075	0.059080	1.259152
C63	C	1.237992	-0.410487	1.063443
C64	C	1.737992	0.089513	1.563443
C65	C	1.245478	-0.403717	1.203754
C66	C	1.745478	0.096283	1.703754
C67	C	1.230704	-0.210239	0.718465
C68	C	1.730704	0.289761	1.218465
C69	C	1.235085	-0.118135	0.711767
C70	C	1.735085	0.381865	1.211767
C71	C	1.202977	-0.442140	0.406202
C72	C	1.702977	0.057860	0.906202
C73	C	1.195664	-0.448684	0.265888
C74	C	1.695664	0.051316	0.765888
H75	H	0.703605	-0.362317	0.624182
H76	H	1.203605	0.137683	1.124182
H77	H	1.156472	-0.932558	0.833707
H78	H	1.656472	-0.432558	1.333707
H79	H	0.738096	-0.490488	0.844281
H80	H	1.238096	0.009512	1.344281
H81	H	1.284530	-0.919347	0.634687
H82	H	1.784530	-0.419347	1.134687
H83	H	1.147292	-0.492365	1.211741
H84	H	1.647292	0.007635	1.711741
H85	H	1.293859	-0.360040	1.257908
H86	H	1.793859	0.139960	1.757908
