data_functionalizedCrystal
_audit_creation_method	'MofGen! by Chris Wilmer'
_symmetry_space_group_name_H-M	'P1'
_symmetry_Int_Tables_number	1
_symmetry_cell_setting	triclinic
loop_
_symmetry_equiv_pos_as_xyz
  x,y,z
_cell_length_a	16.992694
_cell_length_b	9.798715
_cell_length_c	16.992695
_cell_angle_alpha	90.003437
_cell_angle_beta	90.668223
_cell_angle_gamma	89.998094
loop_
_atom_site_label
_atom_site_type_symbol
_atom_site_fract_x
_atom_site_fract_y
_atom_site_fract_z
O1	O	1.050850	0.113321	0.166915
O2	O	1.550850	0.613321	0.666915
O3	O	0.822450	0.113361	0.165084
O4	O	1.322450	0.613361	0.665084
O5	O	0.935734	0.113331	0.051799
O6	O	1.435734	0.613331	0.551799
O7	O	0.937565	0.113352	0.280199
O8	O	1.437565	0.613352	0.780199
O9	O	0.935725	-0.113652	0.051798
O10	O	1.435725	0.386348	0.551798
O11	O	0.822441	-0.113621	0.165083
O12	O	1.322441	0.386379	0.665083
O13	O	1.050841	-0.113661	0.166914
O14	O	1.550841	0.386339	0.666914
Zn15	Zn	0.936639	-0.149679	0.165998
Zn16	Zn	1.436639	0.350321	0.665998
Zn17	Zn	0.936651	0.149380	0.165999
Zn18	Zn	1.436651	0.649380	0.665999
O19	O	0.937556	-0.113630	0.280198
O20	O	1.437556	0.386370	0.780198
C21	C	0.793085	-0.000125	0.162727
C22	C	1.293085	0.499875	0.662727
C23	C	0.705600	-0.000110	0.155699
C24	C	1.205600	0.499890	0.655699
N25	N	0.936637	-0.353779	0.165997
N26	N	1.436637	0.146221	0.665997
C27	C	0.659610	-0.000104	0.223517
C28	C	1.159610	0.499896	0.723517
C29	C	0.577409	-0.000124	0.216908
C30	C	1.077409	0.499876	0.716908
C31	C	0.541201	-0.000139	0.142480
C32	C	1.041201	0.499861	0.642480
C33	C	0.587198	-0.000148	0.074657
C34	C	1.087198	0.499852	0.574657
C35	C	0.669397	-0.000138	0.081267
C36	C	1.169397	0.499862	0.581267
C37	C	0.295886	-0.000178	0.115086
C38	C	0.795886	0.499822	0.615086
C39	C	0.213681	-0.000183	0.108481
C40	C	0.713681	0.499817	0.608481
C41	C	0.203898	-0.000162	0.250732
C42	C	0.703898	0.499838	0.750732
C43	C	0.286099	-0.000144	0.257336
C44	C	0.786099	0.499856	0.757336
C45	C	0.332089	-0.000160	0.189512
C46	C	0.832089	0.499840	0.689512
N47	N	0.457178	-0.000154	0.135723
N48	N	0.957178	0.499846	0.635723
N49	N	0.416110	-0.000154	0.196270
N50	N	0.916110	0.499846	0.696270
C51	C	0.984190	-0.421569	0.118211
C52	C	1.484190	0.078431	0.618211
C53	C	0.984202	-0.578731	0.118209
C54	C	1.484202	-0.078731	0.618209
C55	C	1.080205	-0.000172	0.169270
C56	C	1.580205	0.499828	0.669270
C57	C	1.167690	-0.000178	0.176299
C58	C	1.667690	0.499822	0.676299
C59	C	0.933374	-0.000160	0.022439
C60	C	1.433374	0.499840	0.522439
C61	C	0.926345	-0.000158	-0.065046
C62	C	1.426345	0.499842	0.434954
N63	N	0.936659	0.353479	0.165994
N64	N	1.436659	0.853479	0.665994
C65	C	0.994163	-0.000172	-0.111037
C66	C	1.494163	0.499828	0.388963
C67	C	0.987554	-0.000158	-0.193238
C68	C	1.487554	0.499842	0.306762
C69	C	0.913127	-0.000140	-0.229446
C70	C	1.413127	0.499860	0.270554
C71	C	0.845303	-0.000122	-0.183449
C72	C	1.345303	0.499878	0.316551
C73	C	0.851913	-0.000127	-0.101250
C74	C	1.351913	0.499873	0.398750
C75	C	0.885732	-0.000116	-0.474760
C76	C	1.385732	0.499884	0.025240
C77	C	0.879127	-0.000116	-0.556966
C78	C	1.379127	0.499884	-0.056966
C79	C	1.021379	-0.000149	-0.566749
C80	C	1.521379	0.499851	-0.066749
C81	C	1.027982	-0.000161	-0.484547
C82	C	1.527982	0.499839	0.015453
C83	C	0.960159	-0.000136	-0.438558
C84	C	1.460159	0.499864	0.061442
N85	N	0.906369	-0.000130	-0.313468
N86	N	1.406369	0.499870	0.186532
N87	N	0.966917	-0.000137	-0.354537
N88	N	1.466917	0.499863	0.145463
C89	C	0.939917	-0.000137	0.309559
C90	C	1.439917	0.499863	0.809559
C91	C	0.946945	-0.000129	0.397044
C92	C	1.446945	0.499871	0.897044
H93	H	0.689084	-0.000091	0.284124
H94	H	1.189084	0.499909	0.784124
Cl95	Cl	0.873787	-0.443801	0.229159
Cl96	Cl	1.373787	0.056199	0.729159
Cl97	Cl	0.168163	-0.000233	0.014908
Cl98	Cl	0.668163	0.499767	0.514908
H99	H	0.830505	-0.000097	-0.437325
H100	H	1.330505	0.499903	0.062675
H101	H	1.054770	-0.000194	-0.081563
H102	H	1.554770	0.499806	0.418437
H103	H	0.539966	-0.000118	0.272133
H104	H	1.039966	0.499882	0.772133
H105	H	1.042779	-0.000171	-0.230680
H106	H	1.542779	0.499829	0.269320
Cl107	Cl	0.766652	-0.000105	-0.043432
Cl108	Cl	1.266652	0.499895	0.456568
H109	H	1.076596	-0.000166	-0.604202
H110	H	1.576596	0.499834	-0.104202
Cl111	Cl	0.146078	-0.000146	0.335990
Cl112	Cl	0.646078	0.499854	0.835990
Cl113	Cl	0.353691	-0.000197	0.029821
Cl114	Cl	0.853691	0.499803	0.529821
Cl115	Cl	0.541678	-0.000175	-0.018910
Cl116	Cl	1.041678	0.499825	0.481090
Cl117	Cl	1.121552	-0.000139	-0.439035
Cl118	Cl	1.621552	0.499861	0.060965
H119	H	0.818517	-0.000124	-0.586443
H120	H	1.318517	0.499876	-0.086443
H121	H	1.024890	-0.363257	0.077297
H122	H	1.524890	0.136743	0.577297
H123	H	0.895948	-0.588233	0.206912
H124	H	1.395948	-0.088233	0.706912
Cl125	Cl	0.331612	-0.000116	0.350905
Cl126	Cl	0.831612	0.499884	0.850905
H127	H	0.706842	-0.000142	0.026042
H128	H	1.206842	0.499858	0.526042
Cl129	Cl	1.047066	-0.668731	0.055045
Cl130	Cl	1.547066	-0.168731	0.555045
Cl131	Cl	0.751737	-0.000083	-0.228968
Cl132	Cl	1.251737	0.499917	0.271032
