data_functionalizedCrystal
_audit_creation_method	'MofGen! by Chris Wilmer'
_symmetry_space_group_name_H-M	'P1'
_symmetry_Int_Tables_number	1
_symmetry_cell_setting	triclinic
loop_
_symmetry_equiv_pos_as_xyz
  x,y,z
_cell_length_a	18.215407
_cell_length_b	16.625545
_cell_length_c	18.215399
_cell_angle_alpha	89.975452
_cell_angle_beta	90.017368
_cell_angle_gamma	89.975606
loop_
_atom_site_label
_atom_site_type_symbol
_atom_site_fract_x
_atom_site_fract_y
_atom_site_fract_z
Zn1	Zn	1.125061	0.321065	0.416085
Zn2	Zn	1.458395	0.654398	0.749418
Zn3	Zn	1.791728	0.987732	1.082752
Zn4	Zn	1.124965	0.455905	0.293026
Zn5	Zn	1.458299	0.789239	0.626359
Zn6	Zn	1.791632	1.122572	0.959693
Zn7	Zn	1.001994	0.321084	0.293038
Zn8	Zn	1.335327	0.654418	0.626371
Zn9	Zn	1.668661	0.987751	0.959704
Zn10	Zn	1.001955	0.455853	0.416056
Zn11	Zn	1.335289	0.789187	0.749389
Zn12	Zn	1.668622	1.122520	1.082723
O13	O	1.063494	0.388477	0.354551
O14	O	1.396827	0.721810	0.687884
O15	O	1.730161	1.055144	1.021218
O16	O	1.228033	0.338965	0.399768
O17	O	1.561366	0.672299	0.733101
O18	O	1.894700	1.005632	1.066435
O19	O	1.108629	0.438051	0.190043
O20	O	1.441962	0.771384	0.523376
O21	O	1.775296	1.104717	0.856710
O22	O	1.018375	0.208249	0.309377
O23	O	1.351709	0.541583	0.642710
O24	O	1.685042	0.874916	0.976044
O25	O	1.227962	0.438032	0.309357
O26	O	1.561296	0.771365	0.642690
O27	O	1.894629	1.104699	0.976024
O28	O	1.108793	0.208235	0.399779
O29	O	1.442126	0.541568	0.733113
O30	O	1.775459	0.874902	1.066446
O31	O	1.018282	0.338998	0.190052
O32	O	1.351616	0.672332	0.523385
O33	O	1.684949	1.005665	0.856718
O34	O	0.899005	0.338948	0.309349
O35	O	1.232338	0.672281	0.642682
O36	O	1.565671	1.005615	0.976016
O37	O	1.018310	0.437943	0.519044
O38	O	1.351643	0.771277	0.852378
O39	O	1.684976	1.104610	1.185711
O40	O	0.898976	0.437962	0.399730
O41	O	1.232310	0.771295	0.733064
O42	O	1.565643	1.104629	1.066397
O43	O	1.108755	0.338915	0.519065
O44	O	1.442088	0.672248	0.852399
O45	O	1.775422	1.005582	1.185732
O46	O	1.108591	0.568731	0.309329
O47	O	1.441925	0.902064	0.642662
O48	O	1.775258	1.235397	0.975996
O49	O	1.018217	0.568693	0.399719
O50	O	1.351550	0.902026	0.733052
O51	O	1.684883	1.235359	1.066386
C52	C	0.872288	0.388452	0.354538
C53	C	1.205621	0.721785	0.687872
C54	C	1.538954	1.055119	1.021205
C55	C	0.790489	0.388461	0.354550
C56	C	1.123822	0.721794	0.687883
C57	C	1.457156	1.055128	1.021217
C58	C	0.602331	0.336983	0.401701
C59	C	0.935664	0.670316	0.735035
C60	C	1.268997	1.003650	1.068368
C61	C	0.525472	0.336990	0.401704
C62	C	0.858805	0.670323	0.735037
C63	C	1.192139	1.003657	1.068371
C64	C	0.525409	0.439993	0.307414
C65	C	0.858743	0.773327	0.640747
C66	C	1.192076	1.106660	0.974080
C67	C	0.602267	0.439982	0.307408
C68	C	0.935600	0.773315	0.640741
C69	C	1.268933	1.106648	0.974075
C70	C	0.640725	0.388478	0.354556
C71	C	0.974059	0.721811	0.687889
C72	C	1.307392	1.055144	1.021223
C73	C	0.487009	0.388496	0.354564
C74	C	0.820343	0.721830	0.687898
C75	C	1.153676	1.055163	1.021231
C76	C	0.403676	0.388504	0.354567
C77	C	0.737009	0.721838	0.687900
C78	C	1.070342	1.055171	1.021233
C79	C	0.724064	0.388469	0.354553
C80	C	1.057398	0.721802	0.687886
C81	C	1.390731	1.055135	1.021220
C82	C	1.063409	0.597968	0.354536
C83	C	1.396743	0.931301	0.687869
C84	C	1.730076	1.264634	1.021202
C85	C	1.063441	0.687589	0.354554
C86	C	1.396774	1.020922	0.687887
C87	C	1.730107	1.354256	1.021220
C88	C	1.063467	0.760371	0.354571
C89	C	1.396801	1.093705	0.687904
C90	C	1.730134	1.427038	1.021238
C91	C	1.063508	0.851680	0.354591
C92	C	1.396842	1.185013	0.687924
C93	C	1.730175	1.518346	1.021257
C94	C	1.063545	0.924456	0.354603
C95	C	1.396878	1.257789	0.687936
C96	C	1.730212	1.591123	1.021269
C97	C	1.063585	1.015770	0.354621
C98	C	1.396918	1.349104	0.687955
C99	C	1.730252	1.682437	1.021288
C100	C	1.255447	0.388502	0.354564
C101	C	1.588780	0.721836	0.687898
C102	C	1.922114	1.055169	1.021231
C103	C	1.337246	0.388513	0.354570
C104	C	1.670579	0.721847	0.687903
C105	C	2.003912	1.055180	1.021237
C106	C	1.063539	0.388421	0.546504
C107	C	1.396872	0.721755	0.879837
C108	C	1.730206	1.055088	1.213171
C109	C	1.063558	0.388398	0.628303
C110	C	1.396891	0.721731	0.961636
C111	C	1.730225	1.055064	1.294970
C112	C	1.063593	1.178168	0.354592
C113	C	1.396927	1.511501	0.687925
C114	C	1.730260	1.844835	1.021259
C115	C	1.063622	1.088547	0.354633
C116	C	1.396955	1.421880	0.687967
C117	C	1.730288	1.755213	1.021300
C118	C	1.063492	0.388474	0.163345
C119	C	1.396825	0.721807	0.496678
C120	C	1.730158	1.055141	0.830011
C121	C	1.063615	0.388271	0.081546
C122	C	1.396949	0.721604	0.414880
C123	C	1.730282	1.054937	0.748213
C124	C	1.110670	0.336785	0.816509
C125	C	1.444003	0.670119	1.149843
C126	C	1.777336	1.003452	1.483176
C127	C	1.110679	0.336762	0.893368
C128	C	1.444012	0.670095	1.226701
C129	C	1.777345	1.003428	1.560035
C130	C	1.016498	0.439885	0.893335
C131	C	1.349831	0.773219	1.226668
C132	C	1.683165	1.106552	1.560001
C133	C	1.016486	0.439904	0.816477
C134	C	1.349820	0.773237	1.149811
C135	C	1.683153	1.106571	1.483144
C136	C	1.063576	0.388355	0.778067
C137	C	1.396910	0.721689	1.111400
C138	C	1.730243	1.055022	1.444733
C139	C	1.063597	0.388313	0.931783
C140	C	1.396930	0.721646	1.265116
C141	C	1.730264	1.054980	1.598449
C142	C	1.063606	0.388288	1.015116
C143	C	1.396939	0.721621	1.348450
C144	C	1.730273	1.054955	1.681783
C145	C	1.063566	0.388379	0.694728
C146	C	1.396900	0.721712	1.028061
C147	C	1.730233	1.055046	1.361394
H148	H	0.633641	0.295043	0.440090
H149	H	0.966975	0.628376	0.773423
H150	H	1.300308	0.961709	1.106757
O151	O	0.639601	0.489893	0.261532
O152	O	0.972935	0.823226	0.594865
O153	O	1.306268	1.156560	0.928198
C154	C	0.684067	0.443914	0.214080
C155	C	1.017400	0.777248	0.547414
C156	C	1.350733	1.110581	0.880747
H157	H	0.660917	0.380408	0.209632
H158	H	0.994250	0.713742	0.542965
H159	H	1.327584	1.047075	0.876298
H160	H	0.684914	0.472999	0.157400
H161	H	1.018247	0.806333	0.490733
H162	H	1.351581	1.139666	0.824067
H163	H	0.742324	0.441155	0.236837
H164	H	1.075657	0.774489	0.570170
H165	H	1.408990	1.107822	0.903504
O166	O	1.156327	0.286591	0.779231
O167	O	1.489661	0.619924	1.112564
O168	O	1.822994	0.953258	1.445897
C169	C	1.140291	0.206226	0.798041
C170	C	1.473625	0.539559	1.131374
C171	C	1.806958	0.872893	1.464707
H172	H	1.081503	0.202149	0.819159
H173	H	1.414837	0.535483	1.152492
H174	H	1.748170	0.868816	1.485826
H175	H	1.146641	0.166401	0.747507
H176	H	1.479974	0.499734	1.080840
H177	H	1.813308	0.833067	1.414173
H178	H	1.179761	0.185142	0.842665
H179	H	1.513094	0.518475	1.175999
H180	H	1.846428	0.851809	1.509332
O181	O	0.970799	0.490074	0.930568
O182	O	1.304132	0.823407	1.263902
O183	O	1.637465	1.156741	1.597235
C184	C	0.986855	0.570442	0.911788
C185	C	1.320188	0.903776	1.245121
C186	C	1.653522	1.237109	1.578454
H187	H	1.015134	0.572129	0.855987
H188	H	1.348467	0.905462	1.189320
H189	H	1.681801	1.238795	1.522654
H190	H	0.933725	0.606594	0.909145
H191	H	1.267059	0.939928	1.242478
H192	H	1.600392	1.273261	1.575812
H193	H	1.024687	0.597592	0.955043
H194	H	1.358021	0.930926	1.288376
H195	H	1.691354	1.264259	1.621710
H196	H	1.149026	0.294767	0.924665
H197	H	1.482359	0.628100	1.257998
H198	H	1.815692	0.961434	1.591331
H199	H	0.978132	0.481898	0.785176
H200	H	1.311465	0.815231	1.118510
H201	H	1.644798	1.148565	1.451843
H202	H	0.494214	0.295057	0.440093
H203	H	0.827548	0.628390	0.773427
H204	H	1.160881	0.961723	1.106760
H205	H	0.494087	0.481927	0.269028
H206	H	0.827420	0.815260	0.602361
H207	H	1.160754	1.148593	0.935695
