data_functionalizedCrystal
_audit_creation_method	'MofGen! by Chris Wilmer'
_symmetry_space_group_name_H-M	'P1'
_symmetry_Int_Tables_number	1
_symmetry_cell_setting	triclinic
loop_
_symmetry_equiv_pos_as_xyz
  x,y,z
_cell_length_a	19.805407
_cell_length_b	15.297510
_cell_length_c	19.805399
_cell_angle_alpha	99.651501
_cell_angle_beta	90.019573
_cell_angle_gamma	80.291109
loop_
_atom_site_label
_atom_site_type_symbol
_atom_site_fract_x
_atom_site_fract_y
_atom_site_fract_z
Zn1	Zn	0.988089	0.359189	0.429347
Zn2	Zn	1.488089	0.859189	0.929347
Zn3	Zn	0.968410	0.510058	0.335743
Zn4	Zn	1.468410	1.010058	0.835743
Zn5	Zn	0.874900	0.359214	0.316175
Zn6	Zn	1.374900	0.859214	0.816175
Zn7	Zn	0.855280	0.510010	0.448884
Zn8	Zn	1.355280	1.010010	0.948884
O9	O	0.921670	0.434618	0.382537
O10	O	1.421670	0.934618	0.882537
O11	O	1.080194	0.379212	0.416943
O12	O	1.580194	0.879212	0.916943
O13	O	0.955982	0.490079	0.238435
O14	O	1.455982	0.990079	0.738435
O15	O	0.906361	0.232963	0.314821
O16	O	1.406361	0.732963	0.814821
O17	O	1.065736	0.490055	0.348173
O18	O	1.565736	0.990055	0.848173
O19	O	0.989520	0.232945	0.397968
O20	O	1.489520	0.732945	0.897968
O21	O	0.887280	0.379254	0.224058
O22	O	1.387280	0.879254	0.724058
O23	O	0.777582	0.379208	0.333765
O24	O	1.277582	0.879208	0.833765
O25	O	0.872922	0.489973	0.541005
O26	O	1.372922	0.989973	1.041005
O27	O	0.763167	0.489997	0.431266
O28	O	1.263167	0.989997	0.931266
O29	O	0.970496	0.379166	0.526651
O30	O	1.470496	0.879166	1.026651
O31	O	0.936957	0.636300	0.367117
O32	O	1.436957	1.136300	0.867117
O33	O	0.853841	0.636265	0.450241
O34	O	1.353841	1.136265	0.950241
C35	C	0.745816	0.434601	0.382513
C36	C	1.245816	0.934601	0.882513
C37	C	0.670582	0.434615	0.382521
C38	C	1.170582	0.934615	0.882521
C39	C	0.627739	0.492390	0.433231
C40	C	1.127739	0.992390	0.933231
C41	C	0.557050	0.492392	0.433241
C42	C	1.057050	0.992392	0.933241
C43	C	0.529206	0.434622	0.382537
C44	C	1.029206	0.934622	0.882537
C45	C	0.572055	0.376841	0.331825
C46	C	1.072055	0.876841	0.831825
C47	C	0.642743	0.376835	0.331819
C48	C	1.142743	0.876835	0.831819
C49	C	0.286979	0.376861	0.331850
C50	C	0.786979	0.876861	0.831850
C51	C	0.216285	0.376873	0.331859
C52	C	0.716285	0.876873	0.831859
C53	C	0.201286	0.492417	0.433272
C54	C	0.701286	0.992417	0.933272
C55	C	0.271974	0.492412	0.433266
C56	C	0.771974	0.992412	0.933266
C57	C	0.314818	0.434627	0.382556
C58	C	0.814818	0.934627	0.882556
C59	C	0.391466	0.434625	0.382547
C60	C	0.891466	0.934625	0.882547
C61	C	0.452558	0.434628	0.382543
C62	C	0.952558	0.934628	0.882543
C63	C	0.891153	0.669017	0.412937
C64	C	1.391153	1.169017	0.912937
C65	C	0.878159	0.769294	0.425965
C66	C	1.378159	1.269294	0.925965
C67	C	1.014781	1.051906	0.289694
C68	C	1.514781	1.551906	0.789694
C69	C	1.026988	0.957691	0.277450
C70	C	1.526988	1.457691	0.777450
C71	C	0.989782	0.910587	0.314578
C72	C	1.489782	1.410587	0.814578
C73	C	0.940366	0.957708	0.363951
C74	C	1.440366	1.457708	0.863951
C75	C	0.928154	1.051932	0.376193
C76	C	1.428154	1.551932	0.876193
C77	C	0.903155	0.910613	0.401077
C78	C	1.403155	1.410613	0.901077
C79	C	0.853739	0.957734	0.450451
C80	C	1.353739	1.457734	0.950451
C81	C	0.841529	1.051949	0.462690
C82	C	1.341529	1.551949	0.962690
C83	C	0.878735	1.099053	0.425562
C84	C	1.378735	1.599053	0.925562
C85	C	0.915368	0.816389	0.388835
C86	C	1.415368	1.316389	0.888835
C87	C	0.828741	0.816415	0.475335
C88	C	1.328741	1.316415	0.975335
C89	C	0.816533	0.910630	0.487579
C90	C	1.316533	1.410630	0.987579
C91	C	1.098210	0.434636	0.382562
C92	C	1.598210	0.934636	0.882562
C93	C	1.173441	0.434644	0.382572
C94	C	1.673441	0.934644	0.882572
C95	C	0.921715	0.434561	0.559072
C96	C	1.421715	0.934561	1.059072
C97	C	0.921734	0.434537	0.634301
C98	C	1.421734	0.934537	1.134301
C99	C	0.952318	1.199304	0.352040
C100	C	1.452318	1.699304	0.852040
C101	C	0.965362	1.099027	0.339063
C102	C	1.465362	1.599027	0.839063
C103	C	0.921672	0.434610	0.206680
C104	C	1.421672	0.934610	0.706680
C105	C	0.921817	0.434380	0.131418
C106	C	1.421817	0.934380	0.631418
C107	C	0.972543	0.376837	0.662172
C108	C	1.472543	0.876837	1.162172
C109	C	0.972553	0.376810	0.732857
C110	C	1.472553	0.876810	1.232857
C111	C	0.921757	0.434490	0.775671
C112	C	1.421757	0.934490	1.275671
C113	C	0.870944	0.492193	0.747795
C114	C	1.370944	0.992193	1.247795
C115	C	0.870932	0.492214	0.677111
C116	C	1.370932	0.992214	1.177111
C117	C	0.870993	0.492109	1.032858
C118	C	1.370993	0.992109	1.532858
C119	C	0.871011	0.492085	1.103547
C120	C	1.371011	0.992085	1.603547
C121	C	0.972615	0.376705	1.088604
C122	C	1.472615	0.876705	1.588604
C123	C	0.972602	0.376726	1.017920
C124	C	1.472602	0.876726	1.517920
C125	C	0.921787	0.434426	0.990050
C126	C	1.421787	0.934426	1.490050
C127	C	0.921776	0.434452	0.913405
C128	C	1.421776	0.934452	1.413405
C129	C	0.921771	0.434469	0.852315
C130	C	1.421771	0.934469	1.352315
H131	H	0.955603	0.778031	0.348635
H132	H	1.455603	1.278031	0.848635
O133	O	0.821747	0.548213	1.145179
O134	O	1.321747	1.048213	1.645179
C135	C	0.796793	0.669958	1.240795
C136	C	1.296793	1.169958	1.740795
C137	C	0.852646	0.606466	1.193688
C138	C	1.352646	1.106466	1.693688
H139	H	0.821754	0.717058	1.280035
H140	H	1.321754	1.217058	1.780035
H141	H	0.760475	0.711265	1.208772
H142	H	1.260475	1.211265	1.708772
H143	H	0.766797	0.628503	1.268482
H144	H	1.266797	1.128503	1.768482
H145	H	0.882691	0.647851	1.165991
H146	H	1.382691	1.147851	1.665991
H147	H	0.888916	0.565155	1.225747
H148	H	1.388916	1.065155	1.725747
H149	H	0.868800	1.175770	0.435530
H150	H	1.368800	1.675770	0.935530
O151	O	0.299040	0.548622	0.482436
O152	O	0.799040	1.048622	0.982436
C153	C	0.363038	0.670391	0.507187
C154	C	0.863038	1.170391	1.007187
C155	C	0.332407	0.606808	0.451431
C156	C	0.832407	1.106808	0.951431
H157	H	0.390035	0.717438	0.482140
H158	H	0.890035	1.217438	0.982140
H159	H	0.320297	0.711751	0.543433
H160	H	0.820297	1.211751	1.043433
H161	H	0.401503	0.629004	0.537270
H162	H	0.901503	1.129004	1.037270
H163	H	0.293951	0.648125	0.421298
H164	H	0.793951	1.148125	0.921298
H165	H	0.375186	0.565446	0.415232
H166	H	0.875186	1.065446	0.915232
O167	O	1.022057	0.320743	1.115660
O168	O	1.522057	0.820743	1.615660
C169	C	1.142901	0.276920	1.131598
C170	C	1.642901	0.776920	1.631598
C171	C	1.086978	0.340363	1.100939
C172	C	1.586978	0.840363	1.600939
H173	H	1.195403	0.292748	1.119695
H174	H	1.695403	0.792748	1.619695
H175	H	1.134245	0.286810	1.189480
H176	H	1.634245	0.786810	1.689480
H177	H	1.140456	0.204184	1.108273
H178	H	1.640456	0.704184	1.608273
H179	H	1.089391	0.413124	1.124210
H180	H	1.589391	0.913124	1.624210
H181	H	1.095653	0.330396	1.043056
H182	H	1.595653	0.830396	1.543056
O183	O	1.050856	1.097801	0.253693
O184	O	1.550856	1.597801	0.753693
C185	C	1.070349	1.242947	0.234141
C186	C	1.570349	1.742947	0.734141
C187	C	1.029466	1.191083	0.274990
C188	C	1.529466	1.691083	0.774990
H189	H	1.053060	1.318374	0.251334
H190	H	1.553060	1.818374	0.751334
H191	H	1.127344	1.224447	0.243645
H192	H	1.627344	1.724447	0.743645
H193	H	1.060877	1.224405	0.177161
H194	H	1.560877	1.724405	0.677161
H195	H	1.038881	1.209597	0.331982
H196	H	1.538881	1.709597	0.831982
H197	H	0.972485	1.209587	0.265428
H198	H	1.472485	1.709587	0.765428
H199	H	0.522169	0.539439	0.474534
H200	H	1.022169	1.039439	0.974534
O201	O	1.021894	0.320633	0.759835
O202	O	1.521894	0.820633	1.259835
C203	C	1.074724	0.167163	0.761589
C204	C	1.574724	0.667163	1.261589
C205	C	1.018825	0.230689	0.730974
C206	C	1.518825	0.730689	1.230974
H207	H	1.072253	0.094429	0.738278
H208	H	1.572253	0.594429	1.238278
H209	H	1.127253	0.182947	0.749732
H210	H	1.627253	0.682947	1.249732
H211	H	1.066019	0.177089	0.819465
H212	H	1.566019	0.677089	1.319465
H213	H	1.027465	0.220798	0.673094
H214	H	1.527465	0.720798	1.173094
H215	H	0.966315	0.214889	0.742885
H216	H	1.466315	0.714889	1.242885
H217	H	0.166395	0.539464	0.474565
H218	H	0.666395	1.039464	0.974565
H219	H	0.677626	0.329784	0.290528
H220	H	1.177626	0.829784	0.790528
H221	H	0.193618	0.329824	0.290569
H222	H	0.693618	0.829824	0.790569
O223	O	0.821640	0.548400	0.650079
O224	O	1.321640	1.048400	1.150079
C225	C	0.768778	0.701867	0.648359
C226	C	1.268778	1.201867	1.148359
C227	C	0.824640	0.638338	0.679017
C228	C	1.324640	1.138338	1.179017
H229	H	0.771175	0.774594	0.671753
H230	H	1.271175	1.274594	1.171753
H231	H	0.777492	0.692049	0.590488
H232	H	1.277492	1.192049	1.090488
H233	H	0.716274	0.685977	0.660172
H234	H	1.216274	1.185977	1.160172
H235	H	0.877167	0.654189	0.667255
H236	H	1.377167	1.154189	1.167255
H237	H	0.815866	0.648168	0.736880
H238	H	1.315866	1.148168	1.236880
H239	H	0.829584	0.539153	0.782659
H240	H	1.329584	1.039153	1.282659
O241	O	0.821595	0.548230	1.005905
O242	O	1.321595	1.048230	1.505905
C243	C	0.720771	0.662601	1.028183
C244	C	1.220771	1.162601	1.528183
C245	C	0.776693	0.599111	1.058803
C246	C	1.276693	1.099111	1.558803
H247	H	0.684445	0.703741	1.070935
H248	H	1.184445	1.203741	1.570935
H249	H	0.745634	0.709856	1.001229
H250	H	1.245634	1.209856	1.501229
H251	H	0.690807	0.621152	0.989702
H252	H	1.190807	1.121152	1.489702
H253	H	0.806676	0.640487	1.097312
H254	H	1.306676	1.140487	1.597312
H255	H	0.751788	0.551853	1.085715
H256	H	1.251788	1.051853	1.585715
H257	H	0.321853	0.329816	0.290554
H258	H	0.821853	0.829816	0.790554
H259	H	0.999724	0.833873	0.304605
H260	H	1.499724	1.333873	0.804605
O261	O	0.793606	1.097820	0.510695
O262	O	1.293606	1.597820	1.010695
C263	C	0.770682	1.204085	0.615906
C264	C	1.270682	1.704085	1.115906
C265	C	0.825020	1.152212	0.561581
C266	C	1.325020	1.652212	1.061581
H267	H	0.796061	1.248059	0.657068
H268	H	1.296061	1.748059	1.157068
H269	H	0.729584	1.248321	0.590585
H270	H	1.229584	1.748321	1.090585
H271	H	0.746177	1.154219	0.640306
H272	H	1.246177	1.654219	1.140306
H273	H	0.849577	1.202013	0.537161
H274	H	1.349577	1.702013	1.037161
H275	H	0.866075	1.107962	0.586938
H276	H	1.366075	1.607962	1.086938
H277	H	0.776298	0.949009	0.527779
H278	H	1.276298	1.449009	1.027779
H279	H	0.798443	0.778063	0.505566
H280	H	1.298443	1.278063	1.005566
H281	H	0.549379	0.329800	0.290544
H282	H	1.049379	0.829800	0.790544
O283	O	1.075037	0.912061	0.229493
O284	O	1.575037	1.412061	0.729493
C285	C	1.159645	0.921984	0.144966
C286	C	1.659645	1.421984	0.644966
C287	C	1.105256	0.973773	0.199269
C288	C	1.605256	1.473773	0.699269
H289	H	1.184083	0.971855	0.120505
H290	H	1.684083	1.471855	0.620505
H291	H	1.200785	0.877834	0.170307
H292	H	1.700785	1.377834	0.670307
H293	H	1.134294	0.877910	0.103848
H294	H	1.634294	1.377910	0.603848
H295	H	1.130547	1.017895	0.240403
H296	H	1.630547	1.517895	0.740403
H297	H	1.064122	1.017865	0.173878
H298	H	1.564122	1.517865	0.673878
H299	H	1.013967	0.329761	0.983064
H300	H	1.513967	0.829761	1.483064
H301	H	0.650403	0.539436	0.474518
H302	H	1.150403	1.039436	0.974518
H303	H	1.013908	0.329870	0.627318
H304	H	1.513908	0.829870	1.127318
