data_functionalizedCrystal
_audit_creation_method	'MofGen! by Chris Wilmer'
_symmetry_space_group_name_H-M	'P1'
_symmetry_Int_Tables_number	1
_symmetry_cell_setting	triclinic
loop_
_symmetry_equiv_pos_as_xyz
  x,y,z
_cell_length_a	16.992694
_cell_length_b	15.944493
_cell_length_c	16.053802
_cell_angle_alpha	92.571009
_cell_angle_beta	87.249047
_cell_angle_gamma	87.071633
loop_
_atom_site_label
_atom_site_type_symbol
_atom_site_fract_x
_atom_site_fract_y
_atom_site_fract_z
O1	O	1.043669	0.174802	-0.069307
O2	O	0.815385	0.172846	-0.069331
O3	O	0.935785	0.051965	-0.069325
O4	O	0.923269	0.295683	-0.069313
O5	O	0.929157	0.058590	0.069533
O6	O	0.808758	0.179471	0.069527
O7	O	1.037041	0.181426	0.069552
Zn8	Zn	0.921847	0.181500	0.091586
Zn9	Zn	0.930579	0.172772	-0.091366
O10	O	0.916642	0.302307	0.069546
C11	C	0.782859	0.173645	0.000094
C12	C	0.695817	0.166144	0.000084
C13	C	0.931960	0.023948	0.000100
C14	C	0.930427	-0.069404	0.000090
C15	C	0.645566	0.238510	0.000089
C16	C	0.563779	0.231459	0.000100
C17	C	0.532246	0.152040	0.000101
C18	C	0.582503	0.079668	0.000099
C19	C	0.664288	0.086721	0.000094
C20	C	0.288652	0.122809	0.000122
C21	C	0.206861	0.115762	0.000124
C22	C	0.188143	0.267553	0.000127
C23	C	0.269929	0.274598	0.000117
C24	C	0.320179	0.202227	0.000119
N25	N	0.448648	0.144830	0.000110
N26	N	0.403776	0.209438	0.000116
C27	C	1.001296	-0.300409	0.000113
C28	C	0.966346	-0.356807	-0.068355
C29	C	0.927585	-0.240315	0.000099
C30	C	0.959795	-0.350253	0.068548
C31	C	0.924845	-0.405408	0.000113
C32	C	0.892657	-0.295486	-0.068425
C33	C	0.886114	-0.288925	0.068540
C34	C	0.851111	-0.345294	0.000055
C35	C	0.929165	-0.145209	0.000091
C36	C	0.923259	-0.500511	0.000115
C37	C	1.069567	0.180628	0.000124
C38	C	1.156610	0.188128	0.000129
C39	C	0.920467	0.330324	0.000118
C40	C	0.922000	0.423676	0.000124
N41	N	0.915894	0.187457	0.216446
N42	N	0.936538	0.166810	-0.216226
C43	C	0.967143	0.136042	0.260143
C44	C	0.962986	0.140217	0.347549
C45	C	0.907583	0.195812	0.391258
C46	C	0.856329	0.247228	0.347555
C47	C	0.860482	0.243048	0.260150
C48	C	0.889438	0.214046	0.652667
C49	C	0.885289	0.218224	0.740078
C50	C	0.991946	0.111212	0.740066
C51	C	0.996098	0.107040	0.652659
C52	C	0.944841	0.158453	0.608964
N53	N	0.903334	0.200082	0.480601
N54	N	0.949087	0.154178	0.519622
H55	H	0.522868	0.290387	0.000103
H56	H	0.295598	0.339269	0.000106
O57	O	0.676282	0.315618	0.000196
C58	C	0.754291	0.415128	0.072154
C59	C	0.719571	0.327775	0.072124
H60	H	0.789284	0.424992	0.130310
H61	H	0.794925	0.419469	0.014078
H62	H	0.704313	0.465622	0.072119
H63	H	0.769497	0.277230	0.072188
H64	H	0.678916	0.323505	0.130195
H65	H	1.041212	0.061771	0.617074
O66	O	0.337347	0.052423	0.000084
C67	C	0.347272	-0.098874	0.000133
C68	C	0.292031	-0.019228	0.000156
H69	H	0.310656	-0.156824	0.000209
H70	H	0.388784	-0.102206	-0.057992
H71	H	0.383278	-0.096548	0.058232
H72	H	0.255975	-0.021500	-0.057904
H73	H	0.250571	-0.015926	0.058320
H74	H	0.811214	0.292491	0.383148
H75	H	0.147221	0.326473	0.000127
H76	H	0.705202	0.027793	0.000090
O77	O	1.041697	0.061143	0.782422
C78	C	1.086347	-0.080530	0.809206
C79	C	1.029979	-0.023918	0.761171
H80	H	1.076881	-0.149313	0.792055
H81	H	1.149980	-0.066229	0.792000
H82	H	1.073870	-0.067952	0.879180
H83	H	1.042383	-0.036464	0.691186
H84	H	0.966363	-0.038230	0.778446
H85	H	1.004716	0.098351	0.383127
O86	O	0.176100	0.038673	0.000096
C87	C	0.058396	-0.039451	0.000157
C88	C	0.093129	0.047896	0.000170
H89	H	-0.008691	-0.032023	0.000235
H90	H	0.081800	-0.078290	-0.057966
H91	H	0.076370	-0.072707	0.058258
H92	H	0.075169	0.081223	-0.057892
H93	H	0.069727	0.086673	0.058331
H94	H	0.864311	-0.271517	-0.126372
H95	H	0.852249	-0.259289	0.126421
O96	O	0.993758	-0.378887	0.137580
C97	C	1.111298	-0.388809	0.215550
C98	C	1.072919	-0.356319	0.137354
H99	H	1.175310	-0.370591	0.215384
H100	H	1.077785	-0.359775	0.273923
H101	H	1.109220	-0.460175	0.215203
H102	H	1.074989	-0.284959	0.137621
H103	H	1.106442	-0.385417	0.079016
H104	H	0.840171	0.263499	0.775661
O105	O	0.839617	0.264077	0.610358
C106	C	0.733361	0.370626	0.619602
C107	C	0.789751	0.314025	0.667624
H108	H	0.693019	0.411011	0.665880
H109	H	0.769104	0.412983	0.578695
H110	H	0.696178	0.329736	0.578668
H111	H	0.826947	0.354850	0.708603
H112	H	0.753961	0.271663	0.708478
H113	H	1.012261	0.090775	0.224561
H114	H	1.064792	-0.280526	0.000051
H115	H	0.818749	0.284914	0.224573
O116	O	0.551843	0.002532	-0.000048
C117	C	0.473756	-0.096934	-0.071962
C118	C	0.508444	-0.009564	-0.071906
H119	H	0.438647	-0.106735	-0.130044
H120	H	0.523693	-0.147485	-0.072018
H121	H	0.433200	-0.101241	-0.013822
H122	H	0.548991	-0.005175	-0.130035
H123	H	0.458468	0.040946	-0.071806
H124	H	1.000238	-0.386426	-0.126234
H125	H	0.787570	-0.365024	0.000011
