data_functionalizedCrystal
_audit_creation_method	'MofGen! by Chris Wilmer'
_symmetry_space_group_name_H-M	'P1'
_symmetry_Int_Tables_number	1
_symmetry_cell_setting	triclinic
loop_
_symmetry_equiv_pos_as_xyz
  x,y,z
_cell_length_a	12.645331
_cell_length_b	18.050590
_cell_length_c	12.645323
_cell_angle_alpha	90.030576
_cell_angle_beta	90.022676
_cell_angle_gamma	90.017531
loop_
_atom_site_label
_atom_site_type_symbol
_atom_site_fract_x
_atom_site_fract_y
_atom_site_fract_z
Zn1	Zn	1.620725	-0.295674	0.599404
Zn2	Zn	1.620604	-0.419873	0.422127
Zn3	Zn	1.443439	-0.295699	0.422149
Zn4	Zn	1.443419	-0.419824	0.599342
O5	O	1.532047	-0.357767	0.510755
O6	O	1.769056	-0.312159	0.575905
O7	O	1.597061	-0.403432	0.273782
O8	O	1.467016	-0.191771	0.445697
O9	O	1.768967	-0.403407	0.445660
O10	O	1.597267	-0.191753	0.575926
O11	O	1.466899	-0.312202	0.273798
O12	O	1.295089	-0.312155	0.445637
O13	O	1.466981	-0.403325	0.747698
O14	O	1.295074	-0.403349	0.575820
O15	O	1.597247	-0.312112	0.747743
O16	O	1.597040	-0.523791	0.445599
O17	O	1.466863	-0.523755	0.575799
C18	C	1.256617	-0.357750	0.510725
C19	C	1.138787	-0.357760	0.510737
C20	C	0.971197	-0.300126	0.429290
C21	C	1.093757	-0.300275	0.428931
C22	C	1.094265	-0.435993	0.480211
C23	C	0.971667	-0.435678	0.479655
C24	C	0.971638	-0.337906	0.623024
C25	C	1.094244	-0.336158	0.622400
C26	C	1.531965	-0.550720	0.510713
C27	C	1.532027	-0.633265	0.510731
C28	C	1.602965	-0.832708	0.440027
C29	C	1.628865	-0.882039	0.536780
C30	C	1.532088	-0.784396	0.510773
C31	C	1.506295	-0.882147	0.414063
C32	C	1.532148	-0.930381	0.510805
C33	C	1.558037	-0.832639	0.607577
C34	C	1.435422	-0.832743	0.484795
C35	C	1.461286	-0.882051	0.581614
C36	C	1.532056	-0.700297	0.510753
C37	C	1.532179	-1.014477	0.510836
C38	C	1.808552	-0.357786	0.510787
C39	C	1.926382	-0.357793	0.510800
C40	C	1.532125	-0.357710	0.787261
C41	C	1.532158	-0.357686	0.905091
C42	C	1.532157	-0.164062	0.510821
C43	C	1.532205	-0.081516	0.510849
C44	C	1.532030	-0.357771	0.235326
C45	C	1.532202	-0.357586	0.117496
C46	C	1.449955	-0.414797	1.072626
C47	C	1.450170	-0.415080	0.950066
C48	C	1.643857	-0.378927	0.949608
C49	C	1.643406	-0.379285	1.072206
C50	C	1.503718	-0.279014	1.072300
C51	C	1.501226	-0.279485	0.949693
H52	H	0.940743	-0.281854	0.650783
H53	H	1.710639	-0.903694	0.558773
C54	C	1.576228	-0.218851	0.908315
N55	N	1.632722	-0.173182	0.877142
H56	H	1.706765	-0.339424	1.101890
H57	H	0.942021	-0.480100	0.536434
C58	C	1.380343	-0.911136	0.662548
N59	N	1.319381	-0.933043	0.723510
C60	C	1.390198	-0.257826	0.910341
N61	N	1.306579	-0.241508	0.880680
H62	H	1.124901	-0.375097	0.686380
C63	C	1.324986	-0.803455	0.455038
N64	N	1.241807	-0.781392	0.432612
C65	C	1.728868	-0.324418	0.910250
N66	N	1.792898	-0.283361	0.880603
C67	C	1.476785	-0.911520	0.303556
N68	N	1.454565	-0.933641	0.220319
H69	H	1.367341	-0.401788	0.919966
H70	H	1.366880	-0.401633	1.102102
C71	C	1.584649	-0.221431	1.111500
N72	N	1.645610	-0.178065	1.141030
C73	C	1.677032	-0.455713	0.908146
N74	N	1.702013	-0.513550	0.876920
C75	C	1.395591	-0.252861	1.114042
N76	N	1.314144	-0.233172	1.145481
C77	C	1.133683	-0.495595	0.557884
N78	N	1.163380	-0.540487	0.616386
H79	H	0.942658	-0.379908	0.683756
H80	H	1.468575	-0.472682	1.103437
H81	H	1.468973	-0.473329	0.920744
H82	H	1.123859	-0.242262	0.448066
C83	C	0.932964	-0.458454	0.368817
N84	N	0.903819	-0.475605	0.285330
C85	C	1.133550	-0.258377	0.653492
N86	N	1.163158	-0.199791	0.676906
H87	H	0.941734	-0.241938	0.448220
H88	H	1.124920	-0.453148	0.399050
H89	H	0.940349	-0.313125	0.346618
C90	C	1.133314	-0.318037	0.316584
N91	N	1.163108	-0.331419	0.231959
H92	H	1.667550	-0.436723	1.100809
C93	C	1.587679	-0.803388	0.718115
N94	N	1.610009	-0.781354	0.801369
C95	C	1.683966	-0.803428	0.359293
N96	N	1.744978	-0.781371	0.298492
