data_functionalizedCrystal
_audit_creation_method	'MofGen! by Chris Wilmer'
_symmetry_space_group_name_H-M	'P1'
_symmetry_Int_Tables_number	1
_symmetry_cell_setting	triclinic
loop_
_symmetry_equiv_pos_as_xyz
  x,y,z
_cell_length_a	27.732048
_cell_length_b	10.654550
_cell_length_c	9.730223
_cell_angle_alpha	90.000510
_cell_angle_beta	89.990889
_cell_angle_gamma	96.436207
loop_
_atom_site_label
_atom_site_type_symbol
_atom_site_fract_x
_atom_site_fract_y
_atom_site_fract_z
O1	O	0.067886	-1.664986	-0.114204
O2	O	0.074353	-1.299236	-0.114231
O3	O	0.000794	-1.493470	-0.114191
O4	O	0.141445	-1.470752	-0.114245
O5	O	0.000792	-1.493456	0.114389
O6	O	0.074352	-1.299222	0.114349
O7	O	0.067884	-1.664972	0.114376
Zn8	Zn	0.071118	-1.482095	0.150654
Zn9	Zn	0.071120	-1.482113	-0.150509
O10	O	0.141444	-1.470737	0.114335
C11	C	-0.017217	-1.492986	0.000103
C12	C	-0.070881	-1.491550	0.000114
C13	C	0.073878	-1.252451	0.000056
C14	C	0.072457	-1.113067	0.000047
C15	C	0.068360	-1.711757	0.000086
C16	C	0.069781	-1.851141	0.000086
C17	C	-0.409038	-1.597290	0.000052
C18	C	-0.610730	-1.591962	0.000032
O19	O	-0.641384	-1.688653	-0.000021
N20	N	-0.630571	-1.476789	0.000025
C21	C	-0.599986	-1.362940	0.000014
O22	O	-0.621490	-1.264855	-0.000007
C23	C	-0.398294	-1.368269	0.000023
C24	C	-0.378456	-1.483449	0.000044
C25	C	-0.389199	-1.712461	0.000071
C26	C	-0.338779	-1.713792	0.000084
C27	C	-0.308197	-1.599951	0.000076
C28	C	-0.328036	-1.484780	0.000057
C29	C	-0.367709	-1.254421	0.000002
C30	C	-0.317284	-1.255764	0.000001
C31	C	-0.297446	-1.370944	0.000022
C32	C	-0.247034	-1.372271	0.000062
N33	N	-0.227193	-1.487444	0.000069
C34	C	-0.257774	-1.601284	0.000076
C35	C	-0.705877	-1.360150	0.000011
C36	C	-0.756300	-1.358817	0.000011
C37	C	-0.767041	-1.587840	0.000027
C38	C	-0.716617	-1.589171	0.000037
C39	C	-0.686036	-1.475323	0.000018
C40	C	-0.151888	-1.604070	0.000104
C41	C	-0.101463	-1.605391	0.000122
C42	C	-0.090726	-1.376369	0.000098
C43	C	-0.141147	-1.375047	0.000088
C44	C	-0.171727	-1.488908	0.000086
O45	O	-0.216352	-1.275631	0.000100
O46	O	-0.236261	-1.699354	0.000067
C47	C	-0.459458	-1.595959	0.000039
C48	C	-0.479296	-1.480788	0.000020
C49	C	-0.448715	-1.366947	0.000012
C50	C	-0.529719	-1.479455	0.000020
C51	C	-0.560301	-1.593296	0.000027
C52	C	-0.540460	-1.708469	0.000034
C53	C	-0.490040	-1.709799	0.000046
C54	C	-0.468556	-1.251774	0.000005
C55	C	-0.518976	-1.250453	-0.000005
C56	C	-0.549558	-1.364293	0.000002
C57	C	0.159455	-1.471221	0.000039
C58	C	0.213118	-1.472657	0.000018
N59	N	0.071116	-1.482091	0.356191
C60	C	0.115768	-1.031761	0.000034
C61	C	0.114430	-0.900796	0.000059
C62	C	0.026466	-0.932457	0.000103
C63	C	0.027805	-1.063419	0.000088
C64	C	0.038558	-1.568126	0.428135
C65	C	0.038558	-1.568138	0.572018
C66	C	0.103679	-1.396075	0.572000
C67	C	0.103676	-1.396058	0.428120
N68	N	0.071119	-1.482119	0.643954
H69	H	-0.085314	-1.699189	0.000142
O70	O	-0.538300	-1.138636	-0.000210
C71	C	-0.567122	-1.131011	-0.118626
H72	H	-0.579341	-1.230236	-0.158074
H73	H	-0.600306	-1.081592	-0.092028
H74	H	-0.545027	-1.075038	-0.201526
H75	H	-0.176781	-1.696787	0.000096
O76	O	-0.796772	-1.698394	-0.000220
C77	C	-0.826259	-1.704439	-0.118593
H78	H	-0.808005	-1.639856	-0.201326
H79	H	-0.831584	-1.805697	-0.158342
H80	H	-0.863030	-1.672655	-0.091831
H81	H	0.012045	-1.638193	0.630590
O82	O	-0.386947	-1.142499	-0.000271
C83	C	-0.371333	-1.073181	-0.118651
H84	H	-0.360615	-1.140573	-0.201375
H85	H	-0.402047	-1.020349	-0.158409
H86	H	-0.338711	-1.002569	-0.091896
O87	O	0.006954	-1.651588	0.358049
C88	C	0.013912	-1.633082	0.215627
H89	H	0.052181	-1.585471	0.195935
H90	H	0.008837	-1.728256	0.160905
H91	H	-0.013654	-1.570557	0.174877
O92	O	-0.438922	-1.141069	0.000068
C93	C	-0.467252	-1.039142	0.000023
H94	H	-0.504773	-1.071779	0.043284
H95	H	-0.448938	-0.959435	0.066394
H96	H	-0.470954	-1.003791	-0.109639
O97	O	-0.418952	-1.822973	0.000263
C98	C	-0.448436	-1.829070	0.118667
H99	H	-0.451335	-1.729449	0.158121
H100	H	-0.486163	-1.876619	0.092053
H101	H	-0.431653	-1.886072	0.201571
H102	H	-0.322632	-1.807584	0.000095
O103	O	0.156489	-0.821763	0.000281
C104	C	0.158345	-0.745051	0.118655
H105	H	0.133793	-0.793507	0.201411
H106	H	0.197230	-0.729568	0.158365
H107	H	0.145514	-0.650047	0.091912
O108	O	-0.676243	-1.249434	0.000066
C109	C	-0.704574	-1.147508	0.000030
H110	H	-0.742094	-1.180146	0.043302
H111	H	-0.686258	-1.067800	0.066395
H112	H	-0.708280	-1.112158	-0.109631
O113	O	-0.697429	-1.701167	-0.000017
C114	C	-0.735239	-1.801350	0.000028
H115	H	-0.769604	-1.766821	-0.043242
H116	H	-0.724430	-1.881829	-0.066334
H117	H	-0.742259	-1.836413	0.109692
H118	H	0.152126	-1.072179	0.000011
H119	H	-0.157299	-1.281258	0.000109
O120	O	-0.470716	-1.821608	-0.000128
C121	C	-0.441875	-1.829262	-0.118527
H122	H	-0.429647	-1.730046	-0.157998
H123	H	-0.408697	-1.878679	-0.091898
H124	H	-0.463957	-1.885250	-0.201422
H125	H	-0.009888	-0.892018	0.000145
H126	H	0.130190	-1.326030	0.630579
O127	O	-0.775624	-1.247009	-0.000179
C128	C	-0.804451	-1.239375	-0.118584
H129	H	-0.816672	-1.338597	-0.158040
H130	H	-0.837634	-1.189959	-0.091969
H131	H	-0.782360	-1.183395	-0.201486
H132	H	-0.007466	-1.129623	0.000102
O133	O	0.135352	-1.312431	0.358437
C134	C	0.164086	-1.236487	0.452773
H135	H	0.164822	-1.287965	0.555329
H136	H	0.202615	-1.216567	0.411172
H137	H	0.148057	-1.143518	0.468100
H138	H	-0.065817	-1.283683	0.000097
H139	H	-0.292386	-1.163052	-0.000016
H140	H	-0.565368	-1.801162	0.000046
