data_functionalizedCrystal
_audit_creation_method	'MofGen! by Chris Wilmer'
_symmetry_space_group_name_H-M	'P1'
_symmetry_Int_Tables_number	1
_symmetry_cell_setting	triclinic
loop_
_symmetry_equiv_pos_as_xyz
  x,y,z
_cell_length_a	12.827893
_cell_length_b	12.759400
_cell_length_c	12.827885
_cell_angle_alpha	90.027857
_cell_angle_beta	90.019272
_cell_angle_gamma	90.014444
loop_
_atom_site_label
_atom_site_type_symbol
_atom_site_fract_x
_atom_site_fract_y
_atom_site_fract_z
Zn1	Zn	1.597678	-0.418211	0.590863
Zn2	Zn	1.597575	-0.593926	0.416129
Zn3	Zn	1.422919	-0.418263	0.416136
Zn4	Zn	1.422908	-0.593849	0.590829
O5	O	1.510270	-0.506062	0.503489
O6	O	1.743900	-0.441531	0.567695
O7	O	1.574368	-0.570678	0.269894
O8	O	1.446149	-0.271235	0.439331
O9	O	1.743825	-0.570628	0.439319
O10	O	1.574543	-0.271197	0.567702
O11	O	1.446049	-0.441619	0.269899
O12	O	1.276682	-0.441544	0.439299
O13	O	1.446129	-0.570496	0.737069
O14	O	1.276673	-0.570546	0.567644
O15	O	1.574532	-0.441456	0.737094
O16	O	1.574357	-0.740937	0.439286
O17	O	1.446030	-0.740880	0.567637
C18	C	1.238760	-0.506043	0.503469
C19	C	1.122607	-0.506060	0.503486
C20	C	1.510210	-0.779030	0.503480
C21	C	1.510280	-0.895806	0.503511
C22	C	1.070859	-0.442292	0.567109
C23	C	0.950809	-0.442308	0.567127
C24	C	1.443445	-0.950677	0.570291
C25	C	1.443501	-1.060401	0.570300
C26	C	1.577234	-1.060374	0.436748
C27	C	1.577172	-0.950652	0.436734
C28	C	1.376553	-0.895831	0.637068
C29	C	1.309713	-0.950702	0.703854
C30	C	1.309769	-1.060426	0.703864
C31	C	1.376663	-1.115279	0.637088
C32	C	1.782840	-0.506082	0.503510
C33	C	1.898993	-0.506091	0.503519
C34	C	1.510341	-0.505961	0.776059
C35	C	1.510371	-0.505918	0.892213
C36	C	1.510359	-0.232029	0.503521
C37	C	1.510397	-0.115252	0.503535
C38	C	1.510259	-0.506087	0.231979
C39	C	1.510431	-0.505834	0.115827
C40	C	1.573916	-0.442053	0.944010
C41	C	1.573949	-0.442007	1.064060
H42	H	1.115433	-0.387682	0.621562
H43	H	1.628291	-0.387405	0.899478
H44	H	0.906307	-0.387717	0.621601
O45	O	1.645997	-0.369562	1.123064
H46	H	1.699113	-0.416605	1.172804
H47	H	1.255339	-1.105098	0.758238
H48	H	1.376700	-1.204624	0.637098
O49	O	1.438350	-0.578248	1.056827
H50	H	1.356332	-0.560219	1.077721
H51	H	1.631594	-0.905976	0.382354
H52	H	1.455986	-0.560555	0.936744
H53	H	1.078033	-0.560664	0.449026
O54	O	0.957924	-0.578408	0.431350
H55	H	1.007677	-0.631862	0.478065
O56	O	1.649410	-1.119530	0.364757
H57	H	1.638239	-1.205045	0.376001
O58	O	1.376456	-0.777487	0.637045
H59	H	1.397507	-0.748478	0.715878
O60	O	1.237564	-0.891548	0.775874
H61	H	1.248759	-0.806033	0.764657
