data_functionalizedCrystal
_audit_creation_method	'MofGen! by Chris Wilmer'
_symmetry_space_group_name_H-M	'P1'
_symmetry_Int_Tables_number	1
_symmetry_cell_setting	triclinic
loop_
_symmetry_equiv_pos_as_xyz
  x,y,z
_cell_length_a	13.635800
_cell_length_b	15.866870
_cell_length_c	11.102300
_cell_angle_alpha	69.483702
_cell_angle_beta	108.605850
_cell_angle_gamma	77.344085
loop_
_atom_site_label
_atom_site_type_symbol
_atom_site_fract_x
_atom_site_fract_y
_atom_site_fract_z
V1	V	2.060043	-0.132635	0.458392
O2	O	2.035076	0.006374	0.385727
O3	O	2.052635	-0.262993	0.516752
O4	O	2.048367	-0.130595	0.630258
O5	O	2.039373	-0.126941	0.271435
V6	V	2.298058	-0.116008	0.428561
O7	O	2.198890	-0.169108	0.523831
O8	O	2.384309	-0.079535	0.363122
O9	O	2.193862	0.014350	0.370201
O10	O	2.381723	-0.255017	0.501226
O11	O	2.377426	-0.121702	0.615517
O12	O	2.198130	-0.118048	0.256695
V13	V	2.560043	-0.132635	0.458392
O14	O	2.535076	0.006374	0.385727
O15	O	2.552635	-0.262993	0.516752
O16	O	2.548367	-0.130595	0.630258
O17	O	2.539373	-0.126941	0.271435
V18	V	2.798058	-0.116008	0.428561
O19	O	2.698890	-0.169108	0.523831
O20	O	2.884309	-0.079535	0.363122
O21	O	2.693862	0.014350	0.370201
O22	O	2.881723	-0.255017	0.501226
O23	O	2.877426	-0.121702	0.615517
O24	O	2.698130	-0.118048	0.256695
C25	C	1.978816	-0.294772	0.525388
C26	C	2.013486	-0.401341	0.574249
C27	C	1.974908	-0.683426	0.121019
C28	C	2.007494	-0.783569	0.166974
C29	C	2.068536	-0.810921	0.412551
C30	C	2.035950	-0.710778	0.366616
C31	C	1.989138	-0.647038	0.220849
C32	C	2.050180	-0.674390	0.466446
C33	C	2.017601	-0.574257	0.420514
C34	C	1.970793	-0.510510	0.274753
C35	C	1.956559	-0.546904	0.174917
C36	C	2.096999	-0.738133	0.612214
C37	C	2.111229	-0.701745	0.712043
C38	C	2.078643	-0.601609	0.666112
C39	C	2.031835	-0.537863	0.520351
C40	C	2.092877	-0.565216	0.765948
C41	C	2.060298	-0.465082	0.720017
C42	C	1.999256	-0.437729	0.474419
C43	C	1.973371	-0.125883	0.670174
C44	C	2.004578	-0.125078	0.811079
C45	C	2.099353	0.046124	0.361564
C46	C	2.054302	0.152692	0.312712
C47	C	2.104797	-0.122763	0.216774
C48	C	2.063209	-0.123564	0.075866
C49	C	2.478816	-0.294772	0.525388
C50	C	2.513486	-0.401341	0.574249
C51	C	2.473371	-0.125883	0.670174
C52	C	2.504578	-0.125078	0.811079
C53	C	2.111399	-0.129487	0.885993
C54	C	2.140714	-0.128727	1.018385
C55	C	1.956378	-0.119151	1.000939
C56	C	1.927062	-0.119905	0.868545
C57	C	2.599353	0.046124	0.361564
C58	C	2.554302	0.152692	0.312712
C59	C	2.604797	-0.122763	0.216774
C60	C	2.563209	-0.123564	0.075866
C61	C	2.621943	-0.456276	0.605834
C62	C	2.654539	-0.556412	0.651766
C63	C	2.578674	-0.601611	0.666101
C64	C	2.470209	-0.546670	0.634515
C65	C	2.437617	-0.446537	0.588595
C66	C	2.618340	0.207626	0.281130
C67	C	2.576016	0.307762	0.235205
C68	C	2.469658	0.352961	0.220873
C69	C	2.405616	0.298020	0.252455
C70	C	2.447936	0.197887	0.298369
C71	C	2.611399	-0.129487	0.885993
C72	C	2.640714	-0.128727	1.018385
C73	C	2.456378	-0.119151	1.000939
C74	C	2.427062	-0.119905	0.868545
H75	H	1.961121	-0.385826	0.355719
H76	H	2.727695	-0.132316	1.079375
H77	H	2.674519	-0.133697	0.839208
F78	F	2.161055	-0.769592	0.867176
H79	H	2.131004	-0.617128	0.884633
H80	H	1.840069	-0.116307	0.807541
F81	F	1.873891	-0.113656	1.062117
H82	H	2.704945	0.170839	0.292793
F83	F	2.193898	-0.134988	0.824835
H84	H	2.393272	-0.114942	1.047746
H85	H	2.106658	-0.862832	0.531236
H86	H	2.340069	-0.116307	0.807541
F87	F	2.644192	0.366215	0.201604
H88	H	2.742859	-0.601131	0.677473
F89	F	2.702705	-0.408191	0.590596
H90	H	1.944271	-0.428976	0.237359
H91	H	1.918424	-0.495001	0.056217
H92	H	2.605227	-0.683147	0.703493
H93	H	2.408448	-0.583486	0.646194
H94	H	2.227695	-0.132316	1.079375
F95	F	2.379769	0.139432	0.331981
F96	F	1.925070	-0.615582	-0.034126
H97	H	2.435211	0.434496	0.183485
H98	H	1.995899	-0.813189	0.085669
H99	H	2.349299	-0.401815	0.562873
F100	F	2.075449	-0.426353	0.826267
H101	H	2.123526	-0.819668	0.649606
F102	F	2.292419	0.346139	0.237187
