data_functionalizedCrystal
_audit_creation_method	'MofGen! by Chris Wilmer'
_symmetry_space_group_name_H-M	'P1'
_symmetry_Int_Tables_number	1
_symmetry_cell_setting	triclinic
loop_
_symmetry_equiv_pos_as_xyz
  x,y,z
_cell_length_a	16.625548
_cell_length_b	21.295417
_cell_length_c	21.295412
_cell_angle_alpha	90.030668
_cell_angle_beta	90.023476
_cell_angle_gamma	90.031575
loop_
_atom_site_label
_atom_site_type_symbol
_atom_site_fract_x
_atom_site_fract_y
_atom_site_fract_z
Zn1	Zn	1.232659	-0.250607	0.355911
Zn2	Zn	1.565992	0.082726	0.689244
Zn3	Zn	1.899325	0.416060	1.022577
Zn4	Zn	1.232536	-0.355875	0.250636
Zn5	Zn	1.565869	-0.022542	0.583970
Zn6	Zn	1.899203	0.310791	0.917303
Zn7	Zn	1.097814	-0.250626	0.250656
Zn8	Zn	1.431147	0.082707	0.583989
Zn9	Zn	1.764480	0.416041	0.917323
Zn10	Zn	1.097772	-0.355844	0.355868
Zn11	Zn	1.431105	-0.022511	0.689201
Zn12	Zn	1.764439	0.310822	1.022535
O13	O	1.165195	-0.303238	0.303268
O14	O	1.498528	0.030095	0.636601
O15	O	1.831862	0.363429	0.969934
O16	O	1.345475	-0.264576	0.341956
O17	O	1.678808	0.068757	0.675289
O18	O	2.012141	0.402091	1.008622
O19	O	1.214631	-0.341935	0.162549
O20	O	1.547964	-0.008601	0.495883
O21	O	1.881298	0.324732	0.829216
O22	O	1.115770	-0.162534	0.264644
O23	O	1.449103	0.170799	0.597978
O24	O	1.782436	0.504133	0.931311
O25	O	1.345385	-0.341916	0.264611
O26	O	1.678718	-0.008583	0.597944
O27	O	2.012051	0.324750	0.931277
O28	O	1.214840	-0.162520	0.341975
O29	O	1.548173	0.170813	0.675308
O30	O	1.881506	0.504147	1.008641
O31	O	1.115651	-0.264609	0.162564
O32	O	1.448984	0.068725	0.495897
O33	O	1.782318	0.402058	0.829231
O34	O	0.984976	-0.264578	0.264603
O35	O	1.318309	0.068755	0.597936
O36	O	1.651642	0.402088	0.931269
O37	O	1.115699	-0.341863	0.443963
O38	O	1.449032	-0.008530	0.777296
O39	O	1.782365	0.324803	1.110630
O40	O	0.984945	-0.341882	0.341902
O41	O	1.318278	-0.008548	0.675235
O42	O	1.651612	0.324785	1.008568
O43	O	1.214799	-0.264546	0.443995
O44	O	1.548133	0.068787	0.777328
O45	O	1.881466	0.402121	1.110661
O46	O	1.214591	-0.443961	0.264569
O47	O	1.547924	-0.110627	0.597903
O48	O	1.881257	0.222706	0.931236
O49	O	1.115580	-0.443938	0.341883
O50	O	1.448913	-0.110604	0.675216
O51	O	1.782247	0.222729	1.008549
C52	C	0.955704	-0.303229	0.303250
C53	C	1.289037	0.030104	0.636583
C54	C	1.622371	0.363438	0.969917
C55	C	0.866083	-0.303240	0.303258
C56	C	1.199416	0.030093	0.636591
C57	C	1.532750	0.363426	0.969924
C58	C	0.537907	-0.303245	0.303284
C59	C	0.871241	0.030089	0.636618
C60	C	1.204574	0.363422	0.969951
C61	C	0.629216	-0.303242	0.303275
C62	C	0.962549	0.030092	0.636608
C63	C	1.295883	0.363425	0.969942
C64	C	0.701992	-0.303243	0.303270
C65	C	1.035326	0.030091	0.636604
C66	C	1.368659	0.363424	0.969937
C67	C	0.793307	-0.303239	0.303262
C68	C	1.126640	0.030094	0.636595
C69	C	1.459973	0.363427	0.969929
C70	C	1.165089	-0.466790	0.303233
C71	C	1.498423	-0.133456	0.636566
C72	C	1.831756	0.199877	0.969900
C73	C	1.165118	-0.536758	0.303239
C74	C	1.498451	-0.203425	0.636572
C75	C	1.831784	0.129909	0.969906
C76	C	1.216718	-0.569616	0.263023
C77	C	1.550052	-0.236282	0.596357
C78	C	1.883385	0.097051	0.929690
C79	C	1.216756	-0.635358	0.263037
C80	C	1.550090	-0.302025	0.596371
C81	C	1.883423	0.031309	0.929704
C82	C	1.165179	-0.668240	0.303261
C83	C	1.498512	-0.334907	0.636594
C84	C	1.831846	-0.001574	0.969927
C85	C	1.113575	-0.635375	0.343484
C86	C	1.446908	-0.302041	0.676818
C87	C	1.780241	0.031292	1.010151
C88	C	1.113544	-0.569633	0.343473
C89	C	1.446877	-0.236300	0.676807
C90	C	1.780211	0.097033	1.010140
N91	N	1.094644	-0.771507	0.308054
N92	N	1.427978	-0.438174	0.641387
N93	N	1.761311	-0.104841	0.974720
N94	N	1.094676	-0.833959	0.308060
N95	N	1.428009	-0.500625	0.641394
N96	N	1.761342	-0.167292	0.974727
C97	C	1.165269	-0.866315	0.303297
C98	C	1.498603	-0.532982	0.636630
C99	C	1.831936	-0.199648	0.969963
N100	N	1.235832	-0.833861	0.298514
N101	N	1.569165	-0.500527	0.631847
N102	N	1.902499	-0.167194	0.965181
N103	N	1.235800	-0.771403	0.298504
N104	N	1.569133	-0.438070	0.631837
N105	N	1.902466	-0.104737	0.965171
C106	C	1.165207	-0.739526	0.303277
C107	C	1.498540	-0.406192	0.636611
C108	C	1.831873	-0.072859	0.969944
C109	C	1.216915	-0.970458	0.263094
C110	C	1.550249	-0.637125	0.596428
C111	C	1.883582	-0.303792	0.929761
C112	C	1.216954	-1.036202	0.263113
C113	C	1.550288	-0.702869	0.596446
C114	C	1.883621	-0.369535	0.929779
C115	C	1.113766	-1.036217	0.343556
C116	C	1.447099	-0.702884	0.676890
C117	C	1.780432	-0.369551	1.010223
C118	C	1.113734	-0.970475	0.343541
C119	C	1.447067	-0.637142	0.676874
C120	C	1.780400	-0.303808	1.010208
C121	C	1.165307	-0.937599	0.303307
C122	C	1.498641	-0.604266	0.636640
C123	C	1.831974	-0.270933	0.969973
C124	C	1.375504	-0.303248	0.303286
C125	C	1.708837	0.030086	0.636619
C126	C	2.042171	0.363419	0.969952
C127	C	1.465125	-0.303252	0.303293
C128	C	1.798458	0.030082	0.636627
C129	C	2.131792	0.363415	0.969960
C130	C	1.165258	-0.303199	0.467458
C131	C	1.498591	0.030134	0.800791
C132	C	1.831925	0.363468	1.134125
C133	C	1.165285	-0.303182	0.537426
C134	C	1.498618	0.030151	0.870759
C135	C	1.831952	0.363484	1.204093
C136	C	1.165323	-0.139048	0.303316
C137	C	1.498656	0.194286	0.636650
C138	C	1.831990	0.527619	0.969983
C139	C	1.165378	-0.069080	0.303337
C140	C	1.498711	0.264254	0.636671
C141	C	1.832044	0.597587	0.970004
C142	C	1.165179	-0.303232	0.139716
C143	C	1.498512	0.030102	0.473049
C144	C	1.831845	0.363435	0.806383
C145	C	1.165308	-0.303071	0.069748
C146	C	1.498641	0.030262	0.403082
C147	C	1.831975	0.363596	0.736415
C148	C	1.113760	-0.262914	0.570290
C149	C	1.447093	0.070419	0.903624
C150	C	1.780426	0.403753	1.236957
C151	C	1.113757	-0.262902	0.636033
C152	C	1.447090	0.070431	0.969366
C153	C	1.780424	0.403764	1.302700
C154	C	1.165294	-0.303152	0.668909
C155	C	1.498627	0.030181	1.002242
C156	C	1.831960	0.363514	1.335575
C157	C	1.216822	-0.343428	0.636037
C158	C	1.550156	-0.010095	0.969370
C159	C	1.883489	0.323238	1.302703
C160	C	1.216818	-0.343443	0.570295
C161	C	1.550151	-0.010110	0.903629
C162	C	1.883485	0.323223	1.236962
N163	N	1.235876	-0.307959	0.772147
N164	N	1.569210	0.025375	1.105480
N165	N	1.902543	0.358708	1.438814
N166	N	1.235878	-0.307941	0.834598
N167	N	1.569211	0.025392	1.167932
N168	N	1.902545	0.358726	1.501265
C169	C	1.165309	-0.303110	0.866984
C170	C	1.498642	0.030223	1.200317
C171	C	1.831975	0.363556	1.533650
N172	N	1.094736	-0.298286	0.834558
N173	N	1.428069	0.035047	1.167891
N174	N	1.761402	0.368380	1.501225
N175	N	1.094735	-0.298301	0.772101
N176	N	1.428068	0.035032	1.105434
N177	N	1.761401	0.368366	1.438767
C178	C	1.165304	-0.303141	0.740194
C179	C	1.498637	0.030193	1.073527
C180	C	1.831970	0.363526	1.406861
C181	C	1.113776	-0.262827	0.971133
C182	C	1.447109	0.070506	1.304467
C183	C	1.780443	0.403840	1.637800
C184	C	1.113772	-0.262820	1.036877
C185	C	1.447105	0.070513	1.370211
C186	C	1.780438	0.403847	1.703544
C187	C	1.216844	-0.343343	1.036879
C188	C	1.550178	-0.010009	1.370213
C189	C	1.883511	0.323324	1.703546
C190	C	1.216841	-0.343353	0.971137
C191	C	1.550175	-0.010020	1.304470
C192	C	1.883508	0.323313	1.637804
C193	C	1.165308	-0.303092	0.938268
C194	C	1.498642	0.030241	1.271601
C195	C	1.831975	0.363574	1.604935
H196	H	1.258779	-0.662116	0.230289
H197	H	1.592112	-0.328783	0.563622
H198	H	1.925445	0.004551	0.896956
N199	N	1.061104	-0.221805	0.536715
N200	N	1.394437	0.111528	0.870048
N201	N	1.727770	0.444861	1.203382
N202	N	1.009702	-0.243963	0.500013
N203	N	1.343035	0.089370	0.833347
N204	N	1.676368	0.422703	1.166680
H205	H	0.972511	-0.214932	0.476299
H206	H	1.305844	0.118401	0.809632
H207	H	1.639177	0.451734	1.142965
H208	H	1.258780	-0.376234	0.543537
H209	H	1.592113	-0.042901	0.876871
H210	H	1.925446	0.290433	1.210204
N211	N	1.060900	-0.668970	0.384571
N212	N	1.394233	-0.335636	0.717905
N213	N	1.727566	-0.002303	1.051238
N214	N	1.060933	-0.727667	0.384576
N215	N	1.394266	-0.394333	0.717909
N216	N	1.727599	-0.061000	1.051242
H217	H	1.023732	-0.751394	0.413597
H218	H	1.357065	-0.418060	0.746930
H219	H	1.690399	-0.084727	1.080263
N220	N	1.060830	-0.536077	0.384561
N221	N	1.394164	-0.202743	0.717894
N222	N	1.727497	0.130590	1.051228
N223	N	1.014787	-0.565439	0.420477
N224	N	1.348120	-0.232106	0.753811
N225	N	1.681453	0.101227	1.087144
H226	H	0.977556	-0.541739	0.449496
H227	H	1.310889	-0.208406	0.782829
H228	H	1.644222	0.124927	1.116163
H229	H	1.258715	-0.542850	0.230263
H230	H	1.592048	-0.209517	0.563597
H231	H	1.925381	0.123817	0.896930
H232	H	1.071712	-0.943720	0.376286
H233	H	1.405046	-0.610387	0.709619
H234	H	1.738379	-0.277054	1.042953
N235	N	1.269496	-0.384481	0.937577
N236	N	1.602829	-0.051148	1.270910
N237	N	1.936163	0.282186	1.604243
N238	N	1.343900	-0.380303	0.944948
N239	N	1.677233	-0.046970	1.278282
N240	N	2.010567	0.286363	1.611615
H241	H	1.381091	-0.409353	0.921249
H242	H	1.714424	-0.076020	1.254582
H243	H	2.047758	0.257314	1.587915
H244	H	1.258912	-0.943690	0.230335
H245	H	1.592246	-0.610356	0.563668
H246	H	1.925579	-0.277023	0.897001
N247	N	1.061138	-0.221755	0.669613
N248	N	1.394472	0.111578	1.002946
N249	N	1.727805	0.444911	1.336280
N250	N	1.089555	-0.181638	0.706315
N251	N	1.422888	0.151695	1.039648
N252	N	1.756222	0.485028	1.372981
H253	H	1.052395	-0.152577	0.730029
H254	H	1.385728	0.180756	1.063363
H255	H	1.719062	0.514090	1.396696
H256	H	1.071808	-0.230030	1.063634
H257	H	1.405141	0.103303	1.396968
H258	H	1.738474	0.436636	1.730301
H259	H	1.258808	-0.376114	1.063646
H260	H	1.592142	-0.042781	1.396980
H261	H	1.925475	0.290553	1.730313
N262	N	1.061130	-0.221719	0.937544
N263	N	1.394464	0.111615	1.270877
N264	N	1.727797	0.444948	1.604211
N265	N	1.061134	-0.221736	0.878847
N266	N	1.394467	0.111597	1.212180
N267	N	1.727800	0.444930	1.545514
H268	H	1.023952	-0.192704	0.855125
H269	H	1.357285	0.140629	1.188458
H270	H	1.690618	0.473962	1.521791
N271	N	1.269681	-1.069758	0.222034
N272	N	1.603015	-0.736424	0.555368
N273	N	1.936348	-0.403091	0.888701
N274	N	1.315725	-1.040393	0.186120
N275	N	1.649058	-0.707060	0.519453
N276	N	1.982392	-0.373727	0.852786
H277	H	1.352966	-1.064092	0.157108
H278	H	1.686300	-0.730759	0.490441
H279	H	2.019633	-0.397426	0.823775
H280	H	1.071774	-1.062989	0.376310
H281	H	1.405107	-0.729656	0.709643
H282	H	1.738441	-0.396323	1.042977
H283	H	1.258784	-0.376200	0.662808
H284	H	1.592117	-0.042867	0.996141
H285	H	1.925450	0.290466	1.329475
