data_functionalizedCrystal
_audit_creation_method	'MofGen! by Chris Wilmer'
_symmetry_space_group_name_H-M	'P1'
_symmetry_Int_Tables_number	1
_symmetry_cell_setting	triclinic
loop_
_symmetry_equiv_pos_as_xyz
  x,y,z
_cell_length_a	12.759401
_cell_length_b	16.959453
_cell_length_c	12.759393
_cell_angle_alpha	89.965525
_cell_angle_beta	89.980324
_cell_angle_gamma	90.023153
loop_
_atom_site_label
_atom_site_type_symbol
_atom_site_fract_x
_atom_site_fract_y
_atom_site_fract_z
Zn1	Zn	1.606208	-0.314634	-0.593956
Zn2	Zn	1.606074	-0.446833	-0.418264
Zn3	Zn	1.430506	-0.314674	-0.418295
Zn4	Zn	1.430474	-0.446776	-0.593905
O5	O	1.518316	-0.380729	-0.506105
O6	O	1.753211	-0.332178	-0.570658
O7	O	1.582743	-0.429343	-0.271247
O8	O	1.453883	-0.204058	-0.441631
O9	O	1.753113	-0.429305	-0.441578
O10	O	1.582970	-0.204029	-0.570688
O11	O	1.453754	-0.332246	-0.271269
O12	O	1.283481	-0.332190	-0.441581
O13	O	1.453827	-0.429206	-0.740933
O14	O	1.283457	-0.429244	-0.570601
O15	O	1.582938	-0.332122	-0.740970
O16	O	1.582711	-0.557437	-0.441528
O17	O	1.453698	-0.557394	-0.570571
C18	C	1.245348	-0.380716	-0.506090
C19	C	1.128572	-0.380729	-0.506108
C20	C	1.073761	-0.330247	-0.573424
C21	C	0.964037	-0.330255	-0.573431
C22	C	0.963943	-0.431234	-0.438804
C23	C	1.073665	-0.431221	-0.438792
C24	C	1.518215	-0.586096	-0.506064
C25	C	1.518268	-0.673952	-0.506081
C26	C	1.451140	-0.715310	-0.438839
C27	C	1.585441	-0.715148	-0.573346
C28	C	1.585490	-0.797694	-0.573369
C29	C	1.518362	-0.839052	-0.506127
C30	C	1.451185	-0.797863	-0.438862
C31	C	1.652658	-0.838889	-0.640640
C32	C	1.652709	-0.921440	-0.640667
C33	C	1.585586	-0.962799	-0.573418
C34	C	1.518407	-0.921605	-0.506150
C35	C	1.451279	-0.962962	-0.438908
C36	C	1.384104	-0.921770	-0.371634
C37	C	1.384061	-0.839222	-0.371614
C38	C	1.585629	-1.045347	-0.573438
C39	C	1.451323	-1.045516	-0.438931
C40	C	1.792349	-0.380744	-0.506120
C41	C	1.909125	-0.380750	-0.506127
C42	C	1.518394	-0.380653	-0.780138
C43	C	1.518428	-0.380621	-0.896915
C44	C	1.518445	-0.174561	-0.506169
C45	C	1.518500	-0.086704	-0.506196
C46	C	1.585661	-0.330062	-0.951798
C47	C	1.585679	-0.330027	-1.061522
C48	C	1.451227	-0.431119	-1.061470
C49	C	1.451205	-0.431149	-0.951748
C50	C	1.518298	-0.380748	-0.233137
C51	C	1.518468	-0.380558	-0.116361
H52	H	0.919225	-0.472344	-0.383998
O53	O	1.132795	-0.485670	-0.366181
H54	H	1.076184	-0.520790	-0.319383
O55	O	0.904920	-0.275802	-0.646032
H56	H	0.854931	-0.311230	-0.699398
O57	O	1.378727	-0.485614	-1.120618
H58	H	1.396691	-0.547658	-1.099536
H59	H	1.396448	-0.472320	-0.907061
H60	H	1.329443	-0.955454	-0.316891
H61	H	1.396662	-1.079183	-0.384171
H62	H	1.329369	-0.805678	-0.316843
H63	H	1.640425	-0.288856	-1.106203
O64	O	1.658158	-0.275559	-0.892661
H65	H	1.711587	-0.310954	-0.842677
O66	O	1.132987	-0.275779	-0.646011
H67	H	1.076435	-0.240671	-0.692810
H68	H	1.396450	-0.681769	-0.384063
H69	H	1.640307	-1.078882	-0.628225
H70	H	1.640089	-0.681473	-0.628098
H71	H	1.707307	-0.805213	-0.695392
O72	O	1.725163	-0.965868	-0.713215
H73	H	1.771837	-0.923240	-0.759962
