data_functionalizedCrystal
_audit_creation_method	'MofGen! by Chris Wilmer'
_symmetry_space_group_name_H-M	'P1'
_symmetry_Int_Tables_number	1
_symmetry_cell_setting	triclinic
loop_
_symmetry_equiv_pos_as_xyz
  x,y,z
_cell_length_a	19.188925
_cell_length_b	9.065218
_cell_length_c	8.140239
_cell_angle_alpha	90.001686
_cell_angle_beta	89.996333
_cell_angle_gamma	95.920783
loop_
_atom_site_label
_atom_site_type_symbol
_atom_site_fract_x
_atom_site_fract_y
_atom_site_fract_z
O1	O	0.927576	-0.184136	-0.136642
O2	O	0.724457	-0.208937	-0.136637
O3	O	0.830215	0.018252	-0.136637
O4	O	0.821818	-0.411325	-0.136643
O5	O	0.830209	0.018254	0.136590
O6	O	0.724451	-0.208935	0.136590
O7	O	0.927570	-0.184133	0.136585
Zn8	Zn	0.826010	-0.196534	0.179968
Zn9	Zn	0.826017	-0.196537	-0.180021
O10	O	0.821812	-0.411322	0.136584
C11	C	0.698437	-0.208134	-0.000023
C12	C	0.620913	-0.205727	-0.000021
C13	C	0.060054	-0.322917	-0.000027
C14	C	0.132894	-0.325192	-0.000036
C15	C	0.176793	-0.191884	-0.000031
C16	C	0.147846	-0.056292	-0.000059
C17	C	0.075006	-0.054022	-0.000067
N18	N	0.296719	-0.095374	0.092979
N19	N	0.365913	-0.097541	0.092990
C20	C	0.396255	-0.198718	-0.000011
N21	N	0.354789	-0.297669	-0.093003
N22	N	0.285588	-0.295507	-0.093007
C23	C	0.255776	-0.194332	-0.000024
C24	C	0.504177	-0.336767	-0.000004
C25	C	0.577019	-0.339036	-0.000023
C26	C	0.591970	-0.070133	-0.000030
C27	C	0.519128	-0.067868	-0.000028
C28	C	0.475236	-0.201189	-0.000007
C29	C	0.829405	0.073212	-0.000026
C30	C	0.826992	0.236971	-0.000033
C31	C	0.953590	-0.184936	-0.000033
C32	C	1.031114	-0.187343	-0.000046
C33	C	0.822622	-0.466282	-0.000031
C34	C	0.825035	-0.630041	-0.000033
N35	N	0.826009	-0.196530	0.425651
N36	N	0.826023	-0.196528	-0.425703
H37	H	0.600580	-0.449441	-0.000022
H38	H	0.156462	-0.435596	-0.000005
O39	O	0.017318	-0.452285	0.000037
C40	C	-0.053180	-0.421217	-0.000026
H41	H	-0.056710	-0.305363	0.051707
H42	H	-0.074193	-0.426942	-0.131114
C43	C	-0.092698	-0.678337	0.043565
C44	C	-0.097034	-0.536048	0.107117
H45	H	-0.119751	-0.749173	0.109649
H46	H	-0.045202	-0.699270	0.043601
H47	H	-0.110208	-0.683087	-0.065674
H48	H	-0.079516	-0.531295	0.216346
H49	H	-0.144528	-0.515117	0.107102
O50	O	0.634574	0.059404	-0.000318
C51	C	0.621314	0.141758	-0.141808
H52	H	0.596920	0.063710	-0.240710
H53	H	0.583692	0.226907	-0.109819
C54	C	0.720562	0.317987	-0.084499
C55	C	0.690606	0.222124	-0.205979
H56	H	0.763304	0.367566	-0.124080
H57	H	0.729495	0.262507	0.010829
H58	H	0.689204	0.388930	-0.057853
H59	H	0.721960	0.151172	-0.232608
H60	H	0.681680	0.277594	-0.301313
O61	O	0.490980	0.063795	-0.000320
C62	C	0.449287	0.073132	-0.141811
H63	H	0.466999	-0.003853	-0.240711
H64	H	0.392073	0.038737	-0.109822
C65	C	0.435350	0.328344	-0.084511
C66	C	0.457108	0.233798	-0.205987
H67	H	0.440171	0.427451	-0.124096
H68	H	0.463437	0.322053	0.010817
H69	H	0.387673	0.299663	-0.057865
H70	H	0.504786	0.262468	-0.232616
H71	H	0.429028	0.240098	-0.301322
O72	O	0.190385	0.073338	-0.000126
C73	C	0.149219	0.193492	-0.000103
H74	H	0.095107	0.155692	-0.051835
H75	H	0.143764	0.235085	0.130973
C76	C	0.251176	0.366046	-0.043721
C77	C	0.184717	0.319622	-0.107272
H78	H	0.273073	0.443852	-0.109821
H79	H	0.278911	0.285097	-0.043730
H80	H	0.246621	0.400696	0.065508
H81	H	0.189273	0.284955	-0.216491
H82	H	0.156983	0.400568	-0.107284
H83	H	0.051445	0.056382	-0.000082
H84	H	0.468438	-0.445325	0.000009
