data_functionalizedCrystal
_audit_creation_method	'MofGen! by Chris Wilmer'
_symmetry_space_group_name_H-M	'P1'
_symmetry_Int_Tables_number	1
_symmetry_cell_setting	triclinic
loop_
_symmetry_equiv_pos_as_xyz
  x,y,z
_cell_length_a	12.837932
_cell_length_b	14.519709
_cell_length_c	11.892095
_cell_angle_alpha	93.895429
_cell_angle_beta	85.688545
_cell_angle_gamma	89.254924
loop_
_atom_site_label
_atom_site_type_symbol
_atom_site_fract_x
_atom_site_fract_y
_atom_site_fract_z
O1	O	1.382518	0.234479	-0.094011
O2	O	1.882518	0.734479	0.405989
O3	O	1.080690	0.222632	-0.094012
O4	O	1.580690	0.722632	0.405988
O5	O	1.239606	0.095009	-0.094002
O6	O	1.739606	0.595009	0.405998
O7	O	1.223602	0.362102	-0.094022
O8	O	1.723602	0.862102	0.405978
O9	O	1.226356	0.105632	0.094005
O10	O	1.726356	0.605632	0.594005
O11	O	1.067440	0.233255	0.093994
O12	O	1.567440	0.733255	0.593994
O13	O	1.369268	0.245102	0.093996
O14	O	1.869268	0.745102	0.593996
Zn15	Zn	1.216250	0.240865	0.123845
Zn16	Zn	1.716250	0.740865	0.623845
Zn17	Zn	1.233708	0.226869	-0.123862
Zn18	Zn	1.733708	0.726869	0.376138
O19	O	1.210352	0.372725	0.093985
O20	O	1.710352	0.872725	0.593985
C21	C	1.035437	0.223942	-0.000009
C22	C	1.535437	0.723942	0.499991
C23	C	0.920338	0.212007	-0.000009
C24	C	1.420338	0.712007	0.499991
C25	C	1.232235	0.065896	0.000002
C26	C	1.732235	0.565896	0.500002
C27	C	1.230000	-0.036678	0.000003
C28	C	1.730000	0.463322	0.500003
C29	C	0.770310	0.112255	0.000000
C30	C	1.270310	0.612255	0.500000
C31	C	0.878457	0.123463	-0.000001
C32	C	1.378457	0.623463	0.499999
C33	C	0.854064	0.289350	-0.000013
C34	C	1.354064	0.789350	0.499987
C35	C	0.745917	0.278142	-0.000012
C36	C	1.245917	0.778142	0.499988
C37	C	0.704044	0.189591	-0.000007
C38	C	1.204044	0.689591	0.499993
C39	C	0.595895	0.178384	-0.000014
C40	C	1.095895	0.678384	0.499986
C41	C	0.571504	0.344271	-0.000018
C42	C	1.071504	0.844271	0.499982
C43	C	0.679651	0.355478	-0.000019
C44	C	1.179651	0.855478	0.499981
C45	C	1.221773	-0.412287	-0.000027
C46	C	1.721773	0.087713	0.499973
C47	C	1.224058	-0.307781	-0.000018
C48	C	1.724058	0.192219	0.499982
C49	C	1.225886	-0.224486	-0.000011
C50	C	1.725886	0.275514	0.499989
C51	C	1.228171	-0.119973	-0.000005
C52	C	1.728171	0.380027	0.499995
C53	C	1.414521	0.243792	-0.000010
C54	C	1.914521	0.743792	0.499990
C55	C	1.529621	0.255726	-0.000017
C56	C	2.029621	0.755726	0.499983
C57	C	1.217724	0.401837	-0.000021
C58	C	1.717724	0.901837	0.499979
C59	C	1.219959	0.504411	-0.000029
C60	C	1.719959	1.004411	0.499971
N61	N	1.204344	0.250417	0.292898
N62	N	1.704344	0.750417	0.792898
N63	N	1.245623	0.217310	-0.292915
N64	N	1.745623	0.717310	0.207085
C65	C	1.328476	0.150791	0.529555
C66	C	1.828476	0.650791	1.029555
C67	C	1.320161	0.157475	0.647896
C68	C	1.820161	0.657475	1.147896
C69	C	1.179394	0.270464	0.647924
C70	C	1.679394	0.770464	1.147924
C71	C	1.187709	0.263780	0.529583
C72	C	1.687709	0.763780	1.029583
C73	C	1.262253	0.203942	0.470402
C74	C	1.762253	0.703942	0.970402
C75	C	1.270573	0.197263	0.352059
C76	C	1.770573	0.697263	0.852059
C77	C	1.129802	0.310247	0.352089
C78	C	1.629802	0.810247	0.852089
C79	C	1.121487	0.316931	0.470431
C80	C	1.621487	0.816931	0.970431
H81	H	0.736217	0.040153	-0.000007
H82	H	1.236217	0.540153	0.499993
H83	H	1.118695	0.319176	0.696125
H84	H	1.618695	0.819176	1.196125
H85	H	0.888175	0.361444	-0.000007
H86	H	1.388175	0.861444	0.499993
H87	H	1.374084	0.114192	0.696054
H88	H	1.874084	0.614192	1.196054
N89	N	1.408853	0.086236	0.465719
N90	N	1.908853	0.586236	0.965719
H91	H	1.404065	0.090061	0.381774
H92	H	1.904065	0.590061	0.881774
H93	H	1.480976	0.104543	0.486372
H94	H	1.980976	0.604543	0.986372
H95	H	0.932407	0.060487	0.000005
H96	H	1.432407	0.560487	0.500005
N97	N	1.041084	0.381463	0.534264
N98	N	1.541084	0.881463	1.034264
H99	H	1.045862	0.377631	0.618209
H100	H	1.545862	0.877631	1.118209
H101	H	1.054638	0.446787	0.513575
H102	H	1.554638	0.946787	1.013575
N103	N	1.058377	0.367587	0.288291
N104	N	1.558377	0.867587	0.788291
H105	H	1.074956	0.354278	0.204341
H106	H	1.574956	0.854278	0.704341
H107	H	0.983353	0.351606	0.308990
H108	H	1.483353	0.851606	0.808990
H109	H	0.561805	0.106282	-0.000014
H110	H	1.061805	0.606282	0.499986
H111	H	0.713759	0.427574	-0.000019
H112	H	1.213759	0.927574	0.499981
N113	N	0.500033	0.427691	-0.000036
N114	N	1.000033	0.927691	0.499964
H115	H	0.425167	0.407157	-0.000039
H116	H	0.925167	0.907157	0.499961
H117	H	0.508694	0.469811	0.069656
H118	H	1.008694	0.969811	0.569656
H119	H	1.331273	0.148543	0.303875
H120	H	1.831273	0.648543	0.803875
