data_functionalizedCrystal
_audit_creation_method	'MofGen! by Chris Wilmer'
_symmetry_space_group_name_H-M	'P1'
_symmetry_Int_Tables_number	1
_symmetry_cell_setting	triclinic
loop_
_symmetry_equiv_pos_as_xyz
  x,y,z
_cell_length_a	10.489768
_cell_length_b	10.654550
_cell_length_c	9.730223
_cell_angle_alpha	89.997176
_cell_angle_beta	89.998830
_cell_angle_gamma	84.517709
loop_
_atom_site_label
_atom_site_type_symbol
_atom_site_fract_x
_atom_site_fract_y
_atom_site_fract_z
O1	O	-1.693946	-0.177355	0.114217
O2	O	-1.322747	-0.193951	0.114235
O3	O	-1.516881	-0.002918	0.114217
O4	O	-1.499812	-0.368387	0.114235
O5	O	-1.516867	-0.002918	-0.114363
O6	O	-1.322733	-0.193951	-0.114345
O7	O	-1.693932	-0.177355	-0.114363
Zn8	Zn	-1.508330	-0.185653	-0.150646
Zn9	Zn	-1.508349	-0.185653	0.150518
O10	O	-1.499798	-0.368387	-0.114345
C11	C	-1.275209	-0.192690	-0.000052
C12	C	-1.133583	-0.188918	-0.000045
C13	C	-0.980787	-0.065121	-0.000073
C14	C	-1.058143	-0.127014	-0.112767
C15	C	-1.058112	-0.127043	0.112595
C16	C	-0.958596	-0.244153	-0.112869
C17	C	-0.958560	-0.244165	0.112594
C18	C	-1.035867	-0.306144	-0.000128
C19	C	-1.515621	0.043881	-0.000072
C20	C	-1.511871	0.183326	-0.000070
C21	C	-0.741472	-0.178595	-0.000076
C22	C	-0.883105	-0.182308	-0.000082
C23	C	-1.501058	-0.415186	-0.000053
C24	C	-1.504808	-0.554631	-0.000046
C25	C	-1.626174	0.262747	-0.000075
C26	C	-1.622643	0.393770	-0.000058
C27	C	-1.390496	0.365938	-0.000037
C28	C	-1.394028	0.234918	-0.000044
N29	N	-1.508327	-0.185652	-0.356182
C30	C	-1.586361	-0.262578	-0.428103
C31	C	-1.586382	-0.262571	-0.571986
C32	C	-1.430324	-0.108708	-0.572015
C33	C	-1.430311	-0.108710	-0.428134
N34	N	-1.508362	-0.185643	0.356054
H35	H	-0.915288	-0.293589	-0.208255
H36	H	-1.294552	0.407960	-0.000018
C37	C	-1.764823	0.131532	0.117410
C38	C	-1.755702	0.206030	-0.000087
H39	H	-1.844787	0.096515	0.117398
H40	H	-1.758629	0.182062	0.197108
H41	H	-1.697246	0.065483	0.117393
H42	H	-1.823273	0.272085	-0.000066
H43	H	-1.761908	0.155498	-0.079807
C44	C	-0.950258	-0.249306	0.359134
C45	C	-0.899795	-0.310885	0.241223
H46	H	-0.913970	-0.290487	0.438550
H47	H	-1.040554	-0.251520	0.360522
H48	H	-0.930453	-0.164152	0.358304
H49	H	-0.919609	-0.396038	0.242048
H50	H	-0.809479	-0.308685	0.239835
H51	H	-1.101585	-0.077551	0.207873
H52	H	-1.649927	-0.325211	-0.630538
C53	C	-1.276039	0.043374	-0.442603
C54	C	-1.344525	-0.024149	-0.349068
H55	H	-1.223079	0.095570	-0.393787
H56	H	-1.334290	0.094267	-0.498714
H57	H	-1.224283	-0.013928	-0.498727
H58	H	-1.396288	0.033153	-0.292949
H59	H	-1.286267	-0.075046	-0.292933
H60	H	-1.715721	0.458430	-0.000060
H61	H	-1.300943	0.170249	-0.000035
C62	C	-1.740629	-0.414652	-0.442533
C63	C	-1.672128	-0.347139	-0.349013
H64	H	-1.793586	-0.466849	-0.393705
H65	H	-1.682388	-0.465544	-0.498652
H66	H	-1.792389	-0.357345	-0.498651
H67	H	-1.620361	-0.404447	-0.292901
H68	H	-1.730377	-0.296243	-0.292870
H69	H	-1.101637	-0.077544	-0.208049
C70	C	-0.997980	0.133536	-0.118401
C71	C	-0.947464	0.072443	-0.000229
H72	H	-0.977397	0.218456	-0.118504
H73	H	-1.088372	0.132090	-0.119201
H74	H	-0.962410	0.091501	-0.197644
H75	H	-0.983041	0.114472	0.079013
H76	H	-0.857054	0.073896	0.000583
C77	C	-1.018147	-0.504872	-0.118300
C78	C	-1.068859	-0.443812	-0.000199
H79	H	-1.038526	-0.589858	-0.118349
H80	H	-0.927778	-0.503221	-0.119054
H81	H	-1.053766	-0.462955	-0.197591
H82	H	-1.033233	-0.485724	0.079093
H83	H	-1.159246	-0.445471	0.000568
H84	H	-1.366805	-0.046066	-0.630615
