data_functionalizedCrystal
_audit_creation_method	'MofGen! by Chris Wilmer'
_symmetry_space_group_name_H-M	'P1'
_symmetry_Int_Tables_number	1
_symmetry_cell_setting	triclinic
loop_
_symmetry_equiv_pos_as_xyz
  x,y,z
_cell_length_a	8.559649
_cell_length_b	8.597187
_cell_length_c	7.681481
_cell_angle_alpha	88.166928
_cell_angle_beta	85.069100
_cell_angle_gamma	77.625088
loop_
_atom_site_label
_atom_site_type_symbol
_atom_site_fract_x
_atom_site_fract_y
_atom_site_fract_z
O1	O	0.283775	2.002644	-0.450242
O2	O	0.295080	1.551278	-0.381767
O3	O	0.058070	1.816727	-0.422035
O4	O	0.520785	1.737195	-0.409974
O5	O	0.028830	1.849408	-0.134135
O6	O	0.265840	1.583959	-0.093867
O7	O	0.254535	2.035325	-0.162341
Zn8	Zn	0.255545	1.814830	-0.082394
Zn9	Zn	0.294070	1.771773	-0.461715
O10	O	0.491545	1.769876	-0.122073
C11	C	0.277616	1.510369	-0.229132
C12	C	0.269124	1.339785	-0.203254
C13	C	-0.015891	1.839094	-0.279003
C14	C	-0.192708	1.857033	-0.281734
C15	C	0.565506	1.747508	-0.265110
C16	C	0.742325	1.729568	-0.262390
C17	C	0.271999	2.076234	-0.314980
C18	C	0.280492	2.246816	-0.340870
N19	N	0.229252	1.844228	0.176481
N20	N	0.320351	1.742389	-0.720592
H21	H	0.296722	1.297732	-0.478484
C22	C	0.247212	1.271021	-0.017349
C23	C	0.374966	1.131783	0.047511
C24	C	0.353053	1.063008	0.233420
C25	C	0.203386	1.133470	0.354469
C26	C	0.075622	1.272715	0.289612
C27	C	0.097535	1.341490	0.103703
H28	H	0.485767	1.079616	-0.042099
H29	H	0.447633	0.959930	0.281431
H30	H	0.187165	1.082559	0.492090
H31	H	-0.035179	1.324882	0.379222
H32	H	0.002955	1.444569	0.055692
H33	H	-0.178025	1.606714	-0.243747
C34	C	-0.300309	2.023020	-0.306907
C35	C	-0.304821	2.155312	-0.174905
C36	C	-0.412421	2.321296	-0.200077
C37	C	-0.515510	2.354986	-0.357250
C38	C	-0.511002	2.222691	-0.489263
C39	C	-0.403402	2.056707	-0.464091
H40	H	-0.228505	2.130376	-0.058546
H41	H	-0.415758	2.419229	-0.102351
H42	H	-0.595162	2.477857	-0.375884
H43	H	-0.587317	2.247627	-0.605622
H44	H	-0.400065	1.958774	-0.561816
C45	C	0.103633	1.984684	0.256757
C46	C	0.083551	2.007166	0.456113
C47	C	-0.042065	2.147619	0.536389
C48	C	-0.147599	2.265592	0.417308
C49	C	-0.127521	2.243114	0.217940
C50	C	-0.001904	2.102660	0.137664
H51	H	0.161677	1.919832	0.544274
H52	H	-0.056928	2.164258	0.683975
H53	H	-0.240588	2.369564	0.476733
H54	H	-0.205646	2.330448	0.129778
H55	H	0.012959	2.086022	-0.009922
H56	H	0.413334	1.638434	0.219981
