data_functionalizedCrystal
_audit_creation_method	'MofGen! by Chris Wilmer'
_symmetry_space_group_name_H-M	'P1'
_symmetry_Int_Tables_number	1
_symmetry_cell_setting	triclinic
loop_
_symmetry_equiv_pos_as_xyz
  x,y,z
_cell_length_a	15.297475
_cell_length_b	12.645330
_cell_length_c	15.296720
_cell_angle_alpha	80.351223
_cell_angle_beta	91.617114
_cell_angle_gamma	99.670433
loop_
_atom_site_label
_atom_site_type_symbol
_atom_site_fract_x
_atom_site_fract_y
_atom_site_fract_z
Zn1	Zn	1.253346	0.825044	-0.726641
Zn2	Zn	1.278598	0.977691	-0.580164
Zn3	Zn	1.132227	0.765490	-0.554878
Zn4	Zn	1.106825	0.967271	-0.701292
O5	O	1.192749	0.883874	-0.640744
O6	O	1.379271	0.874578	-0.728401
O7	O	1.280381	0.928980	-0.454234
O8	O	1.148357	0.625061	-0.577689
O9	O	1.397824	0.986727	-0.620785
O10	O	1.237342	0.668815	-0.703882
O11	O	1.172843	0.773077	-0.435657
O12	O	1.006282	0.762973	-0.553110
O13	O	1.105062	0.968967	-0.827230
O14	O	0.987619	0.911220	-0.660680
O15	O	1.212710	0.864474	-0.845854
O16	O	1.255749	1.124638	-0.596206
O17	O	1.129548	1.116982	-0.685198
C18	C	0.965167	0.829504	-0.601401
C19	C	0.867803	0.806273	-0.584590
C20	C	0.554641	1.049917	-0.760893
C21	C	0.646120	1.071751	-0.776685
C22	C	0.701545	1.005383	-0.728663
C23	C	0.665483	0.917178	-0.664846
C24	C	0.573996	0.895347	-0.649047
C25	C	0.720900	0.850813	-0.616817
C26	C	0.684838	0.762608	-0.553000
C27	C	0.593360	0.740781	-0.537206
C28	C	0.537934	0.807148	-0.585227
C29	C	0.812387	0.872644	-0.632616
C30	C	0.831742	0.718074	-0.520770
C31	C	0.740263	0.696241	-0.504978
C32	C	1.192653	1.159279	-0.640718
C33	C	1.192687	1.277123	-0.640751
C34	C	1.113516	1.440012	-0.696991
C35	C	1.113224	1.317337	-0.696714
C36	C	1.183681	1.300235	-0.544124
C37	C	1.183183	1.422801	-0.544464
C38	C	1.281358	1.470345	-0.680456
C39	C	1.280455	1.347945	-0.682377
C40	C	1.421219	0.938458	-0.680241
C41	C	1.518579	0.961718	-0.697073
C42	C	1.153236	0.922201	-0.869213
C43	C	1.136397	0.938533	-0.966573
C44	C	1.192835	1.607396	-0.640791
C45	C	1.192791	1.489560	-0.640806
C46	C	1.313127	0.766965	-1.279802
C47	C	1.328953	0.751623	-1.188328
C48	C	1.280815	0.798349	-1.132885
C49	C	1.216849	0.860420	-1.168924
C50	C	1.201027	0.875771	-1.260408
C51	C	1.168715	0.907155	-1.113491
C52	C	1.104749	0.969226	-1.149530
C53	C	1.088929	0.984573	-1.241005
C54	C	1.137066	0.937848	-1.296448
C55	C	1.184537	0.891804	-1.022008
C56	C	1.072437	1.000610	-1.002614
C57	C	1.056611	1.015952	-1.094087
C58	C	1.232159	0.845632	-0.413172
C59	C	1.249167	0.829042	-0.315842
H60	H	0.776030	1.023165	-0.741525
H61	H	1.120190	1.250193	-0.512154
H62	H	1.292689	1.517751	-0.750561
Cl63	Cl	0.422926	0.779698	-0.565383
Cl64	Cl	0.691449	1.182633	-0.856907
Cl65	Cl	1.409363	0.673595	-1.143027
H66	H	1.124185	0.950336	-1.370934
Cl67	Cl	0.976201	1.093984	-1.139405
H68	H	1.352319	0.728935	-1.324952
Cl69	Cl	1.374487	1.308257	-0.625767
Cl70	Cl	1.291393	1.327517	-0.792291
Cl71	Cl	1.012252	1.458566	-0.654929
H72	H	0.841739	0.944461	-0.684577
H73	H	0.876870	0.664034	-0.481665
Cl74	Cl	1.011363	1.242805	-0.654213
H75	H	0.509507	1.103949	-0.799980
H76	H	1.293705	0.785854	-1.058403
H77	H	1.340225	1.503040	-0.639728
Cl78	Cl	1.264948	0.813773	-0.976712
H79	H	1.036851	1.035126	-1.270346
Cl80	Cl	1.011922	1.059361	-0.932921
H81	H	0.564003	0.668967	-0.485232
Cl82	Cl	0.694917	0.585358	-0.424754
Cl83	Cl	1.119055	1.508952	-0.807148
Cl84	Cl	1.119059	1.294301	-0.806561
H85	H	1.239285	1.454907	-0.500314
Cl86	Cl	1.271103	1.259302	-0.476637
Cl87	Cl	1.083960	1.436934	-0.495477
