data_functionalizedCrystal
_audit_creation_method	'MofGen! by Chris Wilmer'
_symmetry_space_group_name_H-M	'P1'
_symmetry_Int_Tables_number	1
_symmetry_cell_setting	triclinic
loop_
_symmetry_equiv_pos_as_xyz
  x,y,z
_cell_length_a	17.699083
_cell_length_b	16.176319
_cell_length_c	17.699083
_cell_angle_alpha	89.992304
_cell_angle_beta	96.716985
_cell_angle_gamma	90.001389
loop_
_atom_site_label
_atom_site_type_symbol
_atom_site_fract_x
_atom_site_fract_y
_atom_site_fract_z
O1	O	1.004079	0.068632	-0.095713
O2	O	1.504079	0.568632	0.404287
O3	O	0.783700	0.068660	-0.108166
O4	O	1.283700	0.568660	0.391834
O5	O	0.900116	0.068638	0.008250
O6	O	1.400116	0.568638	0.508250
O7	O	0.887663	0.068654	-0.212129
O8	O	1.387663	0.568654	0.287871
O9	O	0.900100	-0.068855	0.008257
O10	O	1.400100	0.431145	0.508257
O11	O	0.783684	-0.068834	-0.108158
O12	O	1.283684	0.431166	0.391842
O13	O	1.004063	-0.068861	-0.095706
O14	O	1.504063	0.431139	0.404294
Cu15	Cu	0.893872	-0.081401	-0.101931
Cu16	Cu	1.393872	0.418599	0.398069
Cu17	Cu	0.893891	0.081200	-0.101940
Cu18	Cu	1.393891	0.581200	0.398060
O19	O	0.887647	-0.068839	-0.212121
O20	O	1.387647	0.431161	0.287879
C21	C	0.755495	-0.000084	-0.107716
C22	C	1.255495	0.499916	0.392284
C23	C	0.671477	-0.000073	-0.106377
C24	C	1.171477	0.499927	0.393623
C25	C	0.622856	-0.000069	-0.174710
C26	C	1.122856	0.499931	0.325290
C27	C	0.543913	-0.000079	-0.173448
C28	C	1.043913	0.499921	0.326552
C29	C	0.513592	-0.000089	-0.103852
C30	C	1.013592	0.499911	0.396148
C31	C	0.562219	-0.000096	-0.035513
C32	C	1.062219	0.499904	0.464487
C33	C	0.641161	-0.000091	-0.036776
C34	C	1.141161	0.499909	0.463224
C35	C	0.243856	-0.000117	-0.030418
C36	C	0.743856	0.499883	0.469582
C37	C	0.164908	-0.000120	-0.029160
C38	C	0.664908	0.499880	0.470840
C39	C	0.146608	-0.000105	-0.167090
C40	C	0.646608	0.499895	0.332910
C41	C	0.225550	-0.000100	-0.168353
C42	C	0.725550	0.499900	0.331647
C43	C	0.274170	-0.000112	-0.100015
C44	C	0.774170	0.499888	0.399985
C45	C	0.359769	-0.000102	-0.101384
C46	C	0.859769	0.499898	0.398616
C47	C	0.427995	-0.000093	-0.102481
C48	C	0.927995	0.499907	0.397519
N49	N	0.893864	-0.195767	-0.101925
N50	N	1.393864	0.304233	0.398075
C51	C	0.945429	-0.239040	-0.050397
C52	C	1.445429	0.260960	0.449603
C53	C	0.945432	-0.325588	-0.050396
C54	C	1.445432	0.174412	0.449604
C55	C	0.893875	-0.368859	-0.101927
C56	C	1.393875	0.131141	0.398073
C57	C	0.842305	-0.325579	-0.153457
C58	C	1.342305	0.174421	0.346543
C59	C	0.842299	-0.239034	-0.153454
C60	C	1.342299	0.260966	0.346546
C61	C	0.842331	-0.674608	-0.153472
C62	C	1.342331	-0.174608	0.346528
C63	C	0.842344	-0.761159	-0.153473
C64	C	1.342344	-0.261159	0.346527
C65	C	0.945465	-0.761161	-0.050414
C66	C	1.445465	-0.261161	0.449586
C67	C	0.945458	-0.674616	-0.050410
C68	C	1.445458	-0.174616	0.449590
C69	C	0.893886	-0.631344	-0.101937
C70	C	1.393886	-0.131344	0.398063
C71	C	0.893882	-0.537499	-0.101937
C72	C	1.393882	-0.037499	0.398063
C73	C	0.893883	-0.462702	-0.101932
C74	C	1.393883	0.037298	0.398068
C75	C	1.032268	-0.000116	-0.096156
C76	C	1.532268	0.499884	0.403844
C77	C	1.116286	-0.000121	-0.097494
C78	C	1.616286	0.499879	0.402506
C79	C	0.899662	-0.000109	0.036451
C80	C	1.399662	0.499891	0.536451
C81	C	0.898323	-0.000109	0.120469
C82	C	1.398323	0.499891	0.620469
N83	N	0.893905	0.195565	-0.101941
N84	N	1.393905	0.695565	0.398059
C85	C	0.888102	-0.000091	-0.240322
C86	C	1.388102	0.499909	0.259678
C87	C	0.889440	-0.000085	-0.324340
C88	C	1.389440	0.499915	0.175660
C89	C	0.966656	-0.000119	0.169090
C90	C	1.466656	0.499881	0.669090
C91	C	0.965394	-0.000111	0.248033
C92	C	1.465394	0.499889	0.748033
C93	C	0.895798	-0.000100	0.278354
C94	C	1.395798	0.499900	0.778354
C95	C	0.827459	-0.000088	0.229727
C96	C	1.327459	0.499912	0.729727
C97	C	0.828722	-0.000089	0.150785
C98	C	1.328722	0.499911	0.650785
C99	C	0.822364	-0.000080	0.548090
C100	C	1.322364	0.499920	1.048090
C101	C	0.821106	-0.000081	0.627038
C102	C	1.321106	0.499919	1.127038
C103	C	0.959036	-0.000102	0.645338
C104	C	1.459036	0.499898	1.145338
C105	C	0.960299	-0.000104	0.566396
C106	C	1.460299	0.499896	1.066396
C107	C	0.891961	-0.000087	0.517776
C108	C	1.391961	0.499913	1.017776
C109	C	0.893330	-0.000094	0.432177
C110	C	1.393330	0.499906	0.932177
C111	C	0.894427	-0.000099	0.363951
C112	C	1.394427	0.499901	0.863951
H113	H	0.250232	-0.000089	-0.225025
H114	H	0.750232	0.499911	0.274975
H115	H	0.647537	-0.000060	-0.231384
H116	H	1.147537	0.499940	0.268616
H117	H	0.107012	-0.000100	-0.222734
H118	H	0.607012	0.499900	0.277266
N119	N	0.491471	-0.000168	-0.247150
N120	N	0.991471	0.499832	0.252850
H121	H	0.522658	-0.000186	-0.291430
H122	H	1.022658	0.499814	0.208570
H123	H	0.458273	0.050769	-0.249690
H124	H	0.958273	0.550769	0.250310
N125	N	1.001025	-0.192375	0.005199
N126	N	1.501025	0.307625	0.505199
H127	H	0.993196	-0.130981	-0.002614
H128	H	1.493196	0.369019	0.497386
H129	H	1.054704	-0.207488	-0.003466
H130	H	1.554704	0.292512	0.496534
N131	N	1.001074	-0.372262	0.005154
N132	N	1.501074	0.127738	0.505154
H133	H	1.033746	-0.331718	0.037787
H134	H	1.533746	0.168282	0.537787
H135	H	1.034464	-0.408145	-0.023814
H136	H	1.534464	0.091855	0.476186
H137	H	1.014680	-0.000111	0.684934
H138	H	1.514680	0.499889	1.184934
N139	N	1.001065	-0.627953	0.005177
N140	N	1.501065	-0.127953	0.505177
H141	H	0.972201	-0.592058	0.038652
H142	H	1.472201	-0.092058	0.538652
H143	H	1.034508	-0.592081	-0.023752
H144	H	1.534508	-0.092081	0.476248
H145	H	0.987456	-0.796403	-0.008455
H146	H	1.487456	-0.296403	0.491545
H147	H	0.283434	-0.000127	0.025228
H148	H	0.783434	0.499873	0.525228
N149	N	0.132211	-0.000142	0.045912
N150	N	0.632211	0.499858	0.545912
H151	H	0.099865	-0.051112	0.049504
H152	H	0.599865	0.448888	0.549504
H153	H	0.099904	0.050859	0.049470
H154	H	0.599904	0.550859	0.549470
N155	N	0.529521	-0.000120	0.039553
N156	N	1.029521	0.499880	0.539553
H157	H	0.472134	-0.000122	0.029986
H158	H	0.972134	0.499878	0.529986
H159	H	0.547314	0.050846	0.069452
H160	H	1.047314	0.550846	0.569452
N161	N	0.786729	-0.807834	-0.209050
N162	N	1.286729	-0.307834	0.290950
H163	H	0.754054	-0.767290	-0.241690
H164	H	1.254054	-0.267290	0.258310
H165	H	0.753337	-0.843752	-0.180108
H166	H	1.253337	-0.343752	0.319892
N167	N	0.786706	-0.627942	-0.209041
N168	N	1.286706	-0.127942	0.290959
H169	H	0.754048	-0.668489	-0.241685
H170	H	1.254048	-0.168489	0.258315
H171	H	0.815606	-0.592018	-0.242467
H172	H	1.315606	-0.092018	0.257533
N173	N	0.748658	-0.000066	0.495658
N174	N	1.248658	0.499934	0.995658
H175	H	0.760013	-0.000062	0.441047
H176	H	1.260013	0.499938	0.941047
H177	H	0.718333	0.050910	0.505462
H178	H	1.218333	0.550910	1.005462
H179	H	0.680748	-0.000095	0.018868
H180	H	1.180748	0.499905	0.518868
H181	H	0.764429	-0.000074	0.651721
H182	H	1.264429	0.499926	1.151721
N183	N	0.786690	-0.372246	-0.209034
N184	N	1.286690	0.127754	0.290966
H185	H	0.794519	-0.433639	-0.201219
H186	H	1.294519	0.066361	0.298781
H187	H	0.795328	-0.357106	-0.262716
H188	H	1.295328	0.142894	0.237284
H189	H	0.773078	-0.000081	0.111198
H190	H	1.273078	0.499919	0.611198
N191	N	0.786679	-0.192356	-0.209026
N192	N	1.286679	0.307644	0.290974
H193	H	0.754019	-0.232899	-0.241672
H194	H	1.254019	0.267101	0.258328
H195	H	0.815583	-0.156434	-0.242450
H196	H	1.315583	0.343566	0.257550
H197	H	1.021038	-0.000121	0.287618
H198	H	1.521038	0.499879	0.787618
N199	N	1.041722	-0.000138	0.136389
N200	N	1.541722	0.499862	0.636389
H201	H	1.084819	-0.000142	0.179172
H202	H	1.584819	0.499858	0.679172
H203	H	1.045258	0.050830	0.104027
H204	H	1.545258	0.550830	0.604027
N205	N	0.752393	-0.000070	0.262425
N206	N	1.252393	0.499930	0.762425
H207	H	0.761960	-0.000074	0.319812
H208	H	1.261960	0.499926	0.819812
H209	H	0.722491	-0.051036	0.244634
H210	H	1.222491	0.448964	0.744634
H211	H	1.016971	-0.000117	0.541714
H212	H	1.516971	0.499883	1.041714
