data_functionalizedCrystal
_audit_creation_method	'MofGen! by Chris Wilmer'
_symmetry_space_group_name_H-M	'P1'
_symmetry_Int_Tables_number	1
_symmetry_cell_setting	triclinic
loop_
_symmetry_equiv_pos_as_xyz
  x,y,z
_cell_length_a	27.731993
_cell_length_b	27.732048
_cell_length_c	18.366186
_cell_angle_alpha	89.988789
_cell_angle_beta	90.002487
_cell_angle_gamma	82.631525
loop_
_atom_site_label
_atom_site_type_symbol
_atom_site_fract_x
_atom_site_fract_y
_atom_site_fract_z
O1	O	0.640948	0.057392	-0.060362
O2	O	0.500150	0.066165	-0.060407
O3	O	0.574922	-0.008619	-0.060369
O4	O	0.566176	0.132176	-0.060400
O5	O	0.574909	-0.008623	0.060730
O6	O	0.500138	0.066162	0.060692
O7	O	0.640935	0.057389	0.060738
Zn8	Zn	0.570534	0.061774	0.079942
Zn9	Zn	0.570551	0.061779	-0.079611
O10	O	0.566163	0.132173	0.060700
C11	C	0.482137	0.065983	0.000137
C12	C	0.428480	0.065441	0.000120
C13	C	0.574732	-0.026628	0.000183
C14	C	0.574179	-0.080282	0.000188
C15	C	0.045327	0.061512	-0.065855
C16	C	0.246984	0.063579	-0.065875
O17	O	0.273063	0.063829	-0.122016
N18	N	0.272198	0.063836	0.000135
C19	C	0.246994	0.063573	0.066154
O20	O	0.273068	0.063833	0.122299
C21	C	0.045338	0.061502	0.066174
C22	C	0.020127	0.061251	0.000160
C23	C	0.020116	0.061260	-0.131864
C24	C	-0.030296	0.060746	-0.131858
C25	C	-0.055496	0.060484	-0.065843
C26	C	-0.030285	0.060736	0.000165
C27	C	0.020136	0.061235	0.132192
C28	C	-0.030281	0.060717	0.132191
C29	C	-0.055492	0.060465	0.066177
C30	C	-0.105897	0.059961	0.066185
N31	N	-0.131110	0.059704	0.000176
C32	C	-0.105910	0.059966	-0.065839
C33	C	0.352866	0.064661	0.066139
C34	C	0.403280	0.065179	0.066135
C35	C	0.403267	0.065185	-0.065895
C36	C	0.352852	0.064670	-0.065889
C37	C	0.327653	0.064404	0.000130
C38	C	-0.211778	0.058887	-0.065822
C39	C	-0.262195	0.058374	-0.065810
C40	C	-0.262177	0.058366	0.066219
C41	C	-0.211765	0.058881	0.066208
C42	C	-0.186567	0.059139	0.000181
O43	O	-0.132006	0.059705	0.122297
O44	O	-0.131991	0.059694	-0.121975
C45	C	0.095739	0.062026	-0.065861
C46	C	0.120950	0.062279	0.000148
C47	C	0.095750	0.062017	0.066162
C48	C	0.171364	0.062797	0.000143
C49	C	0.196564	0.063059	-0.065871
C50	C	0.171351	0.062802	-0.131881
C51	C	0.120939	0.062288	-0.131875
C52	C	0.120963	0.062274	0.132172
C53	C	0.171375	0.062788	0.132161
C54	C	0.196575	0.063050	0.066147
C55	C	0.614884	-0.419105	0.000164
C56	C	0.612833	-0.620765	0.000153
O57	O	0.650055	-0.652028	0.000134
N58	N	0.568497	-0.639880	0.000140
C59	C	0.524670	-0.608576	0.000124
O60	O	0.486912	-0.629462	0.000105
C61	C	0.526721	-0.406918	0.000130
C62	C	0.571061	-0.387806	0.000151
C63	C	0.659220	-0.399993	0.000184
C64	C	0.659732	-0.349581	0.000191
C65	C	0.615909	-0.318282	0.000178
C66	C	0.571573	-0.337394	0.000157
C67	C	0.482895	-0.375616	0.000109
C68	C	0.483412	-0.325199	0.000108
C69	C	0.527751	-0.306087	0.000129
C70	C	0.528262	-0.255683	0.000150
N71	N	0.572598	-0.236568	0.000164
C72	C	0.616422	-0.267867	0.000178
C73	C	0.523596	-0.714450	0.000123
C74	C	0.523083	-0.764865	0.000122
C75	C	0.611246	-0.777049	0.000150
C76	C	0.611759	-0.726634	0.000156
C77	C	0.567932	-0.695335	0.000136
C78	C	0.617494	-0.161998	0.000192
C79	C	0.618003	-0.111582	0.000202
C80	C	0.529839	-0.099401	0.000170
C81	C	0.529331	-0.149814	0.000164
C82	C	0.573162	-0.181112	0.000173
O83	O	0.491060	-0.224392	0.000162
O84	O	0.654174	-0.246972	0.000181
C85	C	0.614372	-0.469517	0.000158
C86	C	0.570036	-0.488630	0.000137
C87	C	0.526213	-0.457331	0.000124
C88	C	0.569523	-0.539044	0.000137
C89	C	0.613346	-0.570343	0.000151
C90	C	0.657683	-0.551228	0.000164
C91	C	0.658195	-0.500817	0.000171
C92	C	0.481876	-0.476446	0.000110
C93	C	0.481368	-0.526858	0.000104
C94	C	0.525191	-0.558157	0.000118
C95	C	0.658949	0.057570	0.000192
C96	C	0.712605	0.058113	0.000204
C97	C	0.566353	0.150181	0.000147
C98	C	0.566906	0.203836	0.000136
N99	N	0.570527	0.061771	0.188833
N100	N	0.570563	0.061779	-0.188503
C101	C	0.603646	0.028673	0.226951
C102	C	0.603649	0.028670	0.303178
C103	C	0.570537	0.061775	0.341286
C104	C	0.537412	0.094876	0.303160
C105	C	0.537406	0.094874	0.226933
C106	C	0.563875	0.105848	0.462036
C107	C	0.563884	0.105850	0.538261
C108	C	0.570551	0.061781	0.576394
C109	C	0.577220	0.017707	0.538292
C110	C	0.577214	0.017705	0.462066
C111	C	0.570539	0.061780	0.423941
C112	C	0.603676	0.028677	0.697166
C113	C	0.603675	0.028675	0.773395
C114	C	0.537440	0.094884	0.773375
C115	C	0.537438	0.094883	0.697147
C116	C	0.570558	0.061780	0.659047
H117	H	-0.282720	0.058171	-0.119569
Br118	Br	0.492470	0.139800	0.354874
H119	H	0.493226	-0.165375	0.000167
H120	H	0.582643	-0.018182	0.431047
Br121	Br	0.492497	0.139807	0.825086
Br122	Br	0.318674	0.064306	0.155746
H123	H	0.191897	0.062997	0.185922
Br124	Br	0.054307	0.061614	-0.221467
Br125	Br	0.492455	0.139796	0.175198
H126	H	-0.191268	0.059098	-0.119587
Br127	Br	0.054339	0.061578	0.221789
Br128	Br	-0.064503	0.060401	-0.221453
Br129	Br	0.318642	0.064328	-0.155483
H130	H	0.423793	0.065400	-0.119646
H131	H	0.510471	0.121836	0.666110
H132	H	0.100416	0.062083	-0.185630
H133	H	0.646929	-0.802542	0.000162
Br134	Br	0.717157	-0.593716	0.000189
H135	H	0.486977	-0.780421	0.000118
Br136	Br	0.676980	-0.204466	0.000203
Br137	Br	0.470368	-0.056915	0.000152
H138	H	0.694908	-0.425472	0.000193
H139	H	0.487905	-0.688970	0.000107
Br140	Br	0.422395	-0.433975	0.000088
H141	H	0.446789	-0.391168	0.000087
Br142	Br	0.205561	0.063161	-0.221471
H143	H	0.630613	0.001717	0.195932
H144	H	0.630620	0.001717	0.334219
Br145	Br	0.718373	-0.474887	0.000195
Br146	Br	0.437488	0.065533	0.155729
Br147	Br	-0.064476	0.060351	0.221794
Br148	Br	0.421187	-0.552789	0.000081
Br149	Br	-0.177549	0.059230	0.155799
Br150	Br	-0.296387	0.058013	0.155806
H151	H	0.100451	0.062058	0.185930
Br152	Br	0.586275	-0.042106	0.590034
H153	H	0.647864	-0.711077	0.000172
Br154	Br	0.719910	-0.323652	0.000199
Br155	Br	0.648622	-0.016249	0.645457
Br156	Br	0.423930	-0.282724	0.000078
Br157	Br	0.554875	0.165663	0.410291
H158	H	0.654110	-0.096024	0.000221
H159	H	0.630644	0.001719	0.804431
Br160	Br	0.554839	0.165664	0.589962
