data_functionalizedCrystal
_audit_creation_method	'MofGen! by Chris Wilmer'
_symmetry_space_group_name_H-M	'P1'
_symmetry_Int_Tables_number	1
_symmetry_cell_setting	triclinic
loop_
_symmetry_equiv_pos_as_xyz
  x,y,z
_cell_length_a	13.032831
_cell_length_b	13.032721
_cell_length_c	13.032328
_cell_angle_alpha	103.288501
_cell_angle_beta	90.887223
_cell_angle_gamma	90.902885
loop_
_atom_site_label
_atom_site_type_symbol
_atom_site_fract_x
_atom_site_fract_y
_atom_site_fract_z
Zn1	Zn	1.399425	-0.702867	-0.857484
Zn2	Zn	1.399315	-0.857938	-0.702417
Zn3	Zn	1.255411	-0.659392	-0.658985
Zn4	Zn	1.206356	-0.852308	-0.851927
O5	O	1.315127	-0.768126	-0.767703
O6	O	1.540435	-0.743988	-0.857416
O7	O	1.400710	-0.815763	-0.551013
O8	O	1.295090	-0.519526	-0.669465
O9	O	1.540354	-0.857918	-0.743489
O10	O	1.400897	-0.551466	-0.815302
O11	O	1.294984	-0.669892	-0.519103
O12	O	1.107879	-0.664433	-0.664077
O13	O	1.211483	-0.848322	-0.998307
O14	O	1.071839	-0.806167	-0.805831
O15	O	1.353330	-0.738528	-1.002390
O16	O	1.353143	-1.002825	-0.738101
O17	O	1.211377	-0.998689	-0.847946
C18	C	1.053293	-0.729972	-0.729639
C19	C	0.941272	-0.713677	-0.713382
C20	C	1.276949	-1.038524	-0.797160
C21	C	1.260704	-1.154219	-0.809810
C22	C	0.873524	-0.776631	-0.776188
C23	C	0.757744	-0.759791	-0.759387
C24	C	1.323652	-1.207825	-0.761156
C25	C	1.306864	-1.327401	-0.774229
C26	C	1.577983	-0.806430	-0.805917
C27	C	1.689997	-0.822753	-0.822202
C28	C	1.276947	-0.797647	-1.039168
C29	C	1.260677	-0.810226	-1.154850
C30	C	1.353478	-0.496679	-0.738158
C31	C	1.369821	-0.381004	-0.725568
C32	C	1.306804	-0.774520	-1.328011
C33	C	1.323615	-0.761509	-1.208446
C34	C	1.353227	-0.738654	-0.497295
C35	C	1.369734	-0.725810	-0.381610
H36	H	0.730036	-0.693419	-0.693178
H37	H	1.389939	-0.710165	-1.165819
H38	H	1.389978	-1.165196	-0.709827
H39	H	1.240541	-1.370030	-0.825570
O40	O	1.181557	-1.204914	-0.871128
C41	C	1.126271	-1.131850	-0.913806
H42	H	1.177846	-1.060691	-0.915024
H43	H	1.099538	-1.170663	-0.997643
H44	H	1.056726	-1.105116	-0.863264
H45	H	0.901238	-0.842992	-0.842399
H46	H	1.436150	-1.338378	-0.674236
O47	O	1.227753	-0.835760	-1.379029
C48	C	1.228554	-0.835101	-1.487048
H49	H	1.309084	-0.813945	-1.509387
H50	H	1.204924	-0.916527	-1.535923
H51	H	1.172301	-0.774300	-1.503180
H52	H	1.436053	-0.674469	-1.338979
O53	O	0.723163	-0.901809	-0.901250
C54	C	0.782934	-0.858773	-0.970915
H55	H	0.814879	-0.778129	-0.927993
H56	H	0.849083	-0.913393	-1.000092
H57	H	0.733175	-0.849996	-1.040991
O58	O	0.908177	-0.634638	-0.634283
C59	C	0.848363	-0.677680	-0.564653
H60	H	0.869513	-0.763519	-0.571616
H61	H	0.863640	-0.631034	-0.480311
H62	H	0.763571	-0.673291	-0.585726
H63	H	1.194340	-0.861554	-1.197472
