data_functionalizedCrystal
_audit_creation_method	'MofGen! by Chris Wilmer'
_symmetry_space_group_name_H-M	'P1'
_symmetry_Int_Tables_number	1
_symmetry_cell_setting	triclinic
loop_
_symmetry_equiv_pos_as_xyz
  x,y,z
_cell_length_a	19.121102
_cell_length_b	19.121111
_cell_length_c	19.120915
_cell_angle_alpha	85.259367
_cell_angle_beta	90.090244
_cell_angle_gamma	89.871671
loop_
_atom_site_label
_atom_site_type_symbol
_atom_site_fract_x
_atom_site_fract_y
_atom_site_fract_z
Zn1	Zn	1.039554	0.343482	-0.456049
Zn2	Zn	1.039469	0.456131	-0.343401
Zn3	Zn	0.927772	0.333500	-0.333427
Zn4	Zn	0.917297	0.455653	-0.455583
O5	O	0.981023	0.397192	-0.397115
O6	O	1.137454	0.362803	-0.445475
O7	O	1.029000	0.435887	-0.243811
O8	O	0.947019	0.236559	-0.345714
O9	O	1.137391	0.445565	-0.362713
O10	O	1.029145	0.243893	-0.435804
O11	O	0.946937	0.345790	-0.236483
O12	O	0.828472	0.345327	-0.345262
O13	O	0.929167	0.444751	-0.553912
O14	O	0.820776	0.435072	-0.435010
O15	O	1.018989	0.362339	-0.554254
O16	O	1.018843	0.554333	-0.362261
O17	O	0.929084	0.553982	-0.444681
C18	C	0.799237	0.389065	-0.389004
C19	C	0.721466	0.385606	-0.385551
C20	C	0.972836	0.579638	-0.404519
C21	C	0.969397	0.657694	-0.407712
C22	C	0.680941	0.430771	-0.430588
C23	C	0.607868	0.427512	-0.427347
C24	C	0.575321	0.379090	-0.379065
C25	C	0.615851	0.333920	-0.334026
C26	C	0.688923	0.337176	-0.337271
C27	C	0.354890	0.366914	-0.366935
C28	C	0.281813	0.363662	-0.363692
C29	C	0.273835	0.457254	-0.457014
C30	C	0.346909	0.460509	-0.460252
C31	C	0.387432	0.415336	-0.415216
C32	C	0.500628	0.375759	-0.375749
C33	C	0.462124	0.418664	-0.418535
C34	C	1.014547	0.694527	-0.366340
C35	C	1.011316	0.767868	-0.369348
C36	C	0.962931	0.804375	-0.413725
C37	C	0.917779	0.767537	-0.455102
C38	C	0.921014	0.694197	-0.452098
C39	C	0.950828	1.025806	-0.424946
C40	C	0.947596	1.099151	-0.427946
C41	C	1.041133	1.099477	-0.342192
C42	C	1.044361	1.026136	-0.339188
C43	C	0.999212	0.989304	-0.380568
C44	C	0.959626	0.879342	-0.416799
C45	C	1.002520	0.914339	-0.377497
C46	C	1.163519	0.405351	-0.405259
C47	C	1.241288	0.408828	-0.408729
C48	C	0.972919	0.404605	-0.580275
C49	C	0.969466	0.407765	-0.658327
C50	C	0.989254	1.214034	-0.389707
C51	C	0.992746	1.135984	-0.386573
C52	C	0.947593	0.427824	-1.099765
C53	C	0.950835	0.424845	-1.026426
C54	C	0.999225	0.380453	-0.989939
C55	C	1.044371	0.339031	-1.026794
C56	C	1.041124	0.342007	-1.100131
C57	C	1.011364	0.369319	-0.768518
C58	C	1.014609	0.366348	-0.695176
C59	C	0.921072	0.452161	-0.694814
C60	C	0.917833	0.455136	-0.768152
C61	C	0.962976	0.413712	-0.805000
C62	C	1.002542	0.377408	-0.914975
C63	C	0.959655	0.416753	-0.879962
C64	C	0.989138	0.389758	-0.214668
C65	C	0.992736	0.386407	-0.136614
H66	H	0.707436	0.470204	-0.469902
Cl67	Cl	1.068151	0.317280	-0.814835
H68	H	0.373403	0.499940	-0.499567
Cl69	Cl	0.574935	0.273042	-0.273332
Cl70	Cl	0.459706	0.314888	-0.315053
Cl71	Cl	1.063355	0.321582	-0.869098
H72	H	0.914065	0.995823	-0.458637
Cl73	Cl	0.739869	0.280393	-0.280652
H74	H	1.083760	0.996413	-0.303052
H75	H	0.908191	0.463977	-1.129467
Cl76	Cl	0.240898	0.302790	-0.302985
Cl77	Cl	0.222887	0.514039	-0.513626
H78	H	0.574876	0.464291	-0.464020
Cl79	Cl	0.886756	1.145044	-0.483729
H80	H	0.488627	0.458086	-0.457849
Cl81	Cl	1.105188	0.283205	-0.980923
H82	H	1.048081	0.797854	-0.335657
H83	H	1.053944	0.664807	-0.330200
Cl84	Cl	1.097893	1.145784	-0.290180
Cl85	Cl	0.856956	0.813432	-0.510895
H86	H	1.041918	0.884613	-0.341368
Cl87	Cl	0.864254	0.647893	-0.504114
H88	H	0.387876	0.330136	-0.330258
H89	H	0.920230	0.909073	-0.452930
Cl90	Cl	1.097870	0.289928	-1.146455
H91	H	0.878429	0.491286	-0.797855
Cl92	Cl	0.898822	0.472556	-0.925832
H93	H	0.914082	0.458579	-0.996427
H94	H	0.884319	0.485886	-0.664804
Cl95	Cl	1.075448	0.310537	-0.649308
