data_functionalizedCrystal
_audit_creation_method	'MofGen! by Chris Wilmer'
_symmetry_space_group_name_H-M	'P1'
_symmetry_Int_Tables_number	1
_symmetry_cell_setting	triclinic
loop_
_symmetry_equiv_pos_as_xyz
  x,y,z
_cell_length_a	27.732048
_cell_length_b	26.210047
_cell_length_c	16.109301
_cell_angle_alpha	89.996922
_cell_angle_beta	83.052068
_cell_angle_gamma	90.003465
loop_
_atom_site_label
_atom_site_type_symbol
_atom_site_fract_x
_atom_site_fract_y
_atom_site_fract_z
O1	O	0.641345	0.042365	0.098914
O2	O	0.500615	0.042381	0.113956
O3	O	0.574846	0.042367	-0.014644
O4	O	0.567114	0.042378	0.227514
O5	O	0.574832	-0.042491	-0.014624
O6	O	0.500600	-0.042477	0.113976
O7	O	0.641331	-0.042493	0.098934
Cu8	Cu	0.570964	-0.050234	0.106457
Cu9	Cu	0.570981	0.050121	0.106433
O10	O	0.567100	-0.042480	0.227534
C11	C	0.482599	-0.000047	0.113650
C12	C	0.428940	-0.000041	0.112700
N13	N	0.570956	-0.120817	0.106473
C14	C	0.603847	-0.473337	0.049502
C15	C	0.603858	-0.686996	0.049491
O16	O	0.631805	-0.714623	0.001056
N17	N	0.570984	-0.713711	0.106415
C18	C	0.538102	-0.687009	0.163343
O19	O	0.510138	-0.714634	0.211755
C20	C	0.538090	-0.473351	0.163350
C21	C	0.570969	-0.446639	0.106427
C22	C	0.636724	-0.446625	-0.007416
C23	C	0.636723	-0.393213	-0.007410
C24	C	0.603845	-0.366515	0.049515
C25	C	0.570968	-0.393227	0.106434
C26	C	0.505206	-0.446650	0.220273
C27	C	0.505205	-0.393232	0.220269
C28	C	0.538085	-0.366519	0.163346
C29	C	0.538089	-0.313117	0.163366
N30	N	0.570963	-0.286402	0.106441
C31	C	0.603841	-0.313100	0.049516
C32	C	0.538112	-0.799182	0.163336
C33	C	0.538115	-0.852596	0.163336
C34	C	0.603871	-0.852580	0.049482
C35	C	0.603869	-0.799165	0.049487
C36	C	0.570986	-0.772467	0.106412
C37	C	0.603837	-0.200932	0.049534
C38	C	0.603834	-0.147516	0.049548
C39	C	0.538077	-0.147537	0.163399
C40	C	0.538081	-0.200949	0.163388
C41	C	0.570963	-0.227645	0.106449
O42	O	0.510153	-0.285457	0.211769
O43	O	0.631795	-0.285466	0.001099
C44	C	0.603849	-0.526749	0.049496
C45	C	0.570972	-0.553461	0.106414
C46	C	0.538094	-0.526763	0.163340
C47	C	0.570976	-0.606876	0.106414
C48	C	0.603853	-0.633574	0.049489
C49	C	0.636728	-0.606859	-0.007436
C50	C	0.636727	-0.553448	-0.007429
C51	C	0.505220	-0.553478	0.220264
C52	C	0.505224	-0.606889	0.220254
C53	C	0.538102	-0.633588	0.163328
C54	C	0.090418	-0.000060	0.182708
C55	C	-0.111256	-0.000064	0.179181
O56	O	-0.142244	-0.000083	0.243198
N57	N	-0.130699	-0.000067	0.102926
C58	C	-0.099720	-0.000072	0.027548
O59	O	-0.120885	-0.000079	-0.037392
C60	C	0.101954	-0.000071	0.031077
C61	C	0.121393	-0.000063	0.107336
C62	C	0.109859	-0.000052	0.258961
C63	C	0.160274	-0.000048	0.259842
C64	C	0.191250	-0.000052	0.184470
C65	C	0.171809	-0.000059	0.108217
C66	C	0.132932	-0.000079	-0.044300
C67	C	0.183353	-0.000080	-0.043411
C68	C	0.202793	-0.000072	0.032848
C69	C	0.253200	-0.000058	0.033726
N70	N	0.272643	-0.000056	0.109981
C71	C	0.241668	-0.000052	0.185353
C72	C	-0.205602	-0.000071	0.025701
C73	C	-0.256020	-0.000071	0.024819
C74	C	-0.267553	-0.000064	0.176451
C75	C	-0.217134	-0.000061	0.177333
C76	C	-0.186159	-0.000069	0.101956
C77	C	0.347545	-0.000044	0.187197
C78	C	0.397965	-0.000037	0.188072
C79	C	0.409494	-0.000047	0.036440
C80	C	0.359077	-0.000050	0.035565
C81	C	0.328104	-0.000050	0.110950
O82	O	0.284216	-0.000045	-0.030257
O83	O	0.262842	-0.000056	0.250283
C84	C	0.040003	-0.000064	0.181827
C85	C	0.020562	-0.000071	0.105574
C86	C	0.051537	-0.000074	0.030202
C87	C	-0.029856	-0.000070	0.104692
C88	C	-0.060831	-0.000067	0.180064
C89	C	-0.041388	-0.000064	0.256318
C90	C	0.009027	-0.000060	0.257199
C91	C	0.032095	-0.000077	-0.046052
C92	C	-0.018322	-0.000080	-0.046927
C93	C	-0.049297	-0.000077	0.028445
C94	C	0.659346	-0.000065	0.099240
C95	C	0.713005	-0.000067	0.100191
C96	C	0.574526	-0.000062	-0.045605
C97	C	0.573586	-0.000063	-0.137888
N98	N	0.570993	0.120705	0.106411
C99	C	0.615450	-0.000059	-0.360679
C100	C	0.614564	-0.000055	-0.447388
C101	C	0.526492	-0.000047	-0.426424
C102	C	0.527378	-0.000048	-0.339716
C103	C	0.571859	-0.000057	-0.306846
C104	C	0.570086	-0.000052	-0.480263
C105	C	0.569125	-0.000047	-0.574277
C106	C	0.572820	-0.000060	-0.212826
C107	C	0.567420	-0.000049	0.258495
C108	C	0.568359	-0.000045	0.350779
H109	H	0.630610	-0.125769	0.003195
F110	F	0.671720	-0.475032	-0.068010
F111	F	0.480980	-0.000041	-0.282419
F112	F	-0.196449	-0.000054	0.258497
F113	F	0.662791	-0.000068	-0.325700
H114	H	0.490277	-0.000041	-0.453197
H115	H	0.630611	-0.222663	0.003168
H116	H	-0.066617	-0.000059	0.317688
H117	H	0.663495	-0.371467	-0.053763
H118	H	0.208571	-0.000087	-0.104794
F119	F	0.638863	-0.770740	-0.011098
F120	F	0.503088	-0.119114	0.223982
F121	F	0.338387	-0.000059	-0.045598
H122	H	0.434723	-0.000047	-0.024926
F123	F	0.470205	-0.364821	0.280856
H124	H	0.630642	-0.874327	0.003132
H125	H	-0.292781	-0.000062	0.237822
F126	F	0.065055	-0.000081	-0.126278
F127	F	0.076899	-0.000049	0.339190
F128	F	0.180957	-0.000043	0.341008
H129	H	0.511312	-0.222699	0.209748
F130	F	0.029710	-0.000052	0.338365
H131	H	0.511347	-0.874342	0.209696
F132	F	0.503112	-0.770773	0.223928
F133	F	0.660961	-0.000057	-0.504678
H134	H	-0.271843	-0.000069	-0.037279
H135	H	0.478433	-0.468391	0.266624
F136	F	-0.172641	-0.000079	-0.054531
F137	F	0.112254	-0.000080	-0.125467
H138	H	0.663500	-0.531702	-0.053781
H139	H	0.663500	-0.628606	-0.053784
H140	H	0.478450	-0.628635	0.266614
F141	F	0.470225	-0.525069	0.280854
H142	H	-0.034144	-0.000082	-0.109031
H143	H	0.413790	-0.000031	0.250174
F144	F	0.314587	-0.000044	0.267431
