data_functionalizedCrystal
_audit_creation_method	'MofGen! by Chris Wilmer'
_symmetry_space_group_name_H-M	'P1'
_symmetry_Int_Tables_number	1
_symmetry_cell_setting	triclinic
loop_
_symmetry_equiv_pos_as_xyz
  x,y,z
_cell_length_a	19.188929
_cell_length_b	19.188925
_cell_length_c	8.140239
_cell_angle_alpha	89.996333
_cell_angle_beta	90.025294
_cell_angle_gamma	96.856335
loop_
_atom_site_label
_atom_site_type_symbol
_atom_site_fract_x
_atom_site_fract_y
_atom_site_fract_z
O1	O	-0.087148	0.926146	-0.136727
O2	O	0.246185	1.259479	0.196606
O3	O	0.579518	1.592812	0.529940
O4	O	-0.098887	0.722834	-0.136733
O5	O	0.234447	1.056167	0.196600
O6	O	0.567780	1.389500	0.529934
O7	O	0.008638	0.830357	-0.136628
O8	O	0.341972	1.163690	0.196705
O9	O	0.675305	1.497023	0.530038
O10	O	-0.194673	0.818622	-0.136832
O11	O	0.138660	1.151956	0.196502
O12	O	0.471993	1.485289	0.529835
O13	O	0.008639	0.830351	0.136599
O14	O	0.341973	1.163684	0.469932
O15	O	0.675306	1.497018	0.803266
O16	O	-0.098885	0.722828	0.136494
O17	O	0.234448	1.056161	0.469827
O18	O	0.567781	1.389494	0.803161
O19	O	-0.087147	0.926140	0.136500
O20	O	0.246186	1.259473	0.469833
O21	O	0.579519	1.592806	0.803167
Zn22	Zn	-0.093016	0.824483	0.179878
Zn23	Zn	0.240317	1.157816	0.513211
Zn24	Zn	0.573651	1.491149	0.846544
Zn25	Zn	-0.093018	0.824491	-0.180111
Zn26	Zn	0.240316	1.157824	0.153223
Zn27	Zn	0.573649	1.491157	0.486556
O28	O	-0.194672	0.818617	0.136395
O29	O	0.138661	1.151950	0.469729
O30	O	0.471995	1.485283	0.803062
C31	C	-0.098507	0.696820	-0.000118
C32	C	0.234827	1.030153	0.333215
C33	C	0.568160	1.363486	0.666548
C34	C	-0.097367	0.619315	-0.000115
C35	C	0.235966	0.952648	0.333218
C36	C	0.569299	1.285982	0.666551
C37	C	-0.152831	0.057545	-0.000175
C38	C	0.180502	0.390878	0.333158
C39	C	0.513835	0.724211	0.666492
C40	C	-0.153908	0.130368	-0.000185
C41	C	0.179425	0.463701	0.333149
C42	C	0.512759	0.797035	0.666482
C43	C	-0.090816	0.175302	-0.000119
C44	C	0.242518	0.508636	0.333215
C45	C	0.575851	0.841969	0.666548
C46	C	-0.026642	0.147408	-0.000085
C47	C	0.306691	0.480742	0.333249
C48	C	0.640024	0.814075	0.666582
C49	C	-0.025568	0.074586	-0.000091
C50	C	0.307766	0.407920	0.333242
C51	C	0.641099	0.741253	0.666575
N52	N	-0.045139	0.295978	0.092935
N53	N	0.288194	0.629311	0.426269
N54	N	0.621527	0.962644	0.759602
N55	N	-0.046164	0.365155	0.092945
N56	N	0.287169	0.698488	0.426278
N57	N	0.620502	1.031822	0.759612
C58	C	-0.094050	0.394712	-0.000103
C59	C	0.239284	0.728045	0.333231
C60	C	0.572617	1.061378	0.666564
N61	N	-0.140882	0.352476	-0.093140
N62	N	0.192451	0.685810	0.240194
N63	N	0.525785	1.019143	0.573527
N64	N	-0.139859	0.283292	-0.093142
N65	N	0.193475	0.616626	0.240191
N66	N	0.526808	0.949959	0.573525
C67	C	-0.091974	0.254267	-0.000113
C68	C	0.241359	0.587600	0.333221
C69	C	0.574693	0.920933	0.666554
C70	C	-0.159386	0.501561	-0.000159
C71	C	0.173947	0.834894	0.333175
C72	C	0.507280	1.168227	0.666508
C73	C	-0.160460	0.574385	-0.000179
C74	C	0.172873	0.907719	0.333154
C75	C	0.506206	1.241052	0.666488
C76	C	-0.033193	0.591425	-0.000062
C77	C	0.300141	0.924758	0.333271
C78	C	0.633474	1.258091	0.666604
C79	C	-0.032121	0.518601	-0.000059
C80	C	0.301213	0.851934	0.333275
C81	C	0.634546	1.185268	0.666608
C82	C	-0.095220	0.473673	-0.000099
C83	C	0.238114	0.807006	0.333234
C84	C	0.571447	1.140340	0.666568
C85	C	-0.220684	0.819000	-0.000244
C86	C	0.112650	1.152333	0.333089
C87	C	0.445983	1.485666	0.666422
C88	C	-0.298188	0.820140	-0.000322
C89	C	0.035145	1.153474	0.333011
C90	C	0.368478	1.486807	0.666344
C91	C	-0.343113	0.757049	-0.000291
C92	C	-0.009780	1.090383	0.333042
C93	C	0.323553	1.423716	0.666376
C94	C	-0.415937	0.758121	-0.000254
C95	C	-0.082604	1.091454	0.333079
C96	C	0.250730	1.424788	0.666413
C97	C	-0.443833	0.822287	-0.000215
C98	C	-0.110499	1.155620	0.333118
C99	C	0.222834	1.488954	0.666452
C100	C	-0.398897	0.885386	-0.000256
C101	C	-0.065564	1.218720	0.333078
C102	C	0.267769	1.552053	0.666411
C103	C	-0.326075	0.884313	-0.000309
C104	C	0.007258	1.217646	0.333024
C105	C	0.340591	1.550980	0.666357
N106	N	-0.551800	0.871332	0.092875
N107	N	-0.218466	1.204665	0.426208
N108	N	0.114867	1.537999	0.759542
N109	N	-0.620978	0.872347	0.092930
N110	N	-0.287645	1.205681	0.426263
N111	N	0.045689	1.539014	0.759596
C112	C	-0.663241	0.825525	-0.000057
C113	C	-0.329908	1.158859	0.333276
C114	C	0.003426	1.492192	0.666610
N115	N	-0.633713	0.777639	-0.093080
N116	N	-0.300380	1.110972	0.240254
N117	N	0.032953	1.444305	0.573587
N118	N	-0.564529	0.776621	-0.093127
N119	N	-0.231195	1.109954	0.240207
N120	N	0.102138	1.443288	0.573540
C121	C	-0.522795	0.823458	-0.000158
C122	C	-0.189462	1.156792	0.333175
C123	C	0.143872	1.490125	0.666509
C124	C	-0.787131	0.763592	0.000012
C125	C	-0.453797	1.096925	0.333345
C126	C	-0.120464	1.430259	0.666679
C127	C	-0.859955	0.764666	0.000039
C128	C	-0.526622	1.098000	0.333372
C129	C	-0.193289	1.431333	0.666706
C130	C	-0.842914	0.891934	0.000054
C131	C	-0.509581	1.225267	0.333387
C132	C	-0.176247	1.558600	0.666721
C133	C	-0.770091	0.890857	0.000010
C134	C	-0.436758	1.224191	0.333344
C135	C	-0.103424	1.557524	0.666677
C136	C	-0.742204	0.826685	-0.000003
C137	C	-0.408871	1.160018	0.333331
C138	C	-0.075537	1.493351	0.666664
C139	C	0.034650	0.829974	0.000008
C140	C	0.367983	1.163307	0.333341
C141	C	0.701317	1.496640	0.666675
C142	C	0.112154	0.828833	0.000075
C143	C	0.445488	1.162166	0.333409
C144	C	0.778821	1.495500	0.666742
C145	C	-0.087527	0.952154	-0.000118
C146	C	0.245806	1.285487	0.333215
C147	C	0.579139	1.618820	0.666549
C148	C	-0.088666	1.029658	-0.000132
C149	C	0.244667	1.362992	0.333202
C150	C	0.578000	1.696325	0.666535
N151	N	-0.093015	0.824483	0.425560
N152	N	0.240319	1.157816	0.758894
N153	N	0.573652	1.491149	1.092227
N154	N	-0.093014	0.824496	-0.425793
N155	N	0.240320	1.157830	-0.092460
N156	N	0.573653	1.491163	0.240873
H157	H	0.024728	0.183999	-0.000036
H158	H	0.358061	0.517332	0.333298
H159	H	0.691394	0.850665	0.666631
H160	H	0.018178	0.628010	-0.000021
H161	H	0.351511	0.961343	0.333312
H162	H	0.684845	1.294676	0.666645
C163	C	-0.224492	0.161051	-0.000225
C164	C	0.108841	0.494385	0.333108
C165	C	0.442175	0.827718	0.666442
H166	H	-0.261916	0.123864	-0.000242
H167	H	0.071417	0.457197	0.333092
H168	H	0.404750	0.790531	0.666425
H169	H	-0.227562	0.189111	-0.095501
H170	H	0.105772	0.522444	0.237832
H171	H	0.439105	0.855777	0.571166
H172	H	-0.227547	0.189099	0.095072
H173	H	0.105786	0.522433	0.428405
H174	H	0.439120	0.855766	0.761738
C175	C	-0.429576	0.955969	-0.000209
C176	C	-0.096243	1.289302	0.333124
C177	C	0.237091	1.622636	0.666458
H178	H	-0.392387	0.993392	-0.000247
H179	H	-0.059054	1.326725	0.333087
H180	H	0.274280	1.660059	0.666420
H181	H	-0.457599	0.959032	0.095094
H182	H	-0.124265	1.292365	0.428427
H183	H	0.209068	1.625699	0.761760
H184	H	-0.457660	0.959034	-0.095479
H185	H	-0.124327	1.292367	0.237854
H186	H	0.209007	1.625701	0.571188
H187	H	-0.320413	0.704795	-0.000316
H188	H	0.012920	1.038128	0.333017
H189	H	0.346254	1.371461	0.666350
H190	H	0.020129	0.495896	-0.000014
H191	H	0.353463	0.829230	0.333319
H192	H	0.686796	1.162563	0.666653
C193	C	0.045017	0.043910	-0.000028
C194	C	0.378350	0.377243	0.333305
C195	C	0.711683	0.710577	0.666638
H196	H	0.082440	0.081099	0.000017
H197	H	0.415773	0.414432	0.333351
H198	H	0.749106	0.747765	0.666684
H199	H	0.048080	0.015856	-0.095302
H200	H	0.381413	0.349190	0.238031
H201	H	0.714746	0.682523	0.571365
H202	H	0.048081	0.015856	0.095271
H203	H	0.381414	0.349190	0.428604
H204	H	0.714748	0.682523	0.761937
H205	H	-0.865626	0.944179	-0.000034
H206	H	-0.532292	1.277512	0.333299
H207	H	-0.198959	1.610846	0.666633
H208	H	-0.204212	0.020968	-0.000216
H209	H	0.129122	0.354302	0.333118
H210	H	0.462455	0.687635	0.666451
H211	H	-0.210765	0.464978	-0.000195
H212	H	0.122568	0.798312	0.333139
H213	H	0.455902	1.131645	0.666472
C214	C	-0.231045	0.605060	-0.000222
C215	C	0.102288	0.938394	0.333111
C216	C	0.435621	1.271727	0.666444
H217	H	-0.268468	0.567871	-0.000231
H218	H	0.064866	0.901204	0.333102
H219	H	0.398199	1.234537	0.666436
H220	H	-0.234118	0.633117	-0.095503
H221	H	0.099215	0.966450	0.237831
H222	H	0.432548	1.299783	0.571164
H223	H	-0.234101	0.633111	0.095070
H224	H	0.099232	0.966444	0.428403
H225	H	0.432566	1.299777	0.761737
H226	H	-0.452522	0.706743	-0.000225
H227	H	-0.119189	1.040076	0.333108
H228	H	0.214144	1.373410	0.666442
H229	H	-0.289496	0.935691	-0.000336
H230	H	0.043837	1.269024	0.332997
H231	H	0.377170	1.602358	0.666330
H232	H	-0.764424	0.711339	0.000011
H233	H	-0.431091	1.044672	0.333344
H234	H	-0.097757	1.378005	0.666678
H235	H	-0.896534	0.713288	0.000053
H236	H	-0.563200	1.046621	0.333387
H237	H	-0.229867	1.379954	0.666720
H238	H	-0.733512	0.942233	-0.000004
H239	H	-0.400178	1.275567	0.333329
H240	H	-0.066845	1.608900	0.666662
