data_functionalizedCrystal
_audit_creation_method	'MofGen! by Chris Wilmer'
_symmetry_space_group_name_H-M	'P1'
_symmetry_Int_Tables_number	1
_symmetry_cell_setting	triclinic
loop_
_symmetry_equiv_pos_as_xyz
  x,y,z
_cell_length_a	14.628931
_cell_length_b	20.875492
_cell_length_c	20.875641
_cell_angle_alpha	60.662107
_cell_angle_beta	90.001288
_cell_angle_gamma	58.317473
loop_
_atom_site_label
_atom_site_type_symbol
_atom_site_fract_x
_atom_site_fract_y
_atom_site_fract_z
Zr1	Zr	0.832656	0.731507	-0.117949
O2	O	0.682366	0.864503	-0.223426
O3	O	0.885686	0.593227	-0.080715
O4	O	0.883107	0.723888	-0.216362
O5	O	0.679064	0.741695	0.013649
O6	O	1.033539	0.723888	-0.216363
O7	O	0.684945	0.733842	-0.087779
O8	O	1.038153	0.490160	0.026285
O9	O	0.674450	0.975423	-0.228999
O10	O	1.012161	0.652060	-0.070754
O11	O	0.895506	0.657920	0.004941
O12	O	0.892470	0.811757	-0.154766
O13	O	0.775815	0.817617	-0.079071
Zr14	Zr	1.063197	0.744030	0.043818
Zr15	Zr	1.072577	0.731507	-0.117949
Zr16	Zr	0.823275	0.744030	0.043818
Zr17	Zr	0.820031	0.908411	-0.126836
Zr18	Zr	1.075822	0.567126	0.052705
O19	O	1.010166	0.882310	0.006584
O20	O	1.023504	0.864503	-0.223427
O21	O	0.669029	0.882310	0.006585
O22	O	1.213486	0.611034	0.149296
O23	O	1.226824	0.593227	-0.080716
O24	O	0.872349	0.611034	0.149296
O25	O	1.216789	0.733842	-0.087780
O26	O	1.012745	0.751649	0.142232
O27	O	0.862313	0.751649	0.142232
O28	O	1.210907	0.741695	0.013648
O29	O	0.865156	0.975423	-0.228999
O30	O	1.030697	0.500114	0.154868
O31	O	1.221402	0.500114	0.154868
O32	O	1.228858	0.490160	0.026285
O33	O	0.666994	0.985377	-0.100416
O34	O	0.857700	0.985377	-0.100416
O35	O	1.003383	0.663780	0.080635
O36	O	1.120038	0.657920	0.004940
O37	O	1.000346	0.817617	-0.079072
O38	O	0.883691	0.823477	-0.003376
C39	C	0.963718	0.516488	-0.025949
C40	C	0.969078	0.441388	-0.022176
C41	C	0.887597	0.462907	-0.079364
C42	C	0.892637	0.392353	-0.075846
C43	C	0.979154	0.300281	-0.015136
C44	C	1.060643	0.278763	0.042055
C45	C	1.055607	0.349316	0.038533
C46	C	1.003228	0.083184	0.001714
C47	C	1.008256	0.012630	0.005233
C48	C	0.840250	0.126226	-0.112669
C49	C	0.835217	0.196775	-0.116183
C50	C	0.916710	0.175250	-0.058994
N51	N	0.984306	0.228163	-0.011538
N52	N	0.911562	0.247368	-0.062596
C53	C	0.647821	0.737769	-0.037065
C54	C	0.545968	0.737769	-0.037065
C55	C	0.503638	0.733657	-0.090168
C56	C	0.398368	0.733657	-0.090169
C57	C	1.248031	0.737769	-0.037066
C58	C	1.349884	0.737769	-0.037066
C59	C	0.959660	0.722104	-0.239411
C60	C	0.963642	0.716787	-0.308085
C61	C	0.932134	0.959049	-0.048182
C62	C	0.926774	1.034149	-0.051955
C63	C	0.903037	0.797647	-0.384202
C64	C	0.906794	0.792646	-0.448725
C65	C	0.971149	0.706784	-0.437131
C66	C	1.031761	0.625918	-0.361007
C67	C	1.028011	0.630920	-0.296484
C68	C	0.989072	0.682886	-0.625399
C69	C	0.992815	0.677890	-0.689929
C70	C	0.867849	0.844619	-0.777644
C71	C	0.864099	0.849613	-0.713116
C72	C	0.924715	0.768747	-0.636998
N73	N	0.974987	0.701670	-0.503084
N74	N	0.920883	0.773862	-0.571047
C75	C	0.936193	0.753434	0.165280
C76	C	0.932211	0.758750	0.233954
C77	C	1.263824	0.516488	-0.025949
C78	C	1.371036	0.441388	-0.022176
C79	C	0.951985	0.532153	0.176397
C80	C	0.953362	0.462369	0.248844
C81	C	1.252090	0.532153	0.176396
C82	C	1.355321	0.462369	0.248843
C83	C	0.643762	0.943384	-0.250527
C84	C	0.540532	1.013168	-0.322974
C85	C	0.632029	0.959049	-0.048182
C86	C	0.524816	1.034149	-0.051954
C87	C	0.943868	0.943384	-0.250528
C88	C	0.942490	1.013168	-0.322975
C89	C	1.365075	0.403060	-0.059923
C90	C	1.465803	0.332504	-0.056394
C91	C	1.572493	0.300272	-0.015113
C92	C	1.578452	0.338607	0.022635
C93	C	1.477724	0.409166	0.019101
C94	C	1.010319	0.432658	0.322384
C95	C	1.011608	0.367099	0.390462
C96	C	0.955946	0.331248	0.384997
C97	C	0.898982	0.360966	0.311449
C98	C	0.897687	0.426529	0.243373
C99	C	1.464701	0.426539	0.243353
C100	C	1.561706	0.360979	0.311418
C101	C	1.549328	0.331246	0.384973
C102	C	1.439935	0.367083	0.390461
C103	C	1.342933	0.432646	0.322397
C104	C	0.431150	1.049006	-0.317484
C105	C	0.334144	1.114588	-0.385550
C106	C	0.346522	1.144326	-0.459105
C107	C	0.455915	1.108484	-0.464593
C108	C	0.552918	1.042908	-0.396528
C109	C	0.530778	1.072484	-0.014215
C110	C	0.430049	1.143058	-0.017763
C111	C	0.323359	1.175292	-0.059046
C112	C	0.317400	1.136955	-0.096791
C113	C	0.418128	1.066386	-0.093247
C114	C	0.998163	1.048998	-0.317485
C115	C	0.996891	1.114559	-0.385550
C116	C	0.939938	1.144292	-0.459104
C117	C	0.884264	1.108455	-0.464592
C118	C	0.885544	1.042891	-0.396528
H119	H	0.773904	0.143740	-0.159230
H120	H	0.837894	1.132674	-0.524490
H121	H	0.386288	0.741293	0.008398
H122	H	0.465980	1.132705	-0.524490
H123	H	0.245081	1.143760	-0.381066
H124	H	1.069585	0.065646	0.048281
H125	H	0.504278	0.741283	0.008401
H126	H	1.042226	1.143731	-0.381066
H127	H	1.650770	0.331807	0.306935
H128	H	0.641980	1.013728	-0.401007
H129	H	0.826286	0.409883	-0.122414
H130	H	0.817133	0.537874	-0.128793
H131	H	0.764782	0.271741	-0.165629
H132	H	1.665332	0.312353	0.056245
H133	H	1.084167	0.556008	-0.351571
H134	H	0.617640	1.046244	0.019408
H135	H	1.131092	0.203791	0.091483
H136	H	1.078710	-0.062342	0.054674
H137	H	0.434923	1.174261	0.012977
H138	H	0.938905	1.197680	-0.514521
H139	H	1.057999	0.342910	0.450341
H140	H	1.654503	0.242817	-0.012240
H141	H	1.429874	0.342864	0.450358
H142	H	0.840203	1.013725	-0.401009
H143	H	1.055646	0.461841	0.326849
H144	H	1.121958	0.331788	0.085102
H145	H	0.850624	0.867565	-0.393652
H146	H	0.957010	0.277863	0.440435
H147	H	1.077361	0.565075	-0.234507
H148	H	1.628323	0.277859	0.440389
H149	H	0.853664	0.331766	0.307011
H150	H	1.038431	0.617039	-0.563429
H151	H	1.278212	0.429302	-0.093548
H152	H	1.253874	0.461811	0.326878
H153	H	0.267526	1.197722	-0.514522
H154	H	0.857445	0.858491	-0.510701
H155	H	0.811697	0.919531	-0.722566
H156	H	1.482594	0.440364	0.049844
H157	H	0.421050	1.024798	-0.257598
H158	H	0.361950	0.730143	-0.135636
H159	H	0.545334	0.730133	-0.135629
H160	H	0.241349	1.232754	-0.061926
H161	H	1.460929	0.301300	-0.087133
H162	H	0.230520	1.163211	-0.130404
H163	H	1.044541	1.024800	-0.257599
H164	H	0.851310	0.450711	0.183496
H165	H	0.818499	0.910455	-0.839624
H166	H	1.474802	0.450738	0.183468
H167	H	1.045221	0.607968	-0.680480
H168	H	0.413258	1.035176	-0.123978
