data_functionalizedCrystal
_audit_creation_method	'MofGen! by Chris Wilmer'
_symmetry_space_group_name_H-M	'P1'
_symmetry_Int_Tables_number	1
_symmetry_cell_setting	triclinic
loop_
_symmetry_equiv_pos_as_xyz
  x,y,z
_cell_length_a	11.792241
_cell_length_b	14.472310
_cell_length_c	11.792254
_cell_angle_alpha	90.001185
_cell_angle_beta	84.196007
_cell_angle_gamma	90.008847
loop_
_atom_site_label
_atom_site_type_symbol
_atom_site_fract_x
_atom_site_fract_y
_atom_site_fract_z
O1	O	1.506931	0.076752	0.155559
O2	O	1.840264	0.410085	0.488893
O3	O	2.173597	0.743418	0.822226
O4	O	1.176590	0.076773	0.171592
O5	O	1.509924	0.410107	0.504925
O6	O	1.843257	0.743440	0.838259
O7	O	1.349769	0.076755	-0.001594
O8	O	1.683103	0.410089	0.331739
O9	O	2.016436	0.743422	0.665073
O10	O	1.333752	0.076770	0.328745
O11	O	1.667085	0.410103	0.662079
O12	O	2.000418	0.743436	0.995412
O13	O	1.349725	-0.076927	-0.001584
O14	O	1.683058	0.256407	0.331749
O15	O	2.016391	0.589740	0.665083
O16	O	1.176546	-0.076909	0.171602
O17	O	1.509879	0.256425	0.504935
O18	O	1.843212	0.589758	0.838269
O19	O	1.506886	-0.076930	0.155569
O20	O	1.840219	0.256403	0.488902
O21	O	2.173553	0.589736	0.822236
Cu22	Cu	1.341712	-0.090952	0.163586
Cu23	Cu	1.675045	0.242381	0.496920
Cu24	Cu	2.008378	0.575715	0.830253
Cu25	Cu	1.341765	0.090795	0.163575
Cu26	Cu	1.675098	0.424128	0.496908
Cu27	Cu	2.008431	0.757461	0.830241
O28	O	1.333707	-0.076912	0.328755
O29	O	1.667040	0.256421	0.662088
O30	O	2.000373	0.589754	0.995422
C31	C	1.134277	-0.000065	0.170590
C32	C	1.467610	0.333268	0.503923
C33	C	1.800944	0.666602	0.837257
C34	C	1.008263	-0.000057	0.167576
C35	C	1.341596	0.333276	0.500909
C36	C	1.674930	0.666610	0.834242
C37	C	0.777551	-0.000084	0.162033
C38	C	1.110884	0.333250	0.495366
C39	C	1.444217	0.666583	0.828699
C40	C	0.905936	-0.000069	0.165112
C41	C	1.239269	0.333264	0.498446
C42	C	1.572603	0.666598	0.831779
N43	N	1.341683	-0.218783	0.163594
N44	N	1.675016	0.114550	0.496927
N45	N	2.008349	0.447884	0.830261
C46	C	1.341763	-0.592874	0.163570
C47	C	1.675096	-0.259541	0.496904
C48	C	2.008430	0.073793	0.830237
C49	C	1.248784	-0.553699	0.255924
C50	C	1.582117	-0.220365	0.589257
C51	C	1.915450	0.112968	0.922591
C52	C	1.249002	-0.446611	0.256264
C53	C	1.582335	-0.113277	0.589598
C54	C	1.915668	0.220056	0.922931
C55	C	1.341722	-0.407283	0.163582
C56	C	1.675055	-0.073950	0.496915
C57	C	2.008389	0.259384	0.830249
C58	C	1.460310	-0.446127	0.190177
C59	C	1.793644	-0.112793	0.523510
C60	C	2.126977	0.220540	0.856844
C61	C	1.459789	-0.553248	0.190835
C62	C	1.793122	-0.219915	0.524168
C63	C	2.126456	0.113419	0.857501
C64	C	1.317209	-0.553407	0.044352
C65	C	1.650542	-0.220073	0.377686
C66	C	1.983876	0.113260	0.711019
C67	C	1.314498	-0.446279	0.045130
C68	C	1.647831	-0.112946	0.378463
C69	C	1.981164	0.220388	0.711796
C70	C	1.341707	-0.302395	0.163586
C71	C	1.675040	0.030938	0.496920
C72	C	2.008373	0.364272	0.830253
C73	C	1.341786	-0.697762	0.163568
C74	C	1.675120	-0.364429	0.496902
C75	C	2.008453	-0.031096	0.830235
C76	C	1.549199	-0.000090	0.156571
C77	C	1.882533	0.333243	0.489905
C78	C	2.215866	0.666577	0.823238
C79	C	1.675213	-0.000092	0.159586
C80	C	2.008546	0.333241	0.492919
C81	C	2.341880	0.666575	0.826252
C82	C	1.348738	-0.000085	-0.043880
C83	C	1.682071	0.333248	0.289454
C84	C	2.015405	0.666581	0.622787
C85	C	1.345718	-0.000084	-0.169893
C86	C	1.679051	0.333249	0.163441
C87	C	2.012385	0.666582	0.496774
N88	N	1.341802	0.218626	0.163558
N89	N	1.675136	0.551959	0.496892
N90	N	2.008469	0.885292	0.830225
C91	C	1.343264	-0.000081	-0.272229
C92	C	1.676597	0.333253	0.061104
C93	C	2.009931	0.666586	0.394437
C94	C	1.340196	-0.000072	-0.400616
C95	C	1.673529	0.333261	-0.067283
C96	C	2.006862	0.666595	0.266051
C97	C	1.334738	-0.000070	0.371041
C98	C	1.668071	0.333264	0.704374
C99	C	2.001405	0.666597	1.037708
C100	C	1.337758	-0.000065	0.497054
C101	C	1.671092	0.333269	0.830387
C102	C	2.004425	0.666602	1.163721
H103	H	1.160876	-0.420350	0.240311
H104	H	1.494210	-0.087016	0.573645
H105	H	1.827543	0.246317	0.906978
H106	H	1.377764	-0.419512	-0.026872
H107	H	1.711098	-0.086179	0.306461
H108	H	2.044431	0.247155	0.639795
Br109	Br	1.169092	-0.403970	0.011513
Br110	Br	1.502425	-0.070636	0.344846
Br111	Br	1.835759	0.262697	0.678179
H112	H	1.232572	-0.580470	0.018960
H113	H	1.565905	-0.247136	0.352293
H114	H	1.899239	0.086197	0.685627
Br115	Br	1.430207	-0.595628	-0.070211
Br116	Br	1.763540	-0.262295	0.263122
Br117	Br	2.096873	0.071039	0.596455
H118	H	1.160375	-0.579481	0.240223
H119	H	1.493708	-0.246148	0.573556
H120	H	1.827041	0.087185	0.906890
H121	H	1.264327	-0.580606	0.343880
H122	H	1.597660	-0.247272	0.677213
H123	H	1.930993	0.086061	1.010546
Br124	Br	1.275209	-0.403872	0.403709
Br125	Br	1.608543	-0.070539	0.737043
Br126	Br	1.941876	0.262794	1.070376
H127	H	1.481314	-0.578222	0.277801
H128	H	1.814648	-0.244888	0.611135
H129	H	2.147981	0.088445	0.944468
Br130	Br	1.578517	-0.596445	0.082923
Br131	Br	1.911850	-0.263111	0.416256
Br132	Br	2.245183	0.070222	0.749590
H133	H	1.531183	-0.420650	0.124731
H134	H	1.864517	-0.087317	0.458064
H135	H	2.197850	0.246016	0.791398
Br136	Br	1.497022	-0.401395	0.333482
Br137	Br	1.830355	-0.068061	0.666815
Br138	Br	2.163688	0.265272	1.000148
