data_functionalizedCrystal
_audit_creation_method	'MofGen! by Chris Wilmer'
_symmetry_space_group_name_H-M	'P1'
_symmetry_Int_Tables_number	1
_symmetry_cell_setting	triclinic
loop_
_symmetry_equiv_pos_as_xyz
  x,y,z
_cell_length_a	12.759401
_cell_length_b	12.759400
_cell_length_c	12.759393
_cell_angle_alpha	89.974461
_cell_angle_beta	90.018496
_cell_angle_gamma	89.995846
loop_
_atom_site_label
_atom_site_type_symbol
_atom_site_fract_x
_atom_site_fract_y
_atom_site_fract_z
Zn1	Zn	-1.606334	-0.418200	-0.594025
Zn2	Zn	-1.606261	-0.593919	-0.418364
Zn3	Zn	-1.430636	-0.418255	-0.418365
Zn4	Zn	-1.430657	-0.593838	-0.594005
O5	O	-1.518472	-0.506053	-0.506190
O6	O	-1.753345	-0.441520	-0.570732
O7	O	-1.582924	-0.570673	-0.271343
O8	O	-1.453964	-0.271226	-0.441675
O9	O	-1.753291	-0.570620	-0.441674
O10	O	-1.583048	-0.271186	-0.570732
O11	O	-1.453893	-0.441614	-0.271344
O12	O	-1.283617	-0.441535	-0.441656
O13	O	-1.454000	-0.570482	-0.741029
O14	O	-1.283633	-0.570535	-0.570698
O15	O	-1.583069	-0.441442	-0.741044
O16	O	-1.582945	-0.740929	-0.441655
O17	O	-1.453930	-0.740869	-0.570698
C18	C	-1.245504	-0.506033	-0.506176
C19	C	-1.128728	-0.506050	-0.506194
C20	C	-1.518460	-0.779020	-0.506197
C21	C	-1.518552	-0.895797	-0.506235
C22	C	-1.518545	-0.505947	-0.780223
C23	C	-1.518577	-0.505902	-0.897000
C24	C	-1.792505	-0.506073	-0.506205
C25	C	-1.909282	-0.506082	-0.506211
C26	C	-1.073901	-0.573328	-0.573276
C27	C	-0.964177	-0.573342	-0.573287
C28	C	-0.964116	-0.438796	-0.439127
C29	C	-1.073838	-0.438778	-0.439122
C30	C	-1.073936	-0.651010	-0.650729
C31	C	-0.964212	-0.651024	-0.650740
C32	C	-1.518512	-0.232019	-0.506206
C33	C	-1.518529	-0.115243	-0.506213
C34	C	-1.585755	0.049367	-0.573419
C35	C	-1.585741	-0.060357	-0.573412
C36	C	-1.451318	-0.060399	-0.439025
C37	C	-1.451327	0.049323	-0.439039
C38	C	-1.663366	0.049390	-0.651003
C39	C	-1.663352	-0.060334	-0.650995
C40	C	-1.585792	-0.438704	-0.951871
C41	C	-1.585817	-0.438666	-1.061596
C42	C	-1.451408	-0.573032	-1.061567
C43	C	-1.451379	-0.573064	-0.951845
C44	C	-1.663395	-0.361131	-0.951889
C45	C	-1.663420	-0.361093	-1.061613
C46	C	-1.518459	-0.506083	-0.233223
C47	C	-1.518631	-0.505832	-0.116446
H48	H	-1.118473	-0.383987	-0.384505
N49	N	-1.624766	-0.105377	-0.753374
H50	H	-1.671611	-0.080937	-0.812343
H51	H	-1.626152	-0.184427	-0.749538
N52	N	-1.771194	-0.389979	-1.101082
H53	H	-1.799998	-0.330782	-1.145074
H54	H	-1.819198	-0.402920	-1.039500
N55	N	-1.771118	-0.099804	-0.622130
H56	H	-1.819217	-0.038276	-0.609247
H57	H	-1.766336	-0.143834	-0.556504
H58	H	-1.396696	-0.627712	-1.106236
H59	H	-1.107965	-0.728262	-0.621453
H60	H	-1.634292	-0.283784	-1.095653
H61	H	-1.396642	-0.627779	-0.907173
N62	N	-0.919206	-0.612531	-0.753203
H63	H	-0.874656	-0.669412	-0.785506
H64	H	-0.874698	-0.548426	-0.740005
H65	H	-1.103740	-0.629311	-0.732133
N66	N	-0.904913	-0.366257	-0.366771
H67	H	-0.827084	-0.376479	-0.376949
H68	H	-0.924072	-0.382534	-0.291715
N69	N	-0.924752	-0.758773	-0.621701
H70	H	-0.986284	-0.806845	-0.608726
H71	H	-0.880718	-0.753941	-0.556091
H72	H	-1.396596	0.093970	-0.384342
N73	N	-1.634524	-0.253365	-0.912453
H74	H	-1.634495	-0.253346	-0.833296
H75	H	-1.687308	-0.200617	-0.938901
H76	H	-1.396585	-0.105095	-0.384318
H77	H	-1.641601	0.079192	-0.732377
H78	H	-1.740672	-0.390300	-0.917856
N79	N	-1.765738	0.094457	-0.612398
H80	H	-1.824716	0.070048	-0.659219
H81	H	-1.761917	0.173507	-0.613806
