data_functionalizedCrystal
_audit_creation_method	'MofGen! by Chris Wilmer'
_symmetry_space_group_name_H-M	'P1'
_symmetry_Int_Tables_number	1
_symmetry_cell_setting	triclinic
loop_
_symmetry_equiv_pos_as_xyz
  x,y,z
_cell_length_a	6.817900
_cell_length_b	17.078509
_cell_length_c	17.078481
_cell_angle_alpha	96.871901
_cell_angle_beta	99.306161
_cell_angle_gamma	99.306544
loop_
_atom_site_label
_atom_site_type_symbol
_atom_site_fract_x
_atom_site_fract_y
_atom_site_fract_z
V1	V	-3.958856	-0.109582	-0.247282
V2	V	-3.458856	0.390418	0.252718
O3	O	-3.969080	0.005456	-0.242657
O4	O	-3.469080	0.505456	0.257343
O5	O	-3.890238	-0.217466	-0.245511
O6	O	-3.390238	0.282534	0.254489
O7	O	-3.890237	-0.107813	-0.355166
O8	O	-3.390237	0.392187	0.144834
O9	O	-3.969081	-0.104956	-0.132243
O10	O	-3.469081	0.395044	0.367757
V11	V	-4.447724	-0.095832	-0.233532
V12	V	-3.947724	0.404168	0.266468
O13	O	-4.208391	-0.139744	-0.277443
O14	O	-3.708391	0.360256	0.222557
O15	O	-4.648386	-0.065670	-0.203370
O16	O	-4.148386	0.434330	0.296630
O17	O	-4.293135	0.012052	-0.235302
O18	O	-3.793135	0.512052	0.264698
O19	O	-4.554897	-0.210870	-0.238156
O20	O	-4.054897	0.289130	0.261844
O21	O	-4.554895	-0.100458	-0.348570
O22	O	-4.054895	0.399542	0.151430
O23	O	-4.293136	-0.097601	-0.125647
O24	O	-3.793136	0.402399	0.374353
C25	C	-3.730975	-0.243768	-0.241590
C26	C	-3.230975	0.256232	0.258410
C27	C	-3.756024	-0.331964	-0.240861
C28	C	-3.256024	0.168036	0.259139
C29	C	-3.877573	-0.827981	-0.236343
C30	C	-3.377573	-0.327981	0.263657
C31	C	-3.854053	-0.745112	-0.237031
C32	C	-3.354053	-0.245112	0.262969
C33	C	-4.022888	-0.707718	-0.241325
C34	C	-3.522888	-0.207718	0.258675
C35	C	-4.215259	-0.753198	-0.244940
C36	C	-3.715259	-0.253198	0.255060
C37	C	-4.238779	-0.836066	-0.244258
C38	C	-3.738779	-0.336066	0.255742
C39	C	-3.971914	-0.460313	-0.243794
C40	C	-3.471914	0.039687	0.256206
C41	C	-3.948379	-0.377438	-0.244473
C42	C	-3.448379	0.122562	0.255527
C43	C	-3.587174	-0.369358	-0.236566
C44	C	-3.087174	0.130642	0.263434
C45	C	-3.610709	-0.452227	-0.235879
C46	C	-3.110709	0.047773	0.264121
C47	C	-3.803078	-0.497701	-0.239498
C48	C	-3.303078	0.002299	0.260502
N49	N	-3.998851	-0.623012	-0.242025
N50	N	-3.498851	-0.123012	0.257975
N51	N	-3.827115	-0.582406	-0.238803
N52	N	-3.327115	-0.082406	0.261197
C53	C	-3.730973	-0.103894	-0.381464
C54	C	-3.230973	0.396106	0.118536
C55	C	-3.756019	-0.103161	-0.469660
C56	C	-3.256019	0.396839	0.030340
C57	C	-3.948376	-0.106777	-0.515133
C58	C	-3.448376	0.393223	-0.015133
C59	C	-3.971898	-0.106088	-0.598001
C60	C	-3.471898	0.393912	-0.098001
C61	C	-3.803062	-0.101789	-0.635396
C62	C	-3.303062	0.398211	-0.135396
C63	C	-3.610689	-0.098170	-0.589917
C64	C	-3.110689	0.401830	-0.089917
C65	C	-3.587168	-0.098853	-0.507049
C66	C	-3.087168	0.401147	-0.007049
C67	C	-3.854041	-0.099316	-0.882801
C68	C	-3.354041	0.400684	-0.382801
C69	C	-3.877579	-0.098635	-0.965676
C70	C	-3.377579	0.401365	-0.465676
C71	C	-4.238786	-0.106552	-0.973755
C72	C	-3.738786	0.393448	-0.473755
C73	C	-4.215249	-0.107240	-0.890885
C74	C	-3.715249	0.392760	-0.390885
C75	C	-4.022878	-0.103617	-0.845412
C76	C	-3.522878	0.396383	-0.345412
N77	N	-3.827102	-0.101087	-0.720102
N78	N	-3.327102	0.398913	-0.220102
N79	N	-3.998839	-0.104313	-0.760708
N80	N	-3.498839	0.395687	-0.260708
C81	C	-4.115740	0.038350	-0.239221
C82	C	-3.615740	0.538350	0.260779
C83	C	-4.069928	0.126545	-0.239955
C84	C	-3.569928	0.626545	0.260045
C85	C	-4.115743	-0.101523	-0.099345
C86	C	-3.615743	0.398477	0.400655
C87	C	-4.069936	-0.102251	-0.011149
C88	C	-3.569936	0.397749	0.488851
H89	H	-4.085867	-0.110284	-0.484693
H90	H	-3.585867	0.389716	0.015307
H91	H	-4.085873	-0.346993	-0.247962
H92	H	-3.585873	0.153007	0.252038
H93	H	-3.430554	-0.332325	-0.233621
H94	H	-2.930554	0.167675	0.266379
O95	O	-4.397369	-0.111870	-0.850564
O96	O	-3.897369	0.388130	-0.350564
H97	H	-4.413461	-0.166693	-0.821438
H98	H	-3.913461	0.333307	-0.321438
O99	O	-3.428590	-0.492549	-0.231250
O100	O	-2.928590	0.007451	0.268750
H101	H	-3.412501	-0.521673	-0.176427
H102	H	-2.912501	-0.021673	0.323573
H103	H	-3.473220	-0.094665	-0.620369
H104	H	-2.973220	0.405335	-0.120369
O105	O	-3.379700	-0.094959	-0.457997
O106	O	-2.879700	0.405041	0.042003
H107	H	-3.266250	-0.091863	-0.497922
H108	H	-2.766250	0.408137	0.002078
H109	H	-3.740085	-0.858421	-0.232848
H110	H	-3.240085	-0.358421	0.267152
O111	O	-3.695460	-0.093998	-1.006007
O112	O	-3.195460	0.406002	-0.506007
H113	H	-3.744147	-0.094143	-1.071271
H114	H	-3.244147	0.405857	-0.571271
H115	H	-4.395408	-0.109501	-1.010787
H116	H	-3.895408	0.390499	-0.510787
H117	H	-4.128549	-0.497327	-0.246739
H118	H	-3.628549	0.002673	0.253261
H119	H	-4.128530	-0.109029	-0.635022
H120	H	-3.628530	0.390971	-0.135022
H121	H	-3.697420	-0.708090	-0.234088
H122	H	-3.197420	-0.208090	0.265912
H123	H	-4.352728	-0.722746	-0.248441
H124	H	-3.852728	-0.222746	0.251559
O125	O	-4.446244	-0.885118	-0.248146
O126	O	-3.946244	-0.385118	0.251854
H127	H	-4.559694	-0.845194	-0.251238
H128	H	-4.059694	-0.345194	0.248762
O129	O	-3.646571	-0.095419	-0.833761
O130	O	-3.146571	0.404581	-0.333761
H131	H	-3.533132	-0.092326	-0.873690
H132	H	-3.033132	0.407674	-0.373690
