data_functionalizedCrystal
_audit_creation_method	'MofGen! by Chris Wilmer'
_symmetry_space_group_name_H-M	'P1'
_symmetry_Int_Tables_number	1
_symmetry_cell_setting	triclinic
loop_
_symmetry_equiv_pos_as_xyz
  x,y,z
_cell_length_a	13.032831
_cell_length_b	12.759399
_cell_length_c	12.759393
_cell_angle_alpha	90.032479
_cell_angle_beta	82.806365
_cell_angle_gamma	97.171589
loop_
_atom_site_label
_atom_site_type_symbol
_atom_site_fract_x
_atom_site_fract_y
_atom_site_fract_z
Zn1	Zn	1.597652	0.622478	-0.797692
Zn2	Zn	2.097652	1.122478	-0.297692
Zn3	Zn	1.597519	0.798180	-0.621993
Zn4	Zn	2.097519	1.298180	-0.121993
Zn5	Zn	1.422888	0.600188	-0.599747
Zn6	Zn	1.922888	1.100188	-0.099747
Zn7	Zn	1.422849	0.775765	-0.775362
Zn8	Zn	1.922849	1.275765	-0.275362
O9	O	1.510227	0.699153	-0.698698
O10	O	2.010227	1.199153	-0.198698
O11	O	1.743874	0.664495	-0.793040
O12	O	2.243874	1.164495	-0.293040
O13	O	1.574315	0.771968	-0.472016
O14	O	2.074315	1.271968	0.027984
O15	O	1.446142	0.456133	-0.626041
O16	O	1.946142	0.956133	-0.126041
O17	O	1.743776	0.793582	-0.663955
O18	O	2.243776	1.293582	-0.163955
O19	O	1.574540	0.472509	-0.771470
O20	O	2.074540	0.972509	-0.271470
O21	O	1.446014	0.626504	-0.455672
O22	O	1.946014	1.126504	0.044328
O23	O	1.276643	0.604769	-0.604388
O24	O	1.776643	1.104769	-0.104388
O25	O	1.446076	0.755380	-0.925350
O26	O	1.946076	1.255380	-0.425350
O27	O	1.276615	0.733765	-0.733411
O28	O	1.776615	1.233765	-0.233411
O29	O	1.574503	0.642760	-0.941756
O30	O	2.074503	1.142760	-0.441756
O31	O	1.574277	0.942219	-0.642302
O32	O	2.074277	1.442219	-0.142302
O33	O	1.445948	0.925751	-0.754982
O34	O	1.945948	1.425751	-0.254982
C35	C	1.238711	0.664417	-0.664063
C36	C	1.738711	1.164417	-0.164063
C37	C	1.122555	0.649582	-0.649271
C38	C	1.622555	1.149582	-0.149271
C39	C	1.070782	0.706895	-0.706419
C40	C	1.570782	1.206895	-0.206419
C41	C	0.950729	0.691564	-0.691131
C42	C	1.450729	1.191564	-0.191131
C43	C	1.510123	0.972107	-0.698659
C44	C	2.010123	1.472107	-0.198659
C45	C	1.510173	1.088890	-0.698690
C46	C	2.010173	1.588890	-0.198690
C47	C	1.576993	1.152185	-0.774465
C48	C	2.076993	1.652185	-0.274465
C49	C	1.577034	1.261914	-0.774496
C50	C	2.077034	1.761914	-0.274496
C51	C	1.443434	1.245044	-0.622966
C52	C	1.943434	1.745044	-0.122966
C53	C	1.443388	1.135316	-0.622941
C54	C	1.943388	1.635316	-0.122941
C55	C	1.782804	0.734025	-0.733470
C56	C	2.282804	1.234025	-0.233470
C57	C	1.898959	0.748886	-0.748287
C58	C	2.398959	1.248886	-0.248287
C59	C	1.510321	1.425132	-0.698753
C60	C	2.010321	1.925132	-0.198753
C61	C	1.510261	1.308347	-0.698746
C62	C	2.010261	1.808347	-0.198746
C63	C	1.510300	0.699056	-0.972741
C64	C	2.010300	1.199056	-0.472741
C65	C	1.510331	0.699015	-1.089522
C66	C	2.010331	1.199015	-0.589522
C67	C	1.443549	0.623262	-1.135876
C68	C	1.943549	1.123262	-0.635876
C69	C	1.443573	0.623233	-1.245604
C70	C	1.943573	1.123233	-0.745604
C71	C	1.577171	0.774713	-1.262613
C72	C	2.077171	1.274713	-0.762613
C73	C	1.577141	0.774746	-1.152887
C74	C	2.077141	1.274746	-0.652887
C75	C	1.510214	0.699181	-0.425729
C76	C	2.010214	1.199181	0.074271
C77	C	1.510386	0.698952	-0.308975
C78	C	2.010386	1.198952	0.191025
H79	H	1.078000	0.589160	-0.589031
H80	H	1.578000	1.089160	-0.089031
C81	C	1.650548	1.331535	-0.857850
C82	C	2.150548	1.831535	-0.357850
N83	N	1.705924	1.383973	-0.920633
N84	N	2.205924	1.883973	-0.420633
C85	C	0.890547	0.609935	-0.609739
C86	C	1.390547	1.109935	-0.109739
N87	N	0.845216	0.548453	-0.548435
N88	N	1.345216	1.048453	-0.048435
H89	H	0.943509	0.809302	-0.808542
H90	H	1.443509	1.309302	-0.308542
C91	C	1.370046	1.296133	-0.539584
C92	C	1.870046	1.796133	-0.039584
N93	N	1.314795	1.334615	-0.476756
N94	N	1.814795	1.834615	0.023244
H95	H	1.631526	0.836437	-1.115146
H96	H	2.131526	1.336437	-0.615146
H97	H	1.389148	0.561597	-1.084287
H98	H	1.889148	1.061597	-0.584287
H99	H	1.388971	1.083777	-0.561234
H100	H	1.888971	1.583777	-0.061234
C101	C	1.130968	0.788522	-0.787805
C102	C	1.630968	1.288522	-0.287805
N103	N	1.176299	0.850008	-0.849105
N104	N	1.676299	1.350008	-0.349105
H105	H	1.631566	0.836370	-1.314219
H106	H	2.131566	1.336370	-0.814219
H107	H	1.389191	0.561548	-1.283340
H108	H	1.889191	1.061548	-0.783340
C109	C	1.650452	1.101119	-0.857797
C110	C	2.150452	1.601119	-0.357797
N111	N	1.705781	1.062660	-0.920567
N112	N	2.205781	1.562660	-0.420567
