data_functionalizedCrystal
_audit_creation_method	'MofGen! by Chris Wilmer'
_symmetry_space_group_name_H-M	'P1'
_symmetry_Int_Tables_number	1
_symmetry_cell_setting	triclinic
loop_
_symmetry_equiv_pos_as_xyz
  x,y,z
_cell_length_a	13.897449
_cell_length_b	29.839131
_cell_length_c	13.897441
_cell_angle_alpha	89.969998
_cell_angle_beta	89.981404
_cell_angle_gamma	90.042982
loop_
_atom_site_label
_atom_site_type_symbol
_atom_site_fract_x
_atom_site_fract_y
_atom_site_fract_z
Zn1	Zn	1.474521	-0.178828	-0.545379
Zn2	Zn	1.474354	-0.253962	-0.384079
Zn3	Zn	1.313216	-0.178848	-0.384097
Zn4	Zn	1.313125	-0.253933	-0.545332
O5	O	1.393804	-0.216393	-0.464722
O6	O	1.609481	-0.188798	-0.523994
O7	O	1.452947	-0.244018	-0.249100
O8	O	1.334723	-0.115978	-0.405519
O9	O	1.609358	-0.243998	-0.405488
O10	O	1.453232	-0.115964	-0.524012
O11	O	1.334560	-0.188832	-0.249113
O12	O	1.178223	-0.188805	-0.405473
O13	O	1.334566	-0.243950	-0.680319
O14	O	1.178155	-0.243970	-0.523931
O15	O	1.453143	-0.188771	-0.680354
O16	O	1.452858	-0.316825	-0.405442
O17	O	1.334403	-0.316804	-0.523914
C18	C	1.143190	-0.216387	-0.464700
C19	C	1.035976	-0.216395	-0.464713
C20	C	0.839681	-0.216397	-0.464738
C21	C	0.948913	-0.216394	-0.464722
C22	C	1.393629	-0.333115	-0.464692
C23	C	1.393642	-0.383050	-0.464712
C24	C	1.332165	-0.739642	-0.526406
C25	C	1.332037	-0.551969	-0.526375
O26	O	1.279557	-0.527708	-0.578812
N27	N	1.393744	-0.528495	-0.464740
C28	C	1.455491	-0.551942	-0.403113
O29	O	1.507981	-0.527670	-0.350695
C30	C	1.455623	-0.739614	-0.403149
C31	C	1.393905	-0.763086	-0.464781
C32	C	1.270453	-0.763113	-0.588033
C33	C	1.270481	-0.810029	-0.588037
C34	C	1.332222	-0.833473	-0.526412
C35	C	1.393934	-0.810001	-0.464784
C36	C	1.517374	-0.763061	-0.341527
C37	C	1.517404	-0.809982	-0.341543
C38	C	1.455686	-0.833453	-0.403175
C39	C	1.455703	-0.880361	-0.403163
N40	N	1.393997	-0.903835	-0.464798
C41	C	1.332256	-0.880390	-0.526422
C42	C	1.455416	-0.453412	-0.403097
C43	C	1.455382	-0.406494	-0.403087
C44	C	1.331929	-0.406524	-0.526351
C45	C	1.331959	-0.453442	-0.526356
C46	C	1.393710	-0.476885	-0.464732
C47	C	1.332321	-0.978916	-0.526424
C48	C	1.332352	-1.025836	-0.526419
C49	C	1.455808	-1.025802	-0.403159
C50	C	1.455774	-0.978887	-0.403160
C51	C	1.394027	-0.955445	-0.464800
O52	O	1.508164	-0.904650	-0.350761
O53	O	1.279790	-0.904671	-0.578848
C54	C	1.332136	-0.692726	-0.526402
C55	C	1.393848	-0.669255	-0.464774
C56	C	1.455588	-0.692699	-0.403150
C57	C	1.393814	-0.622337	-0.464764
C58	C	1.332073	-0.598893	-0.526389
C59	C	1.270366	-0.622367	-0.588024
C60	C	1.270395	-0.669282	-0.588027
C61	C	1.517295	-0.669225	-0.341515
C62	C	1.517260	-0.622310	-0.341516
C63	C	1.455520	-0.598866	-0.403140
C64	C	1.645397	-0.216399	-0.464744
C65	C	1.752611	-0.216402	-0.464754
C66	C	1.393863	-0.216355	-0.716315
C67	C	1.393888	-0.216339	-0.823529
C68	C	1.394006	-0.099214	-0.464772
C69	C	1.394093	-0.049280	-0.464794
C70	C	1.393908	-0.216326	-0.910598
C71	C	1.393936	-0.216306	-1.019831
C72	C	1.393801	-0.216398	-0.214107
C73	C	1.393963	-0.216287	-0.106894
H74	H	1.282092	-1.044944	-0.576609
H75	H	1.506073	-1.044899	-0.352982
H76	H	1.506020	-0.959776	-0.352964
H77	H	1.282042	-0.959835	-0.576618
H78	H	1.220176	-0.744029	-0.638220
Br79	Br	1.186731	-0.841875	-0.671699
Br80	Br	1.248196	-0.485291	-0.610001
Br81	Br	1.248135	-0.374698	-0.609981
Br82	Br	1.601217	-0.841795	-0.257910
Br83	Br	1.539131	-0.374646	-0.319426
H84	H	1.220139	-0.688389	-0.638216
Br85	Br	1.539229	-0.485221	-0.319456
H86	H	1.567631	-0.743957	-0.291341
Br87	Br	1.186572	-0.590541	-0.671653
H88	H	1.567516	-0.603202	-0.291319
H89	H	1.567574	-0.688308	-0.291332
