data_functionalizedCrystal
_audit_creation_method	'MofGen! by Chris Wilmer'
_symmetry_space_group_name_H-M	'P1'
_symmetry_Int_Tables_number	1
_symmetry_cell_setting	triclinic
loop_
_symmetry_equiv_pos_as_xyz
  x,y,z
_cell_length_a	15.995350
_cell_length_b	17.666332
_cell_length_c	15.995292
_cell_angle_alpha	90.002020
_cell_angle_beta	83.480495
_cell_angle_gamma	90.005607
loop_
_atom_site_label
_atom_site_type_symbol
_atom_site_fract_x
_atom_site_fract_y
_atom_site_fract_z
O1	O	1.110969	0.062879	0.107929
O2	O	1.444302	0.396212	0.441263
O3	O	1.777635	0.729545	0.774596
O4	O	0.867191	0.062894	0.121257
O5	O	1.200524	0.396227	0.454591
O6	O	1.533857	0.729560	0.787924
O7	O	0.995769	0.062887	-0.007298
O8	O	1.329102	0.396220	0.326036
O9	O	1.662436	0.729554	0.659369
O10	O	0.982391	0.062885	0.236484
O11	O	1.315724	0.396219	0.569818
O12	O	1.649057	0.729552	0.903151
O13	O	0.995746	-0.063010	-0.007301
O14	O	1.329080	0.270324	0.326032
O15	O	1.662413	0.603657	0.659365
O16	O	0.867168	-0.063003	0.121254
O17	O	1.200501	0.270330	0.454587
O18	O	1.533835	0.603664	0.787920
O19	O	1.110946	-0.063018	0.107926
O20	O	1.444279	0.270315	0.441259
O21	O	1.777613	0.603649	0.774592
Cu22	Cu	0.989055	-0.074506	0.114589
Cu23	Cu	1.322388	0.258827	0.447923
Cu24	Cu	1.655722	0.592161	0.781256
Cu25	Cu	0.989082	0.074382	0.114594
Cu26	Cu	1.322415	0.407715	0.447927
Cu27	Cu	1.655749	0.741048	0.781260
O28	O	0.982368	-0.063011	0.236481
O29	O	1.315701	0.270322	0.569814
O30	O	1.649035	0.603655	0.903147
C31	C	0.835985	-0.000053	0.120704
C32	C	1.169318	0.333281	0.454038
C33	C	1.502651	0.666614	0.787371
C34	C	0.743035	-0.000047	0.119053
C35	C	1.076368	0.333287	0.452386
C36	C	1.409701	0.666620	0.785719
N37	N	0.989042	-0.179225	0.114586
N38	N	1.322376	0.154108	0.447919
N39	N	1.655709	0.487441	0.781252
C40	C	0.405288	-0.000063	0.113120
C41	C	0.738622	0.333271	0.446454
C42	C	1.071955	0.666604	0.779787
C43	C	0.452742	-0.000343	0.021566
C44	C	0.786075	0.332991	0.354899
C45	C	1.119408	0.666324	0.688232
C46	C	0.549431	-0.000054	0.023218
C47	C	0.882765	0.333280	0.356551
C48	C	1.216098	0.666613	0.689885
C49	C	0.572848	-0.000055	0.116063
C50	C	0.906182	0.333278	0.449396
C51	C	1.239515	0.666612	0.782729
C52	C	0.531765	0.071835	0.161223
C53	C	0.865098	0.405168	0.494556
C54	C	1.198431	0.738501	0.827889
C55	C	0.435130	0.071890	0.158923
C56	C	0.768463	0.405223	0.492256
C57	C	1.101796	0.738556	0.825589
C58	C	0.434764	-0.071278	0.160810
C59	C	0.768098	0.262055	0.494143
C60	C	1.101431	0.595388	0.827477
C61	C	0.531710	-0.072223	0.160788
C62	C	0.865043	0.261110	0.494122
C63	C	1.198376	0.594443	0.827455
C64	C	0.667546	-0.000048	0.117731
C65	C	1.000879	0.333285	0.451064
C66	C	1.334212	0.666618	0.784397
C67	C	0.310591	-0.000064	0.111455
C68	C	0.643924	0.333269	0.444788
C69	C	0.977258	0.666603	0.778122
C70	C	1.039805	-0.218832	0.165404
C71	C	1.373138	0.114501	0.498737
C72	C	1.706472	0.447834	0.832071
C73	C	1.039818	-0.298080	0.165401
C74	C	1.373152	0.035253	0.498735
C75	C	1.706485	0.368587	0.832068
C76	C	0.989054	-0.337718	0.114590
C77	C	1.322387	-0.004384	0.447924
C78	C	1.655720	0.328949	0.781257
C79	C	0.938288	-0.298101	0.063762
C80	C	1.271621	0.035232	0.397095
C81	C	1.604954	0.368566	0.730429
C82	C	0.938282	-0.218855	0.063759
C83	C	1.271615	0.114479	0.397093
C84	C	1.604949	0.447812	0.730426
N85	N	0.915716	-0.462152	0.112304
N86	N	1.249050	-0.128819	0.445637
N87	N	1.582383	0.204514	0.778970
N88	N	0.915724	-0.537433	0.112311
N89	N	1.249057	-0.204099	0.445644
N90	N	1.582391	0.129234	0.778977
C91	C	0.989069	-0.576482	0.114593
C92	C	1.322402	-0.243148	0.447927
C93	C	1.655735	0.090185	0.781260
N94	N	1.062407	-0.537406	0.116885
N95	N	1.395740	-0.204073	0.450218
N96	N	1.729073	0.129261	0.783552
N97	N	1.062398	-0.462118	0.116882
N98	N	1.395731	-0.128785	0.450216
N99	N	1.729065	0.204548	0.783549
C100	C	0.989054	-0.423647	0.114587
C101	C	1.322388	-0.090313	0.447920
C102	C	1.655721	0.243020	0.781254
C103	C	1.039850	-0.702018	0.165412
C104	C	1.373184	-0.368685	0.498745
C105	C	1.706517	-0.035351	0.832078
C106	C	1.039865	-0.781267	0.165403
C107	C	1.373199	-0.447934	0.498737
C108	C	1.706532	-0.114600	0.832070
C109	C	0.938327	-0.781286	0.063769
C110	C	1.271660	-0.447953	0.397102
C111	C	1.604994	-0.114620	0.730435
C112	C	0.938320	-0.702039	0.063772
C113	C	1.271653	-0.368705	0.397106
C114	C	1.604986	-0.035372	0.730439
C115	C	0.989080	-0.662409	0.114598
C116	C	1.322413	-0.329076	0.447932
C117	C	1.655747	0.004257	0.781265
C118	C	1.142152	-0.000070	0.108479
C119	C	1.475485	0.333263	0.441812
C120	C	1.808819	0.666597	0.775145
C121	C	1.235102	-0.000071	0.110130
C122	C	1.568435	0.333262	0.443464
C123	C	1.901769	0.666596	0.776797
C124	C	0.995213	-0.000059	-0.038495
C125	C	1.328546	0.333274	0.294838
C126	C	1.661880	0.666607	0.628172
C127	C	0.993581	-0.000054	-0.131448
C128	C	1.326914	0.333280	0.201885
C129	C	1.660247	0.666613	0.535219
N130	N	0.989101	0.179101	0.114591
N131	N	1.322435	0.512434	0.447924
N132	N	1.655768	0.845768	0.781257
C133	C	0.987580	-0.000060	-0.469186
C134	C	1.320913	0.333273	-0.135853
C135	C	1.654246	0.666606	0.197480
C136	C	1.080384	-0.000347	-0.445874
C137	C	1.413717	0.332986	-0.112541
C138	C	1.747050	0.666319	0.220793
C139	C	1.082148	-0.000061	-0.349199
C140	C	1.415481	0.333273	-0.015865
C141	C	1.748814	0.666606	0.317468
C142	C	0.990557	-0.000057	-0.301631
C143	C	1.323891	0.333276	0.031703
C144	C	1.657224	0.666609	0.365036
C145	C	0.944173	0.071836	-0.330729
C146	C	1.277506	0.405170	0.002604
C147	C	1.610839	0.738503	0.335937
C148	C	0.943055	0.071894	-0.427520
C149	C	1.276389	0.405227	-0.094187
C150	C	1.609722	0.738560	0.239147
C151	C	0.941134	-0.071274	-0.427381
C152	C	1.274468	0.262059	-0.094048
C153	C	1.607801	0.595392	0.239285
C154	C	0.944573	-0.072222	-0.330889
C155	C	1.277907	0.261111	0.002445
C156	C	1.611240	0.594445	0.335778
C157	C	0.992235	-0.000053	-0.206934
C158	C	1.325569	0.333280	0.126399
C159	C	1.658902	0.666613	0.459732
C160	C	0.985899	-0.000059	-0.563882
C161	C	1.319232	0.333274	-0.230549
C162	C	1.652565	0.666607	0.102784
C163	C	0.982924	-0.000063	0.267678
C164	C	1.316257	0.333270	0.601011
C165	C	1.649590	0.666603	0.934345
C166	C	0.984556	-0.000064	0.360631
C167	C	1.317889	0.333269	0.693964
C168	C	1.651223	0.666603	1.027298
H169	H	0.577858	-0.051588	-0.012280
H170	H	0.911192	0.281746	0.321053
H171	H	1.244525	0.615079	0.654387
F172	F	0.985073	0.142132	-0.462572
F173	F	1.318406	0.475466	-0.129239
F174	F	1.651740	0.808799	0.204095
F175	F	0.884247	-0.176701	0.009673
F176	F	1.217581	0.156633	0.343006
F177	F	1.550914	0.489966	0.676340
F178	F	0.884263	-0.340287	0.009683
F179	F	1.217596	-0.006954	0.343016
F180	F	1.550929	0.326380	0.676350
H181	H	1.081141	-0.186571	0.206787
H182	H	1.414475	0.146762	0.540120
H183	H	1.747808	0.480096	0.873454
H184	H	0.434218	-0.051898	-0.015032
H185	H	0.767551	0.281435	0.318301
H186	H	1.100884	0.614769	0.651634
F187	F	1.093850	-0.340241	0.219490
F188	F	1.427183	-0.006908	0.552824
F189	F	1.760517	0.326425	0.886157
H190	H	0.875011	0.075154	-0.442070
H191	H	1.208344	0.408487	-0.108737
H192	H	1.541678	0.741820	0.224597
H193	H	0.402989	-0.071766	0.228312
H194	H	0.736322	0.261568	0.561646
H195	H	1.069655	0.594901	0.894979
H196	H	0.559024	-0.125407	0.127822
H197	H	0.892357	0.207926	0.461155
H198	H	1.225690	0.541259	0.794488
H199	H	0.433165	0.050928	-0.014861
H200	H	0.766498	0.384262	0.318473
H201	H	1.099831	0.717595	0.651806
F202	F	0.585844	0.067530	-0.023300
F203	F	0.919178	0.400863	0.310033
F204	F	1.252511	0.734196	0.643366
F205	F	1.093888	-0.659839	0.219490
F206	F	1.427221	-0.326505	0.552823
F207	F	1.760554	0.006828	0.886156
F208	F	1.127130	-0.067738	-0.482469
F209	F	1.460464	0.265595	-0.149136
F210	F	1.793797	0.598928	0.184198
H211	H	1.115965	0.050917	-0.474890
H212	H	1.449299	0.384251	-0.141557
H213	H	1.782632	0.717584	0.191776
F214	F	1.093901	-0.823419	0.219490
F215	F	1.427235	-0.490086	0.552823
F216	F	1.760568	-0.156753	0.886157
H217	H	0.896994	-0.813558	0.022396
H218	H	1.230328	-0.480225	0.355730
H219	H	1.563661	-0.146892	0.689063
F220	F	0.884277	-0.659884	0.009697
F221	F	1.217610	-0.326551	0.343030
F222	F	1.550944	0.006782	0.676364
H223	H	0.402868	0.075151	0.226141
H224	H	0.736201	0.408485	0.559474
H225	H	1.069534	0.741818	0.892807
H226	H	1.118476	-0.051596	-0.330175
H227	H	1.451809	0.281737	0.003158
H228	H	1.785143	0.615071	0.336492
H229	H	0.560155	0.125338	0.129860
H230	H	0.893489	0.458671	0.463193
H231	H	1.226822	0.792004	0.796526
F232	F	1.129933	0.067414	-0.325136
F233	F	1.463267	0.400748	0.008197
F234	F	1.796600	0.734081	0.341530
F235	F	0.856079	0.075338	-0.289074
F236	F	1.189413	0.408672	0.044260
F237	F	1.522746	0.742005	0.377593
F238	F	0.986299	0.141767	-0.304511
F239	F	1.319632	0.475100	0.028822
F240	F	1.652966	0.808433	0.362155
F241	F	0.407923	-0.142503	0.121684
F242	F	0.741256	0.190830	0.455017
F243	F	1.074589	0.524164	0.788350
H244	H	0.970351	-0.125769	-0.455472
H245	H	1.303684	0.207564	-0.122138
H246	H	1.637017	0.540898	0.211195
F247	F	0.988714	-0.141742	-0.306619
F248	F	1.322047	0.191591	0.026714
F249	F	1.655381	0.524924	0.360048
F250	F	0.851848	-0.071906	-0.445669
F251	F	1.185181	0.261428	-0.112335
F252	F	1.518514	0.594761	0.220998
F253	F	0.411218	0.142132	0.115881
F254	F	0.744552	0.475465	0.449215
F255	F	1.077885	0.808798	0.782548
F256	F	0.550228	0.075342	0.250373
F257	F	0.883561	0.408675	0.583706
F258	F	1.216895	0.742009	0.917039
H259	H	0.547060	-0.076567	0.228494
H260	H	0.880393	0.256767	0.561827
H261	H	1.213727	0.590100	0.895160
F262	F	0.857190	-0.077895	-0.287798
F263	F	1.190524	0.255438	0.045536
F264	F	1.523857	0.588772	0.378869
