data_functionalizedCrystal
_audit_creation_method	'MofGen! by Chris Wilmer'
_symmetry_space_group_name_H-M	'P1'
_symmetry_Int_Tables_number	1
_symmetry_cell_setting	triclinic
loop_
_symmetry_equiv_pos_as_xyz
  x,y,z
_cell_length_a	17.699083
_cell_length_b	17.699083
_cell_length_c	16.776229
_cell_angle_alpha	90.013676
_cell_angle_beta	90.001114
_cell_angle_gamma	83.283016
loop_
_atom_site_label
_atom_site_type_symbol
_atom_site_fract_x
_atom_site_fract_y
_atom_site_fract_z
O1	O	-1.004078	-0.095713	-0.066189
O2	O	-0.504078	0.404287	0.433811
O3	O	-0.783700	-0.108165	-0.066217
O4	O	-0.283700	0.391835	0.433783
O5	O	-0.900116	0.008250	-0.066182
O6	O	-0.400116	0.508250	0.433818
O7	O	-0.887663	-0.212128	-0.066223
O8	O	-0.387663	0.287872	0.433777
O9	O	-0.900100	0.008257	0.066394
O10	O	-0.400100	0.508257	0.566394
O11	O	-0.783685	-0.108158	0.066360
O12	O	-0.283685	0.391842	0.566360
O13	O	-1.004063	-0.095706	0.066388
O14	O	-0.504063	0.404294	0.566388
Zn15	Zn	-0.893871	-0.101931	0.087423
Zn16	Zn	-0.393871	0.398069	0.587423
Zn17	Zn	-0.893892	-0.101940	-0.087252
Zn18	Zn	-0.393892	0.398060	0.412748
O19	O	-0.887648	-0.212121	0.066354
O20	O	-0.387648	0.287879	0.566354
C21	C	-0.755495	-0.107716	0.000068
C22	C	-0.255495	0.392284	0.500068
C23	C	-0.671477	-0.106377	0.000059
C24	C	-0.171477	0.393623	0.500059
C25	C	-0.899662	0.036451	0.000109
C26	C	-0.399662	0.536451	0.500109
C27	C	-0.898323	0.120469	0.000119
C28	C	-0.398323	0.620469	0.500119
C29	C	-1.032268	-0.096156	0.000101
C30	C	-0.532268	0.403844	0.500101
C31	C	-1.116286	-0.097494	0.000105
C32	C	-0.616286	0.402506	0.500105
N33	N	-0.893863	-0.101924	0.206634
N34	N	-0.393863	0.398076	0.706634
C35	C	-0.622856	-0.174711	0.000046
C36	C	-0.122856	0.325289	0.500046
C37	C	-0.543913	-0.173448	0.000057
C38	C	-0.043913	0.326552	0.500057
C39	C	-0.513592	-0.103852	0.000074
C40	C	-0.013592	0.396148	0.500074
C41	C	-0.562219	-0.035513	0.000089
C42	C	-0.062219	0.464487	0.500089
C43	C	-0.641161	-0.036776	0.000084
C44	C	-0.141161	0.463224	0.500084
C45	C	-0.243856	-0.030418	0.000109
C46	C	0.256144	0.469582	0.500109
C47	C	-0.164908	-0.029160	0.000112
C48	C	0.335092	0.470840	0.500112
C49	C	-0.146608	-0.167090	0.000083
C50	C	0.353392	0.332910	0.500083
C51	C	-0.225550	-0.168353	0.000078
C52	C	0.274450	0.331647	0.500078
C53	C	-0.274170	-0.100015	0.000097
C54	C	0.225830	0.399985	0.500097
C55	C	-0.359769	-0.101384	0.000087
C56	C	0.140231	0.398616	0.500087
C57	C	-0.427995	-0.102481	0.000078
C58	C	0.072005	0.397519	0.500078
C59	C	-0.966656	0.169090	0.000133
C60	C	-0.466656	0.669090	0.500133
C61	C	-0.965394	0.248033	0.000135
C62	C	-0.465394	0.748033	0.500135
C63	C	-0.895798	0.278354	0.000128
C64	C	-0.395798	0.778354	0.500128
C65	C	-0.827459	0.229727	0.000111
C66	C	-0.327459	0.729727	0.500111
C67	C	-0.828722	0.150785	0.000103
C68	C	-0.328722	0.650785	0.500103
C69	C	-0.822364	0.548090	0.000139
C70	C	-0.322364	1.048090	0.500139
C71	C	-0.821106	0.627038	0.000149
C72	C	-0.321106	1.127038	0.500149
C73	C	-0.959036	0.645338	0.000171
C74	C	-0.459036	1.145338	0.500171
C75	C	-0.960299	0.566396	0.000164
C76	C	-0.460299	1.066396	0.500164
C77	C	-0.891961	0.517776	0.000143
C78	C	-0.391961	1.017776	0.500143
C79	C	-0.893330	0.432177	0.000139
C80	C	-0.393330	0.932177	0.500139
C81	C	-0.894427	0.363951	0.000137
C82	C	-0.394427	0.863951	0.500137
C83	C	-0.888102	0.759678	0.000089
C84	C	-0.388102	1.259678	0.500089
C85	C	-0.889440	0.675660	0.000158
C86	C	-0.389440	1.175660	0.500158
N87	N	-0.893906	-0.101941	-0.206463
N88	N	-0.393906	0.398059	0.293537
C89	C	-0.945428	-0.050396	0.248367
C90	C	-0.445428	0.449604	0.748367
C91	C	-0.945432	-0.050396	0.331819
C92	C	-0.445432	0.449604	0.831819
C93	C	-0.893875	-0.101927	0.373537
C94	C	-0.393875	0.398073	0.873537
C95	C	-0.842305	-0.153457	0.331799
C96	C	-0.342305	0.346543	0.831799
C97	C	-0.842297	-0.153454	0.248349
C98	C	-0.342297	0.346546	0.748349
C99	C	-0.842332	-0.153472	0.668346
C100	C	-0.342332	0.346528	1.168346
C101	C	-0.842345	-0.153473	0.751803
C102	C	-0.342345	0.346527	1.251803
C103	C	-0.945466	-0.050414	0.751817
C104	C	-0.445466	0.449586	1.251817
C105	C	-0.945459	-0.050411	0.668366
C106	C	-0.445459	0.449589	1.168366
C107	C	-0.893887	-0.101938	0.626635
C108	C	-0.393887	0.398062	1.126635
C109	C	-0.893882	-0.101937	0.536147
C110	C	-0.393882	0.398063	1.036147
C111	C	-0.893882	-0.101932	0.464024
C112	C	-0.393882	0.398068	0.964024
H113	H	-0.647537	-0.231384	0.000032
H114	H	-0.147537	0.268616	0.500032
H115	H	-0.987444	-0.008452	0.634401
H116	H	-0.487444	0.491548	1.134401
H117	H	-0.764429	0.651721	0.000145
H118	H	-0.264429	1.151721	0.500145
Cl119	Cl	-0.482792	-0.259357	0.000037
Cl120	Cl	0.017208	0.240643	0.500037
Cl121	Cl	-0.263663	-0.255849	0.000052
Cl122	Cl	0.236337	0.244151	0.500052
Cl123	Cl	-1.044948	0.706465	0.000195
Cl124	Cl	-0.544948	1.206465	0.500195
H125	H	-0.537526	0.021154	0.000114
H126	H	-0.037526	0.521154	0.500114
H127	H	-0.987419	-0.008438	0.365797
H128	H	-0.487419	0.491562	0.865797
H129	H	-0.773078	0.111198	0.000091
H130	H	-0.273078	0.611198	0.500091
H131	H	-0.987414	-0.008437	0.214405
H132	H	-0.487414	0.491563	0.714405
Cl133	Cl	-1.051303	0.309154	0.000156
Cl134	Cl	-0.551303	0.809154	0.500156
Cl135	Cl	-0.126793	0.058340	0.000134
Cl136	Cl	0.373207	0.558340	0.500134
H137	H	-0.800358	-0.195437	0.785769
H138	H	-0.300358	0.304563	1.285769
Cl139	Cl	-0.304969	0.055494	0.000132
Cl140	Cl	0.195031	0.555494	0.500132
H141	H	-0.800308	-0.195412	0.214371
H142	H	-0.300308	0.304588	0.714371
Cl143	Cl	-1.010299	0.014367	0.804283
Cl144	Cl	-0.510299	0.514367	1.304283
H145	H	-0.680748	0.018868	0.000094
H146	H	-0.180748	0.518868	0.500094
Cl147	Cl	-1.054154	0.130980	0.000151
Cl148	Cl	-0.554154	0.630980	0.500151
Cl149	Cl	-0.777503	-0.218250	0.615891
Cl150	Cl	-0.277503	0.281750	1.115891
Cl151	Cl	-1.047795	0.528283	0.000171
Cl152	Cl	-0.547795	1.028283	0.500171
H153	H	-0.766718	0.508512	0.000122
H154	H	-0.266718	1.008512	0.500122
H155	H	-0.800322	-0.195412	0.365771
H156	H	-0.300322	0.304588	0.865771
Cl157	Cl	-0.739966	0.267844	0.000092
Cl158	Cl	-0.239966	0.767844	0.500092
H159	H	-0.107012	-0.222734	0.000071
H160	H	0.392988	0.277266	0.500071
