data_functionalizedCrystal
_audit_creation_method	'MofGen! by Chris Wilmer'
_symmetry_space_group_name_H-M	'P1'
_symmetry_Int_Tables_number	1
_symmetry_cell_setting	triclinic
loop_
_symmetry_equiv_pos_as_xyz
  x,y,z
_cell_length_a	10.967874
_cell_length_b	11.026607
_cell_length_c	14.048226
_cell_angle_alpha	90.003790
_cell_angle_beta	102.135138
_cell_angle_gamma	96.380181
loop_
_atom_site_label
_atom_site_type_symbol
_atom_site_fract_x
_atom_site_fract_y
_atom_site_fract_z
O1	O	1.694036	0.170538	0.357044
O2	O	1.334398	0.186857	0.298052
O3	O	1.484411	0.001796	0.322655
O4	O	1.544024	0.355599	0.332441
O5	O	1.484385	0.001785	0.164330
O6	O	1.334373	0.186846	0.139726
O7	O	1.694011	0.170527	0.198719
Zn8	Zn	1.514188	0.178685	0.144085
Zn9	Zn	1.514221	0.178699	0.352686
O10	O	1.543998	0.355588	0.174115
C11	C	1.287629	0.185663	0.211219
C12	C	1.148304	0.182108	0.188365
C13	C	1.086202	0.180529	0.260194
C14	C	0.942203	0.176855	0.236575
C15	C	1.473401	-0.043512	0.241690
C16	C	1.440617	-0.178499	0.236315
C17	C	1.531139	-0.251550	0.251165
C18	C	1.497257	-0.391067	0.245611
C19	C	1.740780	0.171721	0.285553
C20	C	1.880105	0.175276	0.308414
C21	C	1.555008	0.400896	0.255083
C22	C	1.587792	0.535883	0.260463
N23	N	1.514174	0.178674	0.001722
C24	C	1.580633	0.096763	-0.037196
C25	C	1.580642	0.096763	-0.136852
C26	C	1.514197	0.178680	-0.197588
C27	C	1.447729	0.260594	-0.158664
C28	C	1.447714	0.260588	-0.059011
C29	C	1.447767	0.260603	-0.366372
C30	C	1.447783	0.260611	-0.466032
C31	C	1.580695	0.096778	-0.444214
C32	C	1.580680	0.096772	-0.344560
C33	C	1.514213	0.178688	-0.305643
N34	N	1.514243	0.178701	0.495050
H35	H	1.633721	-0.210804	0.267987
H36	H	1.394668	-0.431808	0.228789
H37	H	1.139642	0.181904	0.339174
H38	H	1.690382	-0.423378	0.277363
C39	C	0.741389	0.171712	0.127185
C40	C	0.870079	0.175000	0.129944
H41	H	0.696864	0.170558	0.061357
H42	H	0.726391	0.241942	0.160197
H43	H	0.713633	0.100394	0.158118
H44	H	0.897837	0.246323	0.099018
H45	H	0.885086	0.104763	0.096919
C46	C	1.295370	-0.361058	0.212493
C47	C	1.302128	-0.233492	0.213599
H48	H	1.209871	-0.395002	0.198463
H49	H	1.335824	-0.387335	0.274337
H50	H	1.335817	-0.387349	0.163915
H51	H	1.261690	-0.207199	0.262183
H52	H	1.261658	-0.207204	0.151747
H53	H	1.393638	0.327304	-0.334691
C54	C	1.711999	-0.065186	-0.025652
C55	C	1.653670	0.006714	0.029560
H56	H	1.757080	-0.120787	0.015559
H57	H	1.768343	-0.014175	-0.055262
H58	H	1.650124	-0.109374	-0.074687
H59	H	1.715546	0.050909	0.078591
H60	H	1.597322	-0.044304	0.059185
H61	H	1.634813	0.030079	-0.475905
C62	C	0.911267	0.071992	0.460614
C63	C	0.952223	0.177122	0.415045
H64	H	0.955786	0.073138	0.526443
H65	H	0.926282	0.001776	0.427594
H66	H	0.823958	0.069776	0.458721
H67	H	1.039531	0.179333	0.416932
H68	H	0.937218	0.247357	0.448074
C69	C	1.283523	0.285465	-0.297708
C70	C	1.374691	0.350637	-0.225427
H71	H	1.238441	0.341058	-0.338926
H72	H	1.227180	0.234466	-0.268088
H73	H	1.323124	0.236686	-0.335141
H74	H	1.335089	0.399409	-0.187990
H75	H	1.431042	0.401657	-0.255050
C76	C	1.316353	0.422514	-0.477603
C77	C	1.374718	0.350632	-0.532800
H78	H	1.271235	0.478078	-0.518827
H79	H	1.378200	0.466731	-0.428582
H80	H	1.260026	0.371478	-0.447980
H81	H	1.431053	0.401666	-0.562418
H82	H	1.312864	0.306411	-0.581839
H83	H	1.393594	0.327286	-0.027326
C84	C	1.570656	-0.068469	-0.250560
C85	C	1.653706	0.006724	-0.179622
H86	H	1.615767	-0.124063	-0.276956
H87	H	1.531098	-0.019692	-0.300992
H88	H	1.508791	-0.112665	-0.221834
H89	H	1.715565	0.050927	-0.208350
H90	H	1.693284	-0.042059	-0.129181
H91	H	1.094866	0.180747	0.109385
H92	H	1.634791	0.030075	-0.295108
