data_functionalizedCrystal
_audit_creation_method	'MofGen! by Chris Wilmer'
_symmetry_space_group_name_H-M	'P1'
_symmetry_Int_Tables_number	1
_symmetry_cell_setting	triclinic
loop_
_symmetry_equiv_pos_as_xyz
  x,y,z
_cell_length_a	10.540539
_cell_length_b	17.699083
_cell_length_c	16.776229
_cell_angle_alpha	90.001114
_cell_angle_beta	89.995514
_cell_angle_gamma	96.095747
loop_
_atom_site_label
_atom_site_type_symbol
_atom_site_fract_x
_atom_site_fract_y
_atom_site_fract_z
O1	O	0.160520	-1.005122	-0.066173
O2	O	0.181404	-0.784880	-0.066198
O3	O	-0.013836	-0.900026	-0.066184
O4	O	0.355761	-0.889976	-0.066187
O5	O	-0.013848	-0.900010	0.066393
O6	O	0.181392	-0.784864	0.066378
O7	O	0.160508	-1.005107	0.066404
Zn8	Zn	0.170948	-0.894983	0.087440
Zn9	Zn	0.170964	-0.895003	-0.087235
O10	O	0.355749	-0.889961	0.066389
C11	C	-0.061131	-0.899264	0.000103
C12	C	-0.202038	-0.897009	0.000098
C13	C	0.180650	-0.756670	0.000087
C14	C	0.178405	-0.672637	0.000077
C15	C	0.161263	-1.033316	0.000117
C16	C	0.163508	-1.117349	0.000122
C17	C	-0.383885	-0.810610	-0.000209
C18	C	-0.237308	-0.812896	0.000089
C19	C	-0.264443	-0.937480	0.075811
C20	C	-0.410935	-0.934609	0.075874
C21	C	-0.411471	-0.936337	-0.074890
C22	C	-0.264503	-0.937112	-0.075891
C23	C	0.403044	-0.890722	0.000101
C24	C	0.543951	-0.892977	0.000100
N25	N	0.170937	-0.894974	0.206652
C26	C	0.293007	-0.624761	0.000076
C27	C	0.290890	-0.545804	0.000086
C28	C	0.174170	-0.514725	0.000092
C29	C	0.059559	-0.562607	0.000095
C30	C	0.061677	-0.641562	0.000090
C31	C	0.051014	-0.244188	0.000115
C32	C	0.048904	-0.165226	0.000117
C33	C	0.280227	-0.148430	0.000111
C34	C	0.282345	-0.227386	0.000106
C35	C	0.167735	-0.275261	0.000113
C36	C	0.170032	-0.360875	0.000104
C37	C	0.171872	-0.429112	0.000096
N38	N	0.170966	-0.895018	-0.206446
C39	C	0.084520	-0.945977	0.248375
C40	C	0.084519	-0.945981	0.331827
C41	C	0.170942	-0.894986	0.373555
C42	C	0.257363	-0.843978	0.331825
C43	C	0.257357	-0.843971	0.248375
C44	C	0.257388	-0.844005	0.668372
C45	C	0.257390	-0.844018	0.751829
C46	C	0.084550	-0.946016	0.751825
C47	C	0.084544	-0.946009	0.668374
C48	C	0.170960	-0.894998	0.626652
C49	C	0.170958	-0.894993	0.536164
C50	C	0.170950	-0.894994	0.464041
H51	H	-0.194118	-0.781051	-0.054185
H52	H	-0.042309	-0.283159	0.000121
H53	H	0.014181	-0.987549	0.785804
H54	H	0.388054	-0.650060	0.000071
H55	H	-0.031644	-0.680543	0.000090
O56	O	0.414495	-0.494164	0.000086
H57	H	0.496013	-0.529040	0.000072
O58	O	0.350609	-0.789010	0.796833
H59	H	0.336102	-0.797594	0.861871
O60	O	-0.076998	-0.131707	0.000130
H61	H	-0.059211	-0.068761	0.000123
H62	H	0.327753	-0.802472	0.634409
O63	O	-0.236332	-1.019301	0.079559
H64	H	-0.183591	-1.028781	0.135313
O65	O	-0.008725	-1.000966	0.203377
H66	H	0.005784	-0.992394	0.138338
O67	O	0.408234	-0.260910	0.000112
H68	H	0.487571	-0.214353	0.000125
O69	O	-0.066332	-0.529084	0.000106
H70	H	-0.145667	-0.575643	0.000114
H71	H	-0.442521	-0.909121	-0.132275
O72	O	-0.209553	-0.897945	-0.150087
H73	H	-0.254188	-0.926620	-0.203526
O74	O	-0.420973	-0.766590	-0.072115
H75	H	-0.491241	-0.802941	-0.108402
H76	H	0.373548	-0.109440	0.000109
H77	H	-0.241403	-0.998438	-0.080455
O78	O	-0.008664	-1.001004	0.376832
H79	H	-0.068741	-1.036474	0.333797
O80	O	-0.008675	-1.001006	0.623366
H81	H	-0.068779	-1.036467	0.666400
O82	O	-0.423073	-0.766764	0.071302
H83	H	-0.493723	-0.803381	0.107065
H84	H	0.327725	-0.802438	0.214404
O85	O	-0.181212	-0.770419	0.072100
H86	H	-0.258794	-0.748169	0.106850
O87	O	-0.447586	-0.894966	0.150826
H88	H	-0.360718	-0.878019	0.186683
O89	O	0.350590	-0.788979	0.376825
H90	H	0.297247	-0.751915	0.414864
H91	H	-0.460010	-0.995102	0.079316
H92	H	-0.221334	-0.909354	0.132147
H93	H	-0.459808	-0.997092	-0.075392
