data_functionalizedCrystal
_audit_creation_method	'MofGen! by Chris Wilmer'
_symmetry_space_group_name_H-M	'P1'
_symmetry_Int_Tables_number	1
_symmetry_cell_setting	triclinic
loop_
_symmetry_equiv_pos_as_xyz
  x,y,z
_cell_length_a	12.759401
_cell_length_b	29.839132
_cell_length_c	12.759393
_cell_angle_alpha	90.039030
_cell_angle_beta	89.977963
_cell_angle_gamma	89.954475
loop_
_atom_site_label
_atom_site_type_symbol
_atom_site_fract_x
_atom_site_fract_y
_atom_site_fract_z
Zn1	Zn	1.606043	0.178828	-0.593989
Zn2	Zn	1.605841	0.253966	-0.418282
Zn3	Zn	1.430342	0.178851	-0.418320
Zn4	Zn	1.430240	0.253933	-0.593916
O5	O	1.518117	0.216394	-0.506127
O6	O	1.753037	0.188800	-0.570695
O7	O	1.582518	0.244025	-0.271266
O8	O	1.453777	0.115981	-0.441669
O9	O	1.752889	0.244003	-0.441605
O10	O	1.582864	0.115964	-0.570732
O11	O	1.453580	0.188838	-0.271294
O12	O	1.283307	0.188806	-0.441599
O13	O	1.453603	0.243947	-0.740947
O14	O	1.283233	0.243968	-0.570609
O15	O	1.582765	0.188768	-0.741000
O16	O	1.582419	0.316828	-0.441535
O17	O	1.453407	0.316804	-0.570572
C18	C	1.245149	0.216386	-0.506101
C19	C	1.128373	0.216394	-0.506115
C20	C	1.073429	0.245092	-0.438811
C21	C	0.963705	0.245100	-0.438838
C22	C	0.963877	0.187707	-0.573476
C23	C	1.073599	0.187702	-0.573453
C24	C	0.813647	0.298070	-0.401099
C25	C	0.758700	0.326764	-0.333778
C26	C	0.794239	0.333608	-0.231226
C27	C	0.884723	0.311750	-0.195974
C28	C	0.939665	0.283052	-0.263288
C29	C	0.904128	0.276217	-0.365855
C30	C	1.223659	0.134731	-0.611182
C31	C	1.278603	0.106030	-0.678492
C32	C	1.243066	0.099183	-0.781046
C33	C	1.152578	0.121033	-0.816295
C34	C	1.097635	0.149733	-0.748985
C35	C	1.133179	0.156581	-0.646432
C36	C	1.517908	0.333117	-0.506064
C37	C	1.517916	0.383051	-0.506073
C38	C	1.585341	0.692695	-0.438992
C39	C	1.585441	0.880368	-0.439016
O40	O	1.642656	0.904633	-0.381963
N41	N	1.518227	0.903836	-0.506144
C42	C	1.450987	0.880384	-0.573276
O43	O	1.393827	0.904652	-0.630380
C44	C	1.450893	0.692712	-0.573256
C45	C	1.518104	0.669245	-0.506116
C46	C	1.652548	0.669228	-0.371859
C47	C	1.652518	0.622313	-0.371849
C48	C	1.585281	0.598864	-0.438974
C49	C	1.518074	0.622330	-0.506107
C50	C	1.383659	0.669260	-0.640393
C51	C	1.383643	0.622339	-0.640384
C52	C	1.450855	0.598873	-0.573244
C53	C	1.450808	0.551965	-0.573222
N54	N	1.518023	0.528497	-0.506094
C55	C	1.585259	0.551946	-0.438970
C56	C	1.451040	0.978914	-0.573280
C57	C	1.451062	1.025832	-0.573283
C58	C	1.585518	1.025813	-0.439025
C59	C	1.585490	0.978894	-0.439017
C60	C	1.518254	0.955446	-0.506152
C61	C	1.585191	0.453420	-0.438955
C62	C	1.585152	0.406501	-0.438948
C63	C	1.450701	0.406524	-0.573210
C64	C	1.450735	0.453440	-0.573213
C65	C	1.517989	0.476886	-0.506082
O66	O	1.393632	0.527672	-0.630253
O67	O	1.642428	0.527670	-0.381890
C68	C	1.585371	0.739610	-0.439002
C69	C	1.518164	0.763076	-0.506135
C70	C	1.450927	0.739627	-0.573259
C71	C	1.518186	0.809994	-0.506139
C72	C	1.585423	0.833443	-0.439015
C73	C	1.652637	0.809975	-0.371887
C74	C	1.652607	0.763059	-0.371877
C75	C	1.383712	0.763096	-0.640387
C76	C	1.383747	0.810011	-0.640390
C77	C	1.450984	0.833461	-0.573266
C78	C	1.792150	0.216403	-0.506154
C79	C	1.908926	0.216406	-0.506165
C80	C	1.518195	0.216351	-0.780160
C81	C	1.518229	0.216333	-0.896937
C82	C	1.518315	1.099216	-0.506190
C83	C	1.518298	1.049282	-0.506159
C84	C	1.585488	0.187597	-0.951828
C85	C	1.585506	0.187577	-1.061553
C86	C	1.451002	0.245034	-1.061484
C87	C	1.450980	0.245051	-0.951762
C88	C	1.623184	0.134573	-1.211550
C89	C	1.690460	0.105841	-1.266445
C90	C	1.792982	0.098953	-1.230858
C91	C	1.828248	0.120804	-1.140378
C92	C	1.760977	0.149539	-1.085488
C93	C	1.658442	0.156419	-1.121074
C94	C	1.413312	0.298056	-0.801763
C95	C	1.346046	0.326794	-0.746872
C96	C	1.243523	0.333686	-0.782457
C97	C	1.208261	0.311844	-0.872940
C98	C	1.275526	0.283106	-0.927832
C99	C	1.378049	0.276212	-0.892239
C100	C	1.518099	0.216405	-0.233160
C101	C	1.518269	0.216297	-0.116383
H102	H	0.919268	0.164346	-0.628300
O103	O	0.779103	0.291509	-0.500745
C104	C	0.777592	0.332784	-0.554449
H105	H	0.772361	0.361384	-0.495391
H106	H	0.852418	0.336390	-0.602558
C107	C	0.688351	0.299240	-0.700440
C108	C	0.681918	0.334367	-0.627904
H109	H	0.629338	0.300216	-0.745754
H110	H	0.689372	0.271431	-0.664261
H111	H	0.750710	0.302248	-0.740520
H112	H	0.619567	0.331354	-0.587818
H113	H	0.680884	0.362175	-0.664079
O114	O	1.108714	0.318502	-0.907683
C115	C	1.092008	0.293051	-0.999301
H116	H	1.170511	0.285607	-1.038315
H117	H	1.051730	0.260206	-0.977987
C118	C	0.925705	0.328820	-1.027552
C119	C	1.022123	0.319679	-1.075475
H120	H	0.882593	0.345244	-1.074539
H121	H	0.936957	0.345965	-0.965825
H122	H	0.892153	0.301446	-1.009792
H123	H	1.055678	0.347053	-1.093222
H124	H	1.010874	0.302539	-1.137207
H125	H	1.188760	0.357091	-0.737759
H126	H	1.396009	0.472547	-0.627887
H127	H	1.287804	0.075807	-0.835845
O128	O	1.318522	0.692096	-0.705675
C129	C	1.378323	0.719175	-0.773611
H130	H	1.457956	0.726189	-0.736618
H131	H	1.389837	0.701056	-0.851465
C132	C	1.222715	0.755142	-0.838061
C133	C	1.320519	0.763759	-0.792621
H134	H	1.187058	0.782643	-0.849792
H135	H	1.182425	0.736897	-0.792294
H136	H	1.232324	0.740041	-0.902934
H137	H	1.310909	0.778854	-0.727744
H138	H	1.360807	0.782008	-0.838378
O139	O	1.650912	0.159762	-0.898521
C140	C	1.718690	0.185347	-0.835024
H141	H	1.725123	0.220726	-0.868062
H142	H	1.686184	0.186907	-0.751861
C143	C	1.820048	0.119947	-0.792794
C144	C	1.827956	0.163398	-0.833378
H145	H	1.887448	0.106407	-0.791774
H146	H	1.774383	0.102709	-0.835570
H147	H	1.792956	0.121253	-0.723496
H148	H	1.855035	0.162091	-0.902679
H149	H	1.873629	0.180636	-0.790613
H150	H	1.328961	0.744007	-0.695049
H151	H	1.911735	0.115196	-1.111415
O152	O	1.118196	0.114431	-0.915985
C153	C	1.196440	0.127966	-0.987286
H154	H	1.250743	0.153114	-0.947643
H155	H	1.243656	0.097487	-1.013403
C156	C	1.078079	0.119068	-1.132136
C157	C	1.144769	0.149957	-1.083447
H158	H	1.046208	0.132631	-1.191455
H159	H	1.025365	0.109948	-1.084100
H160	H	1.117436	0.093671	-1.153891
H161	H	1.105410	0.175351	-1.061682
H162	H	1.197476	0.159083	-1.131482
O163	O	1.258300	0.141319	-0.511575
C164	C	1.349956	0.115884	-0.494902
H165	H	1.352288	0.086770	-0.552755
H166	H	1.421701	0.138031	-0.507038
C167	C	1.347145	0.133271	-0.311092
C168	C	1.350005	0.097510	-0.382142
H169	H	1.347179	0.121938	-0.241535
H170	H	1.285398	0.150408	-0.322324
H171	H	1.406934	0.151724	-0.321218
H172	H	1.290210	0.079061	-0.372024
H173	H	1.411743	0.080369	-0.370905
O174	O	0.740770	0.361512	-0.165982
C175	C	0.653274	0.379326	-0.219075
H176	H	0.667617	0.377893	-0.307206
H177	H	0.580611	0.358861	-0.198895
C178	C	0.618864	0.430121	-0.077037
C179	C	0.636484	0.428366	-0.185281
H180	H	0.608503	0.460371	-0.056189
H181	H	0.677810	0.418119	-0.041265
H182	H	0.558313	0.413065	-0.060234
H183	H	0.697041	0.445417	-0.202080
H184	H	0.577548	0.440372	-0.221055
H185	H	1.374770	0.344583	-0.673202
H186	H	1.352278	0.088236	-0.649781
O187	O	1.009849	0.171014	-0.783330
C188	C	1.035164	0.198253	-0.869954
H189	H	1.122244	0.206725	-0.867886
H190	H	1.016403	0.179561	-0.945602
C191	C	0.863578	0.231407	-0.867722
C192	C	0.970529	0.241816	-0.865178
H193	H	0.823706	0.258278	-0.864780
H194	H	0.846520	0.213055	-0.809365
H195	H	0.847959	0.215830	-0.930763
H196	H	0.986149	0.257388	-0.802132
H197	H	0.987588	0.260172	-0.923525
H198	H	1.496793	0.292443	-0.772775
O199	O	1.858440	0.071110	-1.284242
C200	C	1.947039	0.095293	-1.318215
H201	H	1.926846	0.132462	-1.322810
H202	H	2.014035	0.090162	-1.260351
C203	C	2.005399	0.032779	-1.421639
C204	C	1.980595	0.078430	-1.427291
H205	H	2.026101	0.022376	-1.488920
H206	H	1.945710	0.016485	-1.398748
H207	H	2.061225	0.028509	-1.373415
H208	H	1.924761	0.082699	-1.475505
H209	H	2.040275	0.094724	-1.450193
H210	H	1.639884	0.387396	-0.384271
O211	O	1.650670	0.476139	-0.373793
C212	C	1.755358	0.464619	-0.396869
H213	H	1.757475	0.430543	-0.437270
H214	H	1.790747	0.490993	-0.450907
C215	C	1.816448	0.504292	-0.244882
C216	C	1.819048	0.462438	-0.294496
H217	H	1.855738	0.502948	-0.181736
H218	H	1.745918	0.512054	-0.229337
H219	H	1.845937	0.526266	-0.289924
H220	H	1.789547	0.440466	-0.249460
H221	H	1.889575	0.454671	-0.310032
H222	H	1.707250	0.603210	-0.317182
H223	H	1.246807	0.265320	-1.001509
H224	H	1.707306	0.688316	-0.317198
H225	H	1.395954	0.387424	-0.627859
H226	H	0.685027	0.344560	-0.362490
H227	H	1.640219	0.959791	-0.384346
O228	O	1.385615	0.956209	-0.638524
C229	C	1.326318	0.986990	-0.697781
H230	H	1.322737	1.020448	-0.654739
H231	H	1.364745	0.991939	-0.777612
C232	C	1.218875	0.927637	-0.765676
C233	C	1.214468	0.968729	-0.712807
H234	H	1.149882	0.916372	-0.774949
H235	H	1.258826	0.906899	-0.725757
H236	H	1.250902	0.931767	-0.832196
H237	H	1.182454	0.964597	-0.646283
H238	H	1.174509	0.989466	-0.752715
O239	O	1.027457	0.261746	-0.229056
C240	C	1.012783	0.215002	-0.235679
H241	H	0.925362	0.207156	-0.234750
H242	H	1.048839	0.201989	-0.311601
C243	C	1.173511	0.201755	-0.142750
C244	C	1.066139	0.192118	-0.141600
H245	H	1.206428	0.187638	-0.084721
H246	H	1.183400	0.233247	-0.138291
H247	H	1.203544	0.190910	-0.206023
H248	H	1.036106	0.202967	-0.078334
H249	H	1.056247	0.160627	-0.146045
H250	H	1.396252	0.268416	-1.106136
H251	H	0.913645	0.317320	-0.112461
O252	O	1.318232	0.599632	-0.705637
C253	C	1.258944	0.630408	-0.764912
H254	H	1.255345	0.663867	-0.721876
H255	H	1.297390	0.635357	-0.844735
C256	C	1.151530	0.571050	-0.832827
C257	C	1.147102	0.612143	-0.779964
H258	H	1.082541	0.559783	-0.842116
H259	H	1.191475	0.550314	-0.792895
H260	H	1.183572	0.575180	-0.899340
H261	H	1.115071	0.608012	-0.713448
H262	H	1.107148	0.632878	-0.819885
O263	O	1.718001	0.740337	-0.306628
C264	C	1.777325	0.771103	-0.247375
H265	H	1.780947	0.804530	-0.290425
H266	H	1.738896	0.776137	-0.167548
C267	C	1.884699	0.711698	-0.179454
C268	C	1.889154	0.752754	-0.232333
H269	H	1.953679	0.700379	-0.170170
H270	H	1.844729	0.690970	-0.219371
H271	H	1.852670	0.715899	-0.112937
H272	H	1.921170	0.748552	-0.298853
H273	H	1.929133	0.773481	-0.192427
H274	H	1.396321	1.044935	-0.627945
O275	O	1.126591	0.273030	-0.373522
C276	C	1.099699	0.317817	-0.396280
H277	H	1.069583	0.320127	-0.480209
H278	H	1.035957	0.329535	-0.339916
C279	C	1.234101	0.344952	-0.280824
C280	C	1.197120	0.347791	-0.383909
H281	H	1.294193	0.363442	-0.273189
H282	H	1.252217	0.314779	-0.265487
H283	H	1.180974	0.354717	-0.233865
H284	H	1.250242	0.338021	-0.430865
H285	H	1.179016	0.377964	-0.399254
O286	O	1.718089	0.832772	-0.306846
C287	C	1.785902	0.859862	-0.366761
H288	H	1.792300	0.845688	-0.449510
H289	H	1.753452	0.895436	-0.370353
C290	C	1.887311	0.877951	-0.213943
C291	C	1.895176	0.860541	-0.315575
H292	H	1.954716	0.878372	-0.182368
H293	H	1.841623	0.859702	-0.173576
H294	H	1.860265	0.907595	-0.216950
H295	H	1.922209	0.830897	-0.312566
H296	H	1.940872	0.878786	-0.355941
H297	H	1.640265	1.044913	-0.384370
H298	H	1.539701	0.140175	-1.240528
H299	H	1.789692	0.167331	-1.011824
H300	H	1.329006	0.829113	-0.695063
H301	H	1.661737	0.088050	-1.340114
