data_functionalizedCrystal
_audit_creation_method	'MofGen! by Chris Wilmer'
_symmetry_space_group_name_H-M	'P1'
_symmetry_Int_Tables_number	1
_symmetry_cell_setting	triclinic
loop_
_symmetry_equiv_pos_as_xyz
  x,y,z
_cell_length_a	16.109301
_cell_length_b	11.026607
_cell_length_c	14.586319
_cell_angle_alpha	89.998207
_cell_angle_beta	89.999213
_cell_angle_gamma	96.023749
loop_
_atom_site_label
_atom_site_type_symbol
_atom_site_fract_x
_atom_site_fract_y
_atom_site_fract_z
O1	O	1.126503	0.155971	-0.076179
O2	O	0.887350	0.175382	-0.076193
O3	O	0.987106	-0.010969	-0.076183
O4	O	1.026747	0.342322	-0.076188
O5	O	0.987097	-0.010971	0.076297
O6	O	0.887341	0.175379	0.076288
O7	O	1.126494	0.155969	0.076302
Cu8	Cu	1.006916	0.165674	0.090218
Cu9	Cu	1.006927	0.165677	-0.090108
O10	O	1.026738	0.342319	0.076293
C11	C	0.856253	0.174594	0.000046
C12	C	0.763604	0.172237	0.000040
C13	C	0.557080	0.277333	0.000050
C14	C	0.470027	0.275108	0.000056
C15	C	0.456769	0.054010	0.000055
C16	C	0.543821	0.056235	0.000055
C17	C	0.593975	0.167900	0.000048
C18	C	0.419869	0.163450	0.000053
C19	C	0.325481	0.161038	0.000060
C20	C	0.688369	0.170314	0.000043
C21	C	0.979788	-0.056178	0.000055
C22	C	0.957987	-0.190883	0.000051
C23	C	1.018183	-0.264713	0.000053
C24	C	0.995652	-0.403938	0.000048
C25	C	1.157591	0.156756	0.000062
C26	C	1.250240	0.159114	0.000061
C27	C	1.034056	0.387529	0.000052
C28	C	1.055857	0.522234	0.000051
N29	N	1.006915	0.165671	0.217050
N30	N	1.006934	0.165670	-0.216940
C31	C	1.051109	0.083182	0.452060
C32	C	1.051111	0.083179	0.548041
C33	C	0.962734	0.248163	0.548043
C34	C	0.962728	0.248159	0.452063
C35	C	1.006920	0.165670	0.404074
C36	C	1.006929	0.165671	0.596035
C37	C	1.006930	0.165668	0.700102
C38	C	1.006918	0.165671	0.300001
H39	H	0.439992	0.364219	0.000059
O40	O	0.408085	-0.054487	0.000213
C41	C	0.370152	-0.244183	0.079168
C42	C	0.425319	-0.121339	0.079119
H43	H	0.384078	-0.298278	0.142948
H44	H	0.301581	-0.227054	0.079223
H45	H	0.383999	-0.298199	0.015325
H46	H	0.411545	-0.067260	0.142952
H47	H	0.493873	-0.138554	0.079017
O48	O	0.579626	-0.050107	-0.000111
C49	C	0.594901	-0.238424	-0.079078
C50	C	0.554313	-0.118033	-0.079020
H51	H	0.574436	-0.293388	-0.142860
H52	H	0.665739	-0.217722	-0.079134
H53	H	0.574528	-0.293329	-0.015237
H54	H	0.574619	-0.063069	-0.142851
H55	H	0.483480	-0.138821	-0.078916
O56	O	0.605712	0.385875	-0.000072
C57	C	0.643710	0.575507	-0.079088
C58	C	0.588576	0.452634	-0.079058
H59	H	0.629888	0.629505	-0.142951
H60	H	0.629849	0.629659	-0.015317
H61	H	0.712262	0.558277	-0.079046
H62	H	0.520007	0.469753	-0.079133
H63	H	0.602509	0.398520	-0.142824
H64	H	1.086399	-0.224848	0.000063
H65	H	0.927432	-0.443797	0.000038
H66	H	0.889771	-0.230748	0.000041
O67	O	1.094044	0.002932	0.405585
C68	C	1.181737	-0.160667	0.415719
C69	C	1.133135	-0.069863	0.468462
H70	H	1.213369	-0.219527	0.466531
H71	H	1.136796	-0.221386	0.370815
H72	H	1.231076	-0.108241	0.370752
H73	H	1.083795	-0.122189	0.513478
H74	H	1.178127	-0.009144	0.513307
O75	O	0.919870	0.328459	0.594557
C76	C	0.902756	0.539437	0.623953
C77	C	0.951354	0.448632	0.571207
H78	H	0.928204	0.636617	0.605108
H79	H	0.833794	0.523694	0.605069
H80	H	0.910328	0.525215	0.700791
H81	H	0.943850	0.462800	0.494356
H82	H	1.020297	0.464399	0.590167
O83	O	1.093907	0.002933	0.594695
C84	C	1.086822	-0.162736	0.703102
C85	C	1.038251	-0.071940	0.650308
H86	H	1.041849	-0.223277	0.748092
H87	H	1.118379	-0.221778	0.652354
H88	H	1.136216	-0.110303	0.747992
H89	H	0.988818	-0.124275	0.605417
H90	H	1.006752	-0.012898	0.701106
O91	O	1.137215	-0.430087	-0.000066
C92	C	1.245663	-0.303886	-0.079083
C93	C	1.153506	-0.357777	-0.079054
H94	H	1.258867	-0.245432	-0.142947
H95	H	1.258904	-0.245263	-0.015312
H96	H	1.287461	-0.381151	-0.079037
H97	H	1.111647	-0.280590	-0.079132
H98	H	1.140333	-0.416432	-0.142819
O99	O	0.919924	0.328348	0.405344
C100	C	0.927032	0.494106	0.297013
C101	C	0.975605	0.403350	0.349848
H102	H	0.972032	0.554785	0.252146
H103	H	0.877676	0.441763	0.252022
H104	H	0.895430	0.553015	0.347816
H105	H	1.007259	0.344418	0.299111
H106	H	1.024915	0.455767	0.394852
