data_functionalizedCrystal
_audit_creation_method	'MofGen! by Chris Wilmer'
_symmetry_space_group_name_H-M	'P1'
_symmetry_Int_Tables_number	1
_symmetry_cell_setting	triclinic
loop_
_symmetry_equiv_pos_as_xyz
  x,y,z
_cell_length_a	12.759401
_cell_length_b	18.050590
_cell_length_c	12.759393
_cell_angle_alpha	90.034679
_cell_angle_beta	90.019596
_cell_angle_gamma	90.018830
loop_
_atom_site_label
_atom_site_type_symbol
_atom_site_fract_x
_atom_site_fract_y
_atom_site_fract_z
Zn1	Zn	1.606238	-0.295618	0.593952
Zn2	Zn	1.606117	-0.419826	0.418259
Zn3	Zn	1.430537	-0.295655	0.418291
Zn4	Zn	1.430517	-0.419771	0.593901
O5	O	1.518352	-0.357718	0.506101
O6	O	1.753243	-0.312102	0.570654
O7	O	1.582784	-0.403393	0.271242
O8	O	1.453903	-0.191725	0.441628
O9	O	1.753155	-0.403357	0.441573
O10	O	1.582990	-0.191698	0.570685
O11	O	1.453786	-0.312165	0.271266
O12	O	1.283513	-0.312112	0.441578
O13	O	1.453869	-0.403264	0.740929
O14	O	1.283499	-0.403300	0.570597
O15	O	1.582971	-0.312049	0.740966
O16	O	1.582765	-0.523743	0.441524
O17	O	1.453752	-0.523703	0.570566
C18	C	1.245385	-0.357704	0.506086
C19	C	1.128608	-0.357716	0.506105
C20	C	0.964035	-0.405281	0.573187
C21	C	1.073759	-0.405273	0.573176
C22	C	1.073728	-0.310170	0.439033
C23	C	0.964006	-0.310183	0.439039
C24	C	1.518272	-0.550670	0.506059
C25	C	1.518333	-0.633215	0.506076
C26	C	1.588636	-0.832661	0.436000
C27	C	1.614306	-0.881986	0.531887
C28	C	1.518393	-0.784346	0.506118
C29	C	1.492831	-0.882102	0.410275
C30	C	1.518452	-0.930331	0.506150
C31	C	1.544111	-0.832584	0.602055
C32	C	1.422592	-0.832696	0.480378
C33	C	1.448224	-0.881998	0.576330
C34	C	1.518361	-0.700247	0.506098
C35	C	1.518484	-1.014427	0.506181
C36	C	1.792386	-0.357731	0.506116
C37	C	1.909162	-0.357737	0.506122
C38	C	1.518431	-0.357646	0.780134
C39	C	1.518465	-0.357616	0.896911
C40	C	1.518462	-0.164012	0.506166
C41	C	1.518509	-0.081466	0.506193
C42	C	1.518335	-0.357735	0.233133
C43	C	1.518505	-0.357556	0.116357
C44	C	1.585693	-0.310113	0.951794
C45	C	1.585711	-0.310081	1.061518
C46	C	1.451269	-0.405061	1.061466
C47	C	1.451247	-0.405089	0.951744
H48	H	0.919327	-0.271465	0.384422
F49	F	1.132154	-0.455878	0.644553
F50	F	1.464538	-0.910533	0.304316
F51	F	1.720237	-0.910275	0.560386
F52	F	1.379739	-0.455586	1.119833
F53	F	1.370614	-0.910138	0.653939
H54	H	1.640423	-0.271455	0.907152
H55	H	1.640453	-0.271398	1.106200
H56	H	1.118395	-0.271452	0.384418
F57	F	1.572538	-0.804277	0.708044
H58	H	0.919385	-0.444004	0.627810
F59	F	1.666302	-0.804343	0.358575
H60	H	1.341572	-0.811026	0.458557
F61	F	1.379684	-0.455648	0.893330
