data_functionalizedCrystal
_audit_creation_method	'MofGen! by Chris Wilmer'
_symmetry_space_group_name_H-M	'P1'
_symmetry_Int_Tables_number	1
_symmetry_cell_setting	triclinic
loop_
_symmetry_equiv_pos_as_xyz
  x,y,z
_cell_length_a	19.902436
_cell_length_b	14.560438
_cell_length_c	14.560438
_cell_angle_alpha	90.000977
_cell_angle_beta	59.994031
_cell_angle_gamma	60.004023
loop_
_atom_site_label
_atom_site_type_symbol
_atom_site_fract_x
_atom_site_fract_y
_atom_site_fract_z
Zr1	Zr	0.735498	0.884774	-0.120609
O2	O	0.875678	0.738131	-0.267279
O3	O	0.595318	0.929725	-0.075634
O4	O	0.735500	0.929728	-0.267257
O5	O	0.735494	0.738128	0.075485
O6	O	0.735502	1.080867	-0.267255
O7	O	0.735495	0.738127	-0.075656
O8	O	0.484741	1.080860	0.075524
O9	O	0.986254	0.738134	-0.267293
O10	O	0.652977	1.061692	-0.056467
O11	O	0.652974	0.948899	0.056326
O12	O	0.818021	0.948904	-0.169285
O13	O	0.818018	0.836111	-0.056492
Zr14	Zr	0.735498	1.125822	0.120447
Zr15	Zr	0.735501	1.125822	-0.120605
Zr16	Zr	0.735495	0.884774	0.120443
Zr17	Zr	0.911855	0.884779	-0.120633
Zr18	Zr	0.559141	1.125817	0.120470
O19	O	0.875678	1.080871	0.075472
O20	O	0.875682	1.080871	-0.267273
O21	O	0.875674	0.738132	0.075466
O22	O	0.595318	1.272464	0.267116
O23	O	0.595322	1.272464	-0.075629
O24	O	0.595313	0.929725	0.267111
O25	O	0.735502	1.272468	-0.075647
O26	O	0.735495	1.080867	0.267095
O27	O	0.735494	0.929729	0.267092
O28	O	0.735500	1.272468	0.075493
O29	O	0.986257	0.929736	-0.267290
O30	O	0.484739	1.080860	0.267128
O31	O	0.484741	1.272461	0.267131
O32	O	0.484744	1.272461	0.075527
O33	O	0.986252	0.738135	-0.075689
O34	O	0.986254	0.929736	-0.075686
O35	O	0.652974	1.061692	0.169123
O36	O	0.652977	1.174485	0.056330
O37	O	0.818021	1.061696	-0.056489
O38	O	0.818018	0.948904	0.056304
C39	C	0.514902	1.005291	-0.000052
C40	C	0.440034	1.005289	-0.000042
C41	C	0.735494	0.703783	-0.000086
C42	C	0.735493	0.601452	-0.000088
C43	C	0.735502	1.005297	-0.301601
C44	C	0.735503	1.005297	-0.403934
C45	C	0.168024	1.005300	-0.000095
C46	C	0.196261	0.934493	0.071402
C47	C	0.274380	0.934109	0.071107
C48	C	0.302971	1.005295	-0.000068
C49	C	0.338536	0.953404	-0.122643
C50	C	0.260698	0.952871	-0.122266
C51	C	0.133510	1.128035	0.050001
C52	C	0.210562	1.127855	0.052496
C53	C	0.379240	1.005293	-0.000059
C54	C	0.091760	1.005299	-0.000111
C55	C	0.956093	1.005304	-0.000110
C56	C	1.030961	1.005306	-0.000120
C57	C	0.649343	0.612248	0.058802
C58	C	0.649348	0.516093	0.058812
C59	C	0.821659	0.398350	-0.058966
C60	C	0.821654	0.494504	-0.058969
C61	C	0.549860	0.680225	0.126797
C62	C	0.549865	0.584070	0.126807
C63	C	0.735502	1.306812	-0.000076
C64	C	0.735503	1.409143	-0.000075
C65	C	0.821653	0.946418	-0.510900
C66	C	0.821648	0.946422	-0.607049
C67	C	0.649337	1.064184	-0.489251
C68	C	0.649342	1.064187	-0.393105
C69	C	0.921135	0.878425	-0.578910
C70	C	0.921131	0.878429	-0.675059
C71	C	0.735494	1.005298	0.301438
C72	C	0.735493	1.005298	0.403771
C73	C	0.514906	1.306806	-0.000047
C74	C	0.440039	1.409135	-0.000036
C75	C	0.514899	1.005292	0.301468
C76	C	0.440029	1.005290	0.403810
C77	C	0.514902	1.306806	0.301472
C78	C	0.440034	1.409135	0.403817
C79	C	0.956093	0.703789	-0.301635
C80	C	1.030961	0.601460	-0.403979
C81	C	0.956089	0.703790	-0.000115
C82	C	1.030956	0.601461	-0.000127
C83	C	0.956097	1.005304	-0.301630
C84	C	1.030966	1.005306	-0.403973
C85	C	0.404881	1.398313	-0.058919
C86	C	0.334546	1.494453	-0.058931
C87	C	0.299365	1.601413	-0.000052
C88	C	0.334530	1.612233	0.058833
C89	C	0.404869	1.516094	0.058838
C90	C	0.404870	1.064165	0.510760
C91	C	0.334532	1.064159	0.606932
C92	C	0.299350	1.005283	0.596150
C93	C	0.334517	0.946400	0.489189
C94	C	0.404858	0.946400	0.393020
C95	C	0.404877	1.516077	0.393002
C96	C	0.334540	1.612235	0.489157
C97	C	0.299358	1.601449	0.596124
C98	C	0.334522	1.494497	0.606937
C99	C	0.404862	1.398341	0.510784
C100	C	1.066127	0.494519	-0.393165
C101	C	1.136486	0.398360	-0.489319
C102	C	1.171672	0.409146	-0.596287
C103	C	1.136503	0.516099	-0.607099
C104	C	1.066151	0.612255	-0.510946
C105	C	1.066122	0.612283	0.058746
C106	C	1.136477	0.516143	0.058732
C107	C	1.171660	0.409182	-0.000151
C108	C	1.136492	0.398362	-0.059031
C109	C	1.066143	0.494501	-0.059022
C110	C	1.066126	1.064193	-0.393155
C111	C	1.136464	1.064217	-0.489308
C112	C	1.171647	1.005346	-0.596277
C113	C	1.136480	0.946457	-0.607092
C114	C	1.066138	0.946440	-0.510941
H115	H	0.247733	0.968916	0.161367
H116	H	0.433525	1.311229	-0.106879
C117	C	0.109113	0.981256	0.193646
N118	N	0.043465	1.016478	0.285722
H119	H	1.165099	0.524974	0.106683
H120	H	1.228957	0.330841	-0.674572
H121	H	1.165136	0.898526	-0.694199
C122	C	0.972719	0.756810	-0.745581
N123	N	1.011573	0.665210	-0.798696
H124	H	1.165161	0.524867	-0.694204
C125	C	1.027465	0.729889	-0.522861
N126	N	0.998328	0.818489	-0.531844
H127	H	0.242082	1.679755	0.674409
C128	C	0.300587	0.830851	-0.176385
N129	N	0.330630	0.738940	-0.217128
H130	H	1.037519	0.898482	-0.519764
C131	C	1.175157	0.280723	-0.477400
N132	N	1.204282	0.192121	-0.468419
H133	H	0.226170	1.185057	0.005837
H134	H	1.037481	0.699367	0.106703
C135	C	1.249042	0.303437	-0.000143
N136	N	1.307323	0.223793	-0.000130
C137	C	0.962842	0.760828	-0.567124
N138	N	0.994256	0.672253	-0.558246
C139	C	1.175191	0.280695	-0.123779
N140	N	1.204333	0.192064	-0.172536
C141	C	1.027434	1.128968	-0.275498
N142	N	0.998290	1.177766	-0.186881
H143	H	0.511726	0.732382	0.216822
C144	C	0.221983	1.707159	-0.000059
N145	N	0.163695	1.786802	-0.000064
H146	H	0.305923	1.485621	-0.106882
C147	C	1.249027	1.005374	-0.702037
N148	N	1.307311	1.005396	-0.781691
H149	H	0.959338	0.916242	-0.578937
C150	C	1.027457	0.482578	-0.123777
N151	N	0.998322	0.473589	-0.172551
H152	H	0.222220	0.844495	0.036962
H153	H	0.305876	1.699333	0.106770
H154	H	0.242074	1.005292	0.674466
C155	C	0.041613	1.186580	0.170093
N156	N	-0.027600	1.230665	0.260550
C157	C	0.429064	0.832565	-0.177204
N158	N	0.497251	0.741551	-0.218297
C159	C	0.443526	1.528018	0.123631
N160	N	0.472638	1.537007	0.172438
H161	H	0.433475	0.898460	0.305940
H162	H	0.338838	0.843578	0.036374
H163	H	0.305861	0.898465	0.480427
H164	H	0.433513	1.524880	0.305912
H165	H	1.165090	1.112170	-0.480480
H166	H	0.579187	1.112130	-0.480448
C167	C	0.295803	1.482651	0.724613
N168	N	0.266631	1.473732	0.813249
C169	C	0.239151	1.018046	-0.198138
N170	N	0.222926	1.067133	-0.255286
H171	H	0.359430	1.002500	-0.178219
H172	H	0.433507	1.112110	0.519560
C173	C	0.171753	1.180250	0.174473
N174	N	0.142538	1.219719	0.266340
C175	C	0.443525	1.280707	0.522699
N176	N	0.472645	1.192106	0.531682
C177	C	0.108033	1.199643	-0.020011
N178	N	0.088843	1.253570	-0.072747
H179	H	0.891805	0.485704	-0.106919
C180	C	0.295853	1.128950	0.724578
N181	N	0.266720	1.177755	0.813187
C182	C	0.508157	0.749010	0.066202
N183	N	0.476746	0.800819	0.020561
H184	H	0.891808	0.311263	-0.106906
C185	C	0.295864	1.729872	0.477238
N186	N	0.266733	1.818474	0.468257
C187	C	0.498436	0.583947	0.075514
N188	N	0.459760	0.583812	0.036808
H189	H	0.518991	0.575353	0.213869
H190	H	0.579191	1.112145	-0.306011
H191	H	0.952000	0.923289	-0.725986
H192	H	1.037482	0.485715	-0.306075
