data_functionalizedCrystal
_audit_creation_method	'MofGen! by Chris Wilmer'
_symmetry_space_group_name_H-M	'P1'
_symmetry_Int_Tables_number	1
_symmetry_cell_setting	triclinic
loop_
_symmetry_equiv_pos_as_xyz
  x,y,z
_cell_length_a	11.169417
_cell_length_b	11.169416
_cell_length_c	12.759393
_cell_angle_alpha	89.970814
_cell_angle_beta	89.982015
_cell_angle_gamma	90.011398
loop_
_atom_site_label
_atom_site_type_symbol
_atom_site_fract_x
_atom_site_fract_y
_atom_site_fract_z
Zn1	Zn	1.834946	-0.477696	-0.593986
Zn2	Zn	1.834841	-0.678429	-0.418314
Zn3	Zn	1.634237	-0.477763	-0.418327
Zn4	Zn	1.634240	-0.678340	-0.593956
O5	O	1.734566	-0.578057	-0.506146
O6	O	2.002882	-0.504333	-0.570689
O7	O	1.808186	-0.651875	-0.271294
O8	O	1.660904	-0.309804	-0.441646
O9	O	2.002805	-0.651810	-0.441624
O10	O	1.808364	-0.309755	-0.570702
O11	O	1.660803	-0.504446	-0.271304
O12	O	1.466288	-0.504360	-0.441618
O13	O	1.660909	-0.651659	-0.740981
O14	O	1.466290	-0.651724	-0.570652
O15	O	1.808367	-0.504247	-0.741003
O16	O	1.808188	-0.846367	-0.441595
O17	O	1.660807	-0.846301	-0.570639
C18	C	1.422741	-0.578041	-0.506134
C19	C	1.289341	-0.578063	-0.506153
C20	C	1.734519	-0.889881	-0.506135
C21	C	1.734609	-1.023281	-0.506166
C22	C	2.047608	-0.578074	-0.506158
C23	C	2.181008	-0.578081	-0.506164
C24	C	1.734650	-0.577935	-0.780179
C25	C	1.734685	-0.577884	-0.896956
C26	C	1.734645	-0.265014	-0.506179
C27	C	1.734679	-0.131614	-0.506193
C28	C	1.657971	-0.501104	-0.951822
C29	C	1.657999	-0.501067	-1.061547
C30	C	1.811466	-0.654593	-1.061528
C31	C	1.811432	-0.654635	-0.951806
C32	C	1.734552	-0.578091	-0.233178
C33	C	1.734748	-0.577805	-0.116402
H34	H	1.595479	-0.438608	-0.907167
C35	C	1.828019	-0.816129	-0.828393
C36	C	1.895762	-0.739041	-0.891489
H37	H	1.880078	-0.868241	-0.791162
H38	H	1.782316	-0.770429	-0.780030
H39	H	1.775734	-0.862011	-0.871202
H40	H	1.948041	-0.693152	-0.848679
H41	H	1.941486	-0.784745	-0.939858
C42	C	1.454800	-0.442565	-1.095307
C43	C	1.573670	-0.416663	-1.121850
H44	H	1.402738	-0.390450	-1.132530
H45	H	1.437224	-0.523184	-1.113283
H46	H	1.443821	-0.431607	-1.022107
H47	H	1.584651	-0.427629	-1.195049
H48	H	1.591253	-0.336024	-1.103881
C49	C	1.879670	-0.722692	-1.229717
C50	C	1.895832	-0.738946	-1.121823
H51	H	1.931762	-0.774765	-1.266937
H52	H	1.799041	-0.740247	-1.247689
H53	H	1.897265	-0.642044	-1.247699
H54	H	1.878228	-0.819594	-1.103840
H55	H	1.976479	-0.721400	-1.103844
