data_functionalizedCrystal
_audit_creation_method	'MofGen! by Chris Wilmer'
_symmetry_space_group_name_H-M	'P1'
_symmetry_Int_Tables_number	1
_symmetry_cell_setting	triclinic
loop_
_symmetry_equiv_pos_as_xyz
  x,y,z
_cell_length_a	17.699083
_cell_length_b	12.837942
_cell_length_c	16.776229
_cell_angle_alpha	89.994225
_cell_angle_beta	89.998886
_cell_angle_gamma	89.055978
loop_
_atom_site_label
_atom_site_type_symbol
_atom_site_fract_x
_atom_site_fract_y
_atom_site_fract_z
O1	O	1.013707	0.131067	-0.066175
O2	O	0.794582	0.148119	-0.066201
O3	O	0.899286	-0.011297	-0.066184
O4	O	0.909003	0.290484	-0.066192
O5	O	0.899269	-0.011307	0.066393
O6	O	0.794565	0.148110	0.066376
O7	O	1.013691	0.131057	0.066401
Zn8	Zn	0.904126	0.139582	0.087438
Zn9	Zn	0.904147	0.139595	-0.087237
O10	O	0.908987	0.290474	0.066384
C11	C	0.766332	0.147503	0.000084
C12	C	0.682179	0.145670	0.000074
C13	C	0.640432	0.239245	0.000072
C14	C	0.561362	0.237516	0.000082
C15	C	0.524040	0.142212	0.000089
C16	C	0.565792	0.048631	0.000094
C17	C	0.644861	0.050360	0.000089
C18	C	0.246916	0.041653	0.000114
C19	C	0.167842	0.039931	0.000116
C20	C	0.163418	0.228809	0.000107
C21	C	0.242486	0.230539	0.000102
C22	C	0.284232	0.136958	0.000111
C23	C	0.369969	0.138833	0.000101
C24	C	0.438304	0.140336	0.000093
C25	C	0.895995	-0.049915	0.000104
C26	C	0.886204	-0.164967	0.000101
C27	C	1.003908	-0.406222	0.000099
C28	C	0.994712	-0.514324	0.000096
C29	C	0.858617	-0.489277	0.000088
C30	C	0.867813	-0.381174	0.000091
C31	C	0.940461	-0.339651	0.000097
C32	C	0.949656	-0.231546	0.000105
C33	C	0.813561	-0.206501	0.000092
C34	C	0.804365	-0.314604	0.000089
C35	C	1.041941	0.131673	0.000115
C36	C	1.126094	0.133506	0.000119
C37	C	0.912278	0.329091	0.000095
C38	C	0.922069	0.444144	0.000092
N39	N	0.904117	0.139572	0.206649
N40	N	0.904161	0.139596	-0.206449
C41	C	0.950497	0.069012	0.248374
C42	C	0.950502	0.069011	0.331826
C43	C	0.904128	0.139576	0.373552
C44	C	0.857742	0.210141	0.331821
C45	C	0.857735	0.210136	0.248371
C46	C	0.857771	0.210161	0.668369
C47	C	0.857784	0.210163	0.751825
C48	C	0.950538	0.069036	0.751824
C49	C	0.950530	0.069031	0.668373
C50	C	0.904142	0.139591	0.626650
C51	C	0.904137	0.139590	0.536162
C52	C	0.904137	0.139583	0.464039
H53	H	0.527375	0.313714	0.000079
H54	H	1.046378	-0.568524	0.000095
F55	F	0.282203	0.331974	0.000090
H56	H	0.799470	-0.523105	0.000075
H57	H	0.137457	-0.037681	0.000123
F58	F	0.680146	0.340682	0.000059
F59	F	0.118983	0.328407	0.000100
F60	F	0.727052	-0.358808	0.000076
H61	H	0.988294	0.011574	0.634403
H62	H	0.820019	0.267628	0.785797
H63	H	1.063061	-0.372413	0.000112
F64	F	1.026973	-0.187355	0.000117
F65	F	0.808368	0.285234	0.203965
H66	H	0.761898	-0.152287	0.000097
F67	F	0.291335	-0.057944	0.000123
H68	H	0.988263	0.011553	0.214406
H69	H	0.988268	0.011554	0.365798
F70	F	0.526069	-0.052799	0.000107
F71	F	0.999907	-0.006065	0.796235
H72	H	0.819981	0.267593	0.365799
F73	F	0.689290	-0.049234	0.000095
F74	F	0.808404	0.285258	0.623970
