data_functionalizedCrystal
_audit_creation_method	'MofGen! by Chris Wilmer'
_symmetry_space_group_name_H-M	'P1'
_symmetry_Int_Tables_number	1
_symmetry_cell_setting	triclinic
loop_
_symmetry_equiv_pos_as_xyz
  x,y,z
_cell_length_a	14.044191
_cell_length_b	14.044220
_cell_length_c	9.130313
_cell_angle_alpha	90.000868
_cell_angle_beta	90.000955
_cell_angle_gamma	93.190327
loop_
_atom_site_label
_atom_site_type_symbol
_atom_site_fract_x
_atom_site_fract_y
_atom_site_fract_z
O1	O	1.277171	0.230193	0.121735
O2	O	1.000498	0.221880	0.121753
O3	O	1.134682	0.087701	0.121730
O4	O	1.142987	0.364373	0.121758
O5	O	1.134672	0.087709	-0.121869
O6	O	1.000489	0.221888	-0.121845
O7	O	1.277161	0.230201	-0.121864
Cu8	Cu	1.138824	0.226045	-0.144097
Cu9	Cu	1.138835	0.226036	0.143987
O10	O	1.142978	0.364381	-0.121840
C11	C	0.964872	0.218248	-0.000044
C12	C	0.858728	0.207401	-0.000037
C13	C	1.131041	0.052083	-0.000070
C14	C	1.120197	-0.054060	-0.000071
C15	C	0.613270	0.264501	-0.000046
C16	C	0.664395	0.187585	-0.000051
C17	C	0.772532	0.198613	-0.000044
C18	C	0.505123	0.253474	-0.000054
C19	C	1.100370	-0.248398	-0.000048
C20	C	1.177285	-0.299526	-0.000049
C21	C	1.166253	-0.407663	-0.000037
C22	C	1.111400	-0.140252	-0.000061
C23	C	1.312788	0.233834	-0.000063
C24	C	1.418931	0.244681	-0.000060
C25	C	1.146618	0.399998	-0.000037
C26	C	1.157463	0.506142	-0.000027
N27	N	1.138823	0.226052	-0.346720
C28	C	1.201620	0.288882	-0.423384
C29	C	1.201633	0.288866	-0.576720
C30	C	1.076043	0.163185	-0.576716
C31	C	1.076036	0.163198	-0.423382
C32	C	1.274126	0.361446	-0.423387
C33	C	1.274139	0.361429	-0.576724
N34	N	1.138843	0.226023	0.346609
H35	H	0.626952	0.113452	0.000044
H36	H	0.650711	0.338628	-0.000034
O37	O	1.275488	-0.249943	-0.000082
H38	H	1.268858	-0.171558	-0.000106
O39	O	1.002174	-0.297981	-0.000065
H40	H	1.008811	-0.376365	-0.000077
H41	H	1.024910	0.112026	-0.360968
H42	H	1.024924	0.112012	-0.639153
O43	O	1.371431	0.337952	-0.368227
H44	H	1.419074	0.326429	-0.462827
H45	H	1.249549	0.431006	-0.375844
H46	H	1.256350	0.434878	-0.618356
H47	H	1.343720	0.336895	-0.624265
