data_functionalizedCrystal
_audit_creation_method	'MofGen! by Chris Wilmer'
_symmetry_space_group_name_H-M	'P1'
_symmetry_Int_Tables_number	1
_symmetry_cell_setting	triclinic
loop_
_symmetry_equiv_pos_as_xyz
  x,y,z
_cell_length_a	6.817900
_cell_length_b	17.078472
_cell_length_c	15.185463
_cell_angle_alpha	96.086579
_cell_angle_beta	104.264314
_cell_angle_gamma	99.306020
loop_
_atom_site_label
_atom_site_type_symbol
_atom_site_fract_x
_atom_site_fract_y
_atom_site_fract_z
V1	V	-4.014448	-0.110291	-0.283301
O2	O	-4.023634	0.004760	-0.278002
O3	O	-3.945430	-0.218170	-0.281273
O4	O	-3.970083	-0.108832	-0.406900
O5	O	-3.998810	-0.105335	-0.151506
V6	V	-4.500224	-0.096502	-0.267548
O7	O	-4.270762	-0.140540	-0.317856
O8	O	-4.694106	-0.066254	-0.232993
O9	O	-4.346035	0.011377	-0.269576
O10	O	-4.608434	-0.211554	-0.272847
O11	O	-4.633259	-0.101458	-0.399344
O12	O	-4.321382	-0.097962	-0.143950
C13	C	-3.785284	-0.244462	-0.276781
C14	C	-3.810168	-0.332656	-0.275947
C15	C	-4.003335	-0.378139	-0.280085
C16	C	-4.026706	-0.461007	-0.279307
C17	C	-3.856905	-0.498390	-0.274383
C18	C	-3.663724	-0.452901	-0.270247
C19	C	-3.640358	-0.370035	-0.271032
C20	C	-3.907329	-0.745788	-0.271555
C21	C	-3.930710	-0.828660	-0.270768
C22	C	-4.293692	-0.836760	-0.279829
C23	C	-4.270306	-0.753892	-0.280608
C24	C	-4.077131	-0.708411	-0.276477
N25	N	-3.880789	-0.583094	-0.273584
N26	N	-4.053253	-0.623709	-0.277282
C27	C	-3.816731	-0.104988	-0.437029
C28	C	-3.861606	-0.104508	-0.538071
C29	C	-3.869849	-0.098538	-0.960679
C30	C	-4.232860	-0.106475	-0.969924
C31	C	-4.190699	-0.106918	-0.874988
C32	C	-3.988108	-0.103173	-0.822894
C33	C	-3.827679	-0.098984	-0.865735
C34	C	-4.351124	-0.111115	-0.832141
C35	C	-4.308968	-0.111560	-0.737200
C36	C	-4.106372	-0.107809	-0.685103
C37	C	-3.945938	-0.103619	-0.727950
C38	C	-3.743347	-0.099874	-0.675856
C39	C	-3.582908	-0.095678	-0.718700
C40	C	-3.625083	-0.095233	-0.813638
C41	C	-4.064197	-0.108254	-0.590165
C42	C	-3.701177	-0.100320	-0.580912
C43	C	-4.169522	0.037664	-0.274066
C44	C	-4.123877	0.125857	-0.274906
C45	C	-4.138075	-0.101808	-0.113816
C46	C	-4.072440	-0.102283	-0.012773
H47	H	-3.483065	-0.333004	-0.267666
Br48	Br	-4.507798	-0.111570	-1.040625
H49	H	-4.184001	-0.498036	-0.282678
Br50	Br	-3.700254	-0.879395	-0.264098
Br51	Br	-3.307972	-0.090607	-0.647991
H52	H	-3.494468	-0.091819	-0.848531
Br53	Br	-4.555847	-0.898487	-0.285435
Br54	Br	-4.233793	-0.327412	-0.286761
H55	H	-3.739225	-0.095119	-0.995566
H56	H	-4.439611	-0.114975	-0.702325
Br57	Br	-4.626060	-0.116212	-0.902846
Br58	Br	-3.645162	-0.684074	-0.265943
Br59	Br	-3.433279	-0.503635	-0.263574
H60	H	-3.536201	-0.097255	-0.538500
Br61	Br	-4.281918	-0.113957	-0.532024
H62	H	-4.408584	-0.723462	-0.284624
