data_functionalizedCrystal
_audit_creation_method	'MofGen! by Chris Wilmer'
_symmetry_space_group_name_H-M	'P1'
_symmetry_Int_Tables_number	1
_symmetry_cell_setting	triclinic
loop_
_symmetry_equiv_pos_as_xyz
  x,y,z
_cell_length_a	14.044191
_cell_length_b	17.019370
_cell_length_c	12.503572
_cell_angle_alpha	97.387854
_cell_angle_beta	86.162165
_cell_angle_gamma	88.281856
loop_
_atom_site_label
_atom_site_type_symbol
_atom_site_fract_x
_atom_site_fract_y
_atom_site_fract_z
O1	O	1.261861	0.186817	-0.071996
O2	O	0.985940	0.179918	-0.072647
O3	O	1.132249	0.068582	-0.082927
O4	O	1.115552	0.298153	-0.061716
O5	O	1.121246	0.076971	0.096490
O6	O	0.974937	0.188307	0.106769
O7	O	1.250857	0.195205	0.107421
Cu8	Cu	1.111892	0.192522	0.123477
Cu9	Cu	1.124905	0.182602	-0.088703
O10	O	1.104549	0.306541	0.117700
C11	C	0.945145	0.181095	0.016780
C12	C	0.839983	0.172094	0.015943
C13	C	0.589364	0.219474	0.020332
C14	C	0.647440	0.155652	0.014433
C15	C	0.754581	0.164803	0.015274
C16	C	0.482213	0.210325	0.019491
C17	C	1.126331	0.043219	0.004048
C18	C	1.125079	-0.044854	-0.004096
C19	C	1.118491	-0.081666	0.089872
C20	C	1.117321	-0.164421	0.082210
C21	C	1.122733	-0.210363	-0.019422
C22	C	1.129324	-0.173545	-0.113397
C23	C	1.130501	-0.090792	-0.105734
C24	C	1.119487	-0.460452	-0.047452
C25	C	1.118307	-0.543211	-0.055108
C26	C	1.106306	-0.534081	0.140500
C27	C	1.107477	-0.451327	0.148155
C28	C	1.114074	-0.414517	0.054179
C29	C	1.121534	-0.294951	-0.027256
C30	C	1.115279	-0.329930	0.062014
C31	C	1.291652	0.194028	0.017991
C32	C	1.396815	0.203029	0.018821
C33	C	1.110467	0.331904	0.030723
C34	C	1.111719	0.419977	0.038861
N35	N	1.102747	0.199499	0.272714
N36	N	1.134058	0.175619	-0.237941
C37	C	1.089293	0.209770	0.492777
C38	C	1.147509	0.165350	0.542003
C39	C	1.140023	0.171065	0.664454
C40	C	1.096778	0.204056	0.370315
H41	H	0.616701	0.094137	0.008674
C42	C	0.630897	0.302568	0.027998
N43	N	0.662191	0.365154	0.033768
H44	H	1.135866	-0.060821	-0.182254
H45	H	1.114068	-0.044266	0.172632
H46	H	1.110878	-0.292521	0.144762
H47	H	1.033836	0.252087	0.542592
H48	H	1.111961	-0.194390	0.158730
H49	H	1.202971	0.123031	0.492183
C50	C	1.099056	-0.574579	0.243867
N51	N	1.093598	-0.605083	0.321726
C52	C	1.101522	-0.400797	0.259958
N53	N	1.097032	-0.362738	0.344169
C54	C	1.124224	-0.593744	-0.166916
N55	N	1.128664	-0.631804	-0.251125
H56	H	1.124857	-0.430492	-0.123974
C57	C	1.135277	-0.224084	-0.225194
N58	N	1.139756	-0.262148	-0.309401
C59	C	1.127478	-0.345494	-0.139049
N60	N	1.131954	-0.383566	-0.223251
