data_functionalizedCrystal
_audit_creation_method	'MofGen! by Chris Wilmer'
_symmetry_space_group_name_H-M	'P1'
_symmetry_Int_Tables_number	1
_symmetry_cell_setting	triclinic
loop_
_symmetry_equiv_pos_as_xyz
  x,y,z
_cell_length_a	16.109302
_cell_length_b	14.519731
_cell_length_c	15.186229
_cell_angle_alpha	89.995270
_cell_angle_beta	89.994701
_cell_angle_gamma	83.575317
loop_
_atom_site_label
_atom_site_type_symbol
_atom_site_fract_x
_atom_site_fract_y
_atom_site_fract_z
O1	O	1.103344	0.118542	-0.073270
O2	O	1.603344	0.618542	0.426730
O3	O	0.861308	0.133293	-0.073263
O4	O	1.361308	0.633293	0.426737
O5	O	0.988734	-0.008333	-0.073259
O6	O	1.488734	0.491667	0.426741
O7	O	0.975918	0.260168	-0.073275
O8	O	1.475918	0.760168	0.426725
O9	O	0.988725	-0.008335	0.073198
O10	O	1.488725	0.491665	0.573198
O11	O	0.861300	0.133291	0.073194
O12	O	1.361300	0.633291	0.573194
O13	O	1.103335	0.118540	0.073187
O14	O	1.603335	0.618540	0.573187
Zn15	Zn	0.982316	0.125915	0.096444
Zn16	Zn	1.482316	0.625915	0.596444
Zn17	Zn	0.982327	0.125918	-0.096520
Zn18	Zn	1.482327	0.625918	0.403480
O19	O	0.975909	0.260166	0.073183
O20	O	1.475909	0.760166	0.573183
C21	C	0.830328	0.132695	-0.000034
C22	C	1.330328	0.632695	0.499966
C23	C	0.738030	0.130903	-0.000031
C24	C	1.238030	0.630903	0.499969
C25	C	0.525677	0.126758	0.079794
C26	C	1.025677	0.626758	0.579794
C27	C	0.438953	0.125065	0.079791
C28	C	0.938953	0.625065	0.579791
C29	C	0.438973	0.125072	-0.079884
C30	C	0.938973	0.625072	0.420116
C31	C	0.525696	0.126759	-0.079881
C32	C	1.025696	0.626759	0.420119
C33	C	0.569044	0.127607	-0.000039
C34	C	1.069044	0.627607	0.499961
C35	C	0.395599	0.124226	-0.000045
C36	C	0.895599	0.624226	0.499955
C37	C	0.301570	0.122390	-0.000049
C38	C	0.801570	0.622390	0.499951
C39	C	0.663080	0.129441	-0.000034
C40	C	1.163080	0.629441	0.499966
C41	C	0.988129	-0.042692	-0.000030
C42	C	1.488129	0.457308	0.499970
C43	C	0.986330	-0.145069	-0.000029
C44	C	1.486330	0.354931	0.499971
C45	C	0.984868	-0.228210	-0.000031
C46	C	1.484868	0.271790	0.499969
C47	C	0.983041	-0.332515	-0.000038
C48	C	1.483041	0.167485	0.499962
C49	C	0.981591	-0.415651	-0.000044
C50	C	1.481591	0.084349	0.499956
C51	C	0.979764	-0.519962	-0.000049
C52	C	1.479764	-0.019962	0.499951
C53	C	1.134315	0.119139	-0.000044
C54	C	1.634315	0.619139	0.499956
C55	C	1.226614	0.120930	-0.000053
C56	C	1.726614	0.620930	0.499947
C57	C	0.976514	0.294525	-0.000048
C58	C	1.476514	0.794525	0.499952
C59	C	0.978314	0.396902	-0.000054
C60	C	1.478314	0.896902	0.499946
N61	N	0.982315	0.125913	0.228136
N62	N	1.482315	0.625913	0.728136
N63	N	0.982335	0.125913	-0.228213
N64	N	1.482335	0.625913	0.271787
C65	C	1.038758	0.063222	0.453861
C66	C	1.538758	0.563222	0.953861
C67	C	1.038760	0.063220	0.546051
C68	C	1.538760	0.563220	1.046051
C69	C	0.925886	0.188607	0.546056
C70	C	1.425886	0.688607	1.046056
C71	C	0.925880	0.188604	0.453868
C72	C	1.425880	0.688604	0.953868
C73	C	0.982321	0.125912	0.407773
C74	C	1.482321	0.625912	0.907773
C75	C	0.982329	0.125913	0.592151
C76	C	1.482329	0.625913	1.092151
C77	C	0.982332	0.125911	0.692107
C78	C	1.482332	0.625911	1.192107
C79	C	0.982317	0.125913	0.307811
C80	C	1.482317	0.625913	0.807811
H81	H	0.403668	0.124383	-0.144889
H82	H	0.903668	0.624383	0.355111
C83	C	0.863810	0.257573	0.596761
C84	C	1.363810	0.757573	1.096761
C85	C	0.863857	0.257634	0.698164
C86	C	1.363857	0.757634	1.198164
C87	C	0.801781	0.326605	0.748866
C88	C	1.301781	0.826605	1.248866
C89	C	0.739657	0.395513	0.698164
C90	C	1.239657	0.895513	1.198164
C91	C	0.739607	0.395454	0.596756
C92	C	1.239607	0.895454	1.096756
C93	C	0.801683	0.326484	0.546054
C94	C	1.301683	0.826484	1.046054
H95	H	0.909847	0.206622	0.735701
H96	H	1.409847	0.706622	1.235701
H97	H	0.801818	0.326648	0.823936
H98	H	1.301818	0.826648	1.323936
H99	H	0.693704	0.446569	0.735697
H100	H	1.193704	0.946569	1.235697
H101	H	0.693617	0.446467	0.559218
H102	H	1.193617	0.946467	1.059218
H103	H	0.801646	0.326441	0.470984
H104	H	1.301646	0.826441	0.970984
H105	H	0.403647	0.124374	0.144799
H106	H	0.903647	0.624374	0.644799
C107	C	0.573362	0.127687	0.167618
C108	C	1.073362	0.627687	0.667618
C109	C	0.525654	0.126753	0.255432
C110	C	1.025654	0.626753	0.755432
C111	C	0.573336	0.127682	0.343258
C112	C	1.073336	0.627682	0.843258
C113	C	0.668727	0.129545	0.343270
C114	C	1.168727	0.629545	0.843270
C115	C	0.716440	0.130479	0.255452
C116	C	1.216440	0.630479	0.755452
C117	C	0.668757	0.129550	0.167626
C118	C	1.168757	0.629550	0.667626
H119	H	0.455036	0.125374	0.255427
H120	H	0.955036	0.625374	0.755427
H121	H	0.538015	0.126990	0.408267
H122	H	1.038015	0.626990	0.908267
H123	H	0.704024	0.130232	0.408284
H124	H	1.204024	0.630232	0.908284
H125	H	0.787058	0.131858	0.255458
H126	H	1.287058	0.631858	0.755458
H127	H	0.704078	0.130242	0.102618
H128	H	1.204078	0.630242	0.602618
C129	C	0.573407	0.127693	-0.167703
C130	C	1.073407	0.627693	0.332297
C131	C	0.525727	0.126773	-0.255526
C132	C	1.025727	0.626773	0.244474
C133	C	0.573439	0.127703	-0.343343
C134	C	1.073439	0.627703	0.156657
C135	C	0.668831	0.129555	-0.343337
C136	C	1.168831	0.629555	0.156663
C137	C	0.716516	0.130476	-0.255511
C138	C	1.216516	0.630476	0.244489
C139	C	0.668804	0.129545	-0.167693
C140	C	1.168804	0.629545	0.332307
H141	H	0.455108	0.125402	-0.255533
H142	H	0.955108	0.625402	0.244467
H143	H	0.538139	0.127022	-0.408358
H144	H	1.038139	0.627022	0.091642
H145	H	0.704150	0.130244	-0.408345
H146	H	1.204150	0.630244	0.091655
H147	H	0.787135	0.131846	-0.255503
H148	H	1.287135	0.631846	0.244497
H149	H	0.704104	0.130226	-0.102678
H150	H	1.204104	0.630226	0.397322
H151	H	1.084714	0.012173	0.416333
H152	H	1.584714	0.512173	0.916333
C153	C	1.100844	-0.005738	0.596749
C154	C	1.600844	0.494262	1.096749
C155	C	1.162931	-0.074686	0.546044
C156	C	1.662931	0.425314	1.046044
C157	C	1.225017	-0.143648	0.596743
C158	C	1.725017	0.356352	1.096743
C159	C	1.225016	-0.143662	0.698146
C160	C	1.725016	0.356338	1.198146
C161	C	1.162927	-0.074712	0.748856
C162	C	1.662927	0.425288	1.248856
C163	C	1.100841	-0.005750	0.698158
C164	C	1.600841	0.494250	1.198158
H165	H	1.162934	-0.074678	0.470975
H166	H	1.662934	0.425322	0.970975
H167	H	1.270980	-0.194689	0.559203
H168	H	1.770980	0.305311	1.059203
H169	H	1.270976	-0.194712	0.735676
H170	H	1.770976	0.305288	1.235676
H171	H	1.162924	-0.074720	0.823926
H172	H	1.662924	0.425280	1.323926
H173	H	1.054878	0.045292	0.735698
H174	H	1.554878	0.545292	1.235698
H175	H	0.879918	0.239655	0.416340
H176	H	1.379918	0.739655	0.916340
