data_functionalizedCrystal
_audit_creation_method	'MofGen! by Chris Wilmer'
_symmetry_space_group_name_H-M	'P1'
_symmetry_Int_Tables_number	1
_symmetry_cell_setting	triclinic
loop_
_symmetry_equiv_pos_as_xyz
  x,y,z
_cell_length_a	19.805407
_cell_length_b	12.759394
_cell_length_c	19.805399
_cell_angle_alpha	90.022004
_cell_angle_beta	90.019573
_cell_angle_gamma	90.014642
loop_
_atom_site_label
_atom_site_type_symbol
_atom_site_fract_x
_atom_site_fract_y
_atom_site_fract_z
Zn1	Zn	1.034791	-0.418291	0.382746
Zn2	Zn	1.534791	0.081709	0.882746
Zn3	Zn	1.034729	-0.593984	0.269569
Zn4	Zn	1.534729	-0.093984	0.769569
Zn5	Zn	0.921606	-0.418320	0.269570
Zn6	Zn	1.421606	0.081680	0.769570
Zn7	Zn	0.921592	-0.593928	0.382715
Zn8	Zn	1.421592	-0.093928	0.882715
O9	O	0.978180	-0.506131	0.326150
O10	O	1.478180	-0.006131	0.826150
O11	O	1.129499	-0.441608	0.367745
O12	O	1.629499	0.058392	0.867745
O13	O	1.019703	-0.570717	0.174852
O14	O	1.519703	-0.070717	0.674852
O15	O	0.936651	-0.271295	0.284597
O16	O	1.436651	0.228705	0.784597
O17	O	1.129454	-0.570689	0.284594
O18	O	1.629454	-0.070689	0.784594
O19	O	1.019808	-0.271274	0.367746
O20	O	1.519808	0.228726	0.867746
O21	O	0.936591	-0.441658	0.174854
O22	O	1.436591	0.058342	0.674854
O23	O	0.826887	-0.441603	0.284567
O24	O	1.326887	0.058397	0.784567
O25	O	0.936629	-0.570594	0.477436
O26	O	1.436629	-0.070594	0.977436
O27	O	0.826878	-0.570622	0.367695
O28	O	1.326878	-0.070622	0.867695
O29	O	1.019795	-0.441554	0.477458
O30	O	1.519795	0.058446	0.977458
O31	O	1.019690	-0.740998	0.284564
O32	O	1.519690	-0.240998	0.784564
O33	O	0.936569	-0.740957	0.367693
O34	O	1.436569	-0.240957	0.867693
C35	C	0.802324	-0.506111	0.326128
C36	C	1.302324	-0.006111	0.826128
C37	C	0.727092	-0.506127	0.326135
C38	C	1.227092	-0.006127	0.826135
C39	C	0.978140	-0.779098	0.326140
C40	C	1.478140	-0.279098	0.826140
C41	C	0.978184	-0.895875	0.326158
C42	C	1.478184	-0.395875	0.826158
C43	C	0.691760	-0.573409	0.369349
C44	C	1.191760	-0.073409	0.869349
C45	C	0.621072	-0.573411	0.369359
C46	C	1.121072	-0.073411	0.869359
C47	C	0.585716	-0.506136	0.326150
C48	C	1.085716	-0.006136	0.826150
C49	C	0.621052	-0.438847	0.282934
C50	C	1.121052	0.061153	0.782934
C51	C	0.691740	-0.438841	0.282928
C52	C	1.191740	0.061159	0.782928
C53	C	0.335979	-0.438870	0.282956
C54	C	0.835979	0.061130	0.782956
C55	C	0.265287	-0.438884	0.282964
C56	C	0.765287	0.061116	0.782964
C57	C	0.265311	-0.573440	0.369387
C58	C	0.765311	-0.073440	0.869387
C59	C	0.335998	-0.573434	0.369381
C60	C	0.835998	-0.073434	0.869381
C61	C	0.371329	-0.506142	0.326168
C62	C	0.871329	-0.006142	0.826168
C63	C	0.447977	-0.506139	0.326159
C64	C	0.947977	-0.006139	0.826159
C65	C	0.509069	-0.506143	0.326155
C66	C	1.009069	-0.006143	0.826155
C67	C	1.064882	-1.115288	0.239689
C68	C	1.564882	-0.615288	0.739689
C69	C	1.108175	-1.060411	0.196436
C70	C	1.608175	-0.560411	0.696436
C71	C	1.108140	-0.950689	0.196423
C72	C	1.608140	-0.450689	0.696423
C73	C	1.064806	-0.895842	0.239666
C74	C	1.564806	-0.395842	0.739666
C75	C	1.021513	-0.950719	0.282918
C76	C	1.521513	-0.450719	0.782918
C77	C	1.021554	-1.060443	0.282929
C78	C	1.521554	-0.560443	0.782929
C79	C	0.934891	-0.950752	0.369411
C80	C	1.434891	-0.450752	0.869411
C81	C	0.934929	-1.060474	0.369429
C82	C	1.434929	-0.560474	0.869429
C83	C	0.891557	-0.895905	0.412654
C84	C	1.391557	-0.395905	0.912654
C85	C	0.848266	-0.950782	0.455911
C86	C	1.348266	-0.450782	0.955911
C87	C	0.848304	-1.060511	0.455923
C88	C	1.348304	-0.560511	0.955923
C89	C	0.891636	-1.115351	0.412682
C90	C	1.391636	-0.615351	0.912682
C91	C	1.154722	-0.506152	0.326172
C92	C	1.654722	-0.006152	0.826172
C93	C	1.229954	-0.506161	0.326182
C94	C	1.729954	-0.006161	0.826182
C95	C	0.978218	-0.506065	0.502693
C96	C	1.478218	-0.006065	1.002693
C97	C	0.978234	-0.506036	0.577925
C98	C	1.478234	-0.006036	1.077925
C99	C	0.978238	-0.232097	0.326175
C100	C	1.478238	0.267903	0.826175
C101	C	0.978263	-0.115321	0.326186
C102	C	1.478263	0.384679	0.826186
C103	C	0.978181	-0.506121	0.150294
C104	C	1.478181	-0.006121	0.650294
C105	C	0.978296	-0.505853	0.075063
C106	C	1.478296	-0.005853	0.575063
C107	C	1.021539	-0.438842	0.613282
C108	C	1.521539	0.061158	1.113282
C109	C	1.021546	-0.438811	0.683970
C110	C	1.521546	0.061189	1.183970
C111	C	0.978251	-0.505982	0.719301
C112	C	1.478251	-0.005982	1.219301
C113	C	0.934940	-0.573179	0.683939
C114	C	1.434940	-0.073179	1.183939
C115	C	0.934930	-0.573203	0.613252
C116	C	1.434930	-0.073203	1.113252
C117	C	0.934978	-0.573081	0.969012
C118	C	1.434978	-0.073081	1.469012
C119	C	0.934993	-0.573054	1.039704
C120	C	1.434993	-0.073054	1.539704
C121	C	1.021594	-0.438689	1.039731
C122	C	1.521594	0.061311	1.539731
C123	C	1.021585	-0.438713	0.969044
C124	C	1.521585	0.061287	1.469044
C125	C	0.978272	-0.505907	0.933688
C126	C	1.478272	-0.005907	1.433688
C127	C	0.978264	-0.505937	0.857040
C128	C	1.478264	-0.005937	1.357040
C129	C	0.978261	-0.505957	0.795948
C130	C	1.478261	-0.005957	1.295948
H131	H	0.720542	-0.628195	0.404532
H132	H	1.220542	-0.128195	0.904532
O133	O	0.729847	-0.366282	0.236309
O134	O	1.229847	0.133718	0.736309
H135	H	0.716291	-0.283850	0.248002
H136	H	1.216291	0.216150	0.748002
H137	H	1.064921	-1.204629	0.239702
H138	H	1.564921	-0.704629	0.739702
O139	O	0.374082	-0.366328	0.236329
O140	O	0.874082	0.133672	0.736329
H141	H	0.337619	-0.319569	0.206274
H142	H	0.837619	0.180431	0.706274
H143	H	0.592260	-0.384066	0.247756
H144	H	1.092260	0.115934	0.747756
O145	O	1.068287	-0.366271	0.930939
O146	O	1.568287	0.133729	1.430939
H147	H	1.038001	-0.312831	0.898728
H148	H	1.538001	0.187169	1.398728
H149	H	0.899685	-0.627866	0.712710
H150	H	1.399685	-0.127866	1.212710
O151	O	1.154932	-1.119563	0.149815
O152	O	1.654932	-0.619563	0.649815
H153	H	1.147697	-1.205079	0.157099
H154	H	1.647697	-0.705079	0.657099
H155	H	1.143390	-0.906008	0.161200
H156	H	1.643390	-0.406008	0.661200
O157	O	1.068299	-0.366205	1.077876
O158	O	1.568299	0.133795	1.577876
H159	H	1.121417	-0.384239	1.064329
H160	H	1.621417	0.115761	1.564329
O161	O	1.064762	-0.777499	0.239651
O162	O	1.564762	-0.277499	0.739651
H163	H	1.102147	-0.748554	0.202312
H164	H	1.602147	-0.248554	0.702312
H165	H	0.891529	-0.806564	0.412637
H166	H	1.391529	-0.306564	0.912637
O167	O	0.888286	-0.645493	1.077815
O168	O	1.388286	-0.145493	1.577815
H169	H	0.858159	-0.692211	1.041355
H170	H	1.358159	-0.192211	1.541355
O171	O	0.374129	-0.645991	0.415990
O172	O	0.874129	-0.145991	0.915990
H173	H	0.406355	-0.599025	0.450469
H174	H	0.906355	-0.099025	0.950469
O175	O	0.583031	-0.646176	0.415897
O176	O	1.083031	-0.146176	0.915897
H177	H	0.596615	-0.628421	0.469061
H178	H	1.096615	-0.128421	0.969061
O179	O	0.227206	-0.646012	0.416006
O180	O	0.727206	-0.146012	0.916006
H181	H	0.172113	-0.634709	0.408761
H182	H	0.672113	-0.134709	0.908761
H183	H	0.899720	-0.627809	0.940234
H184	H	1.399720	-0.127809	1.440234
H185	H	0.236502	-0.384094	0.247778
H186	H	0.736502	0.115906	0.747778
O187	O	0.801532	-0.891632	0.502549
O188	O	1.301532	-0.391632	1.002549
H189	H	0.808781	-0.806117	0.495273
H190	H	1.308781	-0.306117	0.995273
H191	H	1.056812	-0.384097	0.712755
H192	H	1.556812	0.115903	1.212755
O193	O	0.801610	-1.119700	0.502576
O194	O	1.301610	-0.619700	1.002576
H195	H	0.771478	-1.063125	0.532643
H196	H	1.271478	-0.563125	1.032643
H197	H	1.056798	-0.384147	0.584521
H198	H	1.556798	0.115853	1.084521
H199	H	0.891673	-1.204692	0.412690
H200	H	1.391673	-0.704692	0.912690
H201	H	0.899659	-0.627910	0.584465
H202	H	1.399659	-0.127910	1.084465
