data_functionalizedCrystal
_audit_creation_method	'MofGen! by Chris Wilmer'
_symmetry_space_group_name_H-M	'P1'
_symmetry_Int_Tables_number	1
_symmetry_cell_setting	triclinic
loop_
_symmetry_equiv_pos_as_xyz
  x,y,z
_cell_length_a	15.995343
_cell_length_b	15.995350
_cell_length_c	13.101039
_cell_angle_alpha	86.635437
_cell_angle_beta	93.353265
_cell_angle_gamma	83.490779
loop_
_atom_site_label
_atom_site_type_symbol
_atom_site_fract_x
_atom_site_fract_y
_atom_site_fract_z
O1	O	1.115590	0.103280	0.085106
O2	O	0.871815	0.116613	0.085130
O3	O	1.000366	-0.011941	0.085117
O4	O	0.987039	0.231834	0.085120
O5	O	0.991143	-0.002702	-0.085312
O6	O	0.862592	0.125852	-0.085298
O7	O	1.106367	0.112519	-0.085322
Zn8	Zn	0.983015	0.120652	-0.112370
Zn9	Zn	0.995167	0.108480	0.112178
O10	O	0.977815	0.241073	-0.085309
C11	C	0.836009	0.120682	-0.000081
C12	C	0.743058	0.119032	-0.000072
C13	C	0.572871	0.116040	-0.000085
C14	C	0.549526	0.023243	-0.000086
C15	C	0.452826	0.021518	-0.000479
C16	C	0.405311	0.113092	-0.000098
C17	C	0.429146	0.165017	-0.097227
C18	C	0.525934	0.166121	-0.097302
C19	C	0.536334	0.156974	0.096514
C20	C	0.439908	0.153479	0.097785
C21	C	0.310612	0.111431	-0.000108
C22	C	0.667569	0.117704	-0.000082
C23	C	0.995204	-0.038517	-0.000096
C24	C	0.993552	-0.131467	-0.000090
C25	C	0.987620	-0.469215	-0.000093
C26	C	0.896089	-0.421799	0.000299
C27	C	0.897720	-0.325088	-0.000086
C28	C	0.990562	-0.301654	-0.000091
C29	C	1.030452	-0.337457	-0.097416
C30	C	1.028148	-0.434088	-0.097498
C31	C	1.040528	-0.444953	0.096312
C32	C	1.040576	-0.348077	0.097598
C33	C	0.992230	-0.206957	-0.000093
C34	C	0.985954	-0.563912	-0.000097
C35	C	1.142173	0.108449	-0.000109
C36	C	1.235124	0.110099	-0.000111
C37	C	0.982978	0.267648	-0.000094
C38	C	0.984630	0.360599	-0.000093
N39	N	0.974727	0.128959	-0.265617
C40	C	0.963452	0.140269	-0.474659
C41	C	1.014734	0.088859	-0.525540
C42	C	1.008460	0.095152	-0.641858
C43	C	0.969725	0.133977	-0.358330
N44	N	1.003461	0.100166	0.265425
H45	H	0.581302	-0.016501	0.069555
H46	H	1.108064	-0.476751	0.096962
H47	H	1.014587	-0.469490	0.170079
N48	N	0.556190	0.129046	-0.193839
H49	H	0.598416	0.077773	-0.175187
H50	H	0.583728	0.172435	-0.235026
H51	H	0.863273	-0.444113	0.070093
N52	N	1.002061	-0.317099	0.192977
H53	H	0.952425	-0.273175	0.173003
H54	H	1.045623	-0.291442	0.236164
N55	N	1.130682	-0.328161	0.105385
H56	H	1.140404	-0.288588	0.045428
H57	H	1.170131	-0.382055	0.104547
N58	N	0.842851	-0.442761	-0.091625
H59	H	0.877766	-0.482837	-0.133521
H60	H	0.822246	-0.389299	-0.135004
N61	N	1.120541	-0.318483	-0.102202
H62	H	1.126376	-0.283262	-0.167384
H63	H	1.159166	-0.373084	-0.101197
H64	H	0.574746	-0.008370	-0.069636
N65	N	0.899057	0.204827	-0.532661
H66	H	0.903650	0.200226	-0.608736
H67	H	0.909826	0.263208	-0.513975
N68	N	0.397347	0.127819	-0.193345
H69	H	0.367495	0.077356	-0.174195
H70	H	0.446536	0.109690	-0.235123
H71	H	1.063350	0.040120	-0.481743
N72	N	0.386727	0.254551	-0.101660
H73	H	0.351567	0.262332	-0.040603
H74	H	0.349253	0.266403	-0.166851
H75	H	0.437574	-0.018781	0.069133
H76	H	0.540283	0.234397	-0.101455
N77	N	0.423374	-0.021604	-0.093246
H78	H	0.473229	-0.039561	-0.134046
H79	H	0.381074	0.018760	-0.137357
N80	N	1.116859	-0.476492	-0.103388
H81	H	1.116054	-0.539534	-0.103492
H82	H	1.153119	-0.462950	-0.042219
N83	N	0.579033	0.112901	0.194075
H84	H	0.607594	0.154641	0.234696
H85	H	0.622469	0.065945	0.176562
N86	N	0.420481	0.103316	0.192974
H87	H	0.389398	0.054632	0.172789
H88	H	0.384218	0.140904	0.236323
H89	H	0.407284	0.219977	0.103951
H90	H	0.550398	0.225227	0.097451
N91	N	0.979317	-0.453115	-0.193858
H92	H	0.959487	-0.398775	-0.235882
H93	H	0.928951	-0.482093	-0.174914
N94	N	0.855703	-0.292446	0.092327
H95	H	0.886920	-0.320481	0.156838
H96	H	0.795355	-0.305580	0.089709
N97	N	0.845389	-0.283154	-0.092657
H98	H	0.846231	-0.220084	-0.093291
H99	H	0.785406	-0.296729	-0.089605
N100	N	0.983719	-0.294652	-0.193345
H101	H	0.922609	-0.305179	-0.194308
H102	H	1.009917	-0.318131	-0.255508
