data_functionalizedCrystal
_audit_creation_method	'MofGen! by Chris Wilmer'
_symmetry_space_group_name_H-M	'P1'
_symmetry_Int_Tables_number	1
_symmetry_cell_setting	triclinic
loop_
_symmetry_equiv_pos_as_xyz
  x,y,z
_cell_length_a	14.044220
_cell_length_b	14.044220
_cell_length_c	11.892095
_cell_angle_alpha	94.243827
_cell_angle_beta	85.750402
_cell_angle_gamma	93.188878
loop_
_atom_site_label
_atom_site_type_symbol
_atom_site_fract_x
_atom_site_fract_y
_atom_site_fract_z
O1	O	1.282749	0.224587	-0.093887
O2	O	1.782749	0.724587	0.406113
O3	O	1.006079	0.216280	-0.093915
O4	O	1.506079	0.716280	0.406085
O5	O	1.140261	0.082098	-0.093890
O6	O	1.640261	0.582098	0.406110
O7	O	1.148568	0.358769	-0.093912
O8	O	1.648568	0.858769	0.406088
O9	O	1.129072	0.093267	0.094115
O10	O	1.629072	0.593267	0.594115
O11	O	0.994890	0.227449	0.094090
O12	O	1.494890	0.727449	0.594090
O13	O	1.271560	0.235756	0.094118
O14	O	1.771560	0.735756	0.594118
Zn15	Zn	1.131448	0.233376	0.123954
Zn16	Zn	1.631448	0.733376	0.623954
Zn17	Zn	1.146191	0.218660	-0.123751
Zn18	Zn	1.646191	0.718660	0.376249
O19	O	1.137378	0.369938	0.094094
O20	O	1.637378	0.869938	0.594094
C21	C	0.964863	0.218228	0.000084
C22	C	1.464863	0.718228	0.500084
C23	C	0.858721	0.207383	0.000073
C24	C	1.358721	0.707383	0.500073
C25	C	1.131031	0.052061	0.000112
C26	C	1.631031	0.552061	0.500112
C27	C	1.120186	-0.054082	0.000113
C28	C	1.620186	0.445918	0.500113
C29	C	0.664382	0.187558	0.000097
C30	C	1.164382	0.687558	0.500097
C31	C	0.613252	0.264473	0.000096
C32	C	1.113252	0.764473	0.500096
C33	C	0.505115	0.253442	0.000109
C34	C	1.005115	0.753442	0.500109
C35	C	0.772529	0.198588	0.000084
C36	C	1.272529	0.698588	0.500084
C37	C	1.100361	-0.248421	0.000094
C38	C	1.600361	0.251579	0.500094
C39	C	1.177275	-0.299550	0.000099
C40	C	1.677275	0.200450	0.500099
C41	C	1.166244	-0.407687	0.000089
C42	C	1.666244	0.092313	0.500089
C43	C	1.111390	-0.140274	0.000105
C44	C	1.611390	0.359726	0.500105
C45	C	1.312776	0.233807	0.000117
C46	C	1.812776	0.733807	0.500117
C47	C	1.418919	0.244652	0.000120
C48	C	1.918919	0.744652	0.500120
C49	C	1.146609	0.399975	0.000088
C50	C	1.646609	0.899975	0.500088
C51	C	1.157454	0.506117	0.000081
C52	C	1.657454	1.006117	0.500081
N53	N	1.121394	0.243419	0.293006
N54	N	1.621394	0.743419	0.793006
N55	N	1.156252	0.208610	-0.292803
N56	N	1.656252	0.708610	0.207197
C57	C	1.226211	0.138672	0.529674
C58	C	1.726211	0.638672	1.029674
C59	C	1.219191	0.145699	0.648014
C60	C	1.719191	0.645699	1.148014
C61	C	1.100328	0.264496	0.648030
C62	C	1.600328	0.764496	1.148030
C63	C	1.107349	0.257468	0.529690
C64	C	1.607349	0.757468	1.029690
C65	C	1.170293	0.194555	0.470516
C66	C	1.670293	0.694555	0.970516
C67	C	1.177318	0.187533	0.352173
C68	C	1.677318	0.687533	0.852173
C69	C	1.058451	0.306324	0.352191
C70	C	1.558451	0.806324	0.852191
C71	C	1.051431	0.313352	0.470532
C72	C	1.551431	0.813352	0.970532
H73	H	0.650692	0.338605	0.000085
H74	H	1.150692	0.838605	0.500085
C75	C	0.613805	0.087414	0.000102
C76	C	1.113805	0.587414	0.500102
N77	N	0.575700	0.011985	0.000101
N78	N	1.075700	0.511985	0.500101
C79	C	1.277425	-0.248972	0.000125
C80	C	1.777425	0.251028	0.500125
N81	N	1.352855	-0.210872	0.000151
N82	N	1.852855	0.289128	0.500151
H83	H	1.228573	0.136309	0.303994
H84	H	1.728573	0.636309	0.803994
H85	H	1.026234	-0.285858	0.000084
H86	H	1.526234	0.214142	0.500084
H87	H	1.277470	0.087452	0.481493
H88	H	1.777470	0.587452	0.981493
C89	C	1.280702	0.084219	0.713084
C90	C	1.780702	0.584219	1.213084
N91	N	1.327033	0.037908	0.762095
N92	N	1.827033	0.537908	1.262095
H93	H	1.049074	0.315711	0.696225
H94	H	1.549074	0.815711	1.196225
C95	C	0.982188	0.382545	0.535636
C96	C	1.482188	0.882545	1.035636
N97	N	0.930033	0.434663	0.584672
N98	N	1.430033	0.934663	1.084672
C99	C	0.996937	0.367800	0.287107
C100	C	1.496937	0.867800	0.787107
N101	N	0.950608	0.414104	0.238085
N102	N	1.450608	0.914104	0.738085
