data_functionalizedCrystal
_audit_creation_method	'MofGen! by Chris Wilmer'
_symmetry_space_group_name_H-M	'P1'
_symmetry_Int_Tables_number	1
_symmetry_cell_setting	triclinic
loop_
_symmetry_equiv_pos_as_xyz
  x,y,z
_cell_length_a	14.853567
_cell_length_b	14.853579
_cell_length_c	9.198806
_cell_angle_alpha	90.002440
_cell_angle_beta	89.999027
_cell_angle_gamma	96.362633
loop_
_atom_site_label
_atom_site_type_symbol
_atom_site_fract_x
_atom_site_fract_y
_atom_site_fract_z
O1	O	1.196369	-0.117702	-0.120790
O2	O	0.933910	-0.131723	-0.120814
O3	O	1.072145	0.006517	-0.120795
O4	O	1.058135	-0.255941	-0.120810
O5	O	1.072134	0.006517	0.120990
O6	O	0.933899	-0.131723	0.120971
O7	O	1.196358	-0.117701	0.120995
Cu8	Cu	1.065128	-0.124712	0.143060
Cu9	Cu	1.065141	-0.124712	-0.142879
O10	O	1.058124	-0.255941	0.120975
C11	C	0.900316	-0.131087	0.000075
C12	C	0.800232	-0.129184	0.000066
C13	C	0.387695	-0.039018	0.000103
C14	C	0.366421	-0.203250	0.000093
C15	C	0.460455	-0.205040	0.000088
C16	C	0.518113	-0.123818	0.000089
C17	C	0.481738	-0.040806	0.000094
C18	C	0.496837	-0.288051	0.000067
C19	C	0.590876	-0.289845	0.000061
C20	C	0.648537	-0.208621	0.000072
C21	C	0.612156	-0.125606	0.000080
C22	C	0.669814	-0.044384	0.000080
C23	C	0.633435	0.038633	0.000098
C24	C	0.539398	0.040417	0.000105
C25	C	0.742574	-0.210406	0.000065
C26	C	0.763857	-0.046171	0.000071
C27	C	1.071503	0.040106	0.000097
C28	C	1.069595	0.140189	0.000092
C29	C	1.229953	-0.118337	0.000103
C30	C	1.330036	-0.120241	0.000102
N31	N	1.065125	-0.124711	0.344174
C32	C	1.068703	0.187203	-0.131711
C33	C	1.068701	0.187217	0.131892
C34	C	1.066913	0.281251	0.131893
C35	C	1.066021	0.328266	0.000090
C36	C	1.066917	0.281246	-0.131714
C37	C	1.066026	0.328279	0.263695
C38	C	1.064239	0.422318	0.263701
C39	C	1.063341	0.469334	0.131896
C40	C	1.064236	0.422309	0.000087
C41	C	1.063344	0.469323	-0.131716
C42	C	1.064233	0.422299	-0.263527
C43	C	1.066019	0.328262	-0.263519
C44	C	1.061554	0.563371	0.131888
C45	C	1.061559	0.563366	-0.131720
C46	C	1.058763	0.710470	0.000083
C47	C	1.060663	0.610386	0.000085
N48	N	1.065151	-0.124706	-0.343993
C49	C	1.123168	-0.066414	0.416379
C50	C	1.123182	-0.066411	0.583791
H51	H	0.358071	0.028572	0.000123
C52	C	0.303933	-0.291501	0.000311
C53	C	0.320403	-0.341488	0.124682
C54	C	0.262862	-0.422798	0.124924
H55	H	0.242686	-0.278678	0.000387
H56	H	0.314988	-0.325583	-0.083964
H57	H	0.309341	-0.307413	0.208935
H58	H	0.381638	-0.354335	0.124633
H59	H	0.273917	-0.456880	0.040649
H60	H	0.201619	-0.409966	0.124995
H61	H	0.274035	-0.456728	0.209300
H62	H	1.172847	-0.016502	0.354260
C63	C	0.999029	-0.191308	0.573049
C64	C	1.047335	-0.246368	0.485627
C65	C	0.986455	-0.307725	0.409160
H66	H	0.962598	-0.227968	0.639907
H67	H	0.961403	-0.158915	0.513595
H68	H	1.084945	-0.278759	0.545076
H69	H	1.083762	-0.209733	0.418742
H70	H	0.948829	-0.275331	0.349707
H71	H	0.950028	-0.344379	0.476029
H72	H	1.019221	-0.345085	0.349826
H73	H	0.620487	-0.357441	0.000047
H74	H	0.810797	0.019971	0.000078
H75	H	0.449885	-0.354178	0.000052
H76	H	0.680393	0.104764	0.000089
H77	H	0.772190	-0.277996	0.000053
H78	H	0.509769	0.108005	0.000154
H79	H	1.060826	0.601638	-0.239051
H80	H	1.063512	0.460591	-0.370842
H81	H	1.060834	0.601654	0.239206
C82	C	1.067087	0.277057	-0.406465
C83	C	1.068892	0.184648	-0.378247
C84	C	1.069914	0.137452	-0.509891
H85	H	1.014296	0.285534	-0.460783
H86	H	1.119363	0.299243	-0.460582
H87	H	1.016622	0.162469	-0.324154
H88	H	1.121680	0.176144	-0.323951
H89	H	1.122189	0.159638	-0.564007
H90	H	1.017121	0.145936	-0.564199
H91	H	1.071147	0.074749	-0.490763
C92	C	1.069479	0.136094	0.274933
C93	C	0.992992	0.072083	0.282622
C94	C	0.993667	0.024971	0.414380
H95	H	1.122646	0.106132	0.280552
H96	H	1.068638	0.177523	0.353483
H97	H	0.993841	0.030659	0.204094
H98	H	0.939813	0.102020	0.277028
H99	H	0.992827	0.066401	0.492929
H100	H	1.046838	-0.004985	0.419987
H101	H	0.941768	-0.018460	0.419620
C102	C	1.063101	0.473452	0.406706
C103	C	0.984574	0.517399	0.414369
C104	C	0.983488	0.564516	0.546078
H105	H	1.063834	0.432070	0.485312
H106	H	1.114898	0.516999	0.412232
H107	H	0.932791	0.473856	0.408856
H108	H	0.983825	0.558795	0.335793
H109	H	1.035285	0.608064	0.551605
H110	H	0.984224	0.523129	0.624673
H111	H	0.930213	0.594347	0.551289
H112	H	1.172878	-0.016504	0.645885
H113	H	1.069423	0.148911	-0.239028
H114	H	1.066759	0.289993	0.371002
H115	H	1.015440	-0.174616	0.406295
