data_functionalizedCrystal
_audit_creation_method	'MofGen! by Chris Wilmer'
_symmetry_space_group_name_H-M	'P1'
_symmetry_Int_Tables_number	1
_symmetry_cell_setting	triclinic
loop_
_symmetry_equiv_pos_as_xyz
  x,y,z
_cell_length_a	8.559649
_cell_length_b	12.503572
_cell_length_c	8.559649
_cell_angle_alpha	93.028969
_cell_angle_beta	110.221336
_cell_angle_gamma	93.021187
loop_
_atom_site_label
_atom_site_type_symbol
_atom_site_fract_x
_atom_site_fract_y
_atom_site_fract_z
O1	O	2.137388	0.089317	0.065568
O2	O	2.637388	0.589317	0.565568
O3	O	1.661903	0.089318	-0.018213
O4	O	2.161903	0.589318	0.481787
O5	O	1.941536	0.089317	0.261419
O6	O	2.441536	0.589317	0.761419
O7	O	1.857755	0.089319	-0.214065
O8	O	2.357755	0.589319	0.285935
O9	O	1.920502	-0.089325	0.240358
O10	O	2.420502	0.410675	0.740358
O11	O	1.640869	-0.089323	-0.039274
O12	O	2.140869	0.410677	0.460726
O13	O	2.116354	-0.089325	0.044507
O14	O	2.616354	0.410675	0.544507
Cu15	Cu	1.876691	-0.105635	0.000693
Cu16	Cu	2.376691	0.394365	0.500693
Cu17	Cu	1.901566	0.105629	0.025600
Cu18	Cu	2.401566	0.605629	0.525600
O19	O	1.836721	-0.089323	-0.235126
O20	O	2.336721	0.410677	0.264874
C21	C	1.591077	-0.000002	-0.035093
C22	C	2.091077	0.499998	0.464907
C23	C	1.411378	-0.000002	-0.053992
C24	C	1.911378	0.499998	0.446008
N25	N	1.859207	-0.254228	-0.016823
N26	N	2.359207	0.245772	0.483177
C27	C	1.833486	-0.473343	-0.042603
C28	C	2.333486	0.026657	0.457397
C29	C	1.944779	-0.526671	0.068905
C30	C	2.444779	-0.026671	0.568905
C31	C	1.930468	-0.648594	0.054560
C32	C	2.430468	-0.148594	0.554560
C33	C	1.847795	-0.351409	-0.028261
C34	C	2.347795	0.148591	0.471739
C35	C	2.187180	-0.000002	0.061387
C36	C	2.687180	0.499998	0.561387
C37	C	2.366880	0.000005	0.080286
C38	C	2.866880	0.500005	0.580286
C39	C	1.937368	-0.000002	0.311198
C40	C	2.437368	0.499998	0.811198
C41	C	1.956268	0.000004	0.490898
C42	C	2.456268	0.500004	0.990898
N43	N	1.919064	0.254221	0.043130
N44	N	2.419064	0.754221	0.543130
C45	C	1.840889	-0.000002	-0.284905
C46	C	2.340889	0.499998	0.215095
C47	C	1.821990	-0.000000	-0.464604
C48	C	2.321990	0.500000	0.035396
H49	H	1.312001	0.000010	-0.183410
H50	H	1.812001	0.500010	0.316590
Br51	Br	2.122104	-0.450155	0.245375
Br52	Br	2.622104	0.049845	0.745375
Br53	Br	1.606272	-0.000006	0.369762
Br54	Br	2.106272	0.499994	0.869762
H55	H	1.727465	-0.519249	-0.148835
H56	H	2.227465	-0.019249	0.351165
H57	H	2.085695	-0.000005	0.590285
H58	H	2.585695	0.499995	1.090285
H59	H	1.466268	0.000005	0.209714
H60	H	1.966268	0.500005	0.709714
