data_functionalizedCrystal
_audit_creation_method	'MofGen! by Chris Wilmer'
_symmetry_space_group_name_H-M	'P1'
_symmetry_Int_Tables_number	1
_symmetry_cell_setting	triclinic
loop_
_symmetry_equiv_pos_as_xyz
  x,y,z
_cell_length_a	10.723024
_cell_length_b	8.965430
_cell_length_c	10.723023
_cell_angle_alpha	89.998566
_cell_angle_beta	84.467709
_cell_angle_gamma	90.003544
loop_
_atom_site_label
_atom_site_type_symbol
_atom_site_fract_x
_atom_site_fract_y
_atom_site_fract_z
O1	O	1.657188	0.124026	0.175018
O2	O	2.157188	0.624026	0.675018
O3	O	1.294035	0.124031	0.191771
O4	O	1.794035	0.624031	0.691771
O5	O	1.483989	0.124022	0.001818
O6	O	1.983989	0.624022	0.501818
O7	O	1.467234	0.124035	0.364971
O8	O	1.967234	0.624035	0.864971
O9	O	1.483973	-0.124057	0.001831
O10	O	1.983973	0.375943	0.501831
O11	O	1.294019	-0.124048	0.191784
O12	O	1.794019	0.375952	0.691784
O13	O	1.657172	-0.124053	0.175031
O14	O	2.157172	0.375947	0.675031
Cu15	Cu	1.475594	-0.146702	0.183408
Cu16	Cu	1.975594	0.353298	0.683408
Cu17	Cu	1.475613	0.146680	0.183393
Cu18	Cu	1.975613	0.646680	0.683393
O19	O	1.467218	-0.124044	0.364983
O20	O	1.967218	0.375956	0.864983
C21	C	1.247528	-0.000008	0.190558
C22	C	1.747528	0.499992	0.690558
C23	C	1.108973	-0.000006	0.186911
C24	C	1.608973	0.499994	0.686911
N25	N	1.475590	-0.353051	0.183418
N26	N	1.975590	0.146949	0.683418
C27	C	1.033991	-0.000001	0.293198
C28	C	1.533991	0.499999	0.793198
C29	C	0.890787	0.000000	0.289431
C30	C	1.390787	0.500000	0.789431
C31	C	1.387715	-0.450353	0.271236
C32	C	1.887715	0.049647	0.771236
C33	C	1.500690	-0.549767	0.296416
C34	C	2.000690	-0.049767	0.796416
C35	C	1.362663	-0.549764	0.158249
C36	C	1.862663	-0.049764	0.658249
C37	C	1.588622	-0.450276	0.208655
C38	C	2.088622	0.049724	0.708655
C39	C	1.450520	-0.450265	0.070438
C40	C	1.950520	0.049735	0.570438
C41	C	1.563576	-0.549634	0.095571
C42	C	2.063576	-0.049634	0.595571
C43	C	1.703679	-0.000011	0.176243
C44	C	2.203679	0.499989	0.676243
C45	C	1.842234	-0.000003	0.179891
C46	C	2.342234	0.499997	0.679891
C47	C	1.482762	-0.000015	-0.044675
C48	C	1.982762	0.499985	0.455325
C49	C	1.479114	-0.000011	-0.183229
C50	C	1.979114	0.499989	0.316771
N51	N	1.475627	0.353029	0.183374
N52	N	1.975627	0.853029	0.683374
C53	C	1.477497	0.128504	-0.245002
C54	C	1.977497	0.628504	0.254998
C55	C	1.473727	0.128512	-0.388205
C56	C	1.973727	0.628512	0.111795
C57	C	1.468445	-0.000003	0.411477
C58	C	1.968445	0.499997	0.911477
C59	C	1.472093	0.000002	0.550031
C60	C	1.972093	0.500002	1.050031
H61	H	1.075812	-0.000007	0.386984
H62	H	1.575812	0.499993	0.886984
H63	H	1.473490	-0.110030	-0.396855
H64	H	1.973490	0.389970	0.103145
H65	H	1.429255	-0.406524	-0.025057
H66	H	1.929255	0.093476	0.474943
H67	H	0.906659	0.000003	0.088896
H68	H	1.406659	0.500003	0.588896
H69	H	1.477701	-0.110030	-0.236360
H70	H	1.977701	0.389970	0.263640
H71	H	1.521920	-0.593473	0.391941
H72	H	2.021920	-0.093473	0.891941
H73	H	0.826354	0.000010	0.380421
H74	H	1.326354	0.500010	0.880421
H75	H	1.684160	-0.406759	0.230038
H76	H	2.184160	0.093241	0.730038
H77	H	1.478897	0.238523	-0.191869
H78	H	1.978897	0.738523	0.308131
H79	H	1.637986	-0.592953	0.021284
H80	H	2.137986	-0.092953	0.521284
H81	H	1.067152	0.000029	0.093125
H82	H	1.567152	0.500029	0.593125
H83	H	1.313472	-0.406761	0.345569
H84	H	1.813472	0.093239	0.845569
H85	H	1.267147	-0.593469	0.136980
H86	H	1.767147	-0.093469	0.636980
H87	H	1.472342	0.238537	-0.441328
H88	H	1.972342	0.738537	0.058672
