data_functionalizedCrystal
_audit_creation_method	'MofGen! by Chris Wilmer'
_symmetry_space_group_name_H-M	'P1'
_symmetry_Int_Tables_number	1
_symmetry_cell_setting	triclinic
loop_
_symmetry_equiv_pos_as_xyz
  x,y,z
_cell_length_a	6.817900
_cell_length_b	17.078472
_cell_length_c	12.908943
_cell_angle_alpha	96.404605
_cell_angle_beta	100.860631
_cell_angle_gamma	99.306020
loop_
_atom_site_label
_atom_site_type_symbol
_atom_site_fract_x
_atom_site_fract_y
_atom_site_fract_z
V1	V	-3.975581	-0.108777	-0.328577
O2	O	-3.985494	0.006246	-0.322431
O3	O	-3.906841	-0.216667	-0.326225
O4	O	-3.914260	-0.106657	-0.471929
O5	O	-3.978025	-0.104526	-0.175719
V6	V	-4.463519	-0.095072	-0.310307
O7	O	-4.227155	-0.138841	-0.368654
O8	O	-4.662142	-0.065008	-0.270229
O9	O	-4.309052	0.012818	-0.312659
O10	O	-4.571002	-0.210096	-0.316453
O11	O	-4.578472	-0.099324	-0.463165
O12	O	-4.301633	-0.097192	-0.166955
C13	C	-3.747312	-0.242982	-0.321015
C14	C	-3.772310	-0.331181	-0.320047
C15	C	-3.964910	-0.376642	-0.324847
C16	C	-3.988388	-0.459514	-0.323944
C17	C	-3.819262	-0.496923	-0.318234
C18	C	-3.626648	-0.451457	-0.313437
C19	C	-3.603175	-0.368587	-0.314347
C20	C	-3.870074	-0.744337	-0.314954
C21	C	-3.893563	-0.827213	-0.314041
C22	C	-4.255302	-0.835265	-0.324550
C23	C	-4.231809	-0.752392	-0.325454
C24	C	-4.039200	-0.706933	-0.320662
N25	N	-3.843255	-0.581631	-0.317307
N26	N	-4.015212	-0.622227	-0.321596
C27	C	-3.756775	-0.102652	-0.506873
C28	C	-3.787787	-0.101633	-0.624063
C29	C	-4.207829	-0.107590	-0.855003
C30	C	-4.236977	-0.106632	-0.965114
C31	C	-3.875233	-0.098754	-0.954396
C32	C	-3.846084	-0.099711	-0.844285
C33	C	-4.012391	-0.104131	-0.794593
C34	C	-3.983242	-0.105094	-0.684481
C35	C	-3.621498	-0.097210	-0.673764
C36	C	-3.650646	-0.096253	-0.783875
C37	C	-4.131922	0.039129	-0.317866
C38	C	-4.086162	0.127327	-0.318841
C39	C	-4.122461	-0.101199	-0.132006
C40	C	-4.070688	-0.102215	-0.014815
H41	H	-4.102632	-0.346188	-0.329487
Cl42	Cl	-4.192311	-0.110652	-0.622013
H43	H	-3.462355	-0.094397	-0.624566
Cl44	Cl	-3.666192	-0.093203	-1.016885
H45	H	-4.145220	-0.496525	-0.327854
Cl46	Cl	-3.680934	-0.874242	-0.306878
H47	H	-4.343246	-0.111196	-0.814545
Cl48	Cl	-4.444425	-0.705365	-0.332592
Cl49	Cl	-4.497427	-0.892417	-0.330575
Cl50	Cl	-4.482679	-0.110978	-1.041055
H51	H	-3.515251	-0.092652	-0.824348
Cl52	Cl	-3.414033	-0.498486	-0.306264
Cl53	Cl	-3.627937	-0.687199	-0.308921
H54	H	-3.446343	-0.331574	-0.310443
