data_functionalizedCrystal
_audit_creation_method	'MofGen! by Chris Wilmer'
_symmetry_space_group_name_H-M	'P1'
_symmetry_Int_Tables_number	1
_symmetry_cell_setting	triclinic
loop_
_symmetry_equiv_pos_as_xyz
  x,y,z
_cell_length_a	10.654545
_cell_length_b	10.540558
_cell_length_c	9.016244
_cell_angle_alpha	89.999570
_cell_angle_beta	89.997326
_cell_angle_gamma	95.491903
loop_
_atom_site_label
_atom_site_type_symbol
_atom_site_fract_x
_atom_site_fract_y
_atom_site_fract_z
O1	O	1.667906	-0.178278	0.123301
O2	O	1.302434	-0.195271	0.123305
O3	O	1.493496	-0.002066	0.123318
O4	O	1.476844	-0.371483	0.123287
O5	O	1.493505	-0.002049	-0.123362
O6	O	1.302443	-0.195253	-0.123376
O7	O	1.667915	-0.178260	-0.123380
Cu8	Cu	1.485180	-0.186755	-0.145902
Cu9	Cu	1.485169	-0.186776	0.145827
O10	O	1.476853	-0.371465	-0.123394
C11	C	1.255640	-0.194016	-0.000035
C12	C	1.116195	-0.190286	-0.000032
C13	C	1.050694	-0.188521	-0.134498
C14	C	0.919674	-0.184996	-0.134498
C15	C	0.919664	-0.185007	0.134447
C16	C	1.050684	-0.188523	0.134445
C17	C	1.492247	0.045245	-0.000015
C18	C	1.488496	0.186190	0.000007
C19	C	1.345112	0.369562	0.000580
C20	C	1.348915	0.222946	0.000011
C21	C	1.555668	0.247883	-0.140855
C22	C	1.550895	0.394424	-0.140960
C23	C	1.553724	0.394923	0.139562
C24	C	1.555019	0.247943	0.141411
C25	C	1.714709	-0.179516	-0.000037
C26	C	1.854154	-0.183245	-0.000030
N27	N	1.485196	-0.186740	-0.351088
C28	C	1.478086	0.581222	-0.000033
C29	C	1.481787	0.440270	0.000026
N30	N	1.485163	-0.186782	0.351013
C31	C	1.382737	-0.289940	0.413976
C32	C	1.383026	-0.290289	0.585867
C33	C	1.616550	-0.216626	0.586492
C34	C	1.615930	-0.217392	0.414548
C35	C	1.457418	-0.053425	0.414353
C36	C	1.454467	-0.054259	0.586309
H37	H	1.104030	-0.189957	-0.243998
H38	H	1.532097	0.023354	0.373630
H39	H	0.866349	-0.183559	-0.243994
C40	C	1.650055	-0.346550	0.644679
N41	N	1.675282	-0.444416	0.688497
H42	H	1.289970	0.398133	0.101601
H43	H	0.866309	-0.183572	0.243933
C44	C	1.692505	0.215283	0.152893
N45	N	1.796066	0.190689	0.161528
C46	C	1.122740	-0.190457	0.282376
N47	N	1.177013	-0.191909	0.393793
C48	C	1.330667	-0.014973	0.355788
N49	N	1.235192	0.013975	0.311677
H50	H	1.290201	0.399755	-0.099868
H51	H	1.501254	0.422613	-0.246257
H52	H	1.296060	0.180316	0.100986
C53	C	1.722115	-0.119848	0.358270
N54	N	1.802107	-0.046394	0.315888
H55	H	1.654538	0.442187	0.140513
C56	C	1.277024	0.166514	-0.136643
N57	N	1.222874	0.124010	-0.239579
H58	H	1.524138	0.026194	0.629217
H59	H	1.357833	-0.031602	0.627111
C60	C	1.686501	0.459282	-0.149612
N61	N	1.788637	0.508127	-0.156139
C62	C	1.694140	0.217712	-0.147960
N63	N	1.798434	0.194976	-0.153315
H64	H	1.509014	0.205274	-0.245687
C65	C	1.492682	0.437510	0.283807
N66	N	1.446691	0.469583	0.392445
H67	H	1.505869	0.207059	0.245617
H68	H	1.285432	-0.272342	0.628072
C69	C	1.407194	-0.423932	0.641479
N70	N	1.425406	-0.524595	0.683364
C71	C	1.648653	-0.348827	0.360398
N72	N	1.673290	-0.447830	0.319620
C73	C	1.722092	-0.117858	0.641657
N74	N	1.801584	-0.043464	0.683210
H75	H	1.284809	-0.272290	0.372644
H76	H	1.400361	-0.388323	0.370796
