data_functionalizedCrystal
_audit_creation_method	'MofGen! by Chris Wilmer'
_symmetry_space_group_name_H-M	'P1'
_symmetry_Int_Tables_number	1
_symmetry_cell_setting	triclinic
loop_
_symmetry_equiv_pos_as_xyz
  x,y,z
_cell_length_a	19.188925
_cell_length_b	19.188930
_cell_length_c	18.266242
_cell_angle_alpha	89.988525
_cell_angle_beta	89.990012
_cell_angle_gamma	83.143665
loop_
_atom_site_label
_atom_site_type_symbol
_atom_site_fract_x
_atom_site_fract_y
_atom_site_fract_z
O1	O	0.926152	0.087151	-0.060905
O2	O	1.259485	0.420484	0.272428
O3	O	1.592818	0.753817	0.605762
O4	O	0.722840	0.098889	-0.060904
O5	O	1.056173	0.432222	0.272429
O6	O	1.389507	0.765555	0.605763
O7	O	0.830363	-0.008636	-0.060890
O8	O	1.163696	0.324697	0.272443
O9	O	1.497030	0.658031	0.605776
O10	O	0.818629	0.194675	-0.060919
O11	O	1.151962	0.528009	0.272415
O12	O	1.485295	0.861342	0.605748
O13	O	0.830345	-0.008642	0.060872
O14	O	1.163678	0.324692	0.394205
O15	O	1.497011	0.658025	0.727538
O16	O	0.722822	0.098883	0.060858
O17	O	1.056155	0.432217	0.394191
O18	O	1.389488	0.765550	0.727525
O19	O	0.926133	0.087145	0.060857
O20	O	1.259467	0.420478	0.394190
O21	O	1.592800	0.753812	0.727524
Zn22	Zn	0.824475	0.093013	0.080190
Zn23	Zn	1.157808	0.426347	0.413523
Zn24	Zn	1.491141	0.759680	0.746857
Zn25	Zn	0.824499	0.093021	-0.080237
Zn26	Zn	1.157832	0.426354	0.253097
Zn27	Zn	1.491165	0.759687	0.586430
O28	O	0.818610	0.194670	0.060843
O29	O	1.151944	0.528003	0.394177
O30	O	1.485277	0.861337	0.727510
C31	C	0.696820	0.098507	-0.000023
C32	C	1.030153	0.431840	0.333311
C33	C	1.363486	0.765173	0.666644
C34	C	0.619315	0.097367	-0.000022
C35	C	0.952648	0.430701	0.333312
C36	C	1.285982	0.764034	0.666645
C37	C	0.057545	0.152831	-0.000031
C38	C	0.390878	0.486165	0.333302
C39	C	0.724211	0.819498	0.666635
C40	C	0.130368	0.153908	-0.000035
C41	C	0.463701	0.487241	0.333298
C42	C	0.797035	0.820575	0.666631
C43	C	0.175302	0.090816	-0.000025
C44	C	0.508636	0.424149	0.333308
C45	C	0.841969	0.757482	0.666642
C46	C	0.147408	0.026642	-0.000030
C47	C	0.480742	0.359976	0.333304
C48	C	0.814075	0.693309	0.666637
C49	C	0.074586	0.025568	-0.000033
C50	C	0.407920	0.358901	0.333300
C51	C	0.741253	0.692234	0.666634
N52	N	0.295973	0.045138	0.041430
N53	N	0.629307	0.378471	0.374763
N54	N	0.962640	0.711804	0.708097
N55	N	0.365151	0.046163	0.041435
N56	N	0.698484	0.379496	0.374768
N57	N	1.031817	0.712830	0.708101
C58	C	0.394712	0.094050	-0.000017
C59	C	0.728045	0.427383	0.333316
C60	C	1.061378	0.760716	0.666650
N61	N	0.352480	0.140883	-0.041464
N62	N	0.685814	0.474217	0.291869
N63	N	1.019147	0.807550	0.625203
N64	N	0.283296	0.139860	-0.041465
N65	N	0.616630	0.473193	0.291868
N66	N	0.949963	0.806527	0.625201
C67	C	0.254267	0.091974	-0.000022
C68	C	0.587600	0.425307	0.333311
C69	C	0.920933	0.758641	0.666645
C70	C	0.501561	0.159386	-0.000022
C71	C	0.834894	0.492720	0.333311
C72	C	1.168227	0.826053	0.666645
C73	C	0.574385	0.160460	-0.000031
C74	C	0.907719	0.493794	0.333303
C75	C	1.241052	0.827127	0.666636
C76	C	0.591425	0.033193	-0.000018
C77	C	0.924758	0.366526	0.333316
C78	C	1.258091	0.699859	0.666649
C79	C	0.518601	0.032121	-0.000016
C80	C	0.851934	0.365454	0.333317
C81	C	1.185268	0.698787	0.666650
C82	C	0.473673	0.095220	-0.000015
C83	C	0.807006	0.428553	0.333318
C84	C	1.140340	0.761886	0.666652
C85	C	0.829974	-0.034650	-0.000007
C86	C	1.163307	0.298683	0.333326
C87	C	1.496640	0.632017	0.666660
C88	C	0.828833	-0.112154	-0.000001
C89	C	1.162166	0.221179	0.333333
C90	C	1.495500	0.554512	0.666666
C91	C	0.891924	-0.157079	0.000002
C92	C	1.225257	0.176254	0.333336
C93	C	1.558591	0.509587	0.666669
C94	C	0.890852	-0.229903	-0.000009
C95	C	1.224186	0.103430	0.333324
C96	C	1.557519	0.436763	0.666657
C97	C	0.826686	-0.257799	-0.000010
C98	C	1.160020	0.075535	0.333324
C99	C	1.493353	0.408868	0.666657
C100	C	0.763587	-0.212864	-0.000017
C101	C	1.096920	0.120470	0.333316
C102	C	1.430254	0.453803	0.666650
C103	C	0.764660	-0.140041	-0.000012
C104	C	1.097994	0.193292	0.333321
C105	C	1.431327	0.526625	0.666654
N106	N	0.777633	-0.365805	0.041429
N107	N	1.110966	-0.032471	0.374762
N108	N	1.444299	0.300862	0.708095
N109	N	0.776617	-0.434983	0.041426
N110	N	1.109950	-0.101650	0.374759
N111	N	1.443284	0.231684	0.708093
C112	C	0.823448	-0.477207	-0.000024
C113	C	1.156781	-0.143874	0.333309
C114	C	1.490115	0.189459	0.666642
N115	N	0.871343	-0.447641	-0.041463
N116	N	1.204677	-0.114307	0.291871
N117	N	1.538010	0.219026	0.625204
N118	N	0.872361	-0.378456	-0.041457
N119	N	1.205694	-0.045123	0.291876
N120	N	1.539028	0.288211	0.625210
C121	C	0.825515	-0.336761	-0.000015
C122	C	1.158848	-0.003428	0.333319
C123	C	1.492182	0.329906	0.666652
C124	C	0.885381	-0.601097	-0.000035
C125	C	1.218715	-0.267763	0.333298
C126	C	1.552048	0.065570	0.666632
C127	C	0.884307	-0.673922	-0.000051
C128	C	1.217640	-0.340588	0.333282
C129	C	1.550974	-0.007255	0.666616
C130	C	0.757040	-0.656880	-0.000051
C131	C	1.090373	-0.323547	0.333282
C132	C	1.423706	0.009786	0.666615
C133	C	0.758116	-0.584057	-0.000042
C134	C	1.091449	-0.250724	0.333291
C135	C	1.424783	0.082610	0.666624
C136	C	0.822289	-0.556170	-0.000031
C137	C	1.155622	-0.222837	0.333303
C138	C	1.488955	0.110497	0.666636
C139	C	0.952154	0.087527	-0.000026
C140	C	1.285487	0.420861	0.333307
C141	C	1.618820	0.754194	0.666641
C142	C	1.029658	0.088666	-0.000032
C143	C	1.362992	0.422000	0.333302
C144	C	1.696325	0.755333	0.666635
C145	C	0.819000	0.220684	-0.000041
C146	C	1.152333	0.554017	0.333292
C147	C	1.485666	0.887350	0.666625
C148	C	0.820140	0.298188	-0.000053
C149	C	1.153474	0.631522	0.333281
C150	C	1.486807	0.964855	0.666614
N151	N	0.824463	0.093008	0.189677
N152	N	1.157797	0.426341	0.523010
N153	N	1.491130	0.759675	0.856343
N154	N	0.824515	0.093020	-0.189724
N155	N	1.157849	0.426354	0.143610
N156	N	1.491182	0.759687	0.476943
C157	C	0.872090	0.045419	0.227992
C158	C	1.205424	0.378753	0.561325
C159	C	1.538757	0.712086	0.894658
C160	C	0.872095	0.045416	0.304637
C161	C	1.205428	0.378749	0.637970
C162	C	1.538761	0.712083	0.971303
C163	C	0.824479	0.093013	0.342964
C164	C	1.157812	0.426347	0.676297
C165	C	1.491146	0.759680	1.009630
C166	C	0.776843	0.140606	0.304639
C167	C	1.110177	0.473939	0.637973
C168	C	1.443510	0.807273	0.971306
C169	C	0.776836	0.140603	0.227996
C170	C	1.110169	0.473936	0.561329
C171	C	1.443502	0.807270	0.894663
N172	N	0.815403	0.154821	0.463287
N173	N	1.148737	0.488154	0.796621
N174	N	1.482070	0.821488	1.129954
N175	N	0.815415	0.154821	0.536096
N176	N	1.148748	0.488155	0.869429
N177	N	1.482082	0.821488	1.202762
C178	C	0.824499	0.093024	0.573886
C179	C	1.157832	0.426357	0.907219
C180	C	1.491165	0.759690	1.240553
N181	N	0.833584	0.031223	0.536118
N182	N	1.166917	0.364556	0.869451
N183	N	1.500251	0.697890	1.202785
N184	N	0.833576	0.031223	0.463303
N185	N	1.166909	0.364557	0.796637
N186	N	1.500243	0.697890	1.129970
C187	C	0.824482	0.093021	0.426071
C188	C	1.157815	0.426355	0.759404
C189	C	1.491148	0.759688	1.092737
C190	C	0.872133	0.045427	0.695308
C191	C	1.205466	0.378761	1.028642
C192	C	1.538799	0.712094	1.361975
C193	C	0.872132	0.045423	0.771955
C194	C	1.205466	0.378756	1.105288
C195	C	1.538799	0.712090	1.438621
C196	C	0.776884	0.140619	0.771956
C197	C	1.110218	0.473952	1.105289
C198	C	1.443551	0.807286	1.438623
C199	C	0.776881	0.140617	0.695311
C200	C	1.110215	0.473951	1.028644
C201	C	1.443548	0.807284	1.361978
C202	C	0.824509	0.093022	0.656992
C203	C	1.157843	0.426355	0.990325
C204	C	1.491176	0.759689	1.323658
H205	H	0.628010	-0.018178	-0.000015
H206	H	0.961343	0.315155	0.333318
H207	H	1.294676	0.648489	0.666652
H208	H	0.713282	-0.103462	-0.000015
H209	H	1.046616	0.229871	0.333318
H210	H	1.379949	0.563204	0.666652
H211	H	0.910879	0.006662	0.335839
H212	H	1.244213	0.339995	0.669172
H213	H	1.577546	0.673329	1.002505
H214	H	0.910914	0.006667	0.803151
H215	H	1.244247	0.340000	1.136485
H216	H	1.577580	0.673334	1.469818
H217	H	0.738102	0.179371	0.664113
H218	H	1.071435	0.512705	0.997446
H219	H	1.404769	0.846038	1.330780
Br220	Br	0.208389	-0.058984	-0.000022
Br221	Br	0.541722	0.274350	0.333311
Br222	Br	0.875055	0.607683	0.666644
Br223	Br	0.976482	-0.290885	-0.000008
Br224	Br	1.309815	0.042448	0.333325
Br225	Br	1.643149	0.375782	0.666659
Br226	Br	0.712216	0.205198	0.356652
Br227	Br	1.045550	0.538532	0.689985
Br228	Br	1.378883	0.871865	1.023318
Br229	Br	0.969939	-0.734894	-0.000055
Br230	Br	1.303272	-0.401561	0.333279
Br231	Br	1.636605	-0.068228	0.666612
H232	H	0.597088	0.212713	-0.000036
H233	H	0.930421	0.546046	0.333297
H234	H	1.263755	0.879380	0.666630
H235	H	0.738112	0.179371	0.803161
H236	H	1.071445	0.512705	1.136494
H237	H	1.404779	0.846038	1.469828
Br238	Br	0.440583	0.245018	-0.000021
Br239	Br	0.773916	0.578351	0.333312
Br240	Br	1.107250	0.911684	0.666646
H241	H	0.704794	-0.679592	-0.000055
H242	H	1.038128	-0.346258	0.333278
H243	H	1.371461	-0.012925	0.666612
H244	H	0.937635	-0.578390	-0.000029
H245	H	1.270968	-0.245057	0.333305
H246	H	1.604301	0.088277	0.666638
H247	H	0.706740	-0.547478	-0.000041
H248	H	1.040073	-0.214144	0.333292
H249	H	1.373407	0.119189	0.666626
Br250	Br	0.480752	-0.054965	-0.000023
Br251	Br	0.814085	0.278368	0.333310
Br252	Br	1.147419	0.611701	0.666644
H253	H	0.153078	0.206160	-0.000028
H254	H	0.486411	0.539494	0.333305
H255	H	0.819744	0.872827	0.666639
H256	H	0.051883	-0.026685	-0.000033
H257	H	0.385216	0.306649	0.333300
H258	H	0.718549	0.639982	0.666633
H259	H	0.910870	0.006663	0.196795
H260	H	1.244203	0.339996	0.530128
H261	H	1.577537	0.673330	0.863461
Br262	Br	0.979015	-0.119236	-0.000002
Br263	Br	1.312348	0.214098	0.333331
Br264	Br	1.645682	0.547431	0.666665
Br265	Br	0.676503	-0.250719	-0.000027
Br266	Br	1.009837	0.082614	0.333307
Br267	Br	1.343170	0.415947	0.666640
H268	H	0.910912	0.006670	0.664108
H269	H	1.244246	0.340004	0.997441
H270	H	1.577579	0.673337	1.330774
Br271	Br	0.712194	0.205192	0.175992
Br272	Br	1.045527	0.538525	0.509326
Br273	Br	1.378860	0.871859	0.842659
H274	H	0.020968	0.204211	-0.000034
H275	H	0.354302	0.537545	0.333300
H276	H	0.687635	0.870878	0.666633
