data_functionalizedCrystal
_audit_creation_method	'MofGen! by Chris Wilmer'
_symmetry_space_group_name_H-M	'P1'
_symmetry_Int_Tables_number	1
_symmetry_cell_setting	triclinic
loop_
_symmetry_equiv_pos_as_xyz
  x,y,z
_cell_length_a	10.654543
_cell_length_b	9.130313
_cell_length_c	10.654550
_cell_angle_alpha	90.004369
_cell_angle_beta	95.516448
_cell_angle_gamma	90.001143
loop_
_atom_site_label
_atom_site_type_symbol
_atom_site_fract_x
_atom_site_fract_y
_atom_site_fract_z
O1	O	-1.667844	0.121641	0.176358
O2	O	-1.302365	0.121679	0.193173
O3	O	-1.493508	0.121650	0.002026
O4	O	-1.476702	0.121670	0.367505
O5	O	-1.493494	-0.121949	0.002021
O6	O	-1.302352	-0.121920	0.193168
O7	O	-1.667831	-0.121957	0.176353
Cu8	Cu	-1.485090	-0.144181	0.184760
Cu9	Cu	-1.485106	0.143903	0.184766
O10	O	-1.476688	-0.121929	0.367500
C11	C	-1.255560	-0.000116	0.191938
C12	C	-1.116116	-0.000102	0.188249
N13	N	-1.485088	-0.346804	0.184754
C14	C	-1.036631	-0.000098	0.300793
C15	C	-0.905609	-0.000120	0.297319
C16	C	-0.933573	-0.000144	0.068749
C17	C	-1.064591	-0.000132	0.072224
C18	C	-1.569755	-0.423468	0.100150
C19	C	-1.569767	-0.576805	0.100151
C20	C	-1.400442	-0.576799	0.269370
C21	C	-1.400424	-0.423465	0.269363
C22	C	-0.714635	-0.000152	0.177595
C23	C	-0.854077	-0.000135	0.181301
C24	C	-1.492267	-0.000148	-0.044774
C25	C	-1.488575	-0.000146	-0.184217
N26	N	-1.485117	0.346525	0.184762
C27	C	-1.601117	-0.000157	-0.263706
C28	C	-1.597641	-0.000139	-0.394726
C29	C	-1.369070	-0.000105	-0.366758
C30	C	-1.372548	-0.000112	-0.235740
C31	C	-1.477929	-0.000127	0.414300
C32	C	-1.481621	-0.000120	0.553744
H33	H	-1.078578	-0.000084	0.395268
O34	O	-0.819873	-0.000111	0.418704
H35	H	-0.877719	-0.000079	0.499962
O36	O	-1.719024	-0.000169	-0.480465
H37	H	-1.800283	-0.000208	-0.422622
H38	H	-1.129313	-0.000140	-0.019428
O39	O	-0.878001	-0.000166	-0.056390
H40	H	-0.773541	-0.000159	-0.039901
O41	O	-1.309090	-0.340758	0.360605
H42	H	-1.362467	-0.270861	0.422126
H43	H	-1.695593	-0.000181	-0.221761
H44	H	-1.638709	-0.639221	0.031257
O45	O	-1.661052	-0.340776	0.008886
H46	H	-1.719917	-0.419853	-0.049954
O47	O	-1.309141	-0.659482	0.360639
H48	H	-1.323386	-0.778985	0.346443
H49	H	-1.274605	-0.000080	-0.408724
O50	O	-1.251159	-0.000117	-0.149990
H51	H	-1.169894	-0.000120	-0.207825
