data_functionalizedCrystal
_audit_creation_method	'MofGen! by Chris Wilmer'
_symmetry_space_group_name_H-M	'P1'
_symmetry_Int_Tables_number	1
_symmetry_cell_setting	triclinic
loop_
_symmetry_equiv_pos_as_xyz
  x,y,z
_cell_length_a	23.532355
_cell_length_b	22.010155
_cell_length_c	19.288857
_cell_angle_alpha	90.000355
_cell_angle_beta	82.980304
_cell_angle_gamma	90.008557
loop_
_atom_site_label
_atom_site_type_symbol
_atom_site_fract_x
_atom_site_fract_y
_atom_site_fract_z
O1	O	0.755460	0.050445	0.084139
O2	O	1.088793	0.383779	0.417472
O3	O	1.422127	0.717112	0.750806
O4	O	0.589618	0.050465	0.096377
O5	O	0.922951	0.383798	0.429710
O6	O	1.256284	0.717132	0.763043
O7	O	0.677333	0.050447	-0.010889
O8	O	1.010667	0.383781	0.322445
O9	O	1.344000	0.717114	0.655778
O10	O	0.667745	0.050463	0.191404
O11	O	1.001078	0.383796	0.524738
O12	O	1.334411	0.717130	0.858071
O13	O	0.677308	-0.050603	-0.010876
O14	O	1.010641	0.282730	0.322457
O15	O	1.343974	0.616064	0.655791
O16	O	0.589592	-0.050585	0.096389
O17	O	0.922926	0.282748	0.429723
O18	O	1.256259	0.616081	0.763056
O19	O	0.755435	-0.050605	0.084152
O20	O	1.088768	0.282728	0.417485
O21	O	1.422101	0.616062	0.750818
Cu22	Cu	0.672511	-0.059822	0.090272
Cu23	Cu	1.005845	0.273512	0.423605
Cu24	Cu	1.339178	0.606845	0.756938
Cu25	Cu	0.672541	0.059682	0.090257
Cu26	Cu	1.005875	0.393015	0.423590
Cu27	Cu	1.339208	0.726349	0.756923
O28	O	0.667719	-0.050587	0.191417
O29	O	1.001052	0.282746	0.524750
O30	O	1.334386	0.616079	0.858084
C31	C	0.568388	-0.000058	0.096077
C32	C	0.901721	0.333276	0.429411
C33	C	1.235054	0.666609	0.762744
C34	C	0.505167	-0.000050	0.095158
C35	C	0.838501	0.333283	0.428491
C36	C	1.171834	0.666616	0.761824
N37	N	0.672494	-0.143874	0.090282
N38	N	1.005828	0.189459	0.423615
N39	N	1.339161	0.522792	0.756948
C40	C	0.638098	-0.436478	0.048345
C41	C	0.971431	-0.103145	0.381678
C42	C	1.304765	0.230188	0.715011
C43	C	0.638093	-0.372871	0.048348
C44	C	0.971426	-0.039537	0.381681
C45	C	1.304760	0.293796	0.715014
O46	O	0.608826	-0.339973	0.012693
O47	O	0.942160	-0.006639	0.346026
O48	O	1.275493	0.326694	0.679360
N49	N	0.672517	-0.341058	0.090260
N50	N	1.005850	-0.007725	0.423593
N51	N	1.339183	0.325608	0.756927
C52	C	0.706952	-0.372857	0.132166
C53	C	1.040285	-0.039524	0.465500
C54	C	1.373619	0.293810	0.798833
O55	O	0.736232	-0.339958	0.167816
O56	O	1.069565	-0.006624	0.501149
O57	O	1.402899	0.326709	0.834482
C58	C	0.706960	-0.436464	0.132159
C59	C	1.040293	-0.103130	0.465492
C60	C	1.373626	0.230203	0.798826
C61	C	0.672529	-0.468272	0.090249
C62	C	1.005863	-0.134939	0.423583
C63	C	1.339196	0.198394	0.756916
C64	C	0.603671	-0.468287	0.006438
C65	C	0.937004	-0.134954	0.339771
C66	C	1.270338	0.198379	0.673105
C67	C	0.603675	-0.531891	0.006436
C68	C	0.937009	-0.198557	0.339769
C69	C	1.270342	0.134776	0.673103
C70	C	0.638107	-0.563685	0.048341
C71	C	0.971440	-0.230351	0.381674
C72	C	1.304773	0.102982	0.715007
C73	C	0.672534	-0.531876	0.090247
C74	C	1.005867	-0.198542	0.423581
C75	C	1.339200	0.134791	0.756914
C76	C	0.741398	-0.468261	0.174061
C77	C	1.074731	-0.134928	0.507394
C78	C	1.408064	0.198406	0.840728
C79	C	0.741403	-0.531872	0.174050
C80	C	1.074736	-0.198538	0.507383
C81	C	1.408069	0.134795	0.840716
C82	C	0.706972	-0.563681	0.132140
C83	C	1.040306	-0.230347	0.465473
C84	C	1.373639	0.102986	0.798807
C85	C	0.706969	-0.627273	0.132150
C86	C	1.040303	-0.293940	0.465483
C87	C	1.373636	0.039394	0.798817
N88	N	0.672546	-0.659085	0.090238
N89	N	1.005879	-0.325752	0.423571
N90	N	1.339212	0.007581	0.756905
C91	C	0.638114	-0.627291	0.048333
C92	C	0.971448	-0.293958	0.381667
C93	C	1.304781	0.039375	0.715000
C94	C	0.706934	-0.239279	0.132178
C95	C	1.040267	0.094054	0.465511
C96	C	1.373601	0.427387	0.798844
C97	C	0.706924	-0.175674	0.132189
C98	C	1.040257	0.157659	0.465523
C99	C	1.373590	0.490993	0.798856
C100	C	0.638065	-0.175692	0.048370
C101	C	0.971399	0.157641	0.381703
C102	C	1.304732	0.490975	0.715036
C103	C	0.638073	-0.239298	0.048362
C104	C	0.971406	0.094035	0.381696
C105	C	1.304740	0.427368	0.715029
C106	C	0.672510	-0.271092	0.090266
C107	C	1.005844	0.062242	0.423599
C108	C	1.339177	0.395575	0.756932
C109	C	0.638126	-0.760863	0.048333
C110	C	0.971459	-0.427529	0.381666
C111	C	1.304792	-0.094196	0.714999
C112	C	0.638131	-0.824471	0.048336
C113	C	0.971465	-0.491138	0.381670
C114	C	1.304798	-0.157805	0.715003
C115	C	0.706992	-0.824448	0.132153
C116	C	1.040325	-0.491114	0.465486
C117	C	1.373658	-0.157781	0.798820
C118	C	0.706984	-0.760845	0.132152
C119	C	1.040317	-0.427511	0.465486
C120	C	1.373651	-0.094178	0.798819
C121	C	0.672549	-0.729053	0.090236
C122	C	1.005883	-0.395720	0.423570
C123	C	1.339216	-0.062387	0.756903
O124	O	0.736223	-0.660212	0.167785
O125	O	1.069556	-0.326878	0.501118
O126	O	1.402890	0.006455	0.834451
O127	O	0.608845	-0.660198	0.012683
O128	O	0.942178	-0.326865	0.346016
O129	O	1.275512	0.006468	0.679350
C130	C	0.113128	-0.055159	0.089386
C131	C	0.446461	0.278175	0.422719
C132	C	0.779794	0.611508	0.756052
C133	C	0.053726	-0.055161	0.088511
C134	C	0.387060	0.278172	0.421844
C135	C	0.720393	0.611505	0.755177
O136	O	0.022995	-0.102006	0.088040
O137	O	0.356328	0.231327	0.421374
O138	O	0.689662	0.564660	0.754707
N139	N	0.024031	-0.000079	0.088070
N140	N	0.357364	0.333254	0.421403
N141	N	0.690698	0.666588	0.754737
C142	C	0.053741	0.055009	0.088497
C143	C	0.387074	0.388343	0.421830
C144	C	0.720407	0.721676	0.755164
O145	O	0.023028	0.101861	0.088041
O146	O	0.356361	0.435194	0.421375
O147	O	0.689694	0.768528	0.754708
C148	C	0.113141	0.055011	0.089367
C149	C	0.446475	0.388345	0.422700
C150	C	0.779808	0.721678	0.756034
C151	C	0.142833	-0.000075	0.089815
C152	C	0.476166	0.333259	0.423148
C153	C	0.809500	0.666592	0.756482
C154	C	0.142820	-0.110240	0.089833
C155	C	0.476153	0.223093	0.423166
C156	C	0.809486	0.556426	0.756499
C157	C	0.202216	-0.110238	0.090709
C158	C	0.535550	0.223096	0.424042
C159	C	0.868883	0.556429	0.757376
C160	C	0.231922	-0.055153	0.091138
C161	C	0.565255	0.278180	0.424471
C162	C	0.898588	0.611513	0.757805
C163	C	0.202230	-0.000072	0.090691
C164	C	0.535563	0.333261	0.424024
C165	C	0.868897	0.666595	0.757358
C166	C	0.142850	0.110099	0.089789
C167	C	0.476184	0.443432	0.423123
C168	C	0.809517	0.776766	0.756456
C169	C	0.202255	0.110096	0.090659
C170	C	0.535588	0.443429	0.423992
C171	C	0.868922	0.776763	0.757326
C172	C	0.231947	0.055010	0.091107
C173	C	0.565280	0.388343	0.424440
C174	C	0.898613	0.721677	0.757773
C175	C	0.291332	0.055015	0.091997
C176	C	0.624665	0.388348	0.425330
C177	C	0.957999	0.721681	0.758663
N178	N	0.321027	-0.000068	0.092437
N179	N	0.654361	0.333266	0.425771
N180	N	0.987694	0.666599	0.759104
C181	C	0.291322	-0.055152	0.092008
C182	C	0.624656	0.278182	0.425341
C183	C	0.957989	0.611515	0.758675
C184	C	-0.071005	0.055001	0.086669
C185	C	0.262329	0.388335	0.420002
C186	C	0.595662	0.721668	0.753335
C187	C	-0.130405	0.055000	0.085804
C188	C	0.202928	0.388334	0.419137
C189	C	0.536262	0.721667	0.752470
C190	C	-0.130415	-0.055171	0.085816
C191	C	0.202919	0.278163	0.419149
C192	C	0.536252	0.611496	0.752483
C193	C	-0.071014	-0.055169	0.086686
C194	C	0.262319	0.278165	0.420019
C195	C	0.595653	0.611498	0.753353
C196	C	-0.041309	-0.000081	0.087110
C197	C	0.292024	0.333253	0.420443
C198	C	0.625357	0.666586	0.753776
C199	C	0.416060	-0.055142	0.093849
C200	C	0.749393	0.278191	0.427182
C201	C	1.082727	0.611525	0.760516
C202	C	0.475462	-0.055134	0.094728
C203	C	0.808795	0.278199	0.428062
C204	C	1.142129	0.611532	0.761395
C205	C	0.475467	0.055036	0.094712
C206	C	0.808800	0.388369	0.428046
C207	C	1.142134	0.721703	0.761379
C208	C	0.416070	0.055029	0.093837
C209	C	0.749403	0.388362	0.427170
C210	C	1.082737	0.721696	0.760503
C211	C	0.386368	-0.000065	0.093403
C212	C	0.719702	0.333268	0.426736
C213	C	1.053035	0.666602	0.760069
O214	O	0.322101	0.101836	0.092465
O215	O	0.655435	0.435169	0.425798
O216	O	0.988768	0.768502	0.759131
O217	O	0.322043	-0.101995	0.092455
O218	O	0.655377	0.231338	0.425788
O219	O	0.988710	0.564671	0.759122
C220	C	0.776665	-0.000081	0.084451
C221	C	1.109998	0.333252	0.417784
C222	C	1.443331	0.666586	0.751118
C223	C	0.839885	-0.000084	0.085371
C224	C	1.173219	0.333249	0.418704
C225	C	1.506552	0.666583	0.752037
C226	C	0.677013	-0.000078	-0.036758
C227	C	1.010346	0.333255	0.296575
C228	C	1.343679	0.666588	0.629909
C229	C	0.676089	-0.000080	-0.113859
C230	C	1.009422	0.333253	0.219475
C231	C	1.342755	0.666587	0.552808
N232	N	0.672563	0.143734	0.090241
N233	N	1.005896	0.477068	0.423574
N234	N	1.339229	0.810401	0.756908
C235	C	0.675671	0.055003	-0.150075
C236	C	1.009005	0.388336	0.183259
C237	C	1.342338	0.721669	0.516592
C238	C	0.674795	0.055007	-0.222518
C239	C	1.008128	0.388341	0.110815
C240	C	1.341462	0.721674	0.444149
C241	C	0.674348	-0.000074	-0.258744
C242	C	1.007681	0.333260	0.074589
C243	C	1.341014	0.666593	0.407923
C244	C	0.674762	-0.055164	-0.222519
C245	C	1.008095	0.278170	0.110815
C246	C	1.341429	0.611503	0.444148
C247	C	0.675632	-0.055167	-0.150076
C248	C	1.008966	0.278167	0.183257
C249	C	1.342299	0.611500	0.516591
C250	C	0.706316	-0.042273	-0.379076
C251	C	1.039650	0.291060	-0.045743
C252	C	1.372983	0.624393	0.287590
C253	C	0.705449	-0.042268	-0.451518
C254	C	1.038783	0.291065	-0.118185
C255	C	1.372116	0.624399	0.215149
C256	C	0.671660	-0.000067	-0.482181
C257	C	1.004993	0.333267	-0.148848
C258	C	1.338327	0.666600	0.184486
C259	C	0.638746	0.042139	-0.440394
C260	C	0.972079	0.375473	-0.107061
C261	C	1.305412	0.708806	0.226272
C262	C	0.639616	0.042136	-0.367952
C263	C	0.972949	0.375470	-0.034618
C264	C	1.306283	0.708803	0.298715
C265	C	0.673403	-0.000077	-0.337296
C266	C	1.006737	0.333257	-0.003963
C267	C	1.340070	0.666590	0.329371
C268	C	0.670292	0.055025	-0.596948
C269	C	1.003625	0.388358	-0.263615
C270	C	1.336958	0.721692	0.069719
C271	C	0.669412	0.055027	-0.669392
C272	C	1.002745	0.388361	-0.336059
C273	C	1.336079	0.721694	-0.002725
C274	C	0.669385	-0.055146	-0.669392
C275	C	1.002718	0.278188	-0.336059
C276	C	1.336051	0.611521	-0.002726
C277	C	0.670259	-0.055146	-0.596949
C278	C	1.003592	0.278187	-0.263616
C279	C	1.336925	0.611520	0.069718
C280	C	0.670715	-0.000059	-0.560732
C281	C	1.004048	0.333274	-0.227398
C282	C	1.337382	0.666607	0.105935
C283	C	0.668040	-0.000060	0.217286
C284	C	1.001373	0.333273	0.550620
C285	C	1.334706	0.666607	0.883953
C286	C	0.668964	-0.000055	0.294387
C287	C	1.002297	0.333279	0.627720
C288	C	1.335630	0.666612	0.961054
H289	H	0.610092	-0.850367	0.014209
H290	H	0.943425	-0.517034	0.347542
H291	H	1.276758	-0.183701	0.680875
Br292	Br	0.102570	0.184863	0.089181
Br293	Br	0.435903	0.518197	0.422514
Br294	Br	0.769236	0.851530	0.755848
Br295	Br	0.591396	-0.717727	-0.008557
Br296	Br	0.924729	-0.384394	0.324776
Br297	Br	1.258062	-0.051061	0.658110
H298	H	0.769447	-0.557754	0.208172
H299	H	1.102781	-0.224421	0.541505
H300	H	1.436114	0.108912	0.874839
Br301	Br	0.750122	-0.099543	-0.508222
Br302	Br	1.083455	0.233791	-0.174888
Br303	Br	1.416789	0.567124	0.158445
H304	H	-0.154611	-0.100023	0.085465
H305	H	0.178722	0.233310	0.418799
H306	H	0.512055	0.566644	0.752132
H307	H	0.676041	0.099859	-0.120591
H308	H	1.009375	0.433192	0.212743
H309	H	1.342708	0.766526	0.546076
Br310	Br	0.556931	-0.425150	-0.050435
Br311	Br	0.890265	-0.091817	0.282899
Br312	Br	1.223598	0.241517	0.616232
Br313	Br	0.375771	0.129789	0.093243
Br314	Br	0.709104	0.463122	0.426577
Br315	Br	1.042438	0.796455	0.759910
H316	H	0.499663	0.099884	0.095065
H317	H	0.832997	0.433217	0.428398
H318	H	1.166330	0.766551	0.761731
Br319	Br	0.674226	0.129768	-0.271679
Br320	Br	1.007560	0.463101	0.061654
Br321	Br	1.340893	0.796434	0.394988
H322	H	0.612815	0.076501	-0.333932
H323	H	0.946148	0.409834	-0.000598
H324	H	1.279481	0.743167	0.332735
H325	H	-0.154576	0.099857	0.085450
H326	H	0.178757	0.433190	0.418784
H327	H	0.512091	0.766524	0.752117
Br328	Br	0.674147	-0.129918	-0.271680
Br329	Br	1.007481	0.203416	0.061654
Br330	Br	1.340814	0.536749	0.394987
H331	H	0.734975	-0.265161	0.166307
H332	H	1.068308	0.068172	0.499640
H333	H	1.401642	0.401505	0.832974
Br334	Br	0.591345	-0.282461	-0.008517
Br335	Br	0.924678	0.050872	0.324816
Br336	Br	1.258011	0.384206	0.658150
Br337	Br	0.591336	-0.132531	-0.008502
Br338	Br	0.924670	0.200803	0.324831
Br339	Br	1.258003	0.534136	0.658165
Br340	Br	0.753713	-0.867609	0.189026
Br341	Br	1.087047	-0.534276	0.522360
Br342	Br	1.420380	-0.200943	0.855693
H343	H	0.391883	-0.100005	0.093502
H344	H	0.725217	0.233329	0.426835
H345	H	1.058550	0.566662	0.760169
Br346	Br	0.668839	0.129789	-0.718543
Br347	Br	1.002172	0.463122	-0.385210
Br348	Br	1.335506	0.796456	-0.051876
H349	H	0.734953	-0.149780	0.166325
H350	H	1.068287	0.183553	0.499658
H351	H	1.401620	0.516886	0.832991
Br352	Br	0.753719	-0.717674	0.189021
Br353	Br	1.087052	-0.384340	0.522354
Br354	Br	1.420385	-0.051007	0.855687
H355	H	0.675970	-0.100023	-0.120589
H356	H	1.009303	0.233310	0.212744
H357	H	1.342637	0.566643	0.546078
H358	H	0.499634	-0.099994	0.095095
H359	H	0.832967	0.233339	0.428428
H360	H	1.166301	0.566673	0.761762
Br361	Br	0.102516	-0.185008	0.089253
Br362	Br	0.435850	0.148326	0.422586
Br363	Br	0.769183	0.481659	0.755919
H364	H	0.769436	-0.442373	0.208187
H365	H	1.102769	-0.109040	0.541520
H366	H	1.436102	0.224294	0.874854
H367	H	0.226387	-0.155094	0.091069
H368	H	0.559720	0.178239	0.424403
H369	H	0.893053	0.511572	0.757736
H370	H	0.670603	-0.100001	-0.567462
H371	H	1.003937	0.233333	-0.234129
H372	H	1.337270	0.566666	0.099204
Br373	Br	0.752192	-0.099538	-0.337473
Br374	Br	1.085526	0.233796	-0.004140
Br375	Br	1.418859	0.567129	0.329194
Br376	Br	-0.030724	-0.129931	0.087293
Br377	Br	0.302609	0.203403	0.420627
Br378	Br	0.635942	0.536736	0.753960
Br379	Br	0.592884	0.099415	-0.481998
Br380	Br	0.926217	0.432749	-0.148664
Br381	Br	1.259551	0.766082	0.184669
H382	H	-0.046823	0.099863	0.087020
H383	H	0.286510	0.433197	0.420353
H384	H	0.619843	0.766530	0.753687
H385	H	0.670660	0.099880	-0.567458
H386	H	1.003993	0.433213	-0.234124
H387	H	1.337327	0.766547	0.099209
Br388	Br	0.242566	0.184863	0.091230
Br389	Br	0.575899	0.518196	0.424563
Br390	Br	0.909232	0.851529	0.757896
H391	H	0.575641	-0.557784	-0.027694
H392	H	0.908974	-0.224450	0.305640
H393	H	1.242307	0.108883	0.638973
Br394	Br	0.668771	-0.129900	-0.718548
Br395	Br	1.002105	0.203433	-0.385214
Br396	Br	1.335438	0.536766	-0.051881
