data_functionalizedCrystal
_audit_creation_method	'MofGen! by Chris Wilmer'
_symmetry_space_group_name_H-M	'P1'
_symmetry_Int_Tables_number	1
_symmetry_cell_setting	triclinic
loop_
_symmetry_equiv_pos_as_xyz
  x,y,z
_cell_length_a	8.497374
_cell_length_b	8.497374
_cell_length_c	16.120530
_cell_angle_alpha	92.899701
_cell_angle_beta	92.902542
_cell_angle_gamma	90.005237
loop_
_atom_site_label
_atom_site_type_symbol
_atom_site_fract_x
_atom_site_fract_y
_atom_site_fract_z
Zn1	Zn	0.750826	1.014365	1.274551
Zn2	Zn	1.014571	0.750630	1.274544
Zn3	Zn	0.737404	0.737222	1.135172
Zn4	Zn	1.001161	1.000990	1.135152
O5	O	0.875991	0.875802	1.204855
O6	O	0.797042	0.990588	1.391216
O7	O	0.977800	0.528089	1.256062
O8	O	0.518423	0.773972	1.153672
O9	O	0.990815	0.796823	1.391211
O10	O	0.528284	0.977587	1.256073
O11	O	0.774166	0.518239	1.153666
O12	O	0.761162	0.761004	1.018503
O13	O	0.967958	1.223526	1.153638
O14	O	0.954943	0.954793	1.018488
O15	O	0.784038	1.233352	1.256053
O16	O	1.233554	0.783854	1.256042
O17	O	1.223701	0.967793	1.153631
C18	C	0.855142	0.854993	0.988245
C19	C	0.846261	0.846128	0.895579
C20	C	1.285869	0.875824	1.204844
C21	C	1.464516	0.875800	1.204866
C22	C	0.875992	1.287281	1.204848
C23	C	0.876009	1.465926	1.204850
C24	C	0.830010	0.829957	0.725916
C25	C	0.922088	0.921762	0.684633
C26	C	0.913045	0.912764	0.590227
C27	C	0.839050	0.838953	0.820331
C28	C	0.896922	0.896693	1.422310
C29	C	0.905841	0.905595	1.514976
H30	H	1.007707	1.007117	0.720191
Br31	Br	0.687309	0.687703	0.666654
