data_functionalizedCrystal
_audit_creation_method	'MofGen! by Chris Wilmer'
_symmetry_space_group_name_H-M	'P1'
_symmetry_Int_Tables_number	1
_symmetry_cell_setting	triclinic
loop_
_symmetry_equiv_pos_as_xyz
  x,y,z
_cell_length_a	11.792254
_cell_length_b	14.971494
_cell_length_c	13.448316
_cell_angle_alpha	89.998062
_cell_angle_beta	90.005028
_cell_angle_gamma	96.091922
loop_
_atom_site_label
_atom_site_type_symbol
_atom_site_fract_x
_atom_site_fract_y
_atom_site_fract_z
O1	O	1.506115	-0.122649	0.082687
O2	O	2.006115	0.377351	0.582687
O3	O	1.175695	-0.135272	0.082689
O4	O	1.675695	0.364728	0.582689
O5	O	1.349756	0.001203	0.082686
O6	O	1.849756	0.501203	0.582686
O7	O	1.332054	-0.259124	0.082690
O8	O	1.832054	0.240876	0.582690
O9	O	1.349738	0.001205	-0.082698
O10	O	1.849738	0.501205	0.417302
O11	O	1.175677	-0.135271	-0.082695
O12	O	1.675677	0.364729	0.417305
O13	O	1.506097	-0.122648	-0.082697
O14	O	2.006097	0.377352	0.417303
Cu15	Cu	1.340886	-0.128959	-0.097797
Cu16	Cu	1.840886	0.371041	0.402203
Cu17	Cu	1.340906	-0.128961	0.097789
Cu18	Cu	1.840906	0.371039	0.597789
O19	O	1.332036	-0.259123	-0.082694
O20	O	1.832036	0.240877	0.417306
C21	C	1.133400	-0.134476	-0.000003
C22	C	1.633400	0.365524	0.499997
C23	C	1.007403	-0.132096	-0.000002
C24	C	1.507403	0.367904	0.499998
C25	C	0.905078	-0.130162	0.000002
C26	C	1.405078	0.369838	0.500002
C27	C	0.776707	-0.127744	0.000003
C28	C	1.276707	0.372256	0.500003
C29	C	1.348954	0.034532	-0.000005
C30	C	1.848954	0.534532	0.499995
C31	C	1.346576	0.133838	-0.000000
C32	C	1.846576	0.633838	0.500000
C33	C	1.548392	-0.123444	-0.000003
C34	C	2.048392	0.376556	0.499997
C35	C	1.674389	-0.125824	0.000003
C36	C	2.174389	0.374176	0.500003
C37	C	1.332838	-0.292451	-0.000001
C38	C	1.832838	0.207549	0.499999
C39	C	1.335216	-0.391758	0.000001
C40	C	1.835216	0.108242	0.500001
C41	C	1.345471	0.180486	0.090152
C42	C	1.845471	0.680486	0.590152
C43	C	1.343230	0.273795	0.090153
C44	C	1.843230	0.773795	0.590153
C45	C	1.342102	0.320453	0.000001
C46	C	1.842102	0.820453	0.500001
C47	C	1.343203	0.273798	-0.090158
C48	C	1.843203	0.773798	0.409842
C49	C	1.345437	0.180491	-0.090158
C50	C	1.845437	0.680491	0.409842
C51	C	1.338552	0.468280	-0.090151
C52	C	1.838552	0.968280	0.409849
C53	C	1.336321	0.561594	-0.090151
C54	C	1.836321	1.061594	0.409849
C55	C	1.336345	0.561584	0.090160
C56	C	1.836345	1.061584	0.590160
C57	C	1.338578	0.468277	0.090160
C58	C	1.838578	0.968277	0.590160
C59	C	1.339682	0.421628	0.000000
C60	C	1.839682	0.921628	0.500000
N61	N	1.340880	-0.128958	-0.235361
N62	N	1.840880	0.371042	0.264639
C63	C	1.409786	-0.183577	-0.287397
C64	C	1.909786	0.316423	0.212603
C65	C	1.409800	-0.183573	-0.391500
C66	C	1.909800	0.316427	0.108500
C67	C	1.340901	-0.128954	-0.443566
C68	C	1.840901	0.371046	0.056434
C69	C	1.271992	-0.074328	-0.391523
C70	C	1.771992	0.425672	0.108477
C71	C	1.271985	-0.074328	-0.287422
C72	C	1.771985	0.425672	0.212578
C73	C	1.272010	-0.074334	-0.608503
C74	C	1.772010	0.425666	-0.108503
C75	C	1.272015	-0.074336	-0.712612
C76	C	1.772015	0.425664	-0.212612
C77	C	1.409825	-0.183580	-0.712581
C78	C	1.909825	0.316420	-0.212581
C79	C	1.409818	-0.183579	-0.608480
C80	C	1.909818	0.316421	-0.108480
C81	C	1.340907	-0.128955	-0.556444
C82	C	1.840907	0.371045	-0.056444
N83	N	1.340921	-0.128955	0.235353
N84	N	1.840921	0.371045	0.735353
H85	H	1.346396	0.142504	0.163564
H86	H	1.846396	0.642504	0.663564
H87	H	1.342335	0.311772	0.163564
H88	H	1.842335	0.811772	0.663564
H89	H	1.346320	0.142509	-0.163569
H90	H	1.846320	0.642509	0.336431
H91	H	1.335392	0.599580	-0.163561
H92	H	1.835392	1.099580	0.336439
H93	H	1.342278	0.311794	-0.163561
H94	H	1.842278	0.811794	0.336439
H95	H	1.339505	0.430290	0.163569
H96	H	1.839505	0.930290	0.663569
H97	H	1.339426	0.430299	-0.163568
H98	H	1.839426	0.930299	0.336432
H99	H	1.465916	-0.228059	-0.566091
H100	H	1.965916	0.271941	-0.066091
H101	H	1.215897	-0.029852	-0.566139
H102	H	1.715897	0.470148	-0.066139
H103	H	1.335444	0.599569	0.163571
H104	H	1.835444	1.099569	0.663571
H105	H	1.465884	-0.228060	-0.245012
H106	H	1.965884	0.271940	0.254988
H107	H	1.465930	-0.228061	-0.754954
H108	H	1.965930	0.271939	-0.254954
H109	H	1.215911	-0.029861	-0.755001
H110	H	1.715911	0.470139	-0.255001
H111	H	1.465912	-0.228048	-0.433862
H112	H	1.965912	0.271952	0.066138
H113	H	1.215899	-0.029852	-0.433923
H114	H	1.715899	0.470148	0.066077
H115	H	1.215874	-0.029851	-0.245056
H116	H	1.715874	0.470149	0.254944
