data_functionalizedCrystal
_audit_creation_method	'MofGen! by Chris Wilmer'
_symmetry_space_group_name_H-M	'P1'
_symmetry_Int_Tables_number	1
_symmetry_cell_setting	triclinic
loop_
_symmetry_equiv_pos_as_xyz
  x,y,z
_cell_length_a	16.625548
_cell_length_b	29.839131
_cell_length_c	16.625539
_cell_angle_alpha	89.967906
_cell_angle_beta	89.979432
_cell_angle_gamma	90.042488
loop_
_atom_site_label
_atom_site_type_symbol
_atom_site_fract_x
_atom_site_fract_y
_atom_site_fract_z
Zn1	Zn	1.232574	-0.178840	-0.455888
Zn2	Zn	1.232433	-0.253971	-0.321046
Zn3	Zn	1.097736	-0.178857	-0.321069
Zn4	Zn	1.097662	-0.253945	-0.455836
O5	O	1.165101	-0.216403	-0.388460
O6	O	1.345388	-0.188810	-0.438013
O7	O	1.214537	-0.244025	-0.208217
O8	O	1.115713	-0.115987	-0.338984
O9	O	1.345284	-0.244008	-0.338946
O10	O	1.214778	-0.115975	-0.438035
O11	O	1.115576	-0.188839	-0.208233
O12	O	0.984894	-0.188814	-0.338933
O13	O	1.115586	-0.243964	-0.568676
O14	O	0.984839	-0.243981	-0.437947
O15	O	1.214706	-0.188785	-0.568714
O16	O	1.214465	-0.316834	-0.338896
O17	O	1.115449	-0.316815	-0.437925
C18	C	0.955610	-0.216397	-0.388437
C19	C	0.865989	-0.216405	-0.388447
C20	C	1.164956	-0.333126	-0.388420
C21	C	1.164967	-0.383060	-0.388430
C22	C	0.537814	-0.216408	-0.388481
C23	C	0.629122	-0.216406	-0.388469
C24	C	0.701899	-0.216406	-0.388463
C25	C	0.793213	-0.216404	-0.388452
C26	C	1.216752	-0.692701	-0.336971
C27	C	1.216852	-0.880374	-0.337002
O28	O	1.260766	-0.904636	-0.293219
N29	N	1.165268	-0.903845	-0.388521
C30	C	1.113660	-0.880395	-0.440039
O31	O	1.069793	-0.904665	-0.483866
C32	C	1.113565	-0.692723	-0.440011
C33	C	1.165146	-0.669254	-0.388483
C34	C	1.268330	-0.669232	-0.285447
C35	C	1.268302	-0.622316	-0.285437
C36	C	1.216695	-0.598870	-0.336950
C37	C	1.165118	-0.622339	-0.388473
C38	C	1.061962	-0.669274	-0.491533
C39	C	1.061944	-0.622353	-0.491523
C40	C	1.113525	-0.598884	-0.439995
C41	C	1.113483	-0.551977	-0.439975
N42	N	1.165067	-0.528505	-0.388456
C43	C	1.216673	-0.551952	-0.336944
C44	C	1.113712	-0.978926	-0.440049
C45	C	1.113735	-1.025844	-0.440055
C46	C	1.216928	-1.025819	-0.337019
C47	C	1.216901	-0.978900	-0.337009
C48	C	1.165296	-0.955455	-0.388530
C49	C	1.216609	-0.453426	-0.336925
C50	C	1.216573	-0.406506	-0.336917
C51	C	1.113383	-0.406535	-0.439956
C52	C	1.113416	-0.453451	-0.439962
C53	C	1.165035	-0.476895	-0.388443
O54	O	1.069599	-0.527685	-0.483742
O55	O	1.260546	-0.527674	-0.293136
C56	C	1.216781	-0.739616	-0.336981
C57	C	1.165203	-0.763085	-0.388504
C58	C	1.113597	-0.739639	-0.440017
C59	C	1.165226	-0.810003	-0.388510
C60	C	1.216832	-0.833449	-0.336997
C61	C	1.268416	-0.809978	-0.285479
C62	C	1.268387	-0.763062	-0.285468
C63	C	1.062014	-0.763110	-0.491536
C64	C	1.062046	-0.810026	-0.491541
C65	C	1.113652	-0.833472	-0.440028
C66	C	1.375410	-0.216410	-0.388483
C67	C	1.465031	-0.216413	-0.388493
C68	C	1.165154	-0.216370	-0.598769
C69	C	1.165176	-0.216355	-0.688390
C70	C	1.165269	-0.099225	-0.388518
C71	C	1.165341	-0.049290	-0.388542
C72	C	1.165213	-0.216305	-1.016566
C73	C	1.165201	-0.216320	-0.925257
C74	C	1.165195	-0.216330	-0.852481
C75	C	1.165182	-0.216345	-0.761167
C76	C	1.165095	-0.216404	-0.178969
C77	C	1.165229	-0.216292	-0.089348
H78	H	1.258577	-0.387399	-0.294954
H79	H	1.020035	-0.829130	-0.533501
O80	O	1.063613	-0.956204	-0.490207
C81	C	1.024401	-0.941815	-0.627324
C82	C	1.081181	-0.967579	-0.570616
H83	H	1.038595	-0.950995	-0.692347
H84	H	0.959388	-0.951096	-0.613163
H85	H	1.033220	-0.904251	-0.618439
H86	H	1.072434	-1.005149	-0.579469
H87	H	1.146172	-0.958261	-0.584791
O88	O	1.266773	-0.476126	-0.286802
C89	C	1.369147	-0.471137	-0.184630
C90	C	1.312370	-0.445374	-0.241343
H91	H	1.406039	-0.446285	-0.147873
H92	H	1.332205	-0.493127	-0.142382
H93	H	1.411272	-0.493076	-0.221696
H94	H	1.270234	-0.423410	-0.204342
H95	H	1.349363	-0.423412	-0.283592
H96	H	1.258903	-0.959794	-0.295051
H97	H	1.019955	-0.688375	-0.533489
O98	O	1.011887	-0.599509	-0.541545
C99	C	0.966071	-0.527243	-0.587169
C100	C	1.022814	-0.553056	-0.530496
H101	H	0.974874	-0.489681	-0.578243
H102	H	0.980203	-0.536403	-0.652216
H103	H	0.901077	-0.536541	-0.572962
H104	H	1.087827	-0.543772	-0.544630
H105	H	1.008613	-0.543894	-0.465465
O106	O	1.318597	-0.691939	-0.235443
C107	C	1.455807	-0.706191	-0.196476
C108	C	1.398957	-0.680453	-0.253154
H109	H	1.520790	-0.696922	-0.210786
H110	H	1.441747	-0.696975	-0.131438
H111	H	1.446965	-0.743759	-0.205281
H112	H	1.407767	-0.642879	-0.244420
H113	H	1.413030	-0.689706	-0.318171
H114	H	1.019991	-0.744024	-0.533485
O115	O	1.267192	-1.048605	-0.287121
C116	C	1.376124	-1.101502	-0.276493
C117	C	1.319232	-1.075722	-0.333067
H118	H	1.418201	-1.123439	-0.313617
H119	H	1.413053	-1.076676	-0.239714
H120	H	1.339189	-1.123498	-0.234253
H121	H	1.356105	-1.053725	-0.375356
H122	H	1.282300	-1.100572	-0.369790
O123	O	1.318377	-0.599572	-0.235278
C124	C	1.357577	-0.585236	-0.098157
C125	C	1.300821	-0.611024	-0.154871
H126	H	1.343392	-0.594478	-0.033136
H127	H	1.422598	-0.594433	-0.112322
H128	H	1.348721	-0.547676	-0.107032
H129	H	1.309605	-0.648590	-0.146028
H130	H	1.235821	-0.601790	-0.140693
H131	H	1.310389	-0.743957	-0.243509
O132	O	1.063736	-1.048688	-0.490144
C133	C	1.052854	-1.101598	-0.599047
C134	C	1.109565	-1.075766	-0.542352
H135	H	1.089885	-1.123490	-0.641283
H136	H	1.010733	-1.123632	-0.562043
H137	H	1.015953	-1.076768	-0.635824
H138	H	1.146518	-1.100565	-0.505563
H139	H	1.151633	-1.053726	-0.579402
H140	H	1.071417	-0.472560	-0.481922
H141	H	1.071364	-0.387438	-0.481895
H142	H	1.310433	-0.829076	-0.243533
