data_functionalizedCrystal
_audit_creation_method	'MofGen! by Chris Wilmer'
_symmetry_space_group_name_H-M	'P1'
_symmetry_Int_Tables_number	1
_symmetry_cell_setting	triclinic
loop_
_symmetry_equiv_pos_as_xyz
  x,y,z
_cell_length_a	21.295417
_cell_length_b	18.215407
_cell_length_c	21.295411
_cell_angle_alpha	90.024685
_cell_angle_beta	89.978356
_cell_angle_gamma	89.969045
loop_
_atom_site_label
_atom_site_type_symbol
_atom_site_fract_x
_atom_site_fract_y
_atom_site_fract_z
Zn1	Zn	-0.250673	-1.125078	-0.355914
Zn2	Zn	-0.355925	-1.124964	-0.250639
Zn3	Zn	-0.250675	-1.002001	-0.250658
Zn4	Zn	-0.355910	-1.001965	-0.355870
O5	O	-0.303296	-1.063502	-0.303270
O6	O	-0.264641	-1.228048	-0.341959
O7	O	-0.341971	-1.108620	-0.162552
O8	O	-0.162585	-1.018390	-0.264647
O9	O	-0.341969	-1.227964	-0.264614
O10	O	-0.162584	-1.108815	-0.341977
O11	O	-0.264644	-1.018279	-0.162566
O12	O	-0.264628	-0.899012	-0.264605
O13	O	-0.341943	-1.018329	-0.443966
O14	O	-0.341944	-0.898985	-0.341904
O15	O	-0.264626	-1.108780	-0.443997
O16	O	-0.444013	-1.108585	-0.264572
O17	O	-0.444001	-1.018218	-0.341885
C18	C	-0.466847	-1.063406	-0.303235
C19	C	-0.536815	-1.063432	-0.303242
C20	C	-0.303282	-1.063563	-0.467461
C21	C	-0.303277	-1.063589	-0.537429
C22	C	-0.303285	-0.872296	-0.303252
C23	C	-0.303295	-0.790497	-0.303259
C24	C	-0.569667	-1.110528	-0.263026
C25	C	-0.635410	-1.110562	-0.263040
C26	C	-0.668298	-1.063487	-0.303263
C27	C	-0.635438	-1.016388	-0.343487
C28	C	-0.569697	-1.016360	-0.343476
N29	N	-0.771565	-0.999109	-0.308056
N30	N	-0.834016	-0.999138	-0.308063
C31	C	-0.866373	-1.063570	-0.303299
N32	N	-0.833918	-1.127974	-0.298517
N33	N	-0.771461	-1.127944	-0.298507
C34	C	-0.739583	-1.063513	-0.303280
C35	C	-0.970510	-1.110707	-0.263097
C36	C	-1.036254	-1.110743	-0.263115
C37	C	-1.036281	-1.016562	-0.343559
C38	C	-0.970538	-1.016533	-0.343544
C39	C	-0.937657	-1.063605	-0.303309
C40	C	-0.139105	-1.063619	-0.303319
C41	C	-0.069137	-1.063669	-0.303340
C42	C	-0.303307	-1.255455	-0.303289
C43	C	-0.303312	-1.337254	-0.303297
C44	C	-0.343617	-0.602308	-0.343458
C45	C	-0.343619	-0.525450	-0.343466
C46	C	-0.262986	-0.525448	-0.263096
C47	C	-0.262981	-0.602305	-0.263092
C48	C	-0.303300	-0.640733	-0.303272
C49	C	-0.303307	-0.487017	-0.303284
C50	C	-0.303309	-0.403684	-0.303292
C51	C	-0.303298	-0.724072	-0.303265
C52	C	-0.263016	-1.110685	-0.570313
C53	C	-0.262989	-1.110684	-0.636055
C54	C	-0.303233	-1.063595	-0.668911
C55	C	-0.343497	-1.016490	-0.636019
C56	C	-0.343518	-1.016487	-0.570278
N57	N	-0.358301	-1.057917	-0.772127
N58	N	-0.358279	-1.057924	-0.834578
C59	C	-0.303170	-1.063599	-0.866986
N60	N	-0.248082	-1.069282	-0.834583
N61	N	-0.248105	-1.069279	-0.772126
C62	C	-0.303214	-1.063592	-0.740197
C63	C	-0.262876	-1.110697	-0.971156
C64	C	-0.262848	-1.110691	-1.036900
C65	C	-0.343361	-1.016500	-1.036862
C66	C	-0.343384	-1.016503	-0.971120
C67	C	-0.303142	-1.063605	-0.938270
C68	C	-0.303264	-1.063484	-0.139719
C69	C	-0.303092	-1.063600	-0.069751
H70	H	-0.542897	-1.148858	-0.230266
Br71	Br	-0.398110	-0.952577	-0.680607
Br72	Br	-0.680070	-0.952506	-0.398081
Br73	Br	-0.398334	-0.473304	-0.398010
Br74	Br	-0.208270	-0.473290	-0.208568
Br75	Br	-0.680004	-1.174483	-0.208458
Br76	Br	-0.208255	-0.654458	-0.208555
Br77	Br	-0.208400	-1.174606	-0.525735
Br78	Br	-0.398161	-0.952565	-0.525646
H79	H	-0.230105	-1.149046	-0.944409
H80	H	-0.230201	-1.149033	-0.662835
H81	H	-0.230059	-1.149041	-1.063673
Br82	Br	-0.397972	-0.952583	-1.081445
H83	H	-0.943737	-1.149038	-0.230337
Br84	Br	-0.525109	-0.952440	-0.398060
Br85	Br	-1.080840	-1.174673	-0.208538
Br86	Br	-0.925951	-0.952612	-0.398124
Br87	Br	-1.080908	-0.952681	-0.398155
Br88	Br	-0.398334	-0.654459	-0.397990
Br89	Br	-0.398027	-0.952584	-0.926488
