data_functionalizedCrystal
_audit_creation_method	'MofGen! by Chris Wilmer'
_symmetry_space_group_name_H-M	'P1'
_symmetry_Int_Tables_number	1
_symmetry_cell_setting	triclinic
loop_
_symmetry_equiv_pos_as_xyz
  x,y,z
_cell_length_a	16.120530
_cell_length_b	14.908520
_cell_length_c	14.908858
_cell_angle_alpha	90.221996
_cell_angle_beta	90.214265
_cell_angle_gamma	89.416769
loop_
_atom_site_label
_atom_site_type_symbol
_atom_site_fract_x
_atom_site_fract_y
_atom_site_fract_z
Zn1	Zn	1.221700	0.391656	-0.599643
Zn2	Zn	1.555034	0.724989	-0.266310
Zn3	Zn	1.888367	1.058322	0.067023
Zn4	Zn	1.220680	0.550657	-0.457898
Zn5	Zn	1.554013	0.883990	-0.124564
Zn6	Zn	1.887347	1.217324	0.208769
Zn7	Zn	1.090598	0.393603	-0.441726
Zn8	Zn	1.423931	0.726937	-0.108392
Zn9	Zn	1.757265	1.060270	0.224941
Zn10	Zn	1.074632	0.534386	-0.599767
Zn11	Zn	1.407966	0.867719	-0.266433
Zn12	Zn	1.741299	1.201052	0.066900
O13	O	1.151903	0.467575	-0.524758
O14	O	1.485236	0.800909	-0.191425
O15	O	1.818569	1.134242	0.141908
O16	O	1.337553	0.418742	-0.587557
O17	O	1.670886	0.752076	-0.254223
O18	O	2.004220	1.085409	0.079110
O19	O	1.209679	0.537448	-0.330291
O20	O	1.543012	0.870782	0.003043
O21	O	1.876346	1.204115	0.336376
O22	O	1.115098	0.267884	-0.455854
O23	O	1.448431	0.601218	-0.122521
O24	O	1.781764	0.934551	0.210812
O25	O	1.336803	0.535560	-0.483417
O26	O	1.670137	0.868893	-0.150083
O27	O	2.003470	1.202227	0.183250
O28	O	1.211418	0.266454	-0.571876
O29	O	1.544751	0.599787	-0.238542
O30	O	1.878085	0.933120	0.094791
O31	O	1.114108	0.422061	-0.318409
O32	O	1.447442	0.755395	0.014924
O33	O	1.780775	1.088728	0.348257
O34	O	0.972492	0.406284	-0.455974
O35	O	1.305825	0.739617	-0.122641
O36	O	1.639159	1.072950	0.210693
O37	O	1.087887	0.507827	-0.725212
O38	O	1.421220	0.841161	-0.391879
O39	O	1.754553	1.174494	-0.058545
O40	O	0.960762	0.509716	-0.572086
O41	O	1.294096	0.843049	-0.238753
O42	O	1.627429	1.176382	0.094581
O43	O	1.195937	0.402964	-0.725121
O44	O	1.529270	0.736298	-0.391788
O45	O	1.862603	1.069631	-0.058455
O46	O	1.194198	0.673959	-0.483537
O47	O	1.527531	1.007292	-0.150203
O48	O	1.860864	1.340626	0.183130
O49	O	1.086897	0.662004	-0.587767
O50	O	1.420231	0.995338	-0.254434
O51	O	1.753564	1.328671	0.078899
C52	C	1.138726	0.700512	-0.537441
C53	C	1.472059	1.033846	-0.204108
C54	C	1.805393	1.367179	0.129226
C55	C	1.133163	0.800166	-0.542901
C56	C	1.466496	1.133499	-0.209568
C57	C	1.799830	1.466832	0.123766
C58	C	0.936553	0.456446	-0.512289
C59	C	1.269886	0.789779	-0.178956
C60	C	1.603219	1.123113	0.154378
C61	C	0.844423	0.451705	-0.506977
C62	C	1.177756	0.785038	-0.173644
C63	C	1.511089	1.118372	0.159689
C64	C	1.140245	0.453364	-0.758607
C65	C	1.473578	0.786697	-0.425274
C66	C	1.806911	1.120030	-0.091941
C67	C	1.135277	0.447308	-0.858260
C68	C	1.468610	0.780641	-0.524926
C69	C	1.801943	1.113974	-0.191593
C70	C	0.675740	0.443028	-0.497286
C71	C	1.009074	0.776361	-0.163952
C72	C	1.342407	1.109695	0.169381
C73	C	0.628899	0.492185	-0.552300
C74	C	0.962232	0.825518	-0.218967
C75	C	1.295565	1.158852	0.114366
C76	C	0.535038	0.487357	-0.546908
C77	C	0.868371	0.820690	-0.213574
C78	C	1.201705	1.154024	0.119759
C79	C	0.769610	0.447855	-0.502677
C80	C	1.102943	0.781188	-0.169343
C81	C	1.436276	1.114521	0.163990
C82	C	1.368094	0.478749	-0.537277
C83	C	1.701427	0.812082	-0.203944
C84	C	2.034760	1.145416	0.129390
C85	C	1.460221	0.483510	-0.542611
C86	C	1.793555	0.816844	-0.209278
C87	C	2.126888	1.150177	0.124055
C88	C	1.165152	0.233729	-0.512047
C89	C	1.498486	0.567062	-0.178714
C90	C	1.831819	0.900396	0.154619
C91	C	1.170799	0.134077	-0.506630
C92	C	1.504132	0.467411	-0.173297
C93	C	1.837465	0.800744	0.160036
C94	C	1.234546	0.999812	-0.444724
C95	C	1.567880	1.333146	-0.111391
C96	C	1.901213	1.666479	0.221942
C97	C	1.229323	1.093446	-0.449852
C98	C	1.562656	1.426779	-0.116518
C99	C	1.895989	1.760113	0.216815
C100	C	1.117496	1.081068	-0.558288
C101	C	1.450830	1.414402	-0.224954
C102	C	1.784163	1.747735	0.108379
C103	C	1.122720	0.987435	-0.553160
C104	C	1.456053	1.320768	-0.219827
C105	C	1.789387	1.654101	0.113507
C106	C	1.181246	0.946810	-0.496376
C107	C	1.514580	1.280144	-0.163042
C108	C	1.847913	1.613477	0.170291
C109	C	1.186466	0.853175	-0.491244
C110	C	1.519799	1.186508	-0.157911
C111	C	1.853132	1.519842	0.175423
C112	C	1.074644	0.840799	-0.599684
C113	C	1.407977	1.174132	-0.266351
C114	C	1.741310	1.507466	0.066983
C115	C	1.069420	0.934432	-0.604811
C116	C	1.402753	1.267766	-0.271478
C117	C	1.736087	1.601099	0.061855
C118	C	1.078522	0.378698	-0.992529
C119	C	1.411855	0.712032	-0.659196
C120	C	1.745189	1.045365	-0.325862
C121	C	1.083187	0.384387	-0.898896
C122	C	1.416520	0.717720	-0.565563
C123	C	1.749853	1.051054	-0.232230
C124	C	1.182707	0.504542	-0.911263
C125	C	1.516041	0.837875	-0.577929
C126	C	1.849374	1.171209	-0.244596
C127	C	1.178043	0.498854	-1.004895
C128	C	1.511376	0.832187	-0.671562
C129	C	1.844709	1.165520	-0.338228
C130	C	1.125947	0.435931	-1.045525
C131	C	1.459281	0.769264	-0.712192
C132	C	1.792614	1.102597	-0.378858
C133	C	1.121279	0.430247	-1.139159
C134	C	1.454612	0.763580	-0.805826
C135	C	1.787945	1.096914	-0.472493
C136	C	1.220803	0.550397	-1.151524
C137	C	1.554137	0.883730	-0.818190
C138	C	1.887470	1.217064	-0.484857
C139	C	1.225468	0.556086	-1.057891
C140	C	1.558801	0.889419	-0.724558
C141	C	1.892135	1.222752	-0.391224
C142	C	1.163567	0.481670	-0.291819
C143	C	1.496900	0.815003	0.041515
C144	C	1.830233	1.148336	0.374848
C145	C	1.168709	0.487481	-0.192162
C146	C	1.502043	0.820815	0.141171
C147	C	1.835376	1.154148	0.474505
H148	H	0.659288	0.537894	-0.603451
H149	H	0.992621	0.871228	-0.270118
H150	H	1.325955	1.204561	0.063216
H151	H	0.645353	0.397322	-0.446140
H152	H	0.978686	0.730655	-0.112806
H153	H	1.312019	1.063988	0.220527
H154	H	1.282195	0.966736	-0.398482
H155	H	1.615529	1.300069	-0.065148
H156	H	1.948862	1.633402	0.268185
Br157	Br	1.265887	0.798042	-0.414175
Br158	Br	1.599221	1.131375	-0.080841
Br159	Br	1.932554	1.464708	0.252492
H160	H	1.267885	0.607313	-1.024797
H161	H	1.601218	0.940647	-0.691464
H162	H	1.934551	1.273980	-0.358131
Br163	Br	1.301665	1.165376	-0.379756
Br164	Br	1.634999	1.498709	-0.046422
Br165	Br	1.968332	1.832043	0.286911
H166	H	1.069852	1.114161	-0.604525
H167	H	1.403186	1.447495	-0.271191
H168	H	1.736519	1.780828	0.062142
Br169	Br	0.990000	0.989574	-0.681877
Br170	Br	1.323334	1.322907	-0.348544
Br171	Br	1.656667	1.656240	-0.015211
H172	H	1.031241	0.797633	-0.641739
H173	H	1.364574	1.130967	-0.308406
H174	H	1.697907	1.464300	0.024928
H175	H	1.225127	0.555765	-0.878165
H176	H	1.558460	0.889098	-0.544832
H177	H	1.891793	1.222432	-0.211499
H178	H	1.078859	0.379012	-1.172238
H179	H	1.412193	0.712346	-0.838905
H180	H	1.745526	1.045679	-0.505572
H181	H	1.036101	0.327467	-1.025610
H182	H	1.369434	0.660801	-0.692277
H183	H	1.702767	0.994134	-0.358944
H184	H	1.259425	0.596996	-1.194683
H185	H	1.592758	0.930329	-0.861350
H186	H	1.926091	1.263662	-0.528017
Br187	Br	1.018826	0.306707	-0.826975
Br188	Br	1.352159	0.640041	-0.493641
Br189	Br	1.685492	0.973374	-0.160308
