data_functionalizedCrystal
_audit_creation_method	'MofGen! by Chris Wilmer'
_symmetry_space_group_name_H-M	'P1'
_symmetry_Int_Tables_number	1
_symmetry_cell_setting	triclinic
loop_
_symmetry_equiv_pos_as_xyz
  x,y,z
_cell_length_a	12.759395
_cell_length_b	29.839131
_cell_length_c	12.759387
_cell_angle_alpha	90.044910
_cell_angle_beta	90.020509
_cell_angle_gamma	90.036766
loop_
_atom_site_label
_atom_site_type_symbol
_atom_site_fract_x
_atom_site_fract_y
_atom_site_fract_z
Zn1	Zn	1.606119	-0.178811	0.593902
Zn2	Zn	1.605946	-0.253949	0.418179
Zn3	Zn	1.430417	-0.178836	0.418239
Zn4	Zn	1.430346	-0.253917	0.593818
O5	O	1.518207	-0.216378	0.506035
O6	O	1.753117	-0.188782	0.570602
O7	O	1.582620	-0.244009	0.271166
O8	O	1.453826	-0.115965	0.441601
O9	O	1.752990	-0.243985	0.441499
O10	O	1.582913	-0.115947	0.570660
O11	O	1.453659	-0.188823	0.271210
O12	O	1.283387	-0.188792	0.441520
O13	O	1.453706	-0.243930	0.740851
O14	O	1.283335	-0.243954	0.570517
O15	O	1.582845	-0.188751	0.740912
O16	O	1.582551	-0.316812	0.441418
O17	O	1.453538	-0.316788	0.570459
C18	C	1.245240	-0.216373	0.506017
C19	C	1.128463	-0.216381	0.506034
C20	C	1.518047	-0.333101	0.505946
C21	C	1.518075	-0.383035	0.505943
C22	C	1.128447	-0.273914	0.640141
C23	C	1.073579	-0.302684	0.707198
C24	C	0.963857	-0.302690	0.707211
C25	C	0.909002	-0.273921	0.640162
C26	C	0.963870	-0.245151	0.573105
C27	C	1.073594	-0.245150	0.573097
C28	C	0.963886	-0.187617	0.439005
C29	C	1.073607	-0.187613	0.438985
C30	C	0.909030	-0.158848	0.371956
C31	C	0.963899	-0.130079	0.304892
C32	C	1.073627	-0.130076	0.304881
C33	C	1.128476	-0.158843	0.371928
C34	C	1.585408	-0.692634	0.573331
C35	C	1.585522	-0.880307	0.573394
O36	O	1.642615	-0.904535	0.630624
N37	N	1.518386	-0.903820	0.506151
C38	C	1.451211	-0.880412	0.438892
O39	O	1.394102	-0.904717	0.381707
C40	C	1.451092	-0.692740	0.438835
C41	C	1.518241	-0.669229	0.506075
C42	C	1.652551	-0.669124	0.640567
C43	C	1.652526	-0.622208	0.640546
C44	C	1.585358	-0.598803	0.573290
C45	C	1.518216	-0.622314	0.506055
C46	C	1.383913	-0.669332	0.371582
C47	C	1.383887	-0.622411	0.371576
C48	C	1.451036	-0.598901	0.438816
C49	C	1.451023	-0.551994	0.438778
N50	N	1.518160	-0.528481	0.506022
C51	C	1.585327	-0.551886	0.573278
C52	C	1.451279	-0.978943	0.438925
C53	C	1.451310	-1.025860	0.438938
C54	C	1.585620	-1.025753	0.573442
C55	C	1.585594	-0.978834	0.573423
C56	C	1.518416	-0.955430	0.506169
C57	C	1.585270	-0.453360	0.573229
C58	C	1.585242	-0.406440	0.573199
C59	C	1.450928	-0.406552	0.438700
C60	C	1.450959	-0.453468	0.438725
C61	C	1.518134	-0.476870	0.505998
O62	O	1.393952	-0.527737	0.381587
O63	O	1.642411	-0.527572	0.630471
C64	C	1.585433	-0.739550	0.573352
C65	C	1.518291	-0.763060	0.506116
C66	C	1.451124	-0.739655	0.438860
C67	C	1.518322	-0.809978	0.506129
C68	C	1.585489	-0.833383	0.573385
C69	C	1.652626	-0.809870	0.640628
C70	C	1.652601	-0.762955	0.640608
C71	C	1.383987	-0.763168	0.371617
C72	C	1.384018	-0.810084	0.371642
C73	C	1.451186	-0.833489	0.438898
C74	C	1.792241	-0.216384	0.506053
C75	C	1.909017	-0.216387	0.506061
C76	C	1.518287	-0.216334	0.780068
C77	C	1.518320	-0.216315	0.896845
C78	C	1.518397	-0.099200	0.506147
C79	C	1.518477	-0.049265	0.506194
C80	C	1.518189	-0.216390	0.233067
C81	C	1.518358	-0.216282	0.116291
C82	C	1.652802	-0.158860	0.896929
C83	C	1.720058	-0.130126	0.951832
C84	C	1.720083	-0.130110	1.061553
C85	C	1.652844	-0.158830	1.116375
C86	C	1.585588	-0.187564	1.061472
C87	C	1.585572	-0.187578	0.951748
C88	C	1.451103	-0.245016	1.061388
C89	C	1.451081	-0.245035	0.951667
C90	C	1.383863	-0.273736	1.116210
C91	C	1.316612	-0.302473	1.061307
C92	C	1.316590	-0.302489	0.951579
C93	C	1.383825	-0.273770	0.896764
H94	H	1.118254	-0.326106	0.761790
N95	N	1.792604	-0.099162	0.892705
H96	H	1.782398	-0.103536	0.814865
H97	H	1.867617	-0.106170	0.911907
H98	H	0.819689	-0.158852	0.371975
H99	H	1.217817	-0.158843	0.371923
H100	H	1.639926	-0.387299	0.627954
H101	H	1.640272	-0.959694	0.628177
N102	N	1.652779	-0.158864	0.778587
H103	H	1.580717	-0.150601	0.752164
H104	H	1.672071	-0.189691	0.752186
H105	H	1.707246	-0.688175	0.695341
N106	N	1.657709	-0.478597	0.645797
H107	H	1.700232	-0.456578	0.688384
H108	H	1.706370	-0.498065	0.603094
H109	H	1.707279	-0.743816	0.695361
N110	N	1.311587	-0.835441	0.299119
H111	H	1.354309	-0.854912	0.250471
H112	H	1.269047	-0.813463	0.256585
H113	H	1.329179	-0.603358	0.316810
N114	N	1.658033	-1.051010	0.646000
H115	H	1.641646	-1.042823	0.721044
H116	H	1.733090	-1.042825	0.629692
N117	N	0.904730	-0.099059	0.232575
H118	H	0.923868	-0.066966	0.249033
H119	H	0.826918	-0.103468	0.242801
N120	N	1.724942	-0.596854	0.713078
H121	H	1.767487	-0.618806	0.755685
H122	H	1.682135	-0.577387	0.761656
N123	N	1.132794	-0.099039	0.232559
H124	H	1.113652	-0.105974	0.157460
H125	H	1.210609	-0.103412	0.242806
N126	N	1.378902	-1.051216	0.366399
H127	H	1.336350	-1.029265	0.323796
H128	H	1.330268	-1.070685	0.409123
H129	H	1.396573	-0.959890	0.384156
N130	N	1.792611	-0.099115	1.120778
H131	H	1.835200	-0.080922	1.069405
H132	H	1.841206	-0.117399	1.166292
H133	H	0.919184	-0.326114	0.761820
N134	N	1.244101	-0.333443	1.120449
H135	H	1.260352	-0.365547	1.101338
H136	H	1.169071	-0.326426	1.101328
N137	N	1.383785	-0.273790	0.778422
H138	H	1.455832	-0.282058	0.751984
H139	H	1.364478	-0.242968	0.752108
H140	H	1.652862	-0.158810	1.205716
N141	N	1.311489	-0.694683	0.299056
H142	H	1.268937	-0.672730	0.256459
H143	H	1.262855	-0.714150	0.341785
H144	H	1.396290	-0.472611	0.383964
H145	H	1.261810	-0.325883	0.906883
N146	N	1.378492	-0.381304	0.366155
H147	H	1.388669	-0.348015	0.376354
H148	H	1.303453	-0.389524	0.382446
H149	H	1.329289	-0.744116	0.316850
N150	N	1.246789	-0.273914	0.640113
H151	H	1.273214	-0.296504	0.692757
H152	H	1.273192	-0.243091	0.659539
H153	H	1.383885	-0.273719	1.205551
H154	H	0.819661	-0.273924	0.640188
H155	H	1.707320	-0.828935	0.695387
