data_functionalizedCrystal
_audit_creation_method	'MofGen! by Chris Wilmer'
_symmetry_space_group_name_H-M	'P1'
_symmetry_Int_Tables_number	1
_symmetry_cell_setting	triclinic
loop_
_symmetry_equiv_pos_as_xyz
  x,y,z
_cell_length_a	16.120530
_cell_length_b	12.759399
_cell_length_c	12.759393
_cell_angle_alpha	89.969094
_cell_angle_beta	92.920001
_cell_angle_gamma	92.889229
loop_
_atom_site_label
_atom_site_type_symbol
_atom_site_fract_x
_atom_site_fract_y
_atom_site_fract_z
Zn1	Zn	1.274633	0.499768	0.675423
Zn2	Zn	1.607966	0.833101	1.008756
Zn3	Zn	1.941300	1.166435	1.342089
Zn4	Zn	1.274545	0.675478	0.499736
Zn5	Zn	1.607879	1.008811	0.833069
Zn6	Zn	1.941212	1.342145	1.166403
Zn7	Zn	1.135207	0.490899	0.490853
Zn8	Zn	1.468540	0.824232	0.824187
Zn9	Zn	1.801874	1.157565	1.157520
Zn10	Zn	1.135200	0.666484	0.666474
Zn11	Zn	1.468533	0.999818	0.999807
Zn12	Zn	1.801866	1.333151	1.333140
O13	O	1.204896	0.583157	0.583121
O14	O	1.538230	0.916490	0.916455
O15	O	1.871563	1.249824	1.249788
O16	O	1.391288	0.530552	0.659580
O17	O	1.724622	0.863885	0.992913
O18	O	2.057955	1.197219	1.326247
O19	O	1.256028	0.651045	0.351534
O20	O	1.589362	0.984378	0.684868
O21	O	1.922695	1.317712	1.018201
O22	O	1.153742	0.345057	0.515364
O23	O	1.487075	0.678390	0.848698
O24	O	1.820409	1.011723	1.182031
O25	O	1.391224	0.659645	0.530504
O26	O	1.724557	0.992979	0.863837
O27	O	2.057891	1.326312	1.197170
O28	O	1.256177	0.351573	0.650967
O29	O	1.589511	0.684906	0.984300
O30	O	1.922844	1.018240	1.317633
O31	O	1.153657	0.515435	0.345008
O32	O	1.486990	0.848769	0.678342
O33	O	1.820324	1.182102	1.011675
O34	O	1.018539	0.506715	0.506687
O35	O	1.351872	0.840048	0.840020
O36	O	1.685206	1.173381	1.173354
O37	O	1.153729	0.644317	0.814684
O38	O	1.487063	0.977650	1.148017
O39	O	1.820396	1.310984	1.481351
O40	O	1.018534	0.635717	0.635715
O41	O	1.351867	0.969050	0.969048
O42	O	1.685200	1.302383	1.302381
O43	O	1.256170	0.521831	0.821259
O44	O	1.589504	0.855165	1.154592
O45	O	1.922837	1.188498	1.487925
O46	O	1.256021	0.821303	0.521826
O47	O	1.589355	1.154637	0.855160
O48	O	1.922688	1.487970	1.188493
O49	O	1.153644	0.814696	0.644328
O50	O	1.486978	1.148029	0.977661
O51	O	1.820311	1.481362	1.310994
C52	C	1.204845	0.856121	0.583094
C53	C	1.538179	1.189455	0.916427
C54	C	1.871512	1.522788	1.249761
C55	C	1.204900	0.972901	0.583123
C56	C	1.538233	1.306235	0.916456
C57	C	1.871566	1.639568	1.249789
C58	C	0.988286	0.569278	0.569266
C59	C	1.321619	0.902611	0.902600
C60	C	1.654953	1.235945	1.235933
C61	C	0.895619	0.563366	0.563364
C62	C	1.228952	0.896699	0.896698
C63	C	1.562286	1.230033	1.230031
C64	C	1.204959	0.583060	0.857159
C65	C	1.538292	0.916394	1.190492
C66	C	1.871625	1.249727	1.523825
C67	C	1.204985	0.583019	0.973937
C68	C	1.538319	0.916352	1.307271
C69	C	1.871652	1.249686	1.640604
C70	C	0.725956	0.552547	0.552597
C71	C	1.059289	0.885880	0.885931
C72	C	1.392622	1.219214	1.219264
C73	C	0.684677	0.613845	0.613722
C74	C	1.018011	0.947178	0.947055
C75	C	1.351344	1.280511	1.280389
C76	C	0.590271	0.607825	0.607731
C77	C	0.923604	0.941158	0.941065
C78	C	1.256937	1.274492	1.274398
C79	C	0.820371	0.558565	0.558587
C80	C	1.153704	0.891899	0.891920
C81	C	1.487037	1.225232	1.225253
C82	C	1.422352	0.597091	0.597031
C83	C	1.755686	0.930425	0.930364
C84	C	2.089019	1.263758	1.263698
C85	C	1.515019	0.603029	0.602958
C86	C	1.848353	0.936362	0.936292
C87	C	2.181686	1.269696	1.269625
C88	C	1.204970	0.309129	0.583173
C89	C	1.538304	0.642462	0.916506
C90	C	1.871637	0.975795	1.249840
C91	C	1.205002	0.192354	0.583195
C92	C	1.538335	0.525687	0.916528
C93	C	1.871668	0.859021	1.249862
C94	C	1.258268	1.031173	0.519416
C95	C	1.591601	1.364506	0.852750
C96	C	1.924935	1.697839	1.186083
C97	C	1.258322	1.140900	0.519455
C98	C	1.591655	1.474234	0.852788
C99	C	1.924988	1.807567	1.186122
C100	C	1.151631	1.134075	0.646909
C101	C	1.484964	1.467408	0.980242
C102	C	1.818298	1.800741	1.313575
C103	C	1.151582	1.024349	0.646875
C104	C	1.484916	1.357683	0.980208
C105	C	1.818249	1.691016	1.313541
C106	C	1.204882	0.583181	0.310153
C107	C	1.538215	0.916514	0.643486
C108	C	1.871549	1.249848	0.976820
C109	C	1.205017	0.582937	0.193386
C110	C	1.538350	0.916270	0.526719
C111	C	1.871684	1.249603	0.860052
C112	C	1.258330	0.519230	1.032225
C113	C	1.591664	0.852563	1.365558
C114	C	1.924997	1.185897	1.698891
C115	C	1.258344	0.519186	1.141950
C116	C	1.591678	0.852519	1.475283
C117	C	1.925011	1.185852	1.808616
C118	C	1.151666	0.646728	1.135090
C119	C	1.484999	0.980061	1.468423
C120	C	1.818333	1.313395	1.801757
C121	C	1.151648	0.646766	1.025367
C122	C	1.484982	0.980099	1.358700
C123	C	1.818315	1.313433	1.692033
H124	H	0.690396	0.495553	0.495772
H125	H	1.023729	0.828887	0.829105
H126	H	1.357063	1.162220	1.162438
H127	H	1.108123	0.976901	0.698757
H128	H	1.441457	1.310235	1.032090
H129	H	1.774790	1.643568	1.365424
O130	O	1.315885	0.450392	1.204821
O131	O	1.649218	0.783725	1.538155
O132	O	1.982552	1.117059	1.871488
H133	H	1.352972	0.406081	1.150622
H134	H	1.686306	0.739414	1.483955
H135	H	2.019639	1.072747	1.817288
H136	H	1.108221	1.175977	0.698812
H137	H	1.441554	1.509310	1.032145
H138	H	1.774887	1.842644	1.365478
O139	O	1.094083	0.715548	0.962502
O140	O	1.427416	1.048881	1.295835
O141	O	1.760750	1.382215	1.629169
H142	H	1.108344	0.798921	0.984442
H143	H	1.441678	1.132254	1.317776
H144	H	1.775011	1.465588	1.651109
O145	O	1.315781	0.975677	0.450672
O146	O	1.649114	1.309011	0.784006
O147	O	1.982448	1.642344	1.117339
H148	H	1.352907	1.034637	0.406389
H149	H	1.686240	1.367970	0.739723
H150	H	2.019573	1.701303	1.073056
H151	H	1.301758	0.467320	0.990354
H152	H	1.635092	0.800653	1.323687
H153	H	1.968425	1.133987	1.657021
O154	O	1.315878	1.203754	0.450738
O155	O	1.649211	1.537087	0.784071
O156	O	1.982545	1.870421	1.117404
H157	H	1.352937	1.149541	0.406398
H158	H	1.686270	1.482874	0.739731
H159	H	2.019604	1.816207	1.073065
O160	O	0.731778	0.689354	0.688995
O161	O	1.065111	1.022688	1.022328
O162	O	1.398445	1.356021	1.355662
H163	H	0.715170	0.670394	0.770452
H164	H	1.048504	1.003728	1.103785
H165	H	1.381837	1.337061	1.437118
O166	O	1.094141	0.715484	1.190559
O167	O	1.427474	1.048818	1.523892
O168	O	1.760808	1.382151	1.857226
H169	H	1.103118	0.704749	1.276650
H170	H	1.436452	1.038082	1.609983
H171	H	1.769785	1.371415	1.943316
