data_functionalizedCrystal
_audit_creation_method	'MofGen! by Chris Wilmer'
_symmetry_space_group_name_H-M	'P1'
_symmetry_Int_Tables_number	1
_symmetry_cell_setting	triclinic
loop_
_symmetry_equiv_pos_as_xyz
  x,y,z
_cell_length_a	21.395364
_cell_length_b	25.639240
_cell_length_c	25.639234
_cell_angle_alpha	90.032088
_cell_angle_beta	90.020766
_cell_angle_gamma	90.031090
loop_
_atom_site_label
_atom_site_type_symbol
_atom_site_fract_x
_atom_site_fract_y
_atom_site_fract_z
Zn1	Zn	0.957826	-0.208206	0.295596
Zn2	Zn	1.291159	0.125127	0.628930
Zn3	Zn	1.624492	0.458461	0.962263
Zn4	Zn	0.957732	-0.295634	0.208150
Zn5	Zn	1.291065	0.037699	0.541483
Zn6	Zn	1.624398	0.371033	0.874816
Zn7	Zn	0.853048	-0.208212	0.208174
Zn8	Zn	1.186381	0.125121	0.541507
Zn9	Zn	1.519715	0.458455	0.874840
Zn10	Zn	0.853006	-0.295610	0.295553
Zn11	Zn	1.186339	0.037724	0.628886
Zn12	Zn	1.519673	0.371057	0.962219
O13	O	0.905403	-0.251915	0.251868
O14	O	1.238736	0.081418	0.585201
O15	O	1.572069	0.414751	0.918535
O16	O	1.045491	-0.219811	0.284005
O17	O	1.378824	0.113522	0.617338
O18	O	1.712158	0.446856	0.950671
O19	O	0.943823	-0.284050	0.134988
O20	O	1.277157	0.049283	0.468321
O21	O	1.610490	0.382617	0.801654
O22	O	0.867004	-0.135046	0.219799
O23	O	1.200337	0.198287	0.553132
O24	O	1.533670	0.531621	0.886465
O25	O	1.045422	-0.284044	0.219758
O26	O	1.378755	0.049289	0.553091
O27	O	1.712089	0.382622	0.886425
O28	O	0.943983	-0.135041	0.284028
O29	O	1.277317	0.198292	0.617361
O30	O	1.610650	0.531625	0.950694
O31	O	0.866913	-0.219821	0.135005
O32	O	1.200246	0.113512	0.468339
O33	O	1.533579	0.446845	0.801672
O34	O	0.765364	-0.219798	0.219756
O35	O	1.098698	0.113536	0.553090
O36	O	1.432031	0.446869	0.886423
O37	O	0.866932	-0.284002	0.368724
O38	O	1.200266	0.049331	0.702057
O39	O	1.533599	0.382664	1.035390
O40	O	0.765334	-0.284008	0.283953
O41	O	1.098667	0.049325	0.617287
O42	O	1.432000	0.382658	0.950620
O43	O	0.943943	-0.219787	0.368756
O44	O	1.277276	0.113546	0.702089
O45	O	1.610610	0.446879	1.035423
O46	O	0.943783	-0.368796	0.219716
O47	O	1.277116	-0.035463	0.553049
O48	O	1.610449	0.297871	0.886382
O49	O	0.866841	-0.368778	0.283930
O50	O	1.200175	-0.035445	0.617264
O51	O	1.533508	0.297889	0.950597
C52	C	0.742615	-0.251901	0.251853
C53	C	1.075949	0.081432	0.585186
C54	C	1.409282	0.414765	0.918520
C55	C	0.672974	-0.251908	0.251859
C56	C	1.006307	0.081425	0.585192
C57	C	1.339641	0.414759	0.918526
C58	C	0.171178	-0.285411	0.285263
C59	C	0.504511	0.047922	0.618597
C60	C	0.837845	0.381256	0.951930
C61	C	0.236614	-0.285411	0.285258
C62	C	0.569947	0.047922	0.618591
C63	C	0.903280	0.381255	0.951924
C64	C	0.269336	-0.251927	0.251885
C65	C	0.602669	0.081407	0.585218
C66	C	0.936002	0.414740	0.918551
C67	C	0.236617	-0.218449	0.218505
C68	C	0.569950	0.114884	0.551838
C69	C	0.903283	0.448217	0.885172
C70	C	0.171183	-0.218454	0.218508
C71	C	0.504516	0.114880	0.551841
C72	C	0.837849	0.448213	0.885175
C73	C	0.373027	-0.204808	0.247843
C74	C	0.706360	0.128525	0.581176
C75	C	1.039693	0.461858	0.914510
C76	C	0.438460	-0.204803	0.247844
C77	C	0.771793	0.128531	0.581177
C78	C	1.105126	0.461864	0.914511
C79	C	0.471156	-0.251913	0.251873
C80	C	0.804490	0.081420	0.585207
C81	C	1.137823	0.414754	0.918540
C82	C	0.438412	-0.299030	0.255913
C83	C	0.771745	0.034303	0.589246
C84	C	1.105079	0.367637	0.922579
C85	C	0.372978	-0.299035	0.255915
C86	C	0.706311	0.034299	0.589249
C87	C	1.039644	0.367632	0.922582
C88	C	0.340288	-0.251918	0.251878
C89	C	0.673621	0.081415	0.585211
C90	C	1.006955	0.414748	0.918544
C91	C	0.574820	-0.285391	0.285242
C92	C	0.908153	0.047942	0.618576
C93	C	1.241486	0.381276	0.951909
C94	C	0.640256	-0.285392	0.285233
C95	C	0.973590	0.047941	0.618566
C96	C	1.306923	0.381275	0.951900
C97	C	0.640258	-0.218426	0.218483
C98	C	0.973592	0.114908	0.551816
C99	C	1.306925	0.448241	0.885150
C100	C	0.574823	-0.218429	0.218490
C101	C	0.908156	0.114904	0.551823
C102	C	1.241490	0.448237	0.885156
C103	C	0.542108	-0.251911	0.251872
C104	C	0.875441	0.081422	0.585205
C105	C	1.208774	0.414755	0.918539
C106	C	0.905314	-0.387758	0.251827
C107	C	1.238648	-0.054425	0.585161
C108	C	1.571981	0.278909	0.918494
C109	C	0.905334	-0.445872	0.251827
C110	C	1.238667	-0.112539	0.585160
C111	C	1.572000	0.220795	0.918494
C112	C	0.945506	-0.806194	0.285373
C113	C	1.278839	-0.472861	0.618706
C114	C	1.612173	-0.139528	0.952039
C115	C	0.945525	-0.860799	0.285383
C116	C	1.278858	-0.527465	0.618717
C117	C	1.612191	-0.194132	0.952050
O118	O	0.979575	-0.889001	0.313863
O119	O	1.312909	-0.555667	0.647196
O120	O	1.646242	-0.222334	0.980529
N121	N	0.905490	-0.888154	0.251919
N122	N	1.238823	-0.554821	0.585252
N123	N	1.572156	-0.221488	0.918585
C124	C	0.865429	-0.860903	0.218445
C125	C	1.198763	-0.527570	0.551778
C126	C	1.532096	-0.194236	0.885112
O127	O	0.831378	-0.889185	0.189982
O128	O	1.164711	-0.555852	0.523316
O129	O	1.498045	-0.222519	0.856649
C130	C	0.865408	-0.806300	0.218437
C131	C	1.198741	-0.472966	0.551771
C132	C	1.532075	-0.139633	0.885104
C133	C	0.905450	-0.778947	0.251900
C134	C	1.238783	-0.445613	0.585234
C135	C	1.572117	-0.112280	0.918567
C136	C	0.985544	-0.778841	0.318833
C137	C	1.318878	-0.445508	0.652167
C138	C	1.652211	-0.112174	0.985500
C139	C	0.985526	-0.724241	0.318822
C140	C	1.318860	-0.390907	0.652155
C141	C	1.652193	-0.057574	0.985489
C142	C	0.945470	-0.696993	0.285350
C143	C	1.278804	-0.363660	0.618683
C144	C	1.612137	-0.030326	0.952016
C145	C	0.905432	-0.724346	0.251889
C146	C	1.238766	-0.391013	0.585222
C147	C	1.572099	-0.057680	0.918556
C148	C	0.825345	-0.779050	0.184967
C149	C	1.158678	-0.445716	0.518300
C150	C	1.492012	-0.112383	0.851634
C151	C	0.825327	-0.724443	0.184962
C152	C	1.158660	-0.391109	0.518296
C153	C	1.491994	-0.057776	0.851629
C154	C	0.865369	-0.697089	0.218425
C155	C	1.198702	-0.363756	0.551759
C156	C	1.532036	-0.030423	0.885092
C157	C	0.865358	-0.642498	0.218405
C158	C	1.198692	-0.309165	0.551739
C159	C	1.532025	0.024168	0.885072
N160	N	0.905393	-0.615142	0.251870
N161	N	1.238727	-0.281809	0.585203
N162	N	1.572060	0.051524	0.918537
C163	C	0.945449	-0.642390	0.285342
C164	C	1.278783	-0.309057	0.618675
C165	C	1.612116	0.024277	0.952009
C166	C	0.865476	-0.975574	0.218464
C167	C	1.198809	-0.642240	0.551798
C168	C	1.532143	-0.308907	0.885131
C169	C	0.865500	-1.030176	0.218469
C170	C	1.198833	-0.696843	0.551802
C171	C	1.532167	-0.363509	0.885135
C172	C	0.945594	-1.030068	0.285408
C173	C	1.278928	-0.696734	0.618741
C174	C	1.612261	-0.363401	0.952074
C175	C	0.945573	-0.975464	0.285400
C176	C	1.278907	-0.642131	0.618734
C177	C	1.612240	-0.308798	0.952067
C178	C	0.905511	-0.948218	0.251929
C179	C	1.238844	-0.614885	0.585262
C180	C	1.572178	-0.281551	0.918595
C181	C	0.945409	-0.527725	0.285315
C182	C	1.278743	-0.194391	0.618649
C183	C	1.612076	0.138942	0.951982
C184	C	0.945390	-0.473119	0.285299
C185	C	1.278723	-0.139786	0.618633
C186	C	1.612056	0.193547	0.951966
C187	C	0.865293	-0.473233	0.218362
C188	C	1.198626	-0.139899	0.551696
C189	C	1.531960	0.193434	0.885029
C190	C	0.865315	-0.527833	0.218376
C191	C	1.198648	-0.194500	0.551710
C192	C	1.531981	0.138834	0.885043
C193	C	0.905375	-0.555078	0.251857
C194	C	1.238708	-0.221745	0.585190
C195	C	1.572041	0.111589	0.918524
O196	O	0.831323	-0.614262	0.189942
O197	O	1.164657	-0.280928	0.523275
O198	O	1.497990	0.052405	0.856609
O199	O	0.979489	-0.614101	0.313805
O200	O	1.312822	-0.280768	0.647138
O201	O	1.646156	0.052566	0.980472
C202	C	1.068826	-0.251930	0.251884
C203	C	1.402159	0.081404	0.585217
C204	C	1.735493	0.414737	0.918550
C205	C	1.138467	-0.251936	0.251890
C206	C	1.471801	0.081397	0.585224
C207	C	1.805134	0.414731	0.918557
C208	C	0.905443	-0.251892	0.388241
C209	C	1.238777	0.081442	0.721575
C210	C	1.572110	0.414775	1.054908
C211	C	0.905461	-0.251881	0.446355
C212	C	1.238794	0.081452	0.779689
C213	C	1.572128	0.414785	1.113022
C214	C	0.905509	-0.115542	0.251921
C215	C	1.238842	0.217791	0.585254
C216	C	1.572175	0.551124	0.918587
C217	C	0.905554	-0.057428	0.251943
C218	C	1.238887	0.275905	0.585276
C219	C	1.572221	0.609238	0.918610
C220	C	0.905398	-0.251901	0.116026
C221	C	1.238732	0.081432	0.449359
C222	C	1.572065	0.414765	0.782692
C223	C	0.905502	-0.251764	0.057912
C224	C	1.238836	0.081569	0.391245
C225	C	1.572169	0.414902	0.724579
C226	C	0.865431	-0.218375	0.806733
C227	C	1.198764	0.114958	1.140066
C228	C	1.532098	0.448291	1.473400
C229	C	0.865434	-0.218366	0.861337
C230	C	1.198768	0.114968	1.194671
C231	C	1.532101	0.448301	1.528004
O232	O	0.831368	-0.189935	0.889587
O233	O	1.164701	0.143398	1.222920
O234	O	1.498035	0.476731	1.556253
N235	N	0.905482	-0.251799	0.888638
N236	N	1.238815	0.081534	1.221971
N237	N	1.572148	0.414867	1.555305
C238	C	0.945524	-0.285248	0.861331
C239	C	1.278857	0.048085	1.194665
C240	C	1.612190	0.381418	1.527998
O241	O	0.979587	-0.313686	0.889567
O242	O	1.312920	0.019648	1.222900
O243	O	1.646254	0.352981	1.556233
C244	C	0.945517	-0.285260	0.806728
C245	C	1.278850	0.048073	1.140061
C246	C	1.612183	0.381407	1.473395
C247	C	0.905471	-0.251821	0.779430
C248	C	1.238805	0.081513	1.112764
C249	C	1.572138	0.414846	1.446097
C250	C	0.825388	-0.184939	0.779435
C251	C	1.158722	0.148395	1.112769
C252	C	1.492055	0.481728	1.446102
C253	C	0.825386	-0.184948	0.724835
C254	C	1.158719	0.148386	1.058168
C255	C	1.492053	0.481719	1.391501
C256	C	0.865426	-0.218393	0.697532
C257	C	1.198760	0.114940	1.030865
C258	C	1.532093	0.448274	1.364199
C259	C	0.905469	-0.251829	0.724830
C260	C	1.238802	0.081504	1.058163
C261	C	1.572136	0.414837	1.391496
C262	C	0.985555	-0.318711	0.779422
C263	C	1.318888	0.014622	1.112756
C264	C	1.652222	0.347955	1.446089
C265	C	0.985544	-0.318720	0.724815
C266	C	1.318878	0.014613	1.058149
C267	C	1.652211	0.347946	1.391482
C268	C	0.945499	-0.285281	0.697518
C269	C	1.278832	0.048052	1.030851
C270	C	1.612165	0.381386	1.364184
C271	C	0.945507	-0.285284	0.642926
C272	C	1.278840	0.048050	0.976260
C273	C	1.612173	0.381383	1.309593
N274	N	0.905459	-0.251850	0.615626
N275	N	1.238793	0.081483	0.948959
N276	N	1.572126	0.414817	1.282292
C277	C	0.865419	-0.218405	0.642929
C278	C	1.198753	0.114929	0.976262
C279	C	1.532086	0.448262	1.309595
C280	C	0.945535	-0.285222	0.976002
C281	C	1.278868	0.048112	1.309335
C282	C	1.612201	0.381445	1.642669
C283	C	0.945545	-0.285208	1.030604
C284	C	1.278879	0.048125	1.363938
C285	C	1.612212	0.381459	1.697271
C286	C	0.865455	-0.218326	1.030607
C287	C	1.198788	0.115008	1.363940
C288	C	1.532122	0.448341	1.697273
C289	C	0.865448	-0.218338	0.976003
C290	C	1.198781	0.114996	1.309337
C291	C	1.532115	0.448329	1.642670
C292	C	0.905487	-0.251788	0.948701
C293	C	1.238821	0.081545	1.282035
C294	C	1.572154	0.414878	1.615368
C295	C	0.865418	-0.218426	0.528263
C296	C	1.198751	0.114908	0.861597
C297	C	1.532084	0.448241	1.194930
C298	C	0.865421	-0.218436	0.473658
C299	C	1.198754	0.114897	0.806991
C300	C	1.532087	0.448231	1.140325
C301	C	0.945508	-0.285320	0.473660
C302	C	1.278842	0.048014	0.806994
C303	C	1.612175	0.381347	1.140327
C304	C	0.945508	-0.285308	0.528261
C305	C	1.278841	0.048026	0.861594
C306	C	1.612175	0.381359	1.194928
C307	C	0.905457	-0.251859	0.555561
C308	C	1.238791	0.081474	0.888895
C309	C	1.572124	0.414808	1.222228
O310	O	0.979554	-0.313701	0.614642
O311	O	1.312887	0.019632	0.947976
O312	O	1.646221	0.352965	1.281309
O313	O	0.831356	-0.189977	0.614687
O314	O	1.164689	0.143356	0.948020
O315	O	1.498023	0.476690	1.281353
H316	H	0.666900	-0.191164	0.191308
H317	H	1.000233	0.142170	0.524642
H318	H	1.333567	0.475503	0.857975
H319	H	0.977999	-0.450850	0.312549
H320	H	1.311332	-0.117517	0.645882
H321	H	1.644665	0.215816	0.979215
H322	H	0.548182	-0.312655	0.312423
H323	H	0.881515	0.020678	0.645757
H324	H	1.214848	0.354012	0.979090
H325	H	0.666889	-0.312655	0.312408
H326	H	1.000222	0.020678	0.645741
H327	H	1.333555	0.354011	0.979075
H328	H	0.978161	-0.312432	1.052826
H329	H	1.311494	0.020901	1.386159
H330	H	1.644828	0.354235	1.719492
N331	N	0.473675	-0.349843	0.260254
N332	N	0.807008	-0.016510	0.593588
N333	N	1.140341	0.316823	0.926921
H334	H	0.462256	-0.373201	0.229978
H335	H	0.795589	-0.039868	0.563312
H336	H	1.128923	0.293465	0.896645
H337	H	0.462286	-0.367639	0.294076
H338	H	0.795619	-0.034306	0.627410
H339	H	1.128953	0.299027	0.960743
N340	N	0.988693	-0.321374	0.557712
N341	N	1.322027	0.011960	0.891045
N342	N	1.655360	0.345293	1.224379
H343	H	1.017746	-0.300129	0.580388
H344	H	1.351079	0.033204	0.913721
H345	H	1.684412	0.366538	1.247054
H346	H	1.014018	-0.342557	0.532099
H347	H	1.347352	-0.009223	0.865432
H348	H	1.680685	0.324110	1.198765
H349	H	0.832714	-0.550105	0.191124
H350	H	1.166048	-0.216772	0.524457
H351	H	1.499381	0.116561	0.857790
N352	N	0.135894	-0.321530	0.321260
N353	N	0.469227	0.011803	0.654593
N354	N	0.802560	0.345137	0.987926
H355	H	0.108723	-0.345731	0.299963
H356	H	0.442057	-0.012398	0.633297
H357	H	0.775390	0.320935	0.966630
H358	H	0.108802	-0.300282	0.345524
H359	H	0.442135	0.033052	0.678857
H360	H	0.775469	0.366385	1.012190
H361	H	0.346411	-0.166443	0.244553
H362	H	0.679744	0.166890	0.577886
H363	H	1.013077	0.500223	0.911220
H364	H	0.263252	-0.312671	0.312436
H365	H	0.596585	0.020663	0.645769
H366	H	0.929919	0.353996	0.979103
H367	H	0.548190	-0.191168	0.191315
H368	H	0.881523	0.142165	0.524649
H369	H	1.214856	0.475498	0.857982
N370	N	0.473774	-0.153987	0.243490
N371	N	0.807108	0.179346	0.576824
N372	N	1.140441	0.512680	0.910157
H373	H	0.443134	-0.124144	0.240931
H374	H	0.776467	0.209189	0.574265
H375	H	1.109801	0.542523	0.907598
H376	H	0.500908	-0.154698	0.211273
H377	H	0.834241	0.178636	0.544606
H378	H	1.167575	0.511969	0.877940
H379	H	0.263263	-0.191187	0.191332
H380	H	0.596597	0.142147	0.524665
H381	H	0.929930	0.475480	0.857998
N382	N	0.822095	-0.443839	0.182258
N383	N	1.155428	-0.110506	0.515592
N384	N	1.488762	0.222828	0.848925
H385	H	0.828162	-0.405098	0.187333
H386	H	1.161495	-0.071765	0.520667
H387	H	1.494829	0.261568	0.854000
H388	H	0.777345	-0.453406	0.190364
H389	H	1.110678	-0.120072	0.523697
H390	H	1.444011	0.213261	0.857031
N391	N	0.337659	-0.349849	0.260267
N392	N	0.670993	-0.016516	0.593600
N393	N	1.004326	0.316818	0.926933
H394	H	0.368297	-0.379695	0.262818
H395	H	0.701630	-0.046362	0.596152
H396	H	1.034963	0.286972	0.929485
H397	H	0.310494	-0.354659	0.228400
H398	H	0.643827	-0.021326	0.561734
H399	H	0.977161	0.312008	0.895067
N400	N	0.135897	-0.182348	0.182511
N401	N	0.469230	0.150986	0.515844
N402	N	0.802564	0.484319	0.849177
H403	H	0.166553	-0.161136	0.161365
H404	H	0.499886	0.172198	0.494699
H405	H	0.833219	0.505531	0.828032
H406	H	0.108773	-0.158181	0.203840
H407	H	0.442107	0.175152	0.537174
H408	H	0.775440	0.508486	0.870507
H409	H	0.978026	-0.549901	0.312582
H410	H	1.311359	-0.216568	0.645915
H411	H	1.644692	0.116766	0.979249
H412	H	0.832805	-0.191188	0.550485
H413	H	1.166139	0.142145	0.883818
H414	H	1.499472	0.475479	1.217151
H415	H	1.018130	-0.701973	0.346072
H416	H	1.351463	-0.368640	0.679405
H417	H	1.684797	-0.035306	1.012738
N418	N	1.028757	-0.808213	0.354943
N419	N	1.362090	-0.474879	0.688276
N420	N	1.695423	-0.141546	1.021610
H421	H	1.057823	-0.830861	0.333727
H422	H	1.391156	-0.497527	0.667061
H423	H	1.724489	-0.164194	1.000394
H424	H	1.003252	-0.830838	0.379157
H425	H	1.336585	-0.497505	0.712491
H426	H	1.669919	-0.164171	1.045824
H427	H	0.978178	-0.953197	0.312649
H428	H	1.311512	-0.619863	0.645982
H429	H	1.644845	-0.286530	0.979316
H430	H	0.792780	-0.157703	0.801659
H431	H	1.126113	0.175630	1.134993
H432	H	1.459446	0.508963	1.468326
N433	N	0.988695	-0.321390	0.444207
N434	N	1.322029	0.011943	0.777541
N435	N	1.655362	0.345277	1.110874
H436	H	0.982541	-0.316379	0.405475
H437	H	1.315875	0.016954	0.738808
H438	H	1.649208	0.350288	1.072142
H439	H	0.978978	-0.358724	0.453796
H440	H	1.312311	-0.025391	0.787129
H441	H	1.645644	0.307942	1.120462
H442	H	1.018164	-0.345942	0.801639
H443	H	1.351497	-0.012609	1.134972
H444	H	1.684830	0.320725	1.468305
N445	N	0.822319	-1.059672	0.182368
N446	N	1.155652	-0.726338	0.515701
N447	N	1.488986	-0.393005	0.849035
H448	H	0.777544	-1.050191	0.190452
H449	H	1.110878	-0.716858	0.523785
H450	H	1.444211	-0.383525	0.857118
H451	H	0.828457	-1.098389	0.187465
H452	H	1.161790	-0.765056	0.520798
H453	H	1.495124	-0.431722	0.854132
H454	H	0.978209	-1.052262	0.312664
H455	H	1.311543	-0.718929	0.645997
H456	H	1.644876	-0.385596	0.979330
H457	H	0.978147	-0.312458	0.953776
H458	H	1.311480	0.020875	1.287109
H459	H	1.644814	0.354208	1.620443
N460	N	0.822269	-0.946188	0.182356
N461	N	1.155602	-0.612855	0.515690
N462	N	1.488935	-0.279521	0.849023
H463	H	0.796914	-0.971807	0.161159
H464	H	1.130248	-0.638474	0.494493
H465	H	1.463581	-0.305141	0.827826
H466	H	0.847781	-0.923533	0.158176
H467	H	1.181114	-0.590200	0.491509
H468	H	1.514448	-0.256866	0.824842
H469	H	1.018154	-0.345957	0.702589
H470	H	1.351487	-0.012624	1.035922
H471	H	1.684820	0.320709	1.369256
N472	N	0.782158	-0.808543	0.148873
N473	N	1.115491	-0.475210	0.482207
N474	N	1.448824	-0.141876	0.815540
H475	H	0.756781	-0.782988	0.127673
H476	H	1.090114	-0.449655	0.461007
H477	H	1.423448	-0.116322	0.794340
H478	H	0.753154	-0.831202	0.170137
H479	H	1.086487	-0.497869	0.503470
H480	H	1.419821	-0.164535	0.836804
N481	N	0.782114	-0.695055	0.148862
N482	N	1.115448	-0.361722	0.482195
N483	N	1.448781	-0.028389	0.815528
H484	H	0.756754	-0.720673	0.127667
H485	H	1.090088	-0.387339	0.461000
H486	H	1.423421	-0.054006	0.794333
H487	H	0.807624	-0.672401	0.124679
H488	H	1.140958	-0.339068	0.458012
H489	H	1.474291	-0.005734	0.791345
N490	N	0.822260	-0.182269	0.946563
N491	N	1.155593	0.151064	1.279896
N492	N	1.488926	0.484398	1.613229
H493	H	0.796900	-0.161080	0.972150
H494	H	1.130233	0.172253	1.305483
H495	H	1.463566	0.505587	1.638816
H496	H	0.793240	-0.203550	0.923894
H497	H	1.126574	0.129784	1.257227
H498	H	1.459907	0.463117	1.590560
N499	N	0.822234	-0.182363	0.444216
N500	N	1.155567	0.150971	0.777549
N501	N	1.488900	0.484304	1.110882
H502	H	0.796870	-0.161175	0.469801
H503	H	1.130203	0.172159	0.803134
H504	H	1.463537	0.505492	1.136467
H505	H	0.793218	-0.203641	0.421542
H506	H	1.126551	0.129692	0.754875
H507	H	1.459884	0.463026	1.088208
N508	N	0.782200	-0.148876	0.695396
N509	N	1.115533	0.184458	1.028729
N510	N	1.448867	0.517791	1.362063
H511	H	0.756840	-0.127689	0.720985
H512	H	1.090173	0.205645	1.054318
H513	H	1.423507	0.538978	1.387651
H514	H	0.753181	-0.170153	0.672724
H515	H	1.086514	0.163181	1.006057
H516	H	1.419847	0.496514	1.339390
N517	N	0.822265	-0.182253	1.060060
N518	N	1.155598	0.151081	1.393393
N519	N	1.488932	0.484414	1.726727
H520	H	0.828347	-0.187324	1.098792
H521	H	1.161681	0.146009	1.432126
H522	H	1.495014	0.479343	1.765459
H523	H	0.777510	-0.190390	1.050503
H524	H	1.110844	0.142943	1.383837
H525	H	1.444177	0.476276	1.717170
