data_functionalizedCrystal
_audit_creation_method	'MofGen! by Chris Wilmer'
_symmetry_space_group_name_H-M	'P1'
_symmetry_Int_Tables_number	1
_symmetry_cell_setting	triclinic
loop_
_symmetry_equiv_pos_as_xyz
  x,y,z
_cell_length_a	13.897441
_cell_length_b	11.169417
_cell_length_c	11.169416
_cell_angle_alpha	90.011219
_cell_angle_beta	90.025897
_cell_angle_gamma	90.018542
loop_
_atom_site_label
_atom_site_type_symbol
_atom_site_fract_x
_atom_site_fract_y
_atom_site_fract_z
Zn1	Zn	-0.545356	-1.834947	0.477741
Zn2	Zn	-0.212023	-1.501614	0.811074
Zn3	Zn	0.121310	-1.168280	1.144407
Zn4	Zn	-0.384071	-1.834841	0.678464
Zn5	Zn	-0.050738	-1.501508	1.011797
Zn6	Zn	0.282596	-1.168174	1.345131
Zn7	Zn	-0.384081	-1.634237	0.477796
Zn8	Zn	-0.050748	-1.300904	0.811130
Zn9	Zn	0.282586	-0.967571	1.144463
Zn10	Zn	-0.545330	-1.634240	0.678384
Zn11	Zn	-0.211996	-1.300907	1.011717
Zn12	Zn	0.121337	-0.967574	1.345050
O13	O	-0.464709	-1.734567	0.578096
O14	O	-0.131376	-1.401233	0.911430
O15	O	0.201957	-1.067900	1.244763
O16	O	-0.523968	-2.002883	0.504377
O17	O	-0.190635	-1.669549	0.837711
O18	O	0.142698	-1.336216	1.171044
O19	O	-0.249091	-1.808185	0.651902
O20	O	0.084243	-1.474851	0.985235
O21	O	0.417576	-1.141518	1.318568
O22	O	-0.405490	-1.660905	0.309839
O23	O	-0.072156	-1.327572	0.643173
O24	O	0.261177	-0.994239	0.976506
O25	O	-0.405473	-2.002805	0.651848
O26	O	-0.072139	-1.669471	0.985181
O27	O	0.261194	-1.336138	1.318514
O28	O	-0.523978	-1.808366	0.309798
O29	O	-0.190645	-1.475032	0.643132
O30	O	0.142689	-1.141699	0.976465
O31	O	-0.249098	-1.660802	0.504472
O32	O	0.084235	-1.327469	0.837806
O33	O	0.417569	-0.994136	1.171139
O34	O	-0.405464	-1.466288	0.504395
O35	O	-0.072131	-1.132955	0.837728
O36	O	0.261203	-0.799622	1.171061
O37	O	-0.680315	-1.660910	0.651711
O38	O	-0.346982	-1.327577	0.985044
O39	O	-0.013648	-0.994244	1.318378
O40	O	-0.523933	-1.466290	0.651765
O41	O	-0.190599	-1.132957	0.985098
O42	O	0.142734	-0.799624	1.318432
O43	O	-0.680334	-1.808369	0.504300
O44	O	-0.347001	-1.475035	0.837633
O45	O	-0.013668	-1.141702	1.170966
O46	O	-0.405447	-1.808188	0.846403
O47	O	-0.072114	-1.474854	1.179736
O48	O	0.261220	-1.141521	1.513070
O49	O	-0.523923	-1.660807	0.846344
O50	O	-0.190590	-1.327474	1.179677
O51	O	0.142744	-0.994141	1.513011
C52	C	-0.464702	-1.734519	0.889921
C53	C	-0.131369	-1.401186	1.223254
C54	C	0.201965	-1.067852	1.556588
C55	C	-0.464731	-1.734608	1.023321
C56	C	-0.131398	-1.401275	1.356654
C57	C	0.201935	-1.067942	1.689987
C58	C	-0.464697	-1.422742	0.578078
C59	C	-0.131364	-1.089408	0.911411
C60	C	0.201970	-0.756075	1.244745
C61	C	-0.464715	-1.289342	0.578099
C62	C	-0.131381	-0.956009	0.911432
C63	C	0.201952	-0.622675	1.244766
C64	C	-0.716303	-1.734652	0.577990
C65	C	-0.382969	-1.401318	0.911323
C66	C	-0.049636	-1.067985	1.244657
C67	C	-0.823517	-1.734688	0.577945
C68	C	-0.490183	-1.401355	0.911278
C69	C	-0.156850	-1.068021	1.244612
C70	C	-1.019812	-1.734721	0.577864
C71	C	-0.686478	-1.401387	0.911197
C72	C	-0.353145	-1.068054	1.244530
C73	C	-0.910579	-1.734699	0.577912
C74	C	-0.577246	-1.401365	0.911246
C75	C	-0.243913	-1.068032	1.244579
C76	C	-0.214095	-1.734551	0.578115
C77	C	0.119238	-1.401217	0.911449
C78	C	0.452572	-1.067884	1.244782
C79	C	-0.106882	-1.734747	0.577822
C80	C	0.226452	-1.401414	0.911156
C81	C	0.559785	-1.068080	1.244489
C82	C	-0.464722	-2.047609	0.578115
C83	C	-0.131389	-1.714275	0.911449
C84	C	0.201944	-1.380942	1.244782
C85	C	-0.464728	-2.181009	0.578123
C86	C	-0.131395	-1.847675	0.911457
C87	C	0.201939	-1.514342	1.244790
C88	C	-0.464738	-1.734647	0.265054
C89	C	-0.131405	-1.401314	0.598387
C90	C	0.201929	-1.067980	0.931720
C91	C	-0.464750	-1.734681	0.131654
C92	C	-0.131417	-1.401348	0.464987
C93	C	0.201917	-1.068015	0.798320
