data_functionalizedCrystal
_audit_creation_method	'MofGen! by Chris Wilmer'
_symmetry_space_group_name_H-M	'P1'
_symmetry_Int_Tables_number	1
_symmetry_cell_setting	triclinic
loop_
_symmetry_equiv_pos_as_xyz
  x,y,z
_cell_length_a	13.897448
_cell_length_b	13.897449
_cell_length_c	17.077396
_cell_angle_alpha	90.020566
_cell_angle_beta	89.972632
_cell_angle_gamma	89.982475
loop_
_atom_site_label
_atom_site_type_symbol
_atom_site_fract_x
_atom_site_fract_y
_atom_site_fract_z
Zn1	Zn	-0.384019	-1.474681	-0.443871
Zn2	Zn	0.115981	-0.974681	0.056129
Zn3	Zn	-0.545332	-1.474581	-0.312608
Zn4	Zn	-0.045332	-0.974581	0.187392
Zn5	Zn	-0.384052	-1.313376	-0.312617
Zn6	Zn	0.115948	-0.813376	0.187383
Zn7	Zn	-0.545273	-1.313352	-0.443829
Zn8	Zn	-0.045273	-0.813352	0.056171
O9	O	-0.464669	-1.393998	-0.378231
O10	O	0.035331	-0.893998	0.121769
O11	O	-0.405428	-1.609649	-0.426473
O12	O	0.094572	-1.109649	0.073527
O13	O	-0.523976	-1.453166	-0.202762
O14	O	-0.023976	-0.953166	0.297238
O15	O	-0.249066	-1.334826	-0.330049
O16	O	0.250934	-0.834826	0.169951
O17	O	-0.523944	-1.609576	-0.330034
O18	O	-0.023944	-1.109576	0.169966
O19	O	-0.249042	-1.453335	-0.426481
O20	O	0.250958	-0.953335	0.073519
O21	O	-0.405484	-1.334729	-0.202768
O22	O	0.094516	-0.834729	0.297232
O23	O	-0.405428	-1.178391	-0.330008
O24	O	0.094572	-0.678391	0.169992
O25	O	-0.523845	-1.334784	-0.553681
O26	O	-0.023845	-0.834784	-0.053681
O27	O	-0.523876	-1.178373	-0.426409
O28	O	-0.023876	-0.678373	0.073591
O29	O	-0.405372	-1.453311	-0.553712
O30	O	0.094628	-0.953311	-0.053712
O31	O	-0.680306	-1.453142	-0.329993
O32	O	-0.180306	-0.953142	0.170007
O33	O	-0.680263	-1.334687	-0.426401
O34	O	-0.180263	-0.834687	0.073599
C35	C	-0.464650	-1.143383	-0.378206
C36	C	0.035350	-0.643383	0.121794
C37	C	-0.464665	-1.036169	-0.378213
C38	C	0.035335	-0.536169	0.121787
C39	C	-0.464663	-0.839874	-0.378228
C40	C	0.035337	-0.339874	0.121772
C41	C	-0.464661	-0.949107	-0.378218
C42	C	0.035339	-0.449107	0.121782
C43	C	-0.715283	-1.393927	-0.378208
C44	C	-0.215283	-0.893927	0.121792
C45	C	-0.822497	-1.393985	-0.378225
C46	C	-0.322497	-0.893985	0.121775
C47	C	-1.018792	-1.394087	-0.378274
C48	C	-0.518792	-0.894087	0.121726
C49	C	-0.909560	-1.394028	-0.378249
C50	C	-0.409560	-0.894028	0.121751
C51	C	-0.213076	-1.394094	-0.378271
C52	C	0.286924	-0.894094	0.121729
C53	C	-0.105862	-1.394136	-0.378288
C54	C	0.394138	-0.894136	0.121712
C55	C	-0.464598	-1.394056	-0.582975
C56	C	0.035402	-0.894056	-0.082975
C57	C	-0.464568	-1.394081	-0.670225
C58	C	0.035432	-0.894081	-0.170225
C59	C	-0.464683	-0.645590	-0.378249
C60	C	0.035317	-0.145590	0.121751
C61	C	-0.464672	-0.752804	-0.378238
C62	C	0.035328	-0.252804	0.121762
C63	C	-0.402874	-1.455800	-0.711233
C64	C	0.097126	-0.955800	-0.211233
C65	C	-0.402842	-1.455812	-0.793213
C66	C	0.097158	-0.955812	-0.293213
C67	C	-0.464509	-1.394108	-0.834185
C68	C	0.035491	-0.894108	-0.334185
C69	C	-0.526206	-1.332382	-0.793171
C70	C	-0.026206	-0.832382	-0.293171
C71	C	-0.526232	-1.332366	-0.711192
C72	C	-0.026232	-0.832366	-0.211192
C73	C	-0.526148	-1.332420	-0.964042
C74	C	-0.026148	-0.832420	-0.464042
C75	C	-0.526123	-1.332437	-1.046026
C76	C	-0.026123	-0.832437	-0.546026
C77	C	-0.402757	-1.455867	-1.046063
C78	C	0.097243	-0.955867	-0.546063
C79	C	-0.402784	-1.455851	-0.964084
C80	C	0.097216	-0.955851	-0.464084
C81	C	-0.464482	-1.394125	-0.923076
C82	C	0.035518	-0.894125	-0.423076
C83	C	-0.464670	-1.393995	-0.174283
C84	C	0.035330	-0.893995	0.325717
C85	C	-0.464429	-1.394157	-0.087034
C86	C	0.035571	-0.894157	0.412966
H87	H	-0.352607	-1.506073	-0.826598
H88	H	0.147393	-1.006073	-0.326598
H89	H	-0.352574	-1.506101	-0.930727
H90	H	0.147426	-1.006101	-0.430727
O91	O	-0.336206	-1.522435	-1.090293
O92	O	0.163794	-1.022435	-0.590293
H93	H	-0.352771	-1.598131	-1.074577
H94	H	0.147229	-1.098131	-0.574577
O95	O	-0.592624	-1.265878	-1.090222
O96	O	-0.092624	-0.765878	-0.590222
H97	H	-0.635519	-1.222942	-1.047936
H98	H	-0.135519	-0.722942	-0.547936
H99	H	-0.576460	-1.282098	-0.677805
H100	H	-0.076460	-0.782098	-0.177805
O101	O	-0.592685	-1.265841	-0.919807
O102	O	-0.092685	-0.765841	-0.419807
H103	H	-0.635568	-1.222941	-0.962068
H104	H	-0.135568	-0.722941	-0.462068
H105	H	-0.352660	-1.506050	-0.677880
H106	H	0.147340	-1.006050	-0.177880
O107	O	-0.592712	-1.265819	-0.837358
O108	O	-0.092712	-0.765819	-0.337358
H109	H	-0.641788	-1.308975	-0.874703
H110	H	-0.141788	-0.808975	-0.374703
