data_functionalizedCrystal
_audit_creation_method	'MofGen! by Chris Wilmer'
_symmetry_space_group_name_H-M	'P1'
_symmetry_Int_Tables_number	1
_symmetry_cell_setting	triclinic
loop_
_symmetry_equiv_pos_as_xyz
  x,y,z
_cell_length_a	25.639242
_cell_length_b	25.639240
_cell_length_c	19.076919
_cell_angle_alpha	92.266161
_cell_angle_beta	87.727009
_cell_angle_gamma	89.961937
loop_
_atom_site_label
_atom_site_type_symbol
_atom_site_fract_x
_atom_site_fract_y
_atom_site_fract_z
Zn1	Zn	0.787342	0.220113	0.398079
Zn2	Zn	0.790768	0.304035	0.280377
Zn3	Zn	0.703427	0.216607	0.280383
Zn4	Zn	0.699859	0.307509	0.398015
O5	O	0.745349	0.262066	0.339214
O6	O	0.860961	0.231258	0.382491
O7	O	0.782108	0.289516	0.181890
O8	O	0.714618	0.143908	0.296024
O9	O	0.863478	0.292915	0.296016
O10	O	0.776271	0.146483	0.382496
O11	O	0.717940	0.225283	0.181894
O12	O	0.629789	0.228653	0.295962
O13	O	0.708537	0.298837	0.496511
O14	O	0.627168	0.295438	0.382386
O15	O	0.772811	0.234627	0.496559
O16	O	0.778648	0.377660	0.295953
O17	O	0.711858	0.380213	0.382381
C18	C	0.609508	0.262043	0.339168
C19	C	0.551394	0.262046	0.339165
C20	C	0.301553	0.227237	0.294290
C21	C	0.356157	0.227232	0.294282
O22	O	0.385545	0.197605	0.256088
N23	N	0.382119	0.262053	0.339200
C24	C	0.353473	0.296878	0.384136
O25	O	0.380569	0.326495	0.422342
C26	C	0.298869	0.296880	0.384148
C27	C	0.272911	0.262060	0.339221
C28	C	0.275594	0.192420	0.249368
C29	C	0.220994	0.192426	0.249376
C30	C	0.192351	0.227249	0.294307
C31	C	0.218310	0.262066	0.339229
C32	C	0.270224	0.331702	0.429086
C33	C	0.215616	0.331700	0.429095
C34	C	0.189658	0.296881	0.384168
C35	C	0.135067	0.296895	0.384168
N36	N	0.109105	0.262074	0.339249
C37	C	0.137748	0.227251	0.294319
C38	C	0.468144	0.296870	0.384108
C39	C	0.522747	0.296871	0.384093
C40	C	0.525428	0.227224	0.294240
C41	C	0.470824	0.227227	0.294252
C42	C	0.442183	0.262049	0.339189
C43	C	0.023082	0.227267	0.294339
C44	C	-0.031524	0.227277	0.294349
C45	C	-0.034200	0.296921	0.384205
C46	C	0.020401	0.296913	0.384193
C47	C	0.049041	0.262081	0.339257
O48	O	0.105645	0.326506	0.422344
O49	O	0.110644	0.197635	0.256125
C50	C	0.745252	0.397907	0.339175
C51	C	0.745257	0.456022	0.339182
C52	C	0.780169	0.815045	0.294260
C53	C	0.780185	0.869650	0.294267
O54	O	0.809800	0.896747	0.256052
N55	N	0.745391	0.898305	0.339229
C56	C	0.710582	0.872354	0.384193
O57	O	0.680989	0.901742	0.422437
C58	C	0.710569	0.817751	0.384189
C59	C	0.745362	0.789098	0.339219
C60	C	0.814960	0.786392	0.249295
C61	C	0.814943	0.731791	0.249287
C62	C	0.780136	0.705844	0.294245
C63	C	0.745345	0.734497	0.339211
C64	C	0.675763	0.791800	0.429155
C65	C	0.675754	0.737193	0.429148
C66	C	0.710547	0.708540	0.384178
C67	C	0.710522	0.653948	0.384162
N68	N	0.745316	0.625293	0.339200
C69	C	0.780123	0.651240	0.294242
C70	C	0.710612	0.987025	0.384198
C71	C	0.710622	1.041627	0.384199
C72	C	0.780226	1.038919	0.294274
C73	C	0.780213	0.984316	0.294270
C74	C	0.745406	0.958369	0.339236
C75	C	0.780085	0.536575	0.294229
C76	C	0.780064	0.481969	0.294223
C77	C	0.710463	0.484682	0.384150
C78	C	0.710482	0.539283	0.384153
C79	C	0.745297	0.565228	0.339190
O80	O	0.680924	0.626816	0.422360
O81	O	0.809716	0.621846	0.256010
C82	C	0.881721	0.262090	0.339260
C83	C	0.939834	0.262100	0.339280
C84	C	0.739894	0.267511	0.522786
C85	C	0.737569	0.269831	0.601014
C86	C	0.745441	1.125694	0.339256
C87	C	0.745431	1.067580	0.339242
C88	C	0.750813	0.256605	0.156355
C89	C	0.753239	0.254137	0.078128
C90	C	0.769939	0.237492	0.637791
C91	C	0.767748	0.239670	0.711294
C92	C	0.733190	0.274191	0.748019
C93	C	0.700816	0.306531	0.711236
C94	C	0.703005	0.304350	0.637735
C95	C	0.723054	0.284296	0.967843
C96	C	0.720869	0.286476	1.041350
C97	C	0.787801	0.219614	1.041403
C98	C	0.789988	0.217439	0.967900
C99	C	0.757613	0.249777	0.931124
N100	N	0.730951	0.276419	0.823151
N101	N	0.759849	0.247545	0.855993
H102	H	0.298909	0.164060	0.212780
H103	H	0.676640	0.330678	0.607791
O104	O	0.848859	0.811519	0.205652
C105	C	0.900486	0.798566	0.221141
H106	H	0.900710	0.759725	0.248222
H107	H	0.917021	0.830348	0.257336
C108	C	0.933968	0.841658	0.119322
C109	C	0.934243	0.793950	0.152578
H110	H	0.954792	0.838813	0.077031
H111	H	0.899186	0.850386	0.108888
H112	H	0.947746	0.868138	0.149493
H113	H	0.920459	0.767473	0.122412
H114	H	0.969023	0.785217	0.163006
O115	O	0.440270	0.330727	0.427659
C116	C	0.409856	0.363272	0.387513
H117	H	0.403248	0.343189	0.334227
H118	H	0.431111	0.401772	0.379674
C119	C	0.364964	0.398609	0.491678
C120	C	0.356844	0.373940	0.426233
H121	H	0.332264	0.405192	0.515562
H122	H	0.385455	0.376684	0.518726
H123	H	0.382678	0.430690	0.485135
H124	H	0.339136	0.341857	0.432776
H125	H	0.336348	0.395860	0.399187
O126	O	0.547986	0.330750	0.427630
C127	C	0.580745	0.363273	0.387477
H128	H	0.565924	0.364796	0.332038
H129	H	0.622208	0.347032	0.385091
C130	C	0.598742	0.416810	0.489819
C131	C	0.580536	0.418684	0.421729
H132	H	0.598615	0.450990	0.510948
H133	H	0.576673	0.394898	0.516871
H134	H	0.633293	0.403274	0.487821
H135	H	0.545983	0.432214	0.423728
H136	H	0.602599	0.440600	0.394678
H137	H	0.046394	0.198901	0.257752
O138	O	-0.056658	0.193401	0.250684
C139	C	-0.019663	0.162673	0.211017
H140	H	0.018411	0.161749	0.239845
H141	H	-0.012291	0.180170	0.157516
C142	C	-0.087408	0.107853	0.165606
C143	C	-0.040646	0.106716	0.201017
H144	H	-0.100351	0.073337	0.159435
H145	H	-0.112332	0.128556	0.192329
H146	H	-0.081258	0.122437	0.121026
H147	H	-0.046798	0.092139	0.245600
H148	H	-0.015723	0.086009	0.174302
H149	H	0.449693	0.198872	0.257671
H150	H	0.814158	0.193286	1.071354
O151	O	0.676744	0.961904	0.427897
C152	C	0.646049	0.998910	0.467590
H153	H	0.645128	1.036986	0.438757
H154	H	0.663575	1.006274	0.521070
C155	C	0.591222	0.931189	0.513065
C156	C	0.590086	0.977952	0.477649
H157	H	0.556702	0.918261	0.519274
H158	H	0.611902	0.906256	0.486325
H159	H	0.605829	0.937332	0.557628
H160	H	0.575486	0.971808	0.433084
H161	H	0.569402	1.002883	0.504382
H162	H	-0.057530	0.325275	0.420784
O163	O	0.553315	0.193465	0.250561
C164	C	0.586214	0.221827	0.205014
H165	H	0.593638	0.262213	0.229734
H166	H	0.566705	0.225960	0.152844
C167	C	0.629356	0.143066	0.161983
C168	C	0.638478	0.192667	0.192346
H169	H	0.661594	0.125078	0.154165
H170	H	0.607190	0.123957	0.192666
H171	H	0.613098	0.146518	0.118511
H172	H	0.654730	0.189214	0.235821
H173	H	0.660648	0.211774	0.161669
O174	O	0.187768	0.365456	0.472823
C175	C	0.154850	0.337093	0.518346
H176	H	0.171198	0.296049	0.522790
H177	H	0.114109	0.334627	0.496597
C178	C	0.131768	0.415297	0.585992
C179	C	0.151849	0.364887	0.591454
H180	H	0.129914	0.432443	0.631087
H181	H	0.153943	0.434406	0.555321
H182	H	0.097818	0.413235	0.567865
H183	H	0.185800	0.366950	0.609572
H184	H	0.129679	0.345779	0.622130
O185	O	0.813914	0.454216	0.250516
C186	C	0.844630	0.488832	0.210827
H187	H	0.845576	0.528599	0.239665
H188	H	0.827107	0.493088	0.157348
C189	C	0.899415	0.418332	0.165339
C190	C	0.900580	0.467174	0.200762
H191	H	0.933926	0.404972	0.159127
H192	H	0.878720	0.395010	0.192076
H193	H	0.884809	0.421886	0.120777
H194	H	0.915179	0.463618	0.245326
H195	H	0.921279	0.490494	0.174032
H196	H	0.808569	1.060056	0.257669
H197	H	0.672676	0.334636	0.741143
O198	O	0.641948	0.819547	0.472909
C199	C	0.611223	0.784924	0.512573
H200	H	0.632558	0.746056	0.515024
H201	H	0.572293	0.778394	0.486748
C202	C	0.575221	0.856171	0.584467
C203	C	0.601428	0.808433	0.587482
H204	H	0.569176	0.870673	0.630673
H205	H	0.595920	0.879498	0.557743
H206	H	0.542783	0.850723	0.562943
H207	H	0.633868	0.813884	0.608998
H208	H	0.580734	0.785109	0.614212
H209	H	0.647411	0.716070	0.465767
O210	O	0.691655	0.315783	0.932164
C211	C	0.702487	0.368429	0.950121
H212	H	0.743656	0.371684	0.970326
H213	H	0.673180	0.383348	0.992780
C214	C	0.647730	0.397388	0.859998
C215	C	0.698296	0.401386	0.884809
H216	H	0.645143	0.417718	0.819712
H217	H	0.640430	0.361919	0.847901
H218	H	0.623314	0.409820	0.895553
H219	H	0.722711	0.388948	0.849257
H220	H	0.705600	0.436853	0.896898
O221	O	0.813835	0.561834	0.250526
C222	C	0.785465	0.592105	0.205015
H223	H	0.745092	0.601053	0.229774
H224	H	0.781300	0.569538	0.152845
C225	C	0.864225	0.632581	0.161920
C226	C	0.814639	0.643574	0.192332
H227	H	0.882222	0.664328	0.154094
H228	H	0.883339	0.612185	0.192580
H229	H	0.860747	0.613773	0.118448
H230	H	0.818118	0.662376	0.235807
H231	H	0.795526	0.663975	0.161680
O232	O	0.676664	0.567041	0.427900
C233	C	0.645929	0.532426	0.467564
H234	H	0.667256	0.493553	0.470019
H235	H	0.607000	0.525904	0.441736
C236	C	0.609940	0.603683	0.539452
C237	C	0.636136	0.555939	0.542471
H238	H	0.603897	0.618187	0.585657
H239	H	0.630645	0.627004	0.512728
H240	H	0.577502	0.598241	0.517925
H241	H	0.668576	0.561382	0.563989
H242	H	0.615436	0.532619	0.569201
O243	O	0.814062	0.956564	0.250567
C244	C	0.844773	0.991182	0.210874
H245	H	0.845715	1.030950	0.239710
H246	H	0.827247	0.995435	0.157396
C247	C	0.899564	0.920687	0.165387
C248	C	0.900725	0.969530	0.200807
H249	H	0.934077	0.907331	0.159174
H250	H	0.878872	0.897364	0.192126
H251	H	0.884956	0.924238	0.120826
H252	H	0.915325	0.965978	0.245370
H253	H	0.921420	0.992852	0.174075
H254	H	0.818131	0.189330	0.938004
O255	O	0.676893	1.069516	0.427913
C256	C	0.705287	1.102397	0.473433
H257	H	0.745662	1.109818	0.448669
H258	H	0.709446	1.082876	0.525591
C259	C	0.626556	1.145549	0.516566
C260	C	0.676144	1.154666	0.486147
H261	H	0.608579	1.177790	0.524412
H262	H	0.607426	1.123395	0.485900
H263	H	0.630029	1.129280	0.560028
H264	H	0.672671	1.170929	0.442682
H265	H	0.695274	1.176825	0.516806
H266	H	0.199863	0.164072	0.212792
H267	H	0.692726	0.314588	1.071250
O268	O	0.803453	0.203884	0.602153
C269	C	0.791540	0.152308	0.620147
H270	H	0.749172	0.150262	0.640333
H271	H	0.818311	0.139913	0.662832
C272	C	0.851635	0.117988	0.530080
C273	C	0.799596	0.115474	0.554868
H274	H	0.856606	0.095266	0.489814
H275	H	0.859663	0.152735	0.517958
H276	H	0.873938	0.107660	0.565657
H277	H	0.777295	0.125808	0.519294
H278	H	0.791565	0.080727	0.566982
O279	O	0.799116	0.208197	0.747046
C280	C	0.768109	0.175689	0.789568
H281	H	0.727592	0.171802	0.767401
H282	H	0.764638	0.193499	0.845271
C283	C	0.843422	0.126146	0.817942
C284	C	0.793659	0.121368	0.790713
H285	H	0.859183	0.092639	0.818651
H286	H	0.864312	0.148048	0.789297
H287	H	0.840523	0.140990	0.864359
H288	H	0.796560	0.106531	0.744294
H289	H	0.772770	0.099462	0.819351
H290	H	0.041537	0.325270	0.420770
H291	H	0.291349	0.360056	0.465670
H292	H	0.843276	0.708465	0.212671
H293	H	0.682121	0.463547	0.420753
