data_functionalizedCrystal
_audit_creation_method	'MofGen! by Chris Wilmer'
_symmetry_space_group_name_H-M	'P1'
_symmetry_Int_Tables_number	1
_symmetry_cell_setting	triclinic
loop_
_symmetry_equiv_pos_as_xyz
  x,y,z
_cell_length_a	12.759401
_cell_length_b	16.625546
_cell_length_c	12.759401
_cell_angle_alpha	90.012536
_cell_angle_beta	90.006940
_cell_angle_gamma	90.023993
loop_
_atom_site_label
_atom_site_type_symbol
_atom_site_fract_x
_atom_site_fract_y
_atom_site_fract_z
Zn1	Zn	1.606064	-0.321110	0.593986
Zn2	Zn	1.605975	-0.455911	0.418292
Zn3	Zn	1.430406	-0.321099	0.418321
Zn4	Zn	1.430331	-0.455907	0.593929
O5	O	1.518194	-0.388507	0.506132
O6	O	1.753074	-0.338997	0.570691
O7	O	1.582679	-0.438025	0.271275
O8	O	1.453776	-0.208268	0.441659
O9	O	1.753008	-0.438035	0.441610
O10	O	1.582832	-0.208276	0.570720
O11	O	1.453689	-0.338979	0.271296
O12	O	1.283375	-0.338976	0.441604
O13	O	1.453649	-0.438029	0.740958
O14	O	1.283320	-0.438019	0.570623
O15	O	1.582759	-0.338994	0.740999
O16	O	1.582606	-0.568743	0.441555
O17	O	1.453562	-0.568740	0.570594
C18	C	1.245227	-0.388497	0.506111
C19	C	1.128450	-0.388512	0.506127
C20	C	1.073587	-0.440162	0.573201
C21	C	0.963863	-0.440165	0.573222
C22	C	0.963875	-0.336866	0.439086
C23	C	1.073597	-0.336859	0.439071
C24	C	1.518095	-0.597998	0.506088
C25	C	1.518148	-0.687619	0.506104
C26	C	1.518332	-1.015794	0.506214
C27	C	1.518277	-0.924486	0.506186
C28	C	1.518239	-0.851709	0.506158
C29	C	1.518186	-0.760395	0.506132
C30	C	1.792227	-0.388517	0.506154
C31	C	1.909004	-0.388522	0.506163
C32	C	1.518206	-0.388512	0.780165
C33	C	1.518211	-0.388515	0.896942
C34	C	1.518323	-0.178198	0.506199
C35	C	1.518377	-0.088577	0.506228
C36	C	1.585430	-0.336955	0.951827
C37	C	1.585421	-0.336954	1.061551
C38	C	1.450970	-0.440078	1.061495
C39	C	1.450975	-0.440075	0.951773
C40	C	1.518182	-0.388519	1.233165
C41	C	1.518197	-0.388516	1.116388
H42	H	0.919200	-0.294813	0.384489
H43	H	1.396232	-0.482058	1.106152
F44	F	1.656986	-0.282078	0.893476
H45	H	1.118245	-0.482219	0.627805
F46	F	0.905478	-0.495137	0.644614
F47	F	1.656972	-0.282082	1.119960
H48	H	1.396229	-0.482060	0.907084
H49	H	1.118268	-0.294795	0.384451
