data_functionalizedCrystal
_audit_creation_method	'MofGen! by Chris Wilmer'
_symmetry_space_group_name_H-M	'P1'
_symmetry_Int_Tables_number	1
_symmetry_cell_setting	triclinic
loop_
_symmetry_equiv_pos_as_xyz
  x,y,z
_cell_length_a	25.639242
_cell_length_b	29.839131
_cell_length_c	25.639233
_cell_angle_alpha	89.972761
_cell_angle_beta	89.978417
_cell_angle_gamma	90.030128
loop_
_atom_site_label
_atom_site_type_symbol
_atom_site_fract_x
_atom_site_fract_y
_atom_site_fract_z
Zn1	Zn	0.799238	-0.178969	-0.295703
Zn2	Zn	0.799166	-0.254084	-0.208255
Zn3	Zn	0.711814	-0.178962	-0.208268
Zn4	Zn	0.711764	-0.254066	-0.295645
O5	O	0.755496	-0.216520	-0.251968
O6	O	0.872393	-0.188944	-0.284121
O7	O	0.787570	-0.244123	-0.135091
O8	O	0.723461	-0.116096	-0.219897
O9	O	0.872341	-0.244130	-0.219873
O10	O	0.787691	-0.116101	-0.284135
O11	O	0.723392	-0.188931	-0.135101
O12	O	0.638642	-0.188914	-0.219840
O13	O	0.723377	-0.244100	-0.368818
O14	O	0.638606	-0.244093	-0.284036
O15	O	0.787643	-0.188927	-0.368861
O16	O	0.787522	-0.316948	-0.219817
O17	O	0.723308	-0.316936	-0.284023
C18	C	0.619653	-0.216501	-0.251934
C19	C	0.561539	-0.216504	-0.251932
C20	C	0.310356	-0.187741	-0.218599
C21	C	0.364960	-0.187736	-0.218592
O22	O	0.393205	-0.163254	-0.190222
N23	N	0.392265	-0.216509	-0.251958
C24	C	0.364963	-0.245285	-0.285336
O25	O	0.393202	-0.269758	-0.313716
C26	C	0.310360	-0.245287	-0.285345
C27	C	0.283057	-0.216515	-0.251973
C28	C	0.283053	-0.158971	-0.185231
C29	C	0.228453	-0.158976	-0.185237
C30	C	0.201155	-0.187750	-0.218611
C31	C	0.228457	-0.216520	-0.251980
C32	C	0.283059	-0.274060	-0.318725
C33	C	0.228452	-0.274059	-0.318732
C34	C	0.201149	-0.245287	-0.285360
C35	C	0.146558	-0.245299	-0.285360
N36	N	0.119253	-0.216526	-0.251995
C37	C	0.146551	-0.187752	-0.218620
C38	C	0.479634	-0.245279	-0.285316
C39	C	0.534236	-0.245280	-0.285304
C40	C	0.534229	-0.187731	-0.218561
C41	C	0.479626	-0.187732	-0.218570
C42	C	0.452329	-0.216506	-0.251950
C43	C	0.031886	-0.187764	-0.218635
C44	C	-0.022719	-0.187773	-0.218643
C45	C	-0.022708	-0.245321	-0.285387
C46	C	0.031893	-0.245314	-0.285378
C47	C	0.059189	-0.216532	-0.252000
O48	O	0.118278	-0.269768	-0.313717
O49	O	0.118306	-0.163279	-0.190250
C50	C	0.755416	-0.333243	-0.251924
C51	C	0.755430	-0.383177	-0.251922
C52	C	0.788933	-0.692788	-0.285464
C53	C	0.788989	-0.880461	-0.285496
O54	O	0.817397	-0.904699	-0.313982
N55	N	0.755584	-0.903962	-0.252026
C56	C	0.722160	-0.880542	-0.218548
O57	O	0.693745	-0.904837	-0.190085
C58	C	0.722101	-0.692870	-0.218520
C59	C	0.755512	-0.669371	-0.251988
C60	C	0.822341	-0.669290	-0.318930
C61	C	0.822328	-0.622375	-0.318920
C62	C	0.788908	-0.598958	-0.285444
C63	C	0.755500	-0.622456	-0.251978
C64	C	0.688675	-0.669450	-0.185045
C65	C	0.688662	-0.622529	-0.185042
C66	C	0.722073	-0.599031	-0.218510
C67	C	0.722067	-0.552123	-0.218492
N68	N	0.755472	-0.528623	-0.251961
C69	C	0.788892	-0.552040	-0.285438
C70	C	0.722194	-0.979072	-0.218565
C71	C	0.722210	-1.025990	-0.218571
C72	C	0.789038	-1.025907	-0.285519
C73	C	0.789025	-0.978988	-0.285510
C74	C	0.755599	-0.955572	-0.252035
C75	C	0.788864	-0.453514	-0.285413
C76	C	0.788850	-0.406594	-0.285399
C77	C	0.722020	-0.406682	-0.218452
C78	C	0.722035	-0.453597	-0.218465
C79	C	0.755459	-0.477012	-0.251950
O80	O	0.693670	-0.527857	-0.190025
O81	O	0.817296	-0.527737	-0.313905
C82	C	0.788945	-0.739704	-0.285475
C83	C	0.755537	-0.763202	-0.252009
C84	C	0.722117	-0.739785	-0.218532
C85	C	0.755553	-0.810120	-0.252015
C86	C	0.788973	-0.833537	-0.285491
C87	C	0.822378	-0.810036	-0.318961
C88	C	0.822366	-0.763121	-0.318951
C89	C	0.688712	-0.763286	-0.185063
C90	C	0.688727	-0.810201	-0.185075
C91	C	0.722148	-0.833618	-0.218551
C92	C	0.891869	-0.216540	-0.252002
C93	C	0.949983	-0.216548	-0.252017
C94	C	0.755512	-0.216512	-0.388341
C95	C	0.755520	-0.216509	-0.446455
C96	C	0.755590	-0.099342	-0.252024
C97	C	0.755630	-0.049407	-0.252047
C98	C	0.789025	-0.187695	-0.806846
C99	C	0.789032	-0.187682	-0.861450
O100	O	0.817478	-0.163236	-0.889711
N101	N	0.755577	-0.216404	-0.888738
C102	C	0.722110	-0.245136	-0.861418
O103	O	0.693655	-0.269564	-0.889642
C104	C	0.722101	-0.245146	-0.806815
C105	C	0.755562	-0.216426	-0.779530
C106	C	0.822483	-0.158977	-0.779561
C107	C	0.822477	-0.158990	-0.724961
C108	C	0.789014	-0.187721	-0.697645
C109	C	0.755556	-0.216439	-0.724929
C110	C	0.688632	-0.273875	-0.779496
C111	C	0.688626	-0.273883	-0.724889
C112	C	0.722087	-0.245163	-0.697604
C113	C	0.722087	-0.245183	-0.643013
N114	N	0.755542	-0.216462	-0.615726
C115	C	0.789005	-0.187731	-0.643041
C116	C	0.722130	-0.245113	-0.976089
C117	C	0.722141	-0.245105	-1.030691
C118	C	0.789063	-0.187651	-1.030720
C119	C	0.789054	-0.187661	-0.976116
C120	C	0.755585	-0.216391	-0.948801
C121	C	0.788990	-0.187761	-0.528376
C122	C	0.788983	-0.187778	-0.473771
C123	C	0.722060	-0.245230	-0.473747
C124	C	0.722069	-0.245215	-0.528348
C125	C	0.755536	-0.216477	-0.555661
O126	O	0.693654	-0.269615	-0.614718
O127	O	0.817451	-0.163302	-0.614811
C128	C	0.755509	-0.216496	-0.116125
C129	C	0.755603	-0.216372	-0.058012
H130	H	0.206228	-0.135547	-0.158062
H131	H	0.457411	-0.268714	-0.312496
H132	H	0.661365	-0.297274	-0.702652
H133	H	0.305279	-0.297489	-0.345900
H134	H	0.849533	-0.603245	-0.346174
C135	C	0.825857	-0.156066	-0.946106
C136	C	0.821632	-0.104993	-0.953634
C137	C	0.858436	-0.073396	-0.923626
C138	C	0.899465	-0.092871	-0.886091
C139	C	0.903692	-0.143947	-0.878561
C140	C	0.866888	-0.175544	-0.908569
H141	H	0.791258	-0.090574	-0.981421
H142	H	0.855306	-0.035586	-0.929200
H143	H	0.926710	-0.069481	-0.863878
H144	H	0.934066	-0.158366	-0.850774
H145	H	0.870018	-0.213354	-0.902994
H146	H	0.849572	-0.743992	-0.346204
H147	H	0.206229	-0.297489	-0.345916
H148	H	0.305274	-0.135537	-0.158053
H149	H	0.661385	-0.297262	-0.801701
H150	H	0.694817	-0.268624	-0.451497
H151	H	0.695009	-1.045119	-0.191312
C152	C	0.825871	-0.156043	-1.060774
C153	C	0.825873	-0.156032	-1.120835
C154	C	0.862679	-0.124426	-1.150891
C155	C	0.899483	-0.092831	-1.120885
C156	C	0.899482	-0.092841	-1.060821
C157	C	0.862676	-0.124447	-1.030765
H158	H	0.798627	-0.179422	-1.143051
H159	H	0.862679	-0.124420	-1.195355
H160	H	0.926729	-0.069435	-1.143134
H161	H	0.926727	-0.069451	-1.038605
H162	H	0.862675	-0.124453	-0.986301
H163	H	0.457400	-0.164302	-0.191398
C164	C	0.685273	-0.276810	-0.558372
C165	C	0.707912	-0.312069	-0.595911
C166	C	0.671115	-0.343660	-0.625935
C167	C	0.611678	-0.339993	-0.618419
C168	C	0.589036	-0.304732	-0.580879
C169	C	0.625833	-0.273140	-0.550855
H170	H	0.751914	-0.314785	-0.601476
H171	H	0.687876	-0.369762	-0.653725
H172	H	0.584438	-0.363378	-0.640645
H173	H	0.545034	-0.302016	-0.575314
H174	H	0.609072	-0.247038	-0.523064
H175	H	0.556461	-0.268714	-0.312473
C176	C	0.564262	-0.156074	-0.181850
C177	C	0.601831	-0.120832	-0.204586
C178	C	0.631864	-0.089178	-0.167876
C179	C	0.624329	-0.092766	-0.108431
C180	C	0.586759	-0.128009	-0.085692
C181	C	0.556726	-0.159664	-0.122401
H182	H	0.607410	-0.118175	-0.248594
H183	H	0.659676	-0.063089	-0.184709
H184	H	0.646562	-0.069334	-0.081256
H185	H	0.581180	-0.130667	-0.041684
H186	H	0.528914	-0.185753	-0.105568
C187	C	0.859140	-0.835801	-0.355787
C188	C	0.900209	-0.868045	-0.333180
C189	C	0.936966	-0.893813	-0.370006
C190	C	0.932654	-0.887336	-0.429438
C191	C	0.891584	-0.855091	-0.452048
C192	C	0.854827	-0.829323	-0.415222
H193	H	0.903402	-0.872841	-0.289182
H194	H	0.967369	-0.917683	-0.353269
H195	H	0.959864	-0.906411	-0.456699
H196	H	0.888390	-0.850295	-0.496046
H197	H	0.824424	-0.805453	-0.431959
H198	H	0.694900	-0.268497	-1.052901
C199	C	0.061907	-0.156107	-0.181918
C200	C	0.054421	-0.105041	-0.186299
C201	C	0.084441	-0.073386	-0.149580
C202	C	0.121948	-0.092796	-0.108480
C203	C	0.129436	-0.143864	-0.104097
C204	C	0.099415	-0.175519	-0.140816
H205	H	0.026655	-0.090671	-0.216725
H206	H	0.078898	-0.035582	-0.152824
H207	H	0.144171	-0.069363	-0.081298
H208	H	0.157202	-0.158234	-0.073671
H209	H	0.104958	-0.213323	-0.137572
C210	C	0.061931	-0.276963	-0.322084
C211	C	0.099445	-0.312201	-0.299348
C212	C	0.129479	-0.343846	-0.336059
C213	C	0.121998	-0.340254	-0.395505
C214	C	0.084482	-0.305016	-0.418243
C215	C	0.054448	-0.273370	-0.381533
H216	H	0.104984	-0.314861	-0.255340
H217	H	0.157251	-0.369932	-0.319226
H218	H	0.144231	-0.363680	-0.422680
H219	H	0.078944	-0.302355	-0.462251
H220	H	0.026677	-0.247284	-0.398366
C221	C	-0.052742	-0.276969	-0.322101
C222	C	-0.112804	-0.276967	-0.322109
C223	C	-0.142840	-0.308612	-0.358827
C224	C	-0.112815	-0.340259	-0.395537
C225	C	-0.052750	-0.340263	-0.395531
C226	C	-0.022714	-0.308618	-0.358813
H227	H	-0.135033	-0.253538	-0.294932
H228	H	-0.187304	-0.308609	-0.358831
H229	H	-0.135050	-0.363685	-0.422718
H230	H	-0.030521	-0.363692	-0.422708
H231	H	0.021750	-0.308621	-0.358809
C232	C	0.825632	-0.479266	-0.322243
C233	C	0.885070	-0.472773	-0.318032
C234	C	0.921841	-0.498525	-0.354859
C235	C	0.899175	-0.530770	-0.395896
C236	C	0.839734	-0.537265	-0.400108
C237	C	0.802963	-0.511513	-0.363282
H238	H	0.901852	-0.448901	-0.287653
H239	H	0.965843	-0.493717	-0.351740
H240	H	0.926395	-0.549833	-0.423157
H241	H	0.822952	-0.561136	-0.430488
H242	H	0.758961	-0.516321	-0.366401
H243	H	0.661496	-0.744223	-0.157803
H244	H	0.816059	-0.387463	-0.312652
C245	C	0.685426	-0.953320	-0.181734
C246	C	0.689743	-0.959806	-0.122303
C247	C	0.652977	-0.934056	-0.085470
C248	C	0.611894	-0.901820	-0.108066
C249	C	0.607576	-0.895333	-0.167500
C250	C	0.644342	-0.921082	-0.204334
H251	H	0.720157	-0.983670	-0.105573
H252	H	0.656174	-0.938859	-0.041473
H253	H	0.584678	-0.882759	-0.080800
H254	H	0.577162	-0.871469	-0.184230
H255	H	0.641145	-0.916280	-0.248330
C256	C	0.859110	-0.695043	-0.355756
C257	C	0.918546	-0.688543	-0.351544
C258	C	0.955322	-0.714292	-0.388369
C259	C	0.932661	-0.746540	-0.429406
C260	C	0.873222	-0.753041	-0.433620
C261	C	0.836446	-0.727293	-0.396795
H262	H	0.935324	-0.664670	-0.321164
H263	H	0.999323	-0.709479	-0.385249
H264	H	0.959885	-0.765601	-0.456666
H265	H	0.856445	-0.776915	-0.464000
H266	H	0.792445	-0.732106	-0.399915
C267	C	0.685288	-0.479450	-0.181648
C268	C	0.707979	-0.511717	-0.140633
C269	C	0.671228	-0.537567	-0.103819
C270	C	0.611786	-0.531151	-0.108021
C271	C	0.589092	-0.498883	-0.149038
C272	C	0.625843	-0.473033	-0.185851
H273	H	0.751985	-0.516467	-0.137521
H274	H	0.688029	-0.561454	-0.073456
H275	H	0.584581	-0.550287	-0.080770
H276	H	0.545087	-0.494133	-0.152150
H277	H	0.609043	-0.449146	-0.216215
C278	C	0.685317	-0.276722	-0.946043
C279	C	0.707936	-0.312005	-0.908500
C280	C	0.671122	-0.343613	-0.878457
C281	C	0.611689	-0.339939	-0.885958
C282	C	0.589067	-0.304655	-0.923503
C283	C	0.625881	-0.273046	-0.953546
H284	H	0.751934	-0.314727	-0.902946
H285	H	0.687868	-0.369733	-0.850664
H286	H	0.584437	-0.363337	-0.863719
H287	H	0.545069	-0.301933	-0.929057
H288	H	0.609134	-0.246927	-0.981339
C289	C	0.825800	-1.051670	-0.322346
C290	C	0.866873	-1.083912	-0.299742
C291	C	0.903629	-1.109677	-0.336570
C292	C	0.899313	-1.103202	-0.396002
C293	C	0.858239	-1.070959	-0.418609
C294	C	0.821482	-1.045193	-0.381781
H295	H	0.870069	-1.088707	-0.255744
H296	H	0.934035	-1.133546	-0.319834
H297	H	0.926523	-1.122275	-0.423264
H298	H	0.855043	-1.066164	-0.462607
H299	H	0.791077	-1.021325	-0.398517
H300	H	0.816231	-0.959858	-0.312763
C301	C	0.651914	-0.695288	-0.148234
C302	C	0.656206	-0.688860	-0.088800
C303	C	0.619440	-0.714695	-0.051988
C304	C	0.578381	-0.746959	-0.074611
C305	C	0.574087	-0.753389	-0.134048
C306	C	0.610854	-0.727553	-0.170860
H307	H	0.686601	-0.664975	-0.072051
H308	H	0.622618	-0.709936	-0.007989
H309	H	0.551164	-0.766085	-0.047361
H310	H	0.543692	-0.777274	-0.150798
H311	H	0.607675	-0.732313	-0.214859
C312	C	0.825807	-0.156152	-0.558416
C313	C	0.885239	-0.159834	-0.550916
C314	C	0.922058	-0.128228	-0.580955
C315	C	0.899444	-0.092940	-0.618495
C316	C	0.840009	-0.089256	-0.625997
C317	C	0.803190	-0.120862	-0.595957
H318	H	0.901981	-0.185958	-0.523125
H319	H	0.966056	-0.130955	-0.575402
H320	H	0.926700	-0.069543	-0.640732
H321	H	0.823267	-0.063132	-0.653787
H322	H	0.759192	-0.118135	-0.601511
H323	H	0.816233	-0.164390	-0.451558
C324	C	0.685254	-0.380917	-0.181634
C325	C	0.685238	-0.329309	-0.181633
C326	C	0.648468	-0.303544	-0.144819
C327	C	0.611713	-0.329385	-0.108007
C328	C	0.611727	-0.380996	-0.108006
C329	C	0.648498	-0.406762	-0.144820
H330	H	0.712448	-0.310177	-0.208886
H331	H	0.648458	-0.265338	-0.144820
H332	H	0.584493	-0.310312	-0.080755
H333	H	0.584518	-0.400128	-0.080754
H334	H	0.648508	-0.444968	-0.144819
H335	H	-0.044946	-0.164343	-0.191466
H336	H	0.661521	-0.829330	-0.157816
H337	H	0.661441	-0.603466	-0.157783
H338	H	0.849723	-0.135602	-0.702751
H339	H	0.849733	-0.135578	-0.801796
