data_functionalizedCrystal
_audit_creation_method	'MofGen! by Chris Wilmer'
_symmetry_space_group_name_H-M	'P1'
_symmetry_Int_Tables_number	1
_symmetry_cell_setting	triclinic
loop_
_symmetry_equiv_pos_as_xyz
  x,y,z
_cell_length_a	10.654545
_cell_length_b	19.188930
_cell_length_c	17.666332
_cell_angle_alpha	90.009680
_cell_angle_beta	90.005370
_cell_angle_gamma	83.813930
loop_
_atom_site_label
_atom_site_type_symbol
_atom_site_fract_x
_atom_site_fract_y
_atom_site_fract_z
O1	O	1.665772	0.098047	0.062950
O2	O	2.165772	0.598047	0.562950
O3	O	1.300095	0.107393	0.062954
O4	O	1.800095	0.607393	0.562954
O5	O	1.493486	0.001133	0.062937
O6	O	1.993486	0.501133	0.562937
O7	O	1.472381	0.204306	0.062967
O8	O	1.972381	0.704306	0.562967
O9	O	1.493465	0.001130	-0.062959
O10	O	1.993465	0.501130	0.437041
O11	O	1.300074	0.107390	-0.062942
O12	O	1.800074	0.607390	0.437058
O13	O	1.665751	0.098044	-0.062946
O14	O	2.165751	0.598044	0.437054
Cu15	Cu	1.482910	0.102717	-0.074440
Cu16	Cu	1.982910	0.602717	0.425560
Cu17	Cu	1.482936	0.102720	0.074448
Cu18	Cu	1.982936	0.602720	0.574448
O19	O	1.472360	0.204304	-0.062929
O20	O	1.972360	0.704304	0.437071
C21	C	1.253301	0.106706	0.000006
C22	C	1.753301	0.606706	0.500006
C23	C	1.113901	0.104655	0.000007
C24	C	1.613901	0.604655	0.500007
C25	C	1.048405	0.103688	-0.068620
C26	C	1.548405	0.603688	0.431380
C27	C	0.917427	0.101749	-0.068620
C28	C	1.417427	0.601749	0.431380
C29	C	0.917451	0.101747	0.068640
C30	C	1.417451	0.601747	0.568640
C31	C	1.048428	0.103681	0.068639
C32	C	1.548428	0.603681	0.568639
C33	C	0.748266	0.058274	-0.151076
C34	C	1.248266	0.558274	0.348924
C35	C	0.682762	0.057319	-0.219707
C36	C	1.182762	0.557319	0.280293
C37	C	0.715408	0.098786	-0.280292
C38	C	1.215408	0.598786	0.219708
C39	C	0.813550	0.141225	-0.272250
C40	C	1.313550	0.641225	0.227750
C41	C	0.879045	0.142186	-0.203618
C42	C	1.379045	0.642186	0.296382
C43	C	0.846406	0.100703	-0.143035
C44	C	1.346406	0.600703	0.356965
C45	C	1.217590	0.147162	0.151090
C46	C	1.717590	0.647162	0.651090
C47	C	1.283086	0.148128	0.219723
C48	C	1.783086	0.648128	0.719723
C49	C	1.250442	0.106665	0.280315
C50	C	1.750442	0.606665	0.780315
C51	C	1.152293	0.064236	0.272280
C52	C	1.652293	0.564236	0.772280
C53	C	1.086797	0.063270	0.203648
C54	C	1.586797	0.563270	0.703648
C55	C	1.119450	0.104732	0.143055
C56	C	1.619450	0.604732	0.643055
C57	C	1.492792	-0.024884	-0.000013
C58	C	1.992792	0.475116	0.499987
C59	C	1.490741	-0.102402	-0.000020
C60	C	1.990741	0.397598	0.499980
C61	C	1.604216	-0.146585	-0.000024
C62	C	2.104216	0.353415	0.499976
C63	C	1.602289	-0.219421	-0.000012
C64	C	2.102289	0.280579	0.499988
C65	C	1.486879	-0.248071	-0.000010
C66	C	1.986879	0.251929	0.499990
C67	C	1.373389	-0.203879	-0.000001
C68	C	1.873389	0.296121	0.499999
C69	C	1.375319	-0.131044	-0.000006
C70	C	1.875319	0.368956	0.499994
N71	N	1.398655	-0.356653	-0.042855
N72	N	1.898655	0.143347	0.457145
N73	N	1.396829	-0.425844	-0.042852
N74	N	1.896829	0.074156	0.457148
C75	C	1.481055	-0.467518	0.000005
C76	C	1.981055	0.032482	0.500005
N77	N	1.567196	-0.437389	0.042849
N78	N	2.067196	0.062611	0.542849
N79	N	1.569026	-0.368192	0.042843
N80	N	2.069026	0.131808	0.542843
C81	C	1.484773	-0.327048	-0.000005
C82	C	1.984773	0.172952	0.499995
C83	C	1.592448	-0.590679	0.000014
C84	C	2.092448	-0.090679	0.500014
C85	C	1.590516	-0.663516	0.000031
C86	C	2.090516	-0.163516	0.500031
C87	C	1.361613	-0.647972	0.000034
C88	C	1.861613	-0.147972	0.500034
C89	C	1.363548	-0.575137	0.000025
C90	C	1.863548	-0.075137	0.500025
C91	C	1.478970	-0.546494	0.000012
C92	C	1.978970	-0.046494	0.500012
C93	C	1.712545	0.098731	0.000003
C94	C	2.212545	0.598731	0.500003
C95	C	1.851945	0.100782	0.000007
C96	C	2.351945	0.600782	0.500007
C97	C	1.473054	0.230320	0.000023
C98	C	1.973054	0.730320	0.500023
C99	C	1.475105	0.307838	0.000034
C100	C	1.975105	0.807838	0.500034
N101	N	1.482901	0.102714	-0.179159
N102	N	1.982901	0.602714	0.320841
C103	C	1.568590	0.055678	-0.781217
C104	C	2.068590	0.555678	-0.281217
C105	C	1.568592	0.055680	-0.701969
C106	C	2.068592	0.555680	-0.201969
C107	C	1.482937	0.102714	-0.662341
C108	C	1.982937	0.602714	-0.162341
C109	C	1.397295	0.149761	-0.701966
C110	C	1.897295	0.649761	-0.201966
C111	C	1.397304	0.149763	-0.781212
C112	C	1.897304	0.649763	-0.281212
N113	N	1.371762	0.111036	-0.537926
N114	N	1.871762	0.611036	-0.037926
N115	N	1.371758	0.111030	-0.462646
N116	N	1.871758	0.611030	0.037354
C117	C	1.482907	0.102712	-0.423577
C118	C	1.982907	0.602712	0.076423
N119	N	1.594066	0.094387	-0.462632
N120	N	2.094066	0.594387	0.037368
N121	N	1.594069	0.094389	-0.537919
N122	N	2.094069	0.594389	-0.037919
C123	C	1.482919	0.102717	-0.576412
C124	C	1.982919	0.602717	-0.076412
C125	C	1.568552	0.055673	-0.298031
C126	C	2.068552	0.555673	0.201969
C127	C	1.568556	0.055679	-0.218782
C128	C	2.068556	0.555679	0.281218
C129	C	1.397248	0.149757	-0.218781
C130	C	1.897248	0.649757	0.281219
C131	C	1.397255	0.149754	-0.298028
C132	C	1.897255	0.649754	0.201972
C133	C	1.482906	0.102708	-0.337649
C134	C	1.982906	0.602708	0.162351
N135	N	1.482955	0.102717	0.179167
N136	N	1.982955	0.602717	0.679167
H137	H	0.958946	0.176742	-0.197069
H138	H	1.458946	0.676742	0.302931
Br139	Br	0.953591	0.005688	0.192742
Br140	Br	1.453591	0.505688	0.692742
Br141	Br	1.749087	-0.551803	-0.000012
Br142	Br	2.249087	-0.051803	0.499988
H143	H	0.721688	0.024497	-0.101750
H144	H	1.221688	0.524497	0.398250
Br145	Br	1.756302	-0.279395	-0.000016
Br146	Br	2.256302	0.220605	0.499984
Br147	Br	1.281013	0.213597	-0.165006
Br148	Br	1.781013	0.713597	0.334994
H149	H	1.271144	-0.539162	0.000025
H150	H	1.771144	-0.039162	0.500025
Br151	Br	1.216760	-0.242759	0.000011
Br152	Br	1.716760	0.257241	0.500011
H153	H	1.327517	0.188055	-0.330286
H154	H	1.827517	0.688055	0.169714
H155	H	1.682926	-0.699490	0.000031
H156	H	2.182926	-0.199490	0.500031
Br157	Br	0.626503	0.097492	-0.373431
Br158	Br	1.126503	0.597492	0.126569
Br159	Br	1.107974	0.007968	0.354515
Br160	Br	1.607974	0.507968	0.854515
H161	H	1.282911	-0.095070	-0.000002
H162	H	1.782911	0.404930	0.499998
Br163	Br	1.684796	-0.008172	-0.351804
Br164	Br	2.184796	0.491828	0.148196
H165	H	1.303771	0.107462	0.336201
H166	H	1.803771	0.607462	0.836201
Br167	Br	0.549571	-0.000273	-0.230620
Br168	Br	1.049571	0.499727	0.269380
H169	H	1.244185	0.180923	0.101752
H170	H	1.744185	0.680923	0.601752
H171	H	1.698201	-0.123269	-0.000033
H172	H	2.198201	0.376731	0.499967
Br173	Br	1.416290	0.205712	0.230628
Br174	Br	1.916290	0.705712	0.730628
Br175	Br	0.828592	0.100404	0.161778
Br176	Br	1.328592	0.600404	0.661778
Br177	Br	1.204982	-0.686847	0.000045
Br178	Br	1.704982	-0.186847	0.500045
H179	H	1.638298	0.017377	-0.186526
H180	H	2.138298	0.517377	0.313474
H181	H	1.638335	0.017372	-0.813473
H182	H	2.138335	0.517372	-0.313473
Br183	Br	1.137258	0.105007	-0.161762
Br184	Br	1.637258	0.605007	0.338238
Br185	Br	1.684824	-0.008163	-0.648195
Br186	Br	2.184824	0.491837	-0.148195
H187	H	1.327555	0.188058	-0.669697
H188	H	1.827555	0.688058	-0.169697
Br189	Br	1.281076	0.213607	-0.834982
Br190	Br	1.781076	0.713607	-0.334982
H191	H	0.840105	0.175000	-0.321583
H192	H	1.340105	0.675000	0.178417
