data_functionalizedCrystal
_audit_creation_method	'MofGen! by Chris Wilmer'
_symmetry_space_group_name_H-M	'P1'
_symmetry_Int_Tables_number	1
_symmetry_cell_setting	triclinic
loop_
_symmetry_equiv_pos_as_xyz
  x,y,z
_cell_length_a	15.944493
_cell_length_b	27.731996
_cell_length_c	26.809956
_cell_angle_alpha	89.989805
_cell_angle_beta	89.984219
_cell_angle_gamma	83.048216
loop_
_atom_site_label
_atom_site_type_symbol
_atom_site_fract_x
_atom_site_fract_y
_atom_site_fract_z
O1	O	1.113735	0.062207	-0.041480
O2	O	1.613735	0.562207	0.458520
O3	O	0.869076	0.069923	-0.041483
O4	O	1.369076	0.569923	0.458517
O5	O	0.999027	-0.004302	-0.041470
O6	O	1.499027	0.495698	0.458530
O7	O	0.983784	0.136431	-0.041492
O8	O	1.483784	0.636431	0.458508
O9	O	0.998986	-0.004301	0.041489
O10	O	1.498986	0.495699	0.541489
O11	O	0.869035	0.069923	0.041476
O12	O	1.369035	0.569923	0.541476
O13	O	1.113695	0.062208	0.041480
O14	O	1.613695	0.562208	0.541480
Zn15	Zn	0.991359	0.066065	0.054650
Zn16	Zn	1.491359	0.566065	0.554650
Zn17	Zn	0.991412	0.066065	-0.054653
Zn18	Zn	1.491412	0.566065	0.445347
O19	O	0.983744	0.136432	0.041467
O20	O	1.483744	0.636432	0.541467
C21	C	0.837765	0.069607	-0.000004
C22	C	1.337765	0.569607	0.499996
C23	C	0.744529	0.068662	-0.000004
C24	C	1.244529	0.568662	0.499996
C25	C	0.508184	0.112352	-0.000011
C26	C	1.008184	0.612352	0.499989
C27	C	0.457921	0.088792	0.040898
C28	C	0.957921	0.588792	0.540898
C29	C	0.573831	0.066910	-0.000003
C30	C	1.073831	0.566910	0.499997
C31	C	0.457966	0.088781	-0.040894
C32	C	0.957966	0.588781	0.459106
C33	C	0.408944	0.065222	-0.000004
C34	C	0.908944	0.565222	0.499996
C35	C	0.524797	0.043362	0.040940
C36	C	1.024797	0.543362	0.540940
C37	C	0.524845	0.043358	-0.040888
C38	C	1.024845	0.543358	0.459112
C39	C	0.474616	0.019764	0.000031
C40	C	0.974616	0.519764	0.500031
C41	C	0.668818	0.067884	-0.000002
C42	C	1.168818	0.567884	0.499998
C43	C	0.313960	0.064244	-0.000001
C44	C	0.813960	0.564244	0.499999
C45	C	0.998694	-0.022310	0.000011
C46	C	1.498694	0.477690	0.500011
C47	C	0.997750	-0.075970	0.000016
C48	C	1.497750	0.424030	0.500016
C49	C	0.991839	-0.408712	-0.045230
C50	C	1.491839	0.091288	0.454770
C51	C	0.988257	-0.610385	-0.045238
C52	C	1.488257	-0.110385	0.454762
O53	O	0.987777	-0.636458	-0.083697
O54	O	1.487777	-0.136458	0.416303
N55	N	0.987790	-0.635604	-0.000018
N56	N	1.487790	-0.135604	0.499982
C57	C	0.988213	-0.610401	0.045208
C58	C	1.488213	-0.110401	0.545208
O59	O	0.987725	-0.636478	0.083671
O60	O	1.487725	-0.136478	0.583671
C61	C	0.991789	-0.408728	0.045217
C62	C	1.491789	0.091272	0.545217
C63	C	0.992264	-0.383512	-0.000007
C64	C	1.492264	0.116488	0.499993
C65	C	0.992313	-0.383496	-0.090449
C66	C	1.492313	0.116504	0.409551
C67	C	0.993213	-0.333081	-0.090447
C68	C	1.493213	0.166919	0.409553
C69	C	0.993639	-0.307882	-0.045224
C70	C	1.493639	0.192118	0.454776
C71	C	0.993164	-0.333098	-0.000004
C72	C	1.493164	0.166902	0.499996
C73	C	0.992206	-0.383525	0.090442
C74	C	1.492206	0.116475	0.590442
C75	C	0.993097	-0.333104	0.090440
C76	C	1.493097	0.166896	0.590440
C77	C	0.993573	-0.307888	0.045217
C78	C	1.493573	0.192112	0.545217
C79	C	0.994489	-0.257483	0.045221
C80	C	1.494489	0.242517	0.545221
N81	N	0.994956	-0.232264	0.000000
N82	N	1.494956	0.267736	0.500000
C83	C	0.994531	-0.257464	-0.045222
C84	C	1.494531	0.242536	0.454778
C85	C	0.986338	-0.716282	0.045201
C86	C	1.486338	-0.216282	0.545201
C87	C	0.985446	-0.766700	0.045199
C88	C	1.485446	-0.266700	0.545199
C89	C	0.985488	-0.766681	-0.045248
C90	C	1.485488	-0.266681	0.454752
C91	C	0.986386	-0.716262	-0.045246
C92	C	1.486386	-0.216262	0.454754
C93	C	0.986805	-0.691063	-0.000020
C94	C	1.486805	-0.191063	0.499980
C95	C	0.996422	-0.151589	-0.045213
C96	C	1.496422	0.348411	0.454787
C97	C	0.997325	-0.101170	-0.045207
C98	C	1.497325	0.398830	0.454793
C99	C	0.997278	-0.101193	0.045240
C100	C	1.497278	0.398807	0.545240
C101	C	0.996379	-0.151608	0.045234
C102	C	1.496379	0.348392	0.545234
C103	C	0.995948	-0.176805	0.000003
C104	C	1.495948	0.323195	0.500003
O105	O	0.994961	-0.231378	0.083660
O106	O	1.494961	0.268622	0.583660
O107	O	0.995000	-0.231377	-0.083679
O108	O	1.495000	0.268623	0.416321
C109	C	0.990939	-0.459127	-0.045232
C110	C	1.490939	0.040873	0.454768
C111	C	0.990464	-0.484342	-0.000012
C112	C	1.490464	0.015658	0.499988
C113	C	0.990890	-0.459143	0.045210
C114	C	1.490890	0.040857	0.545210
C115	C	0.989572	-0.534761	-0.000014
C116	C	1.489572	-0.034761	0.499986
C117	C	0.989147	-0.559960	-0.045237
C118	C	1.489147	-0.059960	0.454763
C119	C	0.989614	-0.534741	-0.090457
C120	C	1.489614	-0.034741	0.409543
C121	C	0.990513	-0.484326	-0.090455
C122	C	1.490513	0.015674	0.409545
C123	C	0.990423	-0.484362	0.090431
C124	C	1.490423	0.015638	0.590431
C125	C	0.989524	-0.534777	0.090425
C126	C	1.489524	-0.034777	0.590425
C127	C	0.989099	-0.559976	0.045202
C128	C	1.489099	-0.059976	0.545202
C129	C	1.145006	0.062523	-0.000001
C130	C	1.645006	0.562523	0.499999
C131	C	1.238242	0.063468	-0.000003
C132	C	1.738242	0.563468	0.499997
C133	C	0.984077	0.154440	-0.000015
C134	C	1.484077	0.654440	0.499985
C135	C	0.985020	0.208100	-0.000024
C136	C	1.485020	0.708100	0.499976
N137	N	0.991328	0.066066	0.129246
N138	N	1.491328	0.566066	0.629246
C139	C	1.041948	0.095393	0.473868
C140	C	1.541948	0.595393	0.973868
C141	C	1.041973	0.095394	0.682745
C142	C	1.541973	0.595394	1.182745
O143	O	1.084992	0.120322	0.709746
O144	O	1.584992	0.620322	1.209746
N145	N	0.991425	0.066066	0.708873
N146	N	1.491425	0.566066	1.208873
C147	C	0.940870	0.036732	0.682777
C148	C	1.440870	0.536732	1.182777
O149	O	0.897883	0.011783	0.709793
O150	O	1.397883	0.511783	1.209793
C151	C	0.940850	0.036729	0.473901
C152	C	1.440850	0.536729	0.973901
C153	C	0.991396	0.066063	0.447776
C154	C	1.491396	0.566063	0.947776
C155	C	1.092490	0.124725	0.447743
C156	C	1.592490	0.624725	0.947743
C157	C	1.092480	0.124726	0.395527
C158	C	1.592480	0.624726	0.895527
C159	C	1.041927	0.095396	0.369435
C160	C	1.541927	0.595396	0.869435
C161	C	0.991386	0.066064	0.395560
C162	C	1.491386	0.566064	0.895560
C163	C	0.890301	0.007393	0.447806
C164	C	1.390301	0.507393	0.947806
C165	C	0.890302	0.007394	0.395584
C166	C	1.390302	0.507394	0.895584
C167	C	0.940848	0.036728	0.369459
C168	C	1.440848	0.536728	0.869459
C169	C	0.940823	0.036736	0.317252
C170	C	1.440823	0.536736	0.817252
N171	N	0.991372	0.066064	0.291124
N172	N	1.491372	0.566064	0.791124
C173	C	1.041924	0.095394	0.317216
C174	C	1.541924	0.595394	0.817216
C175	C	0.940883	0.036737	0.792441
C176	C	1.440883	0.536737	1.292441
C177	C	0.940887	0.036738	0.844660
C178	C	1.440887	0.536738	1.344660
C179	C	1.041991	0.095400	0.844624
C180	C	1.541991	0.595400	1.344624
C181	C	1.041982	0.095401	0.792404
C182	C	1.541982	0.595401	1.292404
C183	C	0.991432	0.066065	0.766313
C184	C	1.491432	0.566065	1.266313
C185	C	1.041898	0.095395	0.207558
C186	C	1.541898	0.595395	0.707558
C187	C	1.041881	0.095396	0.155337
C188	C	1.541881	0.595396	0.655337
C189	C	0.940780	0.036732	0.155377
C190	C	1.440780	0.536732	0.655377
C191	C	0.940794	0.036734	0.207594
C192	C	1.440794	0.536734	0.707594
C193	C	0.991359	0.066067	0.233683
C194	C	1.491359	0.566067	0.733683
O195	O	0.897834	0.011817	0.290219
O196	O	1.397834	0.511817	0.790219
O197	O	1.084919	0.120332	0.290191
O198	O	1.584919	0.620332	0.790191
C199	C	1.041958	0.095392	0.526084
C200	C	1.541958	0.595392	1.026084
C201	C	0.991416	0.066060	0.552209
C202	C	1.491416	0.566060	1.052209
C203	C	0.940864	0.036730	0.526117
C204	C	1.440864	0.536730	1.026117
C205	C	0.991420	0.066062	0.604427
C206	C	1.491420	0.566062	1.104427
C207	C	1.041972	0.095392	0.630519
C208	C	1.541972	0.595392	1.130519
C209	C	1.092521	0.124720	0.604392
C210	C	1.592521	0.624720	1.104392
C211	C	1.092510	0.124722	0.552175
C212	C	1.592510	0.624722	1.052175
C213	C	0.890316	0.007401	0.552244
C214	C	1.390316	0.507401	1.052244
C215	C	0.890329	0.007403	0.604461
C216	C	1.390329	0.507403	1.104461
C217	C	0.940881	0.036733	0.630552
C218	C	1.440881	0.536733	1.130552
N219	N	0.991439	0.066068	0.870751
N220	N	1.491439	0.566068	1.370751
H221	H	0.523283	0.151495	0.000021
H222	H	1.023283	0.651495	0.500021
H223	H	0.993597	-0.312555	-0.127273
H224	H	1.493597	0.187445	0.372727
H225	H	0.428709	0.107983	0.075476
H226	H	0.928709	0.607983	0.575476
Br227	Br	0.821698	-0.032420	0.483248
Br228	Br	1.321698	0.467580	0.983248
H229	H	0.428787	0.107981	-0.075474
H230	H	0.928787	0.607981	0.424526
Br231	Br	0.872174	-0.003069	0.119957
Br232	Br	1.372174	0.496931	0.619957
Br233	Br	0.821719	-0.032408	0.639909
Br234	Br	1.321719	0.467592	1.139909
H235	H	0.899718	0.012857	0.865926
H236	H	1.399718	0.512857	1.365926
Br237	Br	0.997975	-0.066952	-0.106586
Br238	Br	1.497975	0.433048	0.393414
H239	H	0.989271	-0.555268	-0.127279
H240	H	1.489271	-0.055268	0.372721
H241	H	0.899625	0.012853	0.228866
H242	H	1.399625	0.512853	0.728866
H243	H	0.459675	-0.019408	0.000060
H244	H	0.959675	0.480592	0.500060
Br245	Br	0.573563	0.011400	-0.098525
Br246	Br	1.073563	0.511400	0.401475
Br247	Br	0.872255	-0.003070	0.757039
Br248	Br	1.372255	0.496930	1.257039
Br249	Br	0.821704	-0.032426	0.360178
Br250	Br	1.321704	0.467574	0.860178
H251	H	0.985071	-0.787227	0.082025
H252	H	1.485071	-0.287227	0.582025
H253	H	0.849150	-0.016484	0.531006
H254	H	1.349150	0.483516	1.031006
Br255	Br	1.161122	0.164528	0.639812
Br256	Br	1.661122	0.664528	1.139812
Br257	Br	1.110524	0.135204	0.242956
Br258	Br	1.610524	0.635204	0.742956
H259	H	1.083140	0.119288	0.771137
H260	H	1.583140	0.619288	1.271137
Br261	Br	1.110599	0.135204	0.880044
Br262	Br	1.610599	0.635204	1.380044
H263	H	1.133670	0.148609	0.530909
H264	H	1.633670	0.648609	1.030909
Br265	Br	0.573239	0.011396	0.098642
Br266	Br	1.073239	0.511396	0.598642
H267	H	0.996066	-0.172098	-0.082044
H268	H	1.496066	0.327902	0.417956
H269	H	0.991964	-0.404008	-0.127277
H270	H	1.491964	0.095992	0.372723
Br271	Br	0.986898	-0.682090	0.106585
Br272	Br	1.486898	-0.182090	0.606585
H273	H	1.083040	0.119285	0.134069
H274	H	1.583040	0.619285	0.634069
H275	H	0.985142	-0.787207	-0.082070
H276	H	1.485142	-0.287207	0.417930
Br277	Br	0.987031	-0.682047	-0.106622
Br278	Br	1.487031	-0.182047	0.393378
H279	H	0.991820	-0.404047	0.127268
H280	H	1.491820	0.095953	0.627268
H281	H	0.996000	-0.172140	0.082058
H282	H	1.496000	0.327860	0.582058
H283	H	0.990900	-0.463800	-0.127281
H284	H	1.490900	0.036200	0.372719
H285	H	0.993426	-0.312588	0.127269
H286	H	1.493426	0.187412	0.627269
Br287	Br	0.997858	-0.066984	0.106611
Br288	Br	1.497858	0.433016	0.606611
H289	H	0.989143	-0.555304	0.127254
H290	H	1.489143	-0.055304	0.627254
Br291	Br	1.161064	0.164548	0.360080
Br292	Br	1.661064	0.664548	0.860080
H293	H	0.990771	-0.463850	0.127257
H294	H	1.490771	0.036150	0.627257
H295	H	1.133660	0.148609	0.468981
H296	H	1.633660	0.648609	0.968981
