data_functionalizedCrystal
_audit_creation_method	'MofGen! by Chris Wilmer'
_symmetry_space_group_name_H-M	'P1'
_symmetry_Int_Tables_number	1
_symmetry_cell_setting	triclinic
loop_
_symmetry_equiv_pos_as_xyz
  x,y,z
_cell_length_a	18.101398
_cell_length_b	21.295416
_cell_length_c	21.295412
_cell_angle_alpha	90.028714
_cell_angle_beta	89.978249
_cell_angle_gamma	89.974402
loop_
_atom_site_label
_atom_site_type_symbol
_atom_site_fract_x
_atom_site_fract_y
_atom_site_fract_z
Zn1	Zn	1.132106	0.250701	-0.356011
Zn2	Zn	1.132009	0.355970	-0.250741
Zn3	Zn	1.008271	0.250710	-0.250747
Zn4	Zn	1.008218	0.355928	-0.355963
O5	O	1.070151	0.303327	-0.303366
O6	O	1.235726	0.264679	-0.342065
O7	O	1.115577	0.342029	-0.162653
O8	O	1.024760	0.162620	-0.264733
O9	O	1.235655	0.342020	-0.264723
O10	O	1.115742	0.162613	-0.342070
O11	O	1.024667	0.264695	-0.162656
O12	O	0.904631	0.264654	-0.264686
O13	O	1.024670	0.341947	-0.444059
O14	O	0.904592	0.341956	-0.341988
O15	O	1.115690	0.264638	-0.444094
O16	O	1.115525	0.444054	-0.264677
O17	O	1.024576	0.444023	-0.341983
C18	C	0.877740	0.303302	-0.303333
C19	C	0.795426	0.303306	-0.303334
C20	C	0.496335	0.303345	-0.303387
C21	C	0.527660	0.254466	-0.254987
C22	C	0.613278	0.254597	-0.254781
C23	C	0.644718	0.303325	-0.303360
C24	C	0.613602	0.369636	-0.285232
C25	C	0.527957	0.369364	-0.284896
C26	C	0.527946	0.286491	-0.370028
C27	C	0.613597	0.285015	-0.369664
C28	C	0.728577	0.303318	-0.303346
C29	C	0.412476	0.303357	-0.303399
C30	C	1.070054	0.466879	-0.303338
C31	C	1.070081	0.536847	-0.303347
C32	C	1.117480	0.569709	-0.263136
C33	C	1.117515	0.635452	-0.263153
C34	C	1.070138	0.668330	-0.303374
C35	C	1.022735	0.635460	-0.343593
C36	C	1.022706	0.569718	-0.343579
N37	N	1.005353	0.771591	-0.308167
N38	N	1.005382	0.834042	-0.308176
C39	C	1.070221	0.866404	-0.303419
N40	N	1.135031	0.833956	-0.298640
N41	N	1.135001	0.771498	-0.298627
C42	C	1.070163	0.739615	-0.303394
C43	C	1.117663	0.970552	-0.263225
C44	C	1.117699	1.036296	-0.263246
C45	C	1.022912	1.036302	-0.343682
C46	C	1.022882	0.970560	-0.343664
C47	C	1.070257	0.937689	-0.303432
C48	C	1.263313	0.303354	-0.303399
C49	C	1.345627	0.303365	-0.303413
C50	C	1.070269	1.139137	-0.303418
C51	C	1.070321	1.069169	-0.303468
C52	C	1.070185	0.303287	-0.467556
C53	C	1.070200	0.303270	-0.537524
C54	C	1.117664	0.262915	-1.037002
C55	C	1.117658	0.262930	-0.971259
C56	C	1.070264	0.303186	-0.938364
C57	C	1.022885	0.343442	-0.971216
C58	C	1.022897	0.343430	-1.036958
N59	N	1.005416	0.308026	-0.835130
N60	N	1.005407	0.308033	-0.772679
C61	C	1.070225	0.303226	-0.740289
N62	N	1.135055	0.298398	-0.772710
N63	N	1.135063	0.298387	-0.835167
C64	C	1.070245	0.303204	-0.867078
C65	C	1.117598	0.262992	-0.636159
C66	C	1.117594	0.263012	-0.570415
C67	C	1.022814	0.343521	-0.570373
C68	C	1.022825	0.343504	-0.636116
C69	C	1.070216	0.303237	-0.669005
C70	C	1.070160	0.303322	-0.139814
C71	C	1.070289	0.303162	-0.069846
H72	H	0.633735	0.265739	-0.205400
H73	H	1.156302	1.063051	-0.230503
C74	C	0.970618	0.671623	-0.387836
C75	C	0.886429	0.662643	-0.382627
C76	C	0.834313	0.698806	-0.426874
C77	C	0.866385	0.743948	-0.476329
C78	C	0.950578	0.752929	-0.481540
C79	C	1.002694	0.716766	-0.437293
H80	H	0.862683	0.629225	-0.346015
H81	H	0.771987	0.692157	-0.423017
H82	H	0.827806	0.770717	-0.509084
H83	H	0.974324	0.786347	-0.518151
H84	H	1.065020	0.723415	-0.441150
C85	C	0.500919	0.388669	-0.219081
C86	C	0.557257	0.404225	-0.167196
C87	C	0.530224	0.423529	-0.101379
C88	C	0.446853	0.427276	-0.087449
C89	C	0.390510	0.411720	-0.139336
C90	C	0.417543	0.392416	-0.205152
H91	H	0.618978	0.401451	-0.177507
H92	H	0.571934	0.435045	-0.062969
H93	H	0.426842	0.441566	-0.038727
H94	H	0.328789	0.414493	-0.129025
H95	H	0.375833	0.380900	-0.243562
H96	H	1.156240	0.943787	-0.230467
H97	H	0.984339	1.063071	-0.376434
C98	C	0.970737	0.934407	-0.387894
C99	C	0.918623	0.970567	-0.432139
C100	C	0.866478	0.934415	-0.476374
C101	C	0.866447	0.862102	-0.476363
C102	C	0.918563	0.825938	-0.432115
C103	C	0.970708	0.862090	-0.387881
H104	H	0.918644	1.024101	-0.432149
H105	H	0.827899	0.961186	-0.509128
H106	H	0.827847	0.835339	-0.509108
H107	H	0.918542	0.772404	-0.432106
H108	H	1.009287	0.835319	-0.355126
H109	H	0.507233	0.407017	-0.318610
H110	H	0.634318	0.205425	-0.266144
C111	C	1.169732	0.218705	-0.672342
C112	C	1.169743	0.218685	-0.744654
C113	C	1.221878	0.174398	-0.780835
C114	C	1.274001	0.130131	-0.744703
C115	C	1.273992	0.130150	-0.672386
C116	C	1.221858	0.174437	-0.636205
H117	H	1.131157	0.251456	-0.771405
H118	H	1.221884	0.174385	-0.834369
H119	H	1.312594	0.097347	-0.771486
H120	H	1.312578	0.097379	-0.645635
H121	H	1.221851	0.174450	-0.582671
C122	C	0.498542	0.269343	-0.188668
C123	C	0.414839	0.269158	-0.175719
C124	C	0.385716	0.284040	-0.109403
C125	C	0.440295	0.299108	-0.056035
C126	C	0.524003	0.299293	-0.068983
C127	C	0.553126	0.284411	-0.135299
H128	H	0.374432	0.258004	-0.215227
H129	H	0.323749	0.283903	-0.099819
H130	H	0.418736	0.310124	-0.006944
H131	H	0.564410	0.310448	-0.029476
H132	H	0.615093	0.284549	-0.144883
H133	H	0.633965	0.407031	-0.319380
C134	C	0.642526	0.389283	-0.220126
C135	C	0.694337	0.345279	-0.183355
C136	C	0.723260	0.364922	-0.118248
C137	C	0.700371	0.428569	-0.089911
C138	C	0.648556	0.472577	-0.126682
C139	C	0.619634	0.452934	-0.191790
H140	H	0.711284	0.298160	-0.204332
H141	H	0.761616	0.332344	-0.091027
H142	H	0.721781	0.443110	-0.041714
H143	H	0.631610	0.519696	-0.105706
H144	H	0.581277	0.485512	-0.219010
C145	C	0.498804	0.222306	-0.392297
C146	C	0.445921	0.184375	-0.350249
C147	C	0.416777	0.120188	-0.372511
C148	C	0.440517	0.093933	-0.436820
C149	C	0.493404	0.131864	-0.478872
C150	C	0.522547	0.196051	-0.456611
H151	H	0.428345	0.203811	-0.302640
H152	H	0.377627	0.092109	-0.341380
H153	H	0.418944	0.046418	-0.453299
H154	H	0.510980	0.112428	-0.526482
H155	H	0.561697	0.224130	-0.487741
H156	H	0.984107	0.542961	-0.376324
H157	H	0.984297	0.376220	-0.944429
C158	C	0.641074	0.219091	-0.388130
C159	C	0.724505	0.206097	-0.393799
C160	C	0.751986	0.140172	-0.412260
C161	C	0.696035	0.087241	-0.425052
C162	C	0.612599	0.100234	-0.419383
C163	C	0.585118	0.166159	-0.400922
H164	H	0.765928	0.245280	-0.384329
H165	H	0.813752	0.130554	-0.416456
H166	H	0.716378	0.038440	-0.438718
H167	H	0.571176	0.061050	-0.428853
H168	H	0.523352	0.175777	-0.396725
C169	C	0.642520	0.329595	-0.420997
C170	C	0.695135	0.383651	-0.403529
C171	C	0.724064	0.428234	-0.454862
C172	C	0.700378	0.418760	-0.523662
C173	C	0.647760	0.364702	-0.541133
C174	C	0.618831	0.320120	-0.489801
H175	H	0.712671	0.390666	-0.352596
H176	H	0.763015	0.468251	-0.441929
H177	H	0.721793	0.451763	-0.561662
H178	H	0.630224	0.357687	-0.592066
H179	H	0.579880	0.280102	-0.502734
C180	C	1.169797	0.218624	-1.073178
C181	C	1.221912	0.174352	-1.037044
C182	C	1.274044	0.130062	-1.073223
C183	C	1.274061	0.130043	-1.145535
C184	C	1.221944	0.174317	-1.181674
C185	C	1.169812	0.218608	-1.145495
H186	H	1.221901	0.174364	-0.983510
H187	H	1.312625	0.097287	-1.046470
H188	H	1.312653	0.097257	-1.172317
H189	H	1.221955	0.174305	-1.235208
H190	H	1.131231	0.251382	-1.172248
H191	H	1.156237	0.230153	-0.944512
H192	H	0.984317	0.376206	-1.063699
H193	H	1.156178	0.230239	-0.543674
H194	H	0.507688	0.322093	-0.406089
C195	C	0.970668	0.387800	-0.534202
C196	C	0.912533	0.360520	-0.489011
C197	C	0.860383	0.404800	-0.452838
C198	C	0.866369	0.476361	-0.461857
C199	C	0.924507	0.503645	-0.507050
C200	C	0.976657	0.459365	-0.543222
H201	H	0.908099	0.307543	-0.482333
H202	H	0.817346	0.384602	-0.419383
H203	H	0.827765	0.509141	-0.435080
H204	H	0.928940	0.556623	-0.513728
H205	H	1.019694	0.479563	-0.576677
H206	H	0.984243	0.376276	-0.662858
H207	H	0.507089	0.205143	-0.266226
C208	C	1.169650	0.671612	-0.218914
C209	C	1.163641	0.662630	-0.147346
C210	C	1.215773	0.698789	-0.103106
C211	C	1.273914	0.743931	-0.130434
C212	C	1.279926	0.752915	-0.202006
C213	C	1.227794	0.716755	-0.246246
H214	H	1.120599	0.629212	-0.127113
H215	H	1.211322	0.692139	-0.050124
H216	H	1.312505	0.770698	-0.097685
H217	H	1.322967	0.786332	-0.222239
H218	H	1.232244	0.723406	-0.299228
H219	H	1.156057	0.542947	-0.230379
