data_functionalizedCrystal
_audit_creation_method	'MofGen! by Chris Wilmer'
_symmetry_space_group_name_H-M	'P1'
_symmetry_Int_Tables_number	1
_symmetry_cell_setting	triclinic
loop_
_symmetry_equiv_pos_as_xyz
  x,y,z
_cell_length_a	12.759401
_cell_length_b	12.645330
_cell_length_c	12.759393
_cell_angle_alpha	89.970244
_cell_angle_beta	89.979062
_cell_angle_gamma	90.013910
loop_
_atom_site_label
_atom_site_type_symbol
_atom_site_fract_x
_atom_site_fract_y
_atom_site_fract_z
Zn1	Zn	1.606283	-0.421945	-0.594026
Zn2	Zn	2.106283	0.078055	-0.094026
Zn3	Zn	1.606181	-0.599246	-0.418348
Zn4	Zn	2.106181	-0.099246	0.081652
Zn5	Zn	1.430582	-0.422001	-0.418361
Zn6	Zn	1.930582	0.077999	0.081639
Zn7	Zn	1.430581	-0.599171	-0.593985
Zn8	Zn	1.930581	-0.099171	-0.093985
O9	O	1.518407	-0.510591	-0.506180
O10	O	2.018407	-0.010591	-0.006180
O11	O	1.753291	-0.445472	-0.570733
O12	O	2.253291	0.054528	-0.070733
O13	O	1.582846	-0.575788	-0.271328
O14	O	2.082846	-0.075788	0.228672
O15	O	1.453932	-0.273647	-0.441685
O16	O	1.953932	0.226353	0.058315
O17	O	1.753216	-0.575734	-0.441663
O18	O	2.253216	-0.075734	0.058337
O19	O	1.583019	-0.273605	-0.570745
O20	O	2.083019	0.226395	-0.070745
O21	O	1.453833	-0.445568	-0.271338
O22	O	1.953833	0.054432	0.228662
O23	O	1.283561	-0.445496	-0.441646
O24	O	1.783561	0.054504	0.058354
O25	O	1.453930	-0.575607	-0.741012
O26	O	1.953930	-0.075607	-0.241012
O27	O	1.283560	-0.575662	-0.570677
O28	O	1.783560	-0.075662	-0.070677
O29	O	1.583018	-0.445400	-0.741041
O30	O	2.083018	0.054600	-0.241041
O31	O	1.582845	-0.747583	-0.441624
O32	O	2.082845	-0.247583	0.058376
O33	O	1.453832	-0.747529	-0.570664
O34	O	1.953832	-0.247529	-0.070664
C35	C	1.245440	-0.510578	-0.506159
C36	C	1.745440	-0.010578	-0.006159
C37	C	1.128663	-0.510598	-0.506175
C38	C	1.628663	-0.010598	-0.006175
C39	C	1.073828	-0.578478	-0.573255
C40	C	1.573828	-0.078478	-0.073255
C41	C	0.964104	-0.578483	-0.573276
C42	C	1.464104	-0.078483	-0.073276
C43	C	0.964059	-0.442722	-0.439127
C44	C	1.464059	0.057278	0.060873
C45	C	1.073781	-0.442714	-0.439112
C46	C	1.573781	0.057286	0.060888
C47	C	1.518356	-0.786021	-0.506161
C48	C	2.018356	-0.286021	-0.006161
C49	C	1.518430	-0.903851	-0.506189
C50	C	2.018430	-0.403851	-0.006189
C51	C	1.599685	-0.948722	-0.425080
C52	C	2.099685	-0.448722	0.074920
C53	C	1.599498	-1.071282	-0.424790
C54	C	2.099498	-0.571282	0.075210
C55	C	1.407712	-1.071862	-0.476440
C56	C	1.907712	-0.571862	0.023560
C57	C	1.408129	-0.949264	-0.475822
C58	C	1.908129	-0.449264	0.024178
C59	C	1.547035	-0.948922	-0.617311
C60	C	2.047035	-0.448922	-0.117311
C61	C	1.549531	-1.071527	-0.616748
C62	C	2.049531	-0.571527	-0.116748
C63	C	1.792440	-0.510605	-0.506201
C64	C	2.292440	-0.010605	-0.006201
C65	C	1.909217	-0.510610	-0.506211
C66	C	2.409217	-0.010610	-0.006211
C67	C	1.518486	-0.510489	-0.780213
C68	C	2.018486	-0.010489	-0.280213
C69	C	1.518519	-0.510446	-0.896990
C70	C	2.018519	-0.010446	-0.396990
C71	C	1.518487	-0.234086	-0.506221
C72	C	2.018487	0.265914	-0.006221
C73	C	1.518521	-0.116255	-0.506239
C74	C	2.018521	0.383745	-0.006239
C75	C	1.585740	-0.442636	-0.951869
C76	C	2.085740	0.057364	-0.451869
C77	C	1.585758	-0.442590	-1.061593
C78	C	2.085758	0.057410	-0.561593
C79	C	1.451331	-0.578173	-1.061550
C80	C	1.951331	-0.078173	-0.561550
C81	C	1.451308	-0.578213	-0.951827
C82	C	1.951308	-0.078213	-0.451827
C83	C	1.518389	-0.510616	-0.233212
C84	C	2.018389	-0.010616	0.266788
C85	C	1.518559	-0.510360	-0.116436
C86	C	2.018559	-0.010360	0.383564
H87	H	0.919361	-0.387455	-0.384526
H88	H	1.419361	0.112545	0.115474
O89	O	1.376077	-0.911497	-0.368237
O90	O	1.876077	-0.411497	0.131763
H91	H	1.376052	-0.823736	-0.366729
H92	H	1.876052	-0.323736	0.133271
H93	H	1.494717	-1.102134	-0.680409
H94	H	1.994717	-0.602134	-0.180409
O95	O	1.574880	-0.908030	-0.316634
O96	O	2.074880	-0.408030	0.183366
H97	H	1.632700	-0.940172	-0.259994
H98	H	2.132700	-0.440172	0.240006
H99	H	1.118429	-0.387431	-0.384487
H100	H	1.618429	0.112569	0.115513
H101	H	0.919462	-0.633756	-0.627901
H102	H	1.419462	-0.133756	-0.127901
O103	O	1.574421	-1.110254	-0.315748
O104	O	2.074421	-0.610254	0.184252
H105	H	1.502006	-1.158853	-0.318008
H106	H	2.002006	-0.658853	0.181992
O107	O	1.378842	-0.651265	-1.120694
O108	O	1.878842	-0.151265	-0.620694
H109	H	1.390155	-0.639853	-1.206211
H110	H	1.890155	-0.139853	-0.706211
H111	H	1.640464	-0.387452	-0.907224
H112	H	2.140464	0.112548	-0.407224
H113	H	1.396562	-0.633431	-0.907144
H114	H	1.896562	-0.133431	-0.407144
O115	O	1.325182	-0.909935	-0.550680
O116	O	1.825182	-0.409935	-0.050680
H117	H	1.284942	-0.978485	-0.587155
H118	H	1.784942	-0.478485	-0.087155
H119	H	1.118509	-0.633751	-0.627865
H120	H	1.618509	-0.133751	-0.127865
H121	H	1.631078	-1.100533	-0.639221
H122	H	2.131078	-0.600533	-0.139221
H123	H	1.681656	-1.101294	-0.443403
H124	H	2.181656	-0.601294	0.056597
O125	O	1.708819	-0.909554	-0.449405
O126	O	2.208819	-0.409554	0.050595
H127	H	1.706318	-0.857683	-0.519561
H128	H	2.206318	-0.357683	-0.019561
H129	H	1.487861	-0.919896	-0.677741
H130	H	1.987861	-0.419896	-0.177741
O131	O	1.325267	-1.110888	-0.551979
O132	O	1.825267	-0.610888	-0.051979
H133	H	1.362497	-1.162403	-0.611746
H134	H	1.862497	-0.662403	-0.111746
H135	H	1.383116	-1.102654	-0.396127
H136	H	1.883116	-0.602654	0.103873
O137	O	1.652095	-0.907754	-0.653498
O138	O	2.152095	-0.407754	-0.153498
H139	H	1.706149	-0.975214	-0.666673
H140	H	2.206149	-0.475214	-0.166673
O141	O	1.658266	-0.369459	-1.120789
O142	O	2.158266	0.130541	-0.620789
H143	H	1.705000	-0.322352	-1.064219
H144	H	2.205000	0.177648	-0.564219
