data_functionalizedCrystal
_audit_creation_method	'MofGen! by Chris Wilmer'
_symmetry_space_group_name_H-M	'P1'
_symmetry_Int_Tables_number	1
_symmetry_cell_setting	triclinic
loop_
_symmetry_equiv_pos_as_xyz
  x,y,z
_cell_length_a	15.995350
_cell_length_b	10.654541
_cell_length_c	15.072220
_cell_angle_alpha	89.999177
_cell_angle_beta	89.991149
_cell_angle_gamma	83.988152
loop_
_atom_site_label
_atom_site_type_symbol
_atom_site_fract_x
_atom_site_fract_y
_atom_site_fract_z
O1	O	-1.111935	-0.161865	0.073707
O2	O	-0.868276	-0.181854	0.073725
O3	O	-0.995708	0.010953	0.073710
O4	O	-0.984502	-0.354672	0.073722
O5	O	-0.995677	0.010942	-0.073855
O6	O	-0.868244	-0.181865	-0.073840
O7	O	-1.111903	-0.161876	-0.073858
Zn8	Zn	-0.990068	-0.171872	-0.097278
Zn9	Zn	-0.990110	-0.171858	0.097145
O10	O	-0.984470	-0.354683	-0.073843
C11	C	-0.837060	-0.181033	-0.000055
C12	C	-0.744095	-0.178556	-0.000048
C13	C	-0.994870	0.057735	-0.000072
C14	C	-0.992410	0.197146	-0.000070
C15	C	-1.143119	-0.162697	-0.000076
C16	C	-1.236083	-0.165174	-0.000077
C17	C	-0.406296	-0.169658	-0.000067
C18	C	-0.452934	-0.032344	-0.000401
C19	C	-0.549638	-0.034822	-0.000062
C20	C	-0.573882	-0.174072	-0.000058
C21	C	-0.533206	-0.241793	0.084207
C22	C	-0.436551	-0.238344	0.084272
C23	C	-0.436192	-0.241193	-0.083538
C24	C	-0.533137	-0.241161	-0.084645
C25	C	-0.668594	-0.176573	-0.000050
C26	C	-0.311584	-0.167161	-0.000069
C27	C	-0.985309	-0.401465	-0.000059
C28	C	-0.987769	-0.540876	-0.000055
N29	N	-0.990046	-0.171881	-0.229967
C30	C	-1.144790	0.227108	-0.000093
C31	C	-1.219821	0.307582	-0.000106
C32	C	-1.217504	0.438570	-0.000103
C33	C	-1.140148	0.489085	-0.000084
C34	C	-1.065117	0.408610	-0.000071
C35	C	-1.067442	0.277621	-0.000077
C36	C	-0.912738	0.378649	-0.000042
C37	C	-0.915053	0.247661	-0.000051
C38	C	-0.835382	0.429164	-0.000024
C39	C	-0.760349	0.348689	-0.000017
C40	C	-0.762670	0.217694	-0.000021
C41	C	-0.840023	0.167187	-0.000038
C42	C	-0.990108	-0.171853	-0.589169
C43	C	-0.921689	-0.274674	-0.551554
C44	C	-0.921849	-0.275050	-0.448728
C45	C	-0.990077	-0.171867	-0.410965
C46	C	-1.077608	-0.200486	-0.448261
C47	C	-1.077225	-0.201217	-0.551119
C48	C	-0.971775	-0.040107	-0.551271
C49	C	-0.969775	-0.040986	-0.448408
C50	C	-0.990064	-0.171872	-0.310251
C51	C	-0.990127	-0.171850	-0.689882
N52	N	-0.990139	-0.171839	0.229834
H53	H	-0.434080	0.022539	-0.060831
C54	C	-1.038156	0.062082	-0.583755
C55	C	-0.999470	0.151806	-0.632502
C56	C	-1.060593	0.245957	-0.662436
H57	H	-1.077309	0.025374	-0.620437
H58	H	-1.066698	0.101813	-0.534303
H59	H	-0.970941	0.112081	-0.681948
H60	H	-0.960322	0.188547	-0.595838
H61	H	-1.089136	0.285688	-0.612983
H62	H	-1.099744	0.209237	-0.699114
H63	H	-1.034354	0.306852	-0.695507
H64	H	-1.093265	-0.297298	-0.575099
C65	C	-1.303721	0.252494	-0.000173
C66	C	-1.289698	0.120556	-0.000198
C67	C	-1.366966	0.069771	-0.000271
H68	H	-1.334730	0.279975	0.051266
H69	H	-1.334637	0.280047	-0.051660
H70	H	-1.258795	0.093014	0.051282
H71	H	-1.258702	0.093041	-0.051634
H72	H	-1.397881	0.097325	-0.051757
H73	H	-1.397968	0.097261	0.051169
H74	H	-1.357461	-0.019752	-0.000296
H75	H	-1.138268	0.595743	-0.000071
C76	C	-0.586968	0.036268	-0.080630
C77	C	-0.522453	0.081836	-0.130059
C78	C	-0.556805	0.147352	-0.204278
H79	H	-0.615563	-0.018967	-0.116376
H80	H	-0.625431	0.105056	-0.061696
H81	H	-0.484004	0.013058	-0.148993
H82	H	-0.493852	0.137089	-0.094339
H83	H	-0.595269	0.216140	-0.185344
H84	H	-0.585400	0.092108	-0.240016
H85	H	-0.513039	0.178288	-0.237820
H86	H	-0.905383	-0.019267	-0.424032
C87	C	-1.031939	0.065645	-0.414087
C88	C	-1.090253	0.016139	-0.358209
C89	C	-1.147547	0.114324	-0.326590
H90	H	-1.002649	0.124002	-0.381918
H91	H	-1.060552	0.107462	-0.462718
H92	H	-1.061643	-0.025657	-0.309585
H93	H	-1.119564	-0.042207	-0.390358
H94	H	-1.176159	0.156141	-0.375221
H95	H	-1.118249	0.172675	-0.294424
H96	H	-1.187124	0.080747	-0.288680
C97	C	-0.552878	-0.378169	0.088584
C98	C	-0.596892	-0.397201	0.166917
C99	C	-0.615019	-0.522817	0.170984
H100	H	-0.586276	-0.395984	0.038956
H101	H	-0.501913	-0.432660	0.087850
H102	H	-0.647849	-0.342728	0.167643
H103	H	-0.563509	-0.379413	0.216559
H104	H	-0.564054	-0.577308	0.170250
H105	H	-0.648415	-0.540621	0.121352
H106	H	-0.644878	-0.535749	0.224136
C107	C	-0.586229	0.036636	0.080695
C108	C	-0.521251	0.082214	0.129373
C109	C	-0.554924	0.148033	0.203782
H110	H	-0.624784	0.105437	0.062016
H111	H	-0.614584	-0.018449	0.116839
H112	H	-0.492909	0.137295	0.093235
H113	H	-0.482690	0.013439	0.148074
H114	H	-0.583279	0.092948	0.239926
H115	H	-0.593479	0.216828	0.185095
H116	H	-0.510841	0.178956	0.236823
H117	H	-0.561321	-0.194748	0.146917
H118	H	-1.278601	0.504094	-0.000106
H119	H	-0.833501	0.535822	-0.000016
H120	H	-0.415382	-0.196307	-0.147409
H121	H	-0.404888	-0.339157	0.088098
C122	C	-0.554346	-0.376574	-0.091615
C123	C	-0.516814	-0.432539	-0.167830
C124	C	-0.536343	-0.557279	-0.174280
H125	H	-0.533811	-0.422528	-0.040726
H126	H	-0.613595	-0.377272	-0.095197
H127	H	-0.457577	-0.431849	-0.164241
H128	H	-0.537343	-0.386623	-0.218732
H129	H	-0.595592	-0.557977	-0.177862
H130	H	-0.515807	-0.603220	-0.123388
H131	H	-0.510887	-0.595263	-0.225996
C132	C	-0.937164	-0.404410	-0.585818
C133	C	-0.950705	-0.483174	-0.514015
C134	C	-0.964954	-0.602699	-0.545544
H135	H	-0.985240	-0.397044	-0.623191
H136	H	-0.889557	-0.439440	-0.618529
H137	H	-0.998307	-0.448153	-0.481318
H138	H	-0.902638	-0.490577	-0.476635
H139	H	-0.917347	-0.637728	-0.578255
H140	H	-1.013029	-0.595319	-0.582917
H141	H	-0.974135	-0.656157	-0.496831
C142	C	-0.394583	-0.376159	-0.084471
C143	C	-0.346971	-0.396702	-0.162061
C144	C	-0.308634	-0.521016	-0.162942
H145	H	-0.358901	-0.389785	-0.034262
H146	H	-0.436564	-0.432932	-0.082661
H147	H	-0.304995	-0.339947	-0.163863
H148	H	-0.382634	-0.383104	-0.212283
H149	H	-0.350615	-0.577788	-0.161132
H150	H	-0.272956	-0.534630	-0.112730
H151	H	-0.276331	-0.534974	-0.215589
H152	H	-0.697372	0.389830	0.000004
C153	C	-1.099532	-0.327211	-0.414086
C154	C	-1.109437	-0.407583	-0.485957
C155	C	-1.129640	-0.524328	-0.454513
H156	H	-1.055612	-0.363671	-0.376854
H157	H	-1.150452	-0.315423	-0.381245
H158	H	-1.058524	-0.419373	-0.518784
H159	H	-1.153359	-0.371163	-0.523196
H160	H	-1.180560	-0.512541	-0.421671
H161	H	-1.085717	-0.560776	-0.417281
H162	H	-1.136371	-0.578871	-0.503272
C163	C	-0.835058	-0.252382	-0.415273
C164	C	-0.782001	-0.238211	-0.487674
C165	C	-0.702036	-0.217351	-0.456895
H166	H	-0.839105	-0.177959	-0.380159
H167	H	-0.812749	-0.322286	-0.380406
H168	H	-0.804305	-0.168313	-0.522526
H169	H	-0.777929	-0.312621	-0.522795
H170	H	-0.679727	-0.287255	-0.422027
H171	H	-0.706092	-0.142930	-0.421780
H172	H	-0.666025	-0.207745	-0.506013
C173	C	-1.147261	-0.105126	-0.584128
C174	C	-1.189733	-0.046669	-0.511456
C175	C	-1.254257	0.041846	-0.541825
H176	H	-1.123969	-0.043310	-0.619134
H177	H	-1.185524	-0.146563	-0.619010
H178	H	-1.151477	-0.005233	-0.476589
H179	H	-1.213044	-0.108453	-0.476444
H180	H	-1.292520	0.000410	-0.576708
H181	H	-1.230958	0.103654	-0.576831
H182	H	-1.283087	0.081512	-0.492523
H183	H	-0.841919	0.060531	-0.000047
H184	H	-0.909292	-0.012587	-0.577258
H185	H	-0.433036	0.022295	0.059693
H186	H	-1.129769	-0.127589	-0.423798
C187	C	-0.411941	-0.172384	0.168284
C188	C	-0.484068	-0.136016	0.218511
C189	C	-0.461436	-0.075233	0.295904
H190	H	-0.374329	-0.228388	0.202077
H191	H	-0.385284	-0.099797	0.152917
H192	H	-0.510711	-0.208594	0.233880
H193	H	-0.521688	-0.079998	0.184745
H194	H	-0.434780	-0.002645	0.280536
H195	H	-0.423823	-0.131245	0.329688
H196	H	-0.510371	-0.050540	0.329988
C197	C	-0.568996	-0.175127	-0.167796
C198	C	-0.503868	-0.129766	-0.216385
C199	C	-0.536877	-0.068911	-0.292980
H200	H	-0.595689	-0.233135	-0.203070
H201	H	-0.608866	-0.106587	-0.151517
H202	H	-0.464012	-0.198297	-0.232666
H203	H	-0.477168	-0.071742	-0.181138
H204	H	-0.576748	-0.000371	-0.276700
H205	H	-0.563571	-0.126927	-0.328245
H206	H	-0.492695	-0.038117	-0.325952
H207	H	-1.146685	0.120452	-0.000107
H208	H	-0.701570	0.152178	-0.000006
H209	H	-0.856442	-0.257903	-0.576311
H210	H	-0.933636	-0.372816	-0.424112
