data_functionalizedCrystal
_audit_creation_method	'MofGen! by Chris Wilmer'
_symmetry_space_group_name_H-M	'P1'
_symmetry_Int_Tables_number	1
_symmetry_cell_setting	triclinic
loop_
_symmetry_equiv_pos_as_xyz
  x,y,z
_cell_length_a	12.594517
_cell_length_b	12.827892
_cell_length_c	12.827885
_cell_angle_alpha	89.973112
_cell_angle_beta	90.021568
_cell_angle_gamma	89.982869
loop_
_atom_site_label
_atom_site_type_symbol
_atom_site_fract_x
_atom_site_fract_y
_atom_site_fract_z
Zn1	Zn	1.627260	0.415988	0.590934
Zn2	Zn	2.127260	0.915988	1.090934
Zn3	Zn	1.627146	0.590765	0.416203
Zn4	Zn	2.127146	1.090765	0.916203
Zn5	Zn	1.449263	0.416038	0.416200
Zn6	Zn	1.949263	0.916038	0.916200
Zn7	Zn	1.449242	0.590687	0.590896
Zn8	Zn	1.949242	1.090687	1.090896
O9	O	1.538228	0.503370	0.503558
O10	O	2.038228	1.003370	1.003558
O11	O	1.776191	0.439184	0.567772
O12	O	2.276191	0.939184	1.067772
O13	O	1.603511	0.567641	0.269966
O14	O	2.103511	1.067641	0.769966
O15	O	1.472931	0.269796	0.439394
O16	O	1.972931	0.769796	0.939394
O17	O	1.776107	0.567592	0.439398
O18	O	2.276107	1.067592	0.939398
O19	O	1.603705	0.269759	0.567770
O20	O	2.103705	0.769759	1.067770
O21	O	1.472821	0.439270	0.269965
O22	O	1.972821	0.939270	0.769965
O23	O	1.300315	0.439194	0.439357
O24	O	1.800315	0.939194	0.939357
O25	O	1.472895	0.567459	0.737137
O26	O	1.972895	1.067459	1.237137
O27	O	1.300299	0.567508	0.567705
O28	O	1.800299	1.067508	1.067705
O29	O	1.603684	0.439108	0.737165
O30	O	2.103684	0.939108	1.237165
O31	O	1.603490	0.736991	0.439361
O32	O	2.103490	1.236991	0.939361
O33	O	1.472785	0.736933	0.567708
O34	O	1.972785	1.236933	1.067708
C35	C	1.261687	0.503349	0.503527
C36	C	1.761687	1.003349	1.003527
C37	C	1.143381	0.503365	0.503539
C38	C	1.643381	1.003365	1.003539
C39	C	1.538152	0.774880	0.503553
C40	C	2.038152	1.274880	1.003553
C41	C	1.538217	0.891033	0.503586
C42	C	2.038217	1.391033	1.003586
C43	C	1.538300	0.503269	0.776128
C44	C	2.038300	1.003269	1.276128
C45	C	1.538331	0.503227	0.892282
C46	C	2.038331	1.003227	1.392282
C47	C	1.074106	0.433480	0.433864
C48	C	1.574106	0.933480	0.933864
C49	C	1.003293	0.528803	0.408165
C50	C	1.503293	1.028803	0.908165
C51	C	1.003396	0.408088	0.529255
C52	C	1.503396	0.908088	1.029255
C53	C	1.074126	0.598738	0.477791
C54	C	1.574126	1.098738	0.977791
C55	C	1.074236	0.477959	0.598925
C56	C	1.574236	0.977959	1.098925
C57	C	1.003455	0.573348	0.573263
C58	C	1.503455	1.073348	1.073263
C59	C	1.815849	0.503391	0.503590
C60	C	2.315849	1.003391	1.003590
C61	C	1.934154	0.503401	0.503603
C62	C	2.434154	1.003401	1.003603
C63	C	1.602969	0.942811	0.440150
C64	C	2.102969	1.442811	0.940150
C65	C	1.603038	1.062862	0.440182
C66	C	2.103038	1.562862	0.940182
C67	C	1.538324	1.230800	0.503599
C68	C	2.038324	1.730800	1.003599
C69	C	1.538344	1.114646	0.503648
C70	C	2.038344	1.614646	1.003648
C71	C	1.538217	0.503394	0.232048
C72	C	2.038217	1.003394	0.732048
C73	C	1.538392	0.503143	0.115896
C74	C	2.038392	1.003143	0.615896
C75	C	1.603057	0.439702	0.944080
C76	C	2.103057	0.939702	1.444080
C77	C	1.603090	0.439656	1.064131
C78	C	2.103090	0.939656	1.564131
H79	H	1.105128	0.374438	0.374869
H80	H	1.605128	0.874438	0.874869
Br81	Br	0.952070	0.671984	0.671520
Br82	Br	1.452070	1.171984	1.171520
Br83	Br	0.951599	0.273772	0.565460
Br84	Br	1.451599	0.773772	1.065460
H85	H	1.482935	0.557571	0.936812
H86	H	1.982935	1.057571	1.436812
H87	H	1.658360	0.898267	0.385818
H88	H	2.158360	1.398267	0.885818
H89	H	1.482979	0.557535	1.071357
H90	H	1.982979	1.057535	1.571357
Br91	Br	1.125686	0.733100	0.441428
Br92	Br	1.625686	1.233100	0.941428
H93	H	1.105421	0.456419	0.679540
H94	H	1.605421	0.956419	1.179540
Br95	Br	1.695433	1.137071	0.349647
Br96	Br	2.195433	1.637071	0.849647
Br97	Br	1.695350	0.349075	0.869871
Br98	Br	2.195350	0.849075	1.369871
H99	H	1.658508	0.385274	1.108676
H100	H	2.158508	0.885274	1.608676
Br101	Br	1.445906	0.965270	0.594162
Br102	Br	1.945906	1.465270	1.094162
H103	H	0.972133	0.550314	0.327527
H104	H	1.472133	1.050314	0.827527
H105	H	1.482899	1.070126	0.557958
H106	H	1.982899	1.570126	1.057958
