data_functionalizedCrystal
_audit_creation_method	'MofGen! by Chris Wilmer'
_symmetry_space_group_name_H-M	'P1'
_symmetry_Int_Tables_number	1
_symmetry_cell_setting	triclinic
loop_
_symmetry_equiv_pos_as_xyz
  x,y,z
_cell_length_a	18.050589
_cell_length_b	18.050591
_cell_length_c	18.050591
_cell_angle_alpha	89.989914
_cell_angle_beta	90.000604
_cell_angle_gamma	89.978346
loop_
_atom_site_label
_atom_site_type_symbol
_atom_site_fract_x
_atom_site_fract_y
_atom_site_fract_z
Zn1	Zn	-0.295966	-1.135200	0.420090
Zn2	Zn	-0.420111	-1.135138	0.295909
Zn3	Zn	-0.295925	-1.011046	0.295897
Zn4	Zn	-0.420104	-1.010967	0.420041
O5	O	-0.358026	-1.073088	0.357984
O6	O	-0.312454	-1.239116	0.403643
O7	O	-0.403623	-1.118684	0.191983
O8	O	-0.192006	-1.027575	0.312387
O9	O	-0.403663	-1.239071	0.312408
O10	O	-0.192036	-1.118790	0.403631
O11	O	-0.312384	-1.027515	0.191974
O12	O	-0.312378	-0.907111	0.312339
O13	O	-0.403651	-1.027439	0.523972
O14	O	-0.403612	-0.907053	0.403547
O15	O	-0.312447	-1.118713	0.524008
O16	O	-0.524035	-1.118607	0.312360
O17	O	-0.524030	-1.027379	0.403559
C18	C	-0.357990	-0.880136	0.357937
C19	C	-0.357993	-0.797590	0.357934
C20	C	-0.308315	-0.548774	0.308440
C21	C	-0.290257	-0.598191	0.376217
C22	C	-0.358015	-0.500469	0.357980
C23	C	-0.376026	-0.598134	0.290184
C24	C	-0.358002	-0.646454	0.357954
C25	C	-0.339922	-0.548799	0.425793
C26	C	-0.425723	-0.548738	0.339714
C27	C	-0.407691	-0.598132	0.407538
C28	C	-0.358020	-0.416371	0.357994
C29	C	-0.357997	-0.730551	0.357948
C30	C	-0.550979	-1.072998	0.357972
C31	C	-0.633524	-1.073028	0.357991
C32	C	-0.832999	-1.023467	0.407568
C33	C	-0.882410	-1.005384	0.339798
C34	C	-0.784655	-1.073101	0.358001
C35	C	-0.882325	-1.091220	0.425779
C36	C	-0.930640	-1.073170	0.358016
C37	C	-0.832979	-1.054982	0.290195
C38	C	-0.832889	-1.140850	0.376222
C39	C	-0.882278	-1.122793	0.308405
C40	C	-0.700556	-1.073059	0.357993
C41	C	-1.014736	-1.073211	0.358017
C42	C	-0.164321	-1.073198	0.358013
C43	C	-0.081775	-1.073245	0.358025
C44	C	-0.358053	-1.073074	0.551690
C45	C	-0.358064	-1.073068	0.634235
C46	C	-0.358050	-0.266793	0.358019
C47	C	-0.358027	-0.349339	0.358000
C48	C	-0.407655	-1.023428	0.833667
C49	C	-0.425831	-1.091172	0.883069
C50	C	-0.358054	-1.073071	0.785366
C51	C	-0.339902	-1.005332	0.883046
C52	C	-0.358046	-1.073069	0.931351
C53	C	-0.376266	-1.140851	0.833681
C54	C	-0.290305	-1.054966	0.833653
C55	C	-0.308456	-1.122757	0.883033
C56	C	-0.358061	-1.073072	0.701268
C57	C	-0.358039	-1.073076	1.015447
C58	C	-0.358024	-1.073089	1.165032
C59	C	-0.358033	-1.073073	1.082486
H60	H	-0.391266	-0.619807	0.232861
H61	H	-0.483121	-1.106490	0.904774
C62	C	-0.212933	-1.034243	0.804302
N63	N	-0.154655	-1.018626	0.782192
C64	C	-0.464370	-0.966794	0.804366
N65	N	-0.507090	-0.924145	0.782291
C66	C	-0.911797	-0.928023	0.318981
N67	N	-0.933929	-0.869753	0.303307
H68	H	-0.324553	-0.948046	0.904731
H69	H	-0.391680	-1.198153	0.812087
C70	C	-0.251501	-0.519489	0.251932
N71	N	-0.208706	-0.497429	0.209374
H72	H	-0.266507	-1.164786	0.904572
C73	C	-0.803820	-1.034222	0.212748
N74	N	-0.781856	-1.018582	0.154416
H75	H	-0.324616	-0.527218	0.483133
C76	C	-0.803468	-1.218183	0.397073
N77	N	-0.781301	-1.276429	0.412788
C78	C	-0.212897	-0.627540	0.397079
N79	N	-0.154627	-0.649644	0.412788
C80	C	-0.464470	-0.627220	0.464183
N81	N	-0.507235	-0.649126	0.506849
C82	C	-0.503060	-0.519362	0.318821
N83	N	-0.561311	-0.497234	0.303076
H84	H	-0.904001	-1.106518	0.483091
C85	C	-0.911332	-1.179535	0.251721
N86	N	-0.933219	-1.222270	0.209025
C87	C	-0.803758	-0.966680	0.464112
N88	N	-0.781731	-0.923906	0.506697
