data_functionalizedCrystal
_audit_creation_method	'MofGen! by Chris Wilmer'
_symmetry_space_group_name_H-M	'P1'
_symmetry_Int_Tables_number	1
_symmetry_cell_setting	triclinic
loop_
_symmetry_equiv_pos_as_xyz
  x,y,z
_cell_length_a	16.776229
_cell_length_b	17.699104
_cell_length_c	17.699104
_cell_angle_alpha	96.708483
_cell_angle_beta	89.992410
_cell_angle_gamma	90.008863
loop_
_atom_site_label
_atom_site_type_symbol
_atom_site_fract_x
_atom_site_fract_y
_atom_site_fract_z
O1	O	-0.066321	-1.004076	0.095787
O2	O	0.433679	-0.504076	0.595787
O3	O	-0.066316	-0.783700	0.108223
O4	O	0.433684	-0.283700	0.608223
O5	O	-0.066312	-0.900106	-0.008183
O6	O	0.433688	-0.400106	0.491817
O7	O	-0.066326	-0.887670	0.212193
O8	O	0.433674	-0.387670	0.712193
O9	O	0.066265	-0.900091	-0.008190
O10	O	0.566265	-0.400091	0.491810
O11	O	0.066260	-0.783685	0.108216
O12	O	0.566260	-0.283685	0.608216
O13	O	0.066255	-1.004060	0.095780
O14	O	0.566255	-0.504060	0.595780
Zn15	Zn	0.087307	-0.893870	0.101997
Zn16	Zn	0.587307	-0.393870	0.601997
Zn17	Zn	-0.087368	-0.893891	0.102006
Zn18	Zn	0.412632	-0.393891	0.602006
O19	O	0.066251	-0.887655	0.212186
O20	O	0.566251	-0.387655	0.712186
C21	C	-0.000027	-0.755496	0.107771
C22	C	0.499973	-0.255496	0.607771
C23	C	-0.000025	-0.671479	0.106426
C24	C	0.499975	-0.171479	0.606426
N25	N	0.206518	-0.893862	0.101990
N26	N	0.706518	-0.393862	0.601990
N27	N	-0.206579	-0.893905	0.102007
N28	N	0.293421	-0.393905	0.602007
C29	C	-0.000023	-0.899650	-0.036383
C30	C	0.499977	-0.399650	0.463617
C31	C	-0.000023	-0.898305	-0.120400
C32	C	0.499977	-0.398305	0.379600
C33	C	0.248237	-0.945422	0.050467
C34	C	0.748237	-0.445422	0.550467
C35	C	0.331690	-0.945426	0.050466
C36	C	0.831690	-0.445426	0.550466
C37	C	0.373421	-0.893873	0.101993
C38	C	0.873421	-0.393873	0.601993
C39	C	0.331696	-0.842308	0.153519
C40	C	0.831696	-0.342308	0.653519
C41	C	0.248246	-0.842301	0.153515
C42	C	0.748246	-0.342301	0.653515
C43	C	0.668243	-0.842335	0.153533
C44	C	1.168243	-0.342335	0.653533
C45	C	0.751700	-0.842348	0.153535
C46	C	1.251700	-0.342348	0.653535
C47	C	0.751687	-0.945461	0.050484
C48	C	1.251687	-0.445461	0.550484
C49	C	0.668237	-0.945453	0.050481
C50	C	1.168237	-0.445453	0.550481
C51	C	0.626519	-0.893886	0.102003
C52	C	1.126519	-0.393886	0.602003
C53	C	0.536031	-0.893881	0.102003
C54	C	1.036031	-0.393881	0.602003
C55	C	0.463908	-0.893881	0.101998
C56	C	0.963908	-0.393881	0.601998
C57	C	-0.000029	-0.146612	0.167169
C58	C	0.499971	0.353388	0.667169
C59	C	-0.000033	-0.225556	0.168429
C60	C	0.499967	0.274444	0.668429
C61	C	-0.000029	-0.274168	0.100094
C62	C	0.499971	0.225832	0.600094
C63	C	-0.000030	-0.243833	0.030496
C64	C	0.499970	0.256167	0.530496
C65	C	-0.000032	-0.164891	0.029238
C66	C	0.499968	0.335109	0.529238
C67	C	-0.000022	-0.562200	0.035569
C68	C	0.499978	-0.062200	0.535569
C69	C	-0.000018	-0.641147	0.036833
C70	C	0.499982	-0.141147	0.536833
C71	C	-0.000023	-0.622865	0.174760
C72	C	0.499977	-0.122865	0.674760
C73	C	-0.000025	-0.543922	0.173502
C74	C	0.499975	-0.043922	0.673502
C75	C	-0.000030	-0.513594	0.103904
C76	C	0.499970	-0.013594	0.603904
C77	C	-0.000028	-0.427994	0.102540
C78	C	0.499972	0.072006	0.602540
C79	C	-0.000026	-0.359767	0.101458
C80	C	0.499974	0.140233	0.601458
C81	C	-0.000032	-0.032265	0.096232
C82	C	0.499968	0.467735	0.596232
C83	C	-0.000028	-0.116282	0.097577
C84	C	0.499972	0.383718	0.597577
C85	C	-0.000047	-0.959048	-0.645267
C86	C	0.499953	-0.459048	-0.145267
C87	C	-0.000040	-0.960307	-0.566323
C88	C	0.499960	-0.460307	-0.066323
C89	C	-0.000037	-0.891973	-0.517711
C90	C	0.499963	-0.391973	-0.017711
C91	C	-0.000032	-0.822375	-0.548045
C92	C	0.499968	-0.322375	-0.048045
C93	C	-0.000034	-0.821117	-0.626988
C94	C	0.499966	-0.321117	-0.126988
C95	C	-0.000026	-0.827448	-0.229679
C96	C	0.499974	-0.327448	0.270321
C97	C	-0.000027	-0.828712	-0.150732
C98	C	0.499973	-0.328712	0.349268
C99	C	-0.000032	-0.966639	-0.169014
C100	C	0.499968	-0.466639	0.330986
C101	C	-0.000034	-0.965381	-0.247957
C102	C	0.499966	-0.465381	0.252043
C103	C	-0.000025	-0.895783	-0.278285
C104	C	0.499975	-0.395783	0.221715
C105	C	-0.000031	-0.894418	-0.363885
C106	C	0.499969	-0.394418	0.136115
C107	C	-0.000036	-0.893337	-0.432112
C108	C	0.499964	-0.393337	0.067888
C109	C	-0.000039	-0.888111	0.240386
C110	C	0.499961	-0.388111	0.740386
C111	C	-0.000045	-0.889456	0.324403
C112	C	0.499955	-0.389456	0.824403
H113	H	0.214265	-0.987405	0.008511
H114	H	0.714265	-0.487405	0.508511
F115	F	0.376111	-0.787437	0.208355
F116	F	0.876111	-0.287437	0.708355
F117	F	-0.000058	-1.034378	-0.534047
F118	F	0.499942	-0.534378	-0.034047
H119	H	0.365657	-0.987410	0.008511
H120	H	0.865657	-0.487410	0.508511
H121	H	-0.000025	-0.504345	0.229147
H122	H	0.499975	-0.004345	0.729147
F123	F	0.796092	-1.000342	-0.004354
F124	F	1.296092	-0.500342	0.495646
F125	F	-0.000043	-0.529933	-0.038503
F126	F	0.499957	-0.029933	0.461497
F127	F	-0.000038	-1.040712	-0.136731
F128	F	0.499962	-0.540712	0.363269
H129	H	0.214279	-0.800314	0.195469
H130	H	0.714279	-0.300314	0.695469
F131	F	-0.000028	-0.295573	-0.042231
F132	F	0.499972	0.204427	0.457769
H133	H	-0.000028	-0.770777	-0.254362
H134	H	0.499972	-0.270777	0.245638
H135	H	0.634261	-0.987435	0.008525
H136	H	1.134261	-0.487435	0.508525
F137	F	-0.000023	-0.655148	0.248833
F138	F	0.499977	-0.155148	0.748833
F139	F	-0.000015	-0.692884	-0.035902
F140	F	0.499985	-0.192884	0.464098
H141	H	-0.000032	-0.140198	-0.027432
H142	H	0.499968	0.359802	0.472568
H143	H	-0.000057	-1.014695	-0.684842
H144	H	0.499943	-0.514695	-0.184842
F145	F	-0.000040	-1.038111	-0.299690
F146	F	0.499960	-0.538111	0.200310
H147	H	-0.000025	-0.766736	-0.508459
H148	H	0.499975	-0.266736	-0.008459
H149	H	-0.000022	-0.773062	-0.111152
H150	H	0.499978	-0.273062	0.388848
H151	H	0.634284	-0.800348	0.195486
H152	H	1.134284	-0.300348	0.695486
F153	F	-0.000028	-0.747046	-0.659267
F154	F	0.499972	-0.247046	-0.159267
H155	H	0.785677	-0.800364	0.195495
H156	H	1.285677	-0.300364	0.695495
H157	H	-0.000042	-0.250246	0.225098
H158	H	0.499958	0.249754	0.725098
F159	F	-0.000027	-0.094882	0.239902
F160	F	0.499973	0.405118	0.739902
