data_functionalizedCrystal
_audit_creation_method	'MofGen! by Chris Wilmer'
_symmetry_space_group_name_H-M	'P1'
_symmetry_Int_Tables_number	1
_symmetry_cell_setting	triclinic
loop_
_symmetry_equiv_pos_as_xyz
  x,y,z
_cell_length_a	15.944551
_cell_length_b	8.559649
_cell_length_c	7.088929
_cell_angle_alpha	95.324505
_cell_angle_beta	96.219322
_cell_angle_gamma	103.361299
loop_
_atom_site_label
_atom_site_type_symbol
_atom_site_fract_x
_atom_site_fract_y
_atom_site_fract_z
O1	O	0.018803	2.103724	-0.158983
O2	O	-0.024576	1.638525	-0.158981
O3	O	0.120207	1.883827	-0.158993
O4	O	-0.125981	1.858422	-0.158971
O5	O	0.139595	1.916609	0.158980
O6	O	-0.005188	1.671307	0.158993
O7	O	0.038191	2.136506	0.158990
Cu8	Cu	0.018272	1.906900	0.188025
Cu9	Cu	-0.004657	1.868131	-0.188015
O10	O	-0.106593	1.891204	0.159003
C11	C	-0.018169	1.595386	0.000006
C12	C	-0.027955	1.418007	0.000006
C13	C	-0.147512	1.875868	0.000019
C14	C	-0.240554	1.879031	0.000027
C15	C	-0.445112	2.038636	-0.000003
C16	C	-0.501352	1.980683	0.156777
C17	C	-0.410912	1.884750	0.000010
C18	C	-0.520455	1.948326	-0.156720
C19	C	-0.575468	1.890284	-0.000015
C20	C	-0.465918	1.826767	0.156919
C21	C	-0.485022	1.794418	-0.156719
C22	C	-0.541249	1.736356	0.000099
C23	C	-0.316114	1.881566	0.000026
C24	C	-0.670265	1.893457	-0.000017
C25	C	0.161127	1.899162	-0.000013
C26	C	0.254167	1.895998	-0.000034
C27	C	0.031784	2.179644	-0.000001
C28	C	0.041568	2.357022	-0.000013
N29	N	0.034399	1.934179	0.452512
N30	N	-0.020777	1.840864	-0.452502
H31	H	-0.403553	2.166388	0.000151
C32	C	-0.097137	1.712095	0.438753
C33	C	-0.175030	1.743228	0.487271
C34	C	-0.245392	1.624651	0.387102
H35	H	-0.093086	1.608694	0.471401
H36	H	-0.096086	1.713962	0.305228
H37	H	-0.176080	1.741345	0.620766
H38	H	-0.179110	1.846607	0.454618
H39	H	-0.244342	1.626519	0.253577
H40	H	-0.241332	1.521259	0.419758
H41	H	-0.298251	1.645768	0.419994
C42	C	-0.552570	2.016657	-0.333518
C43	C	-0.621490	1.900235	-0.441967
C44	C	-0.651100	1.963144	-0.604820
H45	H	-0.506502	2.044643	-0.408046
H46	H	-0.571988	2.110313	-0.295886
H47	H	-0.602070	1.806608	-0.479601
H48	H	-0.667575	1.872237	-0.367496
H49	H	-0.670518	2.056801	-0.567188
H50	H	-0.605027	1.991129	-0.679331
H51	H	-0.697870	1.884168	-0.678413
C52	C	0.110676	2.063288	0.561022
C53	C	0.158963	2.144987	0.430707
C54	C	0.229228	2.263940	0.530596
H55	H	0.146715	2.013894	0.639127
H56	H	0.089542	2.137978	0.639057
H57	H	0.180097	2.070309	0.352706
H58	H	0.122950	2.194415	0.352599
H59	H	0.208094	2.338630	0.608630
H60	H	0.265259	2.214533	0.608697
H61	H	0.261994	2.319397	0.442193
C62	C	-0.117354	1.306730	-0.000397
C63	C	-0.172024	1.318794	-0.164000
C64	C	-0.254382	1.216283	-0.164451
H65	H	-0.141170	1.337452	0.110365
H66	H	-0.112322	1.198271	-0.000521
H67	H	-0.177059	1.427230	-0.163859
H68	H	-0.148236	1.288059	-0.274789
H69	H	-0.249350	1.107824	-0.164574
H70	H	-0.278189	1.247015	-0.053682
H71	H	-0.291483	1.224444	-0.275461
C72	C	0.130856	1.468501	-0.000307
C73	C	0.130634	1.548471	-0.163860
C74	C	0.212865	1.651194	-0.164183
H75	H	0.173235	1.406648	-0.000420
H76	H	0.144402	1.545816	0.110529
H77	H	0.117099	1.471168	-0.274667
H78	H	0.088273	1.610356	-0.163781
H79	H	0.226411	1.728508	-0.053348
H80	H	0.255238	1.589328	-0.164292
H81	H	0.212723	1.705477	-0.275142
H82	H	-0.509176	2.059436	0.289322
H83	H	-0.442034	1.775409	0.289607
H84	H	-0.477172	1.715718	-0.289270
C85	C	-0.596401	1.565914	0.000603
C86	C	-0.568537	1.503062	0.165045
C87	C	-0.619330	1.346069	0.165597
H88	H	-0.590494	1.499289	-0.109582
H89	H	-0.655667	1.568686	-0.000350
H90	H	-0.509285	1.500279	0.165980
H91	H	-0.574446	1.569641	0.275256
H92	H	-0.678597	1.348841	0.164644
H93	H	-0.613421	1.279458	0.055405
H94	H	-0.600438	1.303409	0.277176
