data_functionalizedCrystal
_audit_creation_method	'MofGen! by Chris Wilmer'
_symmetry_space_group_name_H-M	'P1'
_symmetry_Int_Tables_number	1
_symmetry_cell_setting	triclinic
loop_
_symmetry_equiv_pos_as_xyz
  x,y,z
_cell_length_a	27.732048
_cell_length_b	27.732048
_cell_length_c	18.366186
_cell_angle_alpha	89.988789
_cell_angle_beta	89.996446
_cell_angle_gamma	82.642655
loop_
_atom_site_label
_atom_site_type_symbol
_atom_site_fract_x
_atom_site_fract_y
_atom_site_fract_z
O1	O	0.640930	0.057518	-0.060464
O2	O	1.140930	0.557518	0.439536
O3	O	0.500137	0.066263	-0.060487
O4	O	1.000137	0.566263	0.439513
O5	O	0.574906	-0.008506	-0.060461
O6	O	1.074906	0.491494	0.439539
O7	O	0.566161	0.132287	-0.060490
O8	O	1.066161	0.632287	0.439510
O9	O	0.574894	-0.008510	0.060639
O10	O	1.074894	0.491490	0.560639
O11	O	0.500124	0.066260	0.060613
O12	O	1.000124	0.566260	0.560613
O13	O	0.640918	0.057514	0.060636
O14	O	1.140918	0.557514	0.560636
Zn15	Zn	0.570519	0.061886	0.079851
Zn16	Zn	1.070519	0.561886	0.579851
Zn17	Zn	0.570535	0.061891	-0.079702
Zn18	Zn	1.070535	0.561891	0.420298
O19	O	0.566148	0.132284	0.060610
O20	O	1.066148	0.632284	0.560610
C21	C	0.482124	0.066078	0.000060
C22	C	0.982124	0.566078	0.500060
C23	C	0.428469	0.065525	0.000052
C24	C	0.928469	0.565525	0.500052
C25	C	0.089654	0.106229	0.000075
C26	C	0.589654	0.606229	0.500075
C27	C	-0.112006	0.104178	0.000082
C28	C	0.387994	0.604178	0.500082
O29	O	-0.143262	0.141398	0.000106
O30	O	0.356738	0.641398	0.500106
N31	N	-0.131130	0.059843	0.000090
N32	N	0.368870	0.559843	0.500090
C33	C	-0.099835	0.016017	0.000101
C34	C	0.400165	0.516017	0.500101
O35	O	-0.120728	-0.021740	0.000115
O36	O	0.379272	0.478260	0.500115
C37	C	0.101824	0.018068	0.000099
C38	C	0.601824	0.518068	0.500099
C39	C	0.120944	0.062407	0.000084
C40	C	0.620944	0.562407	0.500084
C41	C	0.108775	0.150563	0.000061
C42	C	0.608775	0.650563	0.500061
C43	C	0.159187	0.151075	0.000055
C44	C	0.659187	0.651075	0.500055
C45	C	0.190477	0.107253	0.000064
C46	C	0.690477	0.607253	0.500064
C47	C	0.171356	0.062919	0.000078
C48	C	0.671356	0.562919	0.500078
C49	C	0.133117	-0.025757	0.000115
C50	C	0.633117	0.474243	0.500115
C51	C	0.183535	-0.025240	0.000117
C52	C	0.683535	0.474760	0.500117
C53	C	0.202655	0.019098	0.000101
C54	C	0.702655	0.519098	0.500101
C55	C	0.253059	0.019609	0.000081
C56	C	0.753059	0.519609	0.500081
N57	N	0.272183	0.063944	0.000073
N58	N	0.772183	0.563944	0.500073
C59	C	0.240892	0.107766	0.000065
C60	C	0.740892	0.607766	0.500065
C61	C	-0.205709	0.014943	0.000100
C62	C	0.294291	0.514943	0.500100
C63	C	-0.256124	0.014430	0.000099
C64	C	0.243876	0.514430	0.500099
C65	C	-0.268291	0.102591	0.000082
C66	C	0.231709	0.602591	0.500082
C67	C	-0.217876	0.103104	0.000078
C68	C	0.282124	0.603104	0.500078
C69	C	-0.186585	0.059278	0.000092
C70	C	0.313415	0.559278	0.500092
C71	C	0.346761	0.108839	0.000052
C72	C	0.846761	0.608839	0.500052
C73	C	0.397178	0.109347	0.000043
C74	C	0.897178	0.609347	0.500043
C75	C	0.409341	0.021186	0.000065
C76	C	0.909341	0.521186	0.500065
C77	C	0.358929	0.020678	0.000069
C78	C	0.858929	0.520678	0.500069
C79	C	0.327639	0.064508	0.000066
C80	C	0.827639	0.564508	0.500066
O81	O	0.284343	-0.017592	0.000066
O82	O	0.784343	0.482408	0.500066
O83	O	0.261794	0.145518	0.000066
O84	O	0.761794	0.645518	0.500066
C85	C	0.039242	0.105716	0.000081
C86	C	0.539242	0.605716	0.500081
C87	C	0.020120	0.061382	0.000095
C88	C	0.520120	0.561382	0.500095
C89	C	0.051411	0.017560	0.000104
C90	C	0.551411	0.517560	0.500104
C91	C	-0.030294	0.060869	0.000094
C92	C	0.469706	0.560869	0.500094
C93	C	-0.061585	0.104691	0.000086
C94	C	0.438415	0.604691	0.500086
C95	C	-0.042461	0.149026	0.000078
C96	C	0.457539	0.649026	0.500078
C97	C	0.007951	0.149539	0.000072
C98	C	0.507951	0.649539	0.500072
C99	C	0.032287	-0.026775	0.000112
C100	C	0.532287	0.473225	0.500112
C101	C	-0.018125	-0.027284	0.000117
C102	C	0.481875	0.472716	0.500117
C103	C	-0.049416	0.016538	0.000108
C104	C	0.450584	0.516538	0.500108
C105	C	0.574716	-0.026515	0.000091
C106	C	1.074716	0.473485	0.500091
C107	C	0.574164	-0.080170	0.000097
C108	C	1.074164	0.419830	0.500097
C109	C	0.614867	-0.418985	0.000066
C110	C	1.114867	0.081015	0.500066
C111	C	0.612816	-0.620645	0.000056
C112	C	1.112816	-0.120645	0.500056
O113	O	0.650037	-0.651900	0.000030
O114	O	1.150037	-0.151900	0.500030
N115	N	0.568481	-0.639768	0.000049
N116	N	1.068481	-0.139768	0.500049
C117	C	0.524656	-0.608474	0.000040
C118	C	1.024656	-0.108474	0.500040
O119	O	0.486899	-0.629367	0.000027
O120	O	0.986899	-0.129367	0.500027
C121	C	0.526707	-0.406815	0.000046
C122	C	1.026707	0.093185	0.500046
C123	C	0.571045	-0.387694	0.000060
C124	C	1.071045	0.112306	0.500060
C125	C	0.659202	-0.399864	0.000079
C126	C	1.159202	0.100136	0.500079
C127	C	0.659714	-0.349452	0.000086
C128	C	1.159714	0.150548	0.500086
C129	C	0.615892	-0.318161	0.000079
C130	C	1.115892	0.181839	0.500079
C131	C	0.571557	-0.337282	0.000066
C132	C	1.071557	0.162718	0.500066
C133	C	0.482882	-0.375521	0.000032
C134	C	0.982882	0.124479	0.500032
C135	C	0.483399	-0.325104	0.000031
C136	C	0.983399	0.174896	0.500031
C137	C	0.527737	-0.305983	0.000045
C138	C	1.027737	0.194017	0.500045
C139	C	0.528247	-0.255580	0.000066
C140	C	1.028247	0.244420	0.500066
N141	N	0.572583	-0.236456	0.000073
N142	N	1.072583	0.263544	0.500073
C143	C	0.616405	-0.267747	0.000080
C144	C	1.116405	0.232253	0.500080
C145	C	0.523582	-0.714348	0.000039
C146	C	1.023582	-0.214348	0.500039
C147	C	0.523069	-0.764762	0.000039
C148	C	1.023069	-0.264762	0.500039
C149	C	0.611230	-0.776930	0.000053
C150	C	1.111230	-0.276930	0.500053
C151	C	0.611742	-0.726514	0.000058
C152	C	1.111742	-0.226514	0.500058
C153	C	0.567917	-0.695224	0.000046
C154	C	1.067917	-0.195224	0.500046
C155	C	0.617477	-0.161878	0.000094
C156	C	1.117477	0.338122	0.500094
C157	C	0.617986	-0.111461	0.000104
C158	C	1.117986	0.388539	0.500104
C159	C	0.529825	-0.099298	0.000086
C160	C	1.029825	0.400702	0.500086
C161	C	0.529316	-0.149710	0.000080
C162	C	1.029316	0.350290	0.500080
C163	C	0.573147	-0.180999	0.000082
C164	C	1.073147	0.319001	0.500082
O165	O	0.491047	-0.224296	0.000084
O166	O	0.991047	0.275704	0.500084
O167	O	0.654156	-0.246844	0.000077
O168	O	1.154156	0.253156	0.500077
C169	C	0.614355	-0.469397	0.000060
C170	C	1.114355	0.030603	0.500060
C171	C	0.570021	-0.488518	0.000047
C172	C	1.070021	0.011482	0.500047
C173	C	0.526198	-0.457228	0.000040
C174	C	1.026198	0.042772	0.500040
C175	C	0.569508	-0.538933	0.000047
C176	C	1.069508	-0.038933	0.500047
C177	C	0.613330	-0.570223	0.000053
C178	C	1.113330	-0.070223	0.500053
C179	C	0.657665	-0.551100	0.000060
C180	C	1.157665	-0.051100	0.500060
C181	C	0.658177	-0.500688	0.000066
C182	C	1.158177	-0.000688	0.500066
C183	C	0.481863	-0.476351	0.000033
C184	C	0.981863	0.023649	0.500033
C185	C	0.481355	-0.526764	0.000028
C186	C	0.981355	-0.026764	0.500028
C187	C	0.525177	-0.558054	0.000034
C188	C	1.025177	-0.058054	0.500034
C189	C	0.658931	0.057699	0.000087
C190	C	1.158931	0.557699	0.500087
C191	C	0.712586	0.058252	0.000091
C192	C	1.212586	0.558252	0.500091
C193	C	0.566338	0.150292	0.000056
C194	C	1.066338	0.650292	0.500056
C195	C	0.566891	0.203947	0.000046
C196	C	1.066891	0.703947	0.500046
N197	N	0.570511	0.061883	0.188743
N198	N	1.070511	0.561883	0.688743
N199	N	0.570547	0.061891	-0.188593
N200	N	1.070547	0.561891	0.311407
C201	C	0.603630	0.028791	0.226854
C202	C	1.103630	0.528791	0.726854
C203	C	0.603633	0.028789	0.303082
C204	C	1.103633	0.528789	0.803082
C205	C	0.570522	0.061887	0.341195
C206	C	1.070522	0.561887	0.841195
C207	C	0.537397	0.094981	0.303074
C208	C	1.037397	0.594981	0.803074
C209	C	0.537392	0.094979	0.226848
C210	C	1.037392	0.594979	0.726848
C211	C	0.563860	0.105958	0.461946
C212	C	1.063860	0.605958	0.961946
C213	C	0.563869	0.105961	0.538171
C214	C	1.063869	0.605961	1.038171
C215	C	0.570536	0.061893	0.576303
C216	C	1.070536	0.561893	1.076303
C217	C	0.577204	0.017820	0.538200
C218	C	1.077204	0.517820	1.038200
C219	C	0.577199	0.017818	0.461974
C220	C	1.077199	0.517818	0.961974
C221	C	0.570524	0.061892	0.423850
C222	C	1.070524	0.561892	0.923850
C223	C	0.603659	0.028796	0.697070
C224	C	1.103659	0.528796	1.197070
C225	C	0.603659	0.028793	0.773299
C226	C	1.103659	0.528793	1.273299
C227	C	0.537426	0.094989	0.773289
C228	C	1.037426	0.594989	1.273289
C229	C	0.537424	0.094988	0.697061
C230	C	1.037424	0.594988	1.197061
C231	C	0.570543	0.061892	0.658956
C232	C	1.070543	0.561892	1.158956
H233	H	0.343360	-0.015426	0.000071
H234	H	0.843360	0.484574	0.500071
N235	N	0.639361	-0.006900	0.344199
N236	N	1.139361	0.493100	0.844199
H237	H	0.634339	-0.001874	0.398270
H238	H	1.134339	0.498126	0.898270
H239	H	0.634041	-0.041157	0.330894
H240	H	1.134041	0.458843	0.830894
H241	H	0.630626	0.001845	0.666043
H242	H	1.130626	0.501845	1.166043
N243	N	0.707534	-0.328829	0.000083
N244	N	1.207534	0.171171	0.500083
H245	H	0.709715	-0.308188	0.044973
H246	H	1.209715	0.191812	0.544973
H247	H	0.735188	-0.356331	0.000054
H248	H	1.235188	0.143669	0.500054
N249	N	0.501710	0.130685	0.814388
N250	N	1.001710	0.630685	1.314388
H251	H	0.480727	0.151649	0.778674
H252	H	0.980727	0.651649	1.278674
H253	H	0.480484	0.112321	0.846022
H254	H	0.980484	0.612321	1.346022
H255	H	0.434827	-0.014492	0.000069
H256	H	0.934827	0.485508	0.500069
H257	H	0.582627	-0.018068	0.430954
H258	H	1.082627	0.481932	0.930954
N259	N	0.066033	-0.074043	0.000127
N260	N	0.566033	0.425957	0.500127
H261	H	0.046264	-0.102203	0.000134
H262	H	0.546264	0.397797	0.500134
H263	H	0.087215	-0.075753	-0.044768
H264	H	0.587215	0.424247	0.455232
H265	H	0.209009	-0.060929	0.000129
H266	H	0.709009	0.439071	0.500129
H267	H	0.510457	0.121936	0.666029
H268	H	1.010457	0.621936	1.166029
H269	H	0.510437	0.121929	0.334109
H270	H	1.010437	0.621929	0.834109
H271	H	0.446177	-0.450879	0.000026
H272	H	0.946177	0.049121	0.500026
H273	H	0.445246	-0.542327	0.000023
H274	H	0.945246	-0.042327	0.500023
N275	N	0.639389	-0.006893	0.814410
N276	N	1.139389	0.493107	1.314410
H277	H	0.660372	-0.027854	0.778700
H278	H	1.160372	0.472146	1.278700
H279	H	0.660613	0.011481	0.846017
H280	H	1.160613	0.511481	1.346017
N281	N	0.482561	-0.065544	0.000098
N282	N	0.982561	0.434456	0.500098
H283	H	0.489618	-0.030706	0.000107
H284	H	0.989618	0.469294	0.500107
H285	H	0.463222	-0.071685	-0.044796
H286	H	0.963222	0.428315	0.455204
H287	H	0.630596	0.001841	0.195831
H288	H	1.130596	0.501841	0.695831
H289	H	0.510422	0.121927	0.195816
H290	H	1.010422	0.621927	0.695816
N291	N	-0.171961	-0.032327	0.000105
N292	N	0.328039	0.467673	0.500105
H293	H	-0.150774	-0.034086	0.044997
H294	H	0.349226	0.465914	0.544997
H295	H	-0.191762	-0.060461	0.000079
H296	H	0.308238	0.439539	0.500079
N297	N	0.584398	-0.029716	0.579316
N298	N	1.084398	0.470284	1.079316
H299	H	0.583388	-0.023029	0.633386
H300	H	1.083388	0.476971	1.133386
H301	H	0.557676	-0.049663	0.566002
H302	H	1.057676	0.450337	1.066002
H303	H	0.694282	-0.485125	0.000077
H304	H	1.194282	0.014875	0.500077
N305	N	0.665809	-0.090838	0.000123
N306	N	1.165809	0.409162	0.500123
H307	H	0.693491	-0.118313	0.000124
H308	H	1.193491	0.381687	0.500124
H309	H	0.667949	-0.070178	-0.044767
H310	H	1.167949	0.429822	0.455233
N311	N	0.556674	0.153493	0.579264
N312	N	1.056674	0.653493	1.079264
H313	H	0.552441	0.181410	0.543543
H314	H	1.052441	0.681410	1.043543
H315	H	0.526752	0.154704	0.610896
H316	H	1.026752	0.654704	1.110896
N317	N	0.028571	0.197361	0.000051
N318	N	0.528571	0.697361	0.500051
H319	H	0.001092	0.225040	0.000045
H320	H	0.501092	0.725040	0.500045
H321	H	0.049222	0.199498	0.044941
H322	H	0.549222	0.699498	0.544941
H323	H	0.694889	-0.425336	0.000082
H324	H	1.194889	0.074664	0.500082
N325	N	-0.302035	0.149864	0.000110
N326	N	0.197965	0.649864	0.500110
H327	H	-0.295928	0.169242	-0.044773
H328	H	0.204072	0.669242	0.455227
H329	H	-0.336862	0.142779	0.000150
H330	H	0.163138	0.642779	0.500150
H331	H	0.486964	-0.780325	0.000040
H332	H	0.986964	-0.280325	0.500040
N333	N	0.556669	0.153493	0.420824
N334	N	1.056669	0.653493	0.920824
H335	H	0.583390	0.173459	0.434075
H336	H	1.083390	0.673459	0.934075
H337	H	0.557665	0.146764	0.366767
H338	H	1.057665	0.646764	0.866767
N339	N	0.417801	0.157171	0.000019
N340	N	0.917801	0.657171	0.500019
H341	H	0.390325	0.184853	0.000016
H342	H	0.890325	0.684853	0.500016
H343	H	0.438454	0.159306	0.044908
H344	H	0.938454	0.659306	0.544908
H345	H	-0.202311	0.139207	0.000069
H346	H	0.297689	0.639207	0.500069
H347	H	0.693347	-0.576585	0.000068
H348	H	1.193347	-0.076585	0.500068
H349	H	0.117558	-0.061861	0.000128
H350	H	0.617558	0.438139	0.500128
H351	H	0.174750	0.187180	0.000042
H352	H	0.674750	0.687180	0.500042
N353	N	0.313018	0.156111	0.000065
N354	N	0.813018	0.656111	0.500065
H355	H	0.332788	0.184271	0.000059
H356	H	0.832788	0.684271	0.500059
H357	H	0.291830	0.157830	-0.044822
H358	H	0.791830	0.657830	0.455178
H359	H	-0.067947	0.184708	0.000068
H360	H	0.432053	0.684708	0.500068
H361	H	0.447710	-0.299629	0.000020
H362	H	0.947710	0.200371	0.500020
H363	H	0.083302	0.186251	0.000056
H364	H	0.583302	0.686251	0.500056
N365	N	-0.276747	-0.033390	0.000107
N366	N	0.223253	0.466610	0.500107
H367	H	-0.265310	-0.052571	-0.044779
H368	H	0.234690	0.447429	0.455221
H369	H	-0.265308	-0.052532	0.045034
H370	H	0.234692	0.447468	0.545034
N371	N	-0.038745	-0.075109	0.000129
N372	N	0.461255	0.424891	0.500129
H373	H	-0.011268	-0.102790	0.000135
H374	H	0.488732	0.397210	0.500135
H375	H	-0.059395	-0.077242	0.045027
H376	H	0.440605	0.422758	0.545027
H377	H	0.647846	-0.710950	0.000069
H378	H	1.147846	-0.210950	0.500069
N379	N	0.664748	-0.195624	0.000101
N380	N	1.164748	0.304376	0.500101
H381	H	0.684115	-0.189501	-0.044784
H382	H	1.184115	0.310499	0.455216
H383	H	0.684061	-0.189498	0.045029
H384	H	1.184061	0.310502	0.545029
N385	N	0.658494	-0.810686	0.000061
N386	N	1.158494	-0.310686	0.500061
H387	H	0.660244	-0.831868	-0.044832
H388	H	1.160244	-0.331868	0.455168
H389	H	0.686635	-0.790894	0.000091
H390	H	1.186635	-0.290894	0.500091
H391	H	0.446777	-0.391080	0.000016
H392	H	0.946777	0.108920	0.500016
N393	N	0.476311	-0.680600	0.000031
N394	N	0.976311	-0.180600	0.500031
H395	H	0.456955	-0.686711	-0.044862
H396	H	0.956955	-0.186711	0.455138
H397	H	0.456989	-0.686738	0.044951
H398	H	0.956989	-0.186738	0.544951
N399	N	0.481496	-0.170337	0.000075
N400	N	0.981496	0.329663	0.500075
H401	H	0.453813	-0.142863	0.000074
H402	H	0.953813	0.357137	0.500074
H403	H	0.479369	-0.190979	-0.044824
H404	H	0.979369	0.309021	0.455176
