data_functionalizedCrystal
_audit_creation_method	'MofGen! by Chris Wilmer'
_symmetry_space_group_name_H-M	'P1'
_symmetry_Int_Tables_number	1
_symmetry_cell_setting	triclinic
loop_
_symmetry_equiv_pos_as_xyz
  x,y,z
_cell_length_a	12.594517
_cell_length_b	18.050590
_cell_length_c	12.594509
_cell_angle_alpha	89.967171
_cell_angle_beta	89.988522
_cell_angle_gamma	90.014439
loop_
_atom_site_label
_atom_site_type_symbol
_atom_site_fract_x
_atom_site_fract_y
_atom_site_fract_z
Zn1	Zn	1.627248	-0.295719	-0.601546
Zn2	Zn	1.627131	-0.419923	-0.423553
Zn3	Zn	1.449252	-0.295742	-0.423606
Zn4	Zn	1.449227	-0.419862	-0.601514
O5	O	1.538215	-0.357811	-0.512555
O6	O	1.776179	-0.312210	-0.577927
O7	O	1.603497	-0.403485	-0.274615
O8	O	1.472923	-0.191814	-0.447245
O9	O	1.776093	-0.403462	-0.447156
O10	O	1.603696	-0.191797	-0.577977
O11	O	1.472810	-0.312250	-0.274653
O12	O	1.300303	-0.312191	-0.447214
O13	O	1.472880	-0.403360	-0.750464
O14	O	1.300284	-0.403382	-0.577923
O15	O	1.603672	-0.312152	-0.750488
O16	O	1.603472	-0.523839	-0.447125
O17	O	1.472767	-0.523795	-0.577872
C18	C	1.261674	-0.357783	-0.512571
C19	C	1.143368	-0.357789	-0.512603
C20	C	1.074136	-0.407485	-0.583558
C21	C	1.003332	-0.339773	-0.609744
C22	C	1.003374	-0.425557	-0.486394
C23	C	1.074122	-0.290041	-0.538840
C24	C	1.074171	-0.375871	-0.415444
C25	C	1.003398	-0.308112	-0.441593
C26	C	1.538133	-0.550764	-0.512512
C27	C	1.538195	-0.633309	-0.512530
C28	C	1.609421	-0.832757	-0.441529
C29	C	1.635423	-0.882086	-0.538668
C30	C	1.538256	-0.784440	-0.512572
C31	C	1.512362	-0.882193	-0.415477
C32	C	1.538316	-0.930425	-0.512605
C33	C	1.564308	-0.832681	-0.609762
C34	C	1.441201	-0.832784	-0.486506
C35	C	1.467166	-0.882090	-0.583712
C36	C	1.538224	-0.700341	-0.512552
C37	C	1.538348	-1.014521	-0.512636
C38	C	1.815835	-0.357840	-0.512539
C39	C	1.934141	-0.357852	-0.512533
C40	C	1.538286	-0.357746	-0.790176
C41	C	1.538316	-0.357719	-0.908481
C42	C	1.538326	-0.164106	-0.512621
C43	C	1.538373	-0.081560	-0.512649
C44	C	1.467201	-0.407298	-0.977722
C45	C	1.564321	-0.425449	-1.048493
C46	C	1.441273	-0.339523	-1.048509
C47	C	1.635487	-0.375904	-0.977695
C48	C	1.512373	-0.289948	-0.977704
C49	C	1.609560	-0.308072	-1.048444
C50	C	1.538205	-0.357823	-0.236014
C51	C	1.538381	-0.357641	-0.117709
H52	H	1.105198	-0.449430	-0.643639
H53	H	1.490367	-0.232685	-0.946586
H54	H	1.669797	-0.266111	-1.079301
H55	H	1.669623	-0.811095	-0.381512
H56	H	1.407108	-0.449292	-0.946670
H57	H	0.972291	-0.482841	-0.464258
H58	H	1.359177	-0.324166	-1.079615
C59	C	1.116243	-0.396531	-0.304516
N60	N	1.147935	-0.412100	-0.220963
H61	H	0.972216	-0.324501	-0.691879
C62	C	1.330320	-0.803493	-0.456648
N63	N	1.246806	-0.781427	-0.434146
C64	C	1.594009	-0.502829	-1.090507
N65	N	1.616364	-0.561113	-1.122149
C66	C	1.746339	-0.911350	-0.568477
N67	N	1.829882	-0.933391	-0.590922
H68	H	1.717606	-0.391327	-0.946720
C69	C	1.594066	-0.803428	-0.720741
N70	N	1.616484	-0.781393	-0.804328
H71	H	1.105070	-0.232740	-0.561071
H72	H	1.407010	-0.903615	-0.643874
H73	H	1.490436	-0.903940	-0.333351
C74	C	0.961692	-0.251309	-0.360494
N75	N	0.930275	-0.208522	-0.299416
