data_functionalizedCrystal
_audit_creation_method	'MofGen! by Chris Wilmer'
_symmetry_space_group_name_H-M	'P1'
_symmetry_Int_Tables_number	1
_symmetry_cell_setting	triclinic
loop_
_symmetry_equiv_pos_as_xyz
  x,y,z
_cell_length_a	23.532407
_cell_length_b	12.811487
_cell_length_c	11.295483
_cell_angle_alpha	99.530033
_cell_angle_beta	85.925856
_cell_angle_gamma	83.449465
loop_
_atom_site_label
_atom_site_type_symbol
_atom_site_fract_x
_atom_site_fract_y
_atom_site_fract_z
O1	O	0.759262	0.121250	-0.085780
O2	O	1.259262	0.621250	0.414220
O3	O	0.593423	0.139826	-0.083809
O4	O	1.093423	0.639826	0.416191
O5	O	0.681153	-0.023489	-0.101421
O6	O	1.181153	0.476511	0.398579
O7	O	0.671532	0.284564	-0.068168
O8	O	1.171532	0.784564	0.431832
O9	O	0.673447	-0.009166	0.098174
O10	O	1.173447	0.490834	0.598174
O11	O	0.585717	0.154148	0.115786
O12	O	1.085717	0.654148	0.615786
O13	O	0.751556	0.135572	0.113815
O14	O	1.251556	0.635572	0.613815
Cu15	Cu	0.667933	0.146168	0.133025
Cu16	Cu	1.167933	0.646168	0.633025
Cu17	Cu	0.677046	0.129230	-0.103019
Cu18	Cu	1.177046	0.629230	0.396981
O19	O	0.663826	0.298887	0.131427
O20	O	1.163826	0.798887	0.631427
C21	C	0.676997	-0.055732	-0.005880
C22	C	1.176997	0.444268	0.494120
C23	C	0.676085	-0.173144	-0.018563
C24	C	1.176085	0.326856	0.481437
C25	C	0.568353	0.146514	0.015933
C26	C	1.068353	0.646514	0.515933
C27	C	0.505135	0.145090	0.015766
C28	C	1.005135	0.645090	0.515766
C29	C	0.665982	-0.378173	0.175226
C30	C	1.165982	0.121827	0.675226
C31	C	0.665126	-0.488491	0.163315
C32	C	1.165126	0.011509	0.663315
C33	C	0.673520	-0.504102	-0.054295
C34	C	1.173520	-0.004102	0.445705
C35	C	0.674377	-0.393784	-0.042384
C36	C	1.174377	0.106216	0.457616
C37	C	0.670607	-0.330822	0.072380
C38	C	1.170607	0.169178	0.572380
C39	C	0.671459	-0.220501	0.084290
C40	C	1.171459	0.279499	0.584290
C41	C	0.679858	-0.236115	-0.133318
C42	C	1.179858	0.263885	0.366682
C43	C	0.679001	-0.346433	-0.145229
C44	C	1.179001	0.153567	0.354771
C45	C	0.106139	0.232820	0.025290
C46	C	0.606139	0.732820	0.525290
C47	C	0.046737	0.231499	0.025155
C48	C	0.546737	0.731499	0.525155
O49	O	0.010091	0.312824	0.033977
O50	O	0.510091	0.812824	0.533977
N51	N	0.023990	0.134407	0.014672
N52	N	0.523990	0.634407	0.514672
C53	C	0.060649	0.038631	0.004336
C54	C	0.560649	0.538631	0.504336
O55	O	0.035847	-0.044074	-0.004591
O56	O	0.535847	0.455926	0.495409
C57	C	0.120050	0.039954	0.004480
C58	C	0.620050	0.539954	0.504480
C59	C	0.142793	0.137051	0.014952
C60	C	0.642793	0.637051	0.514952
C61	C	0.128883	0.329909	0.035762
C62	C	0.628883	0.829909	0.535762
C63	C	0.188281	0.331229	0.035895
C64	C	0.688281	0.831229	0.535895
C65	C	0.224935	0.235460	0.025556
C66	C	0.724935	0.735460	0.525556
C67	C	0.202191	0.138371	0.015085
C68	C	0.702191	0.638371	0.515085
C69	C	0.156707	-0.055820	-0.005847
C70	C	0.656707	0.444180	0.494153
C71	C	0.216111	-0.054489	-0.005701
C72	C	0.716111	0.445511	0.494299
C73	C	0.238854	0.042607	0.004770
C74	C	0.738854	0.542607	0.504770
C75	C	0.298243	0.043922	0.004879
C76	C	0.798243	0.543922	0.504879
N77	N	0.320990	0.141014	0.015362
N78	N	0.820990	0.641014	0.515362
C79	C	0.284336	0.236783	0.025700
C80	C	0.784336	0.736783	0.525700
C81	C	-0.064097	0.035861	0.004037
C82	C	0.435903	0.535861	0.504037
C83	C	-0.123496	0.034537	0.003884
C84	C	0.376504	0.534537	0.503884
C85	C	-0.137405	0.227405	0.024705
C86	C	0.362595	0.727405	0.524705
C87	C	-0.078004	0.228728	0.024849
C88	C	0.421996	0.728728	0.524849
C89	C	-0.041351	0.132953	0.014520
C90	C	0.458649	0.632953	0.514520
C91	C	0.409077	0.239548	0.025978
C92	C	0.909077	0.739548	0.525978
C93	C	0.468481	0.240859	0.026105
C94	C	0.968481	0.740859	0.526105
C95	C	0.482384	0.047992	0.005290
C96	C	0.982384	0.547992	0.505290
C97	C	0.422985	0.046680	0.005157
C98	C	0.922985	0.546680	0.505157
C99	C	0.386332	0.142466	0.015506
C100	C	0.886332	0.642466	0.515506
O101	O	0.334923	-0.037360	-0.003934
O102	O	0.834923	0.462640	0.496066
O103	O	0.309146	0.319475	0.034642
O104	O	0.809146	0.819475	0.534642
C105	C	0.776625	0.128884	0.014070
C106	C	1.276625	0.628884	0.514070
C107	C	0.839844	0.130307	0.014229
C108	C	1.339844	0.630307	0.514229
C109	C	0.667982	0.331130	0.035883
C110	C	1.167982	0.831130	0.535883
C111	C	0.668894	0.448541	0.048558
C112	C	1.168894	0.948541	0.548558
N113	N	0.661528	0.158080	0.299046
N114	N	1.161528	0.658080	0.799046
N115	N	0.683455	0.117309	-0.269041
N116	N	1.183455	0.617309	0.230959
C117	C	0.729564	0.031498	0.534685
C118	C	1.229564	0.531498	1.034685
C119	C	0.724727	0.040507	0.660320
C120	C	1.224727	0.540507	1.160320
C121	C	0.647016	0.185104	0.675954
C122	C	1.147016	0.685104	1.175954
C123	C	0.651853	0.176094	0.550318
C124	C	1.151853	0.676094	1.050318
C125	C	0.693128	0.099290	0.479688
C126	C	1.193128	0.599290	0.979688
C127	C	0.697967	0.090286	0.354051
C128	C	1.197967	0.590286	0.854051
C129	C	0.620254	0.234876	0.369687
C130	C	1.120254	0.734876	0.869687
C131	C	0.615417	0.243886	0.495322
C132	C	1.115417	0.743886	0.995322
H133	H	0.668381	-0.169237	0.177737
H134	H	1.168381	0.330763	0.677737
H135	H	0.763175	-0.031033	0.477177
H136	H	1.263175	0.468967	0.977177
H137	H	0.245952	-0.132483	-0.014112
H138	H	0.745952	0.367517	0.485888
H139	H	0.731577	0.027750	0.296545
H140	H	1.231577	0.527750	0.796545
H141	H	0.581810	0.306417	0.552843
H142	H	1.081810	0.806417	1.052843
H143	H	0.662898	-0.326905	0.268671
H144	H	1.162898	0.173095	0.768671
H145	H	0.486995	0.319930	0.034631
H146	H	0.986995	0.819930	0.534631
H147	H	-0.142008	-0.044530	-0.004661
H148	H	0.357992	0.455470	0.495339
H149	H	0.613407	0.247629	0.733476
H150	H	1.113407	0.747629	1.233476
H151	H	-0.059491	0.307793	0.033382
H152	H	0.440509	0.807793	0.533382
H153	H	0.206793	0.410295	0.044421
H154	H	0.706793	0.910295	0.544421
H155	H	0.682073	-0.397711	-0.238667
H156	H	1.182073	0.102289	0.261333
H157	H	-0.034256	-0.042136	-0.004386
H158	H	0.465744	0.457864	0.495614
H159	H	0.404467	-0.032386	-0.003387
H160	H	0.904467	0.467614	0.496613
H161	H	0.676596	-0.555385	-0.147730
H162	H	1.176596	-0.055385	0.352270
H163	H	0.138200	-0.134887	-0.014372
H164	H	0.638200	0.365113	0.485628
H165	H	0.099044	0.407900	0.044186
H166	H	0.599044	0.907900	0.544186
H167	H	-0.167260	0.305386	0.033129
H168	H	0.332740	0.805386	0.533129
H169	H	0.754396	-0.014697	0.705094
H170	H	1.254396	0.485303	1.205094
H171	H	0.512238	-0.029980	-0.003132
H172	H	1.012238	0.470020	0.496868
H173	H	0.590587	0.290080	0.324895
H174	H	1.090587	0.790080	0.824895
H175	H	0.379240	0.317547	0.034408
H176	H	0.879240	0.817547	0.534408
H177	H	0.661360	-0.527039	0.247062
H178	H	1.161360	-0.027039	0.747062
H179	H	0.683616	-0.197549	-0.217062
H180	H	1.183616	0.302451	0.282938
