data_functionalizedCrystal
_audit_creation_method	'MofGen! by Chris Wilmer'
_symmetry_space_group_name_H-M	'P1'
_symmetry_Int_Tables_number	1
_symmetry_cell_setting	triclinic
loop_
_symmetry_equiv_pos_as_xyz
  x,y,z
_cell_length_a	18.050591
_cell_length_b	18.050588
_cell_length_c	18.050582
_cell_angle_alpha	90.021152
_cell_angle_beta	90.019760
_cell_angle_gamma	90.026009
loop_
_atom_site_label
_atom_site_type_symbol
_atom_site_fract_x
_atom_site_fract_y
_atom_site_fract_z
Zn1	Zn	1.135286	-0.295777	0.420016
Zn2	Zn	1.135193	-0.419960	0.295829
Zn3	Zn	1.011105	-0.295781	0.295829
Zn4	Zn	1.011050	-0.419922	0.419967
O5	O	1.073158	-0.357860	0.357910
O6	O	1.239198	-0.312265	0.403562
O7	O	1.118717	-0.403505	0.191904
O8	O	1.027639	-0.191856	0.312324
O9	O	1.239130	-0.403502	0.312323
O10	O	1.118874	-0.191853	0.403563
O11	O	1.027550	-0.312271	0.191905
O12	O	0.907173	-0.312234	0.312276
O13	O	1.027546	-0.403436	0.523898
O14	O	0.907133	-0.403440	0.403479
O15	O	1.118821	-0.312227	0.523934
O16	O	1.118664	-0.523880	0.312275
O17	O	1.027456	-0.523852	0.403479
C18	C	0.880206	-0.357834	0.357873
C19	C	0.797661	-0.357841	0.357875
C20	C	0.548835	-0.308192	0.308396
C21	C	0.598268	-0.290110	0.376171
C22	C	0.500540	-0.357879	0.357936
C23	C	0.598189	-0.375906	0.290134
C24	C	0.646525	-0.357858	0.357902
C25	C	0.548885	-0.339763	0.425747
C26	C	0.548803	-0.425589	0.339664
C27	C	0.598213	-0.407534	0.407486
C28	C	0.416442	-0.357888	0.357954
C29	C	0.730622	-0.357848	0.357891
C30	C	1.073064	-0.550812	0.357888
C31	C	1.073092	-0.633358	0.357903
C32	C	1.023571	-0.882195	0.407500
C33	C	1.091288	-0.832731	0.425730
C34	C	1.073246	-0.930478	0.357945
C35	C	1.005457	-0.832861	0.339729
C36	C	1.073167	-0.784493	0.357926
C37	C	1.140999	-0.882101	0.376210
C38	C	1.055123	-0.882236	0.290177
C39	C	1.122886	-0.832794	0.308382
C40	C	1.073291	-1.014577	0.357957
C41	C	1.073130	-0.700397	0.357913
C42	C	1.266864	-0.357887	0.357948
C43	C	1.349410	-0.357898	0.357964
C44	C	1.073188	-0.357827	0.551616
C45	C	1.073200	-0.357813	0.634162
C46	C	1.073273	-0.164154	0.357949
C47	C	1.073322	-0.081609	0.357965
C48	C	1.073172	-0.357839	0.164958
C49	C	1.073304	-0.357644	0.082413
C50	C	1.023602	-0.407345	0.833593
C51	C	1.091357	-0.425502	0.882990
C52	C	1.073237	-0.357756	0.785292
C53	C	1.005519	-0.339578	0.882976
C54	C	1.073266	-0.357703	0.931277
C55	C	1.141027	-0.375950	0.833602
C56	C	1.055143	-0.289994	0.833584
C57	C	1.122945	-0.308126	0.882959
C58	C	1.073219	-0.357789	0.701194
C59	C	1.073292	-0.357670	1.015374
H60	H	0.527318	-0.324440	0.483089
O61	O	1.209428	-0.394227	0.807879
C62	C	1.261718	-0.342187	0.833635
H63	H	1.232379	-0.288092	0.847788
H64	H	1.304797	-0.331626	0.788690
H65	H	1.290260	-0.364763	0.885251
O66	O	1.173146	-0.258063	0.908534
C67	C	1.208580	-0.223533	0.848106
H68	H	1.204651	-0.260847	0.797289
H69	H	1.269318	-0.213489	0.862247
H70	H	1.180425	-0.168341	0.835921
O71	O	0.624160	-0.221745	0.394475
C72	C	0.598992	-0.169533	0.342136
H73	H	0.585091	-0.198995	0.288013
H74	H	0.644194	-0.126643	0.331787
H75	H	0.547343	-0.140740	0.364284
H76	H	1.039802	-0.232728	0.811866
O77	O	0.973583	-0.457378	0.807603
C78	C	0.973788	-0.456281	0.729501
H79	H	0.995891	-0.400670	0.709318
H80	H	0.914918	-0.464569	0.708152
H81	H	1.010718	-0.502716	0.707880
O82	O	1.109514	-0.493883	0.908852
C83	C	1.057043	-0.546029	0.883690
H84	H	1.002982	-0.516493	0.869822
H85	H	1.046615	-0.588881	0.928881
H86	H	1.079102	-0.574879	0.832020
O87	O	0.623886	-0.457568	0.457603
C88	C	0.598613	-0.438286	0.528948
H89	H	0.584844	-0.376675	0.530469
H90	H	0.643699	-0.450802	0.571370
H91	H	0.546860	-0.471788	0.542694
H92	H	0.527060	-0.482844	0.324199
O93	O	0.937130	-0.321344	0.908764
C94	C	0.884970	-0.373813	0.883626
H95	H	0.906946	-0.402123	0.831627
H96	H	0.830543	-0.344696	0.870311
H97	H	0.875243	-0.417048	0.928612
H98	H	0.619849	-0.391162	0.232809
O99	O	0.522874	-0.257994	0.258590
C100	C	0.478893	-0.205059	0.295509
H101	H	0.457244	-0.229644	0.349492
H102	H	0.430174	-0.188857	0.258730
H103	H	0.513696	-0.153872	0.308159
H104	H	0.981648	-0.903884	0.449447
O105	O	1.109418	-0.806819	0.494132
C106	C	1.056961	-0.831999	0.546226
H107	H	1.002913	-0.845929	0.516638
H108	H	1.046494	-0.786795	0.589079
H109	H	1.079056	-0.883635	0.575085
O110	O	0.937072	-0.807187	0.321297
C111	C	0.888985	-0.867547	0.309087
H112	H	0.922831	-0.918793	0.294405
H113	H	0.849725	-0.853938	0.261522
H114	H	0.855517	-0.878719	0.361457
O115	O	1.209324	-0.907827	0.394789
C116	C	1.204078	-0.951274	0.459473
H117	H	1.152302	-0.934891	0.491690
H118	H	1.255136	-0.941748	0.495432
H119	H	1.200555	-1.012312	0.443604
O120	O	1.173116	-0.807107	0.258461
C121	C	1.244421	-0.832347	0.277921
H122	H	1.245798	-0.846104	0.339539
H123	H	1.286860	-0.787244	0.265495
H124	H	1.258266	-0.884099	0.244465
O125	O	1.036719	-0.908168	0.221860
C126	C	0.965223	-0.883112	0.202870
H127	H	0.933139	-0.869245	0.255462
H128	H	0.934809	-0.928367	0.170955
H129	H	0.969907	-0.831464	0.166839
