data_functionalizedCrystal
_audit_creation_method	'MofGen! by Chris Wilmer'
_symmetry_space_group_name_H-M	'P1'
_symmetry_Int_Tables_number	1
_symmetry_cell_setting	triclinic
loop_
_symmetry_equiv_pos_as_xyz
  x,y,z
_cell_length_a	10.540539
_cell_length_b	15.995350
_cell_length_c	9.616153
_cell_angle_alpha	90.004277
_cell_angle_beta	90.000138
_cell_angle_gamma	84.008933
loop_
_atom_site_label
_atom_site_type_symbol
_atom_site_fract_x
_atom_site_fract_y
_atom_site_fract_z
O1	O	1.684261	0.118000	0.115573
O2	O	1.314695	0.129118	0.115589
O3	O	1.509580	0.001732	0.115579
O4	O	1.489376	0.245386	0.115583
O5	O	1.509573	0.001723	-0.115712
O6	O	1.314688	0.129109	-0.115702
O7	O	1.684253	0.117991	-0.115719
Zn8	Zn	1.499469	0.123549	-0.152433
Zn9	Zn	1.499479	0.123560	0.152303
O10	O	1.489368	0.245377	-0.115709
C11	C	1.267400	0.128280	-0.000055
C12	C	1.126486	0.125785	-0.000048
C13	C	0.944373	0.030202	-0.000589
C14	C	1.090956	0.032730	-0.000054
C15	C	1.064202	0.170572	0.132026
C16	C	0.917701	0.167396	0.132122
C17	C	0.917178	0.169279	-0.130899
C18	C	1.064149	0.170136	-0.132630
C19	C	1.508741	-0.029472	-0.000064
C20	C	1.506237	-0.122438	-0.000056
C21	C	1.497244	-0.460239	-0.000060
C22	C	1.358450	-0.413635	0.000465
C23	C	1.360955	-0.316930	-0.000057
C24	C	1.501705	-0.292652	-0.000057
C25	C	1.570158	-0.333325	-0.132137
C26	C	1.566672	-0.429982	-0.132247
C27	C	1.569547	-0.430312	0.130774
C28	C	1.569515	-0.333367	0.132520
C29	C	1.504233	-0.197939	-0.000060
C30	C	1.494719	-0.554952	-0.000067
C31	C	1.731549	0.118829	-0.000072
C32	C	1.872462	0.121324	-0.000070
C33	C	1.490207	0.276581	-0.000063
C34	C	1.492711	0.369547	-0.000062
N35	N	1.499472	0.123540	-0.360408
C36	C	1.604106	0.055632	-0.580740
C37	C	1.603829	0.055373	-0.419572
C38	C	1.367040	0.103667	-0.418933
C39	C	1.367663	0.103191	-0.580150
C40	C	1.526105	0.211559	-0.580282
C41	C	1.529107	0.210984	-0.419054
N42	N	1.499487	0.123562	0.360278
H43	H	0.914672	-0.006401	0.093600
Cl44	Cl	1.756614	0.073808	-0.640578
H45	H	1.457844	0.263960	-0.378777
H46	H	1.587348	-0.009283	-0.621270
Cl47	Cl	1.157498	-0.021680	-0.146225
H48	H	1.085616	0.238909	0.136941
H49	H	0.916290	-0.006564	-0.095307
H50	H	0.868813	0.234320	0.138118
Cl51	Cl	1.272798	-0.442751	0.146701
H52	H	1.449815	0.262120	-0.618433
Cl53	Cl	1.499479	-0.462424	0.285335
H54	H	1.519466	-0.306414	0.230229
H55	H	1.287475	0.150745	-0.619169
H56	H	1.672155	-0.317391	0.140494
Cl57	Cl	1.277875	-0.273535	0.146120
Cl58	Cl	1.329921	0.005663	-0.356623
Cl59	Cl	1.577549	-0.045426	-0.360038
H60	H	1.620611	0.230466	-0.620935
H61	H	1.133192	-0.002750	0.094786
H62	H	0.886043	0.139160	-0.231011
H63	H	1.105557	0.137418	-0.230339
H64	H	0.869028	0.236492	-0.131790
H65	H	1.306777	-0.289393	-0.094893
Cl66	Cl	1.679511	0.234248	-0.359984
Cl67	Cl	0.874848	0.116300	0.284545
Cl68	Cl	1.727538	-0.478405	0.132149
H69	H	1.287312	0.151790	-0.380610
Cl70	Cl	1.130613	0.122550	0.283786
Cl71	Cl	1.272938	-0.444760	-0.144519
H72	H	1.087442	0.237979	-0.140604
Cl73	Cl	1.489587	-0.458708	-0.284674
Cl74	Cl	1.755811	0.073837	-0.358472
H75	H	1.668572	-0.461621	-0.138240
Cl76	Cl	1.729809	-0.310564	-0.139730
H77	H	1.522608	-0.305232	-0.230425
Cl78	Cl	1.331444	0.004071	-0.638235
