data_functionalizedCrystal
_audit_creation_method	'MofGen! by Chris Wilmer'
_symmetry_space_group_name_H-M	'P1'
_symmetry_Int_Tables_number	1
_symmetry_cell_setting	triclinic
loop_
_symmetry_equiv_pos_as_xyz
  x,y,z
_cell_length_a	19.288859
_cell_length_b	19.288857
_cell_length_c	17.766277
_cell_angle_alpha	89.991474
_cell_angle_beta	89.989768
_cell_angle_gamma	83.133417
loop_
_atom_site_label
_atom_site_type_symbol
_atom_site_fract_x
_atom_site_fract_y
_atom_site_fract_z
O1	O	0.921353	0.086629	-0.062613
O2	O	1.421353	0.586629	0.437387
O3	O	0.719092	0.098322	-0.062611
O4	O	1.219092	0.598322	0.437389
O5	O	0.826070	-0.008656	-0.062603
O6	O	1.326070	0.491344	0.437397
O7	O	0.814375	0.193606	-0.062621
O8	O	1.314375	0.693606	0.437379
O9	O	0.826051	-0.008661	0.062586
O10	O	1.326051	0.491339	0.562586
O11	O	0.719073	0.098316	0.062577
O12	O	1.219073	0.598316	0.562577
O13	O	0.921335	0.086623	0.062576
O14	O	1.421335	0.586623	0.562576
Cu15	Cu	0.820202	0.092469	0.074007
Cu16	Cu	1.320202	0.592469	0.574007
Cu17	Cu	0.820224	0.092476	-0.074043
Cu18	Cu	1.320224	0.592476	0.425957
O19	O	0.814357	0.193601	0.062568
O20	O	1.314357	0.693601	0.562568
C21	C	0.693206	0.097944	-0.000017
C22	C	1.193206	0.597944	0.499983
C23	C	0.616102	0.096816	-0.000016
C24	C	1.116102	0.596816	0.499984
C25	C	0.052060	0.151960	-0.000022
C26	C	0.552060	0.651960	0.499978
C27	C	0.124506	0.153025	-0.000026
C28	C	0.624506	0.653025	0.499974
C29	C	0.169215	0.090256	-0.000019
C30	C	0.669215	0.590256	0.499981
C31	C	0.141472	0.026416	-0.000027
C32	C	0.641472	0.526416	0.499973
C33	C	0.069026	0.025353	-0.000031
C34	C	0.569026	0.525353	0.499969
C35	C	0.290480	0.043441	0.043847
C36	C	0.790480	0.543441	0.543847
C37	C	0.362923	0.044507	0.043855
C38	C	0.862923	0.544507	0.543855
C39	C	0.392661	0.093533	-0.000012
C40	C	0.892661	0.593533	0.499988
C41	C	0.349944	0.141505	-0.043877
C42	C	0.849944	0.641505	0.456123
C43	C	0.277498	0.140442	-0.043880
C44	C	0.777498	0.640442	0.456120
C45	C	0.247771	0.091402	-0.000016
C46	C	0.747771	0.591402	0.499984
C47	C	0.498950	0.158524	-0.000013
C48	C	0.998950	0.658524	0.499987
C49	C	0.571399	0.159587	-0.000022
C50	C	1.071399	0.659587	0.499978
C51	C	0.588363	0.032976	-0.000015
C52	C	1.088363	0.532976	0.499985
C53	C	0.515916	0.031915	-0.000014
C54	C	1.015916	0.531915	0.499986
C55	C	0.471214	0.094691	-0.000009
C56	C	0.971214	0.594691	0.499991
C57	C	0.825685	-0.034535	-0.000008
C58	C	1.325685	0.465465	0.499992
C59	C	0.824558	-0.111639	-0.000006
C60	C	1.324558	0.388361	0.499994
C61	C	0.824042	-0.147846	-0.068246
C62	C	1.324042	0.352154	0.431754
C63	C	0.822974	-0.220292	-0.068252
C64	C	1.322974	0.279708	0.431748
C65	C	0.822435	-0.256530	-0.000013
C66	C	1.322435	0.243470	0.499987
C67	C	0.822947	-0.220313	0.068236
C68	C	1.322947	0.279687	0.568236
C69	C	0.824008	-0.147867	0.068240
C70	C	1.324008	0.352133	0.568240
C71	C	0.861429	-0.376764	0.052262
C72	C	1.361429	0.123236	0.552262
C73	C	0.860371	-0.449209	0.052255
C74	C	1.360371	0.050791	0.552255
C75	C	0.819157	-0.479975	-0.000022
C76	C	1.319157	0.020025	0.499978
C77	C	0.779009	-0.438289	-0.052304
C78	C	1.279009	0.061711	0.447696
C79	C	0.780071	-0.365844	-0.052301
C80	C	1.280071	0.134156	0.447699
C81	C	0.821283	-0.335085	-0.000009
C82	C	1.321283	0.164915	0.499991
C83	C	0.817481	-0.594737	-0.068273
C84	C	1.317481	-0.094737	0.431727
C85	C	0.816408	-0.667184	-0.068275
C86	C	1.316408	-0.167184	0.431725
C87	C	0.816388	-0.667204	0.068215
C88	C	1.316388	-0.167204	0.568215
C89	C	0.817454	-0.594758	0.068215
C90	C	1.317454	-0.094758	0.568215
C91	C	0.818004	-0.558529	-0.000030
C92	C	1.318004	-0.058529	0.499970
C93	C	0.947220	0.087001	-0.000020
C94	C	1.447220	0.587001	0.499980
C95	C	1.024324	0.088129	-0.000026
C96	C	1.524324	0.588129	0.499974
C97	C	0.814741	0.219480	-0.000029
C98	C	1.314741	0.719480	0.499971
C99	C	0.815868	0.296584	-0.000036
C100	C	1.315868	0.796584	0.499964
N101	N	0.820192	0.092464	0.178138
N102	N	1.320192	0.592464	0.678138
N103	N	0.820240	0.092475	-0.178173
N104	N	1.320240	0.592475	0.321827
C105	C	0.867577	0.045118	0.217528
C106	C	1.367577	0.545118	0.717528
C107	C	0.867581	0.045115	0.296330
C108	C	1.367581	0.545115	0.796330
C109	C	0.820206	0.092470	0.335738
C110	C	1.320206	0.592470	0.835738
C111	C	0.772812	0.139820	0.296338
C112	C	1.272812	0.639820	0.796338
C113	C	0.772805	0.139817	0.217538
C114	C	1.272805	0.639817	0.717538
C115	C	0.810906	0.155758	0.460571
C116	C	1.310906	0.655758	0.960571
C117	C	0.810918	0.155762	0.539369
C118	C	1.310918	0.655762	1.039369
C119	C	0.820225	0.092478	0.578785
C120	C	1.320225	0.592478	1.078785
C121	C	0.829534	0.029188	0.539391
C122	C	1.329534	0.529188	1.039391
C123	C	0.829527	0.029186	0.460591
C124	C	1.329527	0.529186	0.960591
C125	C	0.820209	0.092478	0.421184
C126	C	1.320209	0.592478	0.921184
C127	C	0.867617	0.045124	0.703621
C128	C	1.367617	0.545124	1.203621
C129	C	0.867616	0.045120	0.782424
C130	C	1.367616	0.545120	1.282424
C131	C	0.772851	0.139832	0.782431
C132	C	1.272851	0.639832	1.282431
C133	C	0.772848	0.139830	0.703629
C134	C	1.272848	0.639830	1.203629
C135	C	0.820235	0.092477	0.664229
C136	C	1.320235	0.592477	1.164229
H137	H	0.493334	-0.020063	-0.000013
H138	H	0.993334	0.479937	0.499987
H139	H	0.894989	-0.351721	0.094837
H140	H	1.394989	0.148279	0.594837
Br141	Br	0.708491	0.204077	0.164074
Br142	Br	1.208491	0.704077	0.664074
H143	H	0.242721	0.179501	-0.079598
H144	H	0.742721	0.679501	0.420402
Br145	Br	0.031382	-0.061282	-0.000041
Br146	Br	0.531382	0.438718	0.499959
H147	H	0.906201	0.006561	0.814497
H148	H	1.406201	0.506561	1.314497
H149	H	0.817880	-0.565278	0.123784
H150	H	1.317880	-0.065278	0.623784
H151	H	0.015667	0.203077	-0.000022
H152	H	0.515667	0.703077	0.499978
H153	H	0.374153	0.181429	-0.079595
H154	H	0.874153	0.681429	0.420405
H155	H	0.177878	-0.024691	-0.000024
H156	H	0.677878	0.475309	0.499976
Br157	Br	0.162158	0.239659	-0.000021
Br158	Br	0.662158	0.739659	0.499979
Br159	Br	0.438279	0.243717	-0.000007
Br160	Br	0.938279	0.743717	0.499993
H161	H	0.822506	-0.249822	0.123797
H162	H	1.322506	0.250178	0.623797
H163	H	0.624764	-0.018133	-0.000016
H164	H	1.124764	0.481867	0.499984
H165	H	0.837105	-0.022347	0.428520
H166	H	1.337105	0.477653	0.928520
H167	H	0.593978	0.211568	-0.000025
H168	H	1.093978	0.711568	0.499975
Br169	Br	0.420888	-0.020589	0.103395
Br170	Br	0.920888	0.479411	0.603395
H171	H	0.824488	-0.118353	-0.123817
H172	H	1.324488	0.381647	0.376183
H173	H	0.734266	0.178386	0.671555
H174	H	1.234266	0.678386	1.171555
H175	H	0.266275	0.003514	0.079570
H176	H	0.766275	0.503514	0.579570
H177	H	0.822549	-0.249778	-0.123823
H178	H	1.322549	0.250222	0.376177
Br179	Br	0.708549	0.204093	0.835907
Br180	Br	1.208549	0.704093	1.335907
H181	H	0.747380	-0.331906	-0.094870
H182	H	1.247380	0.168094	0.405130
H183	H	0.745449	-0.463337	-0.094873
H184	H	1.245449	0.036663	0.405127
Br185	Br	0.798291	0.241653	0.592824
Br186	Br	1.298291	0.741653	1.092824
Br187	Br	0.931894	-0.019148	0.349798
Br188	Br	1.431894	0.480852	0.849798
Br189	Br	0.818224	-0.545565	-0.160889
Br190	Br	1.318224	-0.045565	0.339111
Br191	Br	0.815701	-0.716324	-0.160896
Br192	Br	1.315701	-0.216324	0.339104
Br193	Br	0.815650	-0.716374	0.160826
Br194	Br	1.315650	-0.216374	0.660826
Br195	Br	0.824705	-0.098724	0.160859
Br196	Br	1.324705	0.401276	0.660859
Br197	Br	0.914861	-0.505776	0.123205
Br198	Br	1.414861	-0.005776	0.623205
Br199	Br	0.842175	-0.056703	0.592872
Br200	Br	1.342175	0.443297	1.092872
Br201	Br	0.931924	-0.019142	0.650147
Br202	Br	1.431924	0.480858	1.150147
Br203	Br	0.931883	-0.019147	0.164056
Br204	Br	1.431883	0.480853	0.664056
H205	H	0.803315	0.207294	0.428485
H206	H	1.303315	0.707294	0.928485
Br207	Br	0.708513	0.204084	0.349817
Br208	Br	1.208513	0.704084	0.849817
