data_functionalizedCrystal
_audit_creation_method	'MofGen! by Chris Wilmer'
_symmetry_space_group_name_H-M	'P1'
_symmetry_Int_Tables_number	1
_symmetry_cell_setting	triclinic
loop_
_symmetry_equiv_pos_as_xyz
  x,y,z
_cell_length_a	19.805407
_cell_length_b	17.637651
_cell_length_c	19.805398
_cell_angle_alpha	78.758287
_cell_angle_beta	89.984135
_cell_angle_gamma	101.218564
loop_
_atom_site_label
_atom_site_type_symbol
_atom_site_fract_x
_atom_site_fract_y
_atom_site_fract_z
Zn1	Zn	0.980280	-0.314790	-0.328176
Zn2	Zn	0.957342	-0.447001	-0.192079
Zn3	Zn	0.867099	-0.314808	-0.214997
Zn4	Zn	0.844204	-0.446962	-0.305232
O5	O	0.912231	-0.380890	-0.260121
O6	O	1.071952	-0.332336	-0.310133
O7	O	0.945352	-0.429488	-0.100398
O8	O	0.901294	-0.204167	-0.249204
O9	O	1.055100	-0.429471	-0.210143
O10	O	0.984448	-0.204154	-0.332355
O11	O	0.879052	-0.332367	-0.117236
O12	O	0.769347	-0.332330	-0.226956
O13	O	0.862273	-0.429406	-0.402996
O14	O	0.752526	-0.429423	-0.293252
O15	O	0.962248	-0.332299	-0.419853
O16	O	0.923152	-0.557633	-0.187896
O17	O	0.840031	-0.557605	-0.271029
C18	C	0.736378	-0.380875	-0.260102
C19	C	0.661144	-0.380887	-0.260106
C20	C	0.617046	-0.431520	-0.294543
C21	C	0.546357	-0.431522	-0.294552
C22	C	0.519767	-0.380894	-0.260120
C23	C	0.563871	-0.330255	-0.225683
C24	C	0.634559	-0.330251	-0.225678
C25	C	0.278795	-0.330273	-0.225702
C26	C	0.208101	-0.330283	-0.225708
C27	C	0.190593	-0.431544	-0.294576
C28	C	0.261281	-0.431539	-0.294572
C29	C	0.305379	-0.380898	-0.260137
C30	C	0.382028	-0.380896	-0.260129
C31	C	0.443119	-0.380899	-0.260124
C32	C	0.876636	-0.586306	-0.224501
C33	C	0.861471	-0.674184	-0.209285
C34	C	1.027884	-0.962875	-0.375928
C35	C	1.013612	-1.045450	-0.361618
C36	C	0.927081	-1.045571	-0.274949
C37	C	0.941348	-0.962995	-0.289248
C38	C	0.991750	-0.921653	-0.339739
C39	C	0.905215	-0.921773	-0.253060
C40	C	0.919478	-0.839204	-0.267361
C41	C	0.969876	-0.797856	-0.317851
C42	C	1.006014	-0.839084	-0.354040
C43	C	0.854810	-0.963116	-0.202573
C44	C	0.818676	-0.921894	-0.166384
C45	C	0.832943	-0.839323	-0.180682
C46	C	0.883341	-0.797976	-0.231172
C47	C	0.796805	-0.798095	-0.144493
C48	C	0.811069	-0.715526	-0.158794
C49	C	0.897604	-0.715407	-0.245473
C50	C	1.088771	-0.380906	-0.260141
C51	C	1.164002	-0.380913	-0.260149
C52	C	0.912265	-0.380846	-0.436671
C53	C	0.912280	-0.380828	-0.511907
C54	C	0.947984	-0.174671	-0.295895
C55	C	0.963219	-0.086793	-0.311140
C56	C	0.964442	-0.330124	-0.982500
C57	C	0.964428	-0.330148	-0.911808
C58	C	0.912368	-0.380718	-0.867688
C59	C	0.860324	-0.431272	-0.894262
C60	C	0.860342	-0.431251	-0.964953
C61	C	0.860251	-0.431357	-0.609174
C62	C	0.860235	-0.431373	-0.538479
C63	C	0.964336	-0.330255	-0.556028
C64	C	0.964354	-0.330234	-0.626719
C65	C	0.912312	-0.380791	-0.653287
C66	C	0.912330	-0.380765	-0.729940
C67	C	0.912348	-0.380740	-0.791037
C68	C	0.912246	-0.380877	-0.084267
C69	C	0.912401	-0.380673	-0.009071
H70	H	0.186455	-0.289051	-0.197670
H71	H	0.817875	-0.472523	-0.630797
H72	H	0.314691	-0.289044	-0.197657
H73	H	0.817939	-0.472449	-0.858333
O74	O	0.538096	-0.280960	-0.192327
C75	C	0.569036	-0.202185	-0.220879
H76	H	0.589161	-0.198277	-0.275634
H77	H	0.613647	-0.181459	-0.188213
C78	C	0.490667	-0.154209	-0.154979
C79	C	0.515379	-0.149409	-0.222232
H80	H	0.457570	-0.121653	-0.155811
H81	H	0.469823	-0.207281	-0.135741
H82	H	0.527848	-0.136939	-0.127764
H83	H	0.478199	-0.166688	-0.249443
H84	H	0.536215	-0.096338	-0.241475
H85	H	1.006744	-0.289053	-0.662640
H86	H	0.981489	-0.730623	-0.329494
O87	O	0.946567	-0.675118	-0.294475
C88	C	0.951392	-0.593402	-0.299348
H89	H	0.931194	-0.582179	-0.249037
H90	H	0.919369	-0.569973	-0.343520
C91	C	1.052011	-0.564732	-0.374754
C92	C	1.027209	-0.550948	-0.312959
H93	H	1.098777	-0.538543	-0.383153
H94	H	1.048760	-0.619786	-0.371474
H95	H	1.025319	-0.545208	-0.411557
H96	H	1.053895	-0.570480	-0.276156
H97	H	1.030466	-0.495896	-0.316234
O98	O	0.677354	-0.281155	-0.192110
C99	C	0.657072	-0.298318	-0.121653
H100	H	0.626695	-0.361474	-0.107198
H101	H	0.623385	-0.255903	-0.111376
C102	C	0.758767	-0.211476	-0.095852
C103	C	0.721462	-0.289048	-0.078097
H104	H	0.798485	-0.205755	-0.068984
H105	H	0.772431	-0.199910	-0.143321
H106	H	0.730688	-0.176139	-0.087288
H107	H	0.749539	-0.324382	-0.086669
H108	H	0.707805	-0.300620	-0.030628
O109	O	0.769763	-0.962178	-0.117339
C110	C	0.764907	-1.043896	-0.112488
H111	H	0.815186	-1.055120	-0.132766
H112	H	0.720682	-1.067335	-0.144430
C113	C	0.689673	-1.072549	-0.011740
C114	C	0.751428	-1.086336	-0.036641
H115	H	0.681356	-1.098730	0.035044
H116	H	0.692942	-1.017495	-0.015010
H117	H	0.652826	-1.092082	-0.038365
H118	H	0.788275	-1.066794	-0.010022
H119	H	0.748165	-1.141388	-0.033366
O120	O	1.014807	-0.281107	-0.530152
C121	C	0.985115	-0.230039	-0.498131
H122	H	0.928987	-0.257927	-0.482696
H123	H	0.987836	-0.171443	-0.535539
C124	C	1.093762	-0.181486	-0.452430
C125	C	1.024826	-0.215742	-0.433467
H126	H	1.118259	-0.172663	-0.412543
H127	H	1.113767	-0.215889	-0.474005
H128	H	1.096020	-0.132659	-0.483604
H129	H	1.022569	-0.264572	-0.402300
H130	H	1.004821	-0.181346	-0.411884
O131	O	0.809633	-0.480581	-0.495710
C132	C	0.763696	-0.525190	-0.534318
H133	H	0.790955	-0.527911	-0.584239
H134	H	0.717305	-0.496244	-0.546850
C135	C	0.705883	-0.606002	-0.430817
C136	C	0.739364	-0.609350	-0.492128
H137	H	0.690871	-0.657915	-0.404791
H138	H	0.736829	-0.575947	-0.404805
H139	H	0.667228	-0.581877	-0.441269
H140	H	0.778023	-0.633466	-0.481675
H141	H	0.708423	-0.639411	-0.518137
H142	H	0.817966	-0.472413	-0.986585
H143	H	1.047061	-0.805422	-0.395150
O144	O	1.076843	-0.922832	-0.425019
C145	C	1.105694	-0.976918	-0.453883
H146	H	1.067804	-1.035800	-0.446000
H147	H	1.155607	-0.985669	-0.427633
C148	C	1.167508	-0.872320	-0.541203
C149	C	1.120967	-0.944638	-0.531526
H150	H	1.176932	-0.852408	-0.589096
H151	H	1.148072	-0.835880	-0.521756
H152	H	1.209097	-0.879622	-0.519324
H153	H	1.079377	-0.937334	-0.553398
H154	H	1.140396	-0.981077	-0.550979
O155	O	0.840943	-1.043324	-0.188805
C156	C	0.818741	-1.070878	-0.248882
H157	H	0.838515	-1.023265	-0.296126
H158	H	0.760041	-1.085558	-0.247725
C159	C	0.822786	-1.203945	-0.194228
C160	C	0.847078	-1.145468	-0.252253
H161	H	0.840262	-1.249958	-0.196306
H162	H	0.837741	-1.185383	-0.153751
H163	H	0.773870	-1.216169	-0.193270
H164	H	0.895992	-1.133238	-0.253205
H165	H	0.832131	-1.164031	-0.292730
H166	H	1.006832	-0.288940	-1.018420
O167	O	0.747797	-0.838346	-0.095530
C168	C	0.695794	-0.886096	-0.125758
H169	H	0.717504	-0.898411	-0.174943
H170	H	0.651123	-0.854305	-0.138651
C171	C	0.643342	-0.949439	-0.014512
C172	C	0.670008	-0.964570	-0.074918
H173	H	0.627433	-0.997845	0.016849
H174	H	0.678376	-0.917268	0.005854
H175	H	0.606119	-0.922945	-0.025265
H176	H	0.707235	-0.991055	-0.064166
H177	H	0.634979	-0.996749	-0.095281
H178	H	0.886043	-1.079243	-0.233841
O179	O	0.503610	-0.480790	-0.328003
C180	C	0.542238	-0.525468	-0.358399
H181	H	0.592153	-0.528147	-0.330203
H182	H	0.554772	-0.496609	-0.414854
C183	C	0.438769	-0.606345	-0.388055
C184	C	0.500073	-0.609641	-0.353422
H185	H	0.412759	-0.658266	-0.384989
H186	H	0.412744	-0.576243	-0.367580
H187	H	0.449223	-0.582292	-0.435099
H188	H	0.489619	-0.633684	-0.306378
H189	H	0.526095	-0.639749	-0.373889
O190	O	0.775925	-0.675600	-0.123560
C191	C	0.728369	-0.729794	-0.075942
H192	H	0.745930	-0.788632	-0.063426
H193	H	0.675427	-0.738603	-0.099158
C194	C	0.702645	-0.625347	-0.024846
C195	C	0.724217	-0.697611	-0.009469
H196	H	0.700081	-0.605494	0.016157
H197	H	0.734683	-0.588834	-0.056928
H198	H	0.658529	-0.632697	-0.044193
H199	H	0.768336	-0.690257	0.009870
H200	H	0.692187	-0.734121	0.022619
O201	O	1.014927	-0.280918	-0.886061
C202	C	1.013792	-0.202123	-0.917027
H203	H	0.960410	-0.198141	-0.937135
H204	H	1.053661	-0.181451	-0.961658
C205	C	1.096372	-0.154247	-0.838702
C206	C	1.030805	-0.149354	-0.863394
H207	H	1.106869	-0.121695	-0.805620
H208	H	1.097139	-0.207332	-0.817840
H209	H	1.129588	-0.137021	-0.875900
H210	H	0.997590	-0.166589	-0.826198
H211	H	1.030033	-0.096270	-0.884248
O212	O	0.287093	-0.480634	-0.328132
C213	C	0.272803	-0.463472	-0.398591
H214	H	0.264313	-0.400318	-0.413047
H215	H	0.224430	-0.505891	-0.408873
C216	C	0.344435	-0.550302	-0.424385
C217	C	0.334013	-0.472733	-0.442142
H218	H	0.382190	-0.556018	-0.451250
H219	H	0.354060	-0.561867	-0.376915
H220	H	0.304120	-0.585642	-0.432954
H221	H	0.374325	-0.437395	-0.433565
H222	H	0.324396	-0.461162	-0.489612
H223	H	0.638688	-0.472750	-0.322579
H224	H	1.043030	-1.079010	-0.391101
H225	H	0.154679	-0.472775	-0.322618
