data_functionalizedCrystal
_audit_creation_method	'MofGen! by Chris Wilmer'
_symmetry_space_group_name_H-M	'P1'
_symmetry_Int_Tables_number	1
_symmetry_cell_setting	triclinic
loop_
_symmetry_equiv_pos_as_xyz
  x,y,z
_cell_length_a	16.109301
_cell_length_b	19.288864
_cell_length_c	18.366186
_cell_angle_alpha	90.022894
_cell_angle_beta	89.992337
_cell_angle_gamma	96.701137
loop_
_atom_site_label
_atom_site_type_symbol
_atom_site_fract_x
_atom_site_fract_y
_atom_site_fract_z
O1	O	0.103716	-0.921600	-0.060785
O2	O	0.603716	-0.421600	0.439215
O3	O	0.117707	-0.719373	-0.060736
O4	O	0.617707	-0.219373	0.439264
O5	O	-0.010339	-0.826042	-0.060755
O6	O	0.489661	-0.326042	0.439245
O7	O	0.231761	-0.814931	-0.060767
O8	O	0.731761	-0.314931	0.439233
O9	O	-0.010345	-0.826024	0.060345
O10	O	0.489655	-0.326024	0.560345
O11	O	0.117701	-0.719355	0.060363
O12	O	0.617701	-0.219355	0.560363
O13	O	0.103710	-0.921582	0.060314
O14	O	0.603710	-0.421582	0.560314
Zn15	Zn	0.110704	-0.820466	0.079566
Zn16	Zn	0.610704	-0.320466	0.579566
Zn17	Zn	0.110712	-0.820490	-0.079988
Zn18	Zn	0.610712	-0.320490	0.420012
O19	O	0.231755	-0.814913	0.060333
O20	O	0.731755	-0.314913	0.560333
C21	C	0.117254	-0.693487	-0.000180
C22	C	0.617254	-0.193487	0.499820
C23	C	0.115902	-0.616380	-0.000161
C24	C	0.615902	-0.116380	0.499839
C25	C	-0.041315	-0.825583	-0.000205
C26	C	0.458685	-0.325583	0.499795
C27	C	-0.133606	-0.824234	-0.000203
C28	C	0.366394	-0.324234	0.499797
C29	C	0.104163	-0.947469	-0.000244
C30	C	0.604163	-0.447469	0.499756
C31	C	0.105514	-1.024576	-0.000268
C32	C	0.605514	-0.524576	0.499732
C33	C	-0.356084	-0.884391	-0.000229
C34	C	0.143916	-0.384391	0.499771
C35	C	-0.442800	-0.883118	-0.000235
C36	C	0.057200	-0.383118	0.499765
C37	C	-0.422493	-0.756559	-0.000201
C38	C	0.077507	-0.256559	0.499799
C39	C	-0.335778	-0.757833	-0.000201
C40	C	0.164222	-0.257833	0.499799
C41	C	-0.302577	-0.821751	-0.000211
C42	C	0.197423	-0.321751	0.499789
C43	C	-0.476007	-0.819204	-0.000217
C44	C	0.023993	-0.319204	0.499783
C45	C	-0.570028	-0.817823	-0.000223
C46	C	-0.070028	-0.317823	0.499777
C47	C	-0.208549	-0.823133	-0.000206
C48	C	0.291451	-0.323133	0.499794
C49	C	0.262732	-0.815372	-0.000219
C50	C	0.762732	-0.315372	0.499781
C51	C	0.355022	-0.816722	-0.000225
C52	C	0.855022	-0.316722	0.499775
N53	N	0.110698	-0.820455	0.188457
N54	N	0.610698	-0.320455	0.688457
C55	C	0.191034	-0.571863	-0.000176
C56	C	0.691034	-0.071863	0.499824
C57	C	0.189764	-0.499413	-0.000184
C58	C	0.689764	0.000587	0.499816
C59	C	0.113359	-0.471483	-0.000191
C60	C	0.613359	0.028517	0.499809
C61	C	0.038218	-0.516009	-0.000172
C62	C	0.538218	-0.016009	0.499828
C63	C	0.039489	-0.588458	-0.000157
C64	C	0.539489	-0.088458	0.499843
C65	C	0.053298	-0.363084	-0.042639
C66	C	0.553298	0.136916	0.457361
C67	C	0.052029	-0.290636	-0.042659
C68	C	0.552029	0.209364	0.457341
C69	C	0.109433	-0.248028	-0.000235
C70	C	0.609433	0.251972	0.499765
C71	C	0.168120	-0.277874	0.042199
C72	C	0.668120	0.222126	0.542199
C73	C	0.169391	-0.350323	0.042214
C74	C	0.669391	0.149677	0.542214
C75	C	0.111971	-0.392925	-0.000207
C76	C	0.611971	0.107075	0.499793
C77	C	0.183193	-0.124952	-0.000258
C78	C	0.683193	0.375048	0.499742
C79	C	0.181920	-0.052501	-0.000262
C80	C	0.681920	0.447499	0.499738
C81	C	0.030372	-0.069099	-0.000257
C82	C	0.530372	0.430901	0.499743
C83	C	0.031647	-0.141548	-0.000246
C84	C	0.531647	0.358452	0.499754
C85	C	0.108060	-0.169470	-0.000250
C86	C	0.608060	0.330530	0.499750
N87	N	0.110712	-0.820506	-0.188879
N88	N	0.610712	-0.320506	0.311121
C89	C	0.054027	-0.867703	0.226549
C90	C	0.554027	-0.367703	0.726549
C91	C	0.054023	-0.867707	0.302777
C92	C	0.554023	-0.367707	0.802777
C93	C	0.110705	-0.820470	0.340910
C94	C	0.610705	-0.320470	0.840910
C95	C	0.167380	-0.773213	0.302808
C96	C	0.667380	-0.273213	0.802808
C97	C	0.167377	-0.773205	0.226582
C98	C	0.667377	-0.273205	0.726582
C99	C	0.186459	-0.811353	0.461668
C100	C	0.686459	-0.311353	0.961668
C101	C	0.186463	-0.811365	0.537893
C102	C	0.686463	-0.311365	1.037893
C103	C	0.110715	-0.820490	0.576017
C104	C	0.610715	-0.320490	1.076017
C105	C	0.034960	-0.829616	0.537908
C106	C	0.534960	-0.329616	1.037908
C107	C	0.034956	-0.829609	0.461681
C108	C	0.534956	-0.329609	0.961681
C109	C	0.110715	-0.820473	0.423564
C110	C	0.610715	-0.320473	0.923564
C111	C	0.054036	-0.867746	0.696764
C112	C	0.554036	-0.367746	1.196764
C113	C	0.054031	-0.867745	0.772993
C114	C	0.554031	-0.367745	1.272993
C115	C	0.167395	-0.773254	0.773023
C116	C	0.667395	-0.273254	1.273023
C117	C	0.167392	-0.773251	0.696796
C118	C	0.667392	-0.273251	1.196796
C119	C	0.110714	-0.820500	0.658671
C120	C	0.610714	-0.320500	1.158671
H121	H	-0.329054	-0.936438	-0.000239
H122	H	0.170946	-0.436438	0.499761
O123	O	0.265606	-0.155073	-0.000254
O124	O	0.765606	0.344927	0.499746
H125	H	0.269800	-0.187663	0.049107
H126	H	0.769800	0.312337	0.549107
O127	O	-0.046796	-0.839317	0.420648
O128	O	0.453204	-0.339317	0.920648
H129	H	-0.051916	-0.792867	0.386010
H130	H	0.448084	-0.292867	0.886010
O131	O	-0.046740	-0.839467	0.579028
O132	O	0.453260	-0.339467	1.079028
H133	H	-0.081481	-0.890675	0.564383
H134	H	0.418519	-0.390675	1.064383
H135	H	-0.449537	-0.704519	-0.000191
H136	H	0.050463	-0.204519	0.499809
H137	H	-0.023992	-0.493264	-0.000188
H138	H	0.476008	0.006736	0.499812
O139	O	-0.007102	-0.918695	0.655635
O140	O	0.492898	-0.418695	1.155635
H141	H	-0.046521	-0.951544	0.694933
H142	H	0.453479	-0.451544	1.194933
H143	H	0.004247	-0.266341	-0.077214
H144	H	0.504247	0.233659	0.422786
O145	O	-0.500515	-0.950679	-0.000245
O146	O	-0.000515	-0.450679	0.499755
H147	H	-0.462856	-0.995336	-0.000246
H148	H	0.037144	-0.495336	0.499754
H149	H	0.007874	-0.906184	0.333797
H150	H	0.507874	-0.406184	0.833797
H151	H	-0.292210	-0.706821	-0.000188
H152	H	0.207790	-0.206821	0.499812
H153	H	0.248146	-0.803910	0.430633
H154	H	0.748146	-0.303910	0.930633
H155	H	0.253255	-0.594592	-0.000181
H156	H	0.753255	-0.094592	0.499819
H157	H	0.007874	-0.906175	0.195510
H158	H	0.507874	-0.406175	0.695510
H159	H	-0.021694	-0.624704	-0.000145
H160	H	0.478306	-0.124704	0.499855
H161	H	0.250947	-0.463160	-0.000194
H162	H	0.750947	0.036840	0.499806
O163	O	0.232652	-0.382522	0.088009
O164	O	0.732652	0.117478	0.588009
H165	H	0.272346	-0.340729	0.117522
H166	H	0.772346	0.159271	0.617522
H167	H	0.214863	-0.243184	0.076745
H168	H	0.714863	0.256816	0.576745
H169	H	-0.029534	-0.177795	-0.000238
H170	H	0.470466	0.322205	0.499762
H171	H	0.007878	-0.906218	0.804009
H172	H	0.507878	-0.406218	1.304009
O173	O	0.262958	-0.004480	-0.000275
O174	O	0.762958	0.495520	0.499725
H175	H	0.316302	-0.036071	-0.000281
H176	H	0.816302	0.463929	0.499719
O177	O	0.268165	-0.801525	0.578995
O178	O	0.768165	-0.301525	1.078995
H179	H	0.273363	-0.847924	0.613689
H180	H	0.773363	-0.347924	1.113689
H181	H	0.213542	-0.734789	0.804071
H182	H	0.713542	-0.234789	1.304071
H183	H	0.006551	-0.397770	-0.077190
H184	H	0.506551	0.102230	0.422810
H185	H	0.213542	-0.734779	0.665779
H186	H	0.713542	-0.234779	1.165779
H187	H	-0.031839	-0.046359	-0.000308
H188	H	0.468161	0.453641	0.499692
H189	H	0.213530	-0.734750	0.333860
H190	H	0.713530	-0.234750	0.833860
O191	O	0.228508	-0.722248	0.185489
O192	O	0.728508	-0.222248	0.685489
H193	H	0.267927	-0.689402	0.224808
H194	H	0.767927	-0.189402	0.724808
