data_functionalizedCrystal
_audit_creation_method	'MofGen! by Chris Wilmer'
_symmetry_space_group_name_H-M	'P1'
_symmetry_Int_Tables_number	1
_symmetry_cell_setting	triclinic
loop_
_symmetry_equiv_pos_as_xyz
  x,y,z
_cell_length_a	12.645331
_cell_length_b	12.594516
_cell_length_c	12.645323
_cell_angle_alpha	89.974378
_cell_angle_beta	89.984262
_cell_angle_gamma	90.011050
loop_
_atom_site_label
_atom_site_type_symbol
_atom_site_fract_x
_atom_site_fract_y
_atom_site_fract_z
Zn1	Zn	1.620774	-0.423755	-0.599245
Zn2	Zn	1.620674	-0.601759	-0.421982
Zn3	Zn	1.443489	-0.423792	-0.422010
Zn4	Zn	1.443489	-0.601690	-0.599219
O5	O	1.532107	-0.512749	-0.510614
O6	O	1.769108	-0.447381	-0.575729
O7	O	1.597128	-0.578195	-0.273639
O8	O	1.467048	-0.274842	-0.445543
O9	O	1.769035	-0.578160	-0.445495
O10	O	1.597299	-0.274815	-0.575756
O11	O	1.466951	-0.447444	-0.273659
O12	O	1.295142	-0.447377	-0.445519
O13	O	1.467048	-0.578042	-0.747570
O14	O	1.295142	-0.578078	-0.575713
O15	O	1.597299	-0.447315	-0.747588
O16	O	1.597128	-0.750695	-0.445471
O17	O	1.466951	-0.750645	-0.575686
C18	C	1.256677	-0.512725	-0.510617
C19	C	1.138847	-0.512740	-0.510643
C20	C	0.971318	-0.595415	-0.592121
C21	C	1.093878	-0.595148	-0.592462
C22	C	1.094357	-0.400635	-0.541166
C23	C	0.971759	-0.401139	-0.541740
C24	C	0.971604	-0.541268	-0.398383
C25	C	1.094210	-0.543720	-0.398989
C26	C	1.532058	-0.789290	-0.510596
C27	C	1.532134	-0.907595	-0.510623
C28	C	1.603019	-0.976837	-0.439875
C29	C	1.628928	-1.047538	-0.536631
C30	C	1.506358	-1.047694	-0.413929
C31	C	1.558092	-0.976738	-0.607430
C32	C	1.435476	-0.976887	-0.484663
C33	C	1.461348	-1.047556	-0.581485
C34	C	1.808612	-0.512774	-0.510612
C35	C	1.926442	-0.512785	-0.510611
C36	C	1.532185	-0.512667	-0.787119
C37	C	1.532218	-0.512632	-0.904950
C38	C	1.532185	-0.235128	-0.510656
C39	C	1.532218	-0.116823	-0.510674
C40	C	1.450024	-0.594485	-1.072502
C41	C	1.450240	-0.594890	-0.949942
C42	C	1.643921	-0.543074	-0.949456
C43	C	1.643470	-0.543587	-1.072054
C44	C	1.503765	-0.399879	-1.072152
C45	C	1.501273	-0.400554	-0.949546
C46	C	1.532090	-0.512754	-0.235184
C47	C	1.532262	-0.512490	-0.117355
H48	H	0.940525	-0.576809	-0.674794
H49	H	1.484521	-1.078860	-0.332135
C50	C	0.932386	-0.459965	-0.316334
N51	N	0.902840	-0.398725	-0.254543
C52	C	1.133534	-0.655153	-0.367873
N53	N	1.163174	-0.739078	-0.344432
C54	C	1.133530	-0.569719	-0.704812
N55	N	1.163394	-0.550577	-0.789441
C56	C	1.684015	-0.934873	-0.359127
N57	N	1.745024	-0.903260	-0.298316
C58	C	1.135853	-0.367403	-0.650806
N59	N	1.167105	-0.342379	-0.733390
C60	C	1.390242	-0.369512	-0.910205
N61	N	1.306620	-0.346126	-0.880552
H62	H	1.667623	-0.625908	-1.100661
C63	C	1.325036	-0.934913	-0.454916
N64	N	1.241853	-0.903292	-0.432497
C65	C	0.933150	-0.368480	-0.652571
N66	N	0.904075	-0.343873	-0.736049
H67	H	1.668488	-0.624532	-0.918763
H68	H	1.423729	-0.372130	-1.103067
H69	H	1.367409	-0.575840	-0.919850
C70	C	1.337786	-0.568992	-1.112323
N71	N	1.253246	-0.549789	-1.142324
H72	H	1.706837	-0.485241	-0.920313
H73	H	1.710705	-1.078575	-0.558616
C74	C	1.729070	-0.466428	-1.112142
N75	N	1.793550	-0.408320	-1.142331
H76	H	1.468654	-0.677447	-1.103318
H77	H	1.579847	-0.945703	-0.689294
C78	C	0.931650	-0.315141	-0.465044
N79	N	0.901444	-0.250363	-0.407282
H80	H	1.123959	-0.678281	-0.573333
H81	H	1.401439	-1.078412	-0.641406
H82	H	1.556794	-0.336233	-0.918919
H83	H	1.469053	-0.678374	-0.920625
H84	H	0.941835	-0.678823	-0.573203
C85	C	1.133665	-0.315207	-0.463441
N86	N	1.163258	-0.250867	-0.404886
H87	H	1.563663	-0.338789	-1.101160
H88	H	1.124821	-0.487902	-0.334999
C89	C	0.929832	-0.649817	-0.360899
N90	N	0.898370	-0.731581	-0.332677
