data_functionalizedCrystal
_audit_creation_method	'MofGen! by Chris Wilmer'
_symmetry_space_group_name_H-M	'P1'
_symmetry_Int_Tables_number	1
_symmetry_cell_setting	triclinic
loop_
_symmetry_equiv_pos_as_xyz
  x,y,z
_cell_length_a	14.044190
_cell_length_b	14.971486
_cell_length_c	14.048226
_cell_angle_alpha	90.001501
_cell_angle_beta	89.988942
_cell_angle_gamma	91.597047
loop_
_atom_site_label
_atom_site_type_symbol
_atom_site_fract_x
_atom_site_fract_y
_atom_site_fract_z
O1	O	0.123538	-1.196682	-0.079061
O2	O	0.138332	-0.937448	-0.079088
O3	O	-0.007054	-1.063170	-0.079057
O4	O	0.268924	-1.070959	-0.079093
O5	O	-0.007063	-1.063153	0.079265
O6	O	0.138323	-0.937430	0.079233
O7	O	0.123529	-1.196665	0.079260
Zn8	Zn	0.130925	-1.067045	0.104383
Zn9	Zn	0.130936	-1.067068	-0.104212
O10	O	0.268916	-1.070942	0.079228
C11	C	0.137666	-0.904062	0.000069
C12	C	0.135683	-0.804609	0.000059
C13	C	-0.042377	-1.059754	0.000107
C14	C	-0.147614	-1.049591	0.000114
C15	C	0.124195	-1.230050	0.000100
C16	C	0.126178	-1.329504	0.000104
C17	C	-0.397840	-1.103093	0.000082
C18	C	-0.340293	-1.031024	0.000081
C19	C	-0.233077	-1.041357	0.000099
C20	C	-0.505066	-1.092761	0.000064
C21	C	0.304238	-1.074358	0.000063
C22	C	0.409476	-1.084522	0.000049
N23	N	0.130917	-1.067036	0.246744
C24	C	0.221094	-0.754114	0.000049
C25	C	0.219225	-0.660667	0.000064
C26	C	0.131945	-0.617717	0.000081
C27	C	0.046528	-0.668219	0.000094
C28	C	0.048398	-0.761664	0.000087
C29	C	0.042638	-0.473450	0.000108
C30	C	0.040768	-0.379998	0.000114
C31	C	0.213465	-0.372453	0.000085
C32	C	0.215335	-0.465898	0.000077
C33	C	0.129917	-0.516393	0.000089
N34	N	0.130937	-1.067083	-0.246572
C35	C	0.066566	-1.122727	0.296576
C36	C	0.066566	-1.122733	0.396234
C37	C	0.130921	-1.067052	0.446058
C38	C	0.195274	-1.011354	0.396218
C39	C	0.195270	-1.011344	0.296563
C40	C	0.195281	-1.011381	0.603933
C41	C	0.195287	-1.011392	0.703595
C42	C	0.066577	-1.122770	0.703604
C43	C	0.066573	-1.122760	0.603948
C44	C	0.130928	-1.067063	0.554116
H45	H	-0.371547	-0.961564	0.000068
C46	C	-0.355991	-1.195630	0.000159
C47	C	-0.256425	-1.187609	0.000201
C48	C	-0.217829	-1.272833	0.000289
H49	H	-0.376618	-1.227301	-0.055031
H50	H	-0.376711	-1.227208	0.055397
H51	H	-0.235714	-1.156044	-0.055031
H52	H	-0.235772	-1.155953	0.055387
H53	H	-0.238550	-1.304411	0.055526
H54	H	-0.238463	-1.304498	-0.054902
H55	H	-0.150271	-1.267402	0.000326
C56	C	0.315954	-0.800576	0.000078
C57	C	0.390352	-0.736349	0.000099
C58	C	0.477752	-0.779112	0.000141
H59	H	0.320413	-0.836866	-0.055121
H60	H	0.320321	-0.836852	0.055307
H61	H	0.385987	-0.700087	-0.055125
H62	H	0.385924	-0.700055	0.055293
H63	H	0.482120	-0.815389	0.055370
H64	H	0.482202	-0.815402	-0.055059
H65	H	0.528241	-0.735541	0.000164
H66	H	-0.026919	-0.514561	0.000118
H67	H	-0.024537	-0.633242	0.000122
C68	C	0.311888	-0.605737	-0.000106
C69	C	0.315847	-0.551850	-0.081543
C70	C	0.401192	-0.501230	-0.081727
H71	H	0.364211	-0.644597	-0.000174
H72	H	0.314764	-0.569078	0.055078
H73	H	0.312980	-0.588506	-0.136713
H74	H	0.263543	-0.512972	-0.081493
H75	H	0.404069	-0.464570	-0.026543
H76	H	0.453508	-0.540096	-0.081792
H77	H	0.403886	-0.464655	-0.136976
H78	H	0.286405	-0.500865	0.000054
C79	C	0.306135	-0.317526	-0.000074
C80	C	0.310096	-0.263637	-0.081510
C81	C	0.395440	-0.213015	-0.081689
H82	H	0.358459	-0.356385	-0.000141
H83	H	0.309009	-0.280868	0.055111
H84	H	0.307232	-0.300292	-0.136680
H85	H	0.257792	-0.224761	-0.081460
H86	H	0.398314	-0.176357	-0.026504
H87	H	0.447757	-0.251881	-0.081753
H88	H	0.398135	-0.176439	-0.136937
C89	C	-0.053896	-0.333199	0.000100
C90	C	-0.037247	-0.240556	0.000078
C91	C	-0.124428	-0.197416	0.000055
H92	H	-0.089135	-0.349959	0.055305
H93	H	-0.089087	-0.350007	-0.055122
H94	H	-0.002071	-0.223755	0.055294
H95	H	-0.002023	-0.223770	-0.055124
H96	H	-0.159619	-0.214225	-0.055167
H97	H	-0.159660	-0.214183	0.055262
H98	H	-0.113143	-0.134554	0.000031
H99	H	-0.021152	-0.802776	0.000094
C100	C	-0.003413	-1.183214	0.242659
C101	C	-0.059786	-1.231969	0.307635
C102	C	-0.124274	-1.287689	0.258004
H103	H	0.030639	-1.223245	0.203765
H104	H	-0.042986	-1.147902	0.203818
H105	H	-0.020218	-1.267278	0.346459
H106	H	-0.093859	-1.191961	0.346531
H107	H	-0.163847	-1.252377	0.219164
H108	H	-0.090213	-1.327714	0.219113
H109	H	-0.162536	-1.320769	0.302083
H110	H	0.014166	-1.168081	0.436807
H111	H	0.247670	-0.966013	0.436791
C112	C	-0.003403	-1.183245	0.550023
C113	C	-0.059779	-1.232006	0.614991
C114	C	-0.124262	-1.287724	0.565351
H115	H	0.030654	-1.223272	0.511129
H116	H	-0.042974	-1.147931	0.511183
H117	H	-0.020213	-1.267318	0.653815
H118	H	-0.093857	-1.192002	0.653888
H119	H	-0.163833	-1.252410	0.526511
H120	H	-0.090197	-1.327745	0.526458
H121	H	-0.162526	-1.320809	0.609424
H122	H	0.014178	-1.168119	0.744183
H123	H	0.247691	-0.966049	0.744157
C124	C	0.265261	-0.950882	0.549999
C125	C	0.321642	-0.902140	0.614959
C126	C	0.386128	-0.846415	0.565311
H127	H	0.231207	-0.910844	0.511132
H128	H	0.304828	-0.986190	0.511131
H129	H	0.282080	-0.866835	0.653811
H130	H	0.355717	-0.942156	0.653829
H131	H	0.425696	-0.881723	0.526443
H132	H	0.352066	-0.806383	0.526445
H133	H	0.424397	-0.813344	0.609378
H134	H	0.247669	-0.965994	0.255990
