data_functionalizedCrystal
_audit_creation_method	'MofGen! by Chris Wilmer'
_symmetry_space_group_name_H-M	'P1'
_symmetry_Int_Tables_number	1
_symmetry_cell_setting	triclinic
loop_
_symmetry_equiv_pos_as_xyz
  x,y,z
_cell_length_a	10.489746
_cell_length_b	10.489741
_cell_length_c	9.016244
_cell_angle_alpha	89.998079
_cell_angle_beta	89.995566
_cell_angle_gamma	84.540238
loop_
_atom_site_label
_atom_site_type_symbol
_atom_site_fract_x
_atom_site_fract_y
_atom_site_fract_z
O1	O	1.694056	0.179994	-0.123240
O2	O	1.322861	0.196880	-0.123264
O3	O	1.516905	0.002840	-0.123243
O4	O	1.500012	0.374035	-0.123261
O5	O	1.516876	0.002844	0.123438
O6	O	1.322832	0.196884	0.123416
O7	O	1.694027	0.179999	0.123441
Cu8	Cu	1.508427	0.188442	0.145953
Cu9	Cu	1.508461	0.188437	-0.145776
O10	O	1.499983	0.374039	0.123419
C11	C	1.275315	0.195606	0.000073
C12	C	1.133686	0.191786	0.000064
C13	C	0.980828	0.066062	0.000091
C14	C	1.058208	0.128921	0.121710
C15	C	1.058191	0.128946	-0.121498
C16	C	0.958716	0.247903	0.121820
C17	C	0.958695	0.247910	-0.121497
C18	C	1.036025	0.310856	0.000151
C19	C	1.515614	-0.044690	0.000097
C20	C	1.511797	-0.186320	0.000094
C21	C	1.388333	-0.254462	0.000075
C22	C	1.446642	-0.346581	0.121705
C23	C	1.446700	-0.346560	-0.121503
C24	C	1.570157	-0.276573	0.121825
C25	C	1.570198	-0.276543	-0.121493
C26	C	1.628597	-0.368635	0.000167
C27	C	1.741573	0.181273	0.000101
C28	C	1.883202	0.185093	0.000100
C29	C	1.501273	0.421569	0.000077
C30	C	1.505091	0.563198	0.000070
N31	N	1.508413	0.188445	0.351139
N32	N	1.508485	0.188424	-0.350962
C33	C	1.404293	0.291895	0.586160
C34	C	1.404524	0.292283	0.414269
C35	C	1.641780	0.218742	0.413484
C36	C	1.641212	0.219475	0.585429
C37	C	1.480489	0.054358	0.585687
C38	C	1.477429	0.055226	0.413732
H39	H	1.101646	0.078673	-0.224320
H40	H	1.422057	0.390797	0.629349
Cl41	Cl	1.650804	-0.228608	-0.280253
Cl42	Cl	1.251506	0.264217	0.349186
H43	H	1.622341	-0.245739	0.224769
H44	H	1.394390	-0.377592	0.224528
H45	H	1.060501	0.414436	0.000213
Cl46	Cl	1.333483	0.009869	0.652706
H47	H	1.101672	0.078674	0.224538
H48	H	0.956107	-0.037439	0.000219
H49	H	1.379316	0.032262	0.372985
Cl50	Cl	1.366030	-0.394403	-0.280255
H51	H	1.665695	0.317286	0.625515
Cl52	Cl	1.231609	-0.177807	0.000243
Cl53	Cl	0.891544	0.325418	-0.280264
H54	H	1.721230	0.147149	0.627020
H55	H	1.730200	-0.418057	0.000242
Cl56	Cl	1.764416	0.105566	0.350354
H57	H	0.915425	0.298119	0.224759
H58	H	1.304888	0.273943	0.627547
Cl59	Cl	1.586841	-0.069370	0.347418
H60	H	1.422522	0.391748	0.373118
Cl61	Cl	1.680430	0.368049	0.346977
H62	H	1.556456	-0.022657	0.626348
