data_functionalizedCrystal
_audit_creation_method	'MofGen! by Chris Wilmer'
_symmetry_space_group_name_H-M	'P1'
_symmetry_Int_Tables_number	1
_symmetry_cell_setting	triclinic
loop_
_symmetry_equiv_pos_as_xyz
  x,y,z
_cell_length_a	15.995350
_cell_length_b	18.266242
_cell_length_c	15.995350
_cell_angle_alpha	90.002894
_cell_angle_beta	83.492375
_cell_angle_gamma	90.005295
loop_
_atom_site_label
_atom_site_type_symbol
_atom_site_fract_x
_atom_site_fract_y
_atom_site_fract_z
O1	O	1.110991	0.060815	0.107926
O2	O	1.610991	0.560815	0.607926
O3	O	0.867216	0.060830	0.121254
O4	O	1.367216	0.560830	0.621254
O5	O	0.995767	0.060821	-0.007297
O6	O	1.495767	0.560821	0.492703
O7	O	0.982440	0.060824	0.236478
O8	O	1.482440	0.560824	0.736478
O9	O	0.995745	-0.060940	-0.007301
O10	O	1.495745	0.439060	0.492699
O11	O	0.867194	-0.060932	0.121250
O12	O	1.367194	0.439068	0.621250
O13	O	1.110969	-0.060947	0.107923
O14	O	1.610969	0.439053	0.607923
Zn15	Zn	0.989078	-0.080272	0.114586
Zn16	Zn	1.489078	0.419728	0.614586
Zn17	Zn	0.989107	0.080155	0.114591
Zn18	Zn	1.489107	0.580155	0.614591
O19	O	0.982418	-0.060938	0.236474
O20	O	1.482418	0.439062	0.736474
C21	C	0.836010	-0.000049	0.120701
C22	C	1.336010	0.499951	0.620701
C23	C	0.743060	-0.000043	0.119049
C24	C	1.243060	0.499957	0.619049
N25	N	0.989064	-0.189759	0.114582
N26	N	1.489064	0.310241	0.614582
C27	C	0.405312	-0.000059	0.113117
C28	C	0.905312	0.499941	0.613117
C29	C	0.452746	-0.000331	0.021565
C30	C	0.952746	0.499669	0.521565
C31	C	0.549436	-0.000052	0.023217
C32	C	1.049436	0.499948	0.523217
C33	C	0.572873	-0.000052	0.116060
C34	C	1.072873	0.499948	0.616060
C35	C	0.531798	0.069478	0.161218
C36	C	1.031798	0.569478	0.661218
C37	C	0.435162	0.069531	0.158918
C38	C	0.935162	0.569531	0.658918
C39	C	0.434798	-0.068935	0.160806
C40	C	0.934798	0.431065	0.660806
C41	C	0.531744	-0.069849	0.160784
C42	C	1.031744	0.430151	0.660784
C43	C	0.667570	-0.000045	0.117727
C44	C	1.167570	0.499955	0.617727
C45	C	0.310614	-0.000060	0.111452
C46	C	0.810614	0.499940	0.611452
C47	C	1.039838	-0.228064	0.165399
C48	C	1.539838	0.271936	0.665399
C49	C	1.039852	-0.304709	0.165397
C50	C	1.539852	0.195291	0.665397
C51	C	0.989076	-0.343046	0.114587
C52	C	1.489076	0.156954	0.614587
C53	C	0.938300	-0.304731	0.063760
C54	C	1.438300	0.195269	0.563760
C55	C	0.938294	-0.228087	0.063757
C56	C	1.438294	0.271913	0.563757
N57	N	0.915740	-0.463394	0.112301
N58	N	1.415740	0.036606	0.612301
N59	N	0.915748	-0.536202	0.112308
N60	N	1.415748	-0.036202	0.612308
C61	C	0.989093	-0.573968	0.114590
C62	C	1.489093	-0.073968	0.614590
N63	N	1.062431	-0.536176	0.116882
N64	N	1.562431	-0.036176	0.616882
N65	N	1.062422	-0.463361	0.116879
N66	N	1.562422	0.036639	0.616879
C67	C	0.989078	-0.426153	0.114584
C68	C	1.489078	0.073847	0.614584
C69	C	1.039886	-0.695381	0.165407
C70	C	1.539886	-0.195381	0.665407
C71	C	1.039902	-0.772027	0.165399
C72	C	1.539902	-0.272027	0.665399
C73	C	0.938342	-0.772047	0.063767
C74	C	1.438342	-0.272047	0.563767
C75	C	0.938334	-0.695402	0.063771
C76	C	1.438334	-0.195402	0.563771
C77	C	0.989105	-0.657074	0.114595
C78	C	1.489105	-0.157074	0.614595
C79	C	1.142175	-0.000066	0.108476
C80	C	1.642175	0.499934	0.608476
C81	C	1.235125	-0.000067	0.110127
C82	C	1.735125	0.499933	0.610127
C83	C	0.995205	-0.000058	-0.038494
C84	C	1.495205	0.499942	0.461506
C85	C	0.993553	-0.000054	-0.131444
C86	C	1.493553	0.499946	0.368556
N87	N	0.989127	0.189642	0.114588
N88	N	1.489127	0.689642	0.614588
C89	C	0.987621	-0.000056	-0.469192
C90	C	1.487621	0.499944	0.030808
C91	C	0.896069	0.000223	-0.421758
C92	C	1.396069	0.500223	0.078242
C93	C	0.897721	-0.000052	-0.325068
C94	C	1.397721	0.499948	0.174932
C95	C	0.990564	-0.000054	-0.301631
C96	C	1.490564	0.499946	0.198369
C97	C	1.035708	-0.069588	-0.342711
C98	C	1.535708	0.430412	0.157289
C99	C	1.033408	-0.069646	-0.439347
C100	C	1.533408	0.430354	0.060653
C101	C	1.035324	0.068820	-0.439701
C102	C	1.535324	0.568820	0.060299
C103	C	1.035302	0.069739	-0.342755
C104	C	1.535302	0.569739	0.157245
C105	C	0.992231	-0.000056	-0.206934
C106	C	1.492231	0.499944	0.293066
C107	C	0.985956	-0.000059	-0.563890
C108	C	1.485956	0.499941	-0.063890
C109	C	0.982980	-0.000057	0.267671
C110	C	1.482980	0.499943	0.767671
C111	C	0.984631	-0.000057	0.360621
C112	C	1.484631	0.499943	0.860621
H113	H	0.577856	-0.049894	-0.012280
H114	H	1.077856	0.450106	0.487720
H115	H	0.559051	-0.121287	0.127818
H116	H	1.059051	0.378713	0.627818
N117	N	1.120232	0.075006	-0.323465
N118	N	1.620232	0.575006	0.176535
N119	N	1.149300	0.027191	-0.278899
N120	N	1.649300	0.527191	0.221101
H121	H	1.209284	0.030908	-0.265271
H122	H	1.709284	0.530908	0.234729
N123	N	0.853199	0.062478	-0.289417
N124	N	1.353199	0.562478	0.210583
N125	N	0.820684	0.106626	-0.335941
N126	N	1.320684	0.606626	0.164059
H127	H	0.789234	0.150788	-0.310766
H128	H	1.289234	0.650788	0.189234
H129	H	0.897001	-0.803260	0.022396
H130	H	1.397001	-0.303260	0.522396
H131	H	1.100623	-0.072803	-0.471595
H132	H	1.600623	0.427197	0.028405
H133	H	0.434215	-0.050194	-0.015032
H134	H	0.934215	0.449806	0.484968
N135	N	0.850184	0.062783	-0.445001
N136	N	1.350184	0.562783	0.054999
N137	N	0.884416	0.107894	-0.496800
N138	N	1.384416	0.607894	0.003200
H139	H	0.852010	0.152081	-0.513219
H140	H	1.352010	0.652081	-0.013219
N141	N	0.428163	0.061870	-0.024129
N142	N	0.928163	0.561870	0.475871
N143	N	0.375861	0.106399	0.010439
N144	N	0.875861	0.606399	0.510439
H145	H	0.358496	0.150330	-0.021830
H146	H	0.858496	0.650330	0.478170
H147	H	0.861978	-0.049977	-0.297204
H148	H	1.361978	0.450023	0.202796
N149	N	1.091766	-0.656216	0.217291
N150	N	1.591766	-0.156216	0.717291
N151	N	1.147112	-0.613442	0.184609
N152	N	1.647112	-0.113442	0.684609
H153	H	1.183755	-0.585780	0.221248
H154	H	1.683755	-0.085780	0.721248
H155	H	1.000470	-0.121621	-0.457650
H156	H	1.500470	0.378379	0.042350
N157	N	0.551023	-0.075113	0.245716
N158	N	1.051023	0.424887	0.745716
N159	N	0.595585	-0.027292	0.274798
N160	N	1.095585	0.472708	0.774798
H161	H	0.609201	-0.031004	0.334784
H162	H	1.109201	0.468996	0.834784
N163	N	0.886447	-0.656268	0.011885
N164	N	1.386447	-0.156268	0.511885
N165	N	0.831087	-0.613509	0.044556
N166	N	1.331087	-0.113509	0.544556
H167	H	0.794440	-0.585870	0.007910
H168	H	1.294440	-0.085870	0.507910
H169	H	0.859630	-0.049359	-0.441353
H170	H	1.359630	0.450641	0.058647
H171	H	1.103916	-0.072176	-0.328585
H172	H	1.603916	0.427824	0.171415
H173	H	1.002296	0.121178	-0.315505
H174	H	1.502296	0.621178	0.184495
N175	N	0.997802	0.134938	-0.465476
N176	N	1.497802	0.634938	0.034524
N177	N	0.994323	0.147208	-0.541883
N178	N	1.494323	0.647208	-0.041883
H179	H	0.967818	0.193901	-0.560089
H180	H	1.467818	0.693901	-0.060089
H181	H	1.004335	-0.121330	-0.314331
H182	H	1.504335	0.378670	0.185669
N183	N	1.120005	0.069391	-0.479536
N184	N	1.620005	0.569391	0.020464
N185	N	1.145212	0.019346	-0.529441
N186	N	1.645212	0.519346	-0.029441
H187	H	1.205017	0.019741	-0.557575
H188	H	1.705017	0.519741	-0.057575
H189	H	0.545923	0.072063	0.229427
H190	H	1.045923	0.572063	0.729427
H191	H	0.577303	0.049876	-0.012516
H192	H	1.077303	0.549876	0.487484
N193	N	0.886435	-0.188942	0.011850
N194	N	1.386435	0.311058	0.511850
N195	N	0.919132	-0.146169	-0.043485
N196	N	1.419132	0.353831	0.456515
H197	H	0.882507	-0.118520	-0.080144
H198	H	1.382507	0.381480	0.419856
N199	N	0.394954	-0.069547	0.245483
N200	N	0.894954	0.430453	0.745483
N201	N	0.410039	-0.120100	0.294261
N202	N	0.910039	0.379900	0.794261
H203	H	0.381896	-0.120529	0.354062
H204	H	0.881896	0.379471	0.854062
H205	H	0.896959	-0.335949	0.022390
H206	H	1.396959	0.164051	0.522390
N207	N	0.412217	0.134729	0.117595
N208	N	0.912217	0.634729	0.617595
N209	N	0.441941	0.147069	0.043261
N210	N	0.941941	0.647069	0.543261
H211	H	0.425741	0.193115	0.014073
H212	H	0.925741	0.693115	0.514073
N213	N	0.394714	0.073489	0.243241
N214	N	0.894714	0.573489	0.743241
N215	N	0.437883	0.076208	0.303599
N216	N	0.937883	0.576208	0.803599
H217	H	0.409320	0.079006	0.363152
H218	H	0.909320	0.579006	0.863152
N219	N	1.091782	-0.811146	0.217307
N220	N	1.591782	-0.311146	0.717307
N221	N	1.137107	-0.776912	0.262677
N222	N	1.637107	-0.276912	0.762677
H223	H	1.173750	-0.804540	0.299338
H224	H	1.673750	-0.304540	0.799338
H225	H	0.560182	0.121223	0.129856
H226	H	1.060182	0.621223	0.629856
H227	H	0.414253	-0.121637	0.130874
H228	H	0.914253	0.378363	0.630874
N229	N	1.091709	-0.188932	0.217317
N230	N	1.591709	0.311068	0.717317
N231	N	1.169735	-0.197488	0.207352
N232	N	1.669735	0.302512	0.707352
H233	H	1.206369	-0.169852	0.244023
H234	H	1.706369	0.330148	0.744023
N235	N	1.091725	-0.343837	0.217310
N236	N	1.591725	0.156163	0.717310
N237	N	1.137053	-0.309606	0.262681
N238	N	1.637053	0.190394	0.762681
H239	H	1.173689	-0.337237	0.299346
H240	H	1.673689	0.162763	0.799346
