data_functionalizedCrystal
_audit_creation_method	'MofGen! by Chris Wilmer'
_symmetry_space_group_name_H-M	'P1'
_symmetry_Int_Tables_number	1
_symmetry_cell_setting	triclinic
loop_
_symmetry_equiv_pos_as_xyz
  x,y,z
_cell_length_a	6.817900
_cell_length_b	11.100257
_cell_length_c	19.453103
_cell_angle_alpha	94.547229
_cell_angle_beta	101.709178
_cell_angle_gamma	108.570032
loop_
_atom_site_label
_atom_site_type_symbol
_atom_site_fract_x
_atom_site_fract_y
_atom_site_fract_z
V1	V	-4.076425	-0.396874	-0.097316
O2	O	-4.071912	-0.388712	0.004538
O3	O	-4.019023	-0.394745	-0.192828
O4	O	-4.053598	-0.569698	-0.095880
O5	O	-4.037099	-0.212547	-0.093081
V6	V	-4.557905	-0.374756	-0.085126
O7	O	-4.342163	-0.445392	-0.124056
O8	O	-4.742364	-0.326239	-0.058386
O9	O	-4.392100	-0.376886	0.010386
O10	O	-4.679814	-0.382919	-0.186980
O11	O	-4.714628	-0.559084	-0.089360
O12	O	-4.357526	-0.201932	-0.086562
C13	C	-3.861007	-0.388635	-0.216110
C14	C	-3.895532	-0.388046	-0.294193
C15	C	-4.094466	-0.394124	-0.334450
C16	C	-4.126912	-0.393584	-0.407819
C17	C	-3.960400	-0.386938	-0.440924
C18	C	-3.761442	-0.380866	-0.400658
C19	C	-3.729007	-0.381419	-0.327292
N20	N	-3.840043	-0.308613	-0.547162
N21	N	-3.870865	-0.308084	-0.616856
C22	C	-4.058114	-0.385272	-0.661971
N23	N	-4.213398	-0.462993	-0.634757
N24	N	-4.182576	-0.463516	-0.565056
C25	C	-3.995550	-0.386338	-0.520476
C26	C	-4.292244	-0.390767	-0.781783
C27	C	-4.324687	-0.390234	-0.855153
C28	C	-3.959204	-0.377503	-0.847990
C29	C	-3.926773	-0.378049	-0.774622
C30	C	-4.093297	-0.384675	-0.741523
C31	C	-3.905109	-0.611804	-0.092442
C32	C	-3.967669	-0.753092	-0.091900
C33	C	-4.011536	-0.980884	0.038119
C34	C	-3.944684	-0.895702	0.102110
C35	C	-3.885490	-0.762983	0.101433
C36	C	-3.893158	-0.715446	0.036759
C37	C	-3.960010	-0.800628	-0.027232
C38	C	-4.019195	-0.933348	-0.026549
C39	C	-4.034521	-0.838275	-0.155891
C40	C	-4.093701	-0.970994	-0.155215
C41	C	-4.042189	-0.790738	-0.220565
C42	C	-4.109028	-0.875920	-0.284557
C43	C	-4.168221	-1.008646	-0.283878
C44	C	-4.160554	-1.056176	-0.219206
C45	C	-4.213458	-0.382993	0.033664
C46	C	-4.158172	-0.383590	0.111747
C47	C	-4.169356	-0.159820	-0.090002
C48	C	-4.086034	-0.018531	-0.090541
H49	H	-3.823630	-0.372100	-0.874944
H50	H	-4.486691	-0.395192	-0.887931
C51	C	-3.761681	-0.542815	0.157513
C52	C	-3.812010	-0.669341	0.171771
H53	H	-3.716332	-0.485007	0.200937
H54	H	-3.650459	-0.524833	0.133222
H55	H	-3.884138	-0.532791	0.128721
H56	H	-3.689548	-0.679367	0.200559
H57	H	-3.923241	-0.687328	0.196074
C58	C	-4.428694	-0.510157	-0.503977
C59	C	-4.345601	-0.400263	-0.452079
H60	H	-4.563708	-0.514282	-0.531296
H61	H	-4.334175	-0.506119	-0.534188
H62	H	-4.444586	-0.584602	-0.481643
H63	H	-4.329695	-0.325817	-0.474414
H64	H	-4.440143	-0.404291	-0.421864
H65	H	-3.764777	-0.373091	-0.741843
H66	H	-3.938454	-0.934422	0.154766
C67	C	-4.055761	-1.150508	0.109140
C68	C	-4.076603	-1.126771	0.038864
H69	H	-4.095947	-1.240573	0.109599
H70	H	-3.911786	-1.109566	0.134982
H71	H	-4.145448	-1.117499	0.130495
H72	H	-3.986903	-1.159771	0.017511
H73	H	-4.220601	-1.167729	0.013011
C74	C	-3.805500	-0.605007	-0.253267
C75	C	-3.977155	-0.644855	-0.221320
H76	H	-3.765368	-0.514947	-0.253740
H77	H	-3.688298	-0.624083	-0.227105
H78	H	-3.846436	-0.648955	-0.300630
H79	H	-3.936214	-0.600914	-0.173955
H80	H	-4.094381	-0.625767	-0.247481
H81	H	-3.844981	-0.607378	0.036213
H82	H	-4.115275	-0.837204	-0.337210
C83	C	-4.235929	-1.032516	-0.411124
C84	C	-4.241706	-1.102276	-0.354221
H85	H	-4.281284	-1.090318	-0.454550
H86	H	-4.328124	-0.983948	-0.410955
H87	H	-4.094446	-0.975986	-0.406461
H88	H	-4.383192	-1.158799	-0.358880
H89	H	-4.149509	-1.150865	-0.354390
H90	H	-4.208734	-1.164240	-0.218647
H91	H	-4.230071	-0.399528	-0.307506
H92	H	-3.625870	-0.375458	-0.427617
H93	H	-4.427837	-0.396160	-0.754832
C94	C	-3.354247	-0.260911	-0.289105
C95	C	-3.510316	-0.374722	-0.283034
H96	H	-3.219237	-0.256772	-0.261777
H97	H	-3.349739	-0.259647	-0.337532
H98	H	-3.387907	-0.189125	-0.272112
H99	H	-3.476664	-0.446509	-0.300033
H100	H	-3.514818	-0.375998	-0.234598
