data_functionalizedCrystal
_audit_creation_method	'MofGen! by Chris Wilmer'
_symmetry_space_group_name_H-M	'P1'
_symmetry_Int_Tables_number	1
_symmetry_cell_setting	triclinic
loop_
_symmetry_equiv_pos_as_xyz
  x,y,z
_cell_length_a	19.188930
_cell_length_b	15.538191
_cell_length_c	14.750779
_cell_angle_alpha	97.569385
_cell_angle_beta	77.415075
_cell_angle_gamma	65.208439
loop_
_atom_site_label
_atom_site_type_symbol
_atom_site_fract_x
_atom_site_fract_y
_atom_site_fract_z
O1	O	-0.876147	-0.138322	-0.080107
O2	O	-0.376147	0.361678	0.419893
O3	O	-0.668873	-0.154153	-0.080039
O4	O	-0.168873	0.345847	0.419961
O5	O	-0.812856	-0.008946	-0.080091
O6	O	-0.312856	0.491054	0.419909
O7	O	-0.732163	-0.283529	-0.080055
O8	O	-0.232163	0.216471	0.419945
O9	O	-0.853558	0.032097	0.079545
O10	O	-0.353558	0.532097	0.579545
O11	O	-0.709574	-0.113109	0.079597
O12	O	-0.209574	0.386891	0.579597
O13	O	-0.916848	-0.097279	0.079528
O14	O	-0.416848	0.402721	0.579528
Zn15	Zn	-0.819673	-0.098677	0.104908
Zn16	Zn	-0.319673	0.401323	0.604908
Zn17	Zn	-0.766048	-0.152754	-0.105419
Zn18	Zn	-0.266048	0.347246	0.394581
O19	O	-0.772865	-0.242485	0.079580
O20	O	-0.272865	0.257515	0.579580
C21	C	-0.663343	-0.133116	-0.000213
C22	C	-0.163343	0.366884	0.499787
C23	C	-0.586232	-0.131569	-0.000188
C24	C	-0.086232	0.368431	0.499812
C25	C	-0.841649	0.046704	-0.000279
C26	C	-0.341649	0.546704	0.499721
C27	C	-0.866795	0.151377	-0.000297
C28	C	-0.366795	0.651377	0.499703
C29	C	-0.922377	-0.118316	-0.000300
C30	C	-0.422377	0.381684	0.499700
C31	C	-0.999487	-0.119865	-0.000331
C32	C	-0.499487	0.380135	0.499669
C33	C	-0.519905	-0.216780	-0.000192
C34	C	-0.019905	0.283220	0.499808
C35	C	-0.447442	-0.215335	-0.000202
C36	C	0.052558	0.284665	0.499798
C37	C	-0.441306	-0.128679	-0.000228
C38	C	0.058694	0.371321	0.499772
C39	C	-0.507647	-0.043456	-0.000219
C40	C	-0.007647	0.456544	0.499781
C41	C	-0.580110	-0.044900	-0.000199
C42	C	-0.080110	0.455100	0.499801
N43	N	-0.336099	-0.076418	-0.054607
N44	N	0.163901	0.423582	0.445393
N45	N	-0.267259	-0.075052	-0.054628
N46	N	0.232741	0.424948	0.445372
C47	C	-0.222980	-0.124321	-0.000288
C48	C	0.277020	0.375679	0.499712
N49	N	-0.250134	-0.175026	0.054063
N50	N	0.249866	0.324974	0.554063
N51	N	-0.318977	-0.176396	0.054080
N52	N	0.181023	0.323604	0.554080
C53	C	-0.362735	-0.127103	-0.000250
C54	C	0.137265	0.372897	0.499750
C55	C	-0.078079	-0.207972	-0.000302
C56	C	0.421921	0.292028	0.499698
C57	C	-0.005618	-0.206522	-0.000307
C58	C	0.494382	0.293478	0.499693
C59	C	-0.065822	-0.034642	-0.000333
C60	C	0.434178	0.465358	0.499667
C61	C	-0.138283	-0.036092	-0.000319
C62	C	0.361717	0.463908	0.499681
C63	C	-0.144406	-0.122760	-0.000308
C64	C	0.355594	0.377240	0.499692
C65	C	-0.744071	-0.298136	-0.000234
C66	C	-0.244071	0.201864	0.499766
C67	C	-0.718924	-0.402811	-0.000222
C68	C	-0.218924	0.097189	0.499778
N69	N	-0.856277	-0.061771	0.248451
N70	N	-0.356277	0.438229	0.748451
C71	C	-0.616957	0.438164	-0.000194
C72	C	-0.116957	0.938164	0.499806
C73	C	-0.640606	0.536526	-0.000200
C74	C	-0.140606	1.036526	0.499800
C75	C	-0.773623	0.559506	-0.000244
C76	C	-0.273623	1.059506	0.499756
C77	C	-0.749984	0.461143	-0.000243
C78	C	-0.249984	0.961143	0.499757
C79	C	-0.671650	0.400480	-0.000217
C80	C	-0.171650	0.900480	0.499783
C81	C	-0.804677	0.423458	-0.000266
C82	C	-0.304677	0.923458	0.499734
C83	C	-0.781041	0.325105	-0.000260
C84	C	-0.281041	0.825105	0.499740
C85	C	-0.702711	0.264436	-0.000231
C86	C	-0.202711	0.764436	0.499769
C87	C	-0.648014	0.302126	-0.000211
C88	C	-0.148014	0.802126	0.499789
C89	C	-0.883012	0.484125	-0.000285
C90	C	-0.383012	0.984125	0.499715
C91	C	-0.937705	0.446440	-0.000308
C92	C	-0.437705	0.946440	0.499692
C93	C	-0.914068	0.348083	-0.000309
C94	C	-0.414068	0.848083	0.499691
C95	C	-0.835738	0.287415	-0.000280
C96	C	-0.335738	0.787415	0.499720
C97	C	-0.968765	0.310393	-0.000329
C98	C	-0.468765	0.810393	0.499671
C99	C	-0.945129	0.212040	-0.000323
C100	C	-0.445129	0.712040	0.499677
C101	C	-0.812102	0.189062	-0.000274
C102	C	-0.312102	0.689062	0.499726
N103	N	-0.729452	-0.189653	-0.248961
N104	N	-0.229452	0.310347	0.251039
C105	C	-0.627234	-0.292686	0.600352
C106	C	-0.127234	0.207314	1.100352
C107	C	-0.652887	-0.266831	0.700841
C108	C	-0.152887	0.233169	1.200841
C109	C	-0.780392	-0.138297	0.700758
C110	C	-0.280392	0.361703	1.200758
C111	C	-0.754748	-0.164139	0.600266
C112	C	-0.254748	0.335861	1.100266
C113	C	-0.678169	-0.241335	0.550071
C114	C	-0.178169	0.258665	1.050071
C115	C	-0.805683	-0.112788	0.549985
C116	C	-0.305683	0.387212	1.049985
C117	C	-0.780043	-0.138631	0.449502
C118	C	-0.280043	0.361369	0.949502
C119	C	-0.703468	-0.215826	0.399300
C120	C	-0.203468	0.284174	0.899300
C121	C	-0.652529	-0.267178	0.449588
C122	C	-0.152529	0.232822	0.949588
C123	C	-0.882265	-0.035597	0.600183
C124	C	-0.382265	0.464403	1.100183
C125	C	-0.933200	0.015754	0.549902
C126	C	-0.433200	0.515754	1.049902
C127	C	-0.907557	-0.010084	0.449417
C128	C	-0.407557	0.489916	0.949417
C129	C	-0.830982	-0.087279	0.399214
C130	C	-0.330982	0.412721	0.899214
C131	C	-0.958496	0.041268	0.399129
C132	C	-0.458496	0.541268	0.899129
C133	C	-0.932856	0.015425	0.298646
C134	C	-0.432856	0.515425	0.798646
C135	C	-0.805342	-0.113122	0.298731
C136	C	-0.305342	0.386878	0.798731
H137	H	-0.524883	-0.287352	-0.000185
H138	H	-0.024883	0.212648	0.499815
F139	F	-0.908168	0.588804	-0.000285
F140	F	-0.408168	1.088804	0.499715
F141	F	-0.376842	-0.306032	-0.000204
F142	F	0.123158	0.193968	0.499796
H143	H	-0.596065	0.567207	-0.000167
H144	H	-0.096065	1.067207	0.499833
H145	H	-0.060811	0.035899	-0.000414
H146	H	0.439189	0.535899	0.499586
H147	H	-0.502642	0.027097	-0.000253
H148	H	-0.002642	0.527097	0.499747
F149	F	-0.650704	0.045797	-0.000194
F150	F	-0.150704	0.545797	0.499806
F151	F	-0.533582	0.373594	-0.000176
F152	F	-0.033582	0.873594	0.499824
F153	F	-0.723832	-0.195275	0.245307
F154	F	-0.223832	0.304725	0.745307
F155	F	-0.084599	-0.300208	-0.000283
F156	F	0.415401	0.199792	0.499717
F157	F	0.064975	-0.297219	-0.000306
F158	F	0.564975	0.202781	0.499694
F159	F	-1.003343	0.171934	-0.000333
F160	F	-0.503343	0.671934	0.499667
H161	H	-0.682594	-0.236869	0.317480
H162	H	-0.182594	0.263131	0.817480
F163	F	-0.861893	-0.056144	0.754188
F164	F	-0.361893	0.443856	1.254188
H165	H	-0.192289	0.033295	-0.000321
H166	H	0.307711	0.533295	0.499679
H167	H	-0.590167	-0.330032	0.408717
H168	H	-0.090167	0.169968	0.908717
F169	F	-0.856990	0.624079	-0.000264
F170	F	-0.356990	1.124079	0.499736
H171	H	-0.748313	0.139664	-0.000260
H172	H	-0.248313	0.639664	0.499740
H173	H	-0.683469	0.184353	-0.000221
H174	H	-0.183469	0.684353	0.499779
F175	F	-0.598667	-0.321497	0.754347
F176	F	-0.098667	0.178503	1.254347
H177	H	-0.564872	-0.355540	0.559481
H178	H	-0.064872	0.144460	1.059481
F179	F	-0.564639	0.237556	-0.000192
F180	F	-0.064639	0.737556	0.499808
F181	F	-1.021073	0.511013	-0.000329
F182	F	-0.521073	1.011013	0.499671
H183	H	-0.903139	-0.014562	0.682002
H184	H	-0.403139	0.485438	1.182002
F185	F	-1.014700	0.097907	0.603332
F186	F	-0.514700	0.597907	1.103332
H187	H	-1.032547	0.359802	-0.000341
H188	H	-0.532547	0.859802	0.499659
F189	F	-1.040000	0.123415	0.452561
F190	F	-0.540000	0.623415	0.952561
H191	H	-0.974334	0.057240	0.257707
H192	H	-0.474334	0.557240	0.757707
