data_functionalizedCrystal
_audit_creation_method	'MofGen! by Chris Wilmer'
_symmetry_space_group_name_H-M	'P1'
_symmetry_Int_Tables_number	1
_symmetry_cell_setting	triclinic
loop_
_symmetry_equiv_pos_as_xyz
  x,y,z
_cell_length_a	15.995350
_cell_length_b	16.992695
_cell_length_c	16.053802
_cell_angle_alpha	87.258926
_cell_angle_beta	92.577622
_cell_angle_gamma	87.080299
loop_
_atom_site_label
_atom_site_type_symbol
_atom_site_fract_x
_atom_site_fract_y
_atom_site_fract_z
O1	O	-1.121056	-0.097771	-0.069359
O2	O	-0.621056	0.402229	0.430641
O3	O	-0.878117	-0.110251	-0.069376
O4	O	-0.378117	0.389749	0.430624
O5	O	-0.998613	0.010132	-0.069361
O6	O	-0.498613	0.510132	0.430639
O7	O	-1.000561	-0.218153	-0.069374
O8	O	-0.500561	0.281847	0.430626
O9	O	-0.991978	0.003533	0.069497
O10	O	-0.491978	0.503533	0.569497
O11	O	-0.871483	-0.116849	0.069482
O12	O	-0.371483	0.383151	0.569482
O13	O	-1.114422	-0.104370	0.069499
O14	O	-0.614422	0.395630	0.569499
Zn15	Zn	-0.991899	-0.111657	0.091537
Zn16	Zn	-0.491899	0.388343	0.591537
Zn17	Zn	-1.000640	-0.102963	-0.091414
Zn18	Zn	-0.500640	0.397037	0.408586
O19	O	-0.993927	-0.224752	0.069484
O20	O	-0.493927	0.275248	0.569484
C21	C	-0.843571	-0.113034	0.000051
C22	C	-0.343571	0.386966	0.500051
C23	C	-0.750517	-0.111487	0.000044
C24	C	-0.250517	0.388513	0.500044
C25	C	-0.992790	0.036045	0.000068
C26	C	-0.492790	0.536045	0.500068
C27	C	-0.985314	0.123089	0.000067
C28	C	-0.485314	0.623089	0.500067
C29	C	-1.148969	-0.101586	0.000071
C30	C	-0.648969	0.398414	0.500071
C31	C	-1.242022	-0.103133	0.000072
C32	C	-0.742022	0.396867	0.500072
C33	C	-0.412397	-0.105932	0.000062
C34	C	0.087603	0.394068	0.500062
C35	C	-0.454079	-0.020213	0.000377
C36	C	0.045921	0.479787	0.500377
C37	C	-0.550888	-0.021745	0.000058
C38	C	-0.050888	0.478255	0.500058
C39	C	-0.580143	-0.108688	0.000054
C40	C	-0.080143	0.391312	0.500054
C41	C	-0.545673	-0.147206	-0.079240
C42	C	-0.045673	0.352794	0.420760
C43	C	-0.448896	-0.145050	-0.079301
C44	C	0.051104	0.354950	0.420699
C45	C	-0.441132	-0.154325	0.078607
C46	C	0.058868	0.345675	0.578607
C47	C	-0.538026	-0.154355	0.079649
C48	C	-0.038026	0.345645	0.579649
C49	C	-0.674945	-0.110249	0.000046
C50	C	-0.174945	0.389751	0.500046
C51	C	-0.317595	-0.104373	0.000064
C52	C	0.182405	0.395627	0.500064
C53	C	-0.999750	-0.250665	0.000054
C54	C	-0.499750	0.249335	0.500054
C55	C	-1.007226	-0.337709	0.000049
C56	C	-0.507226	0.162291	0.500049
N57	N	-0.985940	-0.117590	0.216397
N58	N	-0.485940	0.382410	0.716397
C59	C	-1.057449	0.173329	0.000073
C60	C	-0.557449	0.673329	0.500073
C61	C	-1.050419	0.255116	0.000065
C62	C	-0.550419	0.755116	0.500065
C63	C	-0.971254	0.286661	0.000056
C64	C	-0.471254	0.786661	0.500056
C65	C	-0.899114	0.236415	0.000048
C66	C	-0.399114	0.736415	0.500048
C67	C	-0.906144	0.154630	0.000050
C68	C	-0.406144	0.654630	0.500050
C69	C	-0.942116	0.530260	0.000043
C70	C	-0.442116	1.030260	0.500043
C71	C	-0.935091	0.612051	0.000043
C72	C	-0.435091	1.112051	0.500043
C73	C	-1.086398	0.630747	0.000058
C74	C	-0.586398	1.130747	0.500058
C75	C	-1.093421	0.548959	0.000066
C76	C	-0.593421	1.048959	0.500066
C77	C	-1.021281	0.498720	0.000053
C78	C	-0.521281	0.998720	0.500053
N79	N	-0.964067	0.370260	0.000050
N80	N	-0.464067	0.870260	0.500050
N81	N	-1.028469	0.415123	0.000053
N82	N	-0.528469	0.915123	0.500053
N83	N	-1.006606	-0.097024	-0.216274
N84	N	-0.506606	0.402976	0.283726
C85	C	-1.037232	-0.066386	0.260097
C86	C	-0.537232	0.433614	0.760097
C87	C	-1.033072	-0.070544	0.347504
C88	C	-0.533072	0.429456	0.847504
C89	C	-0.977623	-0.125910	0.391208
C90	C	-0.477623	0.374090	0.891208
C91	C	-0.926325	-0.177117	0.347501
C92	C	-0.426325	0.322883	0.847501
C93	C	-0.930482	-0.172955	0.260097
C94	C	-0.430482	0.327045	0.760097
C95	C	-0.959465	-0.144068	0.652615
C96	C	-0.459465	0.355932	1.152615
C97	C	-0.955314	-0.148228	0.740026
C98	C	-0.455314	0.351772	1.240026
C99	C	-1.062060	-0.041653	0.740022
C100	C	-0.562060	0.458347	1.240022
C101	C	-1.066215	-0.037499	0.652616
C102	C	-0.566215	0.462501	1.152616
C103	C	-1.014914	-0.088703	0.608917
C104	C	-0.514914	0.411297	1.108917
N105	N	-0.973371	-0.130163	0.480551
N106	N	-0.473371	0.369837	0.980551
N107	N	-1.019162	-0.084446	0.519575
N108	N	-0.519162	0.415554	1.019575
H109	H	-0.574377	0.008794	0.056899
H110	H	-0.074377	0.508794	0.556899
Cl111	Cl	-0.856613	-0.246719	0.402442
Cl112	Cl	-0.356613	0.253281	0.902442
Cl113	Cl	-0.885601	-0.217840	0.794963
Cl114	Cl	-0.385601	0.282160	1.294963
H115	H	-0.888713	-0.214650	0.224517
H116	H	-0.388713	0.285350	0.724517
H117	H	-1.111366	0.007585	0.617034
H118	H	-0.611366	0.507585	1.117034
H119	H	-0.431356	-0.111395	-0.138572
H120	H	0.068644	0.388605	0.361428
H121	H	-1.103825	0.000036	0.775610
H122	H	-0.603825	0.500036	1.275610
Cl123	Cl	-1.156976	0.133681	0.000092
Cl124	Cl	-0.656976	0.633681	0.500092
Cl125	Cl	-0.851425	0.467113	0.000024
Cl126	Cl	-0.351425	0.967113	0.500024
H127	H	-1.074837	-0.028848	0.383084
H128	H	-0.574837	0.471152	0.883084
H129	H	-0.574902	-0.115031	-0.138249
H130	H	-0.074902	0.384969	0.361751
H131	H	-0.430547	0.011355	0.057242
H132	H	0.069453	0.511355	0.557242
H133	H	-0.917695	-0.185762	0.617042
H134	H	-0.417695	0.314238	1.117042
Cl135	Cl	-0.815456	0.091470	0.000040
Cl136	Cl	-0.315456	0.591470	0.500040
Cl137	Cl	-1.141108	0.318272	0.000075
Cl138	Cl	-0.641108	0.818272	0.500075
H139	H	-0.413574	-0.217562	0.079140
H140	H	0.086426	0.282438	0.579140
H141	H	-0.579227	0.014426	-0.056879
H142	H	-0.079227	0.514426	0.443121
H143	H	-1.157885	0.523282	0.000073
H144	H	-0.657885	1.023282	0.500073
H145	H	-0.434905	0.016587	-0.056171
H146	H	0.065095	0.516587	0.443829
H147	H	-0.421032	-0.207824	-0.082902
H148	H	0.078968	0.292176	0.417098
H149	H	-0.564213	-0.210941	-0.082191
H150	H	-0.064213	0.289059	0.417809
H151	H	-1.145130	0.671660	0.000067
H152	H	-0.645130	1.171660	0.500067
H153	H	-0.415849	-0.129153	0.138710
H154	H	0.084151	0.370847	0.638710
H155	H	-0.560474	-0.126273	0.138311
H156	H	-0.060474	0.373727	0.638311
H157	H	-0.834656	0.262105	0.000036
H158	H	-0.334656	0.762105	0.500036
H159	H	-0.557405	-0.217983	0.084436
H160	H	-0.057405	0.282017	0.584436
H161	H	-1.082388	-0.021304	0.224519
H162	H	-0.582388	0.478696	0.724519
Cl163	Cl	-0.835561	0.651705	0.000037
Cl164	Cl	-0.335561	1.151705	0.500037
