data_functionalizedCrystal
_audit_creation_method	'MofGen! by Chris Wilmer'
_symmetry_space_group_name_H-M	'P1'
_symmetry_Int_Tables_number	1
_symmetry_cell_setting	triclinic
loop_
_symmetry_equiv_pos_as_xyz
  x,y,z
_cell_length_a	21.295418
_cell_length_b	29.839131
_cell_length_c	21.295411
_cell_angle_alpha	89.964907
_cell_angle_beta	89.964378
_cell_angle_gamma	90.051038
loop_
_atom_site_label
_atom_site_type_symbol
_atom_site_fract_x
_atom_site_fract_y
_atom_site_fract_z
Zn1	Zn	0.962285	-0.178684	-0.356206
Zn2	Zn	1.295618	0.154650	-0.022872
Zn3	Zn	1.628951	0.487983	0.310461
Zn4	Zn	0.962193	-0.253808	-0.250919
Zn5	Zn	1.295527	0.079525	0.082414
Zn6	Zn	1.628860	0.412858	0.415747
Zn7	Zn	0.857023	-0.178714	-0.250916
Zn8	Zn	1.190356	0.154619	0.082418
Zn9	Zn	1.523689	0.487953	0.415751
Zn10	Zn	0.856969	-0.253808	-0.356116
Zn11	Zn	1.190302	0.079525	-0.022783
Zn12	Zn	1.523635	0.412859	0.310551
O13	O	0.909617	-0.216253	-0.303539
O14	O	1.242951	0.117080	0.029794
O15	O	1.576284	0.450413	0.363128
O16	O	1.050362	-0.188636	-0.342278
O17	O	1.383695	0.144697	-0.008945
O18	O	1.717029	0.478030	0.324388
O19	O	0.948227	-0.243860	-0.162829
O20	O	1.281560	0.089474	0.170504
O21	O	1.614893	0.422807	0.503837
O22	O	0.871047	-0.115843	-0.264918
O23	O	1.204380	0.217491	0.068415
O24	O	1.537714	0.550824	0.401748
O25	O	1.050295	-0.243830	-0.264925
O26	O	1.383628	0.089503	0.068408
O27	O	1.716962	0.422836	0.401742
O28	O	0.948382	-0.115820	-0.342275
O29	O	1.281716	0.217513	-0.008941
O30	O	1.615049	0.550846	0.324392
O31	O	0.870958	-0.188688	-0.162827
O32	O	1.204292	0.144645	0.170507
O33	O	1.537625	0.477978	0.503840
O34	O	0.768926	-0.188688	-0.264831
O35	O	1.102260	0.144646	0.068502
O36	O	1.435593	0.477979	0.401835
O37	O	0.870955	-0.243830	-0.444217
O38	O	1.204288	0.089504	-0.110884
O39	O	1.537621	0.422837	0.222449
O40	O	0.768886	-0.243859	-0.342122
O41	O	1.102220	0.089474	-0.008788
O42	O	1.435553	0.422808	0.324545
O43	O	0.948330	-0.188636	-0.444283
O44	O	1.281663	0.144697	-0.110950
O45	O	1.614997	0.478031	0.222383
O46	O	0.948174	-0.316675	-0.264838
O47	O	1.281507	0.016658	0.068495
O48	O	1.614841	0.349991	0.401829
O49	O	0.870866	-0.316675	-0.342125
O50	O	1.204199	0.016658	-0.008792
O51	O	1.537533	0.349991	0.324541
C52	C	0.746066	-0.216277	-0.303467
C53	C	1.079399	0.117056	0.029867
C54	C	1.412732	0.450390	0.363200
C55	C	0.676098	-0.216298	-0.303451
C56	C	1.009431	0.117035	0.029883
C57	C	1.342764	0.450369	0.363216
C58	C	0.643227	-0.245064	-0.343635
C59	C	0.976560	0.088270	-0.010302
C60	C	1.309893	0.421603	0.323031
C61	C	0.577484	-0.245053	-0.343664
C62	C	0.910818	0.088281	-0.010330
C63	C	1.244151	0.421614	0.323003
C64	C	0.544615	-0.216281	-0.303496
C65	C	0.877948	0.117053	0.029837
C66	C	1.211282	0.450386	0.363171
C67	C	0.577494	-0.187509	-0.263308
C68	C	0.910827	0.145824	0.070025
C69	C	1.244161	0.479157	0.403358
C70	C	0.643235	-0.187518	-0.263286
C71	C	0.976569	0.145815	0.070048
C72	C	1.309902	0.479149	0.403381
N73	N	0.441347	-0.212769	-0.248439
N74	N	0.774681	0.120564	0.084895
N75	N	1.108014	0.453898	0.418228
N76	N	0.378896	-0.212763	-0.248462
N77	N	0.712229	0.120570	0.084871
N78	N	1.045563	0.453903	0.418205
C79	C	0.346540	-0.216252	-0.303563
C80	C	0.679874	0.117081	0.029771
C81	C	1.013207	0.450415	0.363104
N82	N	0.378996	-0.219755	-0.358640
N83	N	0.712329	0.113578	-0.025307
N84	N	1.045662	0.446912	0.308026
N85	N	0.441453	-0.219763	-0.358616
N86	N	0.774786	0.113570	-0.025283
N87	N	1.108120	0.446904	0.308050
C88	C	0.473330	-0.216268	-0.303516
C89	C	0.806663	0.117066	0.029817
C90	C	1.139996	0.450399	0.363150
C91	C	0.242384	-0.245007	-0.343782
C92	C	0.575717	0.088326	-0.010448
C93	C	0.909051	0.421659	0.322885
C94	C	0.176640	-0.244993	-0.343811
C95	C	0.509974	0.088340	-0.010478
C96	C	0.843307	0.421674	0.322856
C97	C	0.176651	-0.187452	-0.263450
C98	C	0.509985	0.145881	0.069884
C99	C	0.843318	0.479215	0.403217
C100	C	0.242394	-0.187464	-0.263426
C101	C	0.575727	0.145870	0.069907
C102	C	0.909060	0.479203	0.403241
C103	C	0.275256	-0.216244	-0.303591
C104	C	0.608590	0.117090	0.029742
C105	C	0.941923	0.450423	0.363076
C106	C	0.909521	-0.332976	-0.303486
C107	C	1.242855	0.000357	0.029847
C108	C	1.576188	0.333691	0.363181
C109	C	0.909538	-0.382910	-0.303484
C110	C	1.242871	-0.049577	0.029849
C111	C	1.576205	0.283756	0.363182
C112	C	0.949877	-0.692507	-0.343876
C113	C	1.283211	-0.359174	-0.010543
C114	C	1.616544	-0.025841	0.322791
C115	C	0.949945	-0.880180	-0.343914
C116	C	1.283279	-0.546847	-0.010580
C117	C	1.616612	-0.213514	0.322753
O118	O	0.984149	-0.904406	-0.378217
O119	O	1.317483	-0.571072	-0.044883
O120	O	1.650816	-0.237739	0.288450
N121	N	0.909724	-0.903695	-0.303609
N122	N	1.243058	-0.570362	0.029724
N123	N	1.576391	-0.237029	0.363058
C124	C	0.869480	-0.880289	-0.263295
C125	C	1.202814	-0.546956	0.070038
C126	C	1.536147	-0.213623	0.403372
O127	O	0.835267	-0.904597	-0.229019
O128	O	1.168600	-0.571263	0.104315
O129	O	1.501933	-0.237930	0.437648
C130	C	0.869409	-0.692617	-0.263261
C131	C	1.202742	-0.359284	0.070073
C132	C	1.536076	-0.025951	0.403406
C133	C	0.909638	-0.669105	-0.303564
C134	C	1.242971	-0.335771	0.029770
C135	C	1.576304	-0.002438	0.363103
C136	C	0.990102	-0.668995	-0.384176
C137	C	1.323435	-0.335661	-0.050843
C138	C	1.656768	-0.002328	0.282491
C139	C	0.990087	-0.622079	-0.384164
C140	C	1.323420	-0.288746	-0.050830
C141	C	1.656753	0.044588	0.282503
C142	C	0.949847	-0.598676	-0.343851
C143	C	1.283180	-0.265343	-0.010518
C144	C	1.616514	0.067990	0.322815
C145	C	0.909622	-0.622189	-0.303551
C146	C	1.242956	-0.288856	0.029782
C147	C	1.576289	0.044478	0.363115
C148	C	0.829162	-0.669212	-0.222950
C149	C	1.162496	-0.335879	0.110383
C150	C	1.495829	-0.002545	0.443717
C151	C	0.829147	-0.622291	-0.222946
C152	C	1.162480	-0.288958	0.110387
C153	C	1.495814	0.044376	0.443720
C154	C	0.869375	-0.598778	-0.263249
C155	C	1.202709	-0.265445	0.070084
C156	C	1.536042	0.067888	0.403417
C157	C	0.869368	-0.551871	-0.263227
C158	C	1.202701	-0.218538	0.070107
C159	C	1.536034	0.114796	0.403440
N160	N	0.909589	-0.528356	-0.303531
N161	N	1.242922	-0.195023	0.029802
N162	N	1.576256	0.138311	0.363135
C163	C	0.949829	-0.551759	-0.343844
C164	C	1.283162	-0.218425	-0.010510
C165	C	1.616495	0.114908	0.322823
C166	C	0.869521	-0.978820	-0.263315
C167	C	1.202855	-0.645487	0.070019
C168	C	1.536188	-0.312153	0.403352
C169	C	0.869540	-1.025738	-0.263322
C170	C	1.202873	-0.692405	0.070011
C171	C	1.536206	-0.359071	0.403344
C172	C	0.950004	-1.025626	-0.343942
C173	C	1.283338	-0.692292	-0.010609
C174	C	1.616671	-0.358959	0.322724
C175	C	0.949989	-0.978707	-0.343931
C176	C	1.283322	-0.645373	-0.010598
C177	C	1.616655	-0.312040	0.322736
C178	C	0.909742	-0.955305	-0.303620
C179	C	1.243076	-0.621972	0.029714
C180	C	1.576409	-0.288638	0.363047
C181	C	0.949794	-0.453233	-0.343814
C182	C	1.283128	-0.119899	-0.010481
C183	C	1.616461	0.213434	0.322852
C184	C	0.949778	-0.406313	-0.343797
C185	C	1.283111	-0.072980	-0.010463
C186	C	1.616444	0.260353	0.322870
C187	C	0.869311	-0.406430	-0.263180
C188	C	1.202644	-0.073096	0.070154
C189	C	1.535978	0.260237	0.403487
C190	C	0.869330	-0.453345	-0.263195
C191	C	1.202663	-0.120012	0.070139
C192	C	1.535996	0.213322	0.403472
C193	C	0.909574	-0.476746	-0.303517
C194	C	1.242907	-0.143412	0.029816
C195	C	1.576240	0.189921	0.363149
O196	O	0.835177	-0.527617	-0.228947
O197	O	1.168510	-0.194283	0.104387
O198	O	1.501844	0.139050	0.437720
O199	O	0.984027	-0.527443	-0.378125
O200	O	1.317361	-0.194110	-0.044791
O201	O	1.650694	0.139223	0.288542
C202	C	0.949892	-0.739423	-0.343888
C203	C	1.283226	-0.406089	-0.010555
C204	C	1.616559	-0.072756	0.322778
C205	C	0.909668	-0.762935	-0.303588
C206	C	1.243001	-0.429602	0.029745
C207	C	1.576334	-0.096269	0.363079
C208	C	0.869428	-0.739533	-0.263276
C209	C	1.202761	-0.406199	0.070058
C210	C	1.536095	-0.072866	0.403391
C211	C	0.909686	-0.809853	-0.303596
C212	C	1.243019	-0.476520	0.029738
C213	C	1.576353	-0.143187	0.363071
C214	C	0.949926	-0.833256	-0.343908
C215	C	1.283259	-0.499923	-0.010575
C216	C	1.616592	-0.166589	0.322759
C217	C	0.990147	-0.809741	-0.384213
C218	C	1.323480	-0.476408	-0.050880
C219	C	1.656814	-0.143074	0.282454
C220	C	0.990132	-0.762825	-0.384201
C221	C	1.323465	-0.429492	-0.050867
C222	C	1.656799	-0.096159	0.282466
C223	C	0.829207	-0.763048	-0.222971
C224	C	1.162540	-0.429715	0.110362
C225	C	1.495873	-0.096381	0.443696
C226	C	0.829226	-0.809963	-0.222986
C227	C	1.162559	-0.476630	0.110347
C228	C	1.495892	-0.143297	0.443681
C229	C	0.869465	-0.833366	-0.263298
C230	C	1.202799	-0.500033	0.070035
C231	C	1.536132	-0.166699	0.403368
C232	C	1.073808	-0.216230	-0.303612
C233	C	1.407141	0.117103	0.029721
C234	C	1.740474	0.450437	0.363054
C235	C	1.143776	-0.216220	-0.303643
C236	C	1.477109	0.117113	0.029690
C237	C	1.810442	0.450447	0.363023
C238	C	0.909646	-0.216229	-0.467729
C239	C	1.242980	0.117104	-0.134396
C240	C	1.576313	0.450437	0.198937
C241	C	0.909659	-0.216219	-0.537698
C242	C	1.242992	0.117114	-0.204364
C243	C	1.576325	0.450447	0.128969
C244	C	0.909731	-0.099075	-0.303606
C245	C	1.243064	0.234258	0.029727
C246	C	1.576398	0.567592	0.363060
C247	C	0.909779	-0.049141	-0.303635
C248	C	1.243113	0.284193	0.029699
C249	C	1.576446	0.617526	0.363032
C250	C	0.949963	-0.244854	-1.037158
C251	C	1.283296	0.088479	-0.703825
C252	C	1.616629	0.421813	-0.370491
C253	C	0.949951	-0.244868	-0.971415
C254	C	1.283285	0.088465	-0.638082
C255	C	1.616618	0.421798	-0.304749
C256	C	0.909718	-0.216149	-0.938537
C257	C	1.243052	0.117184	-0.605204
C258	C	1.576385	0.450517	-0.271871
C259	C	0.869482	-0.187422	-0.971407
C260	C	1.202815	0.145912	-0.638074
C261	C	1.536149	0.479245	-0.304741
C262	C	0.869490	-0.187411	-1.037149
C263	C	1.202824	0.145922	-0.703815
C264	C	1.536157	0.479255	-0.370482
N265	N	0.904915	-0.176841	-0.835337
N266	N	1.238248	0.156492	-0.502003
N267	N	1.571581	0.489825	-0.168670
N268	N	0.904911	-0.176853	-0.772885
N269	N	1.238244	0.156481	-0.439552
N270	N	1.571577	0.489814	-0.106218
C271	C	0.909691	-0.216179	-0.740462
C272	C	1.243024	0.117154	-0.407129
C273	C	1.576357	0.450487	-0.073796
N274	N	0.914487	-0.255496	-0.772851
N275	N	1.247820	0.077838	-0.439517
N276	N	1.581154	0.411171	-0.106184
N277	N	0.914494	-0.255484	-0.835308
N278	N	1.247828	0.077849	-0.501975
N279	N	1.581161	0.411183	-0.168641
C280	C	0.909705	-0.216158	-0.867252
C281	C	1.243038	0.117176	-0.533919
C282	C	1.576371	0.450509	-0.200585
C283	C	0.949909	-0.244923	-0.636315
C284	C	1.283242	0.088410	-0.302982
C285	C	1.616575	0.421744	0.030352
C286	C	0.949893	-0.244938	-0.570571
C287	C	1.283226	0.088395	-0.237238
C288	C	1.616560	0.421729	0.096096
C289	C	0.869427	-0.187488	-0.570564
C290	C	1.202760	0.145846	-0.237231
C291	C	1.536094	0.479179	0.096102
C292	C	0.869440	-0.187476	-0.636307
C293	C	1.202773	0.145857	-0.302973
C294	C	1.536106	0.479190	0.030360
C295	C	0.909684	-0.216194	-0.669178
C296	C	1.243017	0.117140	-0.335845
C297	C	1.576350	0.450473	-0.002511
C298	C	0.909625	-0.216245	-0.139988
C299	C	1.242958	0.117088	0.193346
C300	C	1.576291	0.450422	0.526679
C301	C	0.909734	-0.216128	-0.070020
C302	C	1.243068	0.117205	0.263313
C303	C	1.576401	0.450538	0.596647
H304	H	0.550728	-0.164082	-0.230604
H305	H	0.884061	0.169251	0.102729
H306	H	1.217394	0.502585	0.436062
O307	O	0.989141	-0.272730	-1.069013
O308	O	1.322474	0.060603	-0.735680
O309	O	1.655808	0.393936	-0.402347
C310	C	1.051885	-0.262892	-1.052992
C311	C	1.385219	0.070441	-0.719658
C312	C	1.718552	0.403775	-0.386325
H313	H	1.053193	-0.245625	-1.005272
H314	H	1.386526	0.087708	-0.671939
H315	H	1.719860	0.421042	-0.338606
H316	H	1.080085	-0.295309	-1.050729
H317	H	1.413418	0.038024	-0.717396
H318	H	1.746751	0.371357	-0.384063
H319	H	1.073116	-0.239788	-1.090017
H320	H	1.406449	0.093545	-0.756683
H321	H	1.739783	0.426879	-0.423350
O322	O	0.274357	-0.159477	-0.224474
O323	O	0.607691	0.173856	0.108859
O324	O	0.941024	0.507190	0.442192
C325	C	0.312476	-0.130508	-0.260378
C326	C	0.645810	0.202825	0.072955
C327	C	0.979143	0.536159	0.406289
H328	H	0.292717	-0.127776	-0.309971
H329	H	0.626050	0.205557	0.023363
H330	H	0.959383	0.538891	0.356696
H331	H	0.313255	-0.095913	-0.237704
H332	H	0.646588	0.237420	0.095630
H333	H	0.979921	0.570753	0.428963
H334	H	0.362281	-0.144408	-0.262492
H335	H	0.695614	0.188925	0.070842
H336	H	1.028947	0.522258	0.404175
O337	O	0.144828	-0.159460	-0.224410
O338	O	0.478161	0.173874	0.108923
O339	O	0.811494	0.507207	0.442256
C340	C	0.187942	-0.134081	-0.188922
C341	C	0.521276	0.199252	0.144412
C342	C	0.854609	0.532585	0.477745
H343	H	0.234833	-0.132558	-0.214692
H344	H	0.568166	0.200775	0.118641
H345	H	0.901500	0.534109	0.451974
H346	H	0.168996	-0.098676	-0.182311
H347	H	0.502329	0.234658	0.151022
H348	H	0.835663	0.567991	0.484356
H349	H	0.194861	-0.150488	-0.141065
H350	H	0.528195	0.182845	0.192268
H351	H	0.861528	0.516179	0.525602
O352	O	0.830382	-0.159614	-0.668330
O353	O	1.163715	0.173719	-0.334996
O354	O	1.497048	0.507052	-0.001663
C355	C	0.839025	-0.165757	-0.733404
C356	C	1.172358	0.167577	-0.400071
C357	C	1.505692	0.500910	-0.066737
H358	H	0.859617	-0.200420	-0.742372
H359	H	1.192951	0.132913	-0.409039
H360	H	1.526284	0.466247	-0.075706
H361	H	0.791877	-0.162719	-0.758366
H362	H	1.125211	0.170614	-0.425032
H363	H	1.458544	0.503947	-0.091699
H364	H	0.872567	-0.139098	-0.752095
H365	H	1.205901	0.194236	-0.418762
H366	H	1.539234	0.527569	-0.085429
H367	H	0.982648	-0.268334	-0.543816
H368	H	1.315982	0.064999	-0.210483
H369	H	1.649315	0.398333	0.122851
H370	H	0.269142	-0.268439	-0.376490
H371	H	0.602475	0.064894	-0.043156
H372	H	0.935809	0.398227	0.290177
H373	H	0.836667	-0.164105	-0.543796
H374	H	1.170000	0.169228	-0.210462
H375	H	1.503334	0.502562	0.122871
H376	H	0.982719	-0.268255	-0.944654
H377	H	1.316053	0.065078	-0.611321
H378	H	1.649386	0.398412	-0.277987
O379	O	0.830370	-0.159586	-0.939403
O380	O	1.163703	0.173747	-0.606069
O381	O	1.497036	0.507080	-0.272736
C382	C	0.789676	-0.185178	-0.901351
C383	C	1.123010	0.148156	-0.568018
C384	C	1.456343	0.481489	-0.234684
H385	H	0.811847	-0.219221	-0.891495
H386	H	1.145181	0.114113	-0.558162
H387	H	1.478514	0.447446	-0.224828
H388	H	0.781252	-0.166887	-0.855127
H389	H	1.114586	0.166446	-0.521794
H390	H	1.447919	0.499779	-0.188461
H391	H	0.743024	-0.190119	-0.926659
H392	H	1.076358	0.143214	-0.593326
H393	H	1.409691	0.476548	-0.259993
H394	H	0.796468	-0.829103	-0.190161
H395	H	1.129801	-0.495770	0.143173
H396	H	1.463134	-0.162437	0.476506
H397	H	0.796372	-0.603240	-0.190120
H398	H	1.129705	-0.269906	0.143213
H399	H	1.463038	0.063427	0.476546
O400	O	0.988994	-0.955888	-0.383175
O401	O	1.322327	-0.622555	-0.049842
O402	O	1.655660	-0.289221	0.283492
C403	C	0.975209	-0.967345	-0.445896
C404	C	1.308542	-0.634012	-0.112563
C405	C	1.641875	-0.300678	0.220771
H406	H	0.924922	-0.980283	-0.449009
H407	H	1.258256	-0.646949	-0.115676
H408	H	1.591589	-0.313616	0.217658
H409	H	0.980599	-0.936472	-0.477002
H410	H	1.313932	-0.603139	-0.143669
H411	H	1.647266	-0.269805	0.189664
H412	H	1.008957	-0.994544	-0.462394
H413	H	1.342290	-0.661211	-0.129061
H414	H	1.675623	-0.327877	0.204272
O415	O	0.675051	-0.273031	-0.382714
O416	O	1.008384	0.060302	-0.049380
O417	O	1.341717	0.393635	0.283953
C418	C	0.631935	-0.298427	-0.418177
C419	C	0.965268	0.034907	-0.084844
C420	C	1.298601	0.368240	0.248490
H421	H	0.585102	-0.280021	-0.420422
H422	H	0.918435	0.053312	-0.087089
H423	H	1.251769	0.386645	0.246244
H424	H	0.650968	-0.303270	-0.467755
H425	H	0.984301	0.030063	-0.134422
H426	H	1.317635	0.363396	0.198912
H427	H	0.624870	-0.332523	-0.395032
H428	H	0.958203	0.000811	-0.061699
H429	H	1.291537	0.334144	0.271635
O430	O	0.675072	-0.159562	-0.224185
O431	O	1.008405	0.173772	0.109148
O432	O	1.341738	0.507105	0.442481
C433	C	0.631967	-0.134153	-0.188750
C434	C	0.965301	0.199180	0.144584
C435	C	1.298634	0.532513	0.477917
H436	H	0.585073	-0.152544	-0.186538
H437	H	0.918406	0.180790	0.146796
H438	H	1.251739	0.514123	0.480129
H439	H	0.650920	-0.129317	-0.139159
H440	H	0.984254	0.204016	0.194175
H441	H	1.317587	0.537350	0.527508
H442	H	0.625054	-0.100054	-0.211898
H443	H	0.958387	0.233279	0.121436
H444	H	1.291720	0.566612	0.454769
O445	O	1.029226	-0.599221	-0.423229
O446	O	1.362559	-0.265888	-0.089896
O447	O	1.695892	0.067446	0.243437
C448	C	1.069892	-0.572057	-0.387447
C449	C	1.403225	-0.238724	-0.054113
C450	C	1.736559	0.094609	0.279220
H451	H	1.073822	-0.586215	-0.337874
H452	H	1.407155	-0.252882	-0.004540
H453	H	1.740488	0.080451	0.328793
H454	H	1.118319	-0.571477	-0.410281
H455	H	1.451652	-0.238144	-0.076947
H456	H	1.784986	0.095190	0.256386
H457	H	1.050420	-0.536515	-0.385251
H458	H	1.383753	-0.203182	-0.051918
H459	H	1.717087	0.130151	0.281415
O460	O	0.545513	-0.272933	-0.382765
O461	O	0.878847	0.060400	-0.049432
O462	O	1.212180	0.393734	0.283901
C463	C	0.507550	-0.247391	-0.423495
C464	C	0.840883	0.085942	-0.090161
C465	C	1.174216	0.419276	0.243172
H466	H	0.527422	-0.212016	-0.427482
H467	H	0.860756	0.121317	-0.094148
H468	H	1.194089	0.454651	0.239185
H469	H	0.506818	-0.263690	-0.471892
H470	H	0.840151	0.069644	-0.138559
H471	H	1.173484	0.402977	0.194775
H472	H	0.457712	-0.245814	-0.404047
H473	H	0.791045	0.087520	-0.070713
H474	H	1.124379	0.420853	0.262620
H475	H	0.149878	-0.268417	-0.376538
H476	H	0.483211	0.064917	-0.043205
H477	H	0.816545	0.398250	0.290129
O478	O	0.830133	-0.383740	-0.224057
O479	O	1.163467	-0.050406	0.109276
O480	O	1.496800	0.282927	0.442609
C481	C	0.767390	-0.395238	-0.237758
C482	C	1.100723	-0.061904	0.095576
C483	C	1.434056	0.271429	0.428909
H484	H	0.766082	-0.429294	-0.261953
H485	H	1.099416	-0.095961	0.071380
H486	H	1.432749	0.237372	0.404714
H487	H	0.739184	-0.396883	-0.192297
H488	H	1.072517	-0.063549	0.141037
H489	H	1.405850	0.269784	0.474370
H490	H	0.746167	-0.368835	-0.270101
H491	H	1.079500	-0.035501	0.063233
H492	H	1.412834	0.297832	0.396566
H493	H	0.982539	-0.387171	-0.376616
H494	H	1.315872	-0.053837	-0.043283
H495	H	1.649205	0.279496	0.290051
O496	O	0.830393	-0.159462	-1.068977
O497	O	1.163726	0.173871	-0.735643
O498	O	1.497060	0.507205	-0.402310
C499	C	0.794864	-0.134125	-1.025864
C500	C	1.128198	0.199208	-0.692531
C501	C	1.461531	0.532541	-0.359197
H502	H	0.820641	-0.132573	-0.979013
H503	H	1.153974	0.200760	-0.645680
H504	H	1.487307	0.534093	-0.312347
H505	H	0.788184	-0.098727	-1.044874
H506	H	1.121518	0.234606	-0.711541
H507	H	1.454851	0.567940	-0.378208
H508	H	0.747040	-0.150587	-1.018843
H509	H	1.080373	0.182746	-0.685510
H510	H	1.413706	0.516080	-0.352176
H511	H	0.796438	-0.743997	-0.190144
H512	H	1.129771	-0.410664	0.143189
H513	H	1.463105	-0.077330	0.476522
H514	H	0.982560	-0.472280	-0.376653
H515	H	1.315894	-0.138947	-0.043320
H516	H	1.649227	0.194387	0.290013
H517	H	1.022914	-0.828804	-0.417034
H518	H	1.356247	-0.495470	-0.083701
H519	H	1.689580	-0.162137	0.249632
O520	O	1.029255	-0.691654	-0.423357
O521	O	1.362588	-0.358321	-0.090024
O522	O	1.695921	-0.024987	0.243309
C523	C	1.064736	-0.660831	-0.458932
C524	C	1.398069	-0.327498	-0.125598
C525	C	1.731403	0.005836	0.207735
H526	H	1.066907	-0.627400	-0.433139
H527	H	1.400241	-0.294067	-0.099806
H528	H	1.733574	0.039267	0.233528
H529	H	1.114339	-0.674335	-0.465709
H530	H	1.447672	-0.341001	-0.132376
H531	H	1.781005	-0.007668	0.200958
H532	H	1.041655	-0.655835	-0.506712
H533	H	1.374988	-0.322501	-0.173378
H534	H	1.708322	0.010832	0.159955
O535	O	0.989059	-0.272757	-0.668280
O536	O	1.322393	0.060576	-0.334947
O537	O	1.655726	0.393909	-0.001613
C538	C	1.029737	-0.247169	-0.706352
C539	C	1.363071	0.086164	-0.373019
C540	C	1.696404	0.419498	-0.039686
H541	H	1.033660	-0.211789	-0.686560
H542	H	1.366994	0.121544	-0.353227
H543	H	1.700327	0.454877	-0.019893
H544	H	1.078165	-0.263412	-0.707115
H545	H	1.411498	0.069921	-0.373782
H546	H	1.744832	0.403255	-0.040449
H547	H	1.010281	-0.245614	-0.756167
H548	H	1.343615	0.087719	-0.422834
H549	H	1.676948	0.421053	-0.089501
H550	H	0.982770	-1.044688	-0.376766
H551	H	1.316103	-0.711355	-0.043432
H552	H	1.649436	-0.378021	0.289901
H553	H	0.836788	-1.044878	-0.230497
H554	H	1.170122	-0.711545	0.102836
H555	H	1.503455	-0.378211	0.436170
O556	O	0.830408	-0.956160	-0.224089
O557	O	1.163741	-0.622827	0.109244
O558	O	1.497074	-0.289494	0.442577
C559	C	0.794907	-0.986982	-0.188532
C560	C	1.128241	-0.653648	0.144802
C561	C	1.461574	-0.320315	0.478135
H562	H	0.820711	-1.020404	-0.186400
H563	H	1.154044	-0.687071	0.146933
H564	H	1.487377	-0.353738	0.480267
H565	H	0.788222	-0.973463	-0.138920
H566	H	1.121555	-0.640130	0.194413
H567	H	1.454889	-0.306796	0.527747
H568	H	0.747084	-0.992000	-0.211520
H569	H	1.080418	-0.658667	0.121813
H570	H	1.413751	-0.325334	0.455146
H571	H	0.796404	-0.688348	-0.190131
H572	H	1.129738	-0.355015	0.143202
H573	H	1.463071	-0.021681	0.476536
H574	H	0.836577	-0.472490	-0.230372
H575	H	1.169911	-0.139157	0.102962
H576	H	1.503244	0.194177	0.436295
O577	O	1.029227	-0.740058	-0.423414
O578	O	1.362560	-0.406725	-0.090080
O579	O	1.695894	-0.073391	0.243253
C580	C	1.064752	-0.770783	-0.458981
C581	C	1.398086	-0.437449	-0.125648
C582	C	1.731419	-0.104116	0.207686
H583	H	1.038974	-0.804245	-0.461128
H584	H	1.372307	-0.470912	-0.127795
H585	H	1.705641	-0.137579	0.205539
H586	H	1.071432	-0.757200	-0.508587
H587	H	1.404765	-0.423866	-0.175253
H588	H	1.738098	-0.090533	0.158080
H589	H	1.112578	-0.775747	-0.435991
H590	H	1.445911	-0.442414	-0.102658
H591	H	1.779244	-0.109081	0.230676
