data_functionalizedCrystal
_audit_creation_method	'MofGen! by Chris Wilmer'
_symmetry_space_group_name_H-M	'P1'
_symmetry_Int_Tables_number	1
_symmetry_cell_setting	triclinic
loop_
_symmetry_equiv_pos_as_xyz
  x,y,z
_cell_length_a	16.120484
_cell_length_b	11.169417
_cell_length_c	11.169417
_cell_angle_alpha	89.997279
_cell_angle_beta	87.115538
_cell_angle_gamma	87.075575
loop_
_atom_site_label
_atom_site_type_symbol
_atom_site_fract_x
_atom_site_fract_y
_atom_site_fract_z
Zn1	Zn	-0.332072	-1.810365	0.702782
Zn2	Zn	0.001262	-1.477031	1.036115
Zn3	Zn	0.334595	-1.143698	1.369448
Zn4	Zn	-0.471457	-1.800090	0.512248
Zn5	Zn	-0.138124	-1.466757	0.845582
Zn6	Zn	0.195210	-1.133423	1.178915
Zn7	Zn	-0.332057	-1.609718	0.502109
Zn8	Zn	0.001276	-1.276385	0.835442
Zn9	Zn	0.334609	-0.943051	1.168775
Zn10	Zn	-0.471445	-1.599428	0.712886
Zn11	Zn	-0.138111	-1.266095	1.046219
Zn12	Zn	0.195222	-0.932762	1.379552
O13	O	-0.401758	-1.704900	0.607506
O14	O	-0.068424	-1.371567	0.940839
O15	O	0.264909	-1.038234	1.274173
O16	O	-0.350572	-1.976950	0.677522
O17	O	-0.017239	-1.643617	1.010855
O18	O	0.316094	-1.310284	1.344189
O19	O	-0.452965	-1.774843	0.342954
O20	O	-0.119631	-1.441510	0.676287
O21	O	0.213702	-1.108176	1.009620
O22	O	-0.215392	-1.644940	0.520257
O23	O	0.117941	-1.311607	0.853590
O24	O	0.451275	-0.978274	1.186923
O25	O	-0.452978	-1.969402	0.537538
O26	O	-0.119645	-1.636068	0.870871
O27	O	0.213688	-1.302735	1.204205
O28	O	-0.215402	-1.792355	0.667690
O29	O	0.117931	-1.459021	1.001023
O30	O	0.451264	-1.125688	1.334357
O31	O	-0.350548	-1.634977	0.335504
O32	O	-0.017215	-1.301644	0.668837
O33	O	0.316118	-0.968311	1.002171
O34	O	-0.350536	-1.440404	0.530054
O35	O	-0.017203	-1.107071	0.863387
O36	O	0.316130	-0.773737	1.196721
O37	O	-0.452957	-1.627403	0.879495
O38	O	-0.119624	-1.294070	1.212828
O39	O	0.213709	-0.960737	1.546162
O40	O	-0.452944	-1.432844	0.684911
O41	O	-0.119610	-1.099511	1.018244
O42	O	0.213723	-0.766178	1.351577
O43	O	-0.350560	-1.782377	0.872072
O44	O	-0.017227	-1.449044	1.205405
O45	O	0.316106	-1.115711	1.538738
O46	O	-0.588123	-1.764865	0.547335
O47	O	-0.254790	-1.431532	0.880669
O48	O	0.078544	-1.098199	1.214002
O49	O	-0.588114	-1.617440	0.694743
O50	O	-0.254780	-1.284107	1.028076
O51	O	0.078553	-0.950774	1.361409
C52	C	-0.401738	-1.393077	0.607479
C53	C	-0.068404	-1.059744	0.940812
C54	C	0.264929	-0.726410	1.274146
C55	C	-0.401749	-1.259676	0.607498
C56	C	-0.068416	-0.926343	0.940831
C57	C	0.264917	-0.593009	1.274164
C58	C	-0.618369	-1.688954	0.623262
C59	C	-0.285036	-1.355621	0.956595
C60	C	0.048298	-1.022287	1.289928
C61	C	-0.711036	-1.682242	0.630042
C62	C	-0.377703	-1.348909	0.963376
C63	C	-0.044369	-1.015575	1.296709
C64	C	-0.880700	-1.669994	0.642446
C65	C	-0.547367	-1.336661	0.975780
C66	C	-0.214033	-1.003328	1.309113
C67	C	-0.921975	-1.740021	0.572586
C68	C	-0.588642	-1.406688	0.905919
C69	C	-0.255308	-1.073354	1.239252
C70	C	-1.016382	-1.733206	0.579487
C71	C	-0.683048	-1.399873	0.912821
C72	C	-0.349715	-1.066540	1.246154
C73	C	-0.786285	-1.676807	0.635546
C74	C	-0.452951	-1.343474	0.968880
C75	C	-0.119618	-1.010141	1.302213
C76	C	-0.184301	-1.720941	0.591715
C77	C	0.149033	-1.387608	0.925049
C78	C	0.482366	-1.054275	1.258382
C79	C	-0.091634	-1.727777	0.584986
C80	C	0.241700	-1.394444	0.918319
C81	C	0.575033	-1.061110	1.251653
C82	C	-0.401759	-1.704889	0.920549
C83	C	-0.068426	-1.371555	1.253882
C84	C	0.264908	-1.038222	1.587215
C85	C	-0.401760	-1.704884	1.053949
C86	C	-0.068426	-1.371550	1.387282
C87	C	0.264907	-1.038217	1.720615
C88	C	-0.401771	-1.017941	0.607524
C89	C	-0.068438	-0.684608	0.940857
C90	C	0.264895	-0.351275	1.274191
C91	C	-0.401759	-1.151342	0.607506
C92	C	-0.068426	-0.818009	0.940839
C93	C	0.264908	-0.484676	1.274173
C94	C	-0.401772	-1.704896	1.295682
C95	C	-0.068438	-1.371563	1.629016
C96	C	0.264895	-1.038230	1.962349
C97	C	-0.401761	-1.704887	1.162282
C98	C	-0.068427	-1.371553	1.495615
C99	C	0.264906	-1.038220	1.828948
H100	H	-0.886409	-1.805090	0.507592
H101	H	-0.553076	-1.471756	0.840925
H102	H	-0.219743	-1.138423	1.174259
F103	F	-0.927183	-1.584947	0.727390
F104	F	-0.593850	-1.251614	1.060723
F105	F	-0.260517	-0.918281	1.394056
