data_functionalizedCrystal
_audit_creation_method	'MofGen! by Chris Wilmer'
_symmetry_space_group_name_H-M	'P1'
_symmetry_Int_Tables_number	1
_symmetry_cell_setting	triclinic
loop_
_symmetry_equiv_pos_as_xyz
  x,y,z
_cell_length_a	15.298068
_cell_length_b	21.295417
_cell_length_c	15.296720
_cell_angle_alpha	99.639335
_cell_angle_beta	88.354818
_cell_angle_gamma	99.688570
loop_
_atom_site_label
_atom_site_type_symbol
_atom_site_fract_x
_atom_site_fract_y
_atom_site_fract_z
Zn1	Zn	1.253349	-0.187264	-0.727337
Zn2	Zn	1.278597	-0.271807	-0.580856
Zn3	Zn	1.132230	-0.181147	-0.555505
Zn4	Zn	1.106821	-0.307097	-0.701874
O5	O	1.192749	-0.236829	-0.641393
O6	O	1.379276	-0.186270	-0.729172
O7	O	1.280381	-0.242452	-0.454934
O8	O	1.148363	-0.093867	-0.578345
O9	O	1.397826	-0.248383	-0.621553
O10	O	1.237349	-0.098361	-0.704590
O11	O	1.172846	-0.175845	-0.436308
O12	O	1.006281	-0.210064	-0.553655
O13	O	1.105058	-0.308530	-0.827811
O14	O	0.987614	-0.302599	-0.661192
O15	O	1.212711	-0.220489	-0.846518
O16	O	1.255744	-0.364580	-0.596862
O17	O	1.129540	-0.390508	-0.685774
C18	C	0.965164	-0.259498	-0.601910
C19	C	0.867799	-0.269213	-0.585040
C20	C	0.554651	-0.167547	-0.761968
C21	C	0.646130	-0.158421	-0.777824
C22	C	0.701551	-0.186118	-0.729629
C23	C	0.665486	-0.222943	-0.665576
C24	C	0.573997	-0.232074	-0.649724
C25	C	0.720897	-0.250645	-0.617385
C26	C	0.684832	-0.287470	-0.553332
C27	C	0.593352	-0.296599	-0.537483
C28	C	0.537930	-0.268902	-0.585677
C29	C	0.812386	-0.241514	-0.633237
C30	C	0.831732	-0.306042	-0.520993
C31	C	0.740253	-0.315168	-0.505138
C32	C	1.192645	-0.400385	-0.641329
C33	C	1.192676	-0.470352	-0.641345
C34	C	1.238972	-0.505510	-0.707115
C35	C	1.238999	-0.571253	-0.707142
C36	C	1.192742	-0.601831	-0.641385
C37	C	1.146436	-0.566665	-0.575609
C38	C	1.146403	-0.500926	-0.575589
N39	N	1.199402	-0.694899	-0.563593
N40	N	1.199438	-0.757349	-0.563615
C41	C	1.192837	-0.799901	-0.641442
N42	N	1.186216	-0.777643	-0.719251
N43	N	1.186185	-0.715187	-0.719228
C44	C	1.192772	-0.673115	-0.641400
C45	C	1.239165	-0.906345	-0.707247
C46	C	1.239186	-0.972090	-0.707274
C47	C	1.146629	-0.967500	-0.575734
C48	C	1.146602	-0.901758	-0.575714
C49	C	1.192875	-0.871184	-0.641470
C50	C	1.421222	-0.214072	-0.681030
C51	C	1.518584	-0.204375	-0.697921
C52	C	1.153234	-0.269128	-0.869831
C53	C	1.136395	-0.282892	-0.967178
C54	C	1.192874	-0.072634	-0.641480
C55	C	1.192927	-0.002664	-0.641517
C56	C	1.313133	-0.138342	-1.280544
C57	C	1.328960	-0.125411	-1.189083
C58	C	1.280820	-0.164780	-1.133602
C59	C	1.216851	-0.217083	-1.169592
C60	C	1.201027	-0.230019	-1.261063
C61	C	1.168714	-0.256456	-1.114121
C62	C	1.104745	-0.308759	-1.150111
C63	C	1.088924	-0.321692	-1.241573
C64	C	1.137064	-0.282323	-1.297053
C65	C	1.184537	-0.243520	-1.022650
C66	C	1.072431	-0.335197	-1.003169
C67	C	1.056605	-0.348128	-1.094630
C68	C	1.232161	-0.204605	-0.413852
C69	C	1.249170	-0.190647	-0.316535
H70	H	0.675487	-0.128440	-0.829978
H71	H	1.124181	-0.292849	-1.371530
F72	F	1.288214	-0.472976	-0.777102
H73	H	1.236621	-0.200934	-0.993356
H74	H	1.036843	-0.364285	-1.270873
F75	F	0.554971	-0.335791	-0.469311
H76	H	1.004520	-0.390714	-1.123946
H77	H	0.710875	-0.345152	-0.452986
H78	H	0.509518	-0.145004	-0.801206
H79	H	1.276884	-1.000715	-0.760836
F80	F	1.364366	-0.096454	-1.339596
H81	H	1.108908	-0.873129	-0.522155
H82	H	1.108959	-0.992398	-0.522198
F83	F	0.890711	-0.335524	-0.469700
F84	F	1.288280	-0.608677	-0.777143
H85	H	1.033233	-0.367255	-0.957996
H86	H	1.108771	-0.591567	-0.522071
F87	F	1.297664	-0.151015	-1.036261
H88	H	1.108702	-0.472299	-0.522030
F89	F	1.288408	-0.873805	-0.777231
F90	F	0.798912	-0.176403	-0.746504
F91	F	0.850760	-0.202323	-0.701404
F92	F	0.440566	-0.278611	-0.568804
F93	F	1.397038	-0.069749	-1.150787
