data_functionalizedCrystal
_audit_creation_method	'MofGen! by Chris Wilmer'
_symmetry_space_group_name_H-M	'P1'
_symmetry_Int_Tables_number	1
_symmetry_cell_setting	triclinic
loop_
_symmetry_equiv_pos_as_xyz
  x,y,z
_cell_length_a	14.044220
_cell_length_b	11.295483
_cell_length_c	12.837942
_cell_angle_alpha	85.469583
_cell_angle_beta	85.991091
_cell_angle_gamma	85.525227
loop_
_atom_site_label
_atom_site_type_symbol
_atom_site_fract_x
_atom_site_fract_y
_atom_site_fract_z
O1	O	1.286265	-0.098895	-0.245585
O2	O	1.619598	0.234439	0.087748
O3	O	1.952932	0.567772	0.421081
O4	O	1.009476	-0.098925	-0.236489
O5	O	1.342810	0.234408	0.096844
O6	O	1.676143	0.567742	0.430178
O7	O	1.141733	-0.098903	-0.089567
O8	O	1.475066	0.234430	0.243766
O9	O	1.808399	0.567764	0.577099
O10	O	1.154009	-0.098916	-0.392507
O11	O	1.487342	0.234417	-0.059174
O12	O	1.820675	0.567750	0.274160
O13	O	1.130114	0.099146	-0.102450
O14	O	1.463448	0.432479	0.230883
O15	O	1.796781	0.765812	0.564217
O16	O	0.997858	0.099124	-0.249372
O17	O	1.331191	0.432457	0.083962
O18	O	1.664525	0.765791	0.417295
O19	O	1.274647	0.099154	-0.258468
O20	O	1.607980	0.432488	0.074865
O21	O	1.941313	0.765821	0.408199
Cu22	Cu	1.135192	0.117222	-0.255096
Cu23	Cu	1.468525	0.450556	0.078237
Cu24	Cu	1.801858	0.783889	0.411570
Cu25	Cu	1.148932	-0.116993	-0.239861
Cu26	Cu	1.482265	0.216340	0.093473
Cu27	Cu	1.815598	0.549673	0.426806
O28	O	1.142390	0.099132	-0.405390
O29	O	1.475724	0.432466	-0.072056
O30	O	1.809057	0.765799	0.261277
C31	C	0.967993	0.000096	-0.238949
C32	C	1.301327	0.333429	0.094384
C33	C	1.634660	0.666762	0.427717
C34	C	0.861696	0.000084	-0.227074
C35	C	1.195029	0.333418	0.106259
C36	C	1.528362	0.666751	0.439592
N37	N	1.125534	0.281957	-0.265812
N38	N	1.458868	0.615291	0.067521
N39	N	1.792201	0.948624	0.400855
N40	N	1.158595	-0.281728	-0.229138
N41	N	1.491929	0.051605	0.104196
N42	N	1.825262	0.384939	0.437529
C43	C	0.667072	0.000109	-0.205367
C44	C	1.000405	0.333442	0.127966
C45	C	1.333739	0.666775	0.461299
C46	C	0.617046	0.000110	-0.289584
C47	C	0.950379	0.333443	0.043749
C48	C	1.283712	0.666777	0.377082
C49	C	0.508750	0.000124	-0.277506
C50	C	0.842084	0.333457	0.055827
C51	C	1.175417	0.666790	0.389160
C52	C	0.775377	0.000095	-0.217444
C53	C	1.108711	0.333428	0.115890
C54	C	1.442044	0.666762	0.449223
C55	C	1.316130	0.000131	-0.256008
C56	C	1.649463	0.333464	0.077326
C57	C	1.982797	0.666798	0.410659
C58	C	1.422428	0.000135	-0.267882
C59	C	1.755761	0.333468	0.065451
C60	C	2.089095	0.666801	0.398785
C61	C	1.131777	0.000120	-0.057005
C62	C	1.465110	0.333454	0.276329
C63	C	1.798444	0.666787	0.609662
C64	C	1.119410	0.000117	0.059216
C65	C	1.452743	0.333450	0.392550
C66	C	1.786076	0.666784	0.725883
C67	C	1.228107	0.531264	-0.151941
C68	C	1.561441	0.864597	0.181392
C69	C	1.894774	1.197930	0.514725
C70	C	1.220817	0.655926	-0.160047
C71	C	1.554150	0.989259	0.173286
C72	C	1.887483	1.322593	0.506619
C73	C	1.103658	0.655947	-0.290124
C74	C	1.436992	0.989280	0.043210
C75	C	1.770325	1.322614	0.376543
C76	C	1.110949	0.531284	-0.282018
C77	C	1.444282	0.864618	0.051315
C78	C	1.777616	1.197951	0.384649
C79	C	1.173176	0.468947	-0.212926
C80	C	1.506510	0.802280	0.120408
C81	C	1.839843	1.135614	0.453741
C82	C	1.180471	0.344282	-0.204826
C83	C	1.513805	0.677616	0.128508
C84	C	1.847138	1.010949	0.461841
C85	C	1.063309	0.344305	-0.334896
C86	C	1.396642	0.677639	-0.001563
C87	C	1.729975	1.010972	0.331771
C88	C	1.056018	0.468968	-0.343002
C89	C	1.389352	0.802301	-0.009669
C90	C	1.722685	1.135635	0.323665
C91	C	1.152346	0.000106	-0.437952
C92	C	1.485680	0.333440	-0.104619
C93	C	1.819013	0.666773	0.228714
C94	C	1.164714	0.000102	-0.554173
C95	C	1.498047	0.333435	-0.220839
C96	C	1.831381	0.666769	0.112494
C97	C	1.268089	0.000108	0.286427
C98	C	1.601423	0.333442	0.619760
C99	C	1.934756	0.666775	0.953094
C100	C	1.256474	0.000105	0.395627
C101	C	1.589807	0.333438	0.728961
C102	C	1.923140	0.666772	1.062294
C103	C	1.084564	0.000099	0.386819
C104	C	1.417897	0.333432	0.720153
C105	C	1.751231	0.666765	1.053486
C106	C	1.096180	0.000102	0.277619
C107	C	1.429513	0.333435	0.610953
C108	C	1.762846	0.666768	0.944286
C109	C	1.187945	0.000108	0.227427
C110	C	1.521279	0.333442	0.560760
C111	C	1.854612	0.666775	0.894094
C112	C	1.199560	0.000120	0.118224
C113	C	1.532893	0.333454	0.451558
C114	C	1.866226	0.666787	0.784891
C115	C	1.027651	0.000105	0.109419
C116	C	1.360985	0.333439	0.442752
C117	C	1.694318	0.666772	0.776086
C118	C	1.016036	0.000102	0.218619
C119	C	1.349369	0.333435	0.551952
C120	C	1.682702	0.666769	0.885286
H121	H	0.655549	0.000101	-0.370756
H122	H	0.988882	0.333434	-0.037423
H123	H	1.322216	0.666767	0.295911
F124	F	0.616749	0.000117	-0.099276
F125	F	0.950082	0.333450	0.234057
F126	F	1.283416	0.666783	0.567390
H127	H	1.052987	0.706718	-0.346370
H128	H	1.386321	1.040051	-0.013036
H129	H	1.719654	1.373385	0.320297
H130	H	1.231143	0.293528	-0.148570
H131	H	1.564476	0.626862	0.184763
H132	H	1.897809	0.960195	0.518096
H133	H	1.278782	0.480508	-0.095691
H134	H	1.612116	0.813841	0.237642
H135	H	1.945449	1.147174	0.570975
H136	H	1.005351	0.519737	-0.399253
H137	H	1.338684	0.853071	-0.065920
H138	H	1.672018	1.186404	0.267414
H139	H	1.265546	0.706661	-0.110387
H140	H	1.598879	1.039994	0.222947
H141	H	1.932212	1.373327	0.556280
F142	F	1.004850	0.277972	-0.399808
F143	F	1.338183	0.611305	-0.066475
F144	F	1.671517	0.944638	0.266859
F145	F	0.942350	0.000118	0.046618
F146	F	1.275683	0.333451	0.379951
F147	F	1.609016	0.666784	0.713285
F148	F	1.297223	0.000135	0.064807
F149	F	1.630556	0.333468	0.398140
F150	F	1.963889	0.666802	0.731474
F151	F	1.365750	0.000140	0.233005
F152	F	1.699083	0.333474	0.566338
F153	F	2.032416	0.666807	0.899671
H154	H	1.009853	0.000080	0.427706
H155	H	1.343187	0.333414	0.761039
H156	H	1.676520	0.666747	1.094373
F157	F	1.341775	0.000101	0.458416
F158	F	1.675108	0.333435	0.791750
F159	F	2.008441	0.666768	1.125083
H160	H	0.941323	0.000092	0.259501
H161	H	1.274656	0.333425	0.592834
H162	H	1.607989	0.666759	0.926168
