data_functionalizedCrystal
_audit_creation_method	'MofGen! by Chris Wilmer'
_symmetry_space_group_name_H-M	'P1'
_symmetry_Int_Tables_number	1
_symmetry_cell_setting	triclinic
loop_
_symmetry_equiv_pos_as_xyz
  x,y,z
_cell_length_a	10.685980
_cell_length_b	16.120531
_cell_length_c	10.686551
_cell_angle_alpha	88.704865
_cell_angle_beta	98.408259
_cell_angle_gamma	82.492862
loop_
_atom_site_label
_atom_site_type_symbol
_atom_site_fract_x
_atom_site_fract_y
_atom_site_fract_z
Zn1	Zn	1.982379	0.186870	0.879971
Zn2	Zn	2.482379	0.686870	1.379971
Zn3	Zn	1.955119	0.337907	0.678431
Zn4	Zn	2.455119	0.837907	1.178431
Zn5	Zn	1.752141	0.210075	0.653083
Zn6	Zn	2.252141	0.710075	1.153083
Zn7	Zn	1.759249	0.337826	0.874335
Zn8	Zn	2.259249	0.837826	1.374335
O9	O	1.862222	0.268169	0.771455
O10	O	2.362222	0.768169	1.271455
O11	O	2.157091	0.197228	0.866203
O12	O	2.657091	0.697228	1.366203
O13	O	1.913811	0.330695	0.498128
O14	O	2.413811	0.830695	0.998128
O15	O	1.791117	0.090323	0.674931
O16	O	2.291117	0.590323	1.174931
O17	O	2.137063	0.308194	0.718132
O18	O	2.637063	0.808194	1.218132
O19	O	1.960272	0.073274	0.841624
O20	O	2.460272	0.573274	1.341624
O21	O	1.764684	0.236777	0.479505
O22	O	2.264684	0.736777	0.979505
O23	O	1.574756	0.236698	0.669466
O24	O	2.074756	0.736698	1.169466
O25	O	1.803230	0.308056	1.052023
O26	O	2.303230	0.808056	1.552023
O27	O	1.579978	0.330557	0.832019
O28	O	2.079978	0.830557	1.332019
O29	O	1.967163	0.197150	1.056164
O30	O	2.467163	0.697150	1.556164
O31	O	1.920702	0.454570	0.712667
O32	O	2.420702	0.954570	1.212667
O33	O	1.776797	0.454511	0.856598
O34	O	2.276797	0.954511	1.356598
C35	C	1.531129	0.286137	0.747381
C36	C	2.031129	0.786137	1.247381
C37	C	1.389486	0.293843	0.737113
C38	C	1.889486	0.793843	1.237113
C39	C	1.846600	0.484789	0.786802
C40	C	2.346600	0.984789	1.286802
C41	C	1.840036	0.577452	0.793418
C42	C	2.340036	1.077452	1.293418
C43	C	1.828063	0.747105	0.805523
C44	C	2.328063	1.247105	1.305523
C45	C	1.896423	0.788395	0.737318
C46	C	2.396423	1.288395	1.237318
C47	C	1.889761	0.882796	0.744054
C48	C	2.389761	1.382796	1.244054
C49	C	1.834723	0.652695	0.798789
C50	C	2.334723	1.152695	1.298789
C51	C	2.194608	0.250132	0.795624
C52	C	2.694608	0.750132	1.295624
C53	C	2.336252	0.242445	0.805923
C54	C	2.836252	0.742445	1.305923
C55	C	1.877895	1.050704	0.756052
C56	C	2.377895	1.550704	1.256052
C57	C	1.884453	0.958043	0.749421
C58	C	2.384453	1.458043	1.249421
C59	C	1.889030	0.250006	1.101255
C60	C	2.389030	0.750006	1.601255
C61	C	1.900455	0.242265	1.241796
C62	C	2.400455	0.742265	1.741796
C63	C	1.835596	0.286199	0.442939
C64	C	2.335596	0.786199	0.942939
C65	C	1.824435	0.293691	0.302400
C66	C	2.324435	0.793691	0.802400
H67	H	1.959951	0.752847	0.673867
H68	H	2.459951	1.252847	1.173867
H69	H	1.764538	0.782650	0.868968
H70	H	2.264538	1.282650	1.368968
N71	N	1.419410	0.176351	0.894378
N72	N	1.919410	0.676351	1.394378
H73	H	1.363765	0.143148	0.938838
H74	H	1.863765	0.643148	1.438838
H75	H	1.473221	0.137573	0.844226
H76	H	1.973221	0.637573	1.344226
N77	N	1.306317	0.359940	0.648656
N78	N	1.806317	0.859940	1.148656
H79	H	1.252493	0.398774	0.698726
H80	H	1.752493	0.898774	1.198726
H81	H	1.362045	0.393082	0.604214
H82	H	1.862045	0.893082	1.104214
N83	N	1.726649	0.359861	1.228723
N84	N	2.226649	0.859861	1.728723
H85	H	1.732075	0.356198	1.135402
H86	H	2.232075	0.856198	1.635402
H87	H	1.638424	0.350571	1.244204
H88	H	2.138424	0.850571	1.744204
H89	H	1.974288	0.192316	1.297435
H90	H	2.474288	0.692316	1.797435
