data_functionalizedCrystal
_audit_creation_method	'MofGen! by Chris Wilmer'
_symmetry_space_group_name_H-M	'P1'
_symmetry_Int_Tables_number	1
_symmetry_cell_setting	triclinic
loop_
_symmetry_equiv_pos_as_xyz
  x,y,z
_cell_length_a	15.944551
_cell_length_b	9.730217
_cell_length_c	10.654541
_cell_angle_alpha	90.003041
_cell_angle_beta	96.008667
_cell_angle_gamma	90.003081
loop_
_atom_site_label
_atom_site_type_symbol
_atom_site_fract_x
_atom_site_fract_y
_atom_site_fract_z
O1	O	1.115457	-0.114146	-0.161964
O2	O	0.871023	-0.114180	-0.181933
O3	O	0.998861	-0.114154	0.010863
O4	O	0.987619	-0.114172	-0.354761
O5	O	0.998857	0.114426	0.010865
O6	O	0.871019	0.114400	-0.181931
O7	O	1.115453	0.114434	-0.161963
Zn8	Zn	0.993235	0.150709	-0.171947
Zn9	Zn	0.993241	-0.150455	-0.171949
O10	O	0.987615	0.114408	-0.354759
C11	C	0.839722	0.000106	-0.181103
C12	C	0.746462	0.000093	-0.178618
N13	N	0.993238	0.356246	-0.171944
N14	N	0.993245	-0.355991	-0.171941
C15	C	0.530880	0.000126	-0.053173
C16	C	0.470198	-0.112579	-0.111426
C17	C	0.575710	0.000109	-0.174122
C18	C	0.470217	0.112783	-0.111453
C19	C	0.410772	0.000131	-0.169770
C20	C	0.516257	-0.112689	-0.232408
C21	C	0.516282	0.112775	-0.232418
C22	C	0.455618	0.000042	-0.290760
C23	C	0.670727	0.000096	-0.176625
C24	C	0.315756	0.000135	-0.167276
C25	C	1.146754	0.000145	-0.162793
C26	C	1.240014	0.000149	-0.165278
C27	C	0.998034	0.000135	0.057652
C28	C	0.995566	0.000133	0.197063
C29	C	1.106485	0.356260	-0.001272
C30	C	1.163115	0.428206	0.084060
C31	C	1.163123	0.572086	0.084061
C32	C	1.106495	0.644022	-0.001277
C33	C	1.049865	0.572076	-0.086610
C34	C	1.049865	0.428192	-0.086604
C35	C	0.936615	0.572062	-0.257274
C36	C	0.936609	0.428182	-0.257283
C37	C	0.879987	0.643998	-0.342612
C38	C	0.823360	0.572051	-0.427953
C39	C	0.823355	0.428163	-0.427951
C40	C	0.879980	0.356235	-0.342615
C41	C	0.988442	0.000116	-0.401548
C42	C	0.990910	0.000109	-0.540959
C43	C	1.148431	0.000171	0.227012
C44	C	1.223700	0.000193	0.307480
C45	C	1.221376	0.000189	0.438468
C46	C	1.143774	0.000158	0.488989
C47	C	1.068504	0.000136	0.408521
C48	C	1.070837	0.000145	0.277532
C49	C	0.915641	0.000087	0.378573
C50	C	0.917963	0.000102	0.247584
C51	C	0.838039	0.000057	0.429094
C52	C	0.762767	0.000045	0.348625
C53	C	0.765095	0.000051	0.217630
C54	C	0.842694	0.000080	0.167116
H55	H	0.563632	-0.000009	0.047204
N56	N	1.141416	0.000155	0.622793
N57	N	1.174500	0.096509	0.687953
H58	H	1.172836	0.096507	0.782454
H59	H	0.703801	0.000027	0.152119
H60	H	1.106498	0.761177	-0.001261
N61	N	1.302974	0.000218	0.255898
N62	N	1.353901	-0.096116	0.280552
H63	H	1.409890	-0.096101	0.244128
H64	H	0.844597	0.000093	0.060461
H65	H	1.106491	0.239105	-0.001274
H66	H	1.282667	0.000196	0.503986
H67	H	0.836151	0.000045	0.535752
N68	N	0.683514	-0.000004	0.400252
N69	N	0.681450	-0.000026	0.517207
H70	H	0.625477	-0.000061	0.553674
H71	H	0.536542	-0.208076	-0.283527
H72	H	0.777237	0.369591	-0.497435
H73	H	0.449833	0.208063	-0.060274
H74	H	0.423041	-0.000026	-0.391241
H75	H	0.879984	0.239081	-0.342611
N76	N	1.220863	0.354659	0.171316
N77	N	1.218940	0.370743	0.287376
H78	H	1.259687	0.318773	0.349031
H79	H	0.536707	0.208058	-0.283532
N80	N	1.150821	0.000207	0.093215
N81	N	1.220109	0.000249	0.048123
H82	H	1.221800	0.000278	-0.046373
N83	N	1.220966	0.645564	0.171242
N84	N	1.271517	0.581330	0.247435
H85	H	1.312369	0.633222	0.309009
H86	H	0.777253	0.630631	-0.497424
N87	N	0.444614	-0.232109	-0.047248
N88	N	0.471731	-0.252191	0.065620
H89	H	0.453668	-0.336609	0.110954
H90	H	0.879993	0.761152	-0.342603
