data_functionalizedCrystal
_audit_creation_method	'MofGen! by Chris Wilmer'
_symmetry_space_group_name_H-M	'P1'
_symmetry_Int_Tables_number	1
_symmetry_cell_setting	triclinic
loop_
_symmetry_equiv_pos_as_xyz
  x,y,z
_cell_length_a	19.121112
_cell_length_b	19.121449
_cell_length_c	14.908858
_cell_angle_alpha	84.378021
_cell_angle_beta	90.700023
_cell_angle_gamma	85.039809
loop_
_atom_site_label
_atom_site_type_symbol
_atom_site_fract_x
_atom_site_fract_y
_atom_site_fract_z
Zn1	Zn	1.061745	-0.300169	-0.551749
Zn2	Zn	1.561745	0.199831	-0.051749
Zn3	Zn	1.074040	-0.425210	-0.394712
Zn4	Zn	1.574040	0.074790	0.105288
Zn5	Zn	0.951446	-0.302540	-0.394740
Zn6	Zn	1.451446	0.197460	0.105260
Zn7	Zn	0.949642	-0.413349	-0.539367
Zn8	Zn	1.449642	0.086651	-0.039367
O9	O	1.009218	-0.360317	-0.470142
O10	O	1.509218	0.139683	0.029858
O11	O	1.161597	-0.320728	-0.536088
O12	O	1.661597	0.179272	-0.036088
O13	O	1.063679	-0.414893	-0.268468
O14	O	1.563679	0.085107	0.231532
O15	O	0.961686	-0.203521	-0.420761
O16	O	1.461686	0.296479	0.079239
O17	O	1.170631	-0.412595	-0.420714
O18	O	1.670631	0.087405	0.079286
O19	O	1.042722	-0.201780	-0.536115
O20	O	1.542722	0.298220	-0.036115
O21	O	0.973609	-0.324768	-0.268488
O22	O	1.473609	0.175232	0.231512
O23	O	0.852985	-0.313267	-0.408754
O24	O	1.352985	0.186733	0.091246
O25	O	0.958612	-0.392380	-0.667257
O26	O	1.458612	0.107620	-0.167257
O27	O	0.851660	-0.394678	-0.515011
O28	O	1.351660	0.105322	-0.015011
O29	O	1.040973	-0.309227	-0.676354
O30	O	1.540973	0.190773	-0.176354
O31	O	1.061930	-0.522341	-0.408707
O32	O	1.561930	-0.022341	0.091293
O33	O	0.970535	-0.513627	-0.514985
O34	O	1.470535	-0.013627	-0.014985
C35	C	0.826855	-0.352943	-0.460543
C36	C	1.326855	0.147057	0.039457
C37	C	0.748839	-0.349805	-0.456457
C38	C	1.248839	0.150195	0.043543
C39	C	1.017389	-0.543577	-0.460520
C40	C	1.517389	-0.043577	0.039480
C41	C	1.020947	-0.621977	-0.456437
C42	C	1.520947	-0.121977	0.043563
C43	C	0.307627	-0.329891	-0.430579
C44	C	0.807627	0.170109	0.069421
C45	C	0.380931	-0.332843	-0.434423
C46	C	0.880931	0.167157	0.065577
C47	C	0.416917	-0.376785	-0.491569
C48	C	0.916917	0.123215	0.008431
C49	C	0.379595	-0.417771	-0.544883
C50	C	0.879595	0.082229	-0.044883
C51	C	0.306291	-0.414814	-0.541043
C52	C	0.806291	0.085186	-0.041043
C53	C	0.638213	-0.387834	-0.505930
C54	C	1.138213	0.112166	-0.005930
C55	C	0.711521	-0.390789	-0.509764
C56	C	1.211521	0.109211	-0.009764
C57	C	0.712853	-0.305860	-0.399305
C58	C	1.212853	0.194140	0.100695
C59	C	0.639549	-0.302911	-0.395466
C60	C	1.139549	0.197089	0.104534
C61	C	0.602232	-0.343894	-0.448783
C62	C	1.102232	0.156106	0.051217
C63	C	0.491846	-0.379806	-0.495498
C64	C	0.991846	0.120194	0.004502
C65	C	0.527304	-0.340869	-0.444858
C66	C	1.027304	0.159131	0.055142
C67	C	0.975006	-0.654299	-0.509803
C68	C	1.475006	-0.154299	-0.009803
C69	C	0.978353	-0.727965	-0.505963
C70	C	1.478353	-0.227965	-0.005963
C71	C	1.027644	-0.769307	-0.448762
C72	C	1.527644	-0.269307	0.051238
C73	C	1.073587	-0.736980	-0.395391
C74	C	1.573587	-0.236980	0.104609
C75	C	1.070237	-0.663316	-0.399226
C76	C	1.570237	-0.163316	0.100774
C77	C	1.040139	-0.991951	-0.434411
C78	C	1.540139	-0.491951	0.065589
C79	C	1.043487	-1.065621	-0.430582
C80	C	1.543487	-0.565621	0.069418
C81	C	0.948251	-1.056600	-0.541154
C82	C	1.448251	-0.556600	-0.041154
C83	C	0.944908	-0.982935	-0.544988
C84	C	1.444908	-0.482935	-0.044988
C85	C	0.990849	-0.950614	-0.491613
C86	C	1.490849	-0.450614	0.008387
C87	C	1.031067	-0.844605	-0.444838
C88	C	1.531067	-0.344605	0.055162
C89	C	0.987422	-0.875317	-0.495533
C90	C	1.487422	-0.375317	0.004467
C91	C	1.192294	-0.367720	-0.479779
C92	C	1.692294	0.132280	0.020221
C93	C	1.270310	-0.370875	-0.483886
C94	C	1.770310	0.129125	0.016114
C95	C	0.998220	-0.349216	-0.705456
C96	C	1.498220	0.150784	-0.205456
C97	C	0.993533	-0.344485	-0.805732
C98	C	1.493533	0.155515	-0.305732
C99	C	1.001034	-0.176342	-0.479822
C100	C	1.501034	0.323658	0.020178
C101	C	0.997546	-0.097943	-0.483947
C102	C	1.497546	0.402057	0.016053
C103	C	0.940038	-0.290896	-0.947078
C104	C	1.440038	0.209104	-0.447078
C105	C	0.944439	-0.295340	-0.852859
C106	C	1.444439	0.204660	-0.352859
C107	C	1.038231	-0.389190	-0.852832
C108	C	1.538231	0.110810	-0.352832
C109	C	1.033830	-0.384746	-0.947051
C110	C	1.533830	0.115254	-0.447051
C111	C	0.984732	-0.335599	-0.994170
C112	C	1.484732	0.164401	-0.494170
C113	C	0.980328	-0.331159	-1.088391
C114	C	1.480328	0.168841	-0.588391
C115	C	1.074123	-0.425005	-1.088362
C116	C	1.574123	0.074995	-0.588362
C117	C	1.078524	-0.429448	-0.994143
C118	C	1.578524	0.070552	-0.494143
C119	C	1.020212	-0.371326	-0.235748
C120	C	1.520212	0.128674	0.264252
C121	C	1.025026	-0.375863	-0.135490
C122	C	1.525026	0.124137	0.364510
H123	H	0.278333	-0.294109	-0.384043
H124	H	0.778333	0.205891	0.115957
N125	N	1.128672	-0.479659	-0.946021
N126	N	1.628672	0.020341	-0.446021
N127	N	1.168569	-0.519571	-0.988082
N128	N	1.668569	-0.019571	-0.488082
H129	H	1.203986	-0.555036	-0.954098
H130	H	1.703986	-0.055036	-0.454098
N131	N	0.924665	-0.612062	-0.568236
N132	N	1.424665	-0.112062	-0.068236
N133	N	0.944765	-0.569198	-0.629191
N134	N	1.444765	-0.069198	-0.129191
H135	H	0.909210	-0.539368	-0.670460
H136	H	1.409210	-0.039368	-0.170460
N137	N	0.416338	-0.462656	-0.603269
N138	N	0.916338	0.037344	-0.103269
N139	N	0.404067	-0.453825	-0.686338
N140	N	0.904067	0.046175	-0.186338
H141	H	0.430015	-0.485527	-0.727575
H142	H	0.930015	0.014473	-0.227575
H143	H	0.275908	-0.448186	-0.584454
H144	H	0.775908	0.051814	-0.084454
N145	N	0.528611	-0.424705	-0.553849
N146	N	1.028611	0.075295	-0.053849
N147	N	0.523621	-0.489743	-0.543870
N148	N	1.023621	0.010257	-0.043870
H149	H	0.549588	-0.521453	-0.585080
H150	H	1.049588	-0.021453	-0.085080
N151	N	0.750972	-0.263982	-0.344871
N152	N	1.250972	0.236018	0.155129
N153	N	0.739595	-0.198286	-0.353995
N154	N	1.239595	0.301714	0.146005
H155	H	0.766517	-0.168704	-0.315554
H156	H	1.266517	0.331296	0.184446
N157	N	1.093824	-1.107858	-0.372131
N158	N	1.593824	-0.607858	0.127869
N159	N	1.073710	-1.150723	-0.311187
N160	N	1.573710	-0.650723	0.188813
H161	H	1.109256	-1.180556	-0.269908
H162	H	1.609256	-0.680556	0.230092
H163	H	1.077547	-0.965642	-0.390953
H164	H	1.577547	-0.465642	0.109047
H165	H	0.498001	-0.305089	-0.398333
H166	H	0.998001	0.194911	0.101667
H167	H	1.078210	-0.429198	-0.814451
H168	H	1.578210	0.070802	-0.314451
H169	H	0.740819	-0.426572	-0.556304
H170	H	1.240819	0.073428	-0.056304
H171	H	0.908047	-0.258937	-0.814520
H172	H	1.408047	0.241063	-0.314520
N173	N	0.600112	-0.429698	-0.560398
N174	N	1.100112	0.070302	-0.060398
N175	N	0.632253	-0.468928	-0.611416
N176	N	1.132253	0.031072	-0.111416
H177	H	0.605342	-0.498497	-0.649888
H178	H	1.105342	0.001503	-0.149888
N179	N	1.123928	-0.779218	-0.336958
N180	N	1.623928	-0.279218	0.163042
N181	N	1.126914	-0.844989	-0.333540
N182	N	1.626914	-0.344989	0.166460
H183	H	1.162470	-0.874819	-0.292272
H184	H	1.662470	-0.374819	0.207728
N185	N	0.419039	-0.290975	-0.379963
N186	N	0.919039	0.209025	0.120037
N187	N	0.386901	-0.251750	-0.328937
N188	N	0.886901	0.248250	0.171063
H189	H	0.413814	-0.222178	-0.290470
H190	H	0.913814	0.277822	0.209530
H191	H	0.940936	-0.754278	-0.549411
H192	H	1.440936	-0.254278	-0.049411
H193	H	0.904771	-0.949275	-0.591566
H194	H	1.404771	-0.449275	-0.091566
N195	N	0.937075	-0.833101	-0.553975
N196	N	1.437075	-0.333101	-0.053975
N197	N	0.896061	-0.861964	-0.601629
N198	N	1.396061	-0.361964	-0.101629
H199	H	0.860505	-0.832145	-0.642907
H200	H	1.360505	-0.332145	-0.142907
H201	H	1.110519	-0.461402	-1.126715
H202	H	1.610519	0.038598	-0.626715
N203	N	0.901333	-1.089627	-0.595666
N204	N	1.401333	-0.589627	-0.095666
N205	N	0.904329	-1.155398	-0.592238
N206	N	1.404329	-0.655398	-0.092238
H207	H	0.871190	-1.178724	-0.630739
H208	H	1.371190	-0.678724	-0.130739
N209	N	1.117166	-0.630308	-0.344703
N210	N	1.617166	-0.130308	0.155297
N211	N	1.161172	-0.667227	-0.293631
N212	N	1.661172	-0.167227	0.206369
H213	H	1.194315	-0.643917	-0.255118
H214	H	1.694315	-0.143917	0.244882
N215	N	0.602780	-0.258016	-0.337113
N216	N	1.102780	0.241984	0.162887
N217	N	0.537331	-0.255378	-0.333698
N218	N	1.037331	0.244622	0.166302
H219	H	0.511361	-0.223670	-0.292486
H220	H	1.011361	0.276330	0.207514
H221	H	1.071201	-0.878274	-0.398266
H222	H	1.571201	-0.378274	0.101734
N223	N	0.930169	-0.280958	-1.136510
N224	N	1.430169	0.219042	-0.636510
N225	N	0.890270	-0.241049	-1.094448
N226	N	1.390270	0.258951	-0.594448
H227	H	0.854844	-0.205592	-1.128429
H228	H	1.354844	0.294408	-0.628429
N229	N	0.889877	-0.240700	-0.995200
N230	N	1.389877	0.259300	-0.495200
N231	N	0.849970	-0.200796	-0.953141
N232	N	1.349970	0.299204	-0.453141
H233	H	0.814542	-0.165344	-0.987126
H234	H	1.314542	0.334656	-0.487126
