data_functionalizedCrystal
_audit_creation_method	'MofGen! by Chris Wilmer'
_symmetry_space_group_name_H-M	'P1'
_symmetry_Int_Tables_number	1
_symmetry_cell_setting	triclinic
loop_
_symmetry_equiv_pos_as_xyz
  x,y,z
_cell_length_a	16.120490
_cell_length_b	16.120444
_cell_length_c	16.120297
_cell_angle_alpha	84.384883
_cell_angle_beta	89.870317
_cell_angle_gamma	90.165174
loop_
_atom_site_label
_atom_site_type_symbol
_atom_site_fract_x
_atom_site_fract_y
_atom_site_fract_z
Zn1	Zn	1.224982	-0.422332	0.554792
Zn2	Zn	1.558316	-0.088999	0.888125
Zn3	Zn	1.891649	0.244334	1.221459
Zn4	Zn	1.224875	-0.555017	0.422098
Zn5	Zn	1.558209	-0.221684	0.755432
Zn6	Zn	1.891542	0.111650	1.088765
Zn7	Zn	1.093721	-0.408241	0.408037
Zn8	Zn	1.427055	-0.074908	0.741371
Zn9	Zn	1.760388	0.258426	1.074704
Zn10	Zn	1.078872	-0.554241	0.554034
Zn11	Zn	1.412205	-0.220908	0.887367
Zn12	Zn	1.745539	0.112425	1.220701
O13	O	1.155613	-0.484958	0.484740
O14	O	1.488946	-0.151625	0.818074
O15	O	1.822279	0.181709	1.151407
O16	O	1.341004	-0.446155	0.543392
O17	O	1.674337	-0.112822	0.876725
O18	O	2.007671	0.220512	1.210058
O19	O	1.213647	-0.529974	0.303600
O20	O	1.546980	-0.196641	0.636934
O21	O	1.880314	0.136693	0.970267
O22	O	1.117393	-0.293479	0.421937
O23	O	1.450726	0.039854	0.755270
O24	O	1.784059	0.373187	1.088604
O25	O	1.340925	-0.543638	0.445902
O26	O	1.674259	-0.210305	0.779236
O27	O	2.007592	0.123029	1.112569
O28	O	1.213829	-0.303832	0.529757
O29	O	1.547163	0.029501	0.863090
O30	O	1.880496	0.362834	1.196424
O31	O	1.117289	-0.422138	0.293270
O32	O	1.450622	-0.088805	0.626603
O33	O	1.783956	0.244528	0.959936
O34	O	0.975716	-0.421386	0.421202
O35	O	1.309049	-0.088053	0.754536
O36	O	1.642382	0.245280	1.087869
O37	O	1.092084	-0.542316	0.670767
O38	O	1.425418	-0.208983	1.004101
O39	O	1.758751	0.124350	1.337434
O40	O	0.964806	-0.528652	0.528465
O41	O	1.298139	-0.195319	0.861799
O42	O	1.631473	0.138014	1.195132
O43	O	1.199431	-0.445403	0.671324
O44	O	1.532764	-0.112070	1.004658
O45	O	1.866097	0.221264	1.337991
O46	O	1.199248	-0.671545	0.445167
O47	O	1.532582	-0.338211	0.778501
O48	O	1.865915	-0.004878	1.111834
O49	O	1.091980	-0.670975	0.542100
O50	O	1.425314	-0.337642	0.875433
O51	O	1.758647	-0.004308	1.208767
C52	C	0.940174	-0.473407	0.473226
C53	C	1.273507	-0.140073	0.806560
C54	C	1.606841	0.193260	1.139893
C55	C	0.848006	-0.468486	0.468321
C56	C	1.181339	-0.135153	0.801655
C57	C	1.514673	0.198181	1.134988
C58	C	0.632811	-0.510476	0.510185
C59	C	0.966144	-0.177142	0.843518
C60	C	1.299477	0.156191	1.176852
C61	C	0.679259	-0.459510	0.459365
C62	C	1.012592	-0.126176	0.792698
C63	C	1.345926	0.207157	1.126032
C64	C	0.773158	-0.464506	0.464350
C65	C	1.106492	-0.131172	0.797683
C66	C	1.439825	0.202161	1.131016
C67	C	0.538902	-0.505481	0.505201
C68	C	0.872236	-0.172148	0.838535
C69	C	1.205569	0.161186	1.171868
C70	C	1.144013	-0.701503	0.495097
C71	C	1.477346	-0.368170	0.828430
C72	C	1.810680	-0.034836	1.161763
C73	C	1.139125	-0.794147	0.499559
C74	C	1.472458	-0.460814	0.832892
C75	C	1.805792	-0.127481	1.166226
C76	C	1.181163	-1.005308	0.461782
C77	C	1.514496	-0.671975	0.795115
C78	C	1.847830	-0.338641	1.128448
C79	C	1.130215	-0.963765	0.507716
C80	C	1.463549	-0.630432	0.841049
C81	C	1.796882	-0.297099	1.174383
C82	C	1.135174	-0.869381	0.503176
C83	C	1.468508	-0.536048	0.836509
C84	C	1.801841	-0.202714	1.169843
C85	C	1.176206	-1.099701	0.466320
C86	C	1.509539	-0.766367	0.799654
C87	C	1.842872	-0.433034	1.132987
C88	C	1.371893	-0.496555	0.496300
C89	C	1.705226	-0.163222	0.829633
C90	C	2.038559	0.170112	1.162967
C91	C	1.464058	-0.501497	0.501226
C92	C	1.797392	-0.168163	0.834559
C93	C	2.130725	0.165170	1.167893
C94	C	1.144113	-0.495345	0.702133
C95	C	1.477446	-0.162012	1.035466
C96	C	1.810780	0.171322	1.368800
C97	C	1.139212	-0.499771	0.794773
C98	C	1.472546	-0.166438	1.128106
C99	C	1.805879	0.166895	1.461440
C100	C	1.167279	-0.267569	0.474363
C101	C	1.500613	0.065764	0.807696
C102	C	1.833946	0.399097	1.141030
C103	C	1.172251	-0.174931	0.469941
C104	C	1.505584	0.158402	0.803274
C105	C	1.838918	0.491735	1.136608
C106	C	1.167119	-0.474554	0.268193
C107	C	1.500452	-0.141220	0.601526
C108	C	1.833785	0.192113	0.934860
C109	C	1.172192	-0.469901	0.175551
C110	C	1.505526	-0.136568	0.508884
C111	C	1.838859	0.196766	0.842218
C112	C	1.130236	-0.507833	0.964384
C113	C	1.463569	-0.174499	1.297718
C114	C	1.796903	0.158834	1.631051
C115	C	1.181166	-0.461842	1.005945
C116	C	1.514499	-0.128509	1.339278
C117	C	1.847833	0.204825	1.672612
C118	C	1.176172	-0.466327	1.100323
C119	C	1.509505	-0.132994	1.433656
C120	C	1.842838	0.200339	1.766989
C121	C	1.135229	-0.503348	0.869998
C122	C	1.468563	-0.170015	1.203332
C123	C	1.801896	0.163318	1.536665
H124	H	0.663564	-0.557858	0.557433
H125	H	0.996897	-0.224525	0.890766
H126	H	1.330231	0.108809	1.224099
F127	F	1.068334	-1.009928	0.563572
F128	F	1.401667	-0.676594	0.896906
F129	F	1.735000	-0.343261	1.230239
F130	F	1.068347	-0.563699	1.010520
F131	F	1.401680	-0.230366	1.343853
F132	F	1.735014	0.102968	1.677186
F133	F	1.243075	-0.405989	0.959811
F134	F	1.576408	-0.072656	1.293144
F135	F	1.909742	0.260677	1.626478
H136	H	1.228501	-0.969992	0.419049
H137	H	1.561835	-0.636659	0.752382
H138	H	1.895168	-0.303326	1.085715
H139	H	0.648504	-0.412124	0.412113
H140	H	0.981837	-0.078791	0.745446
H141	H	1.315170	0.254542	1.078780
