data_functionalizedCrystal
_audit_creation_method	'MofGen! by Chris Wilmer'
_symmetry_space_group_name_H-M	'P1'
_symmetry_Int_Tables_number	1
_symmetry_cell_setting	triclinic
loop_
_symmetry_equiv_pos_as_xyz
  x,y,z
_cell_length_a	6.817900
_cell_length_b	12.095930
_cell_length_c	19.551823
_cell_angle_alpha	84.683747
_cell_angle_beta	101.663376
_cell_angle_gamma	74.549720
loop_
_atom_site_label
_atom_site_type_symbol
_atom_site_fract_x
_atom_site_fract_y
_atom_site_fract_z
V1	V	-4.039738	0.358199	-0.096841
V2	V	-3.539738	0.858199	0.403159
O3	O	-4.036211	0.350829	0.004482
O4	O	-3.536211	0.850829	0.504482
O5	O	-3.982312	0.356280	-0.191856
O6	O	-3.482312	0.856280	0.308144
O7	O	-4.001037	0.514180	-0.095427
O8	O	-3.501037	1.014180	0.404573
O9	O	-4.017357	0.191836	-0.092614
O10	O	-3.517357	0.691836	0.407386
V11	V	-4.523279	0.338236	-0.084713
V12	V	-4.023279	0.838236	0.415287
O13	O	-4.300958	0.401989	-0.123446
O14	O	-3.800958	0.901989	0.376554
O15	O	-4.712257	0.294446	-0.058108
O16	O	-4.212257	0.794446	0.441892
O17	O	-4.357499	0.340155	0.010301
O18	O	-3.857499	0.840155	0.510301
O19	O	-4.644203	0.345607	-0.186037
O20	O	-4.144203	0.845607	0.313963
O21	O	-4.663058	0.504600	-0.088941
O22	O	-4.163058	1.004600	0.411059
O23	O	-4.338774	0.182255	-0.086128
O24	O	-3.838774	0.682255	0.413872
C25	C	-3.824803	0.350766	-0.215016
C26	C	-3.324803	0.850766	0.284984
C27	C	-3.859201	0.350237	-0.292692
C28	C	-3.359201	0.850237	0.207308
C29	C	-4.057484	0.355725	-0.332740
C30	C	-3.557484	0.855725	0.167260
C31	C	-4.089811	0.355239	-0.405726
C32	C	-3.589811	0.855239	0.094274
C33	C	-3.923833	0.349242	-0.438658
C34	C	-3.423833	0.849242	0.061342
C35	C	-3.725525	0.343760	-0.398601
C36	C	-3.225525	0.843760	0.101399
C37	C	-3.693209	0.344258	-0.325618
C38	C	-3.193209	0.844258	0.174382
C39	C	-3.806081	0.276501	-0.545112
C40	C	-3.306081	0.776501	-0.045112
C41	C	-3.838401	0.275997	-0.618094
C42	C	-3.338401	0.775997	-0.118094
C43	C	-4.023500	0.347713	-0.663764
C44	C	-3.523500	0.847713	-0.163764
C45	C	-4.176303	0.419920	-0.636442
C46	C	-3.676303	0.919920	-0.136442
C47	C	-4.143987	0.420417	-0.563459
C48	C	-3.643987	0.920417	-0.063459
C49	C	-3.958854	0.348703	-0.517796
C50	C	-3.458854	0.848703	-0.017796
C51	C	-4.256848	0.352676	-0.782952
C52	C	-3.756848	0.852676	-0.282952
C53	C	-4.289171	0.352198	-0.855940
C54	C	-3.789171	0.852198	-0.355940
C55	C	-3.924874	0.340707	-0.848813
C56	C	-3.424874	0.840707	-0.348813
C57	C	-3.892562	0.341198	-0.775827
C58	C	-3.392562	0.841198	-0.275827
C59	C	-4.058554	0.347177	-0.742901
C60	C	-3.558554	0.847177	-0.242901
C61	C	-4.154465	0.144248	-0.089546
C62	C	-3.654465	0.644248	0.410454
C63	C	-4.084122	0.016728	-0.090071
C64	C	-3.584122	0.516728	0.409929
C65	C	-3.955388	-0.216742	-0.091047
C66	C	-3.455388	0.283258	0.408953
C67	C	-4.027033	-0.086823	-0.090503
C68	C	-3.527033	0.413177	0.409497
C69	C	-3.848688	0.552182	-0.092010
C70	C	-3.348688	1.052182	0.407990
C71	C	-3.898269	0.679701	-0.091483
C72	C	-3.398269	1.179701	0.408517
C73	C	-4.178349	0.345666	0.033458
C74	C	-3.678349	0.845666	0.533458
C75	C	-4.123190	0.346203	0.111133
C76	C	-3.623190	0.846203	0.611133
H77	H	-3.531742	0.339790	-0.293011
H78	H	-3.031742	0.839790	0.206989
H79	H	-4.450643	0.356674	-0.888547
H80	H	-3.950643	0.856674	-0.388547
H81	H	-3.590388	0.338881	-0.425420
H82	H	-3.090388	0.838881	0.074580
H83	H	-4.392008	0.357543	-0.756142
H84	H	-3.892008	0.857543	-0.256142
F85	F	-3.609059	0.200171	-0.496513
F86	F	-3.109059	0.700171	0.003487
F87	F	-3.748229	0.334336	-0.883858
F88	F	-3.248229	0.834336	-0.383858
H89	H	-3.731097	0.336722	-0.743219
H90	H	-3.231097	0.836722	-0.243219
F91	F	-4.234145	0.362075	-0.297700
F92	F	-3.734145	0.862075	0.202300
H93	H	-4.251281	0.359708	-0.438339
H94	H	-3.751281	0.859708	0.061661
F95	F	-4.306600	0.497268	-0.534384
F96	F	-3.806600	0.997268	-0.034384
H97	H	-3.713985	0.217195	-0.640332
H98	H	-3.213985	0.717195	-0.140332
H99	H	-4.326857	0.478476	-0.673637
H100	H	-3.826857	0.978476	-0.173637
