data_functionalizedCrystal
_audit_creation_method	'MofGen! by Chris Wilmer'
_symmetry_space_group_name_H-M	'P1'
_symmetry_Int_Tables_number	1
_symmetry_cell_setting	triclinic
loop_
_symmetry_equiv_pos_as_xyz
  x,y,z
_cell_length_a	11.792254
_cell_length_b	16.992695
_cell_length_c	15.455313
_cell_angle_alpha	87.152573
_cell_angle_beta	87.300561
_cell_angle_gamma	92.566590
loop_
_atom_site_label
_atom_site_type_symbol
_atom_site_fract_x
_atom_site_fract_y
_atom_site_fract_z
O1	O	1.520363	-0.104150	-0.072127
O2	O	1.190930	-0.115220	-0.072130
O3	O	1.354326	0.004463	-0.072121
O4	O	1.356968	-0.223833	-0.072135
O5	O	1.344979	-0.002353	0.072140
O6	O	1.181584	-0.122035	0.072132
O7	O	1.511017	-0.110966	0.072135
Cu8	Cu	1.345447	-0.117123	0.085306
Cu9	Cu	1.356500	-0.109063	-0.085300
O10	O	1.347622	-0.230649	0.072127
C11	C	1.143909	-0.117930	0.000001
C12	C	1.017725	-0.115843	-0.000000
C13	C	1.558038	-0.108255	0.000002
C14	C	1.684222	-0.110342	-0.000002
C15	C	1.786698	-0.112038	-0.000004
C16	C	1.915258	-0.114159	-0.000002
C17	C	1.346255	0.030282	0.000009
C18	C	1.336117	0.117370	0.000009
C19	C	1.355693	-0.256468	-0.000006
C20	C	1.365831	-0.343555	-0.000011
N21	N	1.337681	-0.122792	0.205301
C22	C	1.433934	0.167191	0.000011
C23	C	1.424402	0.249019	0.000002
C24	C	1.317052	0.281024	-0.000001
C25	C	1.219227	0.231196	-0.000006
C26	C	1.228760	0.149370	-0.000004
C27	C	1.277540	0.524791	-0.000014
C28	C	1.268014	0.606624	-0.000013
C29	C	1.473190	0.624441	-0.000007
C30	C	1.482714	0.542613	0.000001
C31	C	1.384889	0.492792	-0.000008
N32	N	1.307306	0.364665	-0.000007
N33	N	1.394637	0.409153	-0.000009
N34	N	1.364274	-0.103388	-0.205296
C35	C	1.407125	-0.071965	0.250698
C36	C	1.401263	-0.076259	0.341506
C37	C	1.325962	-0.131384	0.386914
C38	C	1.256511	-0.182213	0.341510
C39	C	1.262368	-0.177915	0.250704
C40	C	1.300680	-0.149918	0.658494
C41	C	1.294831	-0.154214	0.749307
C42	C	1.439582	-0.048259	0.749296
C43	C	1.445437	-0.043968	0.658489
C44	C	1.375981	-0.094794	0.613092
N45	N	1.319971	-0.135777	0.479734
N46	N	1.381967	-0.090397	0.520274
H47	H	1.504056	0.289581	0.000006
H48	H	1.180590	0.632677	-0.000002
H49	H	1.244129	-0.191304	0.621540
O50	O	1.195034	-0.227400	0.206641
C51	C	1.219075	-0.306188	0.228826
H52	H	1.308403	-0.308181	0.253772
H53	H	1.213433	-0.342666	0.169102
H54	H	1.154831	-0.331428	0.281540
O55	O	1.183300	-0.235658	0.385715
C56	C	1.106045	-0.195805	0.438247
H57	H	1.144828	-0.135281	0.451853
H58	H	1.086936	-0.231484	0.502099
H59	H	1.023903	-0.188427	0.403269
O60	O	1.538306	0.136238	-0.000026
C61	C	1.622595	0.197762	-0.000008
H62	H	1.587490	0.254766	-0.027318
H63	H	1.699809	0.182330	-0.041893
H64	H	1.648645	0.205939	0.069201
H65	H	1.197884	0.484237	-0.000021
O66	O	1.221510	-0.207678	0.793383
C67	C	1.109394	-0.193351	0.771207
H68	H	1.104769	-0.129366	0.746249
H69	H	1.049385	-0.204920	0.830939
H70	H	1.083366	-0.234181	0.718504
H71	H	1.570130	0.516561	0.000004
O72	O	1.115016	0.262382	-0.000126
C73	C	1.108195	0.312692	-0.074850
H74	H	1.197450	0.333862	-0.099758
H75	H	1.056987	0.365668	-0.058047
H76	H	1.064633	0.279229	-0.127169
O77	O	1.568098	0.672951	-0.000044
C78	C	1.536670	0.752035	-0.000025
H79	H	1.448972	0.756843	-0.027336
H80	H	1.601277	0.790799	-0.041910
H81	H	1.534347	0.772414	0.069183
O82	O	1.133623	0.101081	0.000033
C83	C	1.036828	0.146874	0.000007
H84	H	1.058334	0.206525	0.027322
H85	H	0.965118	0.115021	0.041885
H86	H	1.008762	0.156105	-0.069204
O87	O	1.480301	-0.018347	0.206727
C88	C	1.540354	0.025580	0.266273
H89	H	1.489547	0.023619	0.331010
H90	H	1.553690	0.089385	0.240048
H91	H	1.626384	-0.000741	0.275913
H92	H	1.506753	0.000919	0.621519
O93	O	1.468563	-0.026811	0.385639
C94	C	1.399998	0.019376	0.438199
H95	H	1.312099	0.022420	0.410854
H96	H	1.440615	0.081456	0.439226
H97	H	1.391836	-0.008397	0.507018
O98	O	1.506982	0.001229	0.793302
C99	C	1.482887	0.080013	0.771144
H100	H	1.443387	0.083237	0.705218
H101	H	1.564925	0.118397	0.768033
H102	H	1.420867	0.102112	0.822262
