data_functionalizedCrystal
_audit_creation_method	'MofGen! by Chris Wilmer'
_symmetry_space_group_name_H-M	'P1'
_symmetry_Int_Tables_number	1
_symmetry_cell_setting	triclinic
loop_
_symmetry_equiv_pos_as_xyz
  x,y,z
_cell_length_a	19.188930
_cell_length_b	26.210047
_cell_length_c	19.188928
_cell_angle_alpha	89.997095
_cell_angle_beta	96.855705
_cell_angle_gamma	90.022886
loop_
_atom_site_label
_atom_site_type_symbol
_atom_site_fract_x
_atom_site_fract_y
_atom_site_fract_z
O1	O	0.926150	0.042601	-0.087158
O2	O	1.426150	0.542601	0.412842
O3	O	0.722838	0.042567	-0.098892
O4	O	1.222838	0.542567	0.401108
O5	O	0.830362	0.042572	0.008631
O6	O	1.330362	0.542572	0.508631
O7	O	0.818626	0.042596	-0.194681
O8	O	1.318626	0.542596	0.305319
O9	O	0.830341	-0.042286	0.008614
O10	O	1.330341	0.457714	0.508614
O11	O	0.722818	-0.042291	-0.098909
O12	O	1.222818	0.457709	0.401091
O13	O	0.926129	-0.042257	-0.087174
O14	O	1.426129	0.457743	0.412826
Cu15	Cu	0.824472	-0.050022	-0.093043
Cu16	Cu	1.324472	0.449978	0.406957
Cu17	Cu	0.824496	0.050333	-0.093023
Cu18	Cu	1.324496	0.550333	0.406977
O19	O	0.818605	-0.042262	-0.194697
O20	O	1.318605	0.457738	0.305303
C21	C	0.696817	0.000134	-0.098520
C22	C	1.196817	0.500134	0.401480
C23	C	0.619313	0.000120	-0.097380
C24	C	1.119313	0.500120	0.402620
C25	C	0.574388	0.000136	-0.160471
C26	C	1.074388	0.500136	0.339529
C27	C	0.501564	0.000141	-0.159399
C28	C	1.001564	0.500141	0.340601
C29	C	0.473668	0.000141	-0.095233
C30	C	0.973668	0.500141	0.404767
C31	C	0.518603	0.000123	-0.032133
C32	C	1.018603	0.500123	0.467867
C33	C	0.591425	0.000113	-0.033207
C34	C	1.091425	0.500113	0.466793
N35	N	0.365696	0.029037	-0.046180
N36	N	0.865696	0.529037	0.453820
N37	N	0.296517	0.029048	-0.045165
N38	N	0.796517	0.529048	0.454835
C39	C	0.254260	0.000172	-0.091995
C40	C	0.754260	0.500172	0.408005
N41	N	0.283793	-0.028709	-0.139889
N42	N	0.783793	0.471291	0.360111
N43	N	0.352978	-0.028718	-0.140907
N44	N	0.852978	0.471282	0.359093
C45	C	0.394706	0.000153	-0.094062
C46	C	0.894706	0.500153	0.405938
C47	C	0.130371	0.000193	-0.153928
C48	C	0.630371	0.500193	0.346072
C49	C	0.057546	0.000195	-0.152853
C50	C	0.557546	0.500195	0.347147
C51	C	0.074586	0.000182	-0.025586
C52	C	0.574586	0.500182	0.474414
C53	C	0.147409	0.000175	-0.026662
C54	C	0.647409	0.500175	0.473338
C55	C	0.175297	0.000183	-0.090835
C56	C	0.675297	0.500183	0.409165
N57	N	0.824459	-0.120606	-0.093057
N58	N	1.324459	0.379394	0.406943
C59	C	0.872103	-0.473118	-0.045423
C60	C	1.372103	0.026882	0.454577
C61	C	0.872118	-0.686776	-0.045413
C62	C	1.372118	-0.186776	0.454587
O63	O	0.912599	-0.714396	-0.004916
O64	O	1.412599	-0.214396	0.495084
N65	N	0.824500	-0.713500	-0.093008
N66	N	1.324500	-0.213500	0.406992
C67	C	0.776871	-0.686805	-0.140605
C68	C	1.276871	-0.186805	0.359395
O69	O	0.736365	-0.714438	-0.181083
O70	O	1.236365	-0.214438	0.318917
C71	C	0.776853	-0.473148	-0.140611
C72	C	1.276853	0.026852	0.359389
C73	C	0.824479	-0.446427	-0.093018
C74	C	1.324479	0.053573	0.406982
C75	C	0.919724	-0.446397	0.002167
C76	C	1.419724	0.053603	0.502167
C77	C	0.919723	-0.392985	0.002162
C78	C	1.419723	0.107015	0.502162
C79	C	0.872099	-0.366295	-0.045434
C80	C	1.372099	0.133705	0.454566
C81	C	0.824477	-0.393016	-0.093024
C82	C	1.324477	0.106984	0.406976
C83	C	0.729222	-0.446454	-0.188205
C84	C	1.229222	0.053546	0.311795
C85	C	0.729220	-0.393037	-0.188201
C86	C	1.229220	0.106963	0.311799
C87	C	0.776846	-0.366316	-0.140608
C88	C	1.276846	0.133684	0.359392
C89	C	0.776852	-0.312913	-0.140624
C90	C	1.276852	0.187087	0.359376
N91	N	0.824470	-0.286190	-0.093030
N92	N	1.324470	0.213810	0.406970
C93	C	0.872094	-0.312881	-0.045434
C94	C	1.372094	0.187119	0.454566
C95	C	0.776885	-0.798979	-0.140600
C96	C	1.276885	-0.298979	0.359400
C97	C	0.776890	-0.852393	-0.140599
C98	C	1.276890	-0.352393	0.359401
C99	C	0.872136	-0.852360	-0.045406
C100	C	1.372136	-0.352360	0.454594
C101	C	0.872134	-0.798945	-0.045410
C102	C	1.372134	-0.298945	0.454590
C103	C	0.824503	-0.772255	-0.093005
C104	C	1.324503	-0.272255	0.406995
C105	C	0.872087	-0.200713	-0.045450
C106	C	1.372087	0.299287	0.454550
C107	C	0.872083	-0.147297	-0.045461
C108	C	1.372083	0.352703	0.454539
C109	C	0.776835	-0.147334	-0.140652
C110	C	1.276835	0.352666	0.359348
C111	C	0.776841	-0.200746	-0.140643
C112	C	1.276841	0.299254	0.359357
C113	C	0.824470	-0.227434	-0.093036
C114	C	1.324470	0.272566	0.406964
O115	O	0.736387	-0.285261	-0.181095
O116	O	1.236387	0.214739	0.318905
O117	O	0.912584	-0.285239	-0.004953
O118	O	1.412584	0.214761	0.495047
C119	C	0.872104	-0.526529	-0.045417
C120	C	1.372104	-0.026529	0.454583
C121	C	0.824483	-0.553250	-0.093007
C122	C	1.324483	-0.053250	0.406993
C123	C	0.776859	-0.526559	-0.140602
C124	C	1.276859	-0.026559	0.359398
C125	C	0.824488	-0.606664	-0.093007
C126	C	1.324488	-0.106664	0.406993
C127	C	0.872111	-0.633355	-0.045411
C128	C	1.372111	-0.133355	0.454589
C129	C	0.919730	-0.606631	0.002183
C130	C	1.419730	-0.106631	0.502183
C131	C	0.919728	-0.553220	0.002178
C132	C	1.419728	-0.053220	0.502178
C133	C	0.729241	-0.553283	-0.188197
C134	C	1.229241	-0.053283	0.311803
C135	C	0.729247	-0.606694	-0.188188
C136	C	1.229247	-0.106694	0.311812
C137	C	0.776871	-0.633385	-0.140593
C138	C	1.276871	-0.133385	0.359407
C139	C	0.952150	0.000178	-0.087546
C140	C	1.452150	0.500178	0.412454
C141	C	1.029655	0.000195	-0.088687
C142	C	1.529655	0.500195	0.411313
C143	C	0.829972	0.000141	0.034634
C144	C	1.329972	0.500141	0.534634
C145	C	0.828832	0.000134	0.112138
C146	C	1.328832	0.500134	0.612138
N147	N	0.824514	0.120916	-0.093004
N148	N	1.324514	0.620916	0.406996
C149	C	0.891923	0.000141	0.157062
C150	C	1.391923	0.500141	0.657062
C151	C	0.890852	0.000147	0.229886
C152	C	1.390852	0.500147	0.729886
C153	C	0.826686	0.000136	0.257783
C154	C	1.326686	0.500136	0.757783
C155	C	0.763587	0.000132	0.212849
C156	C	1.263587	0.500132	0.712849
C157	C	0.764660	0.000131	0.140027
C158	C	1.264660	0.500131	0.640027
N159	N	0.777633	-0.028754	0.365782
N160	N	1.277633	0.471246	0.865782
N161	N	0.776618	-0.028755	0.434961
N162	N	1.276618	0.471245	0.934961
C163	C	0.823450	0.000139	0.477192
C164	C	1.323450	0.500139	0.977192
N165	N	0.871346	0.029027	0.447632
N166	N	1.371346	0.529027	0.947632
N167	N	0.872363	0.029025	0.378447
N168	N	1.372363	0.529025	0.878447
C169	C	0.825516	0.000137	0.336745
C170	C	1.325516	0.500137	0.836745
C171	C	0.885384	0.000153	0.601080
C172	C	1.385384	0.500153	1.101080
C173	C	0.884311	0.000162	0.673905
C174	C	1.384311	0.500162	1.173905
C175	C	0.757043	0.000142	0.656866
C176	C	1.257043	0.500142	1.156866
C177	C	0.758119	0.000138	0.584043
C178	C	1.258119	0.500138	1.084043
C179	C	0.822291	0.000141	0.556155
C180	C	1.322291	0.500141	1.056155
C181	C	0.818998	0.000163	0.779300
C182	C	1.318998	0.500163	1.279300
C183	C	0.820144	0.000152	0.701797
C184	C	1.320144	0.500152	1.201797
H185	H	0.051874	0.000214	0.026659
H186	H	0.551874	0.500214	0.526659
H187	H	0.944177	0.000145	0.134361
H188	H	1.444177	0.500145	0.634361
H189	H	0.183988	0.000165	0.024713
H190	H	0.683988	0.500165	0.524713
H191	H	0.910868	-0.125542	-0.006705
H192	H	1.410868	0.374458	0.493295
H193	H	0.910870	-0.222436	-0.006683
H194	H	1.410870	0.277564	0.493317
H195	H	0.738062	-0.125594	-0.179406
H196	H	1.238062	0.374406	0.320594
H197	H	0.690459	-0.531555	-0.226954
H198	H	1.190459	-0.031555	0.273046
H199	H	0.704798	0.000135	0.679579
H200	H	1.204798	0.500135	1.179579
Br201	Br	0.976482	0.000159	0.290866
Br202	Br	1.476482	0.500159	0.790866
Br203	Br	0.984357	-0.356728	0.066758
Br204	Br	1.484357	0.143272	0.566758
Br205	Br	0.972473	0.000152	0.563227
Br206	Br	1.472473	0.500152	1.063227
H207	H	0.711342	0.000124	0.235567
H208	H	1.211342	0.500124	0.735567
H209	H	0.935689	0.000171	0.710482
H210	H	1.435689	0.500171	1.210482
Br211	Br	0.672490	0.000128	0.523070
Br212	Br	1.172490	0.500128	1.023070
H213	H	0.464980	0.000152	-0.210777
H214	H	0.964980	0.500152	0.289223
Br215	Br	0.679029	0.000123	0.079054
Br216	Br	1.179029	0.500123	0.579054
Br217	Br	0.480746	0.000118	0.054950
Br218	Br	0.980746	0.500118	0.554950
Br219	Br	0.936772	-0.762687	0.019183
Br220	Br	1.436772	-0.262687	0.519183
Br221	Br	0.168223	0.000200	-0.241017
Br222	Br	0.668223	0.500200	0.258983
Br223	Br	0.612233	0.000145	-0.247561
Br224	Br	1.112233	0.500145	0.252439
H225	H	0.020968	0.000205	-0.204232
H226	H	0.520968	0.500205	0.295768
Br227	Br	0.984364	-0.482611	0.066770
Br228	Br	1.484364	0.017389	0.566770
H229	H	0.910914	-0.874101	-0.006653
H230	H	1.410914	-0.374101	0.493347
H231	H	0.628003	0.000100	0.018171
H232	H	1.128003	0.500100	0.518171
Br233	Br	0.712264	-0.888651	-0.205204
Br234	Br	1.212264	-0.388651	0.294796
Br235	Br	0.712239	-0.762763	-0.205199
Br236	Br	1.212239	-0.262763	0.294801
H237	H	0.690440	-0.468203	-0.226959
H238	H	1.190440	0.031797	0.273041
H239	H	0.690431	-0.371308	-0.226958
H240	H	1.190431	0.128692	0.273042
H241	H	0.738066	-0.222502	-0.179404
H242	H	1.238066	0.277498	0.320596
H243	H	0.958509	-0.531468	0.040933
H244	H	1.458509	-0.031468	0.540933
H245	H	0.958509	-0.628372	0.040935
H246	H	1.458509	-0.128372	0.540935
H247	H	0.690466	-0.628447	-0.226951
H248	H	1.190466	-0.128447	0.273049
