data_functionalizedCrystal
_audit_creation_method	'MofGen! by Chris Wilmer'
_symmetry_space_group_name_H-M	'P1'
_symmetry_Int_Tables_number	1
_symmetry_cell_setting	triclinic
loop_
_symmetry_equiv_pos_as_xyz
  x,y,z
_cell_length_a	15.944493
_cell_length_b	23.532357
_cell_length_c	14.421503
_cell_angle_alpha	89.998741
_cell_angle_beta	89.992936
_cell_angle_gamma	83.151668
loop_
_atom_site_label
_atom_site_type_symbol
_atom_site_fract_x
_atom_site_fract_y
_atom_site_fract_z
O1	O	1.113923	0.073287	-0.077111
O2	O	1.613923	0.573287	0.422889
O3	O	0.869287	0.082377	-0.077117
O4	O	1.369287	0.582377	0.422883
O5	O	0.999004	-0.005074	-0.077095
O6	O	1.499004	0.494926	0.422905
O7	O	0.984206	0.160738	-0.077133
O8	O	1.484206	0.660738	0.422867
O9	O	0.998982	-0.005061	0.077129
O10	O	1.498982	0.494939	0.577129
O11	O	0.869266	0.082390	0.077107
O12	O	1.369266	0.582390	0.577107
O13	O	1.113901	0.073300	0.077113
O14	O	1.613901	0.573300	0.577113
Cu15	Cu	0.991582	0.077846	0.091191
Cu16	Cu	1.491582	0.577846	0.591191
Cu17	Cu	0.991607	0.077830	-0.091196
Cu18	Cu	1.491607	0.577830	0.408804
O19	O	0.984185	0.160751	0.077090
O20	O	1.484185	0.660751	0.577090
C21	C	0.837985	0.082012	-0.000006
C22	C	1.337985	0.582012	0.499994
C23	C	0.744746	0.080898	-0.000007
C24	C	1.244746	0.580898	0.499993
C25	C	0.508539	0.132374	-0.000020
C26	C	1.008539	0.632374	0.499980
C27	C	0.458211	0.104621	0.076031
C28	C	0.958211	0.604621	0.576031
C29	C	0.574043	0.078834	-0.000005
C30	C	1.074043	0.578834	0.499995
C31	C	0.458237	0.104596	-0.076021
C32	C	0.958237	0.604596	0.423979
C33	C	0.409151	0.076844	-0.000007
C34	C	0.909151	0.576844	0.499993
C35	C	0.524943	0.051096	0.076109
C36	C	1.024943	0.551096	0.576109
C37	C	0.524973	0.051078	-0.076012
C38	C	1.024973	0.551078	0.423988
C39	C	0.474678	0.023287	0.000057
C40	C	0.974678	0.523287	0.500057
C41	C	0.669033	0.079982	-0.000003
C42	C	1.169033	0.579982	0.499997
C43	C	0.314164	0.075692	-0.000002
C44	C	0.814164	0.575692	0.499998
C45	C	0.998623	-0.026286	0.000020
C46	C	1.498623	0.473714	0.500020
C47	C	0.997510	-0.089509	0.000029
C48	C	1.497510	0.410491	0.500029
C49	C	0.990536	-0.481553	-0.084089
C50	C	1.490536	0.018447	0.415911
C51	C	0.989478	-0.540956	-0.084094
C52	C	1.489478	-0.040956	0.415906
O53	O	0.988912	-0.571681	-0.155590
O54	O	1.488912	-0.071681	0.344410
N55	N	0.988941	-0.570663	-0.000028
N56	N	1.488941	-0.070663	0.499972
C57	C	0.989455	-0.540961	0.084049
C58	C	1.489455	-0.040961	0.584049
O59	O	0.988900	-0.571683	0.155553
O60	O	1.488900	-0.071683	0.655553
C61	C	0.990506	-0.481558	0.084053
C62	C	1.490506	0.018442	0.584053
C63	C	0.991051	-0.451856	-0.000018
C64	C	1.491051	0.048144	0.499982
C65	C	0.991080	-0.451851	-0.168153
C66	C	1.491080	0.048149	0.331847
C67	C	0.992139	-0.392452	-0.168148
C68	C	1.492139	0.107548	0.331852
C69	C	0.992654	-0.362755	-0.084077
C70	C	1.492654	0.137245	0.415923
C71	C	0.992111	-0.392457	-0.000013
C72	C	1.492111	0.107543	0.499987
C73	C	0.991013	-0.451858	0.168129
C74	C	1.491013	0.048142	0.668129
C75	C	0.992065	-0.392451	0.168126
C76	C	1.492065	0.107549	0.668126
C77	C	0.992609	-0.362749	0.084055
C78	C	1.492609	0.137251	0.584055
C79	C	0.993685	-0.303361	0.084063
C80	C	1.493685	0.196639	0.584063
N81	N	0.994222	-0.273655	-0.000003
N82	N	1.494222	0.226345	0.499997
C83	C	0.993706	-0.303352	-0.084073
C84	C	1.493706	0.196648	0.415927
C85	C	0.987244	-0.665711	0.084033
C86	C	1.487244	-0.165711	0.584033
C87	C	0.986198	-0.725113	0.084030
C88	C	1.486198	-0.225113	0.584030
C89	C	0.986220	-0.725104	-0.084113
C90	C	1.486220	-0.225104	0.415887
C91	C	0.987272	-0.665701	-0.084109
C92	C	1.487272	-0.165701	0.415891
C93	C	0.987780	-0.636005	-0.000033
C94	C	1.487780	-0.136005	0.499967
C95	C	0.995932	-0.178609	-0.084055
C96	C	1.495932	0.321391	0.415945
C97	C	0.996995	-0.119205	-0.084042
C98	C	1.496995	0.380795	0.415958
C99	C	0.996968	-0.119219	0.084101
C100	C	1.496968	0.380781	0.584101
C101	C	0.995910	-0.178619	0.084088
C102	C	1.495910	0.321381	0.584088
C103	C	0.995389	-0.208312	0.000003
C104	C	1.495389	0.291688	0.500003
O105	O	0.994248	-0.272599	0.155523
O106	O	1.494248	0.227401	0.655523
O107	O	0.994249	-0.272622	-0.155565
O108	O	1.494249	0.227378	0.344435
C109	C	1.145204	0.073665	-0.000001
C110	C	1.645204	0.573665	0.499999
C111	C	1.238442	0.074778	-0.000005
C112	C	1.738442	0.574778	0.499995
C113	C	0.984566	0.181962	-0.000026
C114	C	1.484566	0.681962	0.499974
C115	C	0.985678	0.245185	-0.000041
C116	C	1.485678	0.745185	0.499959
N117	N	0.991570	0.077856	0.219473
N118	N	1.491570	0.577856	0.719473
N119	N	0.991625	0.077816	-0.219477
N120	N	1.491625	0.577816	0.280523
C121	C	0.931579	0.118276	0.469116
C122	C	1.431579	0.618276	0.969116
C123	C	1.007385	0.129322	0.530917
C124	C	1.507385	0.629322	1.030917
C125	C	0.991590	0.077843	0.408634
C126	C	1.491590	0.577843	0.908634
C127	C	0.915804	0.066810	0.530927
C128	C	1.415804	0.566810	1.030927
C129	C	0.991603	0.077831	0.591355
C130	C	1.491603	0.577831	1.091355
C131	C	1.067435	0.088914	0.469075
C132	C	1.567435	0.588914	0.969075
C133	C	0.975804	0.026380	0.469078
C134	C	1.475804	0.526380	0.969078
C135	C	1.051665	0.037405	0.530852
C136	C	1.551665	0.537405	1.030852
C137	C	0.991582	0.077851	0.303373
C138	C	1.491582	0.577851	0.803373
C139	C	0.991621	0.077822	0.696614
C140	C	1.491621	0.577822	1.196614
H141	H	0.997440	-0.095025	-0.152506
H142	H	1.497440	0.404975	0.347494
H143	H	0.429068	0.127237	0.140314
H144	H	0.929068	0.627237	0.640314
H145	H	1.102476	0.003205	0.557788
H146	H	1.602476	0.503205	1.057788
H147	H	1.020749	0.172837	0.558080
H148	H	1.520749	0.672837	1.058080
H149	H	0.851707	0.057484	0.558098
H150	H	1.351707	0.557484	1.058098
H151	H	0.990657	-0.476023	-0.236617
H152	H	1.490657	0.023977	0.263383
O153	O	0.995450	-0.207362	-0.165817
O154	O	1.495450	0.292638	0.334183
C155	C	0.996128	-0.168396	-0.240003
C156	C	1.496128	0.331604	0.259997
H157	H	1.023489	-0.128422	-0.215347
H158	H	1.523489	0.371578	0.284653
H159	H	1.036601	-0.189177	-0.298816
H160	H	1.536601	0.310823	0.201184
H161	H	0.928842	-0.156080	-0.265837
H162	H	1.428842	0.343920	0.234163
H163	H	0.962415	-0.017121	0.441894
H164	H	1.462415	0.482879	0.941894
H165	H	1.131545	0.098293	0.442020
H166	H	1.631545	0.598293	0.942020
H167	H	0.523762	0.178492	0.000041
H168	H	1.023762	0.678492	0.500041
H169	H	0.990571	-0.476031	0.236589
H170	H	1.490571	0.023969	0.736589
H171	H	0.553959	0.028504	0.140467
H172	H	1.053959	0.528504	0.640467
H173	H	0.459613	-0.022867	0.000112
H174	H	0.959613	0.477133	0.500112
O175	O	0.559854	0.024201	-0.152725
O176	O	1.059854	0.524201	0.347275
C177	C	0.601936	0.062853	-0.204846
C178	C	1.101936	0.562853	0.295154
H179	H	0.619214	0.098571	-0.157721
H180	H	1.119214	0.598571	0.342279
H181	H	0.661875	0.039271	-0.236232
H182	H	1.161875	0.539271	0.263768
H183	H	0.558749	0.081971	-0.262732
H184	H	1.058749	0.581971	0.237268
O185	O	0.423588	0.131649	-0.152699
O186	O	0.923588	0.631649	0.347301
C187	C	0.440449	0.189118	-0.152412
C188	C	0.940449	0.689118	0.347588
H189	H	0.498479	0.193263	-0.107889
H190	H	0.998479	0.693263	0.392111
H191	H	0.452716	0.203120	-0.226366
H192	H	0.952716	0.703120	0.273634
H193	H	0.383788	0.217440	-0.122752
H194	H	0.883788	0.717440	0.377248
H195	H	0.992579	-0.368273	-0.236608
H196	H	1.492579	0.131727	0.263392
O197	O	0.987756	-0.636935	-0.165858
O198	O	1.487756	-0.136935	0.334142
C199	C	0.987100	-0.675894	-0.240055
C200	C	1.487100	-0.175894	0.259945
H201	H	0.959753	-0.715877	-0.215405
H202	H	1.459753	-0.215877	0.284595
H203	H	0.946625	-0.655113	-0.298857
H204	H	1.446625	-0.155113	0.201143
H205	H	1.054390	-0.688196	-0.265901
H206	H	1.554390	-0.188196	0.234099
O207	O	0.997313	-0.090322	0.165735
O208	O	1.497313	0.409678	0.665735
C209	C	0.925172	-0.049491	0.170725
C210	C	1.425172	0.450509	0.670725
H211	H	0.874016	-0.062886	0.123012
H212	H	1.374016	0.437114	0.623012
H213	H	0.900738	-0.046637	0.245074
H214	H	1.400738	0.453363	0.745074
H215	H	0.942424	-0.005935	0.148125
H216	H	1.442424	0.494065	0.648125
H217	H	0.985768	-0.749293	0.152489
H218	H	1.485768	-0.249293	0.652489
O219	O	0.985563	-0.753969	-0.165759
O220	O	1.485563	-0.253969	0.334241
C221	C	0.912204	-0.781878	-0.170774
C222	C	1.412204	-0.281878	0.329226
H223	H	0.861664	-0.759457	-0.123067
H224	H	1.361664	-0.259457	0.376933
H225	H	0.887776	-0.780385	-0.245129
H226	H	1.387776	-0.280385	0.254871
H227	H	0.927850	-0.828358	-0.148183
H228	H	1.427850	-0.328358	0.351817
O229	O	0.987783	-0.636958	0.165794
O230	O	1.487783	-0.136958	0.665794
C231	C	0.987062	-0.675919	0.239983
C232	C	1.487062	-0.175919	0.739983
H233	H	1.012912	-0.720622	0.215324
H234	H	1.512912	-0.220622	0.715324
H235	H	1.028144	-0.662385	0.298788
H236	H	1.528144	-0.162385	0.798788
H237	H	0.919548	-0.676256	0.265828
H238	H	1.419548	-0.176256	0.765828
H239	H	0.992466	-0.368274	0.236593
H240	H	1.492466	0.131726	0.736593
H241	H	0.995474	-0.202804	0.152546
H242	H	1.495474	0.297196	0.652546
H243	H	0.880880	0.152496	0.442010
H244	H	1.380880	0.652496	0.942010
