data_functionalizedCrystal
_audit_creation_method	'MofGen! by Chris Wilmer'
_symmetry_space_group_name_H-M	'P1'
_symmetry_Int_Tables_number	1
_symmetry_cell_setting	triclinic
loop_
_symmetry_equiv_pos_as_xyz
  x,y,z
_cell_length_a	19.077105
_cell_length_b	16.959454
_cell_length_c	19.077174
_cell_angle_alpha	92.276377
_cell_angle_beta	85.483752
_cell_angle_gamma	87.716588
loop_
_atom_site_label
_atom_site_type_symbol
_atom_site_fract_x
_atom_site_fract_y
_atom_site_fract_z
Zn1	Zn	1.093734	-0.384059	-0.441867
Zn2	Zn	1.088928	-0.510707	-0.323986
Zn3	Zn	0.971118	-0.373009	-0.319263
Zn4	Zn	0.975822	-0.510655	-0.437104
O5	O	1.032400	-0.444608	-0.380555
O6	O	1.191747	-0.405505	-0.430199
O7	O	1.069320	-0.487839	-0.224710
O8	O	0.987426	-0.263867	-0.335543
O9	O	1.188216	-0.498553	-0.343593
O10	O	1.077511	-0.271985	-0.425619
O11	O	0.982766	-0.386673	-0.221240
O12	O	0.873091	-0.386623	-0.330926
O13	O	0.995443	-0.498465	-0.536386
O14	O	0.876547	-0.487751	-0.417503
O15	O	1.082072	-0.405455	-0.539885
O16	O	1.073881	-0.621309	-0.338975
O17	O	0.990783	-0.621271	-0.422082
C18	C	0.849240	-0.435983	-0.373185
C19	C	0.770884	-0.432312	-0.370049
C20	C	1.032341	-0.649971	-0.380541
C21	C	1.032381	-0.737830	-0.380561
C22	C	0.735888	-0.483313	-0.413581
C23	C	0.662264	-0.479854	-0.410638
C24	C	0.623638	-0.425398	-0.364158
C25	C	0.658640	-0.374392	-0.320625
C26	C	0.732263	-0.377848	-0.323572
C27	C	0.403256	-0.409407	-0.350521
C28	C	0.329629	-0.405957	-0.347575
C29	C	0.333258	-0.511418	-0.437590
C30	C	0.406881	-0.514872	-0.440530
C31	C	0.441877	-0.463863	-0.396999
N32	N	0.548383	-0.421864	-0.361147
N33	N	0.517131	-0.467395	-0.400014
C34	C	0.989196	-1.109319	-0.423827
C35	C	1.075804	-1.109306	-0.337363
C36	C	1.075779	-1.026758	-0.337356
C37	C	1.032461	-0.985487	-0.380584
C38	C	0.989168	-1.026764	-0.423819
C39	C	1.119066	-0.985475	-0.294116
C40	C	1.119042	-0.902923	-0.294106
C41	C	1.075727	-0.861651	-0.337338
C42	C	1.032433	-0.902932	-0.380576
C43	C	0.989116	-0.861662	-0.423804
C44	C	0.945825	-0.902942	-0.467046
C45	C	0.945854	-0.985492	-0.467051
C46	C	1.075698	-0.779101	-0.337333
C47	C	0.989088	-0.779106	-0.423796
C48	C	1.216275	-0.453267	-0.387954
C49	C	1.294632	-0.456957	-0.391107
C50	C	1.039818	-0.453186	-0.564429
C51	C	1.042979	-0.456842	-0.642786
C52	C	1.032480	-0.238444	-0.380586
C53	C	1.032514	-0.150590	-0.380599
C54	C	0.999402	-0.405889	-0.677791
C55	C	1.002370	-0.409330	-0.751415
C56	C	1.048919	-0.463722	-0.790032
C57	C	1.092497	-0.514680	-0.755023
C58	C	1.089526	-0.511242	-0.681400
C59	C	1.062635	-0.479656	-1.010415
C60	C	1.065604	-0.483088	-1.084043
C61	C	0.975475	-0.377739	-1.080429
C62	C	0.972511	-0.374303	-1.006806
C63	C	1.016087	-0.425264	-0.971802
N64	N	1.051954	-0.467239	-0.865288
N65	N	1.013047	-0.421750	-0.896548
C66	C	1.025052	-0.436007	-0.197398
C67	C	1.022027	-0.432135	-0.119047
H68	H	0.767331	-0.527660	-0.451427
C69	C	0.901242	-0.386576	-0.591180
C70	C	0.948234	-0.346101	-0.635342
H71	H	0.869655	-0.349664	-0.564973
H72	H	0.875425	-0.421078	-0.618811
H73	H	0.926780	-0.416426	-0.559798
H74	H	0.922697	-0.316256	-0.666728
H75	H	0.974054	-0.311585	-0.607709
C76	C	1.078685	-0.593739	-1.167214
C77	C	1.116768	-0.542890	-1.126491
H78	H	1.110270	-0.630653	-1.193421
H79	H	1.046801	-0.621177	-1.137251
H80	H	1.053165	-0.563871	-1.198597
H81	H	1.142284	-0.572757	-1.095104
H82	H	1.148664	-0.515450	-1.156456
H83	H	0.953816	-0.745509	-0.459001
C84	C	0.940004	-0.336236	-1.191683
C85	C	0.927571	-0.321733	-1.118907
H86	H	0.910422	-0.301662	-1.215435
H87	H	0.987854	-0.327456	-1.205654
H88	H	0.930154	-0.389424	-1.203316
H89	H	0.937426	-0.268546	-1.107273
H90	H	0.879710	-0.330506	-1.104931
C91	C	1.152036	-0.584115	-1.021392
C92	C	1.110546	-0.535659	-0.971946
H93	H	1.181620	-0.618684	-0.997639
H94	H	1.122470	-0.614248	-1.048862
H95	H	1.180164	-0.552274	-1.051202
H96	H	1.082413	-0.567500	-0.942139
H97	H	1.140115	-0.505523	-0.944463
H98	H	0.966882	-0.367842	-0.779912
H99	H	1.130395	-0.558971	-0.786471
C100	C	0.907432	-1.112039	-0.505442
C101	C	0.898264	-1.030868	-0.514572
H102	H	0.878046	-1.140052	-0.534774
H103	H	0.955205	-1.128234	-0.517709
H104	H	0.895249	-1.122881	-0.457651
H105	H	0.910452	-1.020025	-0.562362
H106	H	0.850480	-1.014668	-0.502309
C107	C	0.811223	-0.366166	-0.232081
C108	C	0.770738	-0.321791	-0.275720
H109	H	0.834979	-0.331555	-0.202544
H110	H	0.781398	-0.397939	-0.203913
H111	H	0.844757	-0.399091	-0.260194
H112	H	0.737200	-0.288870	-0.247607
H113	H	0.800566	-0.290004	-0.303892
H114	H	0.627186	-0.330050	-0.282783
H115	H	0.298182	-0.361603	-0.309731
C116	C	1.122895	-0.645641	-0.660092
C117	C	1.137426	-0.567252	-0.642919
H118	H	1.152469	-0.680221	-0.636339
H119	H	1.075042	-0.654405	-0.646119
H120	H	1.131331	-0.655462	-0.709467
H121	H	1.128986	-0.557429	-0.593545
H122	H	1.185290	-0.558484	-0.656888
C123	C	0.673245	-0.584465	-0.499887
C124	C	0.623795	-0.535929	-0.458478
H125	H	0.649494	-0.619089	-0.529417
H126	H	0.703060	-0.552689	-0.528063
H127	H	0.700709	-0.614545	-0.470262
H128	H	0.596334	-0.505844	-0.488103
H129	H	0.593967	-0.567709	-0.430300
C130	C	0.403070	-0.618765	-0.529214
C131	C	0.449336	-0.574730	-0.491623
H132	H	0.429282	-0.655717	-0.560758
H133	H	0.373100	-0.646160	-0.497303
H134	H	0.375458	-0.584279	-0.555083
H135	H	0.476944	-0.609215	-0.465750
H136	H	0.479318	-0.547333	-0.523538
C137	C	1.237073	-1.014907	-0.264636
C138	C	1.166643	-1.030880	-0.246596
H139	H	1.266435	-1.042950	-0.235293
H140	H	1.249274	-1.031095	-0.312420
H141	H	1.243275	-0.959842	-0.258416
H142	H	1.160440	-1.085944	-0.252821
H143	H	1.154438	-1.014696	-0.198800
C144	C	1.148666	-0.873567	-0.176145
C145	C	1.166633	-0.857554	-0.246581
H146	H	1.178052	-0.845561	-0.146809
H147	H	1.100894	-0.857360	-0.163886
H148	H	1.154879	-0.928640	-0.169972
H149	H	1.160414	-0.802482	-0.252756
H150	H	1.214416	-0.873756	-0.258844
H151	H	1.111067	-1.142913	-0.302164
H152	H	0.304756	-0.552946	-0.473031
H153	H	0.431741	-0.367877	-0.315070
H154	H	0.910552	-0.869329	-0.502239
H155	H	0.953952	-1.142933	-0.459035
C156	C	0.883719	-0.270516	-1.010632
C157	C	0.921343	-0.314513	-0.964359
H158	H	0.852130	-0.233605	-0.984426
H159	H	0.915605	-0.243074	-1.040589
H160	H	0.857896	-0.305031	-1.038256
H161	H	0.947170	-0.279999	-0.936738
H162	H	0.889453	-0.341957	-0.934390
C163	C	1.105299	-0.749738	-0.219370
C164	C	1.123276	-0.733725	-0.289804
H165	H	1.134677	-0.721728	-0.190028
H166	H	1.057525	-0.733538	-0.207119
H167	H	1.111516	-0.804810	-0.213196
H168	H	1.117054	-0.678653	-0.295980
H169	H	1.171062	-0.749921	-0.302059
