data_functionalizedCrystal
_audit_creation_method	'MofGen! by Chris Wilmer'
_symmetry_space_group_name_H-M	'P1'
_symmetry_Int_Tables_number	1
_symmetry_cell_setting	triclinic
loop_
_symmetry_equiv_pos_as_xyz
  x,y,z
_cell_length_a	16.959455
_cell_length_b	16.120484
_cell_length_c	16.959447
_cell_angle_alpha	87.133462
_cell_angle_beta	90.014322
_cell_angle_gamma	92.922454
loop_
_atom_site_label
_atom_site_type_symbol
_atom_site_fract_x
_atom_site_fract_y
_atom_site_fract_z
Zn1	Zn	1.192394	-0.331957	0.462851
Zn2	Zn	1.692394	0.168043	0.962851
Zn3	Zn	1.185600	-0.471386	0.337369
Zn4	Zn	1.685600	0.028614	0.837369
Zn5	Zn	1.060221	-0.331984	0.330690
Zn6	Zn	1.560221	0.168016	0.830690
Zn7	Zn	1.053474	-0.471323	0.469504
Zn8	Zn	1.553474	0.028677	0.969504
O9	O	1.122922	-0.401662	0.400103
O10	O	1.622922	0.098338	0.900103
O11	O	1.302103	-0.350468	0.446216
O12	O	1.802103	0.149532	0.946216
O13	O	1.168949	-0.452931	0.225874
O14	O	1.668949	0.047069	0.725874
O15	O	1.083421	-0.215315	0.342642
O16	O	1.583421	0.284685	0.842642
O17	O	1.297112	-0.452905	0.354025
O18	O	1.797112	0.047095	0.854025
O19	O	1.180528	-0.215296	0.439740
O20	O	1.680528	0.284704	0.939740
O21	O	1.076833	-0.350513	0.220967
O22	O	1.576833	0.149487	0.720967
O23	O	0.948716	-0.350452	0.349093
O24	O	1.448716	0.149548	0.849093
O25	O	1.071921	-0.452799	0.579231
O26	O	1.571921	0.047201	1.079231
O27	O	0.943759	-0.452824	0.451079
O28	O	1.443759	0.047176	0.951079
O29	O	1.173985	-0.350408	0.574343
O30	O	1.673985	0.149592	1.074343
O31	O	1.162407	-0.588043	0.360476
O32	O	1.662407	-0.088043	0.860476
O33	O	1.065334	-0.587997	0.457556
O34	O	1.565334	-0.087997	0.957556
C35	C	0.917557	-0.401635	0.400084
C36	C	1.417557	0.098365	0.900084
C37	C	0.829700	-0.401643	0.400095
C38	C	1.329700	0.098357	0.900095
C39	C	0.460783	-0.348314	0.347103
C40	C	0.960783	0.151686	0.847103
C41	C	0.455662	-0.455080	0.453153
C42	C	0.955662	0.044920	0.953153
C43	C	0.538208	-0.455068	0.453147
C44	C	1.038208	0.044932	0.953147
C45	C	0.582046	-0.401679	0.400118
C46	C	1.082046	0.098321	0.900118
C47	C	0.543337	-0.348302	0.347094
C48	C	1.043337	0.151698	0.847094
C49	C	0.576923	-0.508450	0.506165
C50	C	1.076923	-0.008450	1.006165
C51	C	0.659474	-0.508441	0.506161
C52	C	1.159474	-0.008441	1.006161
C53	C	0.703314	-0.455047	0.453135
C54	C	1.203314	0.044953	0.953135
C55	C	0.664600	-0.401667	0.400109
C56	C	1.164600	0.098333	0.900109
C57	C	0.708437	-0.348278	0.347080
C58	C	1.208437	0.151722	0.847080
C59	C	0.669725	-0.294893	0.294058
C60	C	1.169725	0.205107	0.794058
C61	C	0.587176	-0.294908	0.294068
C62	C	1.087176	0.205092	0.794068
C63	C	0.785863	-0.455032	0.453125
C64	C	1.285863	0.044968	0.953125
C65	C	0.790991	-0.348266	0.347071
C66	C	1.290991	0.151734	0.847071
C67	C	1.112422	-0.618270	0.410480
C68	C	1.612422	-0.118270	0.910480
C69	C	1.108003	-0.710935	0.414945
C70	C	1.608003	-0.210935	0.914945
C71	C	1.099938	-0.880596	0.423114
C72	C	1.599938	-0.380596	0.923114
C73	C	1.146048	-0.921888	0.377106
C74	C	1.646048	-0.421888	0.877106
C75	C	1.141561	-1.016293	0.381651
C76	C	1.641561	-0.516293	0.881651
C77	C	1.104424	-0.786182	0.418570
C78	C	1.604424	-0.286182	0.918570
C79	C	1.329089	-0.401691	0.400123
C80	C	1.829089	0.098309	0.900123
C81	C	1.416945	-0.401703	0.400132
C82	C	1.916945	0.098297	0.900132
C83	C	1.122959	-0.401593	0.606268
C84	C	1.622959	0.098407	1.106268
C85	C	1.122974	-0.401564	0.694124
C86	C	1.622974	0.098436	1.194124
C87	C	1.133485	-0.184209	0.389704
C88	C	1.633485	0.315791	0.889704
C89	C	1.137986	-0.091544	0.385272
C90	C	1.637986	0.408456	0.885272
C91	C	1.122935	-0.401671	0.194738
C92	C	1.622935	0.098329	0.694738
C93	C	1.123084	-0.401466	0.106872
C94	C	1.623084	0.098534	0.606872
C95	C	1.069933	-0.454787	1.068143
C96	C	1.569933	0.045213	1.568143
C97	C	1.176213	-0.348166	1.063048
C98	C	1.676213	0.151834	1.563048
C99	C	1.176191	-0.348183	0.980503
C100	C	1.676191	0.151817	1.480503
C101	C	1.123040	-0.401504	0.941774
C102	C	1.623040	0.098496	1.441774
C103	C	1.069911	-0.454808	0.985590
C104	C	1.569911	0.045192	1.485590
C105	C	1.229324	-0.294887	0.936681
C106	C	1.729324	0.205113	1.436681
C107	C	1.229305	-0.294903	0.854130
C108	C	1.729305	0.205097	1.354130
C109	C	1.176150	-0.348221	0.815400
C110	C	1.676150	0.151779	1.315400
C111	C	1.123018	-0.401525	0.859221
C112	C	1.623018	0.098475	1.359221
C113	C	1.069867	-0.454846	0.820492
C114	C	1.569867	0.045154	1.320492
C115	C	1.016731	-0.508148	0.864312
C116	C	1.516731	-0.008148	1.364312
C117	C	1.016755	-0.508125	0.946860
C118	C	1.516755	-0.008125	1.446860
C119	C	1.176125	-0.348243	0.732853
C120	C	1.676125	0.151757	1.232853
C121	C	1.069845	-0.454867	0.737940
C122	C	1.569845	0.045133	1.237940
H123	H	0.555649	-0.251446	0.250899
H124	H	1.055649	0.248554	0.750899
F125	F	0.716389	-0.238079	0.237618
F126	F	1.216389	0.261921	0.737618
H127	H	1.057096	-0.916143	0.465913
H128	H	1.557096	-0.416143	0.965913
H129	H	1.272571	-0.251501	0.818459
H130	H	1.772571	0.248499	1.318459
H131	H	1.219490	-0.304759	1.094586
H132	H	1.719490	0.195241	1.594586
H133	H	0.826679	-0.304784	0.303892
H134	H	1.326679	0.195216	0.803892
F135	F	1.013269	-0.511616	0.696728
F136	F	1.513269	-0.011616	1.196728
H137	H	1.026668	-0.498181	1.103824
H138	H	1.526668	0.001819	1.603824
F139	F	1.232677	-0.291525	0.686221
F140	F	1.732677	0.208475	1.186221
H141	H	0.973458	-0.551565	0.832769
H142	H	1.473458	-0.051565	1.332769
H143	H	0.429260	-0.304847	0.303935
H144	H	0.929260	0.195153	0.803935
H145	H	0.419964	-0.498552	0.496322
H146	H	0.919964	0.001448	0.996322
H147	H	0.973497	-0.551523	0.982545
H148	H	1.473497	-0.051523	1.482545
H149	H	1.188892	-0.886339	0.334302
H150	H	1.688892	-0.386339	0.834302
H151	H	1.272602	-0.251481	0.968220
H152	H	1.772602	0.248519	1.468220
H153	H	0.817378	-0.498500	0.496292
H154	H	1.317378	0.001500	0.996292
H155	H	0.541224	-0.551923	0.549333
H156	H	1.041224	-0.051923	1.049333
H157	H	0.690987	-0.551910	0.549336
H158	H	1.190987	-0.051910	1.049336
