data_functionalizedCrystal
_audit_creation_method	'MofGen! by Chris Wilmer'
_symmetry_space_group_name_H-M	'P1'
_symmetry_Int_Tables_number	1
_symmetry_cell_setting	triclinic
loop_
_symmetry_equiv_pos_as_xyz
  x,y,z
_cell_length_a	11.026607
_cell_length_b	10.065918
_cell_length_c	17.699083
_cell_angle_alpha	80.166489
_cell_angle_beta	84.065484
_cell_angle_gamma	97.708363
loop_
_atom_site_label
_atom_site_type_symbol
_atom_site_fract_x
_atom_site_fract_y
_atom_site_fract_z
O1	O	1.625120	0.113513	-0.328852
O2	O	1.271920	0.113513	-0.292777
O3	O	1.458497	0.113501	-0.201995
O4	O	1.438543	0.113525	-0.419634
O5	O	1.426704	-0.113490	-0.177907
O6	O	1.240127	-0.113478	-0.268689
O7	O	1.593327	-0.113478	-0.304764
Zn8	Zn	1.411679	-0.149517	-0.282902
Zn9	Zn	1.453568	0.149553	-0.314639
O10	O	1.406750	-0.113466	-0.395546
C11	C	1.210833	0.000017	-0.274078
C12	C	1.076177	0.000017	-0.254239
N13	N	1.383100	-0.353625	-0.261243
C14	C	1.441886	0.000005	-0.161656
C15	C	1.439740	0.000005	-0.077343
C16	C	1.002211	0.000024	-0.309019
C17	C	0.863037	0.000023	-0.288515
C18	C	1.654415	0.000021	-0.323464
C19	C	1.789072	0.000030	-0.343304
C20	C	1.443617	-0.421400	-0.307103
C21	C	1.421632	-0.578569	-0.290427
N22	N	1.482157	0.353660	-0.336293
C23	C	1.423362	0.000033	-0.435886
C24	C	1.425509	0.000042	-0.520200
C25	C	1.549258	0.000003	-0.043769
C26	C	1.547236	0.000015	0.035451
C27	C	1.435695	0.000019	0.081097
C28	C	1.326170	0.000025	0.047517
C29	C	1.328194	0.000023	-0.031703
C30	C	1.318005	0.000036	0.367001
C31	C	1.315989	0.000034	0.446226
C32	C	1.537048	0.000028	0.434155
C33	C	1.539072	0.000026	0.354935
C34	C	1.429548	0.000039	0.321361
C35	C	1.431742	0.000029	0.235462
C36	C	1.433499	0.000020	0.166996
H37	H	1.041919	0.000023	-0.371097
O38	O	1.331464	-0.655821	-0.222050
H39	H	1.290494	-0.582267	-0.190986
H40	H	1.315017	-0.411956	-0.209635
O41	O	1.572349	-0.569102	-0.404662
H42	H	1.575458	-0.457777	-0.407037
O43	O	1.669565	-0.000005	-0.092998
H44	H	1.688725	0.092507	-0.139205
O45	O	0.810463	0.000014	-0.206276
H46	H	0.709402	0.000023	-0.203078
H47	H	1.636416	0.000011	0.062783
O48	O	1.023597	-0.000001	-0.172002
H49	H	0.979603	0.092519	-0.170164
H50	H	0.828773	0.000028	-0.405387
H51	H	1.235352	0.000037	0.084687
O52	O	1.533801	-0.344154	-0.375469
H53	H	1.536906	-0.232829	-0.377843
H54	H	1.629899	0.000016	0.317774
H55	H	1.626228	0.000025	0.461499
H56	H	1.225153	0.000035	0.483390
O57	O	1.199878	0.000016	0.330796
H58	H	1.121977	-0.000006	0.375850
O59	O	1.210071	0.000010	-0.067919
H60	H	1.132165	-0.000003	-0.022870
