data_functionalizedCrystal
_audit_creation_method	'MofGen! by Chris Wilmer'
_symmetry_space_group_name_H-M	'P1'
_symmetry_Int_Tables_number	1
_symmetry_cell_setting	triclinic
loop_
_symmetry_equiv_pos_as_xyz
  x,y,z
_cell_length_a	29.839131
_cell_length_b	29.839135
_cell_length_c	29.839125
_cell_angle_alpha	89.984512
_cell_angle_beta	89.982291
_cell_angle_gamma	90.043950
loop_
_atom_site_label
_atom_site_type_symbol
_atom_site_fract_x
_atom_site_fract_y
_atom_site_fract_z
Zn1	Zn	-0.178886	0.686720	-0.254047
Zn2	Zn	-0.253998	0.686652	-0.178917
Zn3	Zn	-0.178886	0.611602	-0.178925
Zn4	Zn	-0.253993	0.611550	-0.254014
O5	O	-0.216441	0.649131	-0.216476
O6	O	-0.188852	0.749578	-0.244092
O7	O	-0.244036	0.676690	-0.116051
O8	O	-0.116019	0.621617	-0.188908
O9	O	-0.244036	0.749528	-0.188894
O10	O	-0.116019	0.676805	-0.244099
O11	O	-0.188852	0.621551	-0.116057
O12	O	-0.188847	0.548728	-0.188876
O13	O	-0.244028	0.621528	-0.316886
O14	O	-0.244028	0.548690	-0.244043
O15	O	-0.188847	0.676755	-0.316910
O16	O	-0.316865	0.676639	-0.188862
O17	O	-0.316861	0.621462	-0.244035
C18	C	-0.216437	0.532408	-0.216457
C19	C	-0.216447	0.482474	-0.216459
C20	C	-0.187750	0.172854	-0.245260
C21	C	-0.187753	-0.014819	-0.245273
O22	O	-0.163344	-0.039065	-0.269738
N23	N	-0.216441	-0.038311	-0.216492
C24	C	-0.245129	-0.014882	-0.187705
O25	O	-0.269527	-0.039169	-0.163223
C26	C	-0.245123	0.172791	-0.187690
C27	C	-0.216436	0.196280	-0.216475
C28	C	-0.159065	0.196343	-0.274042
C29	C	-0.159066	0.243258	-0.274040
C30	C	-0.187752	0.266684	-0.245256
C31	C	-0.216437	0.243195	-0.216474
C32	C	-0.273808	0.196219	-0.158901
C33	C	-0.273803	0.243140	-0.158899
C34	C	-0.245116	0.266630	-0.187684
C35	C	-0.245125	0.313537	-0.187688
N36	N	-0.216437	0.337029	-0.216468
C37	C	-0.187750	0.313602	-0.245252
C38	C	-0.245130	-0.113412	-0.187715
C39	C	-0.245133	-0.160330	-0.187720
C40	C	-0.187756	-0.160265	-0.245287
C41	C	-0.187756	-0.113346	-0.245284
C42	C	-0.216442	-0.089921	-0.216495
C43	C	-0.187755	0.412128	-0.245246
C44	C	-0.187760	0.459048	-0.245243
C45	C	-0.245135	0.458978	-0.187675
C46	C	-0.245132	0.412063	-0.187679
C47	C	-0.216438	0.388639	-0.216467
O48	O	-0.269518	0.337811	-0.163231
O49	O	-0.163349	0.337898	-0.269724
C50	C	-0.187749	0.125938	-0.245262
C51	C	-0.216434	0.102449	-0.216479
C52	C	-0.245120	0.125875	-0.187695
C53	C	-0.216436	0.055531	-0.216483
C54	C	-0.187749	0.032105	-0.245267
C55	C	-0.159061	0.055596	-0.274048
C56	C	-0.159062	0.102512	-0.274046
C57	C	-0.273808	0.102384	-0.158915
C58	C	-0.273805	0.055468	-0.158919
C59	C	-0.245119	0.032042	-0.187703
C60	C	-0.333163	0.649050	-0.216454
C61	C	-0.383098	0.649056	-0.216459
C62	C	-0.692730	0.677914	-0.187789
C63	C	-0.880403	0.677969	-0.187807
O64	O	-0.904659	0.702441	-0.163413
N65	N	-0.903883	0.649224	-0.216510
C66	C	-0.880441	0.620465	-0.245213
O67	O	-0.904718	0.596020	-0.269630
C68	C	-0.692769	0.620412	-0.245197
C69	C	-0.669292	0.649156	-0.216489
C70	C	-0.669253	0.706656	-0.159084
C71	C	-0.622338	0.706640	-0.159078
C72	C	-0.598900	0.677882	-0.187778
C73	C	-0.622377	0.649140	-0.216483
C74	C	-0.669328	0.591656	-0.273902
C75	C	-0.622407	0.591646	-0.273897
C76	C	-0.598930	0.620390	-0.245188
C77	C	-0.552023	0.620367	-0.245177
N78	N	-0.528543	0.649112	-0.216474
C79	C	-0.551982	0.677869	-0.187774
C80	C	-0.978972	0.620494	-0.245218
C81	C	-1.025889	0.620507	-0.245222
C82	C	-1.025849	0.678012	-0.187816
C83	C	-0.978930	0.677997	-0.187811
C84	C	-0.955492	0.649239	-0.216515
C85	C	-0.453456	0.677834	-0.187764
C86	C	-0.406536	0.677814	-0.187759
C87	C	-0.406581	0.620311	-0.245167
C88	C	-0.453497	0.620329	-0.245170
C89	C	-0.476933	0.649094	-0.216467
O90	O	-0.527738	0.595912	-0.269561
O91	O	-0.527697	0.702318	-0.163367
C92	C	-0.739646	0.677930	-0.187795
C93	C	-0.763123	0.649188	-0.216501
C94	C	-0.739684	0.620430	-0.245200
C95	C	-0.810041	0.649200	-0.216504
C96	C	-0.833479	0.677958	-0.187804
C97	C	-0.810000	0.706703	-0.159101
C98	C	-0.763084	0.706687	-0.159095
C99	C	-0.763164	0.591685	-0.273904
C100	C	-0.810079	0.591703	-0.273907
C101	C	-0.833518	0.620461	-0.245207
C102	C	-0.099262	0.649225	-0.216508
C103	C	-0.049328	0.649265	-0.216522
C104	C	-0.216437	0.649143	-0.333654
C105	C	-0.216435	0.649148	-0.383589
C106	C	-0.216445	0.766309	-0.216495
C107	C	-0.216446	0.816244	-0.216504
C108	C	-0.187627	0.677935	-0.693248
C109	C	-0.187589	0.677957	-0.880921
O110	O	-0.163138	0.702400	-0.905199
N111	N	-0.216315	0.649208	-0.904374
C112	C	-0.245050	0.620449	-0.880906
O113	O	-0.269479	0.595993	-0.905160
C114	C	-0.245086	0.620425	-0.693234
C115	C	-0.216361	0.649179	-0.669783
C116	C	-0.158905	0.706687	-0.669797
C117	C	-0.158916	0.706683	-0.622882
C118	C	-0.187650	0.677927	-0.599417
C119	C	-0.216373	0.649175	-0.622868
C120	C	-0.273819	0.591663	-0.669766
C121	C	-0.273824	0.591659	-0.622845
C122	C	-0.245100	0.620414	-0.599395
C123	C	-0.245119	0.620415	-0.552487
N124	N	-0.216393	0.649164	-0.529034
C125	C	-0.187659	0.677920	-0.552499
C126	C	-0.245030	0.620464	-0.979437
C127	C	-0.245022	0.620471	-1.026354
C128	C	-0.187560	0.677979	-1.026366
C129	C	-0.187571	0.677974	-0.979448
C130	C	-0.216304	0.649214	-0.955984
C131	C	-0.187685	0.677910	-0.453973
C132	C	-0.187701	0.677904	-0.407054
C133	C	-0.245161	0.620395	-0.407046
C134	C	-0.245147	0.620402	-0.453961
C135	C	-0.216406	0.649161	-0.477424
O136	O	-0.269553	0.595982	-0.528180
O137	O	-0.163226	0.702366	-0.528237
C138	C	-0.187616	0.677939	-0.740163
C139	C	-0.216338	0.649187	-0.763614
C140	C	-0.245072	0.620431	-0.740149
C141	C	-0.216330	0.649194	-0.810532
C142	C	-0.187596	0.677950	-0.833997
C143	C	-0.158870	0.706699	-0.810544
C144	C	-0.158881	0.706695	-0.763628
C145	C	-0.273798	0.591682	-0.763602
C146	C	-0.273785	0.591689	-0.810518
C147	C	-0.245050	0.620445	-0.833983
C148	C	-0.216412	0.649145	-0.099753
C149	C	-0.216288	0.649227	-0.049819
H150	H	-0.268491	-0.094343	-0.164271
H151	H	-0.164180	0.701388	-0.960357
C152	C	-0.596772	0.737802	-0.127928
C153	C	-0.550665	0.731634	-0.134053
C154	C	-0.527103	0.760332	-0.105361
H155	H	-0.604376	0.768002	-0.134507
H156	H	-0.604456	0.731247	-0.097728
H157	H	-0.542983	0.738192	-0.164246
H158	H	-0.543047	0.701441	-0.127471
H159	H	-0.534787	0.753776	-0.075161
H160	H	-0.534710	0.790529	-0.111943
H161	H	-0.495817	0.756147	-0.109510
H162	H	-0.472532	0.701258	-0.164392
H163	H	-0.744084	0.568268	-0.297275
H164	H	-0.164399	0.478171	-0.268685
C165	C	-0.156554	0.709101	-0.381513
C166	C	-0.162717	0.702952	-0.335401
C167	C	-0.134035	0.731682	-0.311861
H168	H	-0.126351	0.702573	-0.389153
H169	H	-0.163127	0.739293	-0.389179
H170	H	-0.156141	0.672767	-0.327737
H171	H	-0.192914	0.709483	-0.327748
H172	H	-0.140608	0.761874	-0.319527
H173	H	-0.103834	0.725152	-0.319504
H174	H	-0.138216	0.727517	-0.280571
H175	H	-0.297168	0.121452	-0.135474
H176	H	-1.044940	0.701427	-0.164447
C177	C	-0.127654	0.737969	-0.835945
C178	C	-0.102504	0.763158	-0.805370
C179	C	-0.073748	0.791968	-0.828755
H180	H	-0.108038	0.720847	-0.854247
H181	H	-0.144827	0.757554	-0.854240
H182	H	-0.085333	0.743575	-0.787082
H183	H	-0.122108	0.780288	-0.787067
H184	H	-0.090920	0.811553	-0.847051
H185	H	-0.054135	0.774843	-0.847057
H186	H	-0.056683	0.809065	-0.808014
C187	C	-0.156466	0.709185	-0.479361
C188	C	-0.131326	0.734369	-0.448775
C189	C	-0.102569	0.763190	-0.472145
H190	H	-0.136843	0.692071	-0.497665
H191	H	-0.173637	0.728773	-0.497655
H192	H	-0.114156	0.714783	-0.430488
H193	H	-0.150937	0.751491	-0.430470
H194	H	-0.119741	0.782778	-0.490439
H195	H	-0.082950	0.746073	-0.490448
H196	H	-0.085512	0.780284	-0.451396
H197	H	-0.135525	0.730097	-0.603793
H198	H	-0.829190	0.568292	-0.297284
C199	C	-0.276389	0.589259	-0.479450
C200	C	-0.305185	0.614671	-0.506385
C201	C	-0.333970	0.585993	-0.529865
H202	H	-0.259246	0.569691	-0.497784
H203	H	-0.293531	0.572140	-0.458770
H204	H	-0.288044	0.631782	-0.527064
H205	H	-0.322337	0.634237	-0.488063
H206	H	-0.351112	0.568874	-0.509185
H207	H	-0.316824	0.566427	-0.548196
H208	H	-0.353514	0.603231	-0.548140
C209	C	-0.304951	0.560378	-0.597350
C210	C	-0.279523	0.531590	-0.570419
C211	C	-0.308183	0.502765	-0.546934
H212	H	-0.324542	0.577492	-0.579013
H213	H	-0.322046	0.543231	-0.618027
H214	H	-0.262436	0.548735	-0.549745
H215	H	-0.259933	0.514466	-0.588745
H216	H	-0.325278	0.485619	-0.567611
H217	H	-0.327772	0.519883	-0.528600
H218	H	-0.290934	0.483227	-0.528662
C219	C	-0.156374	0.709146	-1.051929
C220	C	-0.162509	0.702984	-1.098036
C221	C	-0.133782	0.731678	-1.121600
H222	H	-0.162914	0.739346	-1.044302
H223	H	-0.126182	0.702583	-1.044268
H224	H	-0.192694	0.709550	-1.105693
H225	H	-0.155965	0.672790	-1.105675
H226	H	-0.103590	0.725115	-1.113939
H227	H	-0.140325	0.761876	-1.113970
H228	H	-0.137938	0.727498	-1.152885
C229	C	-0.953524	0.709255	-0.156626
C230	C	-0.984098	0.734447	-0.131502
C231	C	-0.960714	0.763252	-0.102773
H232	H	-0.935244	0.692130	-0.136993
H233	H	-0.935205	0.728839	-0.173818
H234	H	-1.002409	0.714865	-0.114311
H235	H	-1.002379	0.751581	-0.151123
H236	H	-0.942395	0.782836	-0.119965
H237	H	-0.942435	0.746124	-0.083143
H238	H	-0.981455	0.780351	-0.085726
C239	C	-0.276230	0.589206	-1.051731
C240	C	-0.301384	0.564014	-1.021133
C241	C	-0.330132	0.535201	-1.044492
H242	H	-0.295843	0.606325	-1.070035
H243	H	-0.259051	0.569622	-1.070023
H244	H	-0.318562	0.583596	-1.002849
H245	H	-0.281783	0.546885	-1.002828
H246	H	-0.312953	0.515617	-1.062783
H247	H	-0.349743	0.552324	-1.062795
H248	H	-0.347200	0.518103	-1.023735
C249	C	-0.156683	-0.087822	-0.276590
C250	C	-0.182161	-0.060902	-0.305344
C251	C	-0.153550	-0.037390	-0.334193
H252	H	-0.137071	-0.069475	-0.259492
H253	H	-0.139609	-0.108483	-0.293759
H254	H	-0.199227	-0.040243	-0.288177
H255	H	-0.201772	-0.079237	-0.322452
H256	H	-0.136476	-0.058051	-0.351363
H257	H	-0.133939	-0.019046	-0.317092
H258	H	-0.170833	-0.019125	-0.353710
H259	H	-0.603326	0.568229	-0.297273
H260	H	-0.297170	0.036347	-0.135480
H261	H	-0.387490	0.596895	-0.268532
H262	H	-0.688332	0.730076	-0.135713
H263	H	-0.135503	0.730104	-0.688898
H264	H	-0.268557	0.596984	-0.387932
H265	H	-0.472613	0.596925	-0.268548
C266	C	-0.737680	0.737947	-0.127911
C267	C	-0.768256	0.763140	-0.102790
C268	C	-0.744874	0.791948	-0.074062
H269	H	-0.719402	0.720824	-0.108275
H270	H	-0.719360	0.757530	-0.145102
H271	H	-0.786569	0.743560	-0.085600
H272	H	-0.786536	0.780273	-0.122413
H273	H	-0.726554	0.811531	-0.091253
H274	H	-0.726596	0.774821	-0.054429
H275	H	-0.765616	0.809048	-0.057017
C276	C	-1.051295	0.589278	-0.276437
C277	C	-1.020720	0.564102	-0.301577
C278	C	-1.044105	0.535335	-0.330344
H279	H	-1.069626	0.569679	-0.259286
H280	H	-1.069561	0.606444	-0.296055
H281	H	-1.002461	0.546937	-0.281961
H282	H	-1.002387	0.583689	-0.318737
H283	H	-1.062372	0.552501	-0.349962
H284	H	-1.062436	0.515739	-0.313190
H285	H	-1.023364	0.518253	-0.347408
C286	C	-0.127898	0.030238	-0.305348
C287	C	-0.102779	0.060846	-0.330565
C288	C	-0.074072	0.037499	-0.359405
H289	H	-0.108261	0.011943	-0.288247
H290	H	-0.145105	0.011937	-0.324915
H291	H	-0.085574	0.079138	-0.311001
H292	H	-0.122405	0.079142	-0.347676
H293	H	-0.091278	0.019199	-0.378971
H294	H	-0.054437	0.019205	-0.342300
H295	H	-0.057028	0.058263	-0.376521
H296	H	-0.297168	0.177102	-0.135460
H297	H	-0.268431	0.597044	-0.960336
H298	H	-0.297180	0.568274	-0.829607
C299	C	-0.305020	0.560391	-0.695138
C300	C	-0.330171	0.535199	-0.664537
C301	C	-0.358915	0.506379	-0.687891
H302	H	-0.324636	0.577505	-0.713444
H303	H	-0.287839	0.540807	-0.713427
H304	H	-0.347351	0.554780	-0.646255
H305	H	-0.310567	0.518076	-0.646229
H306	H	-0.341733	0.486796	-0.706181
H307	H	-0.378528	0.523498	-0.706197
H308	H	-0.375980	0.489281	-0.667133
H309	H	-0.959892	0.597076	-0.268594
H310	H	-0.135491	0.730110	-0.744539
H311	H	-0.297198	0.568265	-0.744502
H312	H	-0.164389	0.393062	-0.268686
H313	H	-0.135705	0.262379	-0.297480
H314	H	-0.135702	0.177274	-0.297482
H315	H	-0.297163	0.262211	-0.135454
H316	H	-0.688435	0.568248	-0.297278
H317	H	-0.268497	-0.179451	-0.164285
H318	H	-0.164399	-0.179346	-0.268724
C319	C	-0.276354	0.484396	-0.156481
C320	C	-0.320821	0.472966	-0.166185
C321	C	-0.349590	0.496378	-0.137461
H322	H	-0.269792	0.476724	-0.126291
H323	H	-0.272272	0.515706	-0.160608
H324	H	-0.324901	0.441663	-0.162054
H325	H	-0.327397	0.480639	-0.196369
H326	H	-0.345508	0.527688	-0.141588
H327	H	-0.343024	0.488704	-0.107273
H328	H	-0.379764	0.488629	-0.144044
C329	C	-0.276335	0.386532	-0.156505
C330	C	-0.305174	0.359587	-0.181888
C331	C	-0.333925	0.336069	-0.153183
H332	H	-0.259170	0.368203	-0.136953
H333	H	-0.293447	0.407190	-0.139370
H334	H	-0.288063	0.338931	-0.199015
H335	H	-0.322349	0.377905	-0.201439
H336	H	-0.351037	0.356728	-0.136048
H337	H	-0.316756	0.317743	-0.133632
H338	H	-0.353498	0.317787	-0.170401
H339	H	-0.135702	0.121633	-0.297485
H340	H	-0.387423	0.701220	-0.164380
H341	H	-0.829092	0.730118	-0.135731
