data_functionalizedCrystal
_audit_creation_method	'MofGen! by Chris Wilmer'
_symmetry_space_group_name_H-M	'P1'
_symmetry_Int_Tables_number	1
_symmetry_cell_setting	triclinic
loop_
_symmetry_equiv_pos_as_xyz
  x,y,z
_cell_length_a	14.971486
_cell_length_b	19.188925
_cell_length_c	14.048226
_cell_angle_alpha	89.993916
_cell_angle_beta	89.998499
_cell_angle_gamma	83.378339
loop_
_atom_site_label
_atom_site_type_symbol
_atom_site_fract_x
_atom_site_fract_y
_atom_site_fract_z
O1	O	1.186464	0.090988	-0.079050
O2	O	0.926006	0.101884	-0.079076
O3	O	1.063754	-0.005196	-0.079057
O4	O	1.048716	0.198068	-0.079069
O5	O	1.063737	-0.005202	0.079264
O6	O	0.925990	0.101878	0.079245
O7	O	1.186448	0.090982	0.079271
Zn8	Zn	1.056216	0.096429	0.104395
Zn9	Zn	1.056238	0.096437	-0.104200
O10	O	1.048700	0.198061	0.079252
C11	C	0.892676	0.101394	0.000081
C12	C	0.793386	0.099933	0.000071
C13	C	0.735827	0.162840	0.000069
C14	C	0.642535	0.161464	0.000083
C15	C	0.606804	0.097180	0.000093
C16	C	0.664370	0.034269	0.000098
C17	C	0.757661	0.035646	0.000091
C18	C	0.469923	0.031403	0.000112
C19	C	0.376626	0.030026	0.000117
C20	C	0.354797	0.157221	0.000104
C21	C	0.448088	0.158598	0.000097
C22	C	0.505648	0.095686	0.000100
C23	C	1.063260	-0.031211	0.000103
C24	C	1.061800	-0.108721	0.000101
C25	C	1.132854	-0.670262	0.000084
C26	C	1.134233	-0.597435	0.000092
C27	C	1.053407	-0.552760	0.000084
C28	C	0.971196	-0.580919	0.000091
C29	C	0.969819	-0.653746	0.000092
N30	N	0.994898	-0.432266	-0.053810
N31	N	0.996211	-0.363085	-0.053813
C32	C	1.057550	-0.333338	0.000084
N33	N	1.117540	-0.375388	0.053972
N34	N	1.116229	-0.444576	0.053970
C35	C	1.054891	-0.473791	0.000084
C36	C	1.141251	-0.226219	0.000093
C37	C	1.142627	-0.153390	0.000107
C38	C	0.979587	-0.136876	0.000097
C39	C	0.978214	-0.209704	0.000092
C40	C	1.059049	-0.254372	0.000085
C41	C	1.219778	0.091472	0.000111
C42	C	1.319067	0.092932	0.000115
C43	C	1.049194	0.224077	0.000090
C44	C	1.050654	0.301587	0.000086
N45	N	1.056208	0.096423	0.246756
N46	N	1.056253	0.096438	-0.246561
C47	C	1.117221	0.049027	0.296582
C48	C	1.117227	0.049027	0.396240
C49	C	1.056223	0.096426	0.446069
C50	C	0.995203	0.143823	0.396236
C51	C	0.995194	0.143820	0.296580
C52	C	0.995229	0.143828	0.603950
C53	C	0.995239	0.143833	0.703613
C54	C	1.117263	0.049036	0.703610
C55	C	1.117253	0.049032	0.603954
C56	C	1.056234	0.096431	0.554127
H57	H	0.347538	-0.022319	0.000127
H58	H	1.166909	0.010434	0.436808
H59	H	0.307927	0.208446	0.000105
O60	O	0.935818	0.189795	0.444597
C61	C	0.847324	0.178337	0.420245
H62	H	0.847112	0.122435	0.392860
H63	H	0.802413	0.186309	0.485788
H64	H	0.820889	0.217001	0.362396
O65	O	1.176297	0.002819	0.555553
C66	C	1.128392	-0.040313	0.498100
H67	H	1.058381	-0.012465	0.483075
H68	H	1.165750	-0.051537	0.428059
H69	H	1.122308	-0.091813	0.536707
H70	H	0.905387	-0.544541	0.000088
O71	O	1.211291	-0.713751	0.000040
C72	C	1.192454	-0.784067	0.000064
H73	H	1.122209	-0.786917	-0.029907
H74	H	1.243992	-0.817014	-0.045902
H75	H	1.195929	-0.805132	0.076019
O76	O	1.176342	0.002926	0.248099
C77	C	1.128577	-0.040221	0.190519
H78	H	1.058495	-0.012478	0.175570
H79	H	1.165946	-0.051266	0.120447
H80	H	1.122666	-0.091808	0.228977
H81	H	1.209567	-0.130472	0.000112
H82	H	0.911278	-0.232624	0.000087
O83	O	0.586535	0.222527	-0.000055
C84	C	0.531932	0.225542	-0.082060
H85	H	0.527427	0.170119	-0.109381
H86	H	0.461712	0.251496	-0.063621
H87	H	0.562500	0.257450	-0.139488
O88	O	0.936045	0.189968	0.555589
C89	C	0.950299	0.259104	0.579941
H90	H	1.021909	0.259536	0.607329
H91	H	0.939869	0.294129	0.514397
H92	H	0.900647	0.279551	0.637788
O93	O	0.936015	0.189958	0.248218
C94	C	0.950263	0.259095	0.272567
H95	H	1.021873	0.259532	0.299951
H96	H	0.939827	0.294119	0.207022
H97	H	0.900612	0.279540	0.330416
O98	O	0.889887	-0.680979	0.000046
C99	C	0.818840	-0.625935	0.000069
H100	H	0.843719	-0.576438	-0.029899
H101	H	0.761434	-0.641197	-0.045901
H102	H	0.793917	-0.615660	0.076023
O103	O	1.219711	-0.269684	0.000225
C104	C	1.223796	-0.312300	0.082231
H105	H	1.152812	-0.316045	0.109559
H106	H	1.257332	-0.367005	0.063790
H107	H	1.264547	-0.288313	0.139653
H108	H	1.166946	0.010442	0.744184
H109	H	1.201172	-0.574510	0.000091
H110	H	0.945563	0.182429	0.744179
H111	H	0.764912	0.215187	0.000060
H112	H	0.516787	-0.019826	0.000116
O113	O	0.482650	0.221102	0.000127
C114	C	0.411844	0.276335	0.000103
H115	H	0.348542	0.256713	0.030084
H116	H	0.431170	0.321208	0.046062
H117	H	0.398564	0.295746	-0.075852
O118	O	0.629769	-0.028219	-0.000020
C119	C	0.659187	-0.066561	-0.082027
H120	H	0.723818	-0.047477	-0.109367
H121	H	0.672365	-0.124694	-0.063583
H122	H	0.605168	-0.058516	-0.139443
H123	H	0.913777	-0.100502	0.000098
H124	H	0.804525	-0.015579	0.000092
