data_functionalizedCrystal
_audit_creation_method	'MofGen! by Chris Wilmer'
_symmetry_space_group_name_H-M	'P1'
_symmetry_Int_Tables_number	1
_symmetry_cell_setting	triclinic
loop_
_symmetry_equiv_pos_as_xyz
  x,y,z
_cell_length_a	15.995350
_cell_length_b	15.995300
_cell_length_c	14.472310
_cell_angle_alpha	90.003476
_cell_angle_beta	89.990621
_cell_angle_gamma	83.482091
loop_
_atom_site_label
_atom_site_type_symbol
_atom_site_fract_x
_atom_site_fract_y
_atom_site_fract_z
O1	O	1.110977	0.107923	-0.076753
O2	O	1.610977	0.607923	0.423247
O3	O	0.867199	0.121251	-0.076771
O4	O	1.367199	0.621251	0.423229
O5	O	0.995774	-0.007303	-0.076766
O6	O	1.495774	0.492697	0.423234
O7	O	0.982402	0.236478	-0.076758
O8	O	1.482402	0.736478	0.423242
O9	O	0.995741	-0.007296	0.076916
O10	O	1.495741	0.492704	0.576916
O11	O	0.867166	0.121259	0.076911
O12	O	1.367166	0.621259	0.576911
O13	O	1.110944	0.107931	0.076929
O14	O	1.610944	0.607931	0.576929
Cu15	Cu	0.989052	0.114595	0.090952
Cu16	Cu	1.489052	0.614595	0.590952
Cu17	Cu	0.989091	0.114587	-0.090795
Cu18	Cu	1.489091	0.614587	0.409205
O19	O	0.982369	0.236485	0.076924
O20	O	1.482369	0.736485	0.576924
C21	C	0.835988	0.120704	0.000067
C22	C	1.335988	0.620704	0.500067
C23	C	0.743038	0.119052	0.000060
C24	C	1.243038	0.619052	0.500060
C25	C	0.995212	-0.038495	0.000072
C26	C	1.495212	0.461505	0.500072
C27	C	0.993577	-0.131448	0.000062
C28	C	1.493577	0.368552	0.500062
C29	C	0.990558	-0.301631	0.000071
C30	C	1.490558	0.198369	0.500071
C31	C	1.082105	-0.349096	0.000076
C32	C	1.582105	0.150904	0.500076
C33	C	1.080435	-0.445784	0.000428
C34	C	1.580435	0.054216	0.500428
C35	C	0.987586	-0.469187	0.000079
C36	C	1.487586	0.030813	0.500079
C37	C	0.942147	-0.428049	0.087662
C38	C	1.442147	0.071951	0.587662
C39	C	0.944463	-0.331415	0.087732
C40	C	1.444463	0.168585	0.587732
C41	C	0.943146	-0.331148	-0.087039
C42	C	1.443146	0.168852	0.412961
C43	C	0.943154	-0.428092	-0.088187
C44	C	1.443154	0.071908	0.411813
C45	C	0.985901	-0.563883	0.000086
C46	C	1.485901	-0.063883	0.500086
C47	C	0.992239	-0.206935	0.000070
C48	C	1.492239	0.293065	0.500070
C49	C	0.405292	0.113120	0.000079
C50	C	0.905292	0.613120	0.500079
C51	C	0.452742	0.021566	0.000419
C52	C	0.952742	0.521566	0.500419
C53	C	0.549432	0.023218	0.000066
C54	C	1.049432	0.523218	0.500066
C55	C	0.572852	0.116062	0.000070
C56	C	1.072852	0.616062	0.500070
C57	C	0.531775	0.161216	-0.087684
C58	C	1.031775	0.661216	0.412316
C59	C	0.435140	0.158916	-0.087752
C60	C	0.935140	0.658916	0.412248
C61	C	0.434763	0.160816	0.087014
C62	C	0.934763	0.660816	0.587014
C63	C	0.531708	0.160794	0.088167
C64	C	1.031708	0.660794	0.588167
C65	C	0.667549	0.117730	0.000062
C66	C	1.167549	0.617730	0.500062
C67	C	0.310594	0.111455	0.000081
C68	C	0.810594	0.611455	0.500081
C69	C	1.142155	0.108478	0.000088
C70	C	1.642155	0.608478	0.500088
C71	C	1.235105	0.110130	0.000089
C72	C	1.735105	0.610130	0.500089
C73	C	0.982931	0.267677	0.000084
C74	C	1.482931	0.767677	0.500084
C75	C	0.984566	0.360630	0.000088
C76	C	1.484566	0.860630	0.500088
N77	N	0.989031	0.114601	0.218783
N78	N	1.489031	0.614601	0.718783
N79	N	0.989119	0.114574	-0.218625
N80	N	1.489119	0.614574	0.281375
C81	C	0.989090	0.114583	0.592874
C82	C	1.489090	0.614583	1.092874
C83	C	0.920062	0.183139	0.553706
C84	C	1.420062	0.683139	1.053706
C85	C	0.920221	0.183390	0.446618
C86	C	1.420221	0.683390	0.946618
C87	C	0.989060	0.114592	0.407283
C88	C	1.489060	0.614592	0.907283
C89	C	1.076421	0.133674	0.446128
C90	C	1.576421	0.633674	0.946128
C91	C	1.076033	0.134162	0.553249
C92	C	1.576033	0.634162	1.053249
C93	C	0.971537	0.026742	0.553399
C94	C	1.471537	0.526742	1.053399
C95	C	0.969533	0.027327	0.446272
C96	C	1.469533	0.527327	0.946272
C97	C	0.989048	0.114596	0.302395
C98	C	1.489048	0.614596	0.802395
C99	C	0.989107	0.114582	0.697763
C100	C	1.489107	0.614582	1.197763
H101	H	1.118904	-0.330621	-0.062730
H102	H	1.618904	0.169379	0.437270
O103	O	0.851779	-0.446735	0.091649
O104	O	1.351779	0.053265	0.591649
H105	H	0.809415	-0.386767	0.090519
H106	H	1.309415	0.113233	0.590519
H107	H	1.129003	0.086198	0.579157
H108	H	1.629003	0.586198	1.079157
H109	H	0.931429	0.248575	0.420987
H110	H	1.431429	0.748575	0.920987
H111	H	0.977182	-0.313092	0.153455
H112	H	1.477182	0.186908	0.653455
H113	H	0.875464	-0.443437	-0.093744
H114	H	1.375464	0.056563	0.406256
O115	O	1.096525	0.219016	0.586349
O116	O	1.596525	0.719016	1.086349
H117	H	1.106613	0.259319	0.525846
H118	H	1.606613	0.759319	1.025846
O119	O	1.031816	-0.043422	0.410835
O120	O	1.531816	0.456578	0.910835
H121	H	1.077869	-0.017375	0.364678
H122	H	1.577869	0.482625	0.864678
H123	H	0.973300	-0.456398	0.153092
H124	H	1.473300	0.043602	0.653092
H125	H	0.414219	0.130888	0.153530
H126	H	0.914219	0.630888	0.653530
O127	O	1.038205	-0.040845	0.586954
O128	O	1.538205	0.459155	1.086954
H129	H	1.083628	-0.012068	0.631530
H130	H	1.583628	0.487932	1.131530
H131	H	0.577854	-0.012275	0.062973
H132	H	1.077854	0.487725	0.562973
O133	O	0.428200	-0.026914	0.083777
O134	O	0.928200	0.473086	0.583777
H135	H	0.381915	0.013722	0.125856
H136	H	0.881915	0.513722	0.625856
H137	H	1.129014	0.085070	0.420647
H138	H	1.629014	0.585070	0.920647
O139	O	0.855421	-0.288656	0.092690
O140	O	1.355421	0.211344	0.592690
H141	H	0.819431	-0.307192	0.031908
H142	H	1.319431	0.192808	0.531908
H143	H	0.973298	-0.310650	-0.153445
H144	H	1.473298	0.189350	0.346555
H145	H	0.976336	-0.455437	-0.152982
H146	H	1.476336	0.044563	0.347018
O147	O	0.853742	-0.289044	-0.088181
O148	O	1.353742	0.210956	0.411819
H149	H	0.843086	-0.247293	-0.027042
H150	H	1.343086	0.252707	0.472958
H151	H	0.433168	-0.014865	-0.062169
H152	H	0.933168	0.485135	0.437831
O153	O	0.586371	-0.024113	-0.083411
O154	O	1.086371	0.475887	0.416589
H155	H	0.535162	-0.048265	-0.123691
H156	H	1.035162	0.451735	0.376309
O157	O	1.127487	-0.482675	0.084082
O158	O	1.627487	0.017325	0.584082
H159	H	1.084369	-0.515413	0.127796
H160	H	1.584369	-0.015413	0.627796
O161	O	0.392668	0.250227	0.087808
O162	O	0.892668	0.750227	0.587808
H163	H	0.441385	0.294379	0.085548
H164	H	0.941385	0.794379	0.585548
H165	H	0.416852	0.125982	-0.153353
H166	H	0.916852	0.625982	0.346647
H167	H	0.854914	0.171957	0.579488
H168	H	1.354914	0.671957	1.079488
H169	H	1.116139	-0.474252	-0.062340
H170	H	1.616139	0.025748	0.437660
O171	O	0.392398	0.247946	-0.093042
O172	O	0.892398	0.747946	0.406958
H173	H	0.440777	0.292451	-0.095549
H174	H	0.940777	0.792451	0.404451
H175	H	0.545889	0.229426	-0.090945
H176	H	1.045889	0.729426	0.409055
O177	O	0.884405	0.008148	0.412649
O178	O	1.384405	0.508148	0.912649
H179	H	0.891827	-0.051117	0.372069
H180	H	1.391827	0.448883	0.872069
H181	H	1.092262	0.197006	0.419294
H182	H	1.592262	0.697006	0.919294
O183	O	0.552033	0.250482	0.095199
O184	O	1.052033	0.750482	0.595199
H185	H	0.586314	0.258701	0.160660
H186	H	1.086314	0.758701	0.660660
H187	H	0.909217	0.008393	0.580461
H188	H	1.409217	0.508393	1.080461
O189	O	0.569369	0.119661	-0.174203
O190	O	1.069369	0.619661	0.325797
H191	H	0.638166	0.123785	-0.175212
H192	H	1.138166	0.623785	0.324788
O193	O	1.130107	-0.323119	0.083143
O194	O	1.630107	0.176881	0.583143
H195	H	1.089044	-0.276552	0.124429
H196	H	1.589044	0.223448	0.624429
H197	H	0.559017	0.127833	0.153088
H198	H	1.059017	0.627833	0.653088
H199	H	0.855283	0.172020	0.420356
H200	H	1.355283	0.672020	0.920356
H201	H	0.931114	0.247958	0.580619
H202	H	1.431114	0.747958	1.080619
