data_functionalizedCrystal
_audit_creation_method	'MofGen! by Chris Wilmer'
_symmetry_space_group_name_H-M	'P1'
_symmetry_Int_Tables_number	1
_symmetry_cell_setting	triclinic
loop_
_symmetry_equiv_pos_as_xyz
  x,y,z
_cell_length_a	11.792241
_cell_length_b	10.268362
_cell_length_c	19.288864
_cell_angle_alpha	90.023129
_cell_angle_beta	96.335166
_cell_angle_gamma	89.999574
loop_
_atom_site_label
_atom_site_type_symbol
_atom_site_fract_x
_atom_site_fract_y
_atom_site_fract_z
O1	O	1.505466	-0.108242	-0.095196
O2	O	2.005466	0.391758	0.404804
O3	O	1.174976	-0.108279	-0.105008
O4	O	1.674976	0.391721	0.394992
O5	O	1.349770	-0.108179	0.000974
O6	O	1.849770	0.391821	0.500974
O7	O	1.330671	-0.108342	-0.201178
O8	O	1.830671	0.391658	0.298822
O9	O	1.349754	0.108422	0.000971
O10	O	1.849754	0.608422	0.500971
O11	O	1.174959	0.108321	-0.105011
O12	O	1.674959	0.608321	0.394989
O13	O	1.505449	0.108359	-0.095200
O14	O	2.005449	0.608359	0.404800
Cu15	Cu	1.340202	0.128117	-0.100106
Cu16	Cu	1.840202	0.628117	0.399894
Cu17	Cu	1.340222	-0.128038	-0.100102
Cu18	Cu	1.840222	0.371962	0.399898
O19	O	1.330654	0.108259	-0.201182
O20	O	1.830654	0.608259	0.298818
C21	C	1.132686	0.000018	-0.104393
C22	C	1.632686	0.500018	0.395607
C23	C	1.006700	0.000008	-0.102548
C24	C	1.506700	0.500008	0.397452
N25	N	1.340197	0.308283	-0.100108
N26	N	1.840197	0.808283	0.399892
N27	N	1.340237	-0.308204	-0.100094
N28	N	1.840237	0.191796	0.399906
C29	C	0.776039	0.000048	-0.099156
C30	C	1.276039	0.500048	0.400844
C31	C	0.904396	0.000026	-0.101041
C32	C	1.404396	0.500026	0.398959
C33	C	1.547739	0.000059	-0.095814
C34	C	2.047739	0.500059	0.404186
C35	C	1.673725	0.000061	-0.097659
C36	C	2.173725	0.500061	0.402341
C37	C	1.340205	0.426126	-0.100109
C38	C	1.840205	0.926126	0.399891
C39	C	1.340219	0.573964	-0.100103
C40	C	1.840219	1.073964	0.399897
C41	C	1.331277	-0.000062	-0.227060
C42	C	1.831277	0.499938	0.272940
C43	C	1.333122	-0.000124	-0.304174
C44	C	1.833122	0.499876	0.195826
C45	C	1.230561	-0.000110	-0.348287
C46	C	1.730561	0.499890	0.151713
C47	C	1.232294	-0.000080	-0.420744
C48	C	1.732294	0.499920	0.079256
C49	C	1.336594	-0.000039	-0.449084
C50	C	1.836594	0.499961	0.050916
C51	C	1.439169	-0.000061	-0.404961
C52	C	1.939169	0.499939	0.095039
C53	C	1.437433	-0.000104	-0.332506
C54	C	1.937433	0.499896	0.167494
C55	C	1.418580	0.075924	-0.557801
C56	C	1.918580	0.575924	-0.057801
C57	C	1.420311	0.075975	-0.630256
C58	C	1.920311	0.575975	-0.130256
C59	C	1.341953	0.000087	-0.672560
C60	C	1.841953	0.500087	-0.172560
C61	C	1.261843	-0.075835	-0.642403
C62	C	1.761843	0.424165	-0.142403
C63	C	1.260107	-0.075878	-0.569948
C64	C	1.760107	0.424122	-0.069948
C65	C	1.338488	0.000007	-0.527649
C66	C	1.838488	0.500007	-0.027649
C67	C	1.241264	0.000132	-0.795241
C68	C	1.741264	0.500132	-0.295241
C69	C	1.243001	0.000154	-0.867699
C70	C	1.743001	0.500154	-0.367699
C71	C	1.449880	0.000186	-0.851914
C72	C	1.949880	0.500186	-0.351914
C73	C	1.448139	0.000151	-0.779457
C74	C	1.948139	0.500151	-0.279457
C75	C	1.343828	0.000130	-0.751125
C76	C	1.843828	0.500130	-0.251125
C77	C	1.349147	0.000139	0.026852
C78	C	1.849147	0.500139	0.526852
C79	C	1.347303	0.000192	0.103966
C80	C	1.847303	0.500192	0.603966
H81	H	1.145622	-0.000138	-0.325225
H82	H	1.645622	0.499862	0.174775
Cl83	Cl	1.520961	0.171497	-0.668165
Cl84	Cl	2.020961	0.671497	-0.168165
H85	H	1.148773	-0.000065	-0.456669
H86	H	1.648773	0.499935	0.043331
H87	H	1.524091	-0.000051	-0.428040
H88	H	2.024091	0.499949	0.071960
Cl89	Cl	1.110133	0.000098	-0.759620
Cl90	Cl	1.610133	0.500098	-0.259620
H91	H	1.194881	-0.137697	-0.545397
H92	H	1.694881	0.362303	-0.045397
H93	H	1.520954	-0.000117	-0.296588
H94	H	2.020954	0.499883	0.203412
H95	H	1.198030	-0.137622	-0.676847
H96	H	1.698030	0.362378	-0.176847
H97	H	1.159480	0.000157	-0.903616
H98	H	1.659480	0.500157	-0.403616
Cl99	Cl	1.581002	0.000224	-0.887534
Cl100	Cl	2.081002	0.500224	-0.387534
H101	H	1.531656	0.000147	-0.743539
H102	H	2.031656	0.500147	-0.243539
H103	H	1.482398	0.137719	-0.523361
H104	H	1.982398	0.637719	-0.023361
