data_functionalizedCrystal
_audit_creation_method	'MofGen! by Chris Wilmer'
_symmetry_space_group_name_H-M	'P1'
_symmetry_Int_Tables_number	1
_symmetry_cell_setting	triclinic
loop_
_symmetry_equiv_pos_as_xyz
  x,y,z
_cell_length_a	18.050589
_cell_length_b	16.120530
_cell_length_c	18.050582
_cell_angle_alpha	87.088397
_cell_angle_beta	89.981795
_cell_angle_gamma	87.123928
loop_
_atom_site_label
_atom_site_type_symbol
_atom_site_fract_x
_atom_site_fract_y
_atom_site_fract_z
Zn1	Zn	-0.353358	1.274469	-0.477436
Zn2	Zn	-0.477536	1.274369	-0.353251
Zn3	Zn	-0.347063	1.135065	-0.346971
Zn4	Zn	-0.471202	1.135006	-0.471112
O5	O	-0.412290	1.204727	-0.412192
O6	O	-0.375115	1.391120	-0.466238
O7	O	-0.460246	1.255872	-0.248492
O8	O	-0.243977	1.153623	-0.364295
O9	O	-0.466349	1.391047	-0.374999
O10	O	-0.248601	1.256043	-0.460148
O11	O	-0.364388	1.153526	-0.243878
O12	O	-0.358245	1.018392	-0.358163
O13	O	-0.455552	1.153524	-0.575876
O14	O	-0.449449	1.018349	-0.449369
O15	O	-0.368973	1.255986	-0.580523
O16	O	-0.580618	1.255816	-0.368867
O17	O	-0.575964	1.153427	-0.455459
C18	C	-0.402477	0.988121	-0.402399
C19	C	-0.398297	0.895456	-0.398227
C20	C	-0.390648	0.725795	-0.390616
C21	C	-0.433986	0.684499	-0.433823
C22	C	-0.429730	0.590094	-0.429588
C23	C	-0.394903	0.820209	-0.394849
C24	C	-0.605237	1.204626	-0.412175
C25	C	-0.687785	1.204660	-0.412197
C26	C	-0.884734	1.149035	-0.459270
C27	C	-0.933249	1.128719	-0.390586
C28	C	-0.838919	1.204742	-0.412210
C29	C	-0.937487	1.225099	-0.480903
C30	C	-0.984907	1.204819	-0.412229
C31	C	-0.886344	1.184385	-0.343488
C32	C	-0.890580	1.280801	-0.433853
C33	C	-0.939074	1.260513	-0.365123
C34	C	-0.754818	1.204695	-0.412200
C35	C	-1.069006	1.204866	-0.412231
C36	C	-0.218590	1.204851	-0.412227
C37	C	-0.136046	1.204904	-0.412241
C38	C	-0.412258	1.204760	-0.605899
C39	C	-0.412245	1.204774	-0.688446
C40	C	-0.422141	1.422179	-0.422025
C41	C	-0.426339	1.514844	-0.426215
C42	C	-0.459261	1.149097	-0.885372
C43	C	-0.480855	1.225159	-0.938196
C44	C	-0.412190	1.204815	-0.839578
C45	C	-0.390577	1.128795	-0.933837
C46	C	-0.412138	1.204848	-0.985565
C47	C	-0.433821	1.280916	-0.891317
C48	C	-0.343510	1.184501	-0.886952
C49	C	-0.365080	1.260615	-0.939756
C50	C	-0.412222	1.204795	-0.755479
C51	C	-0.412107	1.204877	-1.069663
C52	C	-0.412270	1.204743	-0.219241
C53	C	-0.412081	1.204890	-0.136702
H54	H	-0.474283	0.720045	-0.473995
Cl55	Cl	-0.851847	1.157735	-0.253777
H56	H	-0.538915	1.242360	-0.960676
Cl57	Cl	-0.328436	0.670919	-0.328596
Cl58	Cl	-0.848015	1.076200	-0.520619
Cl59	Cl	-0.520803	1.076418	-0.848632
Cl60	Cl	-0.861441	1.380029	-0.462140
H61	H	-0.452145	1.345238	-0.872618
Cl62	Cl	-0.962359	1.029464	-0.362328
H63	H	-0.962716	1.307655	-0.325286
H64	H	-0.959920	1.242287	-0.538989
Cl65	Cl	-0.303593	1.333465	-0.976295
Cl66	Cl	-0.253893	1.157910	-0.852215
H67	H	-0.372319	1.064493	-0.952629
