data_functionalizedCrystal
_audit_creation_method	'MofGen! by Chris Wilmer'
_symmetry_space_group_name_H-M	'P1'
_symmetry_Int_Tables_number	1
_symmetry_cell_setting	triclinic
loop_
_symmetry_equiv_pos_as_xyz
  x,y,z
_cell_length_a	15.995350
_cell_length_b	15.995350
_cell_length_c	15.072220
_cell_angle_alpha	90.001101
_cell_angle_beta	90.006129
_cell_angle_gamma	96.507625
loop_
_atom_site_label
_atom_site_type_symbol
_atom_site_fract_x
_atom_site_fract_y
_atom_site_fract_z
O1	O	1.110996	-0.107921	0.073647
O2	O	0.867221	-0.121249	0.073677
O3	O	0.995772	0.007303	0.073660
O4	O	0.982444	-0.236472	0.073664
O5	O	0.995740	0.007296	-0.073905
O6	O	0.867189	-0.121256	-0.073888
O7	O	1.110964	-0.107928	-0.073918
Zn8	Zn	0.989071	-0.114593	-0.097332
Zn9	Zn	0.989113	-0.114584	0.097091
O10	O	0.982413	-0.236480	-0.073902
C11	C	0.836010	-0.120701	-0.000102
C12	C	0.743060	-0.119049	-0.000090
C13	C	1.142175	-0.108476	-0.000138
C14	C	1.235125	-0.110127	-0.000143
C15	C	0.995205	0.038494	-0.000121
C16	C	0.993553	0.131444	-0.000115
C17	C	1.572873	-0.116060	-0.000108
C18	C	1.525439	-0.207612	-0.000440
C19	C	1.428748	-0.205959	-0.000117
C20	C	1.405312	-0.113117	-0.000126
C21	C	1.446391	-0.067956	0.084142
C22	C	1.543027	-0.070256	0.084222
C23	C	1.543382	-0.068373	-0.083587
C24	C	1.446437	-0.068395	-0.084710
C25	C	1.310615	-0.111449	-0.000133
C26	C	1.667570	-0.117725	-0.000094
C27	C	0.982980	-0.267671	-0.000119
C28	C	0.984631	-0.360621	-0.000118
N29	N	0.989049	-0.114599	-0.230021
C30	C	0.987621	0.469192	-0.000118
C31	C	0.896069	0.421758	0.000225
C32	C	0.897721	0.325068	-0.000108
C33	C	0.990564	0.301631	-0.000116
C34	C	1.035702	0.342705	-0.084387
C35	C	1.033402	0.439341	-0.084457
C36	C	1.035330	0.439707	0.083352
C37	C	1.035308	0.342761	0.084465
C38	C	0.992231	0.206934	-0.000118
C39	C	0.985956	0.563890	-0.000122
C40	C	0.989112	-0.114580	-0.589223
C41	C	0.920095	-0.183135	-0.551607
C42	C	0.920254	-0.183385	-0.448781
C43	C	0.989080	-0.114590	-0.411019
C44	C	1.076445	-0.133671	-0.448321
C45	C	1.076058	-0.134159	-0.551178
C46	C	0.971542	-0.026741	-0.551321
C47	C	0.969537	-0.027327	-0.448458
C48	C	0.989067	-0.114593	-0.310305
C49	C	0.989130	-0.114579	-0.689936
N50	N	0.989142	-0.114571	0.229780
H51	H	1.400325	-0.241463	-0.060520
Cl52	Cl	0.839588	0.450371	0.093529
H53	H	0.931160	-0.247952	-0.577446
Cl54	Cl	1.554588	-0.264351	-0.093331
H55	H	1.000460	0.457639	-0.147445
Cl56	Cl	1.137174	0.489132	-0.090382
H57	H	0.909219	-0.008392	-0.577304
Cl58	Cl	1.592429	0.035837	-0.084475
Cl59	Cl	0.842527	0.282035	-0.093519
Cl60	Cl	0.839647	0.452362	-0.092271
Cl61	Cl	1.141011	0.320898	-0.089240
Cl62	Cl	0.987259	0.298886	-0.181203
H63	H	0.855314	-0.172016	-0.423562
H64	H	1.021872	0.024275	-0.575646
H65	H	1.575275	-0.003040	0.088057
H66	H	1.545033	-0.244038	0.059656
Cl67	Cl	0.842937	0.281187	0.093158
H68	H	1.005411	0.460250	0.147224
H69	H	1.002306	0.315516	0.146807
H70	H	1.417987	-0.099296	0.146850
Cl71	Cl	1.139841	0.319041	0.092319
H72	H	1.400885	-0.241689	0.060391
Cl73	Cl	1.571287	-0.121093	0.181478
H74	H	1.102831	0.471468	0.083912
Cl75	Cl	0.937542	-0.284035	-0.410774
Cl76	Cl	0.819502	-0.165861	-0.589803
H77	H	1.091540	-0.198219	-0.575161
H78	H	1.129019	-0.086195	-0.576060
H79	H	1.129029	-0.085068	-0.423858
Cl80	Cl	1.100923	-0.231449	-0.408541
H81	H	0.905271	-0.012846	-0.424078
H82	H	1.016540	0.026078	-0.422756
H83	H	1.432265	0.000253	0.087269
Cl84	Cl	1.575093	-0.114590	-0.182191
H85	H	1.431077	-0.000690	-0.089803
Cl86	Cl	1.404288	-0.119304	-0.180962
