data_functionalizedCrystal
_audit_creation_method	'MofGen! by Chris Wilmer'
_symmetry_space_group_name_H-M	'P1'
_symmetry_Int_Tables_number	1
_symmetry_cell_setting	triclinic
loop_
_symmetry_equiv_pos_as_xyz
  x,y,z
_cell_length_a	15.712078
_cell_length_b	14.185569
_cell_length_c	15.625429
_cell_angle_alpha	120.547738
_cell_angle_beta	101.022721
_cell_angle_gamma	72.829589
loop_
_atom_site_label
_atom_site_type_symbol
_atom_site_fract_x
_atom_site_fract_y
_atom_site_fract_z
O1	O	1.081585	0.280623	0.541599
O2	O	0.836104	0.253980	0.468477
O3	O	0.977306	0.217328	0.367643
O4	O	0.940383	0.317274	0.642433
O5	O	1.019018	0.039668	0.337861
O6	O	0.877816	0.076320	0.438695
O7	O	1.123296	0.102963	0.511816
Cu8	Cu	1.004365	0.073420	0.472536
Cu9	Cu	0.955036	0.283523	0.507757
O10	O	0.982095	0.139614	0.612650
C11	C	0.825766	0.160799	0.441641
C12	C	0.732816	0.147831	0.406037
N13	N	1.039066	-0.074355	0.447765
C14	C	0.340222	0.257843	0.708312
C15	C	0.252876	0.245694	0.674841
C16	C	0.287631	0.184688	0.507108
C17	C	0.374981	0.196837	0.540565
C18	C	0.401269	0.233414	0.641168
C19	C	0.436028	0.172408	0.473421
C20	C	0.523371	0.184551	0.506875
C21	C	0.549667	0.221123	0.607473
C22	C	0.488612	0.245556	0.674622
C23	C	0.409740	0.135825	0.372817
C24	C	0.470787	0.111395	0.305673
C25	C	0.558130	0.123546	0.339128
C26	C	0.584426	0.160117	0.439726
C27	C	0.619185	0.099112	0.271980
C28	C	0.706528	0.111254	0.305434
C29	C	0.671769	0.172260	0.473181
C30	C	0.818392	-0.384759	0.605259
C31	C	0.844683	-0.496598	0.586504
C32	C	0.969736	-0.528993	0.497272
C33	C	0.943453	-0.417156	0.516016
C34	C	0.867781	-0.345047	0.570011
C35	C	0.992842	-0.377444	0.480768
C36	C	0.966563	-0.265616	0.499514
C37	C	0.890895	-0.193499	0.553510
C38	C	0.841502	-0.233218	0.588758
C39	C	1.068517	-0.449553	0.426779
C40	C	1.117906	-0.409841	0.391531
C41	C	1.091624	-0.298013	0.410271
C42	C	1.015956	-0.225896	0.464266
C43	C	1.141017	-0.258293	0.375023
C44	C	1.114739	-0.146464	0.393770
C45	C	0.989678	-0.114067	0.483013
C46	C	1.133635	0.196146	0.538653
C47	C	1.226582	0.209121	0.574259
C48	C	1.000626	0.115413	0.316771
C49	C	1.007958	0.076421	0.209554
N50	N	0.920342	0.431296	0.532523
C51	C	0.918372	0.432352	-0.061912
C52	C	0.925266	0.395680	-0.162665
C53	C	0.970737	0.202008	-0.195118
C54	C	0.963852	0.238664	-0.094365
C55	C	0.937668	0.353837	-0.027770
C56	C	0.983147	0.160149	-0.060223
C57	C	0.976258	0.196803	0.040521
C58	C	0.950072	0.311971	0.107121
C59	C	0.930778	0.390491	0.072974
C60	C	1.009325	0.044976	-0.126821
C61	C	1.028620	-0.033539	-0.092679
C62	C	1.021737	0.003114	0.008068
C63	C	0.995552	0.118283	0.074668
C64	C	1.041031	-0.075406	0.042215
C65	C	1.034142	-0.038752	0.142959
C66	C	0.988662	0.154936	0.175412
C67	C	0.958774	0.241532	0.663523
C68	C	0.951441	0.280531	0.770741
H69	H	0.693174	0.202042	0.555101
O70	O	0.593556	0.063770	0.174299
C71	C	0.493491	0.106655	0.054618
C72	C	0.522438	0.146829	0.165275
H73	H	0.435976	0.173778	0.047288
H74	H	0.552081	0.091330	0.012332
H75	H	0.470950	0.025063	0.022315
H76	H	0.544965	0.228441	0.197667
H77	H	0.463825	0.162076	0.207490
O78	O	0.906356	0.472032	-0.195765
C79	C	0.795977	0.620614	-0.214371
C80	C	0.817301	0.534235	-0.176799
H81	H	0.723972	0.670912	-0.199070
H82	H	0.842725	0.680230	-0.174123
H83	H	0.805437	0.574583	-0.297808
H84	H	0.807833	0.580171	-0.093372
H85	H	0.770556	0.474623	-0.217120
O86	O	1.214618	-0.328244	0.322717
C87	C	1.373205	-0.363575	0.313560
C88	C	1.289931	-0.284274	0.372911
H89	H	1.434114	-0.328043	0.354107
H90	H	1.383585	-0.450328	0.306239
H91	H	1.363549	-0.371026	0.236347
H92	H	1.299525	-0.276729	0.450154
H93	H	1.279576	-0.197565	0.380151
O94	O	1.054180	-0.145435	-0.157251
C95	C	1.168723	-0.316551	-0.200432
C96	C	1.139875	-0.189843	-0.127220
H97	H	1.238017	-0.352488	-0.176191
H98	H	1.119242	-0.361708	-0.201055
H99	H	1.170285	-0.329242	-0.278303
H100	H	1.138320	-0.177048	-0.049315
H101	H	1.189364	-0.144748	-0.126684
H102	H	0.756767	-0.326047	0.649218
H103	H	1.154957	-0.114132	0.365068
H104	H	0.449373	0.081602	0.223760
O105	O	0.796580	-0.535184	0.620608
C106	C	0.654049	-0.568193	0.618281
C107	C	0.708422	-0.524481	0.579568
H108	H	0.582757	-0.559533	0.585133
H109	H	0.685759	-0.660529	0.595577
H110	H	0.653367	-0.516799	0.702862
H111	H	0.709123	-0.575791	0.494988
H112	H	0.676693	-0.432131	0.602349
H113	H	0.869502	-0.102440	0.568777
O114	O	0.193557	0.269635	0.740140
C115	C	0.115581	0.410090	0.888750
C116	C	0.182756	0.383140	0.814868
H117	H	0.106842	0.501851	0.949196
H118	H	0.048602	0.395216	0.847621
H119	H	0.141621	0.353116	0.924165
H120	H	0.156799	0.440094	0.779430
H121	H	0.249724	0.397980	0.856048
H122	H	1.062342	-0.169181	-0.012023
O123	O	0.996026	0.090110	-0.259806
C124	C	0.963514	-0.092286	-0.333733
C125	C	0.934757	0.034416	-0.260463
H126	H	0.914003	-0.137356	-0.334273
H127	H	0.965084	-0.105068	-0.411635
H128	H	1.032793	-0.128248	-0.309478
H129	H	0.865470	0.070461	-0.284626
H130	H	0.933251	0.047120	-0.182578
H131	H	0.897058	0.526139	-0.007684
H132	H	0.510017	0.275339	0.756542
H133	H	0.620789	0.231004	0.634709
H134	H	1.014924	0.015136	-0.208854
H135	H	1.049836	-0.102688	0.170753
H136	H	0.361626	0.287625	0.790232
O137	O	1.094171	-0.558139	0.408693
C138	C	1.209879	-0.700987	0.430160
C139	C	1.180933	-0.577984	0.450731
H140	H	1.280035	-0.717077	0.464120
H141	H	1.161636	-0.717032	0.464655
H142	H	1.209411	-0.759939	0.346402
H143	H	1.181406	-0.518952	0.534471
H144	H	1.229182	-0.562032	0.416169
H145	H	1.179521	-0.468563	0.347571
H146	H	0.338621	0.125926	0.345580
O147	O	0.262177	0.148972	0.409345
C148	C	0.286780	0.001113	0.240286
C149	C	0.315680	0.041407	0.350967
H150	H	0.330034	-0.085847	0.193053
H151	H	0.213885	-0.003461	0.227835
H152	H	0.295063	0.062867	0.218027
H153	H	0.307454	-0.020308	0.373301
H154	H	0.388563	0.046012	0.363357
H155	H	0.909464	0.484277	0.127202
H156	H	0.756234	0.091364	0.250759
O157	O	0.767990	-0.163300	0.641259
C158	C	0.646680	-0.142975	0.727740
C159	C	0.729918	-0.222269	0.668318
H160	H	0.615863	-0.190627	0.749616
H161	H	0.666495	-0.068388	0.797678
H162	H	0.596019	-0.111219	0.679850
H163	H	0.780615	-0.254110	0.716125
H164	H	0.710034	-0.296796	0.598373
O165	O	0.963090	0.266814	0.240061
C166	C	0.848630	0.438005	0.283263
C167	C	0.877461	0.311319	0.209975
H168	H	0.779405	0.474031	0.258954
H169	H	0.846963	0.450739	0.361131
H170	H	0.898219	0.483051	0.283925
H171	H	0.827901	0.266191	0.209225
H172	H	0.879154	0.298669	0.132143
O173	O	1.043183	-0.598985	0.444691
C174	C	1.114396	-0.687494	0.289744
C175	C	1.031177	-0.608184	0.349197
H176	H	1.104709	-0.694976	0.212518
H177	H	1.175367	-0.652077	0.330227
H178	H	1.124696	-0.774217	0.282454
H179	H	1.020793	-0.521442	0.356503
H180	H	0.970250	-0.643693	0.308688
H181	H	0.928052	-0.055355	0.526972
H182	H	0.944454	0.341812	0.189150
