data_functionalizedCrystal
_audit_creation_method	'MofGen! by Chris Wilmer'
_symmetry_space_group_name_H-M	'P1'
_symmetry_Int_Tables_number	1
_symmetry_cell_setting	triclinic
loop_
_symmetry_equiv_pos_as_xyz
  x,y,z
_cell_length_a	16.176319
_cell_length_b	14.971486
_cell_length_c	14.971486
_cell_angle_alpha	83.614129
_cell_angle_beta	90.007008
_cell_angle_gamma	90.002456
loop_
_atom_site_label
_atom_site_type_symbol
_atom_site_fract_x
_atom_site_fract_y
_atom_site_fract_z
O1	O	-0.068652	-1.186948	-0.116565
O2	O	0.431348	-0.686948	0.383435
O3	O	-0.068674	-0.926548	-0.130524
O4	O	0.431326	-0.426548	0.369476
O5	O	-0.068657	-1.063728	0.006656
O6	O	0.431343	-0.563728	0.506656
O7	O	-0.068670	-1.049769	-0.253744
O8	O	0.431330	-0.549769	0.246256
O9	O	0.068837	-1.063709	0.006665
O10	O	0.568837	-0.563709	0.506665
O11	O	0.068819	-0.926529	-0.130515
O12	O	0.568819	-0.426529	0.369485
O13	O	0.068841	-1.186929	-0.116556
O14	O	0.568841	-0.686929	0.383444
Cu15	Cu	0.081384	-1.056727	-0.123535
Cu16	Cu	0.581384	-0.556727	0.376465
Cu17	Cu	-0.081217	-1.056750	-0.123545
Cu18	Cu	0.418783	-0.556750	0.376455
O19	O	0.068824	-1.049750	-0.253736
O20	O	0.568824	-0.549750	0.246264
C21	C	0.000069	-0.893214	-0.129895
C22	C	0.500069	-0.393214	0.370105
C23	C	0.000061	-0.793917	-0.128024
C24	C	0.500061	-0.293917	0.371976
N25	N	0.195749	-1.056718	-0.123527
N26	N	0.695749	-0.556718	0.376473
N27	N	-0.195583	-1.056766	-0.123546
N28	N	0.304417	-0.556766	0.376454
C29	C	0.239022	-1.117480	-0.062809
C30	C	0.739022	-0.617480	0.437191
C31	C	0.325569	-1.117484	-0.062808
C32	C	0.825569	-0.617484	0.437192
C33	C	0.368842	-1.056731	-0.123530
C34	C	0.868842	-0.556731	0.376470
C35	C	0.325564	-0.995963	-0.184251
C36	C	0.825564	-0.495963	0.315749
C37	C	0.239018	-0.995955	-0.184247
C38	C	0.739018	-0.495955	0.315753
C39	C	0.674592	-0.995994	-0.184268
C40	C	1.174592	-0.495994	0.315732
C41	C	0.761144	-0.996008	-0.184269
C42	C	1.261144	-0.496008	0.315731
C43	C	0.761142	-1.117523	-0.062829
C44	C	1.261142	-0.617523	0.437171
C45	C	0.674597	-1.117515	-0.062825
C46	C	1.174597	-0.617515	0.437175
C47	C	0.631326	-1.056744	-0.123542
C48	C	1.131326	-0.556744	0.376458
C49	C	0.537482	-1.056739	-0.123541
C50	C	1.037482	-0.556739	0.376459
C51	C	0.462685	-1.056740	-0.123536
C52	C	0.962685	-0.556740	0.376464
C53	C	0.000090	-1.063094	0.039985
C54	C	0.500090	-0.563094	0.539985
C55	C	0.000089	-1.061223	0.139282
C56	C	0.500089	-0.561223	0.639282
C57	C	0.000096	-1.220263	-0.117185
C58	C	0.500096	-0.720263	0.382815
C59	C	0.000099	-1.319561	-0.119056
C60	C	0.500099	-0.819561	0.380944
C61	C	0.000058	-0.736691	-0.208614
C62	C	0.500058	-0.236691	0.291386
C63	C	0.000070	-0.643392	-0.206850
C64	C	0.500070	-0.143392	0.293150
C65	C	0.000080	-0.607320	-0.124497
C66	C	0.500080	-0.107320	0.375503
C67	C	0.000085	-0.664552	-0.043902
C68	C	0.500085	-0.164552	0.456098
C69	C	0.000079	-0.757850	-0.045666
C70	C	0.500079	-0.257850	0.454334
C71	C	0.000097	-0.470090	-0.040231
C72	C	0.500097	0.029910	0.459769
C73	C	0.000102	-0.376786	-0.038466
C74	C	0.500102	0.123214	0.461534
C75	C	0.000088	-0.355632	-0.201415
C76	C	0.500088	0.144368	0.298585
C77	C	0.000082	-0.448930	-0.203179
C78	C	0.500082	0.051070	0.296821
C79	C	0.000086	-0.506156	-0.122584
C80	C	0.500086	-0.006156	0.377416
C81	C	0.000075	-1.050384	-0.287065
C82	C	0.500075	-0.550384	0.212935
C83	C	0.000071	-1.052254	-0.386362
C84	C	0.500071	-0.552254	0.113638
C85	C	0.000096	-1.141812	0.196507
C86	C	0.500096	-0.641812	0.696507
C87	C	0.000088	-1.140049	0.289807
C88	C	0.500088	-0.640049	0.789807
C89	C	0.000078	-1.057696	0.325879
C90	C	0.500078	-0.557696	0.825879
C91	C	0.000068	-0.977101	0.268646
C92	C	0.500068	-0.477101	0.768646
C93	C	0.000070	-0.978865	0.175349
C94	C	0.500070	-0.478865	0.675349
C95	C	0.000064	-0.973430	0.463109
C96	C	0.500064	-0.473430	0.963109
C97	C	0.000063	-0.971665	0.556413
C98	C	0.500063	-0.471665	1.056413
C99	C	0.000082	-1.134614	0.577567
C100	C	0.500082	-0.634614	1.077567
C101	C	0.000085	-1.136378	0.484269
C102	C	0.500085	-0.636378	0.984269
C103	C	0.000076	-1.055782	0.427043
C104	C	0.500076	-0.555782	0.927043
H105	H	0.203794	-1.166956	-0.013365
H106	H	0.703794	-0.666956	0.486635
H107	H	0.000066	-0.478296	-0.270239
H108	H	0.500066	0.021704	0.229761
Cl109	Cl	0.620199	-1.193895	0.013511
Cl110	Cl	1.120199	-0.693895	0.513511
Cl111	Cl	0.000086	-0.829791	0.055651
Cl112	Cl	0.500086	-0.329791	0.555651
H113	H	0.360800	-1.166960	-0.013366
H114	H	0.860800	-0.666960	0.486634
H115	H	0.796376	-0.946532	-0.233718
H116	H	1.296376	-0.446532	0.266282
H117	H	0.000105	-0.635175	0.023152
H118	H	0.500105	-0.135175	0.523152
Cl119	Cl	0.000041	-0.782030	-0.312150
Cl120	Cl	0.500041	-0.282030	0.187850
H121	H	0.796382	-1.167003	-0.013386
H122	H	1.296382	-0.667003	0.486614
Cl123	Cl	0.620201	-0.919602	-0.260600
Cl124	Cl	1.120201	-0.419602	0.239400
H125	H	0.000089	-0.309033	-0.267039
H126	H	0.500089	0.190967	0.232961
H127	H	0.000068	-0.904606	0.585780
H128	H	0.500068	-0.404606	1.085780
H129	H	0.360802	-0.946492	-0.233689
H130	H	0.860802	-0.446492	0.266311
H131	H	0.203787	-0.946476	-0.233689
H132	H	0.703787	-0.446476	0.266311
Cl133	Cl	0.000088	-1.235935	0.649508
Cl134	Cl	0.500088	-0.735935	1.149508
Cl135	Cl	0.000062	-0.571455	-0.308168
Cl136	Cl	0.500062	-0.071455	0.191832
Cl137	Cl	0.000141	-0.331439	0.065065
Cl138	Cl	0.500141	0.168561	0.565065
Cl139	Cl	0.000053	-0.872107	0.391168
Cl140	Cl	0.500053	-0.372107	0.891168
H141	H	0.000054	-0.910047	0.298024
H142	H	0.500054	-0.410047	0.798024
Cl143	Cl	0.000103	-0.542030	0.061092
Cl144	Cl	0.500103	-0.042030	0.561092
H145	H	0.000064	-0.913240	0.128756
H146	H	0.500064	-0.413240	0.628756
H147	H	0.000110	-1.208874	0.167145
H148	H	0.500110	-0.708874	0.667145
H149	H	0.000096	-1.205673	0.336396
H150	H	0.500096	-0.705673	0.836396
Cl151	Cl	0.000093	-1.239909	0.438922
Cl152	Cl	0.500093	-0.739909	0.938922
