data_functionalizedCrystal
_audit_creation_method	'MofGen! by Chris Wilmer'
_symmetry_space_group_name_H-M	'P1'
_symmetry_Int_Tables_number	1
_symmetry_cell_setting	triclinic
loop_
_symmetry_equiv_pos_as_xyz
  x,y,z
_cell_length_a	10.654550
_cell_length_b	8.559649
_cell_length_c	9.730223
_cell_angle_alpha	90.000781
_cell_angle_beta	89.996251
_cell_angle_gamma	77.131784
loop_
_atom_site_label
_atom_site_type_symbol
_atom_site_fract_x
_atom_site_fract_y
_atom_site_fract_z
O1	O	1.644677	0.224178	-0.114394
O2	O	1.276992	0.245537	-0.114371
O3	O	1.493228	0.002614	-0.114383
O4	O	1.428441	0.467100	-0.114382
O5	O	1.493225	0.002620	0.114197
O6	O	1.276989	0.245543	0.114209
O7	O	1.644674	0.224184	0.114186
Zn8	Zn	1.460831	0.234864	0.150489
Zn9	Zn	1.460835	0.234856	-0.150675
O10	O	1.428438	0.467106	0.114198
C11	C	1.230355	0.243972	-0.000079
C12	C	1.091396	0.239279	-0.000070
C13	C	0.997136	0.382308	-0.000090
C14	C	0.866571	0.377890	-0.000114
C15	C	0.924542	0.087401	-0.000104
C16	C	1.055103	0.091821	-0.000070
C17	C	0.963666	0.550020	-0.000101
C18	C	0.833101	0.545601	-0.000125
C19	C	1.498136	-0.056858	-0.000096
C20	C	1.512750	-0.234076	-0.000105
C21	C	1.691311	0.225749	-0.000110
C22	C	1.830270	0.230441	-0.000128
C23	C	1.423530	0.526579	-0.000092
C24	C	1.408916	0.703797	-0.000093
N25	N	1.460838	0.234869	0.356026
N26	N	1.460839	0.234839	-0.356211
C27	C	1.556605	0.127340	0.427946
C28	C	1.556604	0.127320	0.571829
C29	C	1.365062	0.342373	0.571858
C30	C	1.365060	0.342384	0.427978
C31	C	1.667193	0.003185	0.427931
C32	C	1.667192	0.003165	0.571814
H33	H	0.894975	-0.032654	-0.000125
H34	H	0.784843	0.608790	-0.095793
C35	C	0.993513	0.637452	0.127572
C36	C	0.881241	0.686517	0.205636
C37	C	0.908691	0.767040	0.323264
H38	H	1.024847	0.728615	0.101192
H39	H	1.056948	0.567607	0.180807
H40	H	0.817828	0.756358	0.152411
H41	H	0.849890	0.595385	0.232051
H42	H	0.972126	0.697195	0.376499
H43	H	0.940027	0.858196	0.296871
H44	H	0.832524	0.800327	0.376251
H45	H	1.612835	-0.316473	-0.000100
C46	C	1.261116	0.459359	0.649803
C47	C	1.266293	0.616456	0.614794
C48	C	1.170544	0.724267	0.686550
H49	H	1.274715	0.444176	0.745815
H50	H	1.179044	0.441124	0.626191
H51	H	1.348346	0.634684	0.638415
H52	H	1.252680	0.631690	0.518793
H53	H	1.088472	0.706032	0.662938
H54	H	1.184152	0.709069	0.782559
H55	H	1.174036	0.830869	0.662797
C56	C	1.003602	0.621345	-0.131752
C57	C	0.896973	0.664077	-0.219009
C58	C	0.933712	0.729800	-0.340292
H59	H	1.069126	0.544523	-0.176199
H60	H	1.035311	0.713791	-0.110385
H61	H	0.865283	0.571644	-0.240378
H62	H	0.831438	0.740914	-0.174605
H63	H	0.965421	0.822245	-0.318924
H64	H	0.999237	0.652969	-0.384725
H65	H	0.861368	0.758815	-0.399504
H66	H	0.782193	0.596288	0.098559
H67	H	1.658424	-0.119498	0.388878
H68	H	1.308838	-0.213815	-0.000082
C69	C	1.783382	0.055299	0.368621
C70	C	1.783214	0.210826	0.413322
C71	C	1.890234	0.258893	0.358741
H72	H	1.779510	0.053681	0.271115
H73	H	1.859971	-0.015970	0.398806
H74	H	1.706645	0.282076	0.383130
H75	H	1.787104	0.212485	0.510821
H76	H	1.966824	0.187624	0.388925
H77	H	1.886353	0.257266	0.261237
H78	H	1.890141	0.364416	0.389072
H79	H	1.648655	-0.112769	0.616431
C80	C	1.261270	0.459211	0.349721
C81	C	1.318650	0.557704	0.267099
C82	C	1.223078	0.665338	0.194978
H83	H	1.204187	0.523393	0.413029
H84	H	1.214611	0.401221	0.293511
H85	H	1.365288	0.615689	0.323303
H86	H	1.375724	0.493567	0.203765
H87	H	1.176419	0.607348	0.138768
H88	H	1.166001	0.729508	0.258296
H89	H	1.261997	0.732168	0.138901
H90	H	1.760879	0.030513	0.610859
H91	H	1.131848	-0.024647	-0.000034
