data_functionalizedCrystal
_audit_creation_method	'MofGen! by Chris Wilmer'
_symmetry_space_group_name_H-M	'P1'
_symmetry_Int_Tables_number	1
_symmetry_cell_setting	triclinic
loop_
_symmetry_equiv_pos_as_xyz
  x,y,z
_cell_length_a	14.971482
_cell_length_b	14.971486
_cell_length_c	13.448316
_cell_angle_alpha	89.998144
_cell_angle_beta	90.004522
_cell_angle_gamma	83.613368
loop_
_atom_site_label
_atom_site_type_symbol
_atom_site_fract_x
_atom_site_fract_y
_atom_site_fract_z
O1	O	1.186948	0.116545	0.082667
O2	O	0.926547	0.130508	0.082670
O3	O	1.063727	-0.006674	0.082675
O4	O	1.049768	0.253727	0.082661
O5	O	1.063713	-0.006675	-0.082708
O6	O	0.926533	0.130506	-0.082714
O7	O	1.186934	0.116544	-0.082717
Cu8	Cu	1.056732	0.123525	-0.097816
Cu9	Cu	1.056749	0.123527	0.097769
O10	O	1.049754	0.253725	-0.082723
C11	C	0.893215	0.129883	-0.000021
C12	C	0.793918	0.128014	-0.000020
C13	C	0.747266	0.127133	-0.090171
C14	C	0.653968	0.125362	-0.090172
C15	C	0.607322	0.124479	-0.000020
C16	C	0.653981	0.125357	0.090138
C17	C	0.747279	0.127121	0.090138
C18	C	0.459519	0.121682	0.090132
C19	C	0.366215	0.119919	0.090133
C20	C	0.366208	0.119922	-0.090178
C21	C	0.459506	0.121687	-0.090178
C22	C	0.506158	0.122567	-0.000019
C23	C	1.063096	-0.039999	-0.000012
C24	C	1.061225	-0.139296	-0.000000
C25	C	1.220266	0.117168	-0.000024
C26	C	1.319563	0.119038	-0.000019
N27	N	1.056728	0.123524	-0.235381
C28	C	1.050385	0.287051	-0.000033
C29	C	1.052256	0.386348	-0.000038
C30	C	0.971667	0.443574	-0.000036
C31	C	0.973430	0.536874	-0.000023
C32	C	1.055783	0.572945	-0.000019
C33	C	1.136379	0.515711	-0.000018
C34	C	1.134615	0.422413	-0.000024
C35	C	1.140050	0.710174	-0.000007
C36	C	1.141814	0.803478	-0.000003
C37	C	0.978865	0.824634	-0.000006
C38	C	0.977101	0.731336	-0.000012
C39	C	1.057697	0.674109	-0.000013
C40	C	1.111030	0.177864	-0.287421
C41	C	1.111041	0.177860	-0.391524
C42	C	1.056744	0.123520	-0.443585
C43	C	1.002440	0.069173	-0.391538
C44	C	1.002434	0.069173	-0.287437
C45	C	1.002454	0.069179	-0.608518
C46	C	1.002458	0.069181	-0.712627
C47	C	1.111061	0.177866	-0.712605
C48	C	1.111055	0.177866	-0.608504
C49	C	1.056749	0.123521	-0.556464
N50	N	1.056761	0.123521	0.235333
H51	H	0.785237	0.127859	-0.163584
H52	H	0.785261	0.127841	0.163549
H53	H	0.615996	0.124632	0.163541
C54	C	0.602652	0.124413	-0.189346
N55	N	0.564001	0.123706	-0.264049
H56	H	1.203432	0.545088	-0.000016
H57	H	0.958235	0.024924	-0.433935
C58	C	0.881070	0.403905	-0.000041
N59	N	0.812830	0.374030	-0.000040
C60	C	0.890208	0.887586	0.000000
N61	N	0.823435	0.935005	0.000001
C62	C	0.942695	0.009397	-0.230193
N63	N	0.897699	-0.035631	-0.187079
H64	H	0.497481	0.122411	-0.163588
C65	C	0.884775	0.599819	-0.000010
N66	N	0.817996	0.647230	0.000004
H67	H	0.328219	0.119206	-0.163589
H68	H	1.200239	0.375820	-0.000021
C69	C	1.232407	0.843154	0.000016
N70	N	1.300643	0.873037	0.000035
H71	H	1.155239	0.222120	-0.245040
H72	H	0.910042	0.701970	-0.000020
H73	H	0.497501	0.122399	0.163549
H74	H	1.155261	0.222108	-0.433890
H75	H	1.155264	0.222119	-0.566118
H76	H	0.328239	0.119201	0.163542
C77	C	1.170803	0.237643	-0.769851
N78	N	1.215797	0.282666	-0.812974
H79	H	0.958244	0.024933	-0.755012
C80	C	0.942712	0.009398	-0.551277
N81	N	0.897711	-0.035624	-0.508162
C82	C	1.228710	0.647225	-0.000010
N83	N	1.295488	0.599812	-0.000018
