data_functionalizedCrystal
_audit_creation_method	'MofGen! by Chris Wilmer'
_symmetry_space_group_name_H-M	'P1'
_symmetry_Int_Tables_number	1
_symmetry_cell_setting	triclinic
loop_
_symmetry_equiv_pos_as_xyz
  x,y,z
_cell_length_a	14.971491
_cell_length_b	9.130313
_cell_length_c	10.654550
_cell_angle_alpha	89.995631
_cell_angle_beta	84.050583
_cell_angle_gamma	89.994628
loop_
_atom_site_label
_atom_site_type_symbol
_atom_site_fract_x
_atom_site_fract_y
_atom_site_fract_z
O1	O	1.187831	-0.121862	0.163687
O2	O	1.687831	0.378138	0.663687
O3	O	0.927538	-0.121851	0.183279
O4	O	1.427538	0.378149	0.683279
O5	O	1.063669	-0.121847	-0.009321
O6	O	1.563669	0.378153	0.490679
O7	O	1.051700	-0.121865	0.356286
O8	O	1.551700	0.378135	0.856286
O9	O	1.063660	0.121751	-0.009326
O10	O	1.563660	0.621751	0.490674
O11	O	0.927529	0.121748	0.183273
O12	O	1.427529	0.621748	0.683273
O13	O	1.187822	0.121737	0.163681
O14	O	1.687822	0.621737	0.663681
Cu15	Cu	1.057675	0.143985	0.173477
Cu16	Cu	1.557675	0.643985	0.673477
Cu17	Cu	1.057686	-0.144099	0.173483
Cu18	Cu	1.557686	0.355901	0.673483
O19	O	1.051691	0.121734	0.356280
O20	O	1.551691	0.621734	0.856280
C21	C	0.894204	-0.000050	0.182399
C22	C	1.394204	0.499950	0.682399
C23	C	0.794893	-0.000046	0.179769
C24	C	1.294893	0.499954	0.679769
C25	C	1.062786	-0.000049	-0.056112
C26	C	1.562786	0.499951	0.443888
C27	C	1.060157	-0.000051	-0.195527
C28	C	1.560157	0.499949	0.304473
C29	C	0.367131	-0.132865	0.168428
C30	C	0.867131	0.367135	0.668428
C31	C	0.460445	-0.132859	0.170894
C32	C	0.960445	0.367141	0.670894
C33	C	0.507092	-0.000069	0.172133
C34	C	1.007092	0.499931	0.672133
C35	C	0.460422	0.132726	0.170892
C36	C	0.960422	0.632726	0.670892
C37	C	0.367111	0.132719	0.168416
C38	C	0.867111	0.632719	0.668416
C39	C	0.654912	0.132731	0.176054
C40	C	1.154912	0.632731	0.676054
C41	C	0.748229	0.132738	0.178532
C42	C	1.248229	0.632738	0.678532
C43	C	0.748246	-0.132847	0.178532
C44	C	1.248246	0.367153	0.678532
C45	C	0.654935	-0.132854	0.176057
C46	C	1.154935	0.367146	0.676057
C47	C	0.608271	-0.000060	0.174818
C48	C	1.108271	0.499940	0.674818
C49	C	1.221156	-0.000067	0.164561
C50	C	1.721156	0.499933	0.664561
C51	C	1.320467	-0.000081	0.167191
C52	C	1.820467	0.499919	0.667191
N53	N	1.057673	0.346608	0.173471
N54	N	1.557673	0.846608	0.673471
N55	N	1.057694	-0.346721	0.173479
N56	N	1.557694	0.153279	0.673479
C57	C	1.117973	0.423261	0.088224
C58	C	1.617973	0.923261	0.588224
C59	C	1.117981	0.576598	0.088224
C60	C	1.617981	1.076598	0.588224
C61	C	0.997388	0.576614	0.258730
C62	C	1.497388	1.076614	0.758730
C63	C	0.997376	0.423280	0.258723
C64	C	1.497376	0.923280	0.758723
C65	C	1.140308	-0.000055	-0.275870
C66	C	1.640308	0.499945	0.224130
C67	C	1.137832	-0.000072	-0.406865
C68	C	1.637832	0.499928	0.093135
C69	C	0.975046	-0.000076	-0.377159
C70	C	1.475046	0.499924	0.122841
C71	C	0.977523	-0.000069	-0.246168
C72	C	1.477523	0.499931	0.253832
C73	C	1.052574	-0.000068	0.403072
C74	C	1.552574	0.499932	0.903072
C75	C	1.055204	-0.000076	0.542487
C76	C	1.555204	0.499924	1.042487
H77	H	0.329157	-0.240999	0.167428
H78	H	0.829157	0.259001	0.667428
Br79	Br	0.591585	0.312954	0.174354
Br80	Br	1.091585	0.812954	0.674354
H81	H	1.203100	-0.000079	-0.472276
H82	H	1.703100	0.499921	0.027724
H83	H	0.498435	-0.240985	0.171894
H84	H	0.998435	0.259015	0.671894
H85	H	0.329117	0.240845	0.167422
H86	H	0.829117	0.740845	0.667422
H87	H	0.912249	-0.000070	-0.180748
H88	H	1.412249	0.499930	0.319252
Br89	Br	0.811537	0.312956	0.180207
Br90	Br	1.311537	0.812956	0.680207
H91	H	0.907768	-0.000088	-0.418407
H92	H	1.407768	0.499912	0.081593
Br93	Br	0.915529	0.319238	0.374413
Br94	Br	1.415529	0.819238	0.874413
Br95	Br	0.591626	-0.313072	0.174392
Br96	Br	1.091626	0.186928	0.674392
Br97	Br	0.523729	0.312944	0.172566
Br98	Br	1.023729	0.812944	0.672566
Br99	Br	1.199803	0.319211	-0.027476
Br100	Br	1.699803	0.819211	0.472524
Br101	Br	0.811572	-0.313069	0.180235
Br102	Br	1.311572	0.186931	0.680235
Br103	Br	1.252453	-0.000029	-0.207147
Br104	Br	1.752453	0.499971	0.292853
H105	H	1.167081	0.639005	0.018807
H106	H	1.667081	1.139005	0.518807
H107	H	0.948297	0.639057	0.328142
H108	H	1.448297	1.139057	0.828142
