data_functionalizedCrystal
_audit_creation_method	'MofGen! by Chris Wilmer'
_symmetry_space_group_name_H-M	'P1'
_symmetry_Int_Tables_number	1
_symmetry_cell_setting	triclinic
loop_
_symmetry_equiv_pos_as_xyz
  x,y,z
_cell_length_a	11.026607
_cell_length_b	22.610064
_cell_length_c	11.026607
_cell_angle_alpha	89.992890
_cell_angle_beta	108.586017
_cell_angle_gamma	90.009417
loop_
_atom_site_label
_atom_site_type_symbol
_atom_site_fract_x
_atom_site_fract_y
_atom_site_fract_z
O1	O	1.726738	0.049183	0.533608
O2	O	1.360158	0.049184	0.472845
O3	O	1.513067	0.049182	0.319936
O4	O	1.573830	0.049186	0.686516
O5	O	1.513038	-0.049188	0.319957
O6	O	1.360130	-0.049185	0.472866
O7	O	1.726710	-0.049186	0.533629
Zn8	Zn	1.543416	-0.064804	0.503251
Zn9	Zn	1.543453	0.064802	0.503223
O10	O	1.573802	-0.049184	0.686537
C11	C	1.312485	-0.000000	0.461645
C12	C	1.170471	-0.000000	0.428228
C13	C	1.116821	0.000001	0.520498
C14	C	0.970043	0.000002	0.485962
N15	N	1.543399	-0.153256	0.503271
C16	C	1.611168	-0.561899	0.435529
C17	C	1.611172	-0.623819	0.435522
O18	O	1.668741	-0.655838	0.377933
N19	N	1.543446	-0.654793	0.503196
C20	C	1.475701	-0.623845	0.570873
O21	O	1.418094	-0.655877	0.628434
C22	C	1.475690	-0.561926	0.570872
C23	C	1.543431	-0.530955	0.503204
C24	C	1.678902	-0.530927	0.367865
C25	C	1.678899	-0.469012	0.367875
C26	C	1.611162	-0.438068	0.435550
C27	C	1.543428	-0.469039	0.503214
C28	C	1.407938	-0.530979	0.638541
C29	C	1.407932	-0.469056	0.638534
C30	C	1.475673	-0.438084	0.570865
C31	C	1.475688	-0.376179	0.570898
N32	N	1.543414	-0.345205	0.503223
C33	C	1.611151	-0.376149	0.435549
C34	C	1.475728	-0.753879	0.570867
C35	C	1.475745	-0.815796	0.570875
C36	C	1.611215	-0.815766	0.435522
C37	C	1.611204	-0.753847	0.435522
C38	C	1.543453	-0.722904	0.503192
C39	C	1.611141	-0.246121	0.435576
C40	C	1.611136	-0.184200	0.435597
C41	C	1.475662	-0.184236	0.570944
C42	C	1.475671	-0.246152	0.570930
C43	C	1.543413	-0.277093	0.503236
O44	O	1.418144	-0.344120	0.628454
O45	O	1.668734	-0.344109	0.377984
C46	C	1.774384	-0.000000	0.544828
C47	C	1.916398	0.000003	0.578245
C48	C	1.501843	-0.000002	0.272287
C49	C	1.468426	-0.000000	0.130273
N50	N	1.543477	0.153254	0.503195
C51	C	1.560695	0.000000	0.076624
C52	C	1.526160	0.000003	-0.070155
C53	C	1.585026	0.000002	0.734187
C54	C	1.618443	0.000003	0.876200
H55	H	1.107738	0.000014	0.323666
H56	H	1.363863	0.000004	0.067540
C57	C	1.401150	-0.150186	0.645377
N58	N	1.345017	-0.124537	0.701432
H59	H	1.665258	-0.000003	0.139357
C60	C	1.001135	0.000005	0.719517
N61	N	1.064960	0.000008	0.825921
C62	C	1.384889	0.000002	-0.154894
N63	N	1.278487	0.000000	-0.218722
C64	C	0.885303	0.000000	0.344692
N65	N	0.821475	-0.000000	0.238289
H66	H	1.666303	-0.158985	0.380494
H67	H	1.666301	-0.271307	0.380452
H68	H	1.734055	-0.443798	0.312769
H69	H	1.179555	-0.000001	0.625061
H70	H	1.734060	-0.556116	0.312751
H71	H	1.666363	-0.728634	0.380419
C72	C	1.685717	-0.849816	0.361068
N73	N	1.741827	-0.875465	0.304991
C74	C	1.401263	-0.719847	0.645386
N75	N	1.345197	-0.694217	0.701534
C76	C	1.401236	-0.849858	0.645327
N77	N	1.345105	-0.875511	0.701399
H78	H	1.352777	-0.556187	0.693642
H79	H	1.723013	0.000047	-0.061072
H80	H	1.420526	-0.271370	0.626047
C81	C	1.333415	-0.435023	0.712995
N82	N	1.277298	-0.409390	0.769087
