data_functionalizedCrystal
_audit_creation_method	'MofGen! by Chris Wilmer'
_symmetry_space_group_name_H-M	'P1'
_symmetry_Int_Tables_number	1
_symmetry_cell_setting	triclinic
loop_
_symmetry_equiv_pos_as_xyz
  x,y,z
_cell_length_a	23.532407
_cell_length_b	23.532407
_cell_length_c	16.098538
_cell_angle_alpha	87.283857
_cell_angle_beta	87.286853
_cell_angle_gamma	97.151323
loop_
_atom_site_label
_atom_site_type_symbol
_atom_site_fract_x
_atom_site_fract_y
_atom_site_fract_z
O1	O	-0.066579	0.757820	-0.069139
O2	O	0.183421	1.007820	0.180861
O3	O	0.433421	1.257820	0.430861
O4	O	0.683421	1.507820	0.680861
O5	O	-0.076582	0.591957	-0.069162
O6	O	0.173418	0.841957	0.180838
O7	O	0.423418	1.091957	0.430838
O8	O	0.673418	1.341957	0.680838
O9	O	0.011351	0.679890	-0.069160
O10	O	0.261351	0.929890	0.180840
O11	O	0.511351	1.179890	0.430840
O12	O	0.761351	1.429890	0.680840
O13	O	-0.154513	0.669886	-0.069141
O14	O	0.095487	0.919886	0.180859
O15	O	0.345487	1.169886	0.430859
O16	O	0.595487	1.419886	0.680859
O17	O	0.006235	0.674754	0.069352
O18	O	0.256235	0.924754	0.319352
O19	O	0.506235	1.174754	0.569352
O20	O	0.756235	1.424754	0.819352
O21	O	-0.081698	0.586821	0.069351
O22	O	0.168302	0.836821	0.319351
O23	O	0.418302	1.086821	0.569351
O24	O	0.668302	1.336821	0.819351
O25	O	-0.071696	0.752683	0.069374
O26	O	0.178304	1.002683	0.319374
O27	O	0.428304	1.252683	0.569374
O28	O	0.678304	1.502683	0.819374
Zn29	Zn	-0.077510	0.668936	0.091354
Zn30	Zn	0.172490	0.918936	0.341354
Zn31	Zn	0.422490	1.168936	0.591354
Zn32	Zn	0.672490	1.418936	0.841354
Zn33	Zn	-0.070768	0.675704	-0.091142
Zn34	Zn	0.179232	0.925704	0.158858
Zn35	Zn	0.429232	1.175704	0.408858
Zn36	Zn	0.679232	1.425704	0.658858
O37	O	-0.159629	0.664750	0.069372
O38	O	0.090371	0.914750	0.319372
O39	O	0.340371	1.164750	0.569372
O40	O	0.590371	1.414750	0.819372
C41	C	-0.078885	0.568173	0.000091
C42	C	0.171115	0.818173	0.250091
C43	C	0.421115	1.068173	0.500091
C44	C	0.671115	1.318173	0.750091
C45	C	-0.078119	0.504956	0.000082
C46	C	0.171881	0.754956	0.250082
C47	C	0.421881	1.004956	0.500082
C48	C	0.671881	1.254956	0.750082
C49	C	-0.125354	0.105852	0.000125
C50	C	0.124646	0.355852	0.250125
C51	C	0.374646	0.605852	0.500125
C52	C	0.624646	0.855852	0.750125
C53	C	-0.124643	0.046451	0.000130
C54	C	0.125357	0.296451	0.250130
C55	C	0.375357	0.546451	0.500130
C56	C	0.625357	0.796451	0.750130
O57	O	-0.168430	0.009705	0.000166
O58	O	0.081570	0.259705	0.250166
O59	O	0.331570	0.509705	0.500166
O60	O	0.581570	0.759705	0.750166
N61	N	-0.072366	0.023825	0.000123
N62	N	0.177634	0.273825	0.250123
N63	N	0.427634	0.523825	0.500123
N64	N	0.677634	0.773825	0.750123
C65	C	-0.020798	0.060603	0.000119
C66	C	0.229202	0.310603	0.250119
C67	C	0.479202	0.560603	0.500119
C68	C	0.729202	0.810603	0.750119
O69	O	0.023733	0.035904	0.000114
O70	O	0.273733	0.285904	0.250114
O71	O	0.523733	0.535904	0.500114
O72	O	0.773733	0.785904	0.750114
C73	C	-0.021510	0.120002	0.000120
C74	C	0.228490	0.370002	0.250120
C75	C	0.478490	0.620002	0.500120
C76	C	0.728490	0.870002	0.750120
C77	C	-0.073790	0.142625	0.000119
C78	C	0.176210	0.392625	0.250119
C79	C	0.426210	0.642625	0.500119
C80	C	0.676210	0.892625	0.750119
C81	C	-0.177630	0.128475	0.000126
C82	C	0.072370	0.378475	0.250126
C83	C	0.322370	0.628475	0.500126
C84	C	0.572370	0.878475	0.750126
C85	C	-0.178341	0.187871	0.000119
C86	C	0.071659	0.437871	0.250119
C87	C	0.321659	0.687871	0.500119
C88	C	0.571659	0.937871	0.750119
C89	C	-0.126776	0.224644	0.000112
C90	C	0.123224	0.474644	0.250112
C91	C	0.373224	0.724644	0.500112
C92	C	0.623224	0.974644	0.750112
C93	C	-0.074501	0.202021	0.000112
C94	C	0.175499	0.452021	0.250112
C95	C	0.425499	0.702021	0.500112
C96	C	0.675499	0.952021	0.750112
C97	C	0.030058	0.156778	0.000122
C98	C	0.280058	0.406778	0.250122
C99	C	0.530058	0.656778	0.500122
C100	C	0.780058	0.906778	0.750122
C101	C	0.029341	0.216181	0.000123
C102	C	0.279341	0.466181	0.250123
C103	C	0.529341	0.716181	0.500123
C104	C	0.779341	0.966181	0.750123
C105	C	-0.022939	0.238804	0.000122
C106	C	0.227061	0.488804	0.250122
C107	C	0.477061	0.738804	0.500122
C108	C	0.727061	0.988804	0.750122
C109	C	-0.023647	0.298191	0.000099
C110	C	0.226353	0.548191	0.250099
C111	C	0.476353	0.798191	0.500099
C112	C	0.726353	1.048191	0.750099
N113	N	-0.075924	0.320817	0.000107
N114	N	0.174076	0.570817	0.250107
N115	N	0.424076	0.820817	0.500107
N116	N	0.674076	1.070817	0.750107
C117	C	-0.127488	0.284043	0.000113
C118	C	0.122512	0.534043	0.250113
C119	C	0.372512	0.784043	0.500113
C120	C	0.622512	1.034043	0.750113
C121	C	-0.019306	-0.064140	0.000118
C122	C	0.230694	0.185860	0.250118
C123	C	0.480694	0.435860	0.500118
C124	C	0.730694	0.685860	0.750118
C125	C	-0.018594	-0.123537	0.000111
C126	C	0.231406	0.126463	0.250111
C127	C	0.481406	0.376463	0.500111
C128	C	0.731406	0.626463	0.750111
C129	C	-0.122439	-0.137685	0.000125
C130	C	0.127561	0.112315	0.250125
C131	C	0.377561	0.362315	0.500125
C132	C	0.627561	0.612315	0.750125
C133	C	-0.123151	-0.078286	0.000126
C134	C	0.126849	0.171714	0.250126
C135	C	0.376849	0.421714	0.500126
C136	C	0.626849	0.671714	0.750126
C137	C	-0.071583	-0.041514	0.000126
C138	C	0.178417	0.208486	0.250126
C139	C	0.428417	0.458486	0.500126
C140	C	0.678417	0.708486	0.750126
C141	C	-0.128977	0.408781	0.000099
C142	C	0.121023	0.658781	0.250099
C143	C	0.371023	0.908781	0.500099
C144	C	0.621023	1.158781	0.750099
C145	C	-0.129684	0.468183	0.000089
C146	C	0.120316	0.718183	0.250089
C147	C	0.370316	0.968183	0.500089
C148	C	0.620316	1.218183	0.750089
C149	C	-0.025839	0.482326	0.000080
C150	C	0.224161	0.732326	0.250080
C151	C	0.474161	0.982326	0.500080
C152	C	0.724161	1.232326	0.750080
C153	C	-0.025132	0.422929	0.000086
C154	C	0.224868	0.672929	0.250086
C155	C	0.474868	0.922929	0.500086
C156	C	0.724868	1.172929	0.750086
C157	C	-0.076706	0.386157	0.000098
C158	C	0.173294	0.636157	0.250098
C159	C	0.423294	0.886157	0.500098
C160	C	0.673294	1.136157	0.750098
O161	O	0.020117	0.334971	0.000067
O162	O	0.270117	0.584971	0.250067
O163	O	0.520117	0.834971	0.500067
O164	O	0.770117	1.084971	0.750067
O165	O	-0.172012	0.308751	0.000129
O166	O	0.077988	0.558751	0.250129
O167	O	0.327988	0.808751	0.500129
O168	O	0.577988	1.058751	0.750129
C169	C	-0.178287	0.667573	0.000118
C170	C	0.071713	0.917573	0.250118
C171	C	0.321713	1.167573	0.500118
C172	C	0.571713	1.417573	0.750118
C173	C	-0.241505	0.668338	0.000126
C174	C	0.008495	0.918338	0.250126
C175	C	0.258495	1.168338	0.500126
C176	C	0.508495	1.418338	0.750126
C177	C	-0.640606	0.621107	0.000077
C178	C	-0.390606	0.871107	0.250077
C179	C	-0.140606	1.121107	0.500077
C180	C	0.109394	1.371107	0.750077
C181	C	-0.700006	0.621818	0.000072
C182	C	-0.450006	0.871818	0.250072
C183	C	-0.200006	1.121818	0.500072
C184	C	0.049994	1.371818	0.750072
O185	O	-0.736749	0.578034	0.000035
O186	O	-0.486749	0.828034	0.250035
O187	O	-0.236749	1.078034	0.500035
O188	O	0.013251	1.328034	0.750035
N189	N	-0.722632	0.674094	0.000080
N190	N	-0.472632	0.924094	0.250080
N191	N	-0.222632	1.174094	0.500080
N192	N	0.027368	1.424094	0.750080
C193	C	-0.685855	0.725662	0.000085
C194	C	-0.435855	0.975662	0.250085
C195	C	-0.185855	1.225662	0.500085
C196	C	0.064145	1.475662	0.750085
O197	O	-0.710555	0.770193	0.000091
O198	O	-0.460555	1.020193	0.250091
O199	O	-0.210555	1.270193	0.500091
O200	O	0.039445	1.520193	0.750091
C201	C	-0.626456	0.724950	0.000085
C202	C	-0.376456	0.974950	0.250085
C203	C	-0.126456	1.224950	0.500085
C204	C	0.123544	1.474950	0.750085
C205	C	-0.603833	0.672671	0.000085
C206	C	-0.353833	0.922671	0.250085
C207	C	-0.103833	1.172671	0.500085
C208	C	0.146167	1.422671	0.750085
C209	C	-0.617983	0.568831	0.000077
C210	C	-0.367983	0.818831	0.250077
C211	C	-0.117983	1.068831	0.500077
C212	C	0.132017	1.318831	0.750077
C213	C	-0.558587	0.568120	0.000084
C214	C	-0.308587	0.818120	0.250084
C215	C	-0.058587	1.068120	0.500084
C216	C	0.191413	1.318120	0.750084
C217	C	-0.521814	0.619684	0.000092
C218	C	-0.271814	0.869684	0.250092
C219	C	-0.021814	1.119684	0.500092
C220	C	0.228186	1.369684	0.750092
C221	C	-0.544437	0.671959	0.000093
C222	C	-0.294437	0.921959	0.250093
C223	C	-0.044437	1.171959	0.500093
C224	C	0.205563	1.421959	0.750093
C225	C	-0.589679	0.776518	0.000084
C226	C	-0.339679	1.026518	0.250084
C227	C	-0.089679	1.276518	0.500084
C228	C	0.160321	1.526518	0.750084
C229	C	-0.530277	0.775801	0.000084
C230	C	-0.280277	1.025801	0.250084
C231	C	-0.030277	1.275801	0.500084
C232	C	0.219723	1.525801	0.750084
C233	C	-0.507654	0.723522	0.000084
C234	C	-0.257654	0.973522	0.250084
C235	C	-0.007654	1.223522	0.500084
C236	C	0.242346	1.473522	0.750084
C237	C	-0.448269	0.722812	0.000108
C238	C	-0.198269	0.972812	0.250108
C239	C	0.051731	1.222812	0.500108
C240	C	0.301731	1.472812	0.750108
N241	N	-0.425642	0.670536	0.000100
N242	N	-0.175642	0.920536	0.250100
N243	N	0.074358	1.170536	0.500100
N244	N	0.324358	1.420536	0.750100
C245	C	-0.462415	0.618972	0.000092
C246	C	-0.212415	0.868972	0.250092
C247	C	0.037585	1.118972	0.500092
C248	C	0.287585	1.368972	0.750092
C249	C	-0.810597	0.727154	0.000084
C250	C	-0.560597	0.977154	0.250084
C251	C	-0.310597	1.227154	0.500084
C252	C	-0.060597	1.477154	0.750084
C253	C	-0.869995	0.727866	0.000090
C254	C	-0.619995	0.977866	0.250090
C255	C	-0.369995	1.227866	0.500090
C256	C	-0.119995	1.477866	0.750090
C257	C	-0.884142	0.624022	0.000075
C258	C	-0.634142	0.874022	0.250075
C259	C	-0.384142	1.124022	0.500075
C260	C	-0.134142	1.374022	0.750075
C261	C	-0.824743	0.623310	0.000075
C262	C	-0.574743	0.873310	0.250075
C263	C	-0.324743	1.123310	0.500075
C264	C	-0.074743	1.373310	0.750075
C265	C	-0.787971	0.674878	0.000076
C266	C	-0.537971	0.924878	0.250076
C267	C	-0.287971	1.174878	0.500076
C268	C	-0.037971	1.424878	0.750076
C269	C	-0.337679	0.617481	0.000108
C270	C	-0.087679	0.867481	0.250108
C271	C	0.162321	1.117481	0.500108
C272	C	0.412321	1.367481	0.750108
C273	C	-0.278277	0.616774	0.000118
C274	C	-0.028277	0.866774	0.250118
C275	C	0.221723	1.116774	0.500118
C276	C	0.471723	1.366774	0.750118
C277	C	-0.264135	0.720618	0.000129
C278	C	-0.014135	0.970618	0.250129
C279	C	0.235865	1.220618	0.500129
C280	C	0.485865	1.470618	0.750129
C281	C	-0.323532	0.721326	0.000123
C282	C	-0.073532	0.971326	0.250123
C283	C	0.176468	1.221326	0.500123
C284	C	0.426468	1.471326	0.750123
C285	C	-0.360303	0.669753	0.000109
C286	C	-0.110303	0.919753	0.250109
C287	C	0.139697	1.169753	0.500109
C288	C	0.389697	1.419753	0.750109
O289	O	-0.411491	0.766573	0.000141
O290	O	-0.161491	1.016573	0.250141
O291	O	0.088509	1.266573	0.500141
O292	O	0.338509	1.516573	0.750141
O293	O	-0.437706	0.574449	0.000075
O294	O	-0.187706	0.824449	0.250075
O295	O	0.062294	1.074449	0.500075
O296	O	0.312294	1.324449	0.750075
C297	C	0.030009	0.677068	0.000092
C298	C	0.280009	0.927068	0.250092
C299	C	0.530009	1.177068	0.500092
C300	C	0.780009	1.427068	0.750092
C301	C	0.093227	0.676302	0.000078
C302	C	0.343227	0.926302	0.250078
C303	C	0.593227	1.176302	0.500078
C304	C	0.843227	1.426302	0.750078
C305	C	-0.069393	0.776467	0.000118
C306	C	0.180607	1.026467	0.250118
C307	C	0.430607	1.276467	0.500118
C308	C	0.680607	1.526467	0.750118
C309	C	-0.070159	0.839684	0.000122
C310	C	0.179841	1.089684	0.250122
C311	C	0.429841	1.339684	0.500122
C312	C	0.679841	1.589684	0.750122
N313	N	-0.082110	0.664322	0.215903
N314	N	0.167890	0.914322	0.465903
N315	N	0.417890	1.164322	0.715903
N316	N	0.667890	1.414322	0.965903
N317	N	-0.066163	0.680323	-0.215692
N318	N	0.183837	0.930323	0.034308
N319	N	0.433837	1.180323	0.284308
N320	N	0.683837	1.430323	0.534308
C321	C	-0.044801	0.701658	0.259489
C322	C	0.205199	0.951658	0.509489
C323	C	0.455199	1.201658	0.759489
C324	C	0.705199	1.451658	1.009489
C325	C	-0.048024	0.698435	0.346678
C326	C	0.201976	0.948435	0.596678
C327	C	0.451976	1.198435	0.846678
C328	C	0.701976	1.448435	1.096678
C329	C	-0.088560	0.657878	0.390280
C330	C	0.161440	0.907878	0.640280
C331	C	0.411440	1.157878	0.890280
C332	C	0.661440	1.407878	1.140280
C333	C	-0.125871	0.620539	0.346688
C334	C	0.124129	0.870539	0.596688
C335	C	0.374129	1.120539	0.846688
C336	C	0.624129	1.370539	1.096688
C337	C	-0.122645	0.623759	0.259500
C338	C	0.127355	0.873759	0.509500
C339	C	0.377355	1.123759	0.759500
C340	C	0.627355	1.373759	1.009500
C341	C	-0.100248	0.646204	0.653529
C342	C	0.149752	0.896204	0.903529
C343	C	0.399752	1.146204	1.153529
C344	C	0.649752	1.396204	1.403529
C345	C	-0.103473	0.642987	0.740723
C346	C	0.146527	0.892987	0.990723
C347	C	0.396527	1.142987	1.240723
C348	C	0.646527	1.392987	1.490723
C349	C	-0.025625	0.720883	0.740707
C350	C	0.224375	0.970883	0.990707
C351	C	0.474375	1.220883	1.240707
C352	C	0.724375	1.470883	1.490707
C353	C	-0.022404	0.724102	0.653518
C354	C	0.227596	0.974102	0.903518
C355	C	0.477596	1.224102	1.153518
C356	C	0.727596	1.474102	1.403518
C357	C	-0.059713	0.686760	0.609934
C358	C	0.190287	0.936760	0.859934
C359	C	0.440287	1.186760	1.109934
C360	C	0.690287	1.436760	1.359934
C361	C	-0.091858	0.654584	0.479401
C362	C	0.158142	0.904584	0.729401
C363	C	0.408142	1.154584	0.979401
C364	C	0.658142	1.404584	1.229401
C365	C	-0.056412	0.690052	0.520814
C366	C	0.193588	0.940052	0.770814
C367	C	0.443588	1.190052	1.020814
C368	C	0.693588	1.440052	1.270814
H369	H	0.017439	0.404509	0.000074
H370	H	0.267439	0.654509	0.250074
H371	H	0.517439	0.904509	0.500074
H372	H	0.767439	1.154509	0.750074
F373	F	-0.657111	0.513945	0.000065
F374	F	-0.407111	0.763945	0.250065
F375	F	-0.157111	1.013945	0.500065
F376	F	0.092889	1.263945	0.750065
H377	H	0.016144	0.512277	0.000071
H378	H	0.266144	0.762277	0.250071
H379	H	0.516144	1.012277	0.500071
H380	H	0.766144	1.262277	0.750071
F381	F	0.037050	-0.147606	0.000093
F382	F	0.287050	0.102394	0.250093
F383	F	0.537050	0.352394	0.500093
F384	F	0.787050	0.602394	0.750093
H385	H	-0.170974	0.378847	0.000111
H386	H	0.079026	0.628847	0.250111
H387	H	0.329026	0.878847	0.500111
H388	H	0.579026	1.128847	0.750111
F389	F	-0.139956	0.606464	0.607151
F390	F	0.110044	0.856464	0.857151
F391	F	0.360044	1.106464	1.107151
F392	F	0.610044	1.356464	1.357151
F393	F	-0.254205	0.561129	0.000121
F394	F	-0.004205	0.811129	0.250121
F395	F	0.245795	1.061129	0.500121
F396	F	0.495795	1.311129	0.750121
F397	F	-0.232517	0.089346	0.000133
F398	F	0.017483	0.339346	0.250133
F399	F	0.267483	0.589346	0.500133
F400	F	0.517483	0.839346	0.750133
H401	H	-0.367611	0.575486	0.000096
H402	H	-0.117611	0.825486	0.250096
H403	H	0.132389	1.075486	0.500096
H404	H	0.382389	1.325486	0.750096
F405	F	-0.233984	0.211940	0.000122
F406	F	0.016016	0.461940	0.250122
F407	F	0.266016	0.711940	0.500122
F408	F	0.516016	0.961940	0.750122
H409	H	-0.165722	-0.059871	0.000130
H410	H	0.084278	0.190129	0.250130
H411	H	0.334278	0.440129	0.500130
H412	H	0.584278	0.690129	0.750130
H413	H	-0.341952	0.763896	0.000135
H414	H	-0.091952	1.013896	0.250135
H415	H	0.158048	1.263896	0.500135
H416	H	0.408048	1.513896	0.750135
F417	F	-0.177319	-0.176832	0.000135
F418	F	0.072681	0.073168	0.250135
F419	F	0.322681	0.323168	0.500135
F420	F	0.572681	0.573168	0.750135
F421	F	0.035583	-0.025007	0.000111
F422	F	0.285583	0.224993	0.250111
F423	F	0.535583	0.474993	0.500111
F424	F	0.785583	0.724993	0.750111
F425	F	-0.169011	0.577372	0.393093
F426	F	0.080989	0.827372	0.643093
F427	F	0.330989	1.077372	0.893093
F428	F	0.580989	1.327372	1.143093
H429	H	-0.124864	0.621564	0.514908
H430	H	0.125136	0.871564	0.764908
H431	H	0.375136	1.121564	1.014908
H432	H	0.625136	1.371564	1.264908
F433	F	-0.923289	0.569143	0.000066
F434	F	-0.673289	0.819143	0.250066
F435	F	-0.423289	1.069143	0.500066
F436	F	-0.173289	1.319143	0.750066
F437	F	0.085702	0.132715	0.000111
F438	F	0.335702	0.382715	0.250111
F439	F	0.585702	0.632715	0.500111
F440	F	0.835702	0.882715	0.750111
F441	F	-0.894066	0.783509	0.000102
F442	F	-0.644066	1.033509	0.250102
F443	F	-0.394066	1.283509	0.500102
F444	F	-0.144066	1.533509	0.750102
H445	H	-0.540173	0.525549	0.000077
H446	H	-0.290173	0.775549	0.250077
H447	H	-0.040173	1.025549	0.500077
H448	H	0.209827	1.275549	0.750077
F449	F	0.084228	0.255314	0.000126
F450	F	0.334228	0.505314	0.250126
F451	F	0.584228	0.755314	0.500126
F452	F	0.834228	1.005314	0.750126
F453	F	-0.800672	0.567668	0.000074
F454	F	-0.550672	0.817668	0.250074
F455	F	-0.300672	1.067668	0.500074
F456	F	-0.050672	1.317668	0.750074
H457	H	-0.153025	0.593356	0.224014
H458	H	0.096975	0.843356	0.474014
H459	H	0.346975	1.093356	0.724014
H460	H	0.596975	1.343356	0.974014
H461	H	-0.780660	0.769149	0.000091
H462	H	-0.530660	1.019149	0.250091
H463	H	-0.280660	1.269149	0.500091
H464	H	-0.030660	1.519149	0.750091
F465	F	-0.613742	0.832163	0.000069
F466	F	-0.363742	1.082163	0.250069
F467	F	-0.113742	1.332163	0.500069
F468	F	0.136258	1.582163	0.750069
H469	H	-0.500339	0.817795	0.000080
H470	H	-0.250339	1.067795	0.250080
H471	H	-0.000339	1.317795	0.500080
H472	H	0.249661	1.567795	0.750080
F473	F	-0.013270	0.733212	0.474409
F474	F	0.236730	0.983212	0.724409
F475	F	0.486730	1.233212	0.974409
F476	F	0.736730	1.483212	1.224409
F477	F	-0.224989	0.775493	0.000144
F478	F	0.025011	1.025493	0.250144
F479	F	0.275011	1.275493	0.500144
F480	F	0.525011	1.525493	0.750144
H481	H	-0.011794	0.734685	0.223994
H482	H	0.238206	0.984685	0.473994
H483	H	0.488206	1.234685	0.723994
H484	H	0.738206	1.484685	0.973994
F485	F	-0.008315	0.738171	0.393065
F486	F	0.241685	0.988171	0.643065
F487	F	0.491685	1.238171	0.893065
F488	F	0.741685	1.488171	1.143065
H489	H	0.010604	0.757126	0.618019
H490	H	0.260604	1.007126	0.868019
H491	H	0.510604	1.257126	1.118019
H492	H	0.760604	1.507126	1.368019
H493	H	-0.172258	0.486599	0.000088
H494	H	0.077742	0.736599	0.250088
H495	H	0.327742	0.986599	0.500088
H496	H	0.577742	1.236599	0.750088
H497	H	0.004751	0.751284	0.776201
H498	H	0.254751	1.001284	1.026201
H499	H	0.504751	1.251284	1.276201
H500	H	0.754751	1.501284	1.526201
H501	H	-0.136484	0.609959	0.776219
H502	H	0.113516	0.859959	1.026219
H503	H	0.363516	1.109959	1.276219
H504	H	0.613516	1.359959	1.526219
