data_functionalizedCrystal
_audit_creation_method	'MofGen! by Chris Wilmer'
_symmetry_space_group_name_H-M	'P1'
_symmetry_Int_Tables_number	1
_symmetry_cell_setting	triclinic
loop_
_symmetry_equiv_pos_as_xyz
  x,y,z
_cell_length_a	10.654556
_cell_length_b	10.723022
_cell_length_c	9.130313
_cell_angle_alpha	89.996649
_cell_angle_beta	89.998135
_cell_angle_gamma	84.477382
loop_
_atom_site_label
_atom_site_type_symbol
_atom_site_fract_x
_atom_site_fract_y
_atom_site_fract_z
O1	O	1.667807	0.175313	-0.121740
O2	O	1.302327	0.192004	-0.121755
O3	O	1.493499	0.002083	-0.121742
O4	O	1.476636	0.365233	-0.121753
O5	O	1.493486	0.002078	0.121857
O6	O	1.302314	0.191998	0.121844
O7	O	1.667794	0.175307	0.121859
Cu8	Cu	1.485053	0.183652	0.144094
Cu9	Cu	1.485069	0.183659	-0.143990
O10	O	1.476623	0.365227	0.121846
C11	C	1.255523	0.190774	0.000043
C12	C	1.116081	0.187102	0.000037
C13	C	0.919543	0.181936	-0.132737
C14	C	1.050565	0.185378	-0.132746
C15	C	1.050569	0.185371	0.132839
C16	C	0.919551	0.181920	0.132846
C17	C	1.492265	-0.044419	0.000056
C18	C	1.488595	-0.182974	0.000051
C19	C	1.378353	-0.231554	0.000044
C20	C	1.374557	-0.374758	0.000038
C21	C	1.714598	0.176537	0.000058
C22	C	1.854041	0.180209	0.000054
C23	C	1.477856	0.411730	0.000045
C24	C	1.481526	0.550285	0.000041
N25	N	1.485051	0.183647	0.346717
N26	N	1.485080	0.183654	-0.346612
C27	C	1.569731	0.099586	0.423374
C28	C	1.569743	0.099586	0.576711
C29	C	1.400392	0.267719	0.576719
C30	C	1.400375	0.267712	0.423385
H31	H	1.103924	0.186767	0.240953
Br32	Br	1.684663	-0.014507	0.680744
H33	H	1.575919	-0.407895	-0.000008
Br34	Br	1.641231	-0.290344	0.000072
Br35	Br	1.285480	0.381806	0.680774
Br36	Br	1.139459	0.187711	-0.312971
Br37	Br	0.830640	0.179609	-0.312953
Br38	Br	1.684646	-0.014505	0.319330
H39	H	0.866218	0.180513	0.240987
Br40	Br	1.225717	-0.124184	0.000054
H41	H	1.280169	-0.416586	0.000025
Br42	Br	1.285435	0.381793	0.319337
