data_functionalizedCrystal
_audit_creation_method	'MofGen! by Chris Wilmer'
_symmetry_space_group_name_H-M	'P1'
_symmetry_Int_Tables_number	1
_symmetry_cell_setting	triclinic
loop_
_symmetry_equiv_pos_as_xyz
  x,y,z
_cell_length_a	15.944551
_cell_length_b	15.944551
_cell_length_c	15.072220
_cell_angle_alpha	89.997918
_cell_angle_beta	89.991993
_cell_angle_gamma	83.498738
loop_
_atom_site_label
_atom_site_type_symbol
_atom_site_fract_x
_atom_site_fract_y
_atom_site_fract_z
O1	O	1.114535	0.108326	-0.073692
O2	O	0.869985	0.121683	-0.073714
O3	O	0.998938	-0.007270	-0.073694
O4	O	0.985582	0.237279	-0.073712
O5	O	0.998906	-0.007263	0.073871
O6	O	0.869953	0.121690	0.073851
O7	O	1.114503	0.108334	0.073873
Zn8	Zn	0.992223	0.115013	0.097291
Zn9	Zn	0.992265	0.115003	-0.097132
O10	O	0.985550	0.237287	0.073853
C11	C	0.998367	-0.038561	0.000088
C12	C	0.996705	-0.131807	0.000089
C13	C	0.838675	0.121132	0.000066
C14	C	0.745429	0.119470	0.000057
C15	C	0.912801	-0.346663	0.000069
C16	C	0.951747	-0.407677	0.072831
C17	C	0.993698	-0.302533	0.000081
C18	C	0.951798	-0.407668	-0.072657
C19	C	0.990787	-0.467445	0.000071
C20	C	1.032667	-0.362318	0.072904
C21	C	1.032706	-0.362302	-0.072649
C22	C	1.071711	-0.423298	0.000130
C23	C	0.995372	-0.207530	0.000088
C24	C	0.989119	-0.562446	0.000070
C25	C	0.530572	0.035565	0.000080
C26	C	0.469568	0.074524	-0.072680
C27	C	0.574703	0.116462	0.000068
C28	C	0.469559	0.074550	0.072808
C29	C	0.409790	0.113551	0.000082
C30	C	0.514927	0.155443	-0.072752
C31	C	0.514924	0.155458	0.072801
C32	C	0.453937	0.194476	0.000023
C33	C	0.669705	0.118137	0.000059
C34	C	0.314789	0.111883	0.000085
C35	C	1.145813	0.108885	0.000091
C36	C	1.239059	0.110547	0.000094
C37	C	0.986120	0.268577	0.000069
C38	C	0.987782	0.361823	0.000063
N39	N	0.992200	0.115019	0.229980
N40	N	0.992294	0.114991	-0.229821
C41	C	0.992263	0.115000	0.589182
C42	C	0.923031	0.183769	0.551564
C43	C	0.923190	0.184020	0.448738
C44	C	0.992231	0.115010	0.410977
C45	C	1.079875	0.134157	0.448275
C46	C	1.079487	0.134645	0.551133
C47	C	0.974633	0.026880	0.551286
C48	C	0.972622	0.027468	0.448422
C49	C	0.992219	0.115013	0.310264
C50	C	0.992281	0.114998	0.689895
H51	H	0.845652	-0.313356	0.000135
H52	H	1.019771	-0.026104	0.422722
O53	O	0.442942	0.029198	-0.154154
H54	H	0.398939	0.072979	-0.194141
O55	O	0.836890	0.168929	0.415333
H56	H	0.836915	0.169096	0.341692
O57	O	1.100060	0.219772	0.582902
H58	H	1.158240	0.211435	0.623883
H59	H	0.534928	0.189631	-0.134332
O60	O	0.442938	0.029224	0.154295
H61	H	0.473942	-0.036712	0.154141
O62	O	0.906480	-0.434291	-0.154135
H63	H	0.939472	-0.415236	-0.214467
O64	O	0.541583	0.200752	0.154274
H65	H	0.611024	0.202092	0.153165
O66	O	1.149782	0.070832	0.584098
H67	H	1.122747	0.022624	0.625018
O68	O	0.836457	0.168918	0.584370
H69	H	0.821931	0.105741	0.562292
O70	O	1.100941	0.218318	0.414148
H71	H	1.160674	0.209013	0.375745
O72	O	1.041473	-0.040938	0.583516
H73	H	1.104420	-0.026475	0.560613
O74	O	0.410019	0.283500	-0.000035
H75	H	0.340641	0.281655	0.000545
O76	O	1.077934	-0.335836	0.154476
H77	H	1.143685	-0.367325	0.154664
H78	H	0.912111	0.008470	0.577272
H79	H	0.934135	0.248793	0.577399
O80	O	1.149751	0.069577	0.415880
H81	H	1.196198	0.101755	0.377515
H82	H	0.908150	0.012937	0.424046
O83	O	1.160729	-0.467235	0.000187
H84	H	1.194084	-0.449079	0.060644
O85	O	0.938108	0.270635	0.416117
H86	H	0.945245	0.312503	0.473808
H87	H	0.917518	-0.427782	0.134339
H88	H	1.066906	-0.342175	-0.134161
O89	O	0.574659	-0.053393	0.000028
H90	H	0.556604	-0.086783	-0.060449
