data_functionalizedCrystal
_audit_creation_method	'MofGen! by Chris Wilmer'
_symmetry_space_group_name_H-M	'P1'
_symmetry_Int_Tables_number	1
_symmetry_cell_setting	triclinic
loop_
_symmetry_equiv_pos_as_xyz
  x,y,z
_cell_length_a	14.971486
_cell_length_b	15.944551
_cell_length_c	14.048226
_cell_angle_alpha	89.992615
_cell_angle_beta	89.998499
_cell_angle_gamma	83.556434
loop_
_atom_site_label
_atom_site_type_symbol
_atom_site_fract_x
_atom_site_fract_y
_atom_site_fract_z
O1	O	1.186829	0.109463	-0.079053
O2	O	0.926415	0.122572	-0.079079
O3	O	1.063733	-0.006251	-0.079057
O4	O	1.049510	0.238286	-0.079076
O5	O	1.063717	-0.006258	0.079264
O6	O	0.926398	0.122564	0.079242
O7	O	1.186812	0.109456	0.079268
Zn8	Zn	1.056603	0.116009	0.104392
Zn9	Zn	1.056624	0.116019	-0.104203
O10	O	1.049494	0.238278	0.079246
C11	C	0.893082	0.121982	0.000078
C12	C	0.793787	0.120225	0.000068
C13	C	1.063134	-0.037549	0.000104
C14	C	1.061364	-0.130797	0.000104
C15	C	0.736480	0.195904	0.000064
C16	C	0.643182	0.194249	0.000078
C17	C	0.607194	0.116913	0.000090
C18	C	0.664508	0.041227	0.000097
C19	C	0.757804	0.042884	0.000090
C20	C	0.470049	0.037780	0.000111
C21	C	0.376747	0.036123	0.000116
C22	C	0.355428	0.189145	0.000099
C23	C	0.448724	0.190801	0.000092
C24	C	0.506032	0.115116	0.000097
C25	C	0.972017	-0.345738	0.000082
C26	C	1.013499	-0.406720	0.078148
C27	C	1.058162	-0.301526	0.000096
C28	C	1.013535	-0.406696	-0.077944
C29	C	1.055062	-0.466441	0.000085
C30	C	1.099667	-0.361279	0.078227
C31	C	1.099692	-0.361248	-0.077935
C32	C	1.141236	-0.422212	0.000150
C33	C	1.059945	-0.206522	0.000104
C34	C	1.053286	-0.561444	0.000084
C35	C	1.220145	0.110046	0.000109
C36	C	1.319440	0.111802	0.000112
C37	C	1.050093	0.269576	0.000083
C38	C	1.051863	0.362824	0.000076
N39	N	1.056594	0.116001	0.246753
N40	N	1.056640	0.116019	-0.246564
C41	C	1.117418	0.058982	0.296581
C42	C	1.117424	0.058982	0.396238
C43	C	1.056610	0.116005	0.446066
C44	C	0.995780	0.173027	0.396231
C45	C	0.995770	0.173022	0.296575
C46	C	0.995806	0.173033	0.603945
C47	C	0.995816	0.173038	0.703608
C48	C	1.117459	0.058992	0.703608
C49	C	1.117450	0.058988	0.603952
C50	C	1.056621	0.116011	0.554124
H51	H	0.596526	0.255875	0.000074
H52	H	0.977056	-0.426866	0.144140
O53	O	0.936685	0.228507	0.555689
C54	C	0.816006	0.341600	0.566199
C55	C	0.882918	0.278833	0.620969
H56	H	0.772505	0.382293	0.618954
H57	H	0.854574	0.383677	0.519557
H58	H	0.771359	0.305250	0.519529
H59	H	0.927581	0.315114	0.667691
H60	H	0.844293	0.236757	0.667551
H61	H	0.946240	0.219452	0.256006
H62	H	0.900512	-0.312499	0.000153
O63	O	0.483537	0.265997	0.000120
C64	C	0.452551	0.417600	0.000049
C65	C	0.413006	0.332500	0.000036
H66	H	0.395547	0.471389	-0.000040
H67	H	0.495668	0.422253	0.066318
H68	H	0.495725	0.422153	-0.066196
H69	H	0.369791	0.327889	0.066236
H70	H	0.369941	0.327883	-0.066277
O71	O	0.525811	-0.035684	-0.000013
C72	C	0.643480	-0.122633	-0.082073
C73	C	0.580395	-0.039400	-0.082033
H74	H	0.687613	-0.125672	-0.148389
H75	H	0.687759	-0.125699	-0.015865
H76	H	0.601717	-0.178180	-0.082021
H77	H	0.622086	0.016194	-0.082118
H78	H	0.536113	-0.036408	-0.148235
H79	H	1.166988	0.012562	0.744184
H80	H	0.635199	-0.021741	0.000121
H81	H	1.136103	-0.341080	-0.143930
O82	O	0.341934	-0.039073	0.000172
C83	C	0.372919	-0.190675	0.000138
C84	C	0.412464	-0.105576	0.000099
H85	H	0.429924	-0.244465	0.000058
H86	H	0.329804	-0.195330	0.066411
H87	H	0.329743	-0.195227	-0.066103
H88	H	0.455681	-0.100966	0.066295
H89	H	0.455528	-0.100957	-0.066218
O90	O	0.813439	-0.030653	-0.000079
C91	C	0.860173	-0.160952	-0.082062
C92	C	0.797131	-0.077692	-0.082005
H93	H	0.846998	-0.199014	-0.148282
H94	H	0.933053	-0.146533	-0.082129
H95	H	0.847097	-0.198974	-0.015770
H96	H	0.810127	-0.039629	-0.148285
H97	H	0.724273	-0.092170	-0.081889
O98	O	1.176308	0.003392	0.555553
C99	C	1.194993	-0.111615	0.443451
C100	C	1.128301	-0.048573	0.498115
H101	H	1.156206	-0.153657	0.397014
H102	H	1.239806	-0.075581	0.396606
H103	H	1.238350	-0.152319	0.496326
H104	H	1.084885	-0.007853	0.445309
H105	H	1.083551	-0.084658	0.544974
H106	H	0.946294	0.219472	0.744173
O107	O	1.143175	-0.337311	0.156954
C108	C	1.267531	-0.270152	0.218429
C109	C	1.218340	-0.297235	0.129194
H110	H	1.328322	-0.237762	0.196017
H111	H	1.219932	-0.224506	0.262221
H112	H	1.290789	-0.328202	0.263121
H113	H	1.195077	-0.239236	0.084429
H114	H	1.265971	-0.342910	0.085473
O115	O	0.771287	0.271103	0.000093
C116	C	0.740283	0.422704	0.000026
C117	C	0.700750	0.337599	0.000011
H118	H	0.683273	0.476489	-0.000061
H119	H	0.783400	0.427361	0.066294
H120	H	0.783456	0.427264	-0.066220
H121	H	0.657537	0.332982	0.066212
H122	H	0.657684	0.332979	-0.066301
O123	O	1.176547	0.003714	0.444751
C124	C	1.298738	-0.013956	0.557215
C125	C	1.231816	0.048728	0.502349
H126	H	1.343453	0.022414	0.603782
H127	H	1.260178	-0.055968	0.603949
H128	H	1.342169	-0.054728	0.504472
H129	H	1.188369	0.089556	0.555024
H130	H	1.270432	0.090682	0.455601
H131	H	0.977095	-0.426804	-0.143948
H132	H	0.946259	0.219453	0.436807
H133	H	1.212804	-0.455303	0.000201
H134	H	1.166943	0.012551	0.256017
H135	H	0.308763	0.250771	0.000099
