data_functionalizedCrystal
_audit_creation_method	'MofGen! by Chris Wilmer'
_symmetry_space_group_name_H-M	'P1'
_symmetry_Int_Tables_number	1
_symmetry_cell_setting	triclinic
loop_
_symmetry_equiv_pos_as_xyz
  x,y,z
_cell_length_a	12.645330
_cell_length_b	21.295420
_cell_length_c	21.295411
_cell_angle_alpha	90.025571
_cell_angle_beta	90.011623
_cell_angle_gamma	90.023602
loop_
_atom_site_label
_atom_site_type_symbol
_atom_site_fract_x
_atom_site_fract_y
_atom_site_fract_z
Zn1	Zn	0.422233	-0.962374	-0.355972
Zn2	Zn	0.599483	-0.962285	-0.250716
Zn3	Zn	0.422226	-0.857097	-0.250715
Zn4	Zn	0.599447	-0.857075	-0.355946
O5	O	0.510847	-0.909708	-0.303337
O6	O	0.445764	-1.050452	-0.342021
O7	O	0.575982	-0.948303	-0.162627
O8	O	0.273880	-0.871110	-0.264689
O9	O	0.575989	-1.050386	-0.264690
O10	O	0.273885	-0.948456	-0.342020
O11	O	0.445752	-0.871023	-0.162626
O12	O	0.445717	-0.769005	-0.264663
O13	O	0.575927	-0.871071	-0.444039
O14	O	0.575920	-0.768988	-0.341976
O15	O	0.445729	-0.948434	-0.444058
O16	O	0.747826	-0.948281	-0.264664
O17	O	0.747799	-0.870984	-0.341976
C18	C	0.510815	-0.746156	-0.303317
C19	C	0.510826	-0.676188	-0.303323
C20	C	0.786277	-0.909638	-0.303331
C21	C	0.904107	-0.909665	-0.303350
C22	C	0.578751	-0.176738	-0.343544
C23	C	0.578753	-0.242480	-0.343538
C24	C	0.510856	-0.275349	-0.303347
C25	C	0.442971	-0.242469	-0.263148
C26	C	0.442978	-0.176728	-0.263150
N27	N	0.418038	-0.378585	-0.298607
N28	N	0.418034	-0.441037	-0.298608
C29	C	0.510831	-0.473423	-0.303337
N30	N	0.603635	-0.440999	-0.308077
N31	N	0.603637	-0.378542	-0.308078
C32	C	0.510841	-0.346634	-0.303340
C33	C	0.578719	-0.577581	-0.343525
C34	C	0.578723	-0.643324	-0.343515
C35	C	0.442931	-0.643312	-0.263128
C36	C	0.442937	-0.577569	-0.263135
C37	C	0.510829	-0.544708	-0.303336
C38	C	1.071699	-0.861223	-0.352138
C39	C	0.949139	-0.860986	-0.351980
C40	C	0.948676	-0.891699	-0.237009
C41	C	1.071274	-0.891393	-0.237306
C42	C	1.071208	-0.976336	-0.320367
C43	C	0.948601	-0.975938	-0.321817
C44	C	1.234342	-0.909773	-0.303360
C45	C	1.116512	-0.909745	-0.303375
C46	C	0.510825	-0.909760	-0.467528
C47	C	0.510815	-0.909782	-0.537496
C48	C	0.510875	-0.073898	-0.303355
C49	C	0.510871	-0.143866	-0.303352
C50	C	0.443018	-0.950063	-0.570374
C51	C	0.442972	-0.950063	-0.636116
C52	C	0.510742	-0.909787	-0.668978
C53	C	0.578545	-0.869498	-0.636093
C54	C	0.578581	-0.869496	-0.570351
N55	N	0.603479	-0.904935	-0.772203
N56	N	0.603441	-0.904941	-0.834655
C57	C	0.510635	-0.909791	-0.867053
N58	N	0.417866	-0.914648	-0.834641
N59	N	0.417904	-0.914645	-0.772184
C60	C	0.510710	-0.909785	-0.740264
C61	C	0.442782	-0.950074	-0.971217
C62	C	0.442734	-0.950068	-1.036960
C63	C	0.578316	-0.869507	-1.036936
C64	C	0.578354	-0.869509	-0.971193
C65	C	0.510589	-0.909796	-0.938338
C66	C	0.510793	-0.909692	-0.139786
C67	C	0.510504	-0.909792	-0.069818
H68	H	0.634038	-0.149986	-0.376277
H69	H	0.633788	-0.836691	-0.543583
C70	C	0.653417	-0.278647	-0.387754
H71	H	0.693847	-0.249660	-0.411700
H72	H	0.699548	-0.304275	-0.363634
H73	H	0.612910	-0.304311	-0.415219
H74	H	0.919470	-0.989487	-0.370640
H75	H	0.387690	-0.269234	-0.230424
C76	C	1.110033	-0.825634	-0.217867
H77	H	1.185152	-0.824868	-0.217875
H78	H	1.084111	-0.795363	-0.246773
H79	H	1.084757	-0.816106	-0.176952
H80	H	0.387651	-0.670072	-0.230402
H81	H	1.100920	-0.925200	-0.199735
H82	H	0.387758	-0.982863	-0.662890
C83	C	0.368299	-0.140567	-0.218942
H84	H	0.327856	-0.169555	-0.195007
H85	H	0.408784	-0.114896	-0.191478
H86	H	0.322165	-0.114947	-0.243075
C87	C	0.653335	-0.541430	-0.387780
H88	H	0.693754	-0.570426	-0.411723
H89	H	0.612786	-0.515830	-0.415235
H90	H	0.699495	-0.515741	-0.363692
H91	H	0.633569	-0.836711	-0.944424
C92	C	1.110352	-1.025175	-0.272395
H93	H	1.082709	-1.065317	-0.282905
H94	H	1.185420	-1.026668	-0.273107
H95	H	1.087058	-1.013671	-0.231572
H96	H	0.634007	-0.670088	-0.376242
H97	H	0.633720	-0.836704	-0.662853
H98	H	0.387657	-0.550805	-0.230408
C99	C	0.652869	-0.825209	-1.073076
H100	H	0.643145	-0.830982	-1.116939
H101	H	0.637362	-0.782917	-1.062285
H102	H	0.724106	-0.834408	-1.062310
H103	H	0.919506	-0.925924	-0.199683
C104	C	0.908418	-0.876168	-0.418431
H105	H	0.833289	-0.876045	-0.418423
H106	H	0.933608	-0.845416	-0.447063
H107	H	0.933225	-0.916417	-0.430800
C108	C	1.111586	-0.876201	-0.418797
H109	H	1.155918	-0.912184	-0.417490
H110	H	1.052974	-0.884215	-0.445537
H111	H	1.150538	-0.841428	-0.434480
H112	H	0.917942	-1.013999	-0.288887
H113	H	1.102592	-0.812164	-0.341024
C114	C	0.909627	-0.794306	-0.336763
H115	H	0.968504	-0.767258	-0.330648
H116	H	0.867912	-0.779186	-0.370633
H117	H	0.868101	-0.795335	-0.299606
H118	H	0.918056	-0.843533	-0.222353
H119	H	1.102070	-0.992718	-0.367922
C120	C	0.368471	-0.994372	-0.534236
H121	H	0.328080	-1.018358	-0.563236
H122	H	0.409040	-1.021785	-0.508603
H123	H	0.322283	-0.970302	-0.508579
H124	H	0.387598	-0.982874	-0.944464
C125	C	0.368154	-0.994380	-1.073126
H126	H	0.327811	-1.018376	-1.044140
H127	H	0.321939	-0.970319	-1.098758
H128	H	0.408709	-1.021795	-1.098786
