data_functionalizedCrystal
_audit_creation_method	'MofGen! by Chris Wilmer'
_symmetry_space_group_name_H-M	'P1'
_symmetry_Int_Tables_number	1
_symmetry_cell_setting	triclinic
loop_
_symmetry_equiv_pos_as_xyz
  x,y,z
_cell_length_a	16.120530
_cell_length_b	12.645330
_cell_length_c	16.120297
_cell_angle_alpha	92.874885
_cell_angle_beta	90.128140
_cell_angle_gamma	87.108294
loop_
_atom_site_label
_atom_site_type_symbol
_atom_site_fract_x
_atom_site_fract_y
_atom_site_fract_z
Zn1	Zn	1.247519	-0.537082	-0.534581
Zn2	Zn	1.254495	-0.705845	-0.395529
Zn3	Zn	1.115507	-0.519169	-0.388499
Zn4	Zn	1.108451	-0.704868	-0.527498
O5	O	1.181493	-0.616741	-0.461527
O6	O	1.364812	-0.567375	-0.522042
O7	O	1.241930	-0.673993	-0.278231
O8	O	1.133052	-0.373201	-0.407899
O9	O	1.369937	-0.691364	-0.419881
O10	O	1.230041	-0.386362	-0.515225
O11	O	1.139816	-0.536843	-0.273066
O12	O	0.998204	-0.535896	-0.401031
O13	O	1.121027	-0.689700	-0.644804
O14	O	0.993020	-0.672329	-0.503153
O15	O	1.223200	-0.566428	-0.650008
O16	O	1.235089	-0.854059	-0.413013
O17	O	1.127791	-0.853342	-0.509970
C18	C	0.965439	-0.602064	-0.450561
C19	C	0.873009	-0.595812	-0.445890
C20	C	1.181453	-0.892167	-0.461505
C21	C	1.181510	-1.010002	-0.461528
C22	C	0.703778	-0.584372	-0.437368
C23	C	0.660046	-0.649192	-0.485747
C24	C	0.565880	-0.642827	-0.481005
C25	C	0.797952	-0.590736	-0.442108
C26	C	1.248914	-1.177958	-0.400396
C27	C	1.249115	-1.055422	-0.400564
C28	C	1.200830	-1.061367	-0.550384
C29	C	1.201356	-1.183979	-0.550068
C30	C	1.094716	-1.169992	-0.434665
C31	C	1.095237	-1.047295	-0.432721
C32	C	1.398391	-0.631476	-0.472536
C33	C	1.490820	-0.637756	-0.477228
C34	C	1.170548	-0.629953	-0.678422
C35	C	1.165884	-0.635584	-0.770849
C36	C	1.181556	-0.340242	-0.461568
C37	C	1.181582	-0.222415	-0.461586
C38	C	1.157338	-0.645837	-0.940074
C39	C	1.205813	-0.587338	-0.983840
C40	C	1.201058	-0.593044	-1.078003
C41	C	1.162092	-0.640133	-0.845903
C42	C	1.192444	-0.603507	-0.245479
C43	C	1.197269	-0.597589	-0.153060
H44	H	0.693327	-0.709464	-0.530727
Br45	Br	1.280956	-0.496746	-0.928428
Br46	Br	1.082221	-0.736452	-0.995489
Br47	Br	1.070815	-0.990347	-0.323696
H48	H	1.237542	-1.020427	-0.334818
Br49	Br	0.648310	-0.483917	-0.362403
Br50	Br	1.229959	-1.218900	-0.290509
H51	H	1.313002	-1.213986	-0.418372
H52	H	1.313544	-1.031346	-0.418724
Br53	Br	1.122757	-1.233456	-0.629034
Br54	Br	1.306964	-1.240724	-0.587213
H55	H	1.153089	-1.032173	-0.597388
H56	H	1.263450	-1.036079	-0.572950
H57	H	1.076289	-1.195686	-0.370767
H58	H	1.044603	-1.198637	-0.479177
Br59	Br	1.007707	-0.995025	-0.500958
