data_functionalizedCrystal
_audit_creation_method	'MofGen! by Chris Wilmer'
_symmetry_space_group_name_H-M	'P1'
_symmetry_Int_Tables_number	1
_symmetry_cell_setting	triclinic
loop_
_symmetry_equiv_pos_as_xyz
  x,y,z
_cell_length_a	19.188931
_cell_length_b	10.654541
_cell_length_c	9.730217
_cell_angle_alpha	90.003041
_cell_angle_beta	90.000126
_cell_angle_gamma	96.185645
loop_
_atom_site_label
_atom_site_type_symbol
_atom_site_fract_x
_atom_site_fract_y
_atom_site_fract_z
O1	O	0.927166	-0.156778	-0.114240
O2	O	0.723993	-0.177883	-0.114253
O3	O	0.830252	0.015508	-0.114238
O4	O	0.820907	-0.350169	-0.114255
O5	O	0.830249	0.015509	0.114342
O6	O	0.723990	-0.177882	0.114327
O7	O	0.927163	-0.156776	0.114340
Zn8	Zn	0.825576	-0.167329	0.150625
Zn9	Zn	0.825580	-0.167331	-0.150539
O10	O	0.820904	-0.350167	0.114325
C11	C	0.697976	-0.177199	0.000035
C12	C	0.620458	-0.175147	0.000030
C13	C	0.829565	0.062292	0.000051
C14	C	0.827513	0.201692	0.000049
C15	C	0.953180	-0.157461	0.000049
C16	C	1.030698	-0.159512	0.000045
C17	C	1.074880	-0.046037	0.000038
C18	C	1.147717	-0.047964	0.000046
C19	C	1.176368	-0.163374	0.000034
C20	C	1.132176	-0.276864	0.000048
C21	C	1.059341	-0.274933	0.000053
N22	N	1.284940	-0.251591	-0.077784
N23	N	1.354131	-0.253417	-0.077792
C24	C	1.395814	-0.169198	0.000020
N25	N	1.365695	-0.083064	0.077822
N26	N	1.296498	-0.081234	0.077825
C27	C	1.255344	-0.165480	0.000028
C28	C	1.518975	-0.057805	0.000024
C29	C	1.591812	-0.059737	0.000041
C30	C	1.576269	-0.288640	0.000028
C31	C	1.503434	-0.286704	0.000025
C32	C	1.474791	-0.171283	0.000017
C33	C	0.821592	-0.396952	0.000033
C34	C	0.823643	-0.536352	0.000026
N35	N	0.825578	-0.167326	0.356162
C36	C	0.954574	0.232352	0.000075
C37	C	1.017138	0.313170	0.000090
C38	C	1.015206	0.444147	0.000086
C39	C	0.950703	0.494307	0.000062
C40	C	0.888139	0.413489	0.000046
C41	C	0.890078	0.282511	0.000055
C42	C	0.761079	0.382830	0.000010
C43	C	0.763010	0.251852	0.000025
C44	C	0.696577	0.432990	-0.000014
C45	C	0.634011	0.352172	-0.000020
C46	C	0.635946	0.221187	-0.000014
C47	C	0.700446	0.171034	0.000009
N48	N	0.825584	-0.167323	-0.356075
C49	C	0.919709	0.003873	0.356166
C50	C	0.966779	0.089468	0.428108
C51	C	0.966786	0.089469	0.571988
C52	C	0.919717	0.003868	0.643929
C53	C	0.872647	-0.081728	0.571987
C54	C	0.872646	-0.081722	0.428104
C55	C	0.778513	-0.252919	0.571983
C56	C	0.778508	-0.252928	0.428103
C57	C	0.731444	-0.338521	0.643924
C58	C	0.684376	-0.424125	0.571982
C59	C	0.684371	-0.424123	0.428093
C60	C	0.731438	-0.338524	0.356161
H61	H	1.183697	0.044444	0.000037
H62	H	0.731441	-0.338519	0.239006
C63	C	1.487460	0.069151	0.000033
C64	C	1.439521	0.101947	0.118729
C65	C	1.408007	0.228902	0.118740
C66	C	1.424432	0.323061	0.000055
C67	C	1.472373	0.290267	-0.118649
C68	C	1.503887	0.163312	-0.118660
H69	H	1.427360	0.032243	0.206594
H70	H	1.372518	0.253177	0.206613
H71	H	1.401104	0.417040	0.000063
H72	H	1.484534	0.359971	-0.206514
H73	H	1.539376	0.139037	-0.206533
C74	C	1.163689	-0.403816	0.000027
C75	C	1.211632	-0.436617	0.118710
C76	C	1.243144	-0.563573	0.118695
C77	C	1.226714	-0.657728	-0.000002
C78	C	1.178768	-0.624929	-0.118694
C79	C	1.147256	-0.497973	-0.118679
H80	H	1.223796	-0.366916	0.206585
H81	H	1.278636	-0.587853	0.206559
H82	H	1.250041	-0.751708	-0.000013
H83	H	1.166604	-0.694630	-0.206569
H84	H	1.111764	-0.473693	-0.206543
H85	H	1.627785	0.032673	0.000045
C86	C	0.563066	0.407351	-0.000049
C87	C	0.510910	0.376723	0.118635
C88	C	0.439964	0.431909	0.118607
C89	C	0.421173	0.517724	-0.000105
C90	C	0.473329	0.548356	-0.118798
C91	C	0.544276	0.493170	-0.118770
H92	H	0.524819	0.313194	0.206521
H93	H	0.401354	0.409232	0.206472
H94	H	0.368654	0.558576	-0.000126
H95	H	0.459420	0.611885	-0.206684
H96	H	0.582886	0.515847	-0.206635
C97	C	1.088088	0.257989	0.000125
C98	C	1.140224	0.288655	0.118838
C99	C	1.211173	0.233479	0.118871
C100	C	1.229987	0.147637	0.000192
C101	C	1.177850	0.116967	-0.118530
C102	C	1.106900	0.172143	-0.118563
H103	H	1.126298	0.352204	0.206700
H104	H	1.249768	0.256183	0.206758
H105	H	1.282507	0.106792	0.000217
H106	H	1.191775	0.053417	-0.206392
H107	H	1.068305	0.149439	-0.206450
H108	H	1.005112	0.159173	0.630564
H109	H	0.695008	0.539640	-0.000026
H110	H	1.599596	-0.382609	0.000026
H111	H	1.023367	-0.367342	0.000060
H112	H	1.051565	0.047948	0.000036
H113	H	1.467459	-0.379109	0.000022
H114	H	0.956154	0.125705	0.000097
H115	H	0.584998	0.155391	-0.000032
H116	H	1.066151	0.509950	0.000088
H117	H	0.919720	0.003884	0.761084
H118	H	0.949136	0.600957	0.000041
H119	H	0.702028	0.064388	0.000022
H120	H	0.731449	-0.338511	0.761078
H121	H	0.646052	-0.493810	0.630565
H122	H	0.919714	0.003870	0.239012
H123	H	1.005102	0.159167	0.369521
H124	H	0.646038	-0.493821	0.369526
