data_functionalizedCrystal
_audit_creation_method	'MofGen! by Chris Wilmer'
_symmetry_space_group_name_H-M	'P1'
_symmetry_Int_Tables_number	1
_symmetry_cell_setting	triclinic
loop_
_symmetry_equiv_pos_as_xyz
  x,y,z
_cell_length_a	10.723024
_cell_length_b	9.198806
_cell_length_c	19.188930
_cell_angle_alpha	89.991701
_cell_angle_beta	96.193675
_cell_angle_gamma	90.003648
loop_
_atom_site_label
_atom_site_type_symbol
_atom_site_fract_x
_atom_site_fract_y
_atom_site_fract_z
O1	O	1.655155	0.120901	-0.097922
O2	O	2.155155	0.620901	0.402078
O3	O	1.291808	0.120908	-0.107295
O4	O	1.791808	0.620908	0.392705
O5	O	1.483967	0.120876	-0.001021
O6	O	1.983967	0.620876	0.498979
O7	O	1.462996	0.120933	-0.204196
O8	O	1.962996	0.620933	0.295804
O9	O	1.483952	-0.120909	-0.001021
O10	O	1.983952	0.379091	0.498979
O11	O	1.291793	-0.120877	-0.107295
O12	O	1.791793	0.379123	0.392705
O13	O	1.655140	-0.120884	-0.097922
O14	O	2.155140	0.379116	0.402078
Cu15	Cu	1.473465	-0.142957	-0.102608
Cu16	Cu	1.973465	0.357043	0.397392
Cu17	Cu	1.473483	0.142982	-0.102609
Cu18	Cu	1.973483	0.642982	0.397391
O19	O	1.462981	-0.120852	-0.204196
O20	O	1.962981	0.379148	0.295804
C21	C	1.245315	0.000016	-0.106613
C22	C	1.745315	0.500016	0.393387
C23	C	1.106803	0.000017	-0.104572
C24	C	1.606803	0.500017	0.395428
N25	N	1.473462	-0.344071	-0.102608
N26	N	1.973462	0.155929	0.397392
C27	C	0.916362	0.000002	-0.041179
C28	C	1.416362	0.500002	0.458821
C29	C	1.059522	0.000001	-0.043287
C30	C	1.559522	0.500001	0.456713
C31	C	1.483280	-0.000021	0.024995
C32	C	1.983280	0.499979	0.524995
C33	C	1.481242	-0.000033	0.102512
C34	C	1.981242	0.499967	0.602512
C35	C	1.701633	0.000012	-0.098604
C36	C	2.201633	0.500012	0.401396
C37	C	1.840145	0.000020	-0.100645
C38	C	2.340145	0.500020	0.399355
C39	C	1.554148	-0.416282	-0.057789
C40	C	2.054148	0.083718	0.442211
C41	C	1.554167	-0.583694	-0.057787
C42	C	2.054167	-0.083694	0.442213
N43	N	1.473496	0.344096	-0.102604
N44	N	1.973496	0.844096	0.397396
C45	C	1.463668	0.000048	-0.230211
C46	C	1.963668	0.500048	0.269789
C47	C	1.465706	0.000070	-0.307729
C48	C	1.965706	0.500070	0.192271
C49	C	1.593994	-0.000042	0.146704
C50	C	2.093994	0.499958	0.646704
C51	C	1.592079	-0.000019	0.219540
C52	C	2.092079	0.499981	0.719540
C53	C	1.477405	-0.000016	0.248182
C54	C	1.977405	0.499984	0.748182
C55	C	1.364638	0.000002	0.203981
C56	C	1.864638	0.500002	0.703981
C57	C	1.366556	-0.000007	0.131146
C58	C	1.866556	0.499993	0.631146
N59	N	1.389745	-0.082298	0.356756
N60	N	1.889745	0.417702	0.856756
N61	N	1.387930	-0.082293	0.425947
N62	N	1.887930	0.417707	0.925947
C63	C	1.471618	0.000014	0.467628
C64	C	1.971618	0.500014	0.967628
N65	N	1.557208	0.082297	0.437506
N66	N	2.057208	0.582297	0.937506
N67	N	1.559026	0.082285	0.368310
N68	N	2.059026	0.582285	0.868310
C69	C	1.475312	-0.000005	0.327158
C70	C	1.975312	0.499995	0.827158
C71	C	1.582302	0.000032	0.590797
C72	C	2.082302	0.500032	1.090797
C73	C	1.580382	0.000065	0.663634
C74	C	2.080382	0.500065	1.163634
C75	C	1.352937	0.000070	0.648073
C76	C	1.852937	0.500070	1.148073
C77	C	1.354860	0.000053	0.575238
C78	C	1.854860	0.500053	1.075238
C79	C	1.469546	0.000027	0.546604
C80	C	1.969546	0.500027	1.046604
H81	H	0.875629	-0.000034	0.011292
H82	H	1.375629	0.499966	0.511292
H83	H	1.125011	-0.000005	0.007620
H84	H	1.625011	0.499995	0.507620
H85	H	1.404393	-0.406188	-0.140974
H86	H	1.904393	0.093812	0.359026
Cl87	Cl	1.224798	0.000003	0.075588
Cl88	Cl	1.724798	0.500003	0.575588
Cl89	Cl	1.220476	0.000017	0.239986
Cl90	Cl	1.720476	0.500017	0.739986
H91	H	1.623250	-0.645792	-0.019419
H92	H	2.123250	-0.145792	0.480581
Cl93	Cl	1.366842	-0.560046	-0.161854
Cl94	Cl	1.866842	-0.060046	0.338146
H95	H	0.880878	0.000026	-0.153116
H96	H	1.380878	0.500026	0.346884
Cl97	Cl	1.738170	-0.000034	0.110711
Cl98	Cl	2.238170	0.499966	0.610711
Cl99	Cl	1.726475	-0.000009	0.554797
Cl100	Cl	2.226475	0.499991	1.054797
H101	H	1.041321	0.000038	-0.155482
H102	H	1.541321	0.500038	0.344518
Cl103	Cl	1.733836	-0.000029	0.275105
Cl104	Cl	2.233836	0.499971	0.775105
Cl105	Cl	1.660502	-0.320389	0.001610
Cl106	Cl	2.160502	0.179611	0.501610
Cl107	Cl	1.722142	0.000063	0.719191
Cl108	Cl	2.222142	0.500063	1.219191
Cl109	Cl	1.208773	0.000083	0.684073
Cl110	Cl	1.708773	0.500083	1.184073
Cl111	Cl	1.213105	0.000057	0.519680
Cl112	Cl	1.713105	0.500057	1.019680
