data_functionalizedCrystal
_audit_creation_method	'MofGen! by Chris Wilmer'
_symmetry_space_group_name_H-M	'P1'
_symmetry_Int_Tables_number	1
_symmetry_cell_setting	triclinic
loop_
_symmetry_equiv_pos_as_xyz
  x,y,z
_cell_length_a	25.639242
_cell_length_b	16.959455
_cell_length_c	16.959447
_cell_angle_alpha	89.985678
_cell_angle_beta	90.020634
_cell_angle_gamma	89.996868
loop_
_atom_site_label
_atom_site_type_symbol
_atom_site_fract_x
_atom_site_fract_y
_atom_site_fract_z
Zn1	Zn	0.208183	1.208460	-0.446962
Zn2	Zn	0.708183	1.708460	0.053038
Zn3	Zn	0.295624	1.208415	-0.314806
Zn4	Zn	0.795624	1.708415	0.185194
Zn5	Zn	0.208199	1.076289	-0.314799
Zn6	Zn	0.708199	1.576289	0.185201
Zn7	Zn	0.295585	1.076285	-0.446944
Zn8	Zn	0.795585	1.576285	0.053056
O9	O	0.251898	1.142362	-0.380878
O10	O	0.751898	1.642362	0.119122
O11	O	0.219792	1.319065	-0.429441
O12	O	0.719792	1.819065	0.070559
O13	O	0.284050	1.190870	-0.204194
O14	O	0.784050	1.690870	0.295806
O15	O	0.135032	1.093842	-0.332336
O16	O	0.635032	1.593842	0.167664
O17	O	0.284034	1.319032	-0.332347
O18	O	0.784034	1.819032	0.167653
O19	O	0.135020	1.190948	-0.429435
O20	O	0.635020	1.690948	0.070565
O21	O	0.219820	1.093798	-0.204189
O22	O	0.719820	1.593798	0.295811
O23	O	0.219782	0.965677	-0.332319
O24	O	0.719782	1.465677	0.167681
O25	O	0.283967	1.093836	-0.557558
O26	O	0.783967	1.593836	-0.057558
O27	O	0.283983	0.965675	-0.429405
O28	O	0.783983	1.465675	0.070595
O29	O	0.219754	1.190944	-0.557571
O30	O	0.719754	1.690944	-0.057571
O31	O	0.368784	1.190867	-0.332329
O32	O	0.868784	1.690867	0.167671
O33	O	0.368755	1.093792	-0.429411
O34	O	0.868755	1.593792	0.070589
C35	C	0.251880	0.936996	-0.380860
C36	C	0.751880	1.436996	0.119140
C37	C	0.251886	0.849139	-0.380871
C38	C	0.751886	1.349139	0.119129
C39	C	0.115525	1.142400	-0.380887
C40	C	0.615525	1.642400	0.119113
C41	C	0.057411	1.142416	-0.380890
C42	C	0.557411	1.642416	0.119110
C43	C	0.218441	0.477640	-0.330431
C44	C	0.718441	0.977640	0.169569
C45	C	0.285398	0.477687	-0.431370
C46	C	0.785398	0.977687	0.068630
C47	C	0.285390	0.560233	-0.431366
C48	C	0.785390	1.060233	0.068634
C49	C	0.251908	0.601486	-0.380892
C50	C	0.751908	1.101486	0.119108
C51	C	0.218433	0.560194	-0.330422
C52	C	0.718433	1.060194	0.169578
C53	C	0.318868	0.601531	-0.481828
C54	C	0.818868	1.101531	0.018172
C55	C	0.318862	0.684082	-0.481825
C56	C	0.818862	1.184082	0.018175
C57	C	0.285377	0.725337	-0.431354
C58	C	0.785377	1.225337	0.068646
C59	C	0.251901	0.684040	-0.380884
C60	C	0.751901	1.184040	0.119116
C61	C	0.218418	0.725293	-0.330410
C62	C	0.718418	1.225293	0.169590
C63	C	0.184939	0.683998	-0.279943
C64	C	0.684939	1.183998	0.220057
C65	C	0.184948	0.601449	-0.279952
C66	C	0.684948	1.101449	0.220048
C67	C	0.285368	0.807886	-0.431345
C68	C	0.785368	1.307886	0.068655
C69	C	0.218411	0.807847	-0.330402
C70	C	0.718411	1.307847	0.169598
C71	C	-0.302952	1.091842	-0.330356
C72	C	0.197048	1.591842	0.169644
C73	C	-0.357556	1.091841	-0.330360
C74	C	0.142444	1.591841	0.169640
O75	O	-0.385792	1.048826	-0.287389
O76	O	0.114208	1.548826	0.212611
N77	N	-0.384872	1.142401	-0.380913
N78	N	0.115128	1.642401	0.119087
C79	C	-0.357581	1.192960	-0.431471
C80	C	0.142419	1.692960	0.068529
O81	O	-0.385829	1.235964	-0.474472
O82	O	0.114171	1.735964	0.025528
C83	C	-0.302977	1.192956	-0.431471
C84	C	0.197023	1.692956	0.068529
C85	C	-0.275664	1.142398	-0.380909
C86	C	0.224336	1.642398	0.119091
C87	C	-0.275639	1.041287	-0.279799
C88	C	0.224361	1.541287	0.220201
C89	C	-0.221038	1.041289	-0.279794
C90	C	0.278962	1.541289	0.220206
C91	C	-0.193751	1.091846	-0.330347
C92	C	0.306249	1.591846	0.169653
C93	C	-0.221064	1.142400	-0.380904
C94	C	0.278936	1.642400	0.119096
C95	C	-0.275687	1.243510	-0.482033
C96	C	0.224313	1.743510	0.017967
C97	C	-0.221080	1.243502	-0.482028
C98	C	0.278920	1.743502	0.017972
C99	C	-0.193767	1.192944	-0.431466
C100	C	0.306233	1.692944	0.068534
C101	C	-0.139176	1.192959	-0.431452
C102	C	0.360824	1.692959	0.068548
N103	N	-0.111860	1.142399	-0.380899
N104	N	0.388140	1.642399	0.119101
C105	C	-0.139147	1.091842	-0.330347
C106	C	0.360853	1.591842	0.169653
C107	C	-0.472251	1.192963	-0.431469
C108	C	0.027749	1.692963	0.068531
C109	C	-0.526853	1.192971	-0.431466
C110	C	-0.026853	1.692971	0.068534
C111	C	-0.526825	1.091851	-0.330356
C112	C	-0.026825	1.591851	0.169644
C113	C	-0.472222	1.091847	-0.330355
C114	C	0.027778	1.591847	0.169645
C115	C	-0.444935	1.142402	-0.380916
C116	C	0.055065	1.642402	0.119084
C117	C	-0.024482	1.091851	-0.330340
C118	C	0.475518	1.591851	0.169660
C119	C	0.030123	1.091860	-0.330338
C120	C	0.530123	1.591860	0.169662
C121	C	0.030090	1.192977	-0.431451
C122	C	0.530090	1.692977	0.068549
C123	C	-0.024510	1.192971	-0.431451
C124	C	0.475490	1.692971	0.068549
C125	C	-0.051795	1.142402	-0.380893
C126	C	0.448205	1.642402	0.119107
O127	O	-0.110905	1.235949	-0.474404
O128	O	0.389095	1.735949	0.025596
O129	O	-0.110893	1.048837	-0.287361
O130	O	0.389107	1.548837	0.212639
C131	C	0.387740	1.142346	-0.380886
C132	C	0.887740	1.642346	0.119114
C133	C	0.445854	1.142411	-0.380916
C134	C	0.945854	1.642411	0.119084
C135	C	0.251854	1.142395	-0.587046
C136	C	0.751854	1.642395	-0.087046
C137	C	0.251836	1.142409	-0.674903
C138	C	0.751836	1.642409	-0.174903
C139	C	0.251915	1.348530	-0.380896
C140	C	0.751915	1.848530	0.119104
C141	C	0.251923	1.436387	-0.380904
C142	C	0.751923	1.936387	0.119096
C143	C	0.285214	1.091944	-1.046374
C144	C	0.785214	1.591944	-0.546374
C145	C	0.218348	1.193063	-1.046383
C146	C	0.718348	1.693063	-0.546383
C147	C	0.218359	1.193042	-0.963837
C148	C	0.718359	1.693042	-0.463837
C149	C	0.251798	1.142472	-0.922556
C150	C	0.751798	1.642472	-0.422556
C151	C	0.285227	1.091923	-0.963821
C152	C	0.785227	1.591923	-0.463821
C153	C	0.184935	1.243596	-0.922566
C154	C	0.684935	1.743596	-0.422566
C155	C	0.184945	1.243578	-0.840015
C156	C	0.684945	1.743578	-0.340015
C157	C	0.218382	1.193003	-0.798732
C158	C	0.718382	1.693003	-0.298732
C159	C	0.251812	1.142451	-0.840002
C160	C	0.751812	1.642451	-0.340002
C161	C	0.285251	1.091881	-0.798721
C162	C	0.785251	1.591881	-0.298721
C163	C	0.318679	1.041324	-0.839990
C164	C	0.818679	1.541324	-0.339990
C165	C	0.318664	1.041348	-0.922538
C166	C	0.818664	1.541348	-0.422538
C167	C	0.218396	1.192979	-0.716184
C168	C	0.718396	1.692979	-0.216184
C169	C	0.285264	1.091860	-0.716168
C170	C	0.785264	1.591860	-0.216168
C171	C	0.251903	1.142375	-0.175512
C172	C	0.751903	1.642375	0.324488
C173	C	0.251774	1.142514	-0.087655
C174	C	0.751774	1.642514	0.412345
H175	H	0.191142	0.841430	-0.289304
H176	H	0.691142	1.341430	0.210696
H177	H	0.191181	0.444014	-0.289344
H178	H	0.691181	0.944014	0.210656
H179	H	0.346123	0.717698	-0.522919
H180	H	0.846123	1.217698	-0.022919
H181	H	0.345881	1.000190	-0.956146
H182	H	0.845881	1.500190	-0.456146
H183	H	0.312491	1.050671	-0.682562
H184	H	0.812491	1.550671	-0.182562
H185	H	0.345907	1.000153	-0.806368
H186	H	0.845907	1.500153	-0.306368
H187	H	0.191182	1.234144	-0.682587
H188	H	0.691182	1.734144	-0.182587
H189	H	-0.297852	1.000114	-0.238633
H190	H	0.202148	1.500114	0.261367
H191	H	0.312428	1.050779	-1.079979
H192	H	0.812428	1.550779	-0.579979
H193	H	0.191126	1.234240	-1.079999
H194	H	0.691126	1.734240	-0.579999
F195	F	-0.053513	1.038030	-0.276530
F196	F	0.446487	1.538030	0.223470
H197	H	0.157680	0.717597	-0.238843
H198	H	0.657680	1.217597	0.261157
H199	H	0.312661	0.444093	-0.472459
H200	H	0.812661	0.944093	0.027541
F201	F	-0.555876	1.038042	-0.276554
F202	F	-0.055876	1.538042	0.223446
F203	F	-0.191977	0.987473	-0.225983
F204	F	0.308023	1.487473	0.274017
F205	F	0.149352	1.297418	-0.966504
F206	F	0.649352	1.797418	-0.466504
H207	H	0.157691	0.567819	-0.238863
H208	H	0.657691	1.067819	0.261137
F209	F	-0.443158	1.038036	-0.276542
F210	F	0.056842	1.538036	0.223458
H211	H	0.346131	0.567936	-0.522915
H212	H	0.846131	1.067936	-0.022915
H213	H	0.312628	0.841505	-0.472432
H214	H	0.812628	1.341505	0.027568
F215	F	0.059188	1.038048	-0.276519
F216	F	0.559188	1.538048	0.223481
H217	H	0.157726	1.284744	-0.806421
H218	H	0.657726	1.784744	-0.306421
F219	F	0.059141	1.246781	-0.485249
F220	F	0.559141	1.746781	0.014751
H221	H	-0.450038	1.234136	-0.472642
H222	H	0.049962	1.734136	0.027358
F223	F	-0.304744	1.297320	-0.535851
F224	F	0.195256	1.797320	-0.035851
F225	F	-0.555916	1.246791	-0.485271
F226	F	-0.055916	1.746791	0.014729
F227	F	-0.192043	1.297311	-0.535844
F228	F	0.307957	1.797311	-0.035844
F229	F	-0.053580	1.246790	-0.485254
F230	F	0.446420	1.746790	0.014746
