data_functionalizedCrystal
_audit_creation_method	'MofGen! by Chris Wilmer'
_symmetry_space_group_name_H-M	'P1'
_symmetry_Int_Tables_number	1
_symmetry_cell_setting	triclinic
loop_
_symmetry_equiv_pos_as_xyz
  x,y,z
_cell_length_a	19.288840
_cell_length_b	10.540510
_cell_length_c	18.366186
_cell_angle_alpha	89.996284
_cell_angle_beta	89.983729
_cell_angle_gamma	83.819664
loop_
_atom_site_label
_atom_site_type_symbol
_atom_site_fract_x
_atom_site_fract_y
_atom_site_fract_z
O1	O	0.922410	0.158196	-0.060668
O2	O	1.422410	0.658196	0.439332
O3	O	0.720289	0.179590	-0.060642
O4	O	1.220289	0.679590	0.439358
O5	O	0.825971	-0.015920	-0.060655
O6	O	1.325971	0.484080	0.439345
O7	O	0.816727	0.353705	-0.060654
O8	O	1.316727	0.853705	0.439346
O9	O	0.825953	-0.015930	0.060444
O10	O	1.325953	0.484070	0.560444
O11	O	0.720270	0.179580	0.060458
O12	O	1.220270	0.679580	0.560458
O13	O	0.922392	0.158186	0.060432
O14	O	1.422392	0.658186	0.560432
Zn15	Zn	0.821328	0.168882	0.079672
Zn16	Zn	1.321328	0.668882	0.579672
Zn17	Zn	0.821352	0.168894	-0.079882
Zn18	Zn	1.321352	0.668894	0.420118
O19	O	0.816709	0.353696	0.060445
O20	O	1.316709	0.853696	0.560445
C21	C	0.694398	0.178902	-0.000089
C22	C	1.194398	0.678902	0.499911
C23	C	0.617280	0.176851	-0.000079
C24	C	1.117280	0.676851	0.499921
C25	C	0.581080	0.175871	-0.066092
C26	C	1.081080	0.675871	0.433908
C27	C	0.508620	0.173931	-0.066101
C28	C	1.008620	0.673931	0.433899
C29	C	0.472365	0.172944	-0.000093
C30	C	0.972365	0.672944	0.499907
C31	C	0.508574	0.173931	0.065929
C32	C	1.008574	0.673931	0.565929
C33	C	0.581031	0.175885	0.065936
C34	C	1.081031	0.675885	0.565936
C35	C	0.362518	0.095496	0.050468
C36	C	0.862518	0.595496	0.550468
C37	C	0.290062	0.093535	0.050458
C38	C	0.790062	0.593535	0.550458
C39	C	0.248882	0.166924	-0.000112
C40	C	0.748882	0.666924	0.499888
C41	C	0.280167	0.242259	-0.050685
C42	C	0.780167	0.742259	0.449315
C43	C	0.352625	0.244212	-0.050678
C44	C	0.852625	0.744212	0.449322
C45	C	0.393797	0.170826	-0.000094
C46	C	0.893797	0.670826	0.499906
C47	C	0.134112	0.163842	-0.066140
C48	C	0.634112	0.663842	0.433860
C49	C	0.061651	0.161909	-0.066146
C50	C	0.561651	0.661909	0.433854
C51	C	0.061606	0.161897	0.065886
C52	C	0.561606	0.661897	0.565886
C53	C	0.134066	0.163842	0.065890
C54	C	0.634066	0.663842	0.565890
C55	C	0.170315	0.164809	-0.000125
C56	C	0.670315	0.664809	0.499875
C57	C	0.825273	-0.063213	-0.000107
C58	C	1.325273	0.436787	0.499893
C59	C	0.823212	-0.204117	-0.000111
C60	C	1.323212	0.295883	0.499889
C61	C	0.896630	-0.423220	0.000157
C62	C	1.396630	0.076780	0.500157
C63	C	0.898828	-0.276674	-0.000120
C64	C	1.398828	0.223326	0.499880
C65	C	0.784515	-0.248001	-0.069258
C66	C	1.284515	0.251999	0.430742
C67	C	0.782852	-0.394724	-0.069312
C68	C	1.282852	0.105276	0.430688
C69	C	0.781257	-0.394508	0.068401
C70	C	1.281257	0.105492	0.568401
C71	C	0.784843	-0.248248	0.069311
C72	C	1.284843	0.251752	0.569311
C73	C	0.948282	0.158874	-0.000123
C74	C	1.448282	0.658874	0.499877
C75	C	1.025400	0.160924	-0.000137
C76	C	1.525400	0.660924	0.499863
C77	C	0.817407	0.400989	-0.000105
C78	C	1.317407	0.900989	0.499895
C79	C	0.819468	0.541892	-0.000106
C80	C	1.319468	1.041892	0.499894
N81	N	0.821317	0.168872	0.188563
N82	N	1.321317	0.668872	0.688563
N83	N	0.821369	0.168893	-0.188773
N84	N	1.321369	0.668893	0.311227
C85	C	0.868129	0.082343	0.226658
C86	C	1.368129	0.582343	0.726658
C87	C	0.868133	0.082337	0.302885
C88	C	1.368133	0.582337	0.802885
C89	C	0.821332	0.168883	0.341016
C90	C	1.321332	0.668883	0.841016
C91	C	0.774512	0.255419	0.302912
C92	C	1.274512	0.755419	0.802912
C93	C	0.774504	0.255413	0.226686
C94	C	1.274504	0.755413	0.726686
C95	C	0.812799	0.284540	0.461777
C96	C	1.312799	0.784540	0.961777
C97	C	0.812812	0.284547	0.538002
C98	C	1.312812	0.784547	1.038002
C99	C	0.821352	0.168899	0.576123
C100	C	1.321352	0.668899	1.076123
C101	C	0.829895	0.053238	0.538010
C102	C	1.329895	0.553238	1.038010
C103	C	0.829887	0.053233	0.461784
C104	C	1.329887	0.553233	0.961784
C105	C	0.821335	0.168897	0.423670
C106	C	1.321335	0.668897	0.923670
C107	C	0.868172	0.082356	0.696873
C108	C	1.368172	0.582356	1.196873
C109	C	0.868171	0.082349	0.773102
C110	C	1.368171	0.582349	1.273102
C111	C	0.774553	0.255441	0.773127
C112	C	1.274553	0.755441	1.273127
C113	C	0.774550	0.255437	0.696899
C114	C	1.274550	0.755437	1.196899
C115	C	0.821363	0.168896	0.658777
C116	C	1.321363	0.668896	1.158777
H117	H	0.610590	0.176658	-0.119847
H118	H	1.110590	0.676658	0.380153
F119	F	0.256771	0.013381	0.104292
F120	F	0.756771	0.513381	0.604292
H121	H	0.479050	0.173131	0.119673
H122	H	0.979050	0.673131	0.619673
F123	F	0.935128	-0.478926	0.064974
F124	F	1.435128	0.021074	0.564974
F125	F	0.619559	0.176928	0.136199
F126	F	1.119559	0.676928	0.636199
H127	H	0.736434	0.325903	0.665881
H128	H	1.236434	0.825903	1.165881
H129	H	0.906255	0.011872	0.333908
H130	H	1.406255	0.511872	0.833908
F131	F	0.708932	-0.423125	-0.073409
F132	F	1.208932	0.076875	0.426591
H133	H	0.032177	0.161119	-0.119904
H134	H	0.532177	0.661119	0.380096
F135	F	0.707051	-0.421795	0.069021
F136	F	1.207051	0.078205	0.569021
H137	H	0.929107	-0.248014	0.049446
H138	H	1.429107	0.251986	0.549446
F139	F	0.803725	0.407642	0.578557
F140	F	1.303725	0.907642	1.078557
H141	H	0.809313	-0.435530	-0.121008
H142	H	1.309313	0.064470	0.378992
H143	H	0.736404	0.325883	0.333962
H144	H	1.236404	0.825883	0.833962
H145	H	0.396041	0.035730	0.091652
H146	H	0.896041	0.535730	0.591652
H147	H	0.906289	0.011879	0.804119
H148	H	1.406289	0.511879	1.304119
H149	H	0.836841	-0.040942	0.430755
H150	H	1.336841	0.459058	0.930755
H151	H	0.032087	0.161101	0.119631
H152	H	0.532087	0.661101	0.619631
F153	F	0.385918	0.324390	-0.104497
F154	F	0.885918	0.824390	0.395503
F155	F	0.934925	-0.480937	-0.064302
F156	F	1.434925	0.019063	0.435698
F157	F	0.712683	-0.182498	0.074779
F158	F	1.212683	0.317502	0.574779
F159	F	0.172594	0.164879	0.136151
F160	F	0.672594	0.664879	0.636151
H161	H	0.929298	-0.248949	-0.049780
H162	H	1.429298	0.251051	0.450220
F163	F	0.812446	-0.450765	0.136907
F164	F	1.312446	0.049235	0.636907
F165	F	0.724739	0.347541	0.813705
F166	F	1.224739	0.847541	1.313705
H167	H	0.805832	0.378721	0.430745
H168	H	1.305832	0.878721	0.930745
H169	H	0.736383	0.325877	0.195668
H170	H	1.236383	0.825877	0.695668
H171	H	0.163627	0.164642	-0.119893
H172	H	0.663627	0.664642	0.380107
H173	H	0.728848	-0.199362	-0.071822
H174	H	1.228848	0.300638	0.428178
H175	H	0.906288	0.011885	0.665832
H176	H	1.406288	0.511885	1.165832
F177	F	0.236345	0.320376	-0.104508
F178	F	0.736345	0.820376	0.395492
F179	F	0.470086	0.172888	-0.136364
F180	F	0.970086	0.672888	0.363636
H181	H	0.811404	-0.217744	-0.120724
H182	H	1.311404	0.282256	0.379276
F183	F	0.821642	-0.211673	0.136175
F184	F	1.321642	0.288327	0.636175
H185	H	0.906245	0.011873	0.195620
H186	H	1.406245	0.511873	0.695620
H187	H	0.836849	-0.040934	0.569047
H188	H	1.336849	0.459066	1.069047
