data_functionalizedCrystal
_audit_creation_method	'MofGen! by Chris Wilmer'
_symmetry_space_group_name_H-M	'P1'
_symmetry_Int_Tables_number	1
_symmetry_cell_setting	triclinic
loop_
_symmetry_equiv_pos_as_xyz
  x,y,z
_cell_length_a	15.297475
_cell_length_b	16.994731
_cell_length_c	15.296720
_cell_angle_alpha	80.269174
_cell_angle_beta	88.382886
_cell_angle_gamma	80.263931
loop_
_atom_site_label
_atom_site_type_symbol
_atom_site_fract_x
_atom_site_fract_y
_atom_site_fract_z
Zn1	Zn	1.254138	-0.614164	0.727632
Zn2	Zn	1.279538	-0.727795	0.581339
Zn3	Zn	1.132963	-0.569832	0.555798
Zn4	Zn	1.107754	-0.720038	0.702454
O5	O	1.193598	-0.657957	0.641806
O6	O	1.380112	-0.651037	0.729452
O7	O	1.281274	-0.691534	0.455350
O8	O	1.148957	-0.465296	0.578440
O9	O	1.398773	-0.734521	0.621971
O10	O	1.237985	-0.497867	0.704686
O11	O	1.173586	-0.575479	0.436586
O12	O	1.007015	-0.567958	0.554027
O13	O	1.105993	-0.721300	0.828395
O14	O	0.988494	-0.678313	0.661774
O15	O	1.213541	-0.643515	0.846892
O16	O	1.256830	-0.837182	0.597557
O17	O	1.130622	-0.831483	0.686540
C18	C	0.965965	-0.617484	0.602397
C19	C	0.868578	-0.600191	0.585559
C20	C	1.193635	-0.952234	0.641878
C21	C	1.193692	-0.862940	0.642008
Zn22	Zn	1.279328	-1.095793	0.580981
Zn23	Zn	1.254176	-1.246255	0.727306
Zn24	Zn	1.132716	-1.201393	0.555673
Zn25	Zn	1.107746	-1.088189	0.702381
O26	O	1.193491	-1.157907	0.641586
O27	O	1.398630	-1.137708	0.621414
O28	O	1.237988	-1.350649	0.704378
O29	O	1.173141	-1.171792	0.436395
O30	O	1.380152	-1.248252	0.728919
O31	O	1.280856	-1.094208	0.454989
O32	O	1.148752	-1.317689	0.578280
O33	O	1.006765	-1.164420	0.554112
O34	O	1.130582	-0.978853	0.686438
O35	O	0.988419	-1.081249	0.661898
O36	O	1.256643	-0.984439	0.597246
O37	O	1.213776	-1.240880	0.846635
O38	O	1.106194	-1.124750	0.828323
C39	C	0.555650	-0.781559	0.762154
C40	C	0.647150	-0.797813	0.777972
C41	C	0.702511	-0.748408	0.729871
C42	C	0.666364	-0.682748	0.665948
C43	C	0.574856	-0.666497	0.650123
C44	C	0.721718	-0.633346	0.617839
C45	C	0.685571	-0.567686	0.553916
C46	C	0.594072	-0.551438	0.538095
C47	C	0.538710	-0.600842	0.586197
C48	C	0.813225	-0.649598	0.633664
C49	C	0.832432	-0.534536	0.521633
C50	C	0.740932	-0.518282	0.505815
C51	C	1.422121	-0.698589	0.681369
C52	C	1.519504	-0.715904	0.698228
C53	C	1.154122	-0.686488	0.870321
C54	C	1.137299	-0.698645	0.967701
C55	C	1.193444	-0.452150	0.641519
C56	C	1.193380	-0.362799	0.641396
C57	C	1.232972	-0.629490	0.414188
C58	C	1.249964	-0.617140	0.316838
C59	C	1.313864	-0.570930	1.280723
C60	C	1.329675	-0.559509	1.189231
C61	C	1.281583	-0.594292	1.133844
C62	C	1.217676	-0.640498	1.169958
C63	C	1.201868	-0.651925	1.261460
C64	C	1.169587	-0.675287	1.114581
C65	C	1.105680	-0.721493	1.150695
C66	C	1.089875	-0.732918	1.242188
C67	C	1.137968	-0.698135	1.297575
C68	C	1.185395	-0.663860	1.023079
C69	C	1.073399	-0.744855	1.003816
C70	C	1.057588	-0.756276	1.095308
C71	C	0.965793	-1.117141	0.602554
C72	C	0.868379	-1.099684	0.585877
C73	C	1.154548	-1.186860	0.869277
C74	C	1.137913	-1.199274	0.966689
C75	C	1.422079	-1.198833	0.680770
C76	C	1.519490	-1.216273	0.697468
C77	C	1.232589	-1.128844	0.413005
C78	C	1.249250	-1.116459	0.315597
C79	C	0.813085	-1.048271	0.634254
C80	C	0.721554	-1.031853	0.618585
C81	C	0.685318	-1.066854	0.554543
C82	C	0.740619	-1.118270	0.506160
C83	C	0.832149	-1.134683	0.521826
C84	C	1.186171	-1.265531	1.021953
C85	C	1.170558	-1.277198	1.113485
C86	C	1.106684	-1.222610	1.149751
C87	C	1.058425	-1.156346	1.094481
C88	C	1.074042	-1.144676	1.002951
C89	C	1.574860	-1.166903	0.649338
C90	C	1.666388	-1.183273	0.665028
C91	C	1.702543	-1.249018	0.728843
C92	C	1.647165	-1.298389	0.776978
C93	C	1.555639	-1.282015	0.761292
C94	C	1.200987	-1.151036	0.260167
C95	C	1.216625	-1.139395	0.168639
C96	C	1.280530	-1.093184	0.132545
C97	C	1.328795	-1.058603	0.187982
C98	C	1.313152	-1.070238	0.279507
H99	H	0.842647	-0.703058	0.685711
H100	H	1.177317	-1.167558	0.123514
Br101	Br	1.480504	-1.349030	0.826617
H102	H	1.293259	-1.083717	0.058018
H103	H	1.125098	-0.707431	1.372076
Br104	Br	0.862241	-1.000758	0.721175
H105	H	1.006418	-1.111904	1.124023
Br106	Br	0.480519	-0.848617	0.827404
H107	H	0.711488	-0.464822	0.453768
Br108	Br	1.003163	-0.795645	1.291202
H109	H	1.676617	-1.351919	0.828937
Br110	Br	0.696201	-0.886921	0.864717
H111	H	0.877508	-0.494308	0.482463
H112	H	0.564646	-0.497980	0.486036
H113	H	1.380827	-1.020977	0.158579
H114	H	1.209860	-1.331159	1.158474
Br115	Br	1.416403	-0.496807	1.140225
H116	H	1.005554	-0.793897	1.124725
Br117	Br	1.114252	-1.213754	0.309131
Br118	Br	0.907181	-1.204460	0.456159
H119	H	1.352461	-1.042083	0.324633
H120	H	1.238192	-1.309982	0.992440
H121	H	1.353019	-0.542620	1.325827
Br122	Br	0.646521	-0.962076	0.684258
H123	H	0.464202	-0.587611	0.573323
H124	H	1.034739	-1.090724	0.957961
Br125	Br	1.525815	-1.077675	0.562724
H126	H	1.034239	-0.773180	0.958720
Br127	Br	0.691427	-1.165766	0.419249
Br128	Br	1.272123	-0.601155	0.974078
Br129	Br	1.741525	-1.116260	0.599693
H130	H	0.777014	-0.761646	0.742754
H131	H	1.294460	-0.584991	1.059348
Br132	Br	1.826761	-1.271228	0.750122
H133	H	0.610788	-1.053480	0.541792
H134	H	1.093977	-1.232121	1.224281
