data_functionalizedCrystal
_audit_creation_method	'MofGen! by Chris Wilmer'
_symmetry_space_group_name_H-M	'P1'
_symmetry_Int_Tables_number	1
_symmetry_cell_setting	triclinic
loop_
_symmetry_equiv_pos_as_xyz
  x,y,z
_cell_length_a	19.805407
_cell_length_b	13.897447
_cell_length_c	19.805399
_cell_angle_alpha	89.976253
_cell_angle_beta	89.982197
_cell_angle_gamma	90.016846
loop_
_atom_site_label
_atom_site_type_symbol
_atom_site_fract_x
_atom_site_fract_y
_atom_site_fract_z
Zn1	Zn	1.034768	-0.384106	-0.382706
Zn2	Zn	1.034696	-0.545412	-0.269525
Zn3	Zn	0.921583	-0.384125	-0.269534
Zn4	Zn	0.921560	-0.545353	-0.382675
O5	O	0.978152	-0.464749	-0.326110
O6	O	1.129475	-0.405521	-0.367701
O7	O	1.019671	-0.524050	-0.174810
O8	O	0.936636	-0.249141	-0.284563
O9	O	1.129422	-0.524031	-0.284548
O10	O	1.019793	-0.249127	-0.367710
O11	O	0.936567	-0.405553	-0.174816
O12	O	0.826863	-0.405496	-0.284533
O13	O	0.936597	-0.523931	-0.477396
O14	O	0.826846	-0.523950	-0.367658
O15	O	1.019771	-0.405464	-0.477418
O16	O	1.019649	-0.680386	-0.284518
O17	O	0.936528	-0.680343	-0.367649
C18	C	0.802296	-0.464719	-0.326094
C19	C	0.727064	-0.464729	-0.326103
C20	C	0.691748	-0.403130	-0.369466
C21	C	0.621059	-0.403135	-0.369469
C22	C	0.585688	-0.464745	-0.326111
C23	C	0.621009	-0.526347	-0.282742
C24	C	0.691696	-0.526337	-0.282737
C25	C	0.335936	-0.526391	-0.282763
C26	C	0.265244	-0.526399	-0.282773
C27	C	0.265299	-0.403189	-0.369495
C28	C	0.335986	-0.403178	-0.369490
C29	C	0.371301	-0.464777	-0.326119
C30	C	0.447949	-0.464769	-0.326116
C31	C	0.509041	-0.464758	-0.326117
C32	C	0.978097	-0.715364	-0.326094
C33	C	0.978135	-0.822578	-0.326110
C34	C	0.978168	-0.909647	-0.326126
C35	C	0.978215	-1.018880	-0.326143
C36	C	1.154694	-0.464780	-0.326127
C37	C	1.229926	-0.464794	-0.326134
C38	C	0.978190	-0.464689	-0.502653
C39	C	0.978206	-0.464663	-0.577885
C40	C	0.978225	-0.213156	-0.326141
C41	C	0.978257	-0.105942	-0.326154
C42	C	1.021515	-0.402974	-0.613242
C43	C	1.021522	-0.402946	-0.683930
C44	C	0.978223	-0.464612	-0.719260
C45	C	0.934908	-0.526304	-0.683899
C46	C	0.934899	-0.526327	-0.613211
C47	C	0.934947	-0.526214	-0.968972
C48	C	0.934961	-0.526189	-1.039664
C49	C	1.021570	-0.402833	-1.039691
C50	C	1.021560	-0.402856	-0.969004
C51	C	0.978244	-0.464544	-0.933648
C52	C	0.978236	-0.464572	-0.856999
C53	C	0.978234	-0.464590	-0.795908
C54	C	0.978153	-0.464740	-0.150254
C55	C	0.978268	-0.464494	-0.075022
H56	H	0.364681	-0.576549	-0.247448
H57	H	0.592205	-0.576507	-0.247436
C58	C	0.887861	-0.593424	-0.574943
C59	C	0.849959	-0.647450	-0.621012
C60	C	0.806628	-0.709283	-0.585785
H61	H	0.858314	-0.556647	-0.547361
H62	H	0.913729	-0.635514	-0.547385
H63	H	0.824093	-0.605366	-0.648558
H64	H	0.879488	-0.684246	-0.648595
H65	H	0.832496	-0.751372	-0.558227
H66	H	0.777085	-0.672498	-0.558204
H67	H	0.780911	-0.745953	-0.617036
H68	H	1.056777	-0.352760	-0.584481
H69	H	0.720542	-0.352962	-0.404776
H70	H	1.056838	-0.352601	-1.068486
H71	H	0.592308	-0.352977	-0.404781
H72	H	1.056791	-0.352714	-0.712715
C73	C	0.730077	-0.593059	-0.235573
C74	C	0.770634	-0.538354	-0.192241
C75	C	0.805992	-0.599784	-0.148776
H76	H	0.757713	-0.635151	-0.261332
H77	H	0.698909	-0.629738	-0.209713
H78	H	0.801799	-0.501692	-0.218099
H79	H	0.743016	-0.496265	-0.166468
H80	H	0.774824	-0.636463	-0.122916
H81	H	0.833624	-0.641873	-0.174540
H82	H	0.833509	-0.562675	-0.119366
C83	C	1.068534	-0.335990	-0.930524
C84	C	1.059262	-0.349224	-0.861051
C85	C	1.102522	-0.287643	-0.825584
H86	H	1.058680	-0.271141	-0.942039
H87	H	1.114028	-0.350104	-0.942068
H88	H	1.013779	-0.335104	-0.849512
H89	H	1.069121	-0.414060	-0.849515
H90	H	1.148017	-0.301756	-0.837128
H91	H	1.092665	-0.222798	-0.837105
H92	H	1.096242	-0.296620	-0.778443
C93	C	0.888009	-0.593376	-0.722292
C94	C	0.926321	-0.655213	-0.762857
C95	C	0.883141	-0.717024	-0.798226
H96	H	0.858520	-0.556575	-0.749923
H97	H	0.862224	-0.630175	-0.691130
H98	H	0.952094	-0.618418	-0.794014
H99	H	0.955808	-0.692035	-0.735242
H100	H	0.857356	-0.753823	-0.767064
H101	H	0.853655	-0.680215	-0.825853
H102	H	0.909130	-0.758993	-0.825748
C103	C	0.374266	-0.336180	-0.416590
C104	C	0.328207	-0.282214	-0.454554
C105	C	0.363445	-0.220472	-0.497942
H106	H	0.401851	-0.373020	-0.446094
H107	H	0.401821	-0.294049	-0.390759
H108	H	0.300664	-0.324340	-0.480383
H109	H	0.300620	-0.245354	-0.425068
H110	H	0.391000	-0.178341	-0.472111
H111	H	0.391029	-0.257320	-0.527442
H112	H	0.332199	-0.183843	-0.523702
C113	C	0.226833	-0.336337	-0.416506
C114	C	0.157358	-0.349507	-0.407221
C115	C	0.121905	-0.287936	-0.450509
H116	H	0.238352	-0.350480	-0.461993
H117	H	0.238386	-0.271486	-0.406673
H118	H	0.145809	-0.414343	-0.417058
H119	H	0.145819	-0.335357	-0.361743
H120	H	0.133458	-0.223085	-0.440676
H121	H	0.133429	-0.302084	-0.495993
H122	H	0.074762	-0.296857	-0.444210
C123	C	0.887982	-0.593299	-1.077936
C124	C	0.902671	-0.688745	-1.060717
C125	C	0.859406	-0.750589	-1.095953
H126	H	0.894151	-0.584584	-1.125109
H127	H	0.842496	-0.579229	-1.066334
H128	H	0.948146	-0.702810	-1.072324
H129	H	0.896498	-0.697490	-1.013551
H130	H	0.813920	-0.736519	-1.084350
H131	H	0.865578	-0.741866	-1.143123
H132	H	0.869362	-0.815356	-1.084270
H133	H	0.236447	-0.576571	-0.247463
H134	H	0.899686	-0.576458	-0.940194
