data_functionalizedCrystal
_audit_creation_method	'MofGen! by Chris Wilmer'
_symmetry_space_group_name_H-M	'P1'
_symmetry_Int_Tables_number	1
_symmetry_cell_setting	triclinic
loop_
_symmetry_equiv_pos_as_xyz
  x,y,z
_cell_length_a	6.817900
_cell_length_b	19.551136
_cell_length_c	16.015572
_cell_angle_alpha	78.362965
_cell_angle_beta	104.485554
_cell_angle_gamma	101.650842
loop_
_atom_site_label
_atom_site_type_symbol
_atom_site_fract_x
_atom_site_fract_y
_atom_site_fract_z
V1	V	-3.988964	-0.028152	-0.269517
V2	V	-3.488964	0.471848	0.230483
O3	O	-3.986534	0.071755	-0.263949
O4	O	-3.486534	0.571755	0.236051
O5	O	-3.931759	-0.123531	-0.268094
O6	O	-3.431759	0.376469	0.231906
O7	O	-3.928175	0.003172	-0.386871
O8	O	-3.428175	0.503172	0.113129
O9	O	-3.990142	-0.055825	-0.144350
O10	O	-3.490142	0.444175	0.355650
V11	V	-4.475338	-0.019852	-0.254495
V12	V	-3.975338	0.480148	0.245505
O13	O	-4.243968	-0.046359	-0.302469
O14	O	-3.743968	0.453641	0.197531
O15	O	-4.670531	-0.001645	-0.221543
O16	O	-4.170531	0.498355	0.278457
O17	O	-4.309336	0.075527	-0.255918
O18	O	-3.809336	0.575527	0.244082
O19	O	-4.595164	-0.119759	-0.260063
O20	O	-4.095164	0.380241	0.239937
O21	O	-4.591556	0.007821	-0.379661
O22	O	-4.091556	0.507821	0.120339
O23	O	-4.312920	-0.051176	-0.137141
O24	O	-3.812920	0.448824	0.362859
C25	C	-3.775019	-0.147747	-0.263951
C26	C	-3.275019	0.352253	0.236049
C27	C	-3.809451	-0.225521	-0.263570
C28	C	-3.309451	0.274479	0.236430
C29	C	-3.794759	-0.272166	-0.184301
C30	C	-3.294759	0.227834	0.315699
C31	C	-3.827186	-0.345248	-0.183916
C32	C	-3.327186	0.154752	0.316084
C33	C	-3.874266	-0.371682	-0.262805
C34	C	-3.374266	0.128318	0.237195
C35	C	-3.888970	-0.325027	-0.342085
C36	C	-3.388970	0.174973	0.157915
C37	C	-3.856562	-0.251947	-0.342467
C38	C	-3.356562	0.248053	0.157533
C39	C	-3.832738	-0.478149	-0.320005
C40	C	-3.332738	0.021851	0.179995
C41	C	-3.865132	-0.551229	-0.319619
C42	C	-3.365132	-0.051229	0.180381
C43	C	-3.974231	-0.597085	-0.261628
C44	C	-3.474231	-0.097085	0.238372
C45	C	-4.050902	-0.569855	-0.204008
C46	C	-3.550902	-0.069855	0.295992
C47	C	-4.018495	-0.496775	-0.204391
C48	C	-3.518495	0.003225	0.295609
C49	C	-3.909411	-0.450924	-0.262399
C50	C	-3.409411	0.049076	0.237601
C51	C	-3.994701	-0.722974	-0.181936
C52	C	-3.494701	-0.222974	0.318064
C53	C	-4.027142	-0.796058	-0.181556
C54	C	-3.527142	-0.296058	0.318444
C55	C	-4.088906	-0.775835	-0.339726
C56	C	-3.588906	-0.275835	0.160274
C57	C	-4.056484	-0.702753	-0.340105
C58	C	-3.556484	-0.202753	0.159895
C59	C	-4.009373	-0.676328	-0.261208
C60	C	-3.509373	-0.176328	0.238792
C61	C	-3.770446	0.013876	-0.415461
C62	C	-3.270446	0.513876	0.084539
C63	C	-3.801970	0.038856	-0.511401
C64	C	-3.301970	0.538856	-0.011401
C65	C	-4.070136	-0.182866	-0.890010
C66	C	-3.570136	0.317134	-0.390010
C67	C	-4.099765	-0.159371	-0.980156
C68	C	-3.599765	0.340629	-0.480156
C69	C	-4.033998	-0.037815	-0.954914
C70	C	-3.533998	0.462185	-0.454914
C71	C	-4.004354	-0.061300	-0.864764
C72	C	-3.504354	0.438700	-0.364764
C73	C	-4.022429	-0.133826	-0.832319
C74	C	-3.522429	0.366174	-0.332319
C75	C	-3.956646	-0.012260	-0.807073
C76	C	-3.456646	0.487740	-0.307073
C77	C	-3.927015	-0.035743	-0.716931
C78	C	-3.427015	0.464257	-0.216931
C79	C	-3.945092	-0.108267	-0.684480
C80	C	-3.445092	0.391733	-0.184480
C81	C	-3.992798	-0.157309	-0.742177
C82	C	-3.492798	0.342691	-0.242177
C83	C	-3.938586	0.060266	-0.839520
C84	C	-3.438586	0.560266	-0.339520
C85	C	-3.890878	0.109305	-0.781829
C86	C	-3.390878	0.609305	-0.281829
C87	C	-3.861232	0.085822	-0.691685
C88	C	-3.361232	0.585822	-0.191685
C89	C	-3.879309	0.013299	-0.659233
C90	C	-3.379309	0.513299	-0.159233
C91	C	-3.813526	0.134865	-0.633987
C92	C	-3.313526	0.634865	-0.133987
C93	C	-3.783895	0.111382	-0.543845
C94	C	-3.283895	0.611382	-0.043845
C95	C	-3.849678	-0.010184	-0.569091
C96	C	-3.349678	0.489816	-0.069091
C97	C	-4.129418	0.099739	-0.260058
C98	C	-3.629418	0.599739	0.239942
C99	C	-4.074223	0.177514	-0.260445
C100	C	-3.574223	0.677514	0.239555
C101	C	-4.133991	-0.061883	-0.108546
C102	C	-3.633991	0.438117	0.391454
C103	C	-4.081706	-0.086860	-0.012605
C104	C	-3.581706	0.413140	0.487395
H105	H	-3.743897	-0.440817	-0.367232
H106	H	-3.243897	0.059183	0.132768
H107	H	-4.127240	-0.797356	-0.403959
H108	H	-3.627240	-0.297356	0.096041
Br109	Br	-3.719251	0.177934	-0.465548
Br110	Br	-3.219251	0.677934	0.034452
H111	H	-4.007489	-0.216367	-0.715759
H112	H	-3.507489	0.283633	-0.215759
H113	H	-4.080928	-0.474607	-0.157476
H114	H	-3.580928	0.025393	0.342524
Br115	Br	-4.198941	-0.632081	-0.125290
Br116	Br	-3.698941	-0.132081	0.374710
Br117	Br	-4.009477	0.060610	-0.998954
Br118	Br	-3.509477	0.560610	-0.498954
Br119	Br	-3.761006	-0.588179	-0.397791
Br120	Br	-3.261006	-0.088179	0.102209
Br121	Br	-3.730835	-0.236306	-0.077227
Br122	Br	-3.230835	0.263694	0.422773
H123	H	-4.068435	-0.664774	-0.404654
H124	H	-3.568435	-0.164774	0.095346
H125	H	-3.798835	0.193916	-0.660418
H126	H	-3.298835	0.693916	-0.160418
H127	H	-3.956339	-0.701458	-0.117693
H128	H	-3.456339	-0.201458	0.382307
H129	H	-3.815217	-0.383233	-0.119364
H130	H	-3.315217	0.116767	0.380636
Br131	Br	-3.952884	-0.360899	-0.449149
Br132	Br	-3.452884	0.139101	0.050851
Br133	Br	-3.874149	-0.108613	-0.525050
Br134	Br	-3.374149	0.391387	-0.025050
H135	H	-3.868535	-0.213968	-0.407020
H136	H	-3.368535	0.286032	0.092980
H137	H	-3.920969	-0.127386	-0.611080
H138	H	-3.420969	0.372614	-0.111080
Br139	Br	-3.866358	0.207731	-0.825869
Br140	Br	-3.366358	0.707731	-0.325869
Br141	Br	-4.094608	-0.281295	-0.845968
Br142	Br	-3.594608	0.218705	-0.345968
H143	H	-4.138605	-0.199310	-1.027126
H144	H	-3.638605	0.300690	-0.527126
H145	H	-4.015188	-0.834036	-0.117003
H146	H	-3.515188	-0.334036	0.382997
H147	H	-3.962683	0.079384	-0.912919
H148	H	-3.462683	0.579384	-0.412919
