data_functionalizedCrystal
_audit_creation_method	'MofGen! by Chris Wilmer'
_symmetry_space_group_name_H-M	'P1'
_symmetry_Int_Tables_number	1
_symmetry_cell_setting	triclinic
loop_
_symmetry_equiv_pos_as_xyz
  x,y,z
_cell_length_a	6.817900
_cell_length_b	17.329528
_cell_length_c	23.752930
_cell_angle_alpha	92.718321
_cell_angle_beta	100.066047
_cell_angle_gamma	103.027692
loop_
_atom_site_label
_atom_site_type_symbol
_atom_site_fract_x
_atom_site_fract_y
_atom_site_fract_z
V1	V	-3.982617	-0.109738	-0.173161
O2	O	-3.977268	0.004207	-0.175198
O3	O	-3.928380	-0.216567	-0.166848
O4	O	-3.917727	-0.108518	-0.251023
O5	O	-3.987995	-0.104590	-0.090440
V6	V	-4.469138	-0.096054	-0.163890
O7	O	-4.237299	-0.139756	-0.193498
O8	O	-4.664654	-0.066036	-0.143554
O9	O	-4.300169	0.010775	-0.170203
O10	O	-4.591884	-0.209999	-0.161854
O11	O	-4.581158	-0.101202	-0.246611
O12	O	-4.310822	-0.097274	-0.086029
C13	C	-3.772494	-0.242595	-0.162793
C14	C	-3.809325	-0.329933	-0.158151
C15	C	-4.016057	-0.823302	-0.129242
C16	C	-3.981465	-0.741242	-0.133614
C17	C	-3.992635	-0.711746	-0.187647
C18	C	-4.038380	-0.764314	-0.237312
C19	C	-4.072957	-0.846373	-0.232939
C20	C	-3.889647	-0.464559	-0.203443
C21	C	-3.855072	-0.382495	-0.207812
C22	C	-3.798155	-0.359428	-0.104113
C23	C	-3.832747	-0.441489	-0.099745
C24	C	-3.878479	-0.494050	-0.149410
C25	C	-3.957284	-0.627867	-0.192117
C26	C	-3.913815	-0.577927	-0.144939
C27	C	-3.758905	-0.104767	-0.270166
C28	C	-3.787094	-0.104476	-0.333784
C29	C	-4.143356	-0.106538	-0.731010
C30	C	-4.169867	-0.106254	-0.790786
O31	O	-4.337723	-0.109430	-0.824019
N32	N	-4.001853	-0.102179	-0.817957
C33	C	-3.807312	-0.098379	-0.785348
O34	O	-3.666838	-0.094885	-0.813947
C35	C	-3.780802	-0.098657	-0.725572
C36	C	-3.948832	-0.102740	-0.698406
C37	C	-4.311371	-0.110621	-0.703843
C38	C	-4.284863	-0.110906	-0.644071
C39	C	-4.090339	-0.107108	-0.611467
C40	C	-3.922323	-0.103026	-0.638634
C41	C	-3.586261	-0.094851	-0.692964
C42	C	-3.559763	-0.095129	-0.633185
C43	C	-3.727794	-0.099212	-0.606018
C44	C	-3.701291	-0.099513	-0.546257
N45	N	-3.869304	-0.103589	-0.519087
C46	C	-4.063828	-0.107386	-0.551691
C47	C	-3.863000	-0.097794	-0.910880
C48	C	-3.889511	-0.097521	-0.970654
C49	C	-4.252063	-0.105396	-0.976089
C50	C	-4.225553	-0.105674	-0.916314
C51	C	-4.031013	-0.101869	-0.883709
C52	C	-4.008144	-0.107985	-0.426166
C53	C	-3.981618	-0.108273	-0.366389
C54	C	-3.619068	-0.100395	-0.360959
C55	C	-3.645592	-0.100111	-0.420731
C56	C	-3.840144	-0.103904	-0.453333
O57	O	-3.533494	-0.096336	-0.512988
O58	O	-4.204268	-0.110868	-0.523083
C59	C	-4.119397	0.036799	-0.174257
C60	C	-4.061803	0.124136	-0.178903
C61	C	-4.132987	-0.101028	-0.066883
C62	C	-4.084036	-0.101315	-0.003264
H63	H	-3.926887	-0.507346	-0.243884
Br64	Br	-4.575398	-0.115777	-0.748082
H65	H	-3.760915	-0.316624	-0.063679
Br66	Br	-4.209680	-0.113821	-0.329524
H67	H	-3.823653	-0.465498	-0.055746
H68	H	-3.752685	-0.094208	-0.992769
H69	H	-3.944224	-0.698449	-0.093174
Br70	Br	-3.870256	-0.342465	-0.281148
Br71	Br	-4.053509	-0.724284	-0.310644
H72	H	-3.704576	-0.094695	-0.884337
Br73	Br	-3.898642	-0.617958	-0.071610
H74	H	-4.110200	-0.889169	-0.273379
Br75	Br	-3.972423	-0.587829	-0.265446
H76	H	-4.166563	-0.111075	-0.452704
Br77	Br	-4.453604	-0.111216	-0.879451
H78	H	-4.421692	-0.114227	-0.621957
Br79	Br	-4.516068	-0.110548	-1.020350
H80	H	-3.449426	-0.091526	-0.715072
H81	H	-3.508771	-0.096794	-0.442852
H82	H	-4.006966	-0.847311	-0.085242
Br83	Br	-3.295729	-0.089957	-0.588939
Br84	Br	-3.355079	-0.095246	-0.316699
