data_functionalizedCrystal
_audit_creation_method	'MofGen! by Chris Wilmer'
_symmetry_space_group_name_H-M	'P1'
_symmetry_Int_Tables_number	1
_symmetry_cell_setting	triclinic
loop_
_symmetry_equiv_pos_as_xyz
  x,y,z
_cell_length_a	16.120490
_cell_length_b	16.120444
_cell_length_c	12.759393
_cell_angle_alpha	92.863624
_cell_angle_beta	87.082392
_cell_angle_gamma	90.165174
loop_
_atom_site_label
_atom_site_type_symbol
_atom_site_fract_x
_atom_site_fract_y
_atom_site_fract_z
Zn1	Zn	1.254489	-0.395618	-0.699338
Zn2	Zn	1.587823	-0.062284	-0.366004
Zn3	Zn	1.921156	0.271049	-0.032671
Zn4	Zn	1.247325	-0.534692	-0.532072
Zn5	Zn	1.580658	-0.201358	-0.198739
Zn6	Zn	1.913992	0.131975	0.134594
Zn7	Zn	1.115423	-0.388593	-0.514348
Zn8	Zn	1.448757	-0.055259	-0.181014
Zn9	Zn	1.782090	0.278074	0.152319
Zn10	Zn	1.108339	-0.527563	-0.698383
Zn11	Zn	1.441672	-0.194230	-0.365049
Zn12	Zn	1.775006	0.139104	-0.031716
O13	O	1.181394	-0.461616	-0.611035
O14	O	1.514727	-0.128283	-0.277702
O15	O	1.848061	0.205050	0.055632
O16	O	1.369905	-0.419989	-0.684967
O17	O	1.703238	-0.086656	-0.351634
O18	O	2.036571	0.246677	-0.018301
O19	O	1.229794	-0.515355	-0.382701
O20	O	1.563128	-0.182021	-0.049367
O21	O	1.896461	0.151312	0.283966
O22	O	1.139834	-0.273162	-0.531869
O23	O	1.473167	0.060171	-0.198535
O24	O	1.806500	0.393505	0.134798
O25	O	1.364641	-0.522166	-0.562078
O26	O	1.697974	-0.188833	-0.228745
O27	O	2.031308	0.144500	0.104589
O28	O	1.242005	-0.278323	-0.667780
O29	O	1.575338	0.055010	-0.334447
O30	O	1.908672	0.388344	-0.001114
O31	O	1.132887	-0.408017	-0.369678
O32	O	1.466220	-0.074683	-0.036345
O33	O	1.799553	0.258650	0.296988
O34	O	0.998118	-0.401104	-0.530942
O35	O	1.331451	-0.067771	-0.197609
O36	O	1.664784	0.265562	0.135724
O37	O	1.127760	-0.510017	-0.845530
O38	O	1.461093	-0.176684	-0.512196
O39	O	1.794426	0.156650	-0.178863
O40	O	0.992913	-0.503205	-0.666152
O41	O	1.326246	-0.169872	-0.332819
O42	O	1.659580	0.163461	0.000514
O43	O	1.235136	-0.413077	-0.846232
O44	O	1.568469	-0.079744	-0.512898
O45	O	1.901802	0.253590	-0.179565
O46	O	1.222925	-0.650109	-0.561152
O47	O	1.556258	-0.316775	-0.227818
O48	O	1.889592	0.016558	0.105515
O49	O	1.120813	-0.644871	-0.683339
O50	O	1.454146	-0.311538	-0.350006
O51	O	1.787479	0.021795	-0.016673
C52	C	0.965343	-0.450619	-0.596521
C53	C	1.298676	-0.117286	-0.263188
C54	C	1.632010	0.216047	0.070146
C55	C	0.872914	-0.445935	-0.590338
C56	C	1.206248	-0.112602	-0.257005
C57	C	1.539581	0.220732	0.076329
C58	C	1.170345	-0.677663	-0.624090
C59	C	1.503678	-0.344329	-0.290756
C60	C	1.837012	-0.010996	0.042577
C61	C	1.165694	-0.770092	-0.629715
C62	C	1.499028	-0.436759	-0.296381
C63	C	1.832361	-0.103425	0.036952
C64	C	0.659945	-0.485909	-0.643109
C65	C	0.993279	-0.152576	-0.309776
C66	C	1.326612	0.180758	0.023558
C67	C	0.703691	-0.437390	-0.579048
C68	C	1.037024	-0.104057	-0.245715
C69	C	1.370357	0.229277	0.087618
C70	C	0.797855	-0.442146	-0.585332
C71	C	1.131189	-0.108813	-0.251998
C72	C	1.464522	0.224521	0.081335
C73	C	0.565772	-0.481154	-0.636827
C74	C	0.899105	-0.147821	-0.303493
C75	C	1.232439	0.185513	0.029840
C76	C	1.205723	-0.983072	-0.582095
C77	C	1.539057	-0.649738	-0.248761
C78	C	1.872390	-0.316405	0.084572
C79	C	1.157219	-0.939317	-0.639997
C80	C	1.490552	-0.605984	-0.306663
C81	C	1.823886	-0.272651	0.026670
C82	C	1.161936	-0.845152	-0.634274
C83	C	1.495269	-0.511818	-0.300941
C84	C	1.828603	-0.178485	0.032393
C85	C	1.201007	-1.077246	-0.587816
C86	C	1.534341	-0.743913	-0.254483
C87	C	1.867674	-0.410579	0.078851
C88	C	1.398289	-0.472657	-0.625606
C89	C	1.731622	-0.139323	-0.292273
C90	C	2.064956	0.194010	0.041060
C91	C	1.490717	-0.477361	-0.631816
C92	C	1.824050	-0.144028	-0.298483
C93	C	2.157383	0.189305	0.034851
C94	C	1.181457	-0.461535	-0.885067
C95	C	1.514790	-0.128202	-0.551734
C96	C	1.848123	0.205131	-0.218401
C97	C	1.181483	-0.461501	-1.001844
C98	C	1.514817	-0.128168	-0.668510
C99	C	1.848150	0.205166	-0.335177
C100	C	1.192509	-0.244727	-0.597954
C101	C	1.525842	0.088606	-0.264621
C102	C	1.859176	0.421939	0.068713
C103	C	1.197245	-0.152302	-0.592380
C104	C	1.530579	0.181031	-0.259046
C105	C	1.863912	0.514364	0.074287
C106	C	1.237402	-0.411020	-1.057073
C107	C	1.570735	-0.077686	-0.723740
C108	C	1.904068	0.255647	-0.390406
C109	C	1.237423	-0.410991	-1.166797
C110	C	1.570756	-0.077657	-0.833463
C111	C	1.904090	0.255676	-0.500130
C112	C	1.125605	-0.511931	-1.166052
C113	C	1.458938	-0.178598	-0.832719
C114	C	1.792271	0.154736	-0.499385
C115	C	1.125580	-0.511955	-1.056330
C116	C	1.458914	-0.178622	-0.722997
C117	C	1.792247	0.154712	-0.389663
C118	C	1.301961	-0.352745	-1.057504
C119	C	1.635295	-0.019412	-0.724171
C120	C	1.968628	0.313922	-0.390837
C121	C	1.301983	-0.352716	-1.167228
C122	C	1.635316	-0.019383	-0.833894
C123	C	1.968649	0.313951	-0.500561
C124	C	1.181383	-0.461639	-0.338068
C125	C	1.514716	-0.128306	-0.004735
C126	C	1.848049	0.205027	0.328598
C127	C	1.181529	-0.461448	-0.221289
C128	C	1.514862	-0.128114	0.112044
C129	C	1.848196	0.205219	0.445377
H130	H	0.670422	-0.392280	-0.519485
H131	H	1.003756	-0.058947	-0.186152
H132	H	1.337089	0.274387	0.147182
O133	O	1.259411	-0.943266	-0.517846
O134	O	1.592745	-0.609933	-0.184513
O135	O	1.926078	-0.276600	0.148821
C136	C	1.252230	-0.856747	-0.526378
C137	C	1.585563	-0.523414	-0.193045
C138	C	1.918897	-0.190080	0.140288
H139	H	1.188618	-0.841771	-0.555722
H140	H	1.521951	-0.508437	-0.222388
H141	H	1.855285	-0.175104	0.110945
H142	H	1.259516	-0.823993	-0.446101
H143	H	1.592849	-0.490660	-0.112767
H144	H	1.926183	-0.157327	0.220566
H145	H	1.302748	-0.834515	-0.584209
H146	H	1.636081	-0.501181	-0.250876
H147	H	1.969414	-0.167848	0.082457
H148	H	1.080043	-0.553059	-1.011366
H149	H	1.413377	-0.219725	-0.678033
H150	H	1.746710	0.113608	-0.344699
H151	H	1.080089	-0.553007	-1.210428
H152	H	1.413422	-0.219674	-0.877095
H153	H	1.746756	0.113659	-0.543761
H154	H	1.112150	-0.972579	-0.693866
H155	H	1.445483	-0.639245	-0.360532
H156	H	1.778816	-0.305912	-0.027199
H157	H	0.693212	-0.531016	-0.702666
H158	H	1.026545	-0.197683	-0.369333
H159	H	1.359878	0.135651	-0.036000
O160	O	1.285165	-0.274895	-1.016008
O161	O	1.618499	0.058438	-0.682674
O162	O	1.951832	0.391771	-0.349341
C163	C	1.206612	-0.249607	-1.046318
C164	C	1.539945	0.083727	-0.712985
C165	C	1.873278	0.417060	-0.379652
H166	H	1.167677	-0.306699	-1.066950
H167	H	1.501010	0.026634	-0.733617
H168	H	1.834344	0.359968	-0.400283
H169	H	1.173911	-0.211593	-0.978743
H170	H	1.507245	0.121740	-0.645410
H171	H	1.840578	0.455073	-0.312077
H172	H	1.214725	-0.210079	-1.117769
H173	H	1.548058	0.123254	-0.784435
H174	H	1.881391	0.456588	-0.451102
O175	O	1.373516	-0.384104	-1.023585
O176	O	1.706849	-0.050770	-0.690252
O177	O	2.040183	0.282563	-0.356918
C178	C	1.383913	-0.466714	-1.063694
C179	C	1.717246	-0.133381	-0.730361
C180	C	2.050580	0.199953	-0.397028
H181	H	1.347276	-0.476731	-1.137377
H182	H	1.680609	-0.143398	-0.804043
H183	H	2.013943	0.189936	-0.470710
H184	H	1.452575	-0.479116	-1.084095
H185	H	1.785908	-0.145782	-0.750762
H186	H	2.119241	0.187551	-0.417429
H187	H	1.360297	-0.511095	-1.002046
H188	H	1.693630	-0.177762	-0.668713
H189	H	2.026964	0.155571	-0.335380
O190	O	1.278077	-0.278382	-1.201631
O191	O	1.611410	0.054951	-0.868298
O192	O	1.944743	0.388284	-0.534965
C193	C	1.206561	-0.289587	-1.259939
C194	C	1.539894	0.043746	-0.926605
C195	C	1.873227	0.377080	-0.593272
H196	H	1.172879	-0.348481	-1.235883
H197	H	1.506213	-0.015148	-0.902549
H198	H	1.839546	0.318185	-0.569216
H199	H	1.163539	-0.233912	-1.243757
H200	H	1.496872	0.099421	-0.910424
H201	H	1.830206	0.432754	-0.577091
H202	H	1.225432	-0.295427	-1.347322
H203	H	1.558765	0.037907	-1.013989
H204	H	1.892099	0.371240	-0.680655
O205	O	1.377696	-0.377289	-1.209298
O206	O	1.711030	-0.043955	-0.875965
O207	O	2.044363	0.289378	-0.542632
C208	C	1.368643	-0.449545	-1.274659
C209	C	1.701977	-0.116212	-0.941326
C210	C	2.035310	0.217121	-0.607993
H211	H	1.302407	-0.453199	-1.301879
H212	H	1.635740	-0.119865	-0.968545
H213	H	1.969073	0.213468	-0.635212
H214	H	1.414049	-0.447279	-1.345937
H215	H	1.747382	-0.113945	-1.012604
H216	H	2.080715	0.219388	-0.679270
H217	H	1.382155	-0.506586	-1.229017
H218	H	1.715488	-0.173253	-0.895684
H219	H	2.048822	0.160080	-0.562350
