data_functionalizedCrystal
_audit_creation_method	'MofGen! by Chris Wilmer'
_symmetry_space_group_name_H-M	'P1'
_symmetry_Int_Tables_number	1
_symmetry_cell_setting	triclinic
loop_
_symmetry_equiv_pos_as_xyz
  x,y,z
_cell_length_a	9.065215
_cell_length_b	10.868271
_cell_length_c	9.065218
_cell_angle_alpha	90.000440
_cell_angle_beta	94.984709
_cell_angle_gamma	90.003841
loop_
_atom_site_label
_atom_site_type_symbol
_atom_site_fract_x
_atom_site_fract_y
_atom_site_fract_z
O1	O	1.960404	0.102302	-0.216329
O2	O	2.460404	0.602302	0.283671
O3	O	1.531119	0.102308	-0.234080
O4	O	2.031119	0.602308	0.265920
O5	O	1.754635	0.102302	-0.010562
O6	O	2.254635	0.602302	0.489438
O7	O	1.736888	0.102308	-0.439847
O8	O	2.236888	0.602308	0.060153
O9	O	1.754614	-0.102342	-0.010569
O10	O	2.254614	0.397658	0.489431
O11	O	1.531099	-0.102337	-0.234087
O12	O	2.031099	0.397663	0.265913
O13	O	1.960384	-0.102342	-0.216336
O14	O	2.460384	0.397658	0.283664
Zn15	Zn	1.745738	-0.134831	-0.225213
Zn16	Zn	2.245738	0.365169	0.274787
Zn17	Zn	1.745765	0.134797	-0.225204
Zn18	Zn	2.245765	0.634797	0.274796
O19	O	1.736868	-0.102337	-0.439854
O20	O	2.236868	0.397663	0.060146
C21	C	1.476122	-0.000014	-0.232379
C22	C	1.976122	0.499986	0.267621
C23	C	1.312279	-0.000012	-0.227281
C24	C	1.812279	0.499988	0.272719
N25	N	1.745730	-0.318845	-0.225219
N26	N	2.245730	0.181155	0.274781
C27	C	1.745742	-0.430183	-0.225219
C28	C	2.245742	0.069817	0.274781
C29	C	1.745761	-0.569861	-0.225206
C30	C	2.245761	-0.069861	0.274794
C31	C	2.015381	-0.000018	-0.218038
C32	C	2.515381	0.499982	0.281962
C33	C	2.179224	-0.000012	-0.223136
C34	C	2.679224	0.499988	0.276864
C35	C	1.752919	-0.000018	0.044421
C36	C	2.252919	0.499982	0.544421
C37	C	1.747819	-0.000012	0.208264
C38	C	2.247819	0.499988	0.708264
N39	N	1.745784	0.318811	-0.225186
N40	N	2.245784	0.818811	0.274814
C41	C	1.738584	-0.000014	-0.494837
C42	C	2.238584	0.499986	0.005163
C43	C	1.743683	-0.000012	-0.658680
C44	C	2.243683	0.499988	-0.158680
