data_functionalizedCrystal
_audit_creation_method	'MofGen! by Chris Wilmer'
_symmetry_space_group_name_H-M	'P1'
_symmetry_Int_Tables_number	1
_symmetry_cell_setting	triclinic
loop_
_symmetry_equiv_pos_as_xyz
  x,y,z
_cell_length_a	19.805407
_cell_length_b	18.050589
_cell_length_c	19.805399
_cell_angle_alpha	90.022093
_cell_angle_beta	89.982197
_cell_angle_gamma	89.967986
loop_
_atom_site_label
_atom_site_type_symbol
_atom_site_fract_x
_atom_site_fract_y
_atom_site_fract_z
Zn1	Zn	1.034697	0.295730	-0.382713
Zn2	Zn	1.034595	0.419922	-0.269536
Zn3	Zn	0.921511	0.295745	-0.269542
Zn4	Zn	0.921458	0.419877	-0.382686
O5	O	0.978065	0.357818	-0.326119
O6	O	1.129400	0.312217	-0.367709
O7	O	1.019574	0.403475	-0.174820
O8	O	0.936590	0.191818	-0.284568
O9	O	1.129325	0.403460	-0.284558
O10	O	1.019747	0.191807	-0.367715
O11	O	0.936492	0.312242	-0.174824
O12	O	0.826788	0.312198	-0.284541
O13	O	0.936500	0.403383	-0.477407
O14	O	0.826749	0.403398	-0.367668
O15	O	1.019696	0.312173	-0.477426
O16	O	1.019523	0.523841	-0.284532
O17	O	0.936402	0.523807	-0.367663
C18	C	0.802209	0.357795	-0.326103
C19	C	0.726977	0.357803	-0.326112
C20	C	0.691673	0.310377	-0.369474
C21	C	0.620984	0.310380	-0.369477
C22	C	0.585602	0.357815	-0.326120
C23	C	0.620911	0.405244	-0.282753
C24	C	0.691599	0.405235	-0.282747
C25	C	0.335838	0.405277	-0.282773
C26	C	0.265146	0.405283	-0.282784
C27	C	0.265224	0.310422	-0.369503
C28	C	0.335911	0.310414	-0.369498
C29	C	0.371214	0.357839	-0.326128
C30	C	0.447863	0.357833	-0.326125
C31	C	0.508955	0.357825	-0.326126
C32	C	0.977964	0.550770	-0.326109
C33	C	0.977982	0.633316	-0.326127
C34	C	0.932805	0.832776	-0.371318
C35	C	0.916301	0.882214	-0.309556
C36	C	0.978033	0.784447	-0.326136
C37	C	0.994555	0.882090	-0.387906
C38	C	0.978081	0.930432	-0.326151
C39	C	0.961497	0.832797	-0.264341
C40	C	1.039779	0.832670	-0.342733
C41	C	1.023299	0.882085	-0.280928
C42	C	0.978004	0.700348	-0.326129
C43	C	0.978111	1.014528	-0.326151
C44	C	1.154608	0.357842	-0.326136
C45	C	1.229840	0.357852	-0.326143
C46	C	0.978103	0.357772	-0.502662
C47	C	0.978120	0.357752	-0.577894
C48	C	0.978160	1.164113	-0.326146
C49	C	0.978134	1.081567	-0.326159
C50	C	1.021440	0.310256	-0.613250
C51	C	1.021447	0.310235	-0.683938
C52	C	0.978136	0.357713	-0.719270
C53	C	0.934811	0.405210	-0.683909
C54	C	0.934801	0.405228	-0.613222
C55	C	0.934849	0.405141	-0.968983
C56	C	0.934864	0.405122	-1.039675
C57	C	1.021495	0.310148	-1.039699
C58	C	1.021486	0.310165	-0.969012
C59	C	0.978158	0.357660	-0.933657
C60	C	0.978150	0.357682	-0.857009
C61	C	0.978147	0.357695	-0.795917
C62	C	0.978067	0.357811	-0.150263
C63	C	0.978182	0.357622	-0.075032
H64	H	0.236471	0.271803	-0.404815
H65	H	0.947482	0.811234	-0.212094
C66	C	0.582462	0.456837	-0.235791
C67	C	0.541891	0.504510	-0.274047
C68	C	0.506470	0.552057	-0.230811
H69	H	0.554830	0.428476	-0.206334
H70	H	0.613592	0.485125	-0.209976
H71	H	0.510764	0.476226	-0.299851
H72	H	0.569506	0.532888	-0.303503
H73	H	0.537600	0.580345	-0.204996
H74	H	0.478842	0.523690	-0.201356
H75	H	0.478943	0.584414	-0.256762
H76	H	0.236340	0.443912	-0.247475
C77	C	1.068534	0.258535	-0.930775
C78	C	1.106463	0.216919	-0.976868
C79	C	1.149803	0.169340	-0.941670
H80	H	1.098064	0.286870	-0.903197
H81	H	1.042672	0.226141	-0.903215
H82	H	1.132324	0.249309	-1.004416
H83	H	1.076951	0.188569	-1.004447
H84	H	1.123940	0.136946	-0.914111
H85	H	1.179328	0.197681	-0.914093
H86	H	1.175538	0.141093	-0.972939
H87	H	0.864108	0.903992	-0.295531
H88	H	1.091961	0.810893	-0.356787
H89	H	0.720343	0.443854	-0.247436
C90	C	0.881793	0.804002	-0.422292
C91	C	0.898576	0.830066	-0.486719
C92	C	0.851593	0.803583	-0.533687
H93	H	0.882375	0.751382	-0.422309
H94	H	0.837952	0.820992	-0.410437
H95	H	0.942405	0.813072	-0.498571
H96	H	0.897989	0.882683	-0.486723
H97	H	0.807753	0.820572	-0.521832
H98	H	0.852179	0.750963	-0.533698
H99	H	0.862971	0.821268	-0.577405
C100	C	1.074227	0.910885	-0.229883
C101	C	1.040970	0.954602	-0.181841
C102	C	1.087859	0.981155	-0.134812
H103	H	1.095511	0.870287	-0.208016
H104	H	1.107306	0.939855	-0.252440
H105	H	1.007903	0.925634	-0.159287
H106	H	1.019689	0.995211	-0.203688
H107	H	1.120939	1.010124	-0.157368
H108	H	1.109141	0.940553	-0.112951
H109	H	1.065302	1.010825	-0.102214
C110	C	0.887797	0.456550	-1.078125
C111	C	0.844466	0.414481	-1.118723
C112	C	0.801111	0.461830	-1.154160
H113	H	0.861925	0.484857	-1.047025
H114	H	0.913657	0.488894	-1.105736
H115	H	0.818609	0.382151	-1.091114
H116	H	0.870320	0.386177	-1.149835
H117	H	0.826971	0.494174	-1.181772
H118	H	0.775243	0.490134	-1.123056
H119	H	0.771710	0.433294	-1.181715
H120	H	1.056773	0.271473	-1.068493
H121	H	0.720476	0.271752	-0.404783
H122	H	1.056712	0.271596	-0.584488
C123	C	0.887773	0.456776	-0.930726
C124	C	0.849856	0.498358	-0.976800
C125	C	0.806482	0.545935	-0.941580
H126	H	0.858238	0.428439	-0.903156
H127	H	0.913611	0.489190	-0.903157
H128	H	0.824020	0.465948	-1.004358
H129	H	0.879373	0.526710	-1.004371
H130	H	0.832319	0.578349	-0.914010
H131	H	0.776951	0.517592	-0.914011
H132	H	0.780754	0.574159	-0.972835
C133	C	1.013306	0.910919	-0.457528
C134	C	1.077495	0.884755	-0.475179
C135	C	1.094788	0.911302	-0.539306
H136	H	0.981178	0.894053	-0.489637
H137	H	1.013634	0.963547	-0.456942
H138	H	1.077161	0.832138	-0.475770
H139	H	1.109637	0.901619	-0.443087
H140	H	1.095116	0.963930	-0.538720
H141	H	1.062656	0.894434	-0.571409
H142	H	1.138344	0.893560	-0.551288
C143	C	0.582776	0.258860	-0.416632
C144	C	0.628891	0.217335	-0.454615
C145	C	0.593719	0.169870	-0.498068
H146	H	0.555204	0.226400	-0.390868
H147	H	0.555213	0.287298	-0.446116
H148	H	0.656443	0.188899	-0.425135
H149	H	0.656465	0.249776	-0.480393
H150	H	0.566156	0.198308	-0.527552
H151	H	0.566148	0.137414	-0.472299
H152	H	0.625003	0.141694	-0.523849
H153	H	1.056725	0.271561	-0.712722
C154	C	0.887859	0.456730	-0.722389
C155	C	0.897152	0.446565	-0.791862
C156	C	0.853918	0.494021	-0.827328
H157	H	0.842359	0.445903	-0.710881
H158	H	0.897737	0.506649	-0.710837
H159	H	0.887268	0.396658	-0.803409
H160	H	0.942642	0.457397	-0.803390
H161	H	0.863796	0.543940	-0.815776
H162	H	0.808421	0.483191	-0.815814
H163	H	0.860221	0.487136	-0.874469
H164	H	0.364574	0.443894	-0.247460
C165	C	0.887750	0.456887	-0.574955
C166	C	0.849839	0.498482	-0.621025
C167	C	0.806496	0.546089	-0.585799
H168	H	0.858210	0.428572	-0.547373
H169	H	0.913611	0.489293	-0.547398
H170	H	0.823980	0.466081	-0.648570
H171	H	0.879361	0.526813	-0.648608
H172	H	0.832356	0.578494	-0.558242
H173	H	0.776961	0.517767	-0.558218
H174	H	0.780772	0.574321	-0.617051
H175	H	0.364716	0.271790	-0.404806
