data_functionalizedCrystal
_audit_creation_method	'MofGen! by Chris Wilmer'
_symmetry_space_group_name_H-M	'P1'
_symmetry_Int_Tables_number	1
_symmetry_cell_setting	triclinic
loop_
_symmetry_equiv_pos_as_xyz
  x,y,z
_cell_length_a	14.519709
_cell_length_b	26.210047
_cell_length_c	14.519709
_cell_angle_alpha	90.003565
_cell_angle_beta	83.680145
_cell_angle_gamma	89.997087
loop_
_atom_site_label
_atom_site_type_symbol
_atom_site_fract_x
_atom_site_fract_y
_atom_site_fract_z
O1	O	-1.223875	0.042357	-0.120878
O2	O	-0.955398	0.042375	-0.135115
O3	O	-1.096755	0.042361	0.006242
O4	O	-1.082518	0.042371	-0.262235
O5	O	-1.096728	-0.042497	0.006220
O6	O	-0.955371	-0.042483	-0.135137
O7	O	-1.223848	-0.042501	-0.120900
Cu8	Cu	-1.089607	-0.050240	-0.128020
Cu9	Cu	-1.089639	0.050114	-0.127994
O10	O	-1.082491	-0.042487	-0.262257
C11	C	-0.921025	-0.000052	-0.134462
C12	C	-0.818643	-0.000046	-0.132474
N13	N	-1.089591	-0.120824	-0.128038
C14	C	-0.443748	-0.000068	-0.125154
C15	C	-0.548056	-0.000061	-0.127187
C16	C	-0.631192	-0.000056	-0.128814
C17	C	-0.735507	-0.000051	-0.130847
C18	C	-1.152225	-0.473344	-0.065416
C19	C	-1.152246	-0.687003	-0.065403
O20	O	-1.205464	-0.714630	-0.012163
N21	N	-1.089644	-0.713718	-0.127974
C22	C	-1.027029	-0.687015	-0.190549
O23	O	-0.973776	-0.714641	-0.243763
C24	C	-1.027005	-0.473358	-0.190556
C25	C	-1.089617	-0.446645	-0.127987
C26	C	-1.214832	-0.446632	-0.002851
C27	C	-1.214830	-0.393220	-0.002858
C28	C	-1.152221	-0.366521	-0.065430
C29	C	-1.089614	-0.393234	-0.127995
C30	C	-0.964385	-0.446656	-0.253126
C31	C	-0.964383	-0.393238	-0.253121
C32	C	-1.026996	-0.366526	-0.190552
C33	C	-1.027003	-0.313124	-0.190574
N34	N	-1.089605	-0.286408	-0.128002
C35	C	-1.152214	-0.313107	-0.065431
C36	C	-1.027047	-0.799189	-0.190542
C37	C	-1.027054	-0.852603	-0.190541
C38	C	-1.152270	-0.852587	-0.065394
C39	C	-1.152267	-0.799172	-0.065399
C40	C	-1.089649	-0.772474	-0.127970
C41	C	-1.152205	-0.200939	-0.065451
C42	C	-1.152199	-0.147523	-0.065466
C43	C	-1.026980	-0.147544	-0.190610
C44	C	-1.026989	-0.200956	-0.190598
C45	C	-1.089604	-0.227652	-0.128011
O46	O	-0.973806	-0.285464	-0.243779
O47	O	-1.205445	-0.285472	-0.012211
C48	C	-1.152228	-0.526756	-0.065408
C49	C	-1.089621	-0.553468	-0.127973
C50	C	-1.027013	-0.526769	-0.190545
C51	C	-1.089628	-0.606882	-0.127972
C52	C	-1.152237	-0.633581	-0.065401
C53	C	-1.214839	-0.606866	-0.002830
C54	C	-1.214836	-0.553455	-0.002837
C55	C	-0.964411	-0.553485	-0.253116
C56	C	-0.964419	-0.606896	-0.253104
C57	C	-1.027028	-0.633595	-0.190533
C58	C	-0.258221	-0.000071	-0.121553
C59	C	-0.360602	-0.000071	-0.123541
C60	C	-1.096078	-0.000068	0.040591
C61	C	-1.094089	-0.000068	0.142972
N62	N	-1.089662	0.120698	-0.127969
C63	C	-1.083168	-0.000057	-0.296606
C64	C	-1.085156	-0.000053	-0.398987
C65	C	-1.086770	-0.000055	0.517868
C66	C	-1.088803	-0.000059	0.413560
C67	C	-1.090430	-0.000062	0.330423
C68	C	-1.092463	-0.000065	0.226109
H69	H	-1.203189	-0.125775	-0.014515
H70	H	-1.265815	-0.468365	0.048107
H71	H	-1.203250	-0.777425	-0.014450
O72	O	-1.275507	-0.367182	0.057919
C73	C	-1.332496	-0.336170	0.008628
H74	H	-1.334547	-0.352263	-0.064060
H75	H	-1.405615	-0.335431	0.046359
H76	H	-1.303409	-0.295742	0.003728
H77	H	-0.913389	-0.371503	-0.304073
O78	O	-0.966137	-0.226966	-0.251253
C79	C	-0.909151	-0.257847	-0.201723
H80	H	-0.945767	-0.265840	-0.129638
H81	H	-0.894622	-0.295413	-0.240173
H82	H	-0.840987	-0.237261	-0.195309
H83	H	-0.976054	-0.777455	-0.241497
O84	O	-1.213047	-0.878471	-0.004480
C85	C	-1.197882	-0.865428	0.086846
H86	H	-1.162340	-0.826646	0.086811
H87	H	-1.267121	-0.863601	0.132120
H88	H	-1.151924	-0.895490	0.115456
H89	H	-0.976008	-0.125797	-0.241558
H90	H	-0.913401	-0.468398	-0.304075
O91	O	-0.966150	-0.878469	-0.251361
C92	C	-0.910907	-0.843443	-0.306598
H93	H	-0.909809	-0.805368	-0.268780
H94	H	-0.837282	-0.858877	-0.320502
H95	H	-0.940957	-0.837763	-0.375176
O96	O	-1.275689	-0.527589	0.058036
C97	C	-1.330957	-0.562617	0.113242
H98	H	-1.293141	-0.600692	0.114360
H99	H	-1.344909	-0.547186	0.186865
H100	H	-1.399510	-0.568298	0.083144
H101	H	-1.265821	-0.628613	0.048116
H102	H	-0.913426	-0.531750	-0.304068
O103	O	-1.213117	-0.226788	-0.004620
C104	C	-1.268350	-0.191748	0.050610
H105	H	-1.269442	-0.153678	0.012781
H106	H	-1.341978	-0.207172	0.064521
H107	H	-1.238295	-0.186061	0.119184
O108	O	-0.903504	-0.632762	-0.313924
C109	C	-0.848263	-0.597736	-0.369162
H110	H	-0.847173	-0.559659	-0.331349
H111	H	-0.774635	-0.613167	-0.383058
H112	H	-0.878308	-0.592060	-0.437744
