data_functionalizedCrystal
_audit_creation_method	'MofGen! by Chris Wilmer'
_symmetry_space_group_name_H-M	'P1'
_symmetry_Int_Tables_number	1
_symmetry_cell_setting	triclinic
loop_
_symmetry_equiv_pos_as_xyz
  x,y,z
_cell_length_a	18.215407
_cell_length_b	12.759394
_cell_length_c	18.215399
_cell_angle_alpha	89.976418
_cell_angle_beta	89.982632
_cell_angle_gamma	90.011299
loop_
_atom_site_label
_atom_site_type_symbol
_atom_site_fract_x
_atom_site_fract_y
_atom_site_fract_z
Zn1	Zn	1.125128	-0.418349	-0.416090
Zn2	Zn	1.125060	-0.594046	-0.293033
Zn3	Zn	1.002061	-0.418374	-0.293042
Zn4	Zn	1.002050	-0.593979	-0.416063
O5	O	1.063575	-0.506187	-0.354557
O6	O	1.228104	-0.441673	-0.399773
O7	O	1.108720	-0.570782	-0.190050
O8	O	1.018419	-0.271350	-0.309380
O9	O	1.228054	-0.570758	-0.309364
O10	O	1.108836	-0.271331	-0.399782
O11	O	1.018353	-0.441716	-0.190057
O12	O	0.899075	-0.441651	-0.309354
O13	O	1.018401	-0.570642	-0.519051
O14	O	0.899068	-0.570667	-0.399737
O15	O	1.108826	-0.441608	-0.519071
O16	O	1.108710	-0.741058	-0.309338
O17	O	1.018335	-0.741009	-0.399728
C18	C	0.872369	-0.506155	-0.354544
C19	C	0.790570	-0.506166	-0.354556
C20	C	0.602401	-0.439090	-0.401707
C21	C	0.525542	-0.439099	-0.401709
C22	C	0.525501	-0.573313	-0.307420
C23	C	0.602358	-0.573298	-0.307415
C24	C	0.640806	-0.506188	-0.354562
C25	C	0.487090	-0.506212	-0.354570
C26	C	0.403757	-0.506223	-0.354573
C27	C	0.724145	-0.506176	-0.354559
C28	C	1.063534	-0.779155	-0.354545
C29	C	1.063584	-0.895931	-0.354564
C30	C	1.157665	-0.895754	-0.448771
C31	C	1.204728	-0.950526	-0.495880
C32	C	1.204772	-1.060247	-0.495896
C33	C	1.157746	-1.115199	-0.448799
C34	C	1.110682	-1.060427	-0.401690
C35	C	1.110645	-0.950703	-0.401678
C36	C	1.016599	-1.060605	-0.307489
C37	C	1.016557	-0.950883	-0.307468
C38	C	0.969572	-1.115557	-0.260392
C39	C	0.922511	-1.060785	-0.213278
C40	C	0.922470	-0.951057	-0.213264
C41	C	0.969494	-0.896111	-0.260359
C42	C	1.255528	-0.506220	-0.354570
C43	C	1.337327	-0.506234	-0.354576
C44	C	1.063620	-0.506115	-0.546510
C45	C	1.063639	-0.506084	-0.628309
C46	C	1.063636	-0.232154	-0.354585
C47	C	1.063662	-0.115377	-0.354597
C48	C	1.110740	-0.438833	-0.816514
C49	C	1.110749	-0.438802	-0.893373
C50	C	1.016590	-0.573172	-0.893342
C51	C	1.016578	-0.573197	-0.816484
C52	C	1.063657	-0.506029	-0.778073
C53	C	1.063678	-0.505973	-0.931789
C54	C	1.063687	-0.505941	-1.015122
C55	C	1.063647	-0.506060	-0.694734
C56	C	1.063573	-0.506183	-0.163351
C57	C	1.063696	-0.505918	-0.081552
H58	H	1.157641	-0.806413	-0.448756
H59	H	0.494276	-0.384460	-0.440098
H60	H	0.494188	-0.627952	-0.269036
H61	H	0.969468	-0.806770	-0.260349
C62	C	0.644607	-0.647113	-0.255556
H63	H	0.610703	-0.687094	-0.227485
H64	H	0.674580	-0.606861	-0.223536
H65	H	0.674597	-0.692935	-0.283659
H66	H	1.149087	-0.384083	-0.924669
C67	C	1.162518	-0.364946	-0.774261
H68	H	1.155774	-0.374589	-0.722981
H69	H	1.151763	-0.294351	-0.786864
H70	H	1.211966	-0.380329	-0.786863
H71	H	1.243016	-0.905774	-0.534227
C72	C	0.964785	-0.647113	-0.774192
H73	H	0.971516	-0.637498	-0.722917
H74	H	0.975540	-0.717703	-0.786776
H75	H	0.915341	-0.631719	-0.786782
H76	H	0.884222	-1.105535	-0.174940
C77	C	0.964814	-0.647060	-0.935596
H78	H	0.971569	-0.637431	-0.986876
H79	H	0.915367	-0.631687	-0.922997
H80	H	0.975575	-0.717659	-0.922991
C81	C	0.870698	-0.890815	-0.161444
H82	H	0.842704	-0.939260	-0.133397
H83	H	0.838605	-0.848019	-0.189563
H84	H	0.898853	-0.848015	-0.129388
H85	H	0.633703	-0.384442	-0.440095
C86	C	1.256543	-1.120499	-0.547711
H87	H	1.284547	-1.072062	-0.575754
H88	H	1.228394	-1.163309	-0.579758
H89	H	1.288639	-1.163286	-0.519580
C90	C	1.157792	-1.235890	-0.448820
H91	H	1.192557	-1.260640	-0.483619
H92	H	1.110304	-1.260751	-0.461509
H93	H	1.170557	-1.260738	-0.401340
H94	H	0.969608	-1.204898	-0.260411
