data_functionalizedCrystal
_audit_creation_method	'MofGen! by Chris Wilmer'
_symmetry_space_group_name_H-M	'P1'
_symmetry_Int_Tables_number	1
_symmetry_cell_setting	triclinic
loop_
_symmetry_equiv_pos_as_xyz
  x,y,z
_cell_length_a	35.288113
_cell_length_b	35.282844
_cell_length_c	35.277682
_cell_angle_alpha	120.000030
_cell_angle_beta	90.000425
_cell_angle_gamma	59.985448
loop_
_atom_site_label
_atom_site_type_symbol
_atom_site_fract_x
_atom_site_fract_y
_atom_site_fract_z
O1	O	-0.259855	-0.334376	-0.011290
O2	O	-0.204773	-0.256750	0.011214
O3	O	-0.204747	-0.334374	-0.066414
O4	O	-0.259881	-0.256752	0.066338
O5	O	-0.267796	-0.271323	-0.066407
O6	O	-0.267822	-0.193699	0.011221
O7	O	-0.322904	-0.271325	-0.011283
Cu8	Cu	-0.301120	-0.226755	-0.000030
Cu9	Cu	-0.226557	-0.301320	-0.000039
O10	O	-0.322930	-0.193701	0.066345
C11	C	-0.095943	0.006465	0.034094
C12	C	-0.118849	-0.016235	0.034417
C13	C	-0.027301	-0.062175	0.034097
C14	C	-0.050311	-0.084771	0.034420
C15	C	-0.095925	-0.062174	0.034099
C16	C	-0.050330	-0.016236	0.034415
C17	C	-0.137887	0.159560	0.021655
C18	C	-0.159497	0.202921	0.018138
C19	C	-0.204697	0.224672	0.016374
C20	C	-0.228128	0.271681	0.012552
C21	C	-0.228287	0.203062	0.018130
C22	C	-0.206678	0.159710	0.021653
C23	C	-0.161476	0.137959	0.023415
C24	C	-0.207065	-0.116515	0.021677
C25	C	-0.228810	-0.141634	0.018165
C26	C	-0.205351	-0.188603	0.016402
C27	C	-0.228920	-0.215846	0.012587
C28	C	-0.160145	-0.210451	0.018156
C29	C	-0.138404	-0.185328	0.021676
C30	C	-0.161869	-0.138359	0.023433
C31	C	0.138198	-0.116522	0.021668
C32	C	0.185071	-0.141646	0.018149
C33	C	0.208593	-0.188615	0.016388
C34	C	0.259415	-0.215860	0.012569
C35	C	0.185242	-0.210462	0.018142
C36	C	0.138371	-0.185338	0.021659
C37	C	0.114851	-0.138364	0.023426
C38	C	-0.138047	0.090946	0.027231
C39	C	-0.119372	0.053474	0.030274
C40	C	0.023519	-0.089416	0.030281
C41	C	0.064029	-0.111128	0.027240
C42	C	-0.119498	-0.089413	0.030284
C43	C	-0.138290	-0.111124	0.027245
C44	C	-0.364258	-0.456770	-0.023612
C45	C	-0.340857	-0.503556	-0.020399
C46	C	-0.409872	-0.434067	-0.023931
C47	C	-0.364282	-0.388121	-0.023604
C48	C	-0.340907	-0.361507	-0.020382
C49	C	-0.409896	-0.365522	-0.023922
C50	C	-0.432903	-0.388122	-0.023605
C51	C	-0.482899	-0.361511	-0.020383
C52	C	-0.341354	-0.434065	-0.023930
C53	C	-0.523291	-0.340011	-0.017779
C54	C	-0.321952	-0.541354	-0.017801
C55	C	-0.322022	-0.340006	-0.017777
C56	C	-0.573964	-0.313038	-0.014513
C57	C	-0.298234	-0.588774	-0.014544
C58	C	-0.298331	-0.313032	-0.014510
C59	C	-0.095801	-0.466212	-0.438584
C60	C	-0.050179	-0.512156	-0.461507
C61	C	-0.095801	-0.466212	-0.369941
C62	C	-0.050179	-0.512156	-0.392968
C63	C	-0.027156	-0.534859	-0.438590
C64	C	-0.118720	-0.443613	-0.392961
C65	C	-0.206997	-0.342589	-0.480488
C66	C	-0.228756	-0.317316	-0.502091
C67	C	-0.205301	-0.339009	-0.547300
C68	C	-0.228889	-0.311603	-0.570723
C69	C	-0.160085	-0.385979	-0.570907
C70	C	-0.138332	-0.411252	-0.549306
C71	C	-0.161789	-0.389555	-0.504094
C72	C	0.138377	-0.687972	-0.549793
C73	C	0.185255	-0.731338	-0.571555
C74	C	0.208773	-0.753091	-0.548104
C75	C	0.259601	-0.800105	-0.571692
C76	C	0.185407	-0.731478	-0.502888
C77	C	0.138530	-0.688121	-0.481130
C78	C	0.115018	-0.666368	-0.504588
C79	C	-0.206997	-0.342589	-0.204397
C80	C	-0.228755	-0.317311	-0.157516
C81	C	-0.205299	-0.339004	-0.134002
C82	C	-0.228887	-0.311598	-0.083170
C83	C	-0.160086	-0.385970	-0.157370
C84	C	-0.138330	-0.411243	-0.204250
C85	C	-0.161792	-0.389551	-0.227761
C86	C	-0.138195	-0.416961	-0.480674
C87	C	-0.119391	-0.438806	-0.462005
C88	C	-0.119391	-0.438806	-0.319111
C89	C	-0.138196	-0.416961	-0.278594
C90	C	0.023672	-0.581873	-0.462183
C91	C	0.064188	-0.619349	-0.480990
O92	O	0.408892	-0.271336	-0.011291
O93	O	0.276164	-0.193713	0.011202
O94	O	0.353787	-0.271346	-0.066421
O95	O	0.331268	-0.193702	0.066332
O96	O	0.353804	-0.334390	-0.066416
O97	O	0.276180	-0.256756	0.011207
O98	O	0.408908	-0.334379	-0.011287
Cu99	Cu	0.342546	-0.301324	-0.000040
Cu100	Cu	0.342526	-0.226768	-0.000045
O101	O	0.331285	-0.256745	0.066337
O102	O	-0.322789	0.397311	-0.011322
O103	O	-0.267651	0.287070	0.011181
O104	O	-0.267645	0.287053	-0.066446
O105	O	-0.322795	0.397328	0.066305
O106	O	-0.204616	0.287052	-0.066448
O107	O	-0.204623	0.287069	0.011179
O108	O	-0.259760	0.397310	-0.011323
Cu109	Cu	-0.226437	0.342189	-0.000072
Cu110	Cu	-0.300975	0.342190	-0.000070
O111	O	-0.259767	0.397327	0.066304
O112	O	0.409101	-0.925752	-0.602685
O113	O	0.276361	-0.815495	-0.547552
O114	O	0.353955	-0.815494	-0.547549
O115	O	0.331506	-0.925753	-0.602687
O116	O	0.353957	-0.815495	-0.610597
O117	O	0.276362	-0.815497	-0.610599
O118	O	0.409103	-0.925753	-0.665732
Cu119	Cu	0.342733	-0.870625	-0.643922
Cu120	Cu	0.342731	-0.870623	-0.569362
O121	O	0.331508	-0.925755	-0.665734
O122	O	-0.259884	-0.256748	-0.665371
O123	O	-0.204748	-0.334374	-0.610256
O124	O	-0.204775	-0.256748	-0.610246
O125	O	-0.259857	-0.334373	-0.665381
O126	O	-0.267823	-0.193698	-0.547193
O127	O	-0.267795	-0.271324	-0.547203
O128	O	-0.322932	-0.193698	-0.602318
Cu129	Cu	-0.301121	-0.226754	-0.569003
Cu130	Cu	-0.226559	-0.301318	-0.643571
O131	O	-0.322905	-0.271324	-0.602328
C132	C	-0.433013	-0.071311	0.293214
C133	C	-0.483015	-0.024525	0.316610
C134	C	-0.409990	-0.094014	0.316131
C135	C	-0.364367	-0.139958	0.224565
C136	C	-0.340974	-0.166571	0.174561
C137	C	-0.341449	-0.162557	0.247586
C138	C	-0.364368	-0.139958	0.293208
C139	C	-0.340975	-0.166569	0.316598
C140	C	-0.409989	-0.094015	0.247592
C141	C	-0.322076	-0.188069	0.335493
C142	C	-0.523412	0.013272	0.335510
C143	C	-0.322074	-0.188072	0.134162
C144	C	-0.298367	-0.215042	0.359199
C145	C	-0.574092	0.060691	0.359223
C146	C	-0.298364	-0.215045	0.083480
C147	C	0.318955	-0.139933	0.293205
C148	C	0.322181	-0.166539	0.316599
C149	C	0.318623	-0.093991	0.316121
C150	C	0.318954	-0.139943	0.224557
C151	C	0.322178	-0.166559	0.174553
C152	C	0.318622	-0.094001	0.247578
C153	C	0.318938	-0.071294	0.293200
C154	C	0.322144	-0.024511	0.316589
C155	C	0.318639	-0.162536	0.247583
C156	C	0.324736	0.013285	0.335484
C157	C	0.324788	-0.188034	0.335499
C158	C	0.324784	-0.188064	0.134154
C159	C	0.327987	0.060702	0.359190
C160	C	0.328058	-0.215001	0.359211
C161	C	0.328052	-0.215041	0.083473
C162	C	-0.364296	0.611920	0.293175
C163	C	-0.340922	0.638535	0.316568
C164	C	-0.409912	0.634522	0.316095
C165	C	-0.364270	0.543265	0.224529
C166	C	-0.340868	0.496473	0.174524
C167	C	-0.409885	0.565971	0.247553
C168	C	-0.432919	0.611920	0.293175
C169	C	-0.482915	0.638534	0.316567
C170	C	-0.341367	0.565971	0.247553
C171	C	-0.523308	0.660036	0.335466
C172	C	-0.322038	0.660038	0.335466
C173	C	-0.321961	0.458671	0.134125
C174	C	-0.573982	0.687011	0.359175
C175	C	-0.298347	0.687014	0.359175
C176	C	-0.298242	0.411245	0.083443
C177	C	0.376736	-0.534611	-0.438590
C178	C	0.377050	-0.511914	-0.461511
C179	C	0.376720	-0.465962	-0.369947
C180	C	0.377034	-0.443369	-0.392973
C181	C	0.376718	-0.465972	-0.438594
C182	C	0.377052	-0.511904	-0.392968
C183	C	0.364351	-0.687713	-0.480496
C184	C	0.360850	-0.731076	-0.502099
C185	C	0.359091	-0.752833	-0.547308
C186	C	0.355285	-0.799845	-0.570731
C187	C	0.360838	-0.731227	-0.570913
C188	C	0.364346	-0.687871	-0.549312
C189	C	0.366103	-0.666114	-0.504101
C190	C	0.364277	-0.411646	-0.549793
C191	C	0.360757	-0.386531	-0.571554
C192	C	0.358979	-0.339558	-0.548101
C193	C	0.355156	-0.312319	-0.571688
C194	C	0.360728	-0.317705	-0.502887
C195	C	0.364256	-0.342824	-0.481130
C196	C	0.366027	-0.389797	-0.504588
C197	C	0.364285	-0.411596	-0.204405
C198	C	0.360761	-0.386467	-0.157524
C199	C	0.358986	-0.339495	-0.134010
C200	C	0.355162	-0.312245	-0.083178
C201	C	0.360731	-0.317651	-0.157377
C202	C	0.364253	-0.342780	-0.204256
C203	C	0.366034	-0.389757	-0.227768
C204	C	0.369902	-0.619098	-0.480680
C205	C	0.372933	-0.581623	-0.462011
C206	C	0.372898	-0.438716	-0.319117
C207	C	0.369854	-0.416999	-0.278600
C208	C	0.372895	-0.438736	-0.462185
C209	C	0.369849	-0.417028	-0.480991
O210	O	0.353784	-0.271260	0.452826
O211	O	0.331275	-0.193654	0.397692
O212	O	0.408895	-0.271275	0.397688
O213	O	0.276165	-0.193638	0.452830
O214	O	0.408910	-0.334328	0.334642
O215	O	0.331290	-0.256707	0.334646
O216	O	0.353799	-0.334313	0.389780
Cu217	Cu	0.342546	-0.301267	0.356456
Cu218	Cu	0.342528	-0.226699	0.431015
O219	O	0.276180	-0.256692	0.389784
C220	C	-0.027256	-0.062279	-0.438625
C221	C	-0.050263	-0.084881	-0.461544
C222	C	-0.095904	0.006376	-0.369978
C223	C	-0.118807	-0.016330	-0.393002
C224	C	-0.095878	-0.062279	-0.438624
C225	C	-0.050289	-0.016330	-0.393002
C226	C	0.138246	-0.116629	-0.480543
C227	C	0.185118	-0.141752	-0.502150
C228	C	0.208644	-0.188731	-0.547359
C229	C	0.259468	-0.215979	-0.570786
C230	C	0.185294	-0.210584	-0.570962
C231	C	0.138424	-0.185457	-0.549358
C232	C	0.114900	-0.138478	-0.504146
C233	C	-0.137737	-0.185914	-0.549816
C234	C	-0.159327	-0.211189	-0.571575
C235	C	-0.204527	-0.189497	-0.548119
C236	C	-0.227938	-0.216902	-0.571704
C237	C	-0.228139	-0.142522	-0.502904
C238	C	-0.206553	-0.117243	-0.481150
C239	C	-0.161347	-0.138947	-0.504611
C240	C	-0.137866	0.159511	-0.204438
C241	C	-0.159479	0.202879	-0.157556
C242	C	-0.204681	0.224635	-0.134039
C243	C	-0.228118	0.271656	-0.083207
C244	C	-0.228266	0.203019	-0.157403
C245	C	-0.206650	0.159651	-0.204283
C246	C	-0.161450	0.137903	-0.227798
C247	C	0.064077	-0.111238	-0.480721
C248	C	0.023567	-0.089523	-0.462049
C249	C	-0.119338	0.053397	-0.319148
C250	C	-0.138018	0.090879	-0.278631
C251	C	-0.119285	-0.089687	-0.462213
C252	C	-0.137943	-0.111534	-0.481016
H253	H	-0.265616	-0.123843	0.016736
H254	H	0.204125	-0.123956	-0.482930
N255	N	-0.134787	-0.409376	-0.619665
H256	H	-0.126477	-0.446839	-0.641441
H257	H	-0.155450	-0.386201	-0.629727
N258	N	-0.434477	-0.068851	0.223109
H259	H	-0.436153	-0.095639	0.194429
H260	H	-0.466921	-0.036244	0.244663
H261	H	-0.101082	0.141855	0.023091
N262	N	0.366144	-0.319226	-0.229459
H263	H	0.368644	-0.342272	-0.262724
H264	H	0.336975	-0.281748	-0.213667
N265	N	0.317936	-0.068839	0.223092
H266	H	0.317793	-0.090210	0.190635
H267	H	0.289158	-0.030817	0.240870
N268	N	-0.025705	-0.537331	-0.511165
H269	H	-0.016464	-0.575348	-0.531437
H270	H	-0.047252	-0.515920	-0.522204
N271	N	-0.291722	0.540799	0.223068
H272	H	-0.271441	0.502781	0.213828
H273	H	-0.289863	0.540618	0.194403
N274	N	0.210761	-0.754941	-0.477591
H275	H	0.237768	-0.751949	-0.474586
H276	H	0.188809	-0.734656	-0.445666
H277	H	0.119415	-0.203250	-0.568578
H278	H	-0.428342	-0.453070	-0.024449
N279	N	0.377735	-0.537077	-0.511162
H280	H	0.406506	-0.548115	-0.531442
H281	H	0.377874	-0.569663	-0.522212
N282	N	-0.291798	-0.211529	0.223100
H283	H	-0.280708	-0.222471	0.190643
H284	H	-0.271566	-0.202993	0.240878
N285	N	-0.291713	-0.459226	-0.024610
H286	H	-0.280616	-0.491833	-0.024761
H287	H	-0.271472	-0.470227	-0.053386
H288	H	0.377537	-0.406398	-0.374487
H289	H	0.204452	-0.248833	-0.607772
N290	N	-0.025669	-0.537283	-0.368468
H291	H	-0.047178	-0.515901	-0.336002
H292	H	-0.016387	-0.575315	-0.386217
H293	H	-0.156200	-0.406634	-0.374471
N294	N	-0.277518	-0.266657	-0.476627
H295	H	-0.277587	-0.236586	-0.473563
H296	H	-0.298534	-0.272743	-0.494566
N297	N	0.317927	-0.068810	0.365776
H298	H	0.317782	-0.090173	0.376868
H299	H	0.346387	-0.068598	0.367639
H300	H	0.318144	-0.199512	0.229098
N301	N	-0.434473	-0.068849	0.365783
H302	H	-0.436148	-0.095634	0.367676
H303	H	-0.416725	-0.057811	0.386031
N304	N	-0.434355	0.540803	0.223071
H305	H	-0.412833	0.508191	0.190613
H306	H	-0.443591	0.529807	0.240851
N307	N	0.358815	-0.266987	-0.132019
H308	H	0.356320	-0.254381	-0.098776
H309	H	0.387972	-0.274416	-0.147749
H310	H	0.377571	-0.530900	-0.374482
N311	N	-0.134840	-0.261105	0.016262
H312	H	-0.155470	-0.273706	0.013767
H313	H	-0.105550	-0.289801	-0.011677
H314	H	-0.031815	0.002671	-0.374519
H315	H	0.365681	-0.325029	-0.444317
N316	N	-0.434407	0.683494	0.365749
H317	H	-0.412902	0.694436	0.376839
H318	H	-0.463088	0.713826	0.367613
N319	N	0.358875	-0.410023	-0.132321
H320	H	0.360537	-0.443594	-0.154330
H321	H	0.385961	-0.419153	-0.120440
H322	H	0.365739	-0.449849	-0.223548
N323	N	0.366251	-0.664252	-0.431737
H324	H	0.364616	-0.684520	-0.420063
H325	H	0.396255	-0.667249	-0.431775
H326	H	0.204275	-0.748930	-0.608368
N327	N	0.358966	-0.754380	-0.476643
H328	H	0.360611	-0.734018	-0.444726
H329	H	0.328964	-0.751377	-0.473612
H330	H	0.359409	-0.748947	-0.607723
N331	N	-0.088987	-0.209314	-0.575123
H332	H	-0.078892	-0.186176	-0.554481
H333	H	-0.067241	-0.246779	-0.583426
N334	N	-0.277517	-0.266655	-0.132312
H335	H	-0.289077	-0.256749	-0.154321
H336	H	-0.298522	-0.272734	-0.120430
N337	N	0.366233	-0.664570	-0.574769
H338	H	0.364586	-0.684930	-0.606686
H339	H	0.339138	-0.625593	-0.556808
N340	N	0.366190	-0.462307	-0.575091
H341	H	0.364549	-0.472340	-0.607034
H342	H	0.396199	-0.492288	-0.578056
N343	N	-0.134044	0.226197	-0.132361
H344	H	-0.154596	0.256971	-0.099095
H345	H	-0.104749	0.197606	-0.133022
H346	H	-0.156289	0.002680	-0.374517
N347	N	-0.276894	-0.119114	-0.477605
H348	H	-0.286989	-0.142253	-0.498246
H349	H	-0.277654	-0.117754	-0.448313
N350	N	0.358868	-0.410096	-0.620315
H351	H	0.360524	-0.443662	-0.631871
H352	H	0.328858	-0.383110	-0.620336
N353	N	0.358820	-0.267049	-0.477591
H354	H	0.356321	-0.254451	-0.498233
H355	H	0.330883	-0.238352	-0.448298
N356	N	0.210608	-0.261124	0.016240
H357	H	0.243843	-0.273726	0.013746
H358	H	0.194883	-0.253694	0.045405
N359	N	-0.025773	-0.133855	-0.511197
H360	H	0.006678	-0.144798	-0.522287
H361	H	-0.024113	-0.164185	-0.513057
N362	N	-0.089114	0.136051	-0.229801
H363	H	-0.077451	0.156321	-0.207887
H364	H	-0.068154	0.097070	-0.241691
N365	N	0.112875	-0.065960	-0.431783
H366	H	0.134777	-0.055928	-0.420111
H367	H	0.085858	-0.035983	-0.431815
N368	N	-0.133863	-0.261850	-0.620338
H369	H	-0.101952	-0.271761	-0.631896
H370	H	-0.130829	-0.291885	-0.620362
H371	H	-0.225782	-0.078995	-0.444337
N372	N	-0.232301	-0.319192	-0.229756
H373	H	-0.211661	-0.342332	-0.263000
H374	H	-0.261580	-0.317843	-0.229155
N375	N	-0.232292	-0.319180	-0.431722
H376	H	-0.264234	-0.285591	-0.420045
H377	H	-0.235248	-0.346221	-0.431743
H378	H	-0.101519	-0.449495	-0.568529
H379	H	0.119236	-0.670266	-0.568897
H380	H	-0.225857	0.142055	-0.223303
N381	N	-0.277019	0.226479	-0.132042
H382	H	-0.287136	0.257232	-0.098799
H383	H	-0.298754	0.239912	-0.147769
H384	H	-0.101516	-0.449484	-0.223273
N385	N	-0.025823	-0.133737	0.035104
H386	H	-0.016583	-0.125237	0.063879
H387	H	-0.047358	-0.144643	0.035244
N388	N	-0.168492	0.008931	0.035103
H389	H	-0.179587	0.041535	0.035250
H390	H	-0.170346	-0.017891	0.006633
N391	N	0.113329	-0.664813	-0.432368
H392	H	0.135337	-0.685171	-0.420811
H393	H	0.101437	-0.625837	-0.411350
H394	H	-0.031859	0.002767	0.034933
N395	N	0.210255	-0.118085	0.016253
H396	H	0.194494	-0.080610	0.045418
H397	H	0.243513	-0.141167	0.013738
N398	N	0.112829	-0.065857	0.023577
H399	H	0.134733	-0.055831	0.021929
H400	H	0.100943	-0.071993	-0.003513
H401	H	-0.226175	-0.078271	0.023109
N402	N	-0.134056	0.226223	0.016237
H403	H	-0.125753	0.239638	0.045400
H404	H	-0.104782	0.197629	-0.011720
N405	N	-0.277037	0.226525	0.016233
H406	H	-0.287148	0.257269	0.013736
H407	H	-0.277783	0.197987	-0.011704
N408	N	-0.232119	0.136406	0.023550
H409	H	-0.264031	0.156762	0.021898
H410	H	-0.214152	0.097428	-0.003542
H411	H	-0.101599	-0.203118	0.023107
N412	N	-0.134785	-0.409375	-0.132014
H413	H	-0.152765	-0.418479	-0.120130
H414	H	-0.102846	-0.442945	-0.153957
N415	N	0.113186	-0.208899	0.023550
H416	H	0.135197	-0.242465	0.021902
H417	H	0.086174	-0.181912	0.053561
H418	H	-0.428386	-0.328550	-0.024432
