data_functionalizedCrystal
_audit_creation_method	'MofGen! by Chris Wilmer'
_symmetry_space_group_name_H-M	'P1'
_symmetry_Int_Tables_number	1
_symmetry_cell_setting	triclinic
loop_
_symmetry_equiv_pos_as_xyz
  x,y,z
_cell_length_a	11.792241
_cell_length_b	14.971486
_cell_length_c	14.048226
_cell_angle_alpha	89.998499
_cell_angle_beta	90.001436
_cell_angle_gamma	96.096228
loop_
_atom_site_label
_atom_site_type_symbol
_atom_site_fract_x
_atom_site_fract_y
_atom_site_fract_z
O1	O	-0.147909	1.187540	-0.079040
O2	O	-0.165622	0.927210	-0.079065
O3	O	0.008446	1.063692	-0.079058
O4	O	-0.321977	1.051058	-0.079048
O5	O	0.008456	1.063676	0.079264
O6	O	-0.165611	0.927194	0.079256
O7	O	-0.147899	1.187523	0.079281
Zn8	Zn	-0.156753	1.057356	0.104406
Zn9	Zn	-0.156767	1.057378	-0.104190
O10	O	-0.321966	1.051041	0.079274
C11	C	-0.164824	0.893874	0.000092
C12	C	-0.162451	0.794568	0.000082
C13	C	-0.264710	0.737752	0.000087
C14	C	-0.262473	0.644444	0.000101
C15	C	-0.157975	0.607953	0.000104
C16	C	-0.055707	0.664776	0.000102
C17	C	-0.057946	0.758082	0.000095
C18	C	-0.051049	0.470294	0.000115
C19	C	-0.048810	0.376981	0.000121
C20	C	-0.255577	0.356656	0.000121
C21	C	-0.257815	0.449962	0.000114
C22	C	-0.155547	0.506779	0.000111
C23	C	-0.364257	1.051843	0.000115
C24	C	-0.490256	1.054218	0.000119
C25	C	-0.720940	1.058587	0.000095
C26	C	-0.592570	1.056160	0.000108
C27	C	0.050737	1.062891	0.000099
C28	C	0.176735	1.060515	0.000089
C29	C	-0.148696	1.220859	0.000122
C30	C	-0.151070	1.320166	0.000125
N31	N	-0.156744	1.057347	0.246766
N32	N	-0.156768	1.057393	-0.246550
C33	C	-0.079698	1.117801	0.296588
C34	C	-0.079698	1.117807	0.396245
C35	C	-0.156749	1.057363	0.446080
C36	C	-0.233797	0.996903	0.396252
C37	C	-0.233792	0.996894	0.296596
C38	C	-0.233806	0.996929	0.603966
C39	C	-0.233813	0.996940	0.703629
C40	C	-0.079712	1.117843	0.703615
C41	C	-0.079706	1.117833	0.603959
C42	C	-0.156757	1.057374	0.554138
H43	H	0.032229	0.516553	0.000114
F44	F	-0.315791	0.932548	0.243574
H45	H	-0.016959	1.167025	0.256019
H46	H	-0.349805	0.767455	0.000084
H47	H	-0.296545	0.947694	0.563405
H48	H	0.025325	0.804341	0.000091
H49	H	-0.016971	1.167055	0.563384
F50	F	0.002303	1.182147	0.449269
H51	H	-0.345744	0.598187	0.000104
H52	H	-0.342907	0.479670	0.000103
H53	H	-0.296555	0.947719	0.744199
F54	F	-0.364419	0.296187	0.000127
F55	F	0.062408	0.338147	0.000148
F56	F	0.055508	0.625937	0.000111
H57	H	-0.016974	1.167070	0.744186
H58	H	-0.296530	0.947684	0.436833
