data_functionalizedCrystal
_audit_creation_method	'MofGen! by Chris Wilmer'
_symmetry_space_group_name_H-M	'P1'
_symmetry_Int_Tables_number	1
_symmetry_cell_setting	triclinic
loop_
_symmetry_equiv_pos_as_xyz
  x,y,z
_cell_length_a	16.956995
_cell_length_b	27.731996
_cell_length_c	15.455313
_cell_angle_alpha	92.636264
_cell_angle_beta	87.515363
_cell_angle_gamma	79.337929
loop_
_atom_site_label
_atom_site_type_symbol
_atom_site_fract_x
_atom_site_fract_y
_atom_site_fract_z
O1	O	1.061310	0.017787	-0.072194
O2	O	0.828938	0.034765	-0.072186
O3	O	0.952362	-0.044379	-0.072171
O4	O	0.937887	0.096930	-0.072208
O5	O	0.945304	-0.039870	0.072090
O6	O	0.821881	0.039273	0.072076
O7	O	1.054253	0.022295	0.072067
Cu8	Cu	0.937422	0.031196	0.085244
Cu9	Cu	0.945769	0.025864	-0.085362
O10	O	0.930829	0.101438	0.072053
C11	C	0.795691	0.037888	-0.000054
C12	C	0.707137	0.040473	-0.000050
C13	C	0.207595	0.059806	-0.000087
C14	C	0.290800	0.057374	-0.000086
C15	C	0.342464	0.011722	-0.000067
C16	C	0.310919	-0.031501	-0.000059
C17	C	0.227715	-0.029068	-0.000066
C18	C	0.592388	-0.000318	-0.000049
C19	C	0.675597	-0.002747	-0.000039
C20	C	0.655472	0.086129	-0.000067
C21	C	0.572267	0.088557	-0.000070
C22	C	0.540730	0.045334	-0.000066
N23	N	0.427514	0.009235	-0.000063
N24	N	0.455682	0.047821	-0.000076
C25	C	0.948536	-0.060121	-0.000038
C26	C	0.947640	-0.113745	-0.000029
C27	C	0.945853	-0.448721	-0.078708
C28	C	0.942452	-0.650259	-0.078723
O29	O	0.945250	-0.678403	-0.145601
N30	N	0.938183	-0.673004	-0.000087
C31	C	0.934758	-0.645360	0.078559
O32	O	0.931040	-0.669329	0.145443
C33	C	0.938153	-0.443822	0.078573
C34	C	0.942431	-0.421081	-0.000068
C35	C	0.950130	-0.425980	-0.157343
C36	C	0.950984	-0.375599	-0.157338
C37	C	0.947562	-0.347959	-0.078699
C38	C	0.943285	-0.370700	-0.000064
C39	C	0.934722	-0.416179	0.157217
C40	C	0.935569	-0.365791	0.157214
C41	C	0.939847	-0.343050	0.078573
C42	C	0.940718	-0.292679	0.078580
N43	N	0.944987	-0.269935	-0.000056
C44	C	0.948409	-0.297574	-0.078695
C45	C	0.932977	-0.751171	0.078546
C46	C	0.932130	-0.801555	0.078542
C47	C	0.939823	-0.806451	-0.078740
C48	C	0.940676	-0.756066	-0.078735
C49	C	0.937247	-0.728426	-0.000090
C50	C	0.950204	-0.191771	-0.078680
C51	C	0.951062	-0.141385	-0.078668
C52	C	0.943365	-0.136494	0.078613
C53	C	0.942511	-0.186875	0.078602
C54	C	0.945929	-0.214512	-0.000051
O55	O	0.937913	-0.264505	0.145423
O56	O	0.952109	-0.273594	-0.145570
C57	C	0.944999	-0.499102	-0.078712
C58	C	0.940722	-0.521843	-0.000078
C59	C	0.937300	-0.494204	0.078562
C60	C	0.939874	-0.572228	-0.000081
C61	C	0.943297	-0.599867	-0.078720
C62	C	0.947566	-0.577123	-0.157356
C63	C	0.948421	-0.526742	-0.157352
C64	C	0.933030	-0.516948	0.157198
C65	C	0.932177	-0.567330	0.157187
C66	C	0.935599	-0.594969	0.078548
C67	C	1.087501	0.019171	-0.000066
C68	C	1.176054	0.016587	-0.000076
C69	C	0.934656	0.117181	-0.000083
C70	C	0.935552	0.170805	-0.000097
N71	N	0.931558	0.034945	0.205239
N72	N	0.951640	0.022111	-0.205357
C73	C	0.984010	0.001333	0.250639
C74	C	0.979582	0.004173	0.341446
C75	C	0.922705	0.040627	0.386852
C76	C	0.870247	0.074241	0.341445
C77	C	0.874672	0.071399	0.250639
C78	C	0.903606	0.052882	0.658431
C79	C	0.899187	0.055723	0.749243
C80	C	1.008522	-0.014346	0.749238
C81	C	1.012945	-0.017183	0.658430
C82	C	0.960484	0.016429	0.613032
N83	N	0.918179	0.043532	0.479671
N84	N	0.965007	0.013522	0.520214
H85	H	0.566721	-0.035513	-0.000043
C86	C	0.762610	0.143209	0.332322
C87	C	0.807720	0.114310	0.391352
H88	H	0.724005	0.167944	0.363133
H89	H	0.797319	0.158184	0.296890
H90	H	0.735902	0.123099	0.296920
H91	H	0.834432	0.134420	0.426750
H92	H	0.773005	0.099334	0.426799
C93	C	0.533140	0.162737	-0.074264
C94	C	0.515483	0.138740	-0.000096
H95	H	0.498081	0.193718	-0.074279
H96	H	0.587202	0.167472	-0.074255
H97	H	0.526100	0.143299	-0.124560
H98	H	0.522530	0.158177	0.050200
H99	H	0.461409	0.134008	-0.000097
C100	C	1.088119	-0.065359	0.332320
C101	C	1.037253	-0.032768	0.391350
H102	H	1.123728	-0.088162	0.363130
H103	H	1.056865	-0.082555	0.296927
H104	H	1.118271	-0.047463	0.296879
H105	H	1.007096	-0.050664	0.426787
H106	H	1.068510	-0.015571	0.426758
H107	H	0.950356	-0.599636	-0.221388
H108	H	0.681160	0.121318	-0.000072
C109	C	0.447399	-0.074692	-0.000025
C110	C	0.367707	-0.081683	-0.000036
H111	H	0.482454	-0.105673	-0.000002
H112	H	0.459368	-0.058411	-0.050334
H113	H	0.454423	-0.055257	0.050281
H114	H	0.360681	-0.101115	-0.050344
H115	H	0.355734	-0.097972	0.050279
C116	C	1.120566	-0.086163	0.667550
C117	C	1.075462	-0.057258	0.608523
H118	H	1.159159	-0.110904	0.636737
H119	H	1.147281	-0.066061	0.702947
H120	H	1.085845	-0.101134	0.702988
H121	H	1.110183	-0.042284	0.573089
H122	H	1.048746	-0.077363	0.573112
C123	C	0.795098	0.122430	0.667570
C124	C	0.845948	0.089832	0.608536
H125	H	0.759505	0.145244	0.636763
H126	H	0.764935	0.104544	0.703004
H127	H	0.826371	0.139617	0.702970
H128	H	0.814675	0.072643	0.573141
H129	H	0.876114	0.107720	0.573087
C130	C	0.856696	-0.804700	0.212596
C131	C	0.927431	-0.826546	0.164990
H132	H	0.853789	-0.820129	0.265965
H133	H	0.856720	-0.770742	0.223837
H134	H	0.811605	-0.808423	0.180274
H135	H	0.972522	-0.822821	0.197309
H136	H	0.927414	-0.860513	0.153751
H137	H	0.165534	0.096981	-0.000096
H138	H	0.944158	-0.737554	-0.142772
C139	C	1.025036	-0.095717	-0.169936
C140	C	0.955719	-0.116371	-0.165104
H141	H	1.027898	-0.080273	-0.223294
H142	H	1.023128	-0.072056	-0.123094
H143	H	1.071093	-0.120819	-0.166711
H144	H	0.909661	-0.091269	-0.168322
H145	H	0.957620	-0.140035	-0.211959
C146	C	0.149459	-0.080211	-0.074221
C147	C	0.193044	-0.076577	-0.000055
H148	H	0.128060	-0.109544	-0.074217
H149	H	0.106788	-0.052678	-0.074226
H150	H	0.183977	-0.080886	-0.124518
H151	H	0.158524	-0.075899	0.050243
H152	H	0.235720	-0.104118	-0.000041
H153	H	0.717662	-0.039924	-0.000028
H154	H	0.942610	-0.828964	-0.142771
H155	H	0.932765	-0.343288	0.221258
C156	C	0.924643	-0.557415	0.312657
C157	C	0.927472	-0.592322	0.243638
H158	H	0.921728	-0.572844	0.366025
H159	H	0.971677	-0.543419	0.309389
H160	H	0.878597	-0.532314	0.309371
H161	H	0.973522	-0.617422	0.246921
H162	H	0.880433	-0.606326	0.246908
C163	C	0.860923	-0.449273	0.248474
C164	C	0.929273	-0.486574	0.243648
H165	H	0.858606	-0.430526	0.301852
H166	H	0.863593	-0.428514	0.201657
H167	H	0.814213	-0.463485	0.245201
H168	H	0.975983	-0.472362	0.246914
H169	H	0.926609	-0.507336	0.290478
H170	H	0.316476	0.092568	-0.000103
C171	C	0.957877	-0.191533	-0.234146
C172	C	0.953948	-0.222143	-0.165136
H173	H	0.960191	-0.210284	-0.287519
H174	H	0.911516	-0.166228	-0.230857
H175	H	1.004598	-0.177332	-0.230871
H176	H	0.907223	-0.236340	-0.168408
H177	H	1.000314	-0.247456	-0.168427
H178	H	0.951904	-0.508231	-0.221390
H179	H	0.939035	-0.205393	0.142638
C180	C	0.958489	-0.385512	-0.312800
C181	C	0.955673	-0.350604	-0.243784
H182	H	0.961376	-0.370082	-0.366170
H183	H	1.004538	-0.410607	-0.309531
H184	H	0.911455	-0.399515	-0.309510
H185	H	1.002710	-0.336604	-0.247070
H186	H	0.909620	-0.325501	-0.247054
H187	H	0.930188	-0.728671	0.142591
H188	H	0.931240	-0.434686	0.221256
H189	H	0.831958	0.098769	0.213675
H190	H	0.940582	-0.113981	0.142639
C191	C	0.885038	-0.477299	-0.248618
C192	C	0.953895	-0.456356	-0.243794
H193	H	0.887367	-0.496047	-0.301997
H194	H	0.882378	-0.498059	-0.201801
H195	H	0.838672	-0.451991	-0.245342
H196	H	1.000261	-0.481664	-0.247063
H197	H	0.956564	-0.435594	-0.290624
H198	H	1.030329	-0.028350	0.213676
H199	H	1.051233	-0.041712	0.786210
H200	H	0.852868	0.085410	0.786208
