data_functionalizedCrystal
_audit_creation_method	'MofGen! by Chris Wilmer'
_symmetry_space_group_name_H-M	'P1'
_symmetry_Int_Tables_number	1
_symmetry_cell_setting	triclinic
loop_
_symmetry_equiv_pos_as_xyz
  x,y,z
_cell_length_a	6.817900
_cell_length_b	17.982959
_cell_length_c	16.305550
_cell_angle_alpha	95.663793
_cell_angle_beta	103.455250
_cell_angle_gamma	102.451857
loop_
_atom_site_label
_atom_site_type_symbol
_atom_site_fract_x
_atom_site_fract_y
_atom_site_fract_z
V1	V	-4.021185	-0.106056	-0.263386
O2	O	-4.014053	0.004435	-0.258009
O3	O	-3.967692	-0.209656	-0.261933
O4	O	-3.972655	-0.104715	-0.378098
O5	O	-4.009056	-0.101232	-0.141040
V6	V	-4.505489	-0.092806	-0.248710
O7	O	-4.280728	-0.135122	-0.295579
O8	O	-4.696143	-0.063740	-0.216517
O9	O	-4.335776	0.010793	-0.250163
O10	O	-4.630018	-0.203297	-0.254086
O11	O	-4.635015	-0.097630	-0.371056
O12	O	-4.330813	-0.094147	-0.133997
C13	C	-3.811458	-0.234902	-0.257868
C14	C	-3.849007	-0.319597	-0.257445
C15	C	-4.048560	-0.363278	-0.261467
C16	C	-4.083832	-0.442859	-0.261074
C17	C	-3.919546	-0.478757	-0.256654
C18	C	-3.719978	-0.435071	-0.252634
C19	C	-3.684711	-0.355492	-0.253032
C20	C	-3.862200	-0.756002	-0.251027
C21	C	-3.897482	-0.835586	-0.250626
C22	C	-4.261321	-0.843370	-0.259069
C23	C	-4.226054	-0.763791	-0.259467
C24	C	-4.026493	-0.720112	-0.255452
C25	C	-3.988250	-0.633822	-0.255879
C26	C	-3.957783	-0.565045	-0.256220
C27	C	-3.817788	-0.101039	-0.406047
C28	C	-3.859359	-0.100628	-0.499828
C29	C	-4.010522	-0.099036	-0.840568
C30	C	-3.774699	-0.094308	-0.799624
C31	C	-3.731470	-0.095051	-0.702131
C32	C	-3.935526	-0.099825	-0.671523
C33	C	-4.098969	-0.175070	-0.722401
C34	C	-4.140853	-0.174645	-0.819949
C35	C	-4.068613	-0.029120	-0.794491
C36	C	-4.020712	-0.028524	-0.696646
C37	C	-3.893155	-0.100274	-0.575986
C38	C	-4.052902	-0.098592	-0.936105
C39	C	-4.155351	0.036035	-0.254225
C40	C	-4.097040	0.120730	-0.254654
C41	C	-4.149022	-0.097826	-0.106044
C42	C	-4.086689	-0.098233	-0.012263
H43	H	-3.607555	-0.040950	-0.666927
Cl44	Cl	-3.611323	-0.701101	-0.245971
Cl45	Cl	-3.433838	-0.300579	-0.247981
H46	H	-3.586218	-0.464305	-0.249039
H47	H	-3.671155	-0.039952	-0.811805
H48	H	-3.763691	-0.864812	-0.247031
Cl49	Cl	-4.432591	-0.718666	-0.265014
H50	H	-3.727212	-0.144540	-0.831303
Cl51	Cl	-4.334707	-0.497769	-0.266130
H52	H	-4.240545	-0.031914	-0.821316
H53	H	-3.662619	-0.145862	-0.686007
H54	H	-4.251828	-0.181285	-0.703509
H55	H	-4.102182	-0.227573	-0.850507
Cl56	Cl	-4.512206	-0.898286	-0.264120
H57	H	-4.314374	-0.181244	-0.847962
Cl58	Cl	-3.931702	0.058904	-0.814837
H59	H	-4.168045	-0.027588	-0.675295
Cl60	Cl	-4.009493	-0.256813	-0.696719
Cl61	Cl	-3.837924	0.057407	-0.643288
H62	H	-4.182342	-0.334056	-0.265059
