data_functionalizedCrystal
_audit_creation_method	'MofGen! by Chris Wilmer'
_symmetry_space_group_name_H-M	'P1'
_symmetry_Int_Tables_number	1
_symmetry_cell_setting	triclinic
loop_
_symmetry_equiv_pos_as_xyz
  x,y,z
_cell_length_a	20.453700
_cell_length_b	23.752966
_cell_length_c	11.102315
_cell_angle_alpha	84.894068
_cell_angle_beta	108.606275
_cell_angle_gamma	79.933465
loop_
_atom_site_label
_atom_site_type_symbol
_atom_site_fract_x
_atom_site_fract_y
_atom_site_fract_z
V1	V	1.356252	-0.079163	0.396971
O2	O	1.357542	0.003801	0.388680
O3	O	1.334496	-0.156964	0.394962
O4	O	1.348733	-0.077947	0.569782
O5	O	1.343206	-0.075763	0.212651
V6	V	1.517074	-0.069239	0.374839
O7	O	1.444112	-0.100931	0.445520
O8	O	1.579280	-0.047471	0.326291
O9	O	1.464428	0.008562	0.376848
O10	O	1.554917	-0.152203	0.383130
O11	O	1.569252	-0.072639	0.559160
O12	O	1.450191	-0.070456	0.202029
V13	V	1.689586	-0.079163	0.396971
O14	O	1.690875	0.003801	0.388680
O15	O	1.667829	-0.156964	0.394962
O16	O	1.682066	-0.077947	0.569782
O17	O	1.676539	-0.075763	0.212651
V18	V	1.850407	-0.069239	0.374839
O19	O	1.777445	-0.100931	0.445520
O20	O	1.912614	-0.047471	0.326291
O21	O	1.797762	0.008562	0.376848
O22	O	1.888250	-0.152203	0.383130
O23	O	1.902586	-0.072639	0.559160
O24	O	1.783524	-0.070456	0.202029
V25	V	2.022919	-0.079163	0.396971
O26	O	2.024209	0.003801	0.388680
O27	O	2.001162	-0.156964	0.394962
O28	O	2.015400	-0.077947	0.569782
O29	O	2.009873	-0.075763	0.212651
V30	V	2.183741	-0.069239	0.374839
O31	O	2.110778	-0.100931	0.445520
O32	O	2.245947	-0.047471	0.326291
O33	O	2.131095	0.008562	0.376848
O34	O	2.221583	-0.152203	0.383130
O35	O	2.235919	-0.072639	0.559160
O36	O	2.116858	-0.070456	0.202029
C37	C	1.281183	-0.175930	0.388882
C38	C	1.290547	-0.239533	0.388392
C39	C	1.409524	-0.636867	0.391855
C40	C	1.418336	-0.696630	0.391414
O41	O	1.474617	-0.730021	0.396645
N42	N	1.361928	-0.723606	0.384817
C43	C	1.296706	-0.690816	0.378675
O44	O	1.249536	-0.719249	0.373025
C45	C	1.287897	-0.631054	0.379126
C46	C	1.344307	-0.604081	0.385710
C47	C	1.465930	-0.609893	0.398440
C48	C	1.457119	-0.550133	0.398879
C49	C	1.391901	-0.517347	0.392733
C50	C	1.335496	-0.544321	0.386149
C51	C	1.222677	-0.598266	0.372993
C52	C	1.213873	-0.538500	0.373445
C53	C	1.270284	-0.511526	0.380029
C54	C	1.261467	-0.451775	0.380442
N55	N	1.317875	-0.424799	0.387038
C56	C	1.383092	-0.457585	0.393184
C57	C	1.315211	-0.816321	0.377731
C58	C	1.324018	-0.876081	0.377271
C59	C	1.445647	-0.881891	0.390013
C60	C	1.436838	-0.822129	0.390463
C61	C	1.371619	-0.789345	0.384328
C62	C	1.364583	-0.332085	0.394104
C63	C	1.355764	-0.272319	0.394537
C64	C	1.234137	-0.266515	0.381803
C65	C	1.242953	-0.326274	0.381363
C66	C	1.308182	-0.359059	0.387519
O67	O	1.205208	-0.418348	0.375219
O68	O	1.430255	-0.429146	0.398850
C69	C	1.299343	-0.075135	0.611880
C70	C	1.320253	-0.074655	0.753159
C71	C	1.405522	0.027525	0.382925
C72	C	1.389237	0.091127	0.383424
C73	C	1.387361	-0.073269	0.159924
C74	C	1.359531	-0.073746	0.018644
C75	C	1.614516	-0.175930	0.388882
C76	C	1.623881	-0.239533	0.388392
C77	C	1.441908	-0.080373	0.766180
C78	C	1.512556	-0.083008	0.839063
C79	C	1.532198	-0.082557	0.971805
C80	C	1.481185	-0.079468	1.031666
C81	C	1.410537	-0.076833	0.958784
C82	C	1.390902	-0.077286	0.826040
C83	C	1.288883	-0.071111	0.945761
C84	C	1.269240	-0.071566	0.813020
C85	C	1.237870	-0.068022	1.005623
C86	C	1.167222	-0.065391	0.932742
C87	C	1.147581	-0.065843	0.799992
C88	C	1.198592	-0.068931	0.740138
C89	C	1.632677	-0.075135	0.611880
C90	C	1.653586	-0.074655	0.753159
C91	C	1.738855	0.027525	0.382925
C92	C	1.722570	0.091127	0.383424
C93	C	1.720694	-0.073269	0.159924
C94	C	1.692864	-0.073746	0.018644
C95	C	1.947849	-0.175930	0.388882
C96	C	1.957214	-0.239533	0.388392
C97	C	1.966010	-0.075135	0.611880
C98	C	1.986920	-0.074655	0.753159
C99	C	2.072188	0.027525	0.382925
C100	C	2.055904	0.091127	0.383424
C101	C	2.054028	-0.073269	0.159924
C102	C	2.026198	-0.073746	0.018644
C103	C	1.689098	-0.272319	0.394537
C104	C	1.697909	-0.332083	0.394096
C105	C	1.641501	-0.359059	0.387499
C106	C	1.576279	-0.326269	0.381357
C107	C	1.567470	-0.266507	0.381808
C108	C	1.772349	0.123913	0.377282
C109	C	1.757053	0.183676	0.377729
C110	C	1.691979	0.210652	0.384329
C111	C	1.642196	0.177862	0.390468
C112	C	1.657491	0.118101	0.390011
C113	C	2.022431	-0.272319	0.394537
C114	C	2.031242	-0.332083	0.394096
C115	C	1.974834	-0.359059	0.387499
C116	C	1.909613	-0.326269	0.381357
C117	C	1.900804	-0.266507	0.381808
C118	C	2.105683	0.123913	0.377282
C119	C	2.090386	0.183676	0.377729
C120	C	2.025312	0.210652	0.384329
C121	C	1.975529	0.177862	0.390468
C122	C	1.990824	0.118101	0.390011
C123	C	1.674819	-0.179448	0.790430
C124	C	1.695256	-0.231617	0.875437
C125	C	1.714902	-0.231163	1.008179
C126	C	1.714113	-0.178534	1.055915
C127	C	1.693676	-0.126366	0.970909
C128	C	1.674028	-0.126825	0.838166
C129	C	1.672449	-0.021574	0.933639
C130	C	1.652797	-0.022027	0.800896
C131	C	1.671660	0.031054	0.981376
C132	C	1.651218	0.083224	0.896368
C133	C	1.631570	0.082768	0.763619
C134	C	1.632360	0.030142	0.715889
C135	C	2.008152	-0.179448	0.790430
C136	C	2.028589	-0.231617	0.875437
C137	C	2.048236	-0.231163	1.008179
C138	C	2.047446	-0.178534	1.055915
C139	C	2.027010	-0.126366	0.970909
C140	C	2.007362	-0.126825	0.838166
C141	C	2.005782	-0.021574	0.933639
C142	C	1.986131	-0.022027	0.800896
C143	C	2.004993	0.031054	0.981376
C144	C	1.984551	0.083224	0.896368
C145	C	1.964903	0.082768	0.763619
C146	C	1.965694	0.030142	0.715889
H147	H	1.401703	-0.250360	0.399894
N148	N	1.497122	-0.231152	0.375173
H149	H	1.459435	-0.234733	0.293108
H150	H	1.500153	-0.189214	0.376512
N151	N	2.144091	0.219033	0.371135
H152	H	2.123270	0.249514	0.291841
H153	H	2.187620	0.192828	0.366956
H154	H	1.648684	-0.407721	0.387133
N155	N	1.609525	0.139033	0.671922
H156	H	1.649667	0.160074	0.691288
H157	H	1.566926	0.163920	0.682500
H158	H	1.825340	0.101958	0.371909
H159	H	1.554086	-0.085521	0.790308
N160	N	2.175867	0.094718	0.370317
H161	H	2.181368	0.111864	0.288448
H162	H	2.177851	0.051898	0.371077
H163	H	2.012867	0.259314	0.384699
N164	N	1.182110	-0.355370	0.374240
H165	H	1.139458	-0.325529	0.370407
H166	H	1.195755	-0.385589	0.452986
H167	H	1.530355	-0.348242	0.375986
N168	N	1.905345	0.206961	0.397591
H169	H	1.903219	0.249793	0.396956
H170	H	1.899997	0.189689	0.479501
H171	H	1.730120	-0.178170	1.164004
H172	H	1.658812	-0.179822	0.682346
N173	N	1.259067	-0.067511	1.148787
H174	H	1.294902	-0.104151	1.196006
H175	H	1.216004	-0.065124	1.175562
N176	N	1.692843	0.031549	1.124544
H177	H	1.734773	0.050284	1.153626
H178	H	1.705870	-0.009498	1.171055
H179	H	1.181036	-0.239809	0.376793
N180	N	1.810756	0.219034	0.371129
H181	H	1.854302	0.192871	0.366899
H182	H	1.823955	0.238396	0.450249
N183	N	1.675488	0.275109	0.384828
H184	H	1.716903	0.291781	0.379941
H185	H	1.666294	0.282757	0.466649
N186	N	1.572012	0.206961	0.397591
H187	H	1.569886	0.249793	0.396956
H188	H	1.566664	0.189689	0.479501
H189	H	1.949692	0.029766	0.607806
H190	H	2.029231	-0.274466	0.836555
H191	H	2.064878	-0.273643	1.077392
N192	N	1.848772	-0.355366	0.374218
H193	H	1.808020	-0.338136	0.292305
H194	H	1.833340	-0.349248	0.450761
H195	H	1.992145	-0.179822	0.682346
H196	H	1.735034	-0.250363	0.399901
H197	H	2.068368	-0.250363	0.399901
H198	H	1.751020	-0.358773	0.399094
H199	H	1.616359	0.029766	0.607806
N200	N	2.068637	-0.178045	1.199086
H201	H	2.065034	-0.136792	1.216429
H202	H	2.118893	-0.200478	1.242700
N203	N	1.603797	0.082741	0.396641
H204	H	1.560256	0.108903	0.400893
H205	H	1.624690	0.052265	0.475934
H206	H	1.950287	0.091410	0.395024
N207	N	2.101574	-0.367432	0.400613
H208	H	2.098599	-0.409384	0.399304
H209	H	2.139262	-0.363821	0.482642
N210	N	1.517968	-0.521047	0.406021
H211	H	1.560618	-0.550894	0.409862
H212	H	1.529594	-0.501940	0.485698
H213	H	1.847695	-0.239816	0.376796
H214	H	1.090050	-0.063684	0.740653
H215	H	1.982017	-0.407721	0.387133
N216	N	1.696112	-0.288378	0.823952
H217	H	1.680564	-0.280753	0.726962
H218	H	1.662816	-0.309235	0.850874
H219	H	1.731545	-0.273643	1.077392
H220	H	1.650582	0.126070	0.935248
N221	N	1.942847	0.139034	0.671923
H222	H	1.975581	0.139238	0.620425
H223	H	1.945318	0.172411	0.722389
H224	H	2.020997	0.031420	1.089463
N225	N	1.983706	0.139981	0.947854
H226	H	1.999258	0.132353	1.044844
H227	H	1.934272	0.164728	0.912106
H228	H	1.519040	-0.636582	0.403450
N229	N	1.434934	-0.367440	0.400746
H230	H	1.469324	-0.341276	0.404981
H231	H	1.428603	-0.386810	0.321637
H232	H	1.482773	-0.800171	0.395822
N233	N	1.515988	-0.917257	0.396613
H234	H	1.513002	-0.959208	0.395322
H235	H	1.553654	-0.913641	0.478667
H236	H	1.497183	-0.079093	1.139750
N237	N	1.263168	-0.905165	0.370144
H238	H	1.247686	-0.899044	0.446635
H239	H	1.278684	-0.947989	0.370752
N240	N	1.244856	-0.780966	0.371090
H241	H	1.225848	-0.750488	0.291791
H242	H	1.251173	-0.761633	0.450246
H243	H	1.176739	-0.620216	0.367622
H244	H	1.160764	-0.511810	0.368455
H245	H	1.589725	-0.084702	1.031146
N246	N	1.420724	-0.080871	0.623013
H247	H	1.463758	-0.083229	0.596151
H248	H	1.384879	-0.044222	0.575904
H249	H	1.182607	-0.069303	0.632054
N250	N	1.112206	-0.062054	0.997301
H251	H	1.135368	-0.062163	1.092449
H252	H	1.089429	-0.096518	0.983934
