data_functionalizedCrystal
_audit_creation_method	'MofGen! by Chris Wilmer'
_symmetry_space_group_name_H-M	'P1'
_symmetry_Int_Tables_number	1
_symmetry_cell_setting	triclinic
loop_
_symmetry_equiv_pos_as_xyz
  x,y,z
_cell_length_a	12.759395
_cell_length_b	18.050589
_cell_length_c	18.050582
_cell_angle_alpha	89.981795
_cell_angle_beta	89.986559
_cell_angle_gamma	90.028909
loop_
_atom_site_label
_atom_site_type_symbol
_atom_site_fract_x
_atom_site_fract_y
_atom_site_fract_z
Zn1	Zn	1.606087	-0.295693	-0.419906
Zn2	Zn	2.106087	0.204307	0.080094
Zn3	Zn	1.605961	-0.419876	-0.295725
Zn4	Zn	2.105961	0.080124	0.204275
Zn5	Zn	1.430410	-0.295706	-0.295733
Zn6	Zn	1.930410	0.204294	0.204267
Zn7	Zn	1.430336	-0.419847	-0.419877
Zn8	Zn	1.930336	0.080153	0.080123
O9	O	1.518199	-0.357781	-0.357810
O10	O	2.018199	0.142219	0.142190
O11	O	1.753091	-0.312173	-0.403442
O12	O	2.253091	0.187827	0.096558
O13	O	1.582652	-0.403423	-0.191802
O14	O	2.082652	0.096577	0.308198
O15	O	1.453797	-0.191780	-0.312220
O16	O	1.953797	0.308220	0.187780
O17	O	1.752999	-0.403410	-0.312207
O18	O	2.252999	0.096590	0.187793
O19	O	1.582867	-0.191770	-0.403449
O20	O	2.082867	0.308230	0.096551
O21	O	1.453675	-0.312195	-0.191807
O22	O	1.953675	0.187805	0.308193
O23	O	1.283379	-0.312167	-0.312192
O24	O	1.783379	0.187833	0.187808
O25	O	1.453672	-0.403360	-0.523805
O26	O	1.953672	0.096640	-0.023805
O27	O	1.283325	-0.403373	-0.403400
O28	O	1.783325	0.096627	0.096600
O29	O	1.582796	-0.312145	-0.523827
O30	O	2.082796	0.187855	-0.023827
O31	O	1.582580	-0.523797	-0.312179
O32	O	2.082580	-0.023797	0.187821
O33	O	1.453550	-0.523776	-0.403393
O34	O	1.953550	-0.023776	0.096607
C35	C	1.245231	-0.357769	-0.357794
C36	C	1.745231	0.142231	0.142206
C37	C	1.128454	-0.357782	-0.357805
C38	C	1.628454	0.142218	0.142195
C39	C	0.909013	-0.452925	-0.452655
C40	C	1.409013	0.047075	0.047345
C41	C	0.963876	-0.500481	-0.500062
C42	C	1.463876	-0.000481	-0.000062
C43	C	1.073598	-0.500472	-0.500052
C44	C	1.573598	-0.000472	-0.000052
C45	C	1.128459	-0.452903	-0.452629
C46	C	1.628459	0.047097	0.047371
C47	C	1.073596	-0.405347	-0.405222
C48	C	1.573596	0.094653	0.094778
C49	C	0.963872	-0.405360	-0.405238
C50	C	1.463872	0.094640	0.094762
C51	C	1.073591	-0.310225	-0.310398
C52	C	1.573591	0.189775	0.189602
C53	C	0.963870	-0.310230	-0.310410
C54	C	1.463870	0.189770	0.189590
C55	C	1.128452	-0.262656	-0.262975
C56	C	1.628452	0.237344	0.237025
C57	C	1.073589	-0.215095	-0.215570
C58	C	1.573589	0.284905	0.284430
C59	C	0.963861	-0.215106	-0.215582
C60	C	1.463861	0.284894	0.284418
C61	C	0.909007	-0.262673	-0.263003
C62	C	1.409007	0.237327	0.236997
C63	C	1.518072	-0.550733	-0.357798
C64	C	2.018072	-0.050733	0.142202
C65	C	1.518114	-0.633279	-0.357817
C66	C	2.018114	-0.133279	0.142183
C67	C	1.448016	-0.832745	-0.407402
C68	C	1.948016	-0.332745	0.092598
C69	C	1.422413	-0.882179	-0.339635
C70	C	1.922413	-0.382179	0.160365
C71	C	1.518217	-0.784409	-0.357827
C72	C	2.018217	-0.284409	0.142173
C73	C	1.543871	-0.882056	-0.425602
C74	C	2.043871	-0.382056	0.074398
C75	C	1.518314	-0.930394	-0.357842
C76	C	2.018314	-0.430394	0.142158
C77	C	1.492564	-0.832756	-0.290024
C78	C	1.992564	-0.332756	0.209976
C79	C	1.614066	-0.832629	-0.376037
C80	C	2.114066	-0.332629	0.123963
C81	C	1.588500	-0.882041	-0.308223
C82	C	2.088500	-0.382041	0.191777
C83	C	1.518158	-0.700311	-0.357819
C84	C	2.018158	-0.200311	0.142181
C85	C	1.518374	-1.014490	-0.357843
C86	C	2.018374	-0.514490	0.142157
C87	C	1.792232	-0.357793	-0.357827
C88	C	2.292232	0.142207	0.142173
C89	C	1.909009	-0.357798	-0.357834
C90	C	2.409009	0.142202	0.142166
C91	C	1.518240	-0.357748	-0.551516
C92	C	2.018240	0.142252	-0.051516
C93	C	1.518257	-0.357734	-0.634062
C94	C	2.018257	0.142266	-0.134062
C95	C	1.518354	-0.164075	-0.357839
C96	C	2.018354	0.335925	0.142161
C97	C	1.518421	-0.081529	-0.357851
C98	C	2.018421	0.418471	0.142149
C99	C	1.448094	-0.407269	-0.833501
C100	C	1.948094	0.092731	-0.333501
C101	C	1.543946	-0.425422	-0.882892
C102	C	2.043946	0.074578	-0.382892
C103	C	1.518309	-0.357677	-0.785192
C104	C	2.018309	0.142323	-0.285192
C105	C	1.422509	-0.339504	-0.882883
C106	C	1.922509	0.160496	-0.382883
C107	C	1.518351	-0.357624	-0.931177
C108	C	2.018351	0.142376	-0.431177
C109	C	1.614212	-0.375865	-0.833496
C110	C	2.114212	0.124135	-0.333496
C111	C	1.492710	-0.289916	-0.833483
C112	C	1.992710	0.210084	-0.333483
C113	C	1.588629	-0.308043	-0.882851
C114	C	2.088629	0.191957	-0.382851
C115	C	1.518284	-0.357710	-0.701094
C116	C	2.018284	0.142290	-0.201094
C117	C	1.518387	-0.357591	-1.015274
C118	C	2.018387	0.142409	-0.515274
C119	C	1.518218	-0.357760	-0.164858
C120	C	2.018218	0.142240	0.335142
C121	C	1.518404	-0.357565	-0.082313
C122	C	2.018404	0.142435	0.417687
H123	H	1.217800	-0.452906	-0.452619
H124	H	1.717800	0.047094	0.047381
C125	C	1.132980	-0.552131	-0.551604
C126	C	1.632980	-0.052131	-0.051604
C127	C	1.061459	-0.593780	-0.593150
C128	C	1.561459	-0.093780	-0.093150
C129	C	1.116123	-0.641367	-0.640654
C130	C	1.616123	-0.141367	-0.140654
H131	H	1.175758	-0.584508	-0.523217
H132	H	1.675758	-0.084508	-0.023217
H133	H	1.175791	-0.523776	-0.584045
H134	H	1.675791	-0.023776	-0.084045
H135	H	1.018667	-0.622132	-0.560713
H136	H	1.518667	-0.122132	-0.060713
H137	H	1.018679	-0.561422	-0.621552
H138	H	1.518679	-0.061422	-0.121552
H139	H	1.158934	-0.613012	-0.673095
H140	H	1.658934	-0.113012	-0.173095
H141	H	1.158899	-0.673740	-0.612261
H142	H	1.658899	-0.173740	-0.112261
H143	H	1.067605	-0.669627	-0.668853
H144	H	1.567605	-0.169627	-0.168853
C145	C	1.247579	-0.262562	-0.262826
C146	C	1.747579	0.237438	0.237174
C147	C	1.283878	-0.210740	-0.211137
C148	C	1.783878	0.289260	0.288863
C149	C	1.393611	-0.210636	-0.210972
C150	C	1.893611	0.289364	0.289028
H151	H	1.272565	-0.249756	-0.310725
H152	H	1.772565	0.250244	0.189275
H153	H	1.272409	-0.310453	-0.249863
H154	H	1.772409	0.189547	0.250137
H155	H	1.259059	-0.162859	-0.224105
H156	H	1.759059	0.337141	0.275895
H157	H	1.258921	-0.223534	-0.163230
H158	H	1.758921	0.276466	0.336770
H159	H	1.418441	-0.258528	-0.198009
H160	H	1.918441	0.241472	0.301991
H161	H	1.418587	-0.197831	-0.258874
H162	H	1.918587	0.302169	0.241126
H163	H	1.418254	-0.175481	-0.175898
H164	H	1.918254	0.324519	0.324102
H165	H	1.471005	-0.232651	-0.811763
H166	H	1.971005	0.267349	-0.311763
C167	C	1.667866	-0.910630	-0.252327
C168	C	2.167866	-0.410630	0.247673
C169	C	1.767751	-0.884402	-0.270936
C170	C	2.267751	-0.384402	0.229064
C171	C	1.840880	-0.910718	-0.219455
C172	C	2.340880	-0.410718	0.280545
H173	H	1.668011	-0.963250	-0.252881
H174	H	2.168011	-0.463250	0.247119
H175	H	1.649577	-0.893637	-0.204223
H176	H	2.149577	-0.393637	0.295777
H177	H	1.786035	-0.901399	-0.319027
H178	H	2.286035	-0.401399	0.180973
H179	H	1.767640	-0.831785	-0.270376
H180	H	2.267640	-0.331785	0.229624
H181	H	1.822592	-0.893726	-0.171351
H182	H	2.322592	-0.393726	0.328649
H183	H	1.841016	-0.963338	-0.220013
H184	H	2.341016	-0.463338	0.279987
H185	H	1.908659	-0.892921	-0.232070
H186	H	2.408659	-0.392921	0.267930
C187	C	1.463755	-0.804049	-0.213531
C188	C	1.963755	-0.304049	0.286469
C189	C	1.537007	-0.829594	-0.161752
C190	C	2.037007	-0.329594	0.338248
C191	C	1.510507	-0.803155	-0.091284
C192	C	2.010507	-0.303155	0.408716
H193	H	1.395950	-0.821411	-0.200421
H194	H	1.895950	-0.321411	0.299579
H195	H	1.463913	-0.751418	-0.213963
H196	H	1.963913	-0.251418	0.286037
H197	H	1.536838	-0.882214	-0.161318
H198	H	2.036838	-0.382214	0.338682
H199	H	1.604817	-0.812234	-0.174838
H200	H	2.104817	-0.312234	0.325162
H201	H	1.510665	-0.750523	-0.091715
H202	H	2.010665	-0.250523	0.408285
H203	H	1.442701	-0.820519	-0.078180
H204	H	1.942701	-0.320519	0.421820
H205	H	1.560209	-0.820477	-0.056144
H206	H	2.060209	-0.320477	0.443856
H207	H	1.695059	-0.810850	-0.391457
H208	H	2.195059	-0.310850	0.108543
C209	C	0.789880	-0.262693	-0.262867
C210	C	1.289880	0.237307	0.237133
C211	C	0.753513	-0.281529	-0.192134
C212	C	1.253513	0.218471	0.307866
C213	C	0.643779	-0.281550	-0.191983
C214	C	1.143779	0.218450	0.308017
H215	H	0.764942	-0.297830	-0.297845
H216	H	1.264942	0.202170	0.202155
H217	H	0.765048	-0.214782	-0.275757
H218	H	1.265048	0.285218	0.224243
H219	H	0.778334	-0.329433	-0.179254
H220	H	1.278334	0.170567	0.320746
H221	H	0.778421	-0.246398	-0.157144
H222	H	1.278421	0.253602	0.342856
H223	H	0.618947	-0.233639	-0.204873
H224	H	1.118947	0.266361	0.295127
H225	H	0.618852	-0.316688	-0.226964
H226	H	1.118852	0.183312	0.273036
H227	H	0.619090	-0.294323	-0.143991
H228	H	1.119090	0.205677	0.356009
H229	H	1.388770	-0.449262	-0.811833
H230	H	1.888770	0.050738	-0.311833
C231	C	1.572829	-0.910787	-0.502058
C232	C	2.072829	-0.410787	-0.002058
C233	C	1.589863	-0.850828	-0.549800
C234	C	2.089863	-0.350828	-0.049800
C235	C	1.616546	-0.877263	-0.620235
C236	C	2.116546	-0.377263	-0.120235
H237	H	1.517343	-0.940498	-0.520731
H238	H	2.017343	-0.440498	-0.020731
H239	H	1.634879	-0.939673	-0.498779
H240	H	2.134879	-0.439673	0.001221
H241	H	1.527821	-0.821954	-0.553081
H242	H	2.027821	-0.321954	-0.053081
H243	H	1.645354	-0.821112	-0.531151
H244	H	2.145354	-0.321112	-0.031151
H245	H	1.678595	-0.906149	-0.616956
H246	H	2.178595	-0.406149	-0.116956
H247	H	1.561055	-0.906973	-0.638901
H248	H	2.061055	-0.406973	-0.138901
H249	H	1.628116	-0.836585	-0.652635
H250	H	2.128116	-0.336585	-0.152635
C251	C	1.572649	-0.501851	-0.911797
C252	C	2.072649	-0.001851	-0.411797
C253	C	1.498856	-0.553577	-0.886813
C254	C	1.998856	-0.053577	-0.386813
C255	C	1.525247	-0.623990	-0.913430
C256	C	2.025247	-0.123990	-0.413430
H257	H	1.640202	-0.515184	-0.894177
H258	H	2.140202	-0.015184	-0.394177
H259	H	1.573037	-0.501194	-0.964425
H260	H	2.073037	-0.001194	-0.464425
H261	H	1.498479	-0.554235	-0.834196
H262	H	1.998479	-0.054235	-0.334196
H263	H	1.431297	-0.540268	-0.904430
H264	H	1.931297	-0.040268	-0.404430
H265	H	1.525635	-0.623334	-0.966059
H266	H	2.025635	-0.123334	-0.466059
H267	H	1.592801	-0.637316	-0.895809
H268	H	2.092801	-0.137316	-0.395809
H269	H	1.475178	-0.659094	-0.896488
H270	H	1.975178	-0.159094	-0.396488
C271	C	1.133099	-0.163551	-0.163960
C272	C	1.633099	0.336449	0.336040
C273	C	1.106375	-0.179632	-0.090457
C274	C	1.606375	0.320368	0.409543
C275	C	1.161191	-0.132171	-0.042892
C276	C	1.661191	0.367829	0.457108
H277	H	1.115207	-0.113640	-0.174817
H278	H	1.615207	0.386360	0.325183
H279	H	1.206312	-0.170369	-0.170691
H280	H	1.706312	0.329631	0.329309
H281	H	1.033179	-0.172808	-0.083729
H282	H	1.533179	0.327192	0.416271
H283	H	1.124271	-0.229534	-0.079577
H284	H	1.624271	0.270466	0.420423
H285	H	1.234403	-0.138990	-0.049623
H286	H	1.734403	0.361010	0.450377
H287	H	1.143294	-0.082264	-0.053756
H288	H	1.643294	0.417736	0.446244
H289	H	1.143074	-0.143081	0.006986
H290	H	1.643074	0.356919	0.506986
H291	H	1.341475	-0.324155	-0.904577
H292	H	1.841475	0.175845	-0.404577
H293	H	0.919198	-0.176380	-0.176977
H294	H	1.419198	0.323620	0.323023
H295	H	1.695270	-0.391279	-0.811893
H296	H	2.195270	0.108721	-0.311893
C297	C	0.904251	-0.551997	-0.551642
C298	C	1.404251	-0.051997	-0.051642
C299	C	0.841331	-0.510013	-0.599331
C300	C	1.341331	-0.010013	-0.099331
C301	C	0.786403	-0.557443	-0.646861
C302	C	1.286403	-0.057443	-0.146861
H303	H	0.861328	-0.584334	-0.523270
H304	H	1.361328	-0.084334	-0.023270
H305	H	0.952604	-0.580306	-0.579919
H306	H	1.452604	-0.080306	-0.079919
H307	H	0.792985	-0.481717	-0.571056
H308	H	1.292985	0.018283	-0.071056
H309	H	0.884229	-0.477679	-0.627719
H310	H	1.384229	0.022321	-0.127719
H311	H	0.834755	-0.585753	-0.675139
H312	H	1.334755	-0.085753	-0.175139
H313	H	0.743485	-0.589777	-0.618483
H314	H	1.243485	-0.089777	-0.118483
H315	H	0.743713	-0.528964	-0.679228
H316	H	1.243713	-0.028964	-0.179228
H317	H	1.341402	-0.903960	-0.324248
H318	H	1.841402	-0.403960	0.175752
H319	H	1.388562	-0.811098	-0.449267
H320	H	1.888562	-0.311098	0.050733
H321	H	1.648094	-0.266082	-0.904383
H322	H	2.148094	0.233918	-0.404383
H323	H	0.819672	-0.452930	-0.452675
H324	H	1.319672	0.047070	0.047325
