data_functionalizedCrystal
_audit_creation_method	'MofGen! by Chris Wilmer'
_symmetry_space_group_name_H-M	'P1'
_symmetry_Int_Tables_number	1
_symmetry_cell_setting	triclinic
loop_
_symmetry_equiv_pos_as_xyz
  x,y,z
_cell_length_a	16.992694
_cell_length_b	26.210047
_cell_length_c	27.732064
_cell_angle_alpha	90.000589
_cell_angle_beta	86.658823
_cell_angle_gamma	90.010819
loop_
_atom_site_label
_atom_site_type_symbol
_atom_site_fract_x
_atom_site_fract_y
_atom_site_fract_z
O1	O	1.039174	0.042357	0.102444
O2	O	1.539174	0.542357	0.602444
O3	O	0.810902	0.042373	0.101320
O4	O	1.310902	0.542373	0.601320
O5	O	0.932121	0.042367	0.031792
O6	O	1.432121	0.542367	0.531792
O7	O	0.917955	0.042364	0.171972
O8	O	1.417955	0.542364	0.671972
O9	O	0.932083	-0.042491	0.031791
O10	O	1.432083	0.457509	0.531791
O11	O	0.810864	-0.042485	0.101318
O12	O	1.310864	0.457515	0.601318
O13	O	1.039136	-0.042501	0.102442
O14	O	1.539136	0.457499	0.602442
Cu15	Cu	0.924996	-0.050241	0.101880
Cu16	Cu	1.424996	0.449759	0.601880
Cu17	Cu	0.925041	0.050113	0.101882
Cu18	Cu	1.425041	0.550113	0.601882
O19	O	0.917917	-0.042495	0.171970
O20	O	1.417917	0.457505	0.671970
C21	C	0.781688	-0.000054	0.099873
C22	C	1.281688	0.499946	0.599873
C23	C	0.694695	-0.000048	0.095560
C24	C	1.194695	0.499952	0.595560
C25	C	0.643955	-0.000050	0.137183
C26	C	1.143955	0.499950	0.637183
C27	C	0.562217	-0.000057	0.133126
C28	C	1.062217	0.499943	0.633126
C29	C	0.531221	-0.000059	0.087447
C30	C	1.031221	0.499941	0.587447
C31	C	0.581969	-0.000059	0.045821
C32	C	1.081969	0.499941	0.545821
C33	C	0.663705	-0.000056	0.049877
C34	C	1.163705	0.499944	0.549877
C35	C	0.287826	-0.000072	0.070633
C36	C	0.787826	0.499928	0.570633
C37	C	0.206083	-0.000074	0.066580
C38	C	0.706083	0.499926	0.566580
C39	C	0.186337	-0.000072	0.153886
C40	C	0.686337	0.499928	0.653886
C41	C	0.268075	-0.000066	0.157939
C42	C	0.768075	0.499934	0.657939
C43	C	0.318816	-0.000069	0.116313
C44	C	0.818816	0.499931	0.616313
N45	N	0.447672	-0.000064	0.083300
N46	N	0.947672	0.499936	0.583300
N47	N	0.402363	-0.000067	0.120460
N48	N	0.902363	0.499933	0.620460
N49	N	0.924971	-0.120825	0.101879
N50	N	1.424971	0.379175	0.601879
C51	C	0.972212	-0.473343	0.133032
C52	C	1.472212	0.026657	0.633032
C53	C	0.972235	-0.687002	0.133033
C54	C	1.472235	-0.187002	0.633033
O55	O	1.012383	-0.714627	0.159514
O56	O	1.512383	-0.214627	0.659514
N57	N	0.925060	-0.713719	0.101878
N58	N	1.425060	-0.213719	0.601878
C59	C	0.877880	-0.687018	0.070719
C60	C	1.377880	-0.187018	0.570719
O61	O	0.837761	-0.714645	0.044216
O62	O	1.337761	-0.214645	0.544216
C63	C	0.877861	-0.473361	0.070716
C64	C	1.377861	0.026639	0.570716
C65	C	0.925033	-0.446646	0.101876
C66	C	1.425033	0.053354	0.601876
C67	C	1.019381	-0.446629	0.164189
C68	C	1.519381	0.053371	0.664189
C69	C	1.019371	-0.393217	0.164191
C70	C	1.519371	0.106783	0.664191
C71	C	0.972193	-0.366520	0.133035
C72	C	1.472193	0.133480	0.633035
C73	C	0.925024	-0.393235	0.101878
C74	C	1.425024	0.106765	0.601878
C75	C	0.830686	-0.446661	0.039555
C76	C	1.330686	0.053339	0.539555
C77	C	0.830687	-0.393243	0.039556
C78	C	1.330687	0.106757	0.539556
C79	C	0.877859	-0.366529	0.070716
C80	C	1.377859	0.133471	0.570716
C81	C	0.877836	-0.313126	0.070723
C82	C	1.377836	0.186874	0.570723
N83	N	0.925011	-0.286409	0.101878
N84	N	1.425011	0.213591	0.601878
C85	C	0.972189	-0.313106	0.133034
C86	C	1.472189	0.186894	0.633034
C87	C	0.877891	-0.799192	0.070723
C88	C	1.377891	-0.299192	0.570723
C89	C	0.877895	-0.852606	0.070724
C90	C	1.377895	-0.352606	0.570724
C91	C	0.972251	-0.852586	0.133038
C92	C	1.472251	-0.352586	0.633038
C93	C	0.972243	-0.799171	0.133039
C94	C	1.472243	-0.299171	0.633039
C95	C	0.925066	-0.772474	0.101878
C96	C	1.425066	-0.272474	0.601878
C97	C	0.972165	-0.200938	0.133035
C98	C	1.472165	0.299062	0.633035
C99	C	0.972149	-0.147522	0.133035
C100	C	1.472149	0.352478	0.633035
C101	C	0.877796	-0.147547	0.070720
C102	C	1.377796	0.352453	0.570720
C103	C	0.877809	-0.200958	0.070721
C104	C	1.377809	0.299042	0.570721
C105	C	0.924999	-0.227653	0.101880
C106	C	1.424999	0.272347	0.601880
O107	O	0.837715	-0.285468	0.044252
O108	O	1.337715	0.214532	0.544252
O109	O	1.012315	-0.285470	0.159525
O110	O	1.512315	0.214530	0.659525
C111	C	0.972221	-0.526755	0.133031
C112	C	1.472221	-0.026755	0.633031
C113	C	0.925052	-0.553469	0.101874
C114	C	1.425052	-0.053469	0.601874
C115	C	0.877874	-0.526772	0.070718
C116	C	1.377874	-0.026772	0.570718
C117	C	0.925056	-0.606883	0.101875
C118	C	1.425056	-0.106883	0.601875
C119	C	0.972234	-0.633580	0.133031
C120	C	1.472234	-0.133580	0.633031
C121	C	1.019409	-0.606863	0.164185
C122	C	1.519409	-0.106863	0.664185
C123	C	1.019400	-0.553452	0.164187
C124	C	1.519400	-0.053452	0.664187
C125	C	0.830699	-0.553489	0.039563
C126	C	1.330699	-0.053489	0.539563
C127	C	0.830711	-0.606901	0.039565
C128	C	1.330711	-0.106901	0.539565
C129	C	0.877890	-0.633598	0.070720
C130	C	1.377890	-0.133598	0.570720
C131	C	1.068350	-0.000072	0.103889
C132	C	1.568350	0.499928	0.603889
C133	C	1.155342	-0.000075	0.108203
C134	C	1.655342	0.499925	0.608203
C135	C	0.931802	-0.000061	0.013772
C136	C	1.431802	0.499939	0.513772
C137	C	0.930901	-0.000056	-0.039922
C138	C	1.430901	0.499944	0.460078
N139	N	0.925073	0.120697	0.101880
N140	N	1.425073	0.620697	0.601880
C141	C	0.853130	-0.000049	-0.420357
C142	C	1.353130	0.499951	0.079643
C143	C	0.856448	-0.000048	-0.218553
C144	C	1.356448	0.499952	0.281447
O145	O	0.796100	-0.000024	-0.189910
O146	O	1.296100	0.499976	0.310090
N147	N	0.928328	-0.000053	-0.196318
N148	N	1.428328	0.499947	0.303682
C149	C	0.999385	-0.000055	-0.224537
C150	C	1.499385	0.499945	0.275463
O151	O	1.060599	-0.000053	-0.200994
O152	O	1.560599	0.499947	0.299006
C153	C	0.996066	-0.000051	-0.426340
C154	C	1.496066	0.499949	0.073660
C155	C	0.924181	-0.000052	-0.448572
C156	C	1.424181	0.499948	0.051428
C157	C	0.781251	-0.000049	-0.442590
C158	C	1.281251	0.499951	0.057410
C159	C	0.780422	-0.000052	-0.493038
C160	C	1.280422	0.499948	0.006962
C161	C	0.851473	-0.000055	-0.521253
C162	C	1.351473	0.499945	-0.021253
C163	C	0.923352	-0.000055	-0.499020
C164	C	1.423352	0.499945	0.000980
C165	C	1.067121	-0.000049	-0.454558
C166	C	1.567121	0.499951	0.045442
C167	C	1.066285	-0.000047	-0.505011
C168	C	1.566285	0.499953	-0.005011
C169	C	0.994400	-0.000048	-0.527244
C170	C	1.494400	0.499952	-0.027244
C171	C	0.993574	-0.000061	-0.577683
C172	C	1.493574	0.499939	-0.077683
N173	N	0.921694	-0.000056	-0.599919
N174	N	1.421694	0.499944	-0.099919
C175	C	0.850643	-0.000053	-0.571703
C176	C	1.350643	0.499947	-0.071703
C177	C	1.001122	-0.000057	-0.118587
C178	C	1.501122	0.499943	0.381413
C179	C	1.001952	-0.000059	-0.068137
C180	C	1.501952	0.499941	0.431863
C181	C	0.859015	-0.000052	-0.062157
C182	C	1.359015	0.499948	0.437843
C183	C	0.858186	-0.000054	-0.112608
C184	C	1.358186	0.499946	0.387392
C185	C	0.929241	-0.000053	-0.140823
C186	C	1.429241	0.499947	0.359177
C187	C	0.848908	-0.000059	-0.677648
C188	C	1.348908	0.499941	-0.177648
C189	C	0.848086	-0.000064	-0.728100
C190	C	1.348086	0.499936	-0.228100
C191	C	0.991023	-0.000069	-0.734076
C192	C	1.491023	0.499931	-0.234076
C193	C	0.991845	-0.000067	-0.683628
C194	C	1.491845	0.499933	-0.183628
C195	C	0.920782	-0.000060	-0.655415
C196	C	1.420782	0.499940	-0.155415
O197	O	1.053890	-0.000079	-0.606357
O198	O	1.553890	0.499921	-0.106357
O199	O	0.789437	-0.000043	-0.595255
O200	O	1.289437	0.499957	-0.095255
C201	C	0.853959	-0.000046	-0.369909
C202	C	1.353959	0.499954	0.130091
C203	C	0.925838	-0.000046	-0.347676
C204	C	1.425838	0.499954	0.152324
C205	C	0.996889	-0.000049	-0.375892
C206	C	1.496889	0.499951	0.124108
C207	C	0.926668	-0.000048	-0.297226
C208	C	1.426668	0.499952	0.202774
C209	C	0.855617	-0.000045	-0.269011
C210	C	1.355617	0.499955	0.230989
C211	C	0.783737	-0.000040	-0.291246
C212	C	1.283737	0.499960	0.208754
C213	C	0.782908	-0.000043	-0.341694
C214	C	1.282908	0.499957	0.158306
C215	C	1.068769	-0.000054	-0.353656
C216	C	1.568769	0.499946	0.146344
C217	C	1.069592	-0.000051	-0.303208
C218	C	1.569592	0.499949	0.196792
C219	C	0.998542	-0.000048	-0.274993
C220	C	1.498542	0.499952	0.225007
C221	C	0.918235	-0.000066	0.189991
C222	C	1.418235	0.499934	0.689991
C223	C	0.919137	-0.000067	0.243684
C224	C	1.419137	0.499933	0.743684
H225	H	1.010562	-0.125774	0.158411
H226	H	1.510562	0.374226	0.658411
H227	H	0.789546	-0.000067	-0.746199
H228	H	1.289546	0.499933	-0.246199
H229	H	0.725885	-0.000041	-0.268264
H230	H	1.225885	0.499959	0.231736
Br231	Br	0.164019	-0.000087	0.004582
Br232	Br	0.664019	0.499913	0.504582
H233	H	0.145016	-0.000071	0.187776
H234	H	0.645016	0.499929	0.687776
H235	H	0.329129	-0.000075	0.036738
H236	H	0.829129	0.499925	0.536738
Br237	Br	1.165206	-0.000058	-0.391941
Br238	Br	1.665206	0.499942	0.108059
Br239	Br	0.539905	-0.000067	-0.016174
Br240	Br	1.039905	0.499933	0.483826
Br241	Br	0.732569	-0.000058	-0.006614
Br242	Br	1.232569	0.499942	0.493386
Br243	Br	1.036211	-0.237158	0.175322
Br244	Br	1.536211	0.262842	0.675322
Br245	Br	0.682859	-0.000047	-0.523202
Br246	Br	1.182859	0.499953	-0.023202
Br247	Br	0.752464	-0.000051	-0.639366
Br248	Br	1.252464	0.499949	-0.139366
H249	H	0.669184	-0.000048	0.174380
H250	H	1.169184	0.499952	0.674380
Br251	Br	1.083418	-0.482850	0.206478
Br252	Br	1.583418	0.017150	0.706478
Br253	Br	0.493356	-0.000057	0.189618
Br254	Br	0.993356	0.499943	0.689618
Br255	Br	1.083378	-0.356970	0.206491
Br256	Br	1.583378	0.143030	0.706491
Br257	Br	1.036267	-0.762921	0.175327
Br258	Br	1.536267	-0.262921	0.675327
H259	H	0.723390	-0.000045	-0.419622
H260	H	1.223390	0.499955	0.080378
H261	H	0.792281	-0.531758	0.014191
H262	H	1.292281	-0.031758	0.514191
Br263	Br	0.813843	-0.762969	0.028438
Br264	Br	1.313843	-0.262969	0.528438
Br265	Br	1.083432	-0.643105	0.206470
Br266	Br	1.583432	-0.143105	0.706470
Br267	Br	1.036281	-0.888827	0.175320
Br268	Br	1.536281	-0.388827	0.675320
Br269	Br	0.813858	-0.888855	0.028442
Br270	Br	1.313858	-0.388855	0.528442
H271	H	0.799650	-0.000056	-0.130706
H272	H	1.299650	0.499944	0.369294
Br273	Br	0.310135	-0.000058	0.219935
Br274	Br	0.810135	0.499942	0.719935
H275	H	0.801162	-0.000052	-0.039175
H276	H	1.301162	0.499948	0.460825
Br277	Br	0.766660	-0.482903	-0.002736
Br278	Br	1.266660	0.017097	0.497264
H279	H	1.060488	-0.000067	-0.050040
H280	H	1.560488	0.499933	0.449960
Br281	Br	1.097564	-0.000058	-0.156872
Br282	Br	1.597564	0.499942	0.343128
Br283	Br	0.766666	-0.357016	-0.002741
Br284	Br	1.266666	0.142984	0.497259
H285	H	1.125658	-0.000048	-0.436465
H286	H	1.625658	0.499952	0.063535
H287	H	0.839387	-0.222710	0.045354
H288	H	1.339387	0.277290	0.545354
Br289	Br	1.087444	-0.000078	-0.772378
Br290	Br	1.587444	0.499922	-0.272378
Br291	Br	0.813768	-0.111305	0.028440
Br292	Br	1.313768	0.388695	0.528440
H293	H	1.124149	-0.000043	-0.527982
H294	H	1.624149	0.499957	-0.027982
Br295	Br	0.766680	-0.643150	-0.002725
Br296	Br	1.266680	-0.143150	0.497275
H297	H	1.057812	-0.531706	0.189560
H298	H	1.557812	-0.031706	0.689560
Br299	Br	1.089404	-0.000088	-0.653454
Br300	Br	1.589404	0.499912	-0.153454
H301	H	0.724372	-0.000044	-0.359791
H302	H	1.224372	0.499956	0.140209
H303	H	1.128134	-0.000055	-0.285111
H304	H	1.628134	0.499945	0.214889
