data_functionalizedCrystal
_audit_creation_method	'MofGen! by Chris Wilmer'
_symmetry_space_group_name_H-M	'P1'
_symmetry_Int_Tables_number	1
_symmetry_cell_setting	triclinic
loop_
_symmetry_equiv_pos_as_xyz
  x,y,z
_cell_length_a	31.640172
_cell_length_b	20.016444
_cell_length_c	31.640172
_cell_angle_alpha	89.996338
_cell_angle_beta	60.000198
_cell_angle_gamma	60.000783
loop_
_atom_site_label
_atom_site_type_symbol
_atom_site_fract_x
_atom_site_fract_y
_atom_site_fract_z
Zr1	Zr	0.462542	-0.087688	0.407241
O2	O	0.550712	-0.194355	0.339763
O3	O	0.374374	-0.054990	0.427917
O4	O	0.462536	-0.194362	0.427929
O5	O	0.462553	0.054957	0.339752
O6	O	0.462529	-0.194366	0.497485
O7	O	0.462550	-0.054983	0.339752
O8	O	0.304822	0.054944	0.497464
O9	O	0.620260	-0.194354	0.339773
O10	O	0.410632	-0.041047	0.488655
O11	O	0.410640	0.041003	0.436746
O12	O	0.514440	-0.123089	0.436760
O13	O	0.514448	-0.041039	0.384851
Zr14	Zr	0.462536	0.087646	0.518175
Zr15	Zr	0.462530	-0.087695	0.518175
Zr16	Zr	0.462547	0.087653	0.407241
Zr17	Zr	0.573462	-0.087686	0.407256
Zr18	Zr	0.351615	0.087644	0.518160
O19	O	0.550703	0.054948	0.497498
O20	O	0.550696	-0.194365	0.497498
O21	O	0.550720	0.054958	0.339764
O22	O	0.374365	0.194312	0.585652
O23	O	0.374358	-0.055000	0.585652
O24	O	0.374381	0.194322	0.427918
O25	O	0.462524	-0.054999	0.585664
O26	O	0.462541	0.194320	0.497486
O27	O	0.462548	0.194324	0.427930
O28	O	0.462528	0.054941	0.585664
O29	O	0.620251	-0.194359	0.427951
O30	O	0.304827	0.194317	0.497465
O31	O	0.304818	0.194311	0.585643
O32	O	0.304813	0.054938	0.585642
O33	O	0.620264	-0.054980	0.339773
O34	O	0.620255	-0.054986	0.427951
O35	O	0.410637	0.123047	0.488655
O36	O	0.410629	0.040996	0.540564
O37	O	0.514437	-0.041045	0.488669
O38	O	0.514445	0.041005	0.436761
C39	C	0.323794	-0.000024	0.462689
C40	C	0.276706	-0.000024	0.462682
C41	C	0.462553	-0.000012	0.323946
C42	C	0.462558	-0.000009	0.276852
C43	C	0.462545	0.219304	0.462708
C44	C	0.462548	0.293741	0.462709
C45	C	-0.015340	-0.042843	0.489814
C46	C	-0.192336	-0.042843	0.489825
O47	O	-0.215244	-0.079238	0.512888
N48	N	-0.214461	-0.000015	0.462728
C49	C	-0.192337	0.042820	0.435630
O50	O	-0.215221	0.079255	0.412587
C51	C	-0.015345	0.042824	0.435623
C52	C	0.006782	-0.000013	0.462717
C53	C	0.006786	-0.085676	0.516906
C54	C	0.051035	-0.085679	0.516901
C55	C	0.073157	-0.042850	0.489804
C56	C	0.051030	-0.000017	0.462711
C57	C	0.006775	0.085663	0.408528
C58	C	0.051025	0.085662	0.408529
C59	C	0.073152	0.042825	0.435623
C60	C	0.117401	0.042810	0.435609
N61	N	0.139526	-0.000018	0.462705
C62	C	0.117404	-0.042848	0.489803
C63	C	-0.285260	0.042814	0.435635
C64	C	-0.329507	0.042812	0.435636
C65	C	-0.329503	-0.042850	0.489832
C66	C	-0.285252	-0.042852	0.489827
C67	C	-0.263135	-0.000014	0.462731
C68	C	0.210330	-0.042852	0.489789
C69	C	0.254584	-0.042854	0.489780
C70	C	0.254574	0.042811	0.435586
C71	C	0.210326	0.042810	0.435593
C72	C	0.188203	-0.000023	0.462699
O73	O	0.140332	0.079194	0.412562
O74	O	0.140287	-0.079262	0.512851
C75	C	-0.059589	-0.042840	0.489819
C76	C	-0.081715	-0.000007	0.462727
C77	C	-0.059593	0.042823	0.435630
C78	C	-0.125962	-0.000009	0.462728
C79	C	-0.148084	-0.042838	0.489826
C80	C	-0.125959	-0.085666	0.516922
C81	C	-0.081711	-0.085669	0.516917
C82	C	-0.081718	0.085651	0.408533
C83	C	-0.125966	0.085650	0.408540
C84	C	-0.148089	0.042820	0.435638
C85	C	0.601283	-0.000019	0.462727
C86	C	0.648371	-0.000018	0.462733
C87	C	0.462532	-0.219347	0.462707
C88	C	0.462530	-0.293784	0.462707
C89	C	0.516727	0.422183	0.435618
C90	C	0.516725	0.492129	0.435616
C91	C	0.408346	0.577773	0.489799
C92	C	0.408349	0.507828	0.489797
C93	C	0.462541	0.430034	0.462708
C94	C	0.462536	0.569924	0.462708
C95	C	0.462533	0.645762	0.462706
C96	C	0.462545	0.354191	0.462708
C97	C	0.462526	-0.060586	-0.015154
C98	C	0.462519	-0.060592	-0.192140
O99	O	0.462490	-0.112082	-0.215013
N100	N	0.462522	-0.000026	-0.214271
C101	C	0.462523	0.060548	-0.192150
O102	O	0.462519	0.112068	-0.215032
C103	C	0.462526	0.060557	-0.015162
C104	C	0.462529	-0.000018	0.006963
C105	C	0.462528	-0.121156	0.006972
C106	C	0.462534	-0.121156	0.051214
C107	C	0.462536	-0.060587	0.073331
C108	C	0.462534	-0.000018	0.051205
C109	C	0.462523	0.121135	0.006960
C110	C	0.462522	0.121133	0.051210
C111	C	0.462525	0.060558	0.073335
C112	C	0.462542	0.060550	0.117564
N113	N	0.462539	-0.000016	0.139695
C114	C	0.462536	-0.060584	0.117578
C115	C	0.462522	0.060539	-0.285072
C116	C	0.462522	0.060536	-0.329319
C117	C	0.462517	-0.060604	-0.329306
C118	C	0.462521	-0.060604	-0.285060
C119	C	0.462519	-0.000027	-0.262941
C120	C	0.462547	-0.060581	0.210490
C121	C	0.462555	-0.060578	0.254735
C122	C	0.462557	0.060564	0.254719
C123	C	0.462552	0.060559	0.210476
C124	C	0.462546	-0.000017	0.188364
O125	O	0.462563	0.112019	0.140468
O126	O	0.462527	-0.112086	0.140474
C127	C	0.462521	-0.060586	-0.059396
C128	C	0.462519	-0.000017	-0.081522
C129	C	0.462521	0.060552	-0.059405
C130	C	0.462519	-0.000019	-0.125769
C131	C	0.462516	-0.060588	-0.147886
C132	C	0.462513	-0.121154	-0.125755
C133	C	0.462518	-0.121155	-0.081513
C134	C	0.462524	0.121118	-0.081536
C135	C	0.462520	0.121113	-0.125778
C136	C	0.462517	0.060544	-0.147895
C137	C	0.462524	-0.000030	0.601470
C138	C	0.462520	-0.000033	0.648564
C139	C	0.323780	-0.000032	0.601450
C140	C	0.276687	-0.000036	0.648538
C141	C	0.323801	0.219302	0.462689
C142	C	0.276715	0.293738	0.462683
C143	C	0.323787	0.219293	0.601451
C144	C	0.276696	0.293726	0.648539
C145	C	0.601291	-0.219335	0.323965
C146	C	0.648382	-0.293768	0.276876
C147	C	0.601297	-0.000010	0.323965
C148	C	0.648391	-0.000006	0.276877
C149	C	0.601276	-0.219344	0.462726
C150	C	0.648363	-0.293780	0.462733
C151	C	0.254573	-0.042871	0.643555
C152	C	0.210330	-0.042891	0.687795
C153	C	0.188198	-0.000071	0.737018
C154	C	0.210317	0.042765	0.742000
C155	C	0.254562	0.042780	0.697760
C156	C	0.254601	0.371527	0.489776
C157	C	0.210365	0.441475	0.489768
C158	C	0.188240	0.433631	0.462670
C159	C	0.210358	0.355833	0.435574
C160	C	0.254596	0.285888	0.435579
C161	C	0.254577	0.285851	0.697753
C162	C	0.210336	0.355783	0.742001
C163	C	0.188211	0.433588	0.737035
C164	C	0.210334	0.441461	0.687816
C165	C	0.254578	0.371530	0.643569
C166	C	0.670506	-0.285894	0.227663
C167	C	0.714760	-0.355825	0.183414
C168	C	0.736887	-0.433630	0.188380
C169	C	0.714761	-0.441503	0.237599
C170	C	0.670511	-0.371573	0.281847
C171	C	0.670509	0.042822	0.281860
C172	C	0.714765	0.042822	0.237620
C173	C	0.736897	-0.000000	0.188398
C174	C	0.714777	-0.042834	0.183416
C175	C	0.670525	-0.042838	0.227655
C176	C	0.670473	-0.285910	0.489836
C177	C	0.714710	-0.355844	0.489852
C178	C	0.736838	-0.433647	0.462761
C179	C	0.714723	-0.441516	0.435657
C180	C	0.670484	-0.371583	0.435644
H181	H	0.272599	-0.077740	0.511843
H182	H	0.732768	0.077705	0.241687
H183	H	0.272610	0.377929	0.511843
H184	H	-0.143975	0.120530	0.386472
H185	H	0.364222	0.514227	0.511856
H186	H	0.192321	-0.077729	0.511861
H187	H	0.272596	0.222551	0.413518
H188	H	0.732712	-0.349422	0.511923
H189	H	0.560848	0.485729	0.413556
H190	H	0.732804	-0.077699	0.143333
H191	H	0.192328	0.349358	0.782073
H192	H	0.192361	0.504814	0.511835
H193	H	0.652498	-0.377994	0.321917
H194	H	0.560854	0.358843	0.413559
H195	H	0.364224	0.641120	0.511854
H196	H	0.772861	-0.490585	0.462776
H197	H	0.732746	-0.504872	0.413600
H198	H	0.152218	0.490592	0.462670
H199	H	0.272584	0.222505	0.701806
H200	H	0.152186	0.490523	0.773069
H201	H	0.652486	-0.378002	0.413571
H202	H	0.192337	0.349459	0.413511
H203	H	0.069046	-0.120558	0.538965
H204	H	0.192314	0.504819	0.683780
H205	H	0.462533	-0.170479	0.069227
H206	H	0.462559	-0.109908	0.272747
H207	H	0.272591	-0.077751	0.603480
H208	H	0.772919	-0.490565	0.152347
H209	H	0.732783	-0.504860	0.241637
H210	H	0.272581	0.377954	0.603499
H211	H	0.652492	-0.222547	0.223609
H212	H	0.462516	-0.109923	-0.347321
H213	H	0.652518	-0.077712	0.223591
H214	H	0.732768	-0.349398	0.143343
H215	H	0.652492	0.077699	0.321936
H216	H	0.652464	-0.222565	0.511897
H217	H	-0.011223	-0.120552	0.538975
H218	H	-0.267239	-0.077733	0.511890
H219	H	-0.347512	0.077684	0.413566
H220	H	0.772930	0.000010	0.152379
H221	H	0.192291	0.077628	0.782083
H222	H	-0.267256	0.077701	0.413569
H223	H	-0.347521	-0.077725	0.511895
H224	H	0.462514	-0.170474	-0.143772
H225	H	-0.063712	0.120531	0.386468
H226	H	0.069031	0.120546	0.386463
H227	H	-0.011234	0.120547	0.386465
H228	H	0.152170	-0.000089	0.773036
H229	H	0.192316	0.077680	0.413524
H230	H	0.272596	0.077679	0.413523
H231	H	-0.063698	-0.120551	0.538979
H232	H	0.462526	0.170442	-0.063531
H233	H	0.462541	-0.109907	0.192491
H234	H	-0.143976	-0.120543	0.538984
H235	H	0.462524	-0.170478	-0.011031
H236	H	0.462523	-0.109929	-0.267048
H237	H	0.462529	0.109854	-0.347335
H238	H	0.462520	0.170460	-0.011048
H239	H	0.462521	0.109869	-0.267066
H240	H	0.462518	0.170464	0.069218
H241	H	0.462559	0.109878	0.192457
H242	H	0.462520	-0.170480	-0.063502
H243	H	0.462562	0.109877	0.272732
H244	H	0.462522	0.170440	-0.143792
H245	H	0.192326	-0.077774	0.683729
H246	H	0.272562	0.077666	0.701825
