data_functionalizedCrystal
_audit_creation_method	'MofGen! by Chris Wilmer'
_symmetry_space_group_name_H-M	'P1'
_symmetry_Int_Tables_number	1
_symmetry_cell_setting	triclinic
loop_
_symmetry_equiv_pos_as_xyz
  x,y,z
_cell_length_a	12.827893
_cell_length_b	12.759400
_cell_length_c	12.827885
_cell_angle_alpha	89.969506
_cell_angle_beta	89.980728
_cell_angle_gamma	90.014655
loop_
_atom_site_label
_atom_site_type_symbol
_atom_site_fract_x
_atom_site_fract_y
_atom_site_fract_z
Zn1	Zn	1.597675	-0.418216	-0.590844
Zn2	Zn	1.931008	-0.084883	-0.257510
Zn3	Zn	2.264341	0.248450	0.075823
Zn4	Zn	1.597571	-0.593932	-0.416102
Zn5	Zn	1.930904	-0.260598	-0.082768
Zn6	Zn	2.264238	0.072735	0.250565
Zn7	Zn	1.422916	-0.418267	-0.416117
Zn8	Zn	1.756249	-0.084934	-0.082784
Zn9	Zn	2.089583	0.248399	0.250550
Zn10	Zn	1.422904	-0.593854	-0.590802
Zn11	Zn	1.756237	-0.260520	-0.257468
Zn12	Zn	2.089570	0.072813	0.075865
O13	O	1.510266	-0.506067	-0.503466
O14	O	1.843600	-0.172734	-0.170133
O15	O	2.176933	0.160599	0.163201
O16	O	1.743897	-0.441537	-0.567675
O17	O	2.077230	-0.108203	-0.234341
O18	O	2.410564	0.225130	0.098992
O19	O	1.574365	-0.570684	-0.269868
O20	O	1.907698	-0.237350	0.063466
O21	O	2.241031	0.095983	0.396799
O22	O	1.446147	-0.271240	-0.439319
O23	O	1.779480	0.062094	-0.105986
O24	O	2.112814	0.395427	0.227348
O25	O	1.743821	-0.570634	-0.439293
O26	O	2.077154	-0.237301	-0.105959
O27	O	2.410487	0.096033	0.227374
O28	O	1.574541	-0.271202	-0.567690
O29	O	1.907875	0.062131	-0.234356
O30	O	2.241208	0.395465	0.098977
O31	O	1.446046	-0.441624	-0.269879
O32	O	1.779380	-0.108290	0.063454
O33	O	2.112713	0.225043	0.396788
O34	O	1.276678	-0.441548	-0.439278
O35	O	1.610012	-0.108215	-0.105945
O36	O	1.943345	0.225119	0.227388
O37	O	1.446125	-0.570501	-0.737043
O38	O	1.779459	-0.237168	-0.403710
O39	O	2.112792	0.096166	-0.070377
O40	O	1.276669	-0.570550	-0.567618
O41	O	1.610003	-0.237217	-0.234285
O42	O	1.943336	0.096116	0.099048
O43	O	1.574529	-0.441461	-0.737074
O44	O	1.907862	-0.108127	-0.403741
O45	O	2.241196	0.225206	-0.070407
O46	O	1.574352	-0.740942	-0.439252
O47	O	1.907686	-0.407609	-0.105919
O48	O	2.241019	-0.074276	0.227415
O49	O	1.446025	-0.740885	-0.567603
O50	O	1.779358	-0.407552	-0.234270
O51	O	2.112692	-0.074218	0.099063
C52	C	1.238756	-0.506047	-0.503446
C53	C	1.572090	-0.172714	-0.170113
C54	C	1.905423	0.160620	0.163221
C55	C	1.122603	-0.506064	-0.503462
C56	C	1.455937	-0.172730	-0.170129
C57	C	1.789270	0.160603	0.163204
C58	C	1.070842	-0.569998	-0.566871
C59	C	1.404175	-0.236665	-0.233538
C60	C	1.737508	0.096669	0.099796
C61	C	0.950791	-0.570017	-0.566889
C62	C	1.284125	-0.236683	-0.233556
C63	C	1.617458	0.096650	0.099777
C64	C	1.510204	-0.779035	-0.503444
C65	C	1.843538	-0.445701	-0.170111
C66	C	2.176871	-0.112368	0.163222
C67	C	1.510273	-0.895811	-0.503470
C68	C	1.843607	-0.562478	-0.170136
C69	C	2.176940	-0.229145	0.163197
C70	C	1.577168	-0.950668	-0.436711
C71	C	1.910501	-0.617335	-0.103378
C72	C	2.243834	-0.284002	0.229955
C73	C	1.577232	-1.060392	-0.436743
C74	C	1.910565	-0.727059	-0.103410
C75	C	2.243898	-0.393726	0.229923
C76	C	1.443499	-1.060393	-0.570296
C77	C	1.776832	-0.727059	-0.236963
C78	C	2.110165	-0.393726	0.096371
C79	C	1.443440	-0.950671	-0.570268
C80	C	1.776774	-0.617337	-0.236935
C81	C	2.110107	-0.284004	0.096399
C82	C	1.644001	-0.895809	-0.369913
C83	C	1.977334	-0.562476	-0.036580
C84	C	2.310667	-0.229142	0.296754
C85	C	1.710899	-0.950666	-0.303148
C86	C	2.044233	-0.617333	0.030185
C87	C	2.377566	-0.283999	0.363519
C88	C	1.710964	-1.060390	-0.303180
C89	C	2.044297	-0.727057	0.030153
C90	C	2.377630	-0.393723	0.363486
C91	C	1.644129	-1.115257	-0.369977
C92	C	1.977462	-0.781924	-0.036644
C93	C	2.310796	-0.448590	0.296689
C94	C	1.782836	-0.506088	-0.503487
C95	C	2.116170	-0.172755	-0.170153
C96	C	2.449503	0.160578	0.163180
C97	C	1.898990	-0.506097	-0.503495
C98	C	2.232323	-0.172764	-0.170162
C99	C	2.565656	0.160569	0.163171
C100	C	1.510337	-0.505966	-0.776036
C101	C	1.843671	-0.172633	-0.442703
C102	C	2.177004	0.160700	-0.109370
C103	C	1.510368	-0.505923	-0.892190
C104	C	1.843701	-0.172590	-0.558856
C105	C	2.177034	0.160743	-0.225523
C106	C	1.510357	-0.232034	-0.503511
C107	C	1.843690	0.101299	-0.170177
C108	C	2.177024	0.434633	0.163156
C109	C	1.510396	-0.115257	-0.503530
C110	C	1.843729	0.218076	-0.170196
C111	C	2.177062	0.551409	0.163137
C112	C	1.573913	-0.442058	-0.943989
C113	C	1.907246	-0.108724	-0.610656
C114	C	2.240580	0.224609	-0.277323
C115	C	1.573946	-0.442012	-1.064040
C116	C	1.907279	-0.108679	-0.730707
C117	C	2.240612	0.224655	-0.397373
C118	C	1.510256	-0.506092	-0.231956
C119	C	1.843589	-0.172759	0.101377
C120	C	2.176922	0.160575	0.434711
C121	C	1.510428	-0.505839	-0.115803
C122	C	1.843761	-0.172506	0.217530
C123	C	2.177094	0.160828	0.550863
H124	H	1.643953	-0.806466	-0.369876
H125	H	1.977286	-0.473133	-0.036543
H126	H	2.310620	-0.139800	0.296790
H127	H	1.456025	-0.560523	-1.071264
H128	H	1.789359	-0.227190	-0.737930
H129	H	2.122692	0.106143	-0.404597
H130	H	1.115403	-0.624717	-0.621148
H131	H	1.448737	-0.291383	-0.287814
H132	H	1.782070	0.041950	0.045519
H133	H	0.906277	-0.624756	-0.621173
H134	H	1.239611	-0.291423	-0.287840
H135	H	1.572944	0.041911	0.045494
H136	H	0.943497	-0.451362	-0.449202
H137	H	1.276830	-0.118028	-0.115869
H138	H	1.610163	0.215305	0.217464
H139	H	1.455982	-0.560560	-0.936718
H140	H	1.789315	-0.227227	-0.603385
H141	H	2.122649	0.106106	-0.270052
H142	H	1.628288	-0.387410	-0.899461
H143	H	1.961621	-0.054077	-0.566127
H144	H	2.294955	0.279256	-0.232794
H145	H	1.389084	-1.105074	-0.624678
H146	H	1.722418	-0.771741	-0.291345
H147	H	2.055751	-0.438407	0.041989
H148	H	1.078042	-0.451337	-0.449194
H149	H	1.411375	-0.118004	-0.115860
H150	H	1.744708	0.215330	0.217473
H151	H	1.644195	-1.204602	-0.370006
H152	H	1.977528	-0.871268	-0.036673
H153	H	2.310861	-0.537935	0.296660
H154	H	1.765443	-1.105052	-0.248825
H155	H	2.098776	-0.771719	0.084509
H156	H	2.432110	-0.438385	0.417842
H157	H	1.765320	-0.905988	-0.248770
H158	H	2.098654	-0.572655	0.084564
H159	H	2.431987	-0.239321	0.417897
H160	H	1.628352	-0.387338	-1.108587
H161	H	1.961686	-0.054004	-0.775253
H162	H	2.295019	0.279329	-0.441920
H163	H	1.388970	-0.906006	-0.624630
H164	H	1.722303	-0.572672	-0.291297
H165	H	2.055637	-0.239339	0.042037
