data_functionalizedCrystal
_audit_creation_method	'MofGen! by Chris Wilmer'
_symmetry_space_group_name_H-M	'P1'
_symmetry_Int_Tables_number	1
_symmetry_cell_setting	triclinic
loop_
_symmetry_equiv_pos_as_xyz
  x,y,z
_cell_length_a	17.699083
_cell_length_b	8.597304
_cell_length_c	16.176319
_cell_angle_alpha	82.293375
_cell_angle_beta	89.998611
_cell_angle_gamma	84.315083
loop_
_atom_site_label
_atom_site_type_symbol
_atom_site_fract_x
_atom_site_fract_y
_atom_site_fract_z
O1	O	1.005724	0.198468	-0.082763
O2	O	0.785560	0.224289	-0.084629
O3	O	0.899974	-0.017107	-0.067420
O4	O	0.891311	0.439863	-0.099972
O5	O	0.899958	-0.017122	0.070074
O6	O	0.785544	0.224273	0.052865
O7	O	1.005708	0.198452	0.054731
Cu8	Cu	0.895625	0.211361	0.066352
Cu9	Cu	0.895644	0.211380	-0.096250
O10	O	0.891295	0.439848	0.037522
C11	C	0.757347	0.223356	-0.015819
C12	C	0.673306	0.220580	-0.015632
C13	C	0.899035	-0.075583	0.005490
C14	C	0.896252	-0.249800	0.017895
C15	C	0.625860	0.362274	-0.025725
C16	C	0.546895	0.359657	-0.025528
C17	C	0.515378	0.215344	-0.015244
C18	C	0.562830	0.073639	-0.005147
C19	C	0.641794	0.076258	-0.005338
C20	C	0.244379	0.063073	-0.004374
C21	C	0.165410	0.060465	-0.004186
C22	C	0.149481	0.346472	-0.024564
C23	C	0.228445	0.349091	-0.024755
C24	C	0.275890	0.207387	-0.014654
C25	C	0.361513	0.210227	-0.014867
C26	C	0.429757	0.212502	-0.015037
C27	C	1.033921	0.199385	-0.014080
C28	C	1.117962	0.202161	-0.014273
C29	C	0.892234	0.498324	-0.035390
C30	C	0.895017	0.672541	-0.047800
N31	N	0.895617	0.211348	0.180719
N32	N	0.895658	0.211381	-0.210616
C33	C	0.946295	0.104501	0.231600
C34	C	0.946299	0.104500	0.318147
C35	C	0.895628	0.211353	0.353811
C36	C	0.844944	0.318204	0.302923
C37	C	0.844937	0.318197	0.216378
C38	C	0.844970	0.318234	0.651949
C39	C	0.844982	0.318236	0.738501
C40	C	0.946332	0.104536	0.753718
C41	C	0.946325	0.104529	0.667173
C42	C	0.895639	0.211374	0.616294
C43	C	0.895635	0.211373	0.522450
C44	C	0.895635	0.211363	0.447653
H45	H	0.651515	0.479790	-0.034101
O46	O	0.795680	0.422089	0.773014
C47	C	0.750952	0.516415	0.709547
H48	H	0.749617	0.452072	0.652441
H49	H	0.776376	0.632949	0.692032
C50	C	0.671191	0.627979	0.811161
C51	C	0.669547	0.548945	0.741024
H52	H	0.620978	0.648053	0.830578
H53	H	0.701327	0.564435	0.853920
H54	H	0.692382	0.725082	0.796555
H55	H	0.648366	0.451837	0.755634
H56	H	0.639406	0.612475	0.698268
H57	H	0.680424	-0.039124	0.002880
H58	H	0.803701	0.405233	0.610529
H59	H	0.987561	0.017496	0.202569
H60	H	0.139752	-0.057059	0.004191
H61	H	0.508267	0.475038	-0.033748
O62	O	0.896180	-0.247604	-0.126197
C63	C	0.832299	-0.134934	-0.138649
H64	H	0.810905	-0.104546	-0.075720
H65	H	0.785512	-0.185341	-0.172065
C66	C	0.880896	-0.022140	-0.269406
C67	C	0.854624	0.015193	-0.192116
H68	H	0.894665	0.070463	-0.302390
H69	H	0.923933	-0.098051	-0.261019
H70	H	0.841902	-0.064148	-0.297242
H71	H	0.893621	0.057181	-0.164276
H72	H	0.811594	0.091115	-0.200500
O73	O	0.995633	0.000664	0.803022
C74	C	1.040342	-0.093670	0.752986
H75	H	1.041669	-0.029320	0.686709
H76	H	1.014904	-0.210191	0.752085
C77	C	1.120117	-0.205279	0.870479
C78	C	1.121752	-0.126237	0.789077
H79	H	1.170334	-0.225374	0.892743
H80	H	1.089994	-0.141729	0.904190
H81	H	1.098915	-0.302370	0.869717
H82	H	1.142944	-0.029140	0.789841
H83	H	1.151880	-0.189772	0.755366
H84	H	0.254102	0.466606	-0.033134
H85	H	0.987564	0.017497	0.359575
O86	O	0.795794	0.421943	0.337696
C87	C	0.806654	0.399019	0.424996
H88	H	0.866392	0.340206	0.441001
H89	H	0.763240	0.320417	0.455168
C90	C	0.723098	0.631835	0.438321
C91	C	0.796471	0.559613	0.457979
H92	H	0.716813	0.730895	0.458668
H93	H	0.715778	0.647278	0.379506
H94	H	0.686927	0.566318	0.463466
H95	H	0.832639	0.625121	0.432826
H96	H	0.803796	0.544185	0.516791
O97	O	0.894939	-0.329227	0.096385
C98	C	0.896667	-0.222052	0.154972
H99	H	0.874641	-0.098721	0.124287
H100	H	0.957501	-0.221404	0.177989
C101	C	0.873185	-0.423929	0.267014
C102	C	0.846126	-0.272455	0.229329
H103	H	0.842012	-0.455022	0.312884
H104	H	0.872023	-0.496138	0.227544
H105	H	0.923879	-0.423370	0.286188
H106	H	0.795437	-0.273021	0.210147
H107	H	0.847279	-0.200247	0.268798
H108	H	0.537162	-0.043864	0.003239
O109	O	0.103282	0.483984	-0.034321
C110	C	0.026828	0.450739	-0.031966
H111	H	0.022888	0.327481	0.002851
H112	H	0.004039	0.456776	-0.098357
C113	C	-0.015741	0.724160	-0.029502
C114	C	-0.020581	0.572777	0.013266
H115	H	-0.044987	0.799441	-0.001605
H116	H	0.035767	0.746559	-0.031093
H117	H	-0.034731	0.729168	-0.084826
H118	H	-0.001583	0.567765	0.068585
H119	H	-0.072088	0.550379	0.014867
O120	O	0.290426	-0.074617	0.005289
C121	C	0.275959	-0.162261	-0.059665
H122	H	0.249596	-0.079294	-0.115347
H123	H	0.235084	-0.252937	-0.037105
C124	C	0.383360	-0.349483	-0.017487
C125	C	0.350987	-0.247580	-0.085879
H126	H	0.429640	-0.402119	-0.033655
H127	H	0.393107	-0.290440	0.026276
H128	H	0.349291	-0.425033	0.001306
H129	H	0.385052	-0.172022	-0.104665
H130	H	0.341248	-0.306613	-0.129646
O131	O	0.995384	0.000437	0.632529
C132	C	0.954029	-0.096281	0.589483
H133	H	0.895326	-0.033408	0.571979
H134	H	0.947901	-0.212079	0.631213
C135	C	1.068531	-0.207661	0.531237
C136	C	0.996433	-0.130433	0.509732
H137	H	1.094689	-0.228735	0.482045
H138	H	1.096394	-0.142505	0.560240
H139	H	1.063415	-0.304151	0.566013
H140	H	1.001551	-0.033937	0.474966
H141	H	0.968573	-0.195574	0.480721
O142	O	0.795814	0.422057	0.166853
C143	C	0.837053	0.518798	0.109903
H144	H	0.895812	0.456138	0.101397
H145	H	0.843052	0.634782	0.134985
C146	C	0.722455	0.629399	0.035747
C147	C	0.794622	0.552433	0.025295
H148	H	0.696280	0.650154	-0.016443
H149	H	0.694671	0.564227	0.074117
H150	H	0.727464	0.726043	0.056651
H151	H	0.789611	0.455782	0.004401
H152	H	0.822404	0.617590	-0.013081
