data_functionalizedCrystal
_audit_creation_method	'MofGen! by Chris Wilmer'
_symmetry_space_group_name_H-M	'P1'
_symmetry_Int_Tables_number	1
_symmetry_cell_setting	triclinic
loop_
_symmetry_equiv_pos_as_xyz
  x,y,z
_cell_length_a	18.627196
_cell_length_b	18.627245
_cell_length_c	18.627297
_cell_angle_alpha	59.997585
_cell_angle_beta	90.002641
_cell_angle_gamma	119.999860
loop_
_atom_site_label
_atom_site_type_symbol
_atom_site_fract_x
_atom_site_fract_y
_atom_site_fract_z
O1	O	0.611881	-0.513850	0.021373
O2	O	0.507486	-0.366839	-0.021242
O3	O	0.507482	-0.513846	0.125765
O4	O	0.611885	-0.366843	-0.125634
O5	O	0.388081	-0.633245	0.125761
O6	O	0.388085	-0.486239	-0.021246
O7	O	0.492480	-0.633249	0.021369
Zn8	Zn	0.421325	-0.578701	0.000061
Zn9	Zn	0.578641	-0.421387	0.000066
O10	O	0.492484	-0.486243	-0.125638
C11	C	0.386978	-0.226050	-0.030925
C12	C	0.431277	-0.137452	-0.024824
C13	C	0.300578	-0.269045	-0.031532
C14	C	0.386981	-0.356045	-0.030933
C15	C	0.431283	-0.406440	-0.024841
C16	C	0.300581	-0.398843	-0.031540
C17	C	0.256978	-0.356048	-0.030928
C18	C	0.162281	-0.406446	-0.024831
C19	C	0.430384	-0.269042	-0.031537
O20	O	0.125680	-0.486246	-0.021234
O21	O	-0.125724	-0.633265	0.021395
O22	O	0.021259	-0.486258	-0.125618
O23	O	-0.021303	-0.633253	0.125779
O24	O	0.021257	-0.366859	-0.125614
O25	O	-0.125726	-0.513865	0.021399
O26	O	0.125678	-0.366847	-0.021230
Zn27	Zn	-0.000024	-0.421399	0.000085
Zn28	Zn	-0.000022	-0.578713	0.000080
O29	O	-0.021305	-0.513854	0.125783
C30	C	0.612984	-0.356049	-0.386934
C31	C	0.568683	-0.406446	-0.431234
C32	C	0.699382	-0.269044	-0.430338
C33	C	0.612985	-0.356047	-0.256935
C34	C	0.568686	-0.406443	-0.162238
C35	C	0.699384	-0.269042	-0.300536
C36	C	0.742985	-0.226049	-0.386934
C37	C	0.837682	-0.137450	-0.431233
C38	C	0.569580	-0.398844	-0.300536
C39	C	0.742978	-0.644058	0.031085
C40	C	0.837674	-0.593664	0.024994
C41	C	0.699376	-0.731065	0.031693
C42	C	0.612980	-0.644052	0.031075
C43	C	0.568681	-0.593651	0.024972
C44	C	0.569576	-0.731058	0.031683
C45	C	0.612979	-0.774056	0.031081
C46	C	0.568679	-0.862657	0.024985
C47	C	0.699378	-0.601258	0.031687
O48	O	0.492476	0.104339	0.021389
O49	O	0.388076	-0.104452	-0.021222
O50	O	0.388081	-0.104464	0.125784
O51	O	0.492471	0.104351	-0.125617
O52	O	0.507485	-0.104462	0.125779
O53	O	0.507480	-0.104449	-0.021226
O54	O	0.611879	0.104341	0.021384
Zn55	Zn	0.578638	-0.000054	0.000078
Zn56	Zn	0.421318	-0.000057	0.000084
O57	O	0.611874	0.104353	-0.125621
O58	O	1.125683	0.104349	-0.492431
O59	O	0.874285	-0.104446	-0.388033
O60	O	1.021281	-0.104453	-0.388025
O61	O	0.978687	0.104357	-0.492440
O62	O	1.021278	-0.104456	-0.507425
O63	O	0.874282	-0.104449	-0.507434
O64	O	1.125680	0.104346	-0.611832
Zn65	Zn	0.999980	-0.000052	-0.578590
Zn66	Zn	0.999984	-0.000048	-0.421275
O67	O	0.978683	0.104354	-0.611840
O68	O	0.507482	-0.513845	-0.611835
O69	O	0.611882	-0.366846	-0.507435
O70	O	0.611880	-0.513851	-0.507428
O71	O	0.507485	-0.366840	-0.611843
O72	O	0.492478	-0.633252	-0.388028
O73	O	0.492480	-0.486247	-0.388036
O74	O	0.388080	-0.633246	-0.492436
Zn75	Zn	0.421323	-0.578704	-0.421279
Zn76	Zn	0.578640	-0.421388	-0.578593
O77	O	0.388083	-0.486241	-0.492443
C78	C	0.256979	-0.774041	0.387060
C79	C	0.162282	-0.862640	0.431358
C80	C	0.300581	-0.731047	0.430465
C81	C	0.386979	-0.644042	0.257062
C82	C	0.431280	-0.593646	0.162365
C83	C	0.430384	-0.601246	0.300664
C84	C	0.386979	-0.644042	0.387062
C85	C	0.431280	-0.593645	0.431363
C86	C	0.300581	-0.731047	0.300662
C87	C	0.030912	-0.226074	-0.386909
C88	C	0.024808	-0.137477	-0.431207
C89	C	0.031514	-0.269070	-0.430313
C90	C	0.030933	-0.356067	-0.256913
C91	C	0.024851	-0.406460	-0.162217
C92	C	0.031535	-0.398866	-0.300514
C93	C	0.030914	-0.356074	-0.386910
C94	C	0.024811	-0.406473	-0.431209
C95	C	0.031533	-0.269064	-0.300513
C96	C	-0.030960	-0.644040	0.387076
C97	C	-0.024858	-0.593642	0.431375
C98	C	-0.031560	-0.731044	0.430478
C99	C	-0.030980	-0.644045	0.257077
C100	C	-0.024897	-0.593652	0.162382
C101	C	-0.031579	-0.731049	0.300677
C102	C	-0.030959	-0.774039	0.387073
C103	C	-0.024854	-0.862636	0.431370
C104	C	-0.031581	-0.601247	0.300679
C105	C	0.386983	-0.356101	0.387070
C106	C	0.431285	-0.406501	0.431365
C107	C	0.300584	-0.398905	0.430475
C108	C	0.386982	-0.226085	0.257077
C109	C	0.431282	-0.137471	0.162382
C110	C	0.300582	-0.269086	0.300679
C111	C	0.256981	-0.356104	0.387074
C112	C	0.162283	-0.406507	0.431374
C113	C	0.430387	-0.269083	0.300674
O114	O	-0.021396	-0.633275	-0.492409
O115	O	0.021220	-0.486272	-0.388011
O116	O	-0.125785	-0.633282	-0.387996
O117	O	0.125609	-0.486265	-0.492424
O118	O	-0.125804	-0.513885	-0.507393
O119	O	0.021201	-0.366875	-0.507408
O120	O	-0.021415	-0.513878	-0.611806
Zn121	Zn	-0.000110	-0.421420	-0.578564
Zn122	Zn	-0.000085	-0.578730	-0.421253
O123	O	0.125590	-0.366868	-0.611821
C124	C	0.742975	0.355992	-0.386912
C125	C	0.837672	0.406395	-0.431212
C126	C	0.699372	0.398794	-0.430312
C127	C	0.612974	0.225974	-0.256914
C128	C	0.568674	0.137360	-0.162220
C129	C	0.569569	0.268973	-0.300512
C130	C	0.612973	0.355990	-0.386907
C131	C	0.568671	0.406391	-0.431202
C132	C	0.699374	0.268975	-0.300517
H133	H	0.265577	-0.233055	-0.032513
C134	C	0.746675	-0.220429	-0.253250
H135	H	0.708316	-0.258517	-0.195441
H136	H	0.797754	-0.220067	-0.250259
H137	H	0.763117	-0.152712	-0.284879
C138	C	0.746666	0.493400	-0.526198
H139	H	0.804483	0.512867	-0.545914
H140	H	0.715056	0.478258	-0.562310
H141	H	0.749650	0.547453	-0.529515
H142	H	0.498580	0.232983	-0.265501
C143	C	0.473686	-0.493426	-0.253239
H144	H	0.453975	-0.512868	-0.195431
H145	H	0.437588	-0.478268	-0.284864
H146	H	0.470344	-0.547503	-0.250229
H147	H	0.501376	-0.233101	0.265670
C148	C	0.526279	-0.506667	0.253383
H149	H	0.545992	-0.487226	0.291750
H150	H	0.562375	-0.521831	0.236923
H151	H	0.529625	-0.452588	0.202311
H152	H	0.501374	-0.233052	-0.032518
H153	H	0.265562	-0.767016	0.265650
C154	C	0.746658	-0.779686	0.033029
H155	H	0.804470	-0.741593	0.033294
H156	H	0.715029	-0.847401	0.084298
H157	H	0.749653	-0.780044	-0.017693
H158	H	0.032518	-0.468875	-0.265506
C159	C	0.746664	0.220366	-0.253227
H160	H	0.804476	0.258463	-0.291585
H161	H	0.749647	0.219995	-0.202144
H162	H	0.715047	0.152651	-0.236789
H163	H	0.265579	-0.468853	-0.032519
H164	H	0.734379	-0.233054	-0.501332
H165	H	0.265572	-0.767035	0.501454
H166	H	0.498589	-0.767033	0.032651
H167	H	0.734389	-0.531241	0.032657
H168	H	0.032482	-0.233086	-0.501301
H169	H	0.265576	-0.233101	0.265671
C170	C	0.032872	-0.220448	-0.253227
H171	H	0.033139	-0.162367	-0.291586
H172	H	-0.017834	-0.268171	-0.202140
H173	H	0.084154	-0.200795	-0.236797
H174	H	-0.032574	-0.767038	0.265672
H175	H	-0.032514	-0.767012	0.501461
C176	C	-0.032904	-0.506669	0.253389
H177	H	-0.033167	-0.487216	0.291747
H178	H	0.017808	-0.452603	0.202306
H179	H	-0.084181	-0.521852	0.236951
H180	H	0.265585	-0.468920	0.501464
