data_functionalizedCrystal
_audit_creation_method	'MofGen! by Chris Wilmer'
_symmetry_space_group_name_H-M	'P1'
_symmetry_Int_Tables_number	1
_symmetry_cell_setting	triclinic
loop_
_symmetry_equiv_pos_as_xyz
  x,y,z
_cell_length_a	19.188933
_cell_length_b	19.188930
_cell_length_c	13.448316
_cell_angle_alpha	90.008774
_cell_angle_beta	90.003657
_cell_angle_gamma	83.145175
loop_
_atom_site_label
_atom_site_type_symbol
_atom_site_fract_x
_atom_site_fract_y
_atom_site_fract_z
O1	O	0.926145	0.087173	0.082670
O2	O	0.722834	0.098906	0.082681
O3	O	0.830356	-0.008616	0.082655
O4	O	0.818622	0.194695	0.082695
O5	O	0.830346	-0.008617	-0.082728
O6	O	0.722823	0.098905	-0.082703
O7	O	0.926134	0.087172	-0.082714
Cu8	Cu	0.824477	0.093038	-0.097809
Cu9	Cu	0.824490	0.093039	0.097776
O10	O	0.818611	0.194694	-0.082689
C11	C	0.696817	0.098525	-0.000010
C12	C	0.619313	0.097384	-0.000007
C13	C	0.066063	0.089239	0.090131
C14	C	0.138887	0.090307	0.090136
C15	C	0.175299	0.090844	-0.000015
C16	C	0.138882	0.090295	-0.090176
C17	C	0.066060	0.089220	-0.090177
N18	N	0.284314	0.132262	-0.067110
N19	N	0.353492	0.133285	-0.067102
C20	C	0.394707	0.094082	-0.000016
N21	N	0.364131	0.053826	0.067078
N22	N	0.294946	0.052806	0.067073
C23	C	0.254262	0.092009	-0.000023
C24	C	0.510080	0.095784	0.090144
C25	C	0.582906	0.096848	0.090144
C26	C	0.582899	0.096843	-0.090170
C27	C	0.510075	0.095772	-0.090167
C28	C	0.473669	0.095246	-0.000008
C29	C	0.829971	-0.034628	-0.000039
C30	C	0.828830	-0.112132	-0.000048
C31	C	0.891921	-0.157056	-0.000056
C32	C	0.890849	-0.229880	-0.000040
C33	C	0.826683	-0.257777	-0.000036
C34	C	0.763584	-0.212843	-0.000022
C35	C	0.764658	-0.140021	-0.000028
N36	N	0.777632	-0.365782	-0.056316
N37	N	0.776617	-0.434961	-0.056313
C38	C	0.823445	-0.477185	-0.000015
N39	N	0.871338	-0.447619	0.056266
N40	N	0.872355	-0.378434	0.056258
C41	C	0.825512	-0.336739	-0.000029
C42	C	0.885378	-0.601073	-0.000005
C43	C	0.884304	-0.673898	0.000017
C44	C	0.757037	-0.656860	0.000025
C45	C	0.758113	-0.584037	0.000013
C46	C	0.822286	-0.556148	-0.000007
C47	C	0.952150	0.087553	-0.000021
C48	C	1.029655	0.088694	-0.000018
C49	C	0.818997	0.220705	0.000008
C50	C	0.820137	0.298210	0.000023
N51	N	0.824474	0.093037	-0.235374
C52	C	0.866687	0.135281	-0.287403
C53	C	0.866695	0.135278	-0.391507
C54	C	0.824487	0.093034	-0.443578
C55	C	0.782272	0.050786	-0.391541
C56	C	0.782268	0.050785	-0.287440
C57	C	0.782283	0.050790	-0.608521
C58	C	0.782286	0.050791	-0.712630
C59	C	0.866711	0.135283	-0.712588
C60	C	0.866706	0.135282	-0.608487
C61	C	0.824490	0.093035	-0.556457
N62	N	0.824499	0.093035	0.235340
H63	H	0.612550	0.097287	0.163558
O64	O	0.945576	-0.717567	0.000190
C65	C	0.948767	-0.760196	0.085839
H66	H	0.912987	-0.733406	0.145707
H67	H	0.930858	-0.813102	0.066488
C68	C	1.068721	-0.804383	0.051134
C69	C	1.024780	-0.771477	0.124669
H70	H	1.115610	-0.811346	0.075085
H71	H	1.066571	-0.775666	-0.006571
H72	H	1.053789	-0.848469	0.035015
H73	H	1.039708	-0.727389	0.140778
H74	H	1.026934	-0.800188	0.182378
O75	O	0.474600	0.095294	0.177631
C76	C	0.402519	0.094216	0.158300
H77	H	0.389613	0.116169	0.080825
H78	H	0.389349	0.037910	0.162560
C79	C	0.374860	0.112478	0.331240
C80	C	0.359007	0.139447	0.236087
H81	H	0.348018	0.140376	0.379225
H82	H	0.423422	0.113202	0.344265
H83	H	0.363884	0.065558	0.334777
H84	H	0.369990	0.186364	0.232549
H85	H	0.310445	0.138733	0.223063
O86	O	0.174234	0.090692	-0.177773
C87	C	0.164520	0.029979	-0.232636
H88	H	0.150160	-0.012568	-0.179890
H89	H	0.120418	0.043019	-0.288850
C90	C	0.250515	0.055779	-0.352661
C91	C	0.232885	0.003519	-0.287877
H92	H	0.292684	0.039458	-0.386741
H93	H	0.257058	0.096684	-0.315702
H94	H	0.213759	0.066640	-0.399497
H95	H	0.269637	-0.007335	-0.241036
H96	H	0.226349	-0.037389	-0.324830
H97	H	0.036427	0.088808	0.163547
O98	O	0.952093	-0.273598	-0.000187
C99	C	0.955272	-0.316227	-0.085854
H100	H	0.899859	-0.319741	-0.114395
H101	H	0.987078	-0.292372	-0.145840
C102	C	1.058692	-0.385953	-0.024789
C103	C	0.990633	-0.390274	-0.059839
H104	H	1.080507	-0.431628	-0.008745
H105	H	1.056553	-0.357232	0.032925
H106	H	1.085188	-0.366071	-0.074784
H107	H	0.964135	-0.410147	-0.009840
H108	H	0.992768	-0.419000	-0.117544
O109	O	0.618156	0.097331	-0.177832
C110	C	0.570397	0.096643	-0.257404
H111	H	0.521446	0.073779	-0.230978
H112	H	0.555155	0.152529	-0.285116
C113	C	0.665065	0.079363	-0.375042
C114	C	0.604944	0.051276	-0.342587
H115	H	0.686375	0.051381	-0.427590
H116	H	0.697241	0.079829	-0.321434
H117	H	0.652355	0.125934	-0.398129
H118	H	0.617656	0.004709	-0.319490
H119	H	0.572770	0.050800	-0.396194
O120	O	0.474691	0.095122	-0.177716
C121	C	0.440649	0.034052	-0.183107
H122	H	0.468253	-0.007874	-0.131948
H123	H	0.383629	0.046905	-0.158891
C124	C	0.409300	0.058109	-0.353652
C125	C	0.443207	0.006612	-0.290823
H126	H	0.410874	0.041184	-0.420097
H127	H	0.432232	0.099254	-0.350020
H128	H	0.361786	0.068815	-0.333460
H129	H	0.490722	-0.004087	-0.311008
H130	H	0.420283	-0.034536	-0.294462
H131	H	0.747916	0.016394	-0.755024
H132	H	0.901073	0.169684	-0.566093
O133	O	0.696890	-0.540295	0.000055
C134	C	0.711596	-0.470039	0.000023
H135	H	0.766431	-0.467409	0.031328
H136	H	0.708879	-0.448980	-0.079321
C137	C	0.589910	-0.428523	0.026433
C138	C	0.657256	-0.425293	0.064891
H139	H	0.556389	-0.400921	0.066443
H140	H	0.580001	-0.475856	0.026451
H141	H	0.587655	-0.410976	-0.039686
H142	H	0.659513	-0.442848	0.131004
H143	H	0.667164	-0.377962	0.064886
H144	H	0.747907	0.016387	-0.566162
O145	O	0.907728	0.176218	-0.236716
C146	C	0.955509	0.133527	-0.176518
H147	H	0.933942	0.081774	-0.160936
H148	H	1.008024	0.122709	-0.216631
C149	C	0.992383	0.234980	-0.096761
C150	C	0.965892	0.171419	-0.077616
H151	H	0.998791	0.258354	-0.035755
H152	H	0.960194	0.263743	-0.137319
H153	H	1.036143	0.225956	-0.130191
H154	H	0.922129	0.180444	-0.044198
H155	H	0.998074	0.142658	-0.037050
O156	O	0.954317	-0.130082	-0.000024
C157	C	1.009773	-0.185355	-0.000054
H158	H	0.990356	-0.234763	0.031263
H159	H	1.029215	-0.195729	-0.079400
C160	C	1.094167	-0.104291	0.026328
C161	C	1.070319	-0.164974	0.064800
H162	H	1.131517	-0.091719	0.066328
H163	H	1.056806	-0.067052	0.026344
H164	H	1.110364	-0.112944	-0.039793
H165	H	1.054115	-0.156317	0.130914
H166	H	1.107680	-0.202211	0.064796
H167	H	0.168537	0.090755	0.163548
O168	O	0.694766	-0.684066	-0.000010
C169	C	0.707346	-0.757975	0.000025
H170	H	0.761881	-0.775248	-0.031292
H171	H	0.704034	-0.778223	0.079372
C172	C	0.584912	-0.766812	-0.026353
C173	C	0.651891	-0.788026	-0.064825
H174	H	0.550703	-0.785350	-0.066351
H175	H	0.576436	-0.717018	-0.026373
H176	H	0.582161	-0.783686	0.039769
H177	H	0.654643	-0.771144	-0.130941
H178	H	0.660366	-0.837818	-0.064818
H179	H	0.901071	0.169676	-0.433865
H180	H	0.901082	0.169685	-0.754956
H181	H	0.711340	-0.235562	-0.000017
H182	H	0.036416	0.088778	-0.163590
H183	H	0.713280	-0.103444	-0.000022
H184	H	0.937631	-0.578365	-0.000016
H185	H	0.747909	0.016387	-0.433946
H186	H	0.747893	0.016386	-0.245079
