data_functionalizedCrystal
_audit_creation_method	'MofGen! by Chris Wilmer'
_symmetry_space_group_name_H-M	'P1'
_symmetry_Int_Tables_number	1
_symmetry_cell_setting	triclinic
loop_
_symmetry_equiv_pos_as_xyz
  x,y,z
_cell_length_a	17.699104
_cell_length_b	14.519709
_cell_length_c	16.176319
_cell_angle_alpha	89.992256
_cell_angle_beta	90.009138
_cell_angle_gamma	96.514169
loop_
_atom_site_label
_atom_site_type_symbol
_atom_site_fract_x
_atom_site_fract_y
_atom_site_fract_z
O1	O	-1.004403	0.116716	-0.068781
O2	O	-0.504403	0.616716	0.431219
O3	O	-0.784070	0.131869	-0.068776
O4	O	-0.284070	0.631869	0.431224
O5	O	-0.900078	-0.009970	-0.068771
O6	O	-0.400078	0.490030	0.431229
O7	O	-0.888395	0.258555	-0.068786
O8	O	-0.388395	0.758555	0.431214
O9	O	-0.900062	-0.009979	0.068722
O10	O	-0.400062	0.490021	0.568722
O11	O	-0.784054	0.131860	0.068717
O12	O	-0.284054	0.631860	0.568717
O13	O	-1.004387	0.116707	0.068712
O14	O	-0.504387	0.616707	0.568712
Cu15	Cu	-0.894219	0.124283	0.081269
Cu16	Cu	-0.394219	0.624283	0.581269
Cu17	Cu	-0.894238	0.124293	-0.081333
Cu18	Cu	-0.394238	0.624293	0.418667
O19	O	-0.888379	0.258546	0.068708
O20	O	-0.388379	0.758546	0.568708
C21	C	-0.755864	0.131318	-0.000028
C22	C	-0.255864	0.631318	0.499972
C23	C	-0.671842	0.129679	-0.000026
C24	C	-0.171842	0.629679	0.499974
C25	C	-0.899526	-0.044332	-0.000024
C26	C	-0.399526	0.455668	0.499976
C27	C	-0.897894	-0.146707	-0.000024
C28	C	-0.397894	0.353293	0.499976
C29	C	-0.147183	0.203695	-0.000031
C30	C	0.352817	0.703695	0.499969
C31	C	-0.226131	0.205229	-0.000034
C32	C	0.273869	0.705229	0.499966
C33	C	-0.274510	0.121964	-0.000030
C34	C	0.225490	0.621964	0.499970
C35	C	-0.243938	0.037159	-0.000031
C36	C	0.256062	0.537159	0.499969
C37	C	-0.164991	0.035626	-0.000033
C38	C	0.335009	0.535626	0.499967
C39	C	-0.562321	0.043340	-0.000023
C40	C	-0.062321	0.543340	0.499977
C41	C	-0.641273	0.044880	-0.000018
C42	C	-0.141273	0.544880	0.499982
C43	C	-0.623461	0.212943	-0.000024
C44	C	-0.123461	0.712943	0.499976
C45	C	-0.544515	0.211410	-0.000026
C46	C	-0.044515	0.711410	0.499974
C47	C	-0.513949	0.126606	-0.000031
C48	C	-0.013949	0.626606	0.499969
C49	C	-0.428344	0.124944	-0.000029
C50	C	0.071656	0.624944	0.499971
C51	C	-0.360113	0.123625	-0.000027
C52	C	0.139887	0.623625	0.499973
C53	C	-0.891887	-0.521578	-0.000045
C54	C	-0.391887	-0.021578	0.499955
C55	C	-0.893555	-0.417277	-0.000039
C56	C	-0.393555	0.082723	0.499961
C57	C	-0.894891	-0.334146	-0.000034
C58	C	-0.394891	0.165854	0.499966
C59	C	-0.896559	-0.229838	-0.000029
C60	C	-0.396559	0.270162	0.499971
C61	C	-0.032593	0.117258	-0.000033
C62	C	0.467407	0.617258	0.499967
C63	C	-0.116615	0.118896	-0.000029
C64	C	0.383385	0.618896	0.499971
C65	C	-0.888931	0.292908	-0.000041
C66	C	-0.388931	0.792908	0.499959
C67	C	-0.890563	0.395283	-0.000047
C68	C	-0.390563	0.895283	0.499953
N69	N	-0.894211	0.124275	0.195634
N70	N	-0.394211	0.624275	0.695634
N71	N	-0.894252	0.124294	-0.195698
N72	N	-0.394252	0.624294	0.304302
C73	C	-0.945595	0.061494	0.238900
C74	C	-0.445595	0.561494	0.738900
C75	C	-0.945599	0.061493	0.325448
C76	C	-0.445599	0.561493	0.825448
C77	C	-0.894222	0.124278	0.368727
C78	C	-0.394222	0.624278	0.868727
C79	C	-0.842833	0.187061	0.325455
C80	C	-0.342833	0.687061	0.825455
C81	C	-0.842826	0.187057	0.238909
C82	C	-0.342826	0.687057	0.738909
C83	C	-0.842858	0.187079	0.674483
C84	C	-0.342858	0.687079	1.174483
C85	C	-0.842871	0.187080	0.761034
C86	C	-0.342871	0.687080	1.261034
C87	C	-0.945632	0.061514	0.761021
C88	C	-0.445632	0.561514	1.261021
C89	C	-0.945625	0.061510	0.674476
C90	C	-0.445625	0.561510	1.174476
C91	C	-0.894233	0.124290	0.631211
C92	C	-0.394233	0.624290	1.131211
C93	C	-0.894229	0.124289	0.537367
C94	C	-0.394229	0.624289	1.037367
C95	C	-0.894230	0.124284	0.462569
C96	C	-0.394230	0.624284	0.962569
H97	H	-0.107797	0.271499	-0.000028
H98	H	0.392203	0.771499	0.499972
F99	F	-0.529801	-0.046916	-0.000044
F100	F	-0.029801	0.453084	0.499956
F101	F	-0.692761	-0.043746	-0.000015
F102	F	-0.192761	0.456254	0.499985
F103	F	-1.000283	-0.005328	0.192848
F104	F	-0.500283	0.494672	0.692848
H105	H	-0.801031	0.238209	0.796271
H106	H	-0.301031	0.738209	1.296271
H107	H	-0.283334	-0.030637	-0.000033
H108	H	0.216666	0.469363	0.499967
H109	H	-0.800996	0.238179	0.360697
H110	H	-0.300996	0.738179	0.860697
F111	F	-0.132459	-0.054628	-0.000031
F112	F	0.367541	0.445372	0.499969
F113	F	-0.788133	0.253875	0.192863
F114	F	-0.288133	0.753875	0.692863
F115	F	-1.000310	-0.005310	0.628418
F116	F	-0.500310	0.494690	1.128418
H117	H	-0.987439	0.010371	0.360675
H118	H	-0.487439	0.510371	0.860675
H119	H	-0.987476	0.010392	0.796257
H120	H	-0.487476	0.510392	1.296257
H121	H	-0.251015	0.274280	-0.000043
H122	H	0.248985	0.774280	0.499957
F123	F	-0.493030	0.300032	-0.000028
F124	F	0.006970	0.800032	0.499972
H125	H	-0.801015	0.238198	0.639263
H126	H	-0.301015	0.738198	1.139263
H127	H	-0.648357	0.281995	-0.000024
H128	H	-0.148357	0.781995	0.499976
