data_functionalizedCrystal
_audit_creation_method	'MofGen! by Chris Wilmer'
_symmetry_space_group_name_H-M	'P1'
_symmetry_Int_Tables_number	1
_symmetry_cell_setting	triclinic
loop_
_symmetry_equiv_pos_as_xyz
  x,y,z
_cell_length_a	11.169417
_cell_length_b	14.908178
_cell_length_c	11.169409
_cell_angle_alpha	93.334554
_cell_angle_beta	90.019824
_cell_angle_gamma	93.314955
loop_
_atom_site_label
_atom_site_type_symbol
_atom_site_fract_x
_atom_site_fract_y
_atom_site_fract_z
Zn1	Zn	1.807331	-0.359096	0.650924
Zn2	Zn	1.795609	-0.510002	0.438634
Zn3	Zn	1.606613	-0.359151	0.450254
Zn4	Zn	1.595018	-0.509929	0.639285
O5	O	1.701143	-0.434545	0.544774
O6	O	1.973725	-0.379122	0.622771
O7	O	1.770484	-0.490045	0.272222
O8	O	1.642997	-0.232888	0.486607
O9	O	1.965113	-0.489992	0.466803
O10	O	1.790464	-0.232848	0.634039
O11	O	1.631630	-0.379216	0.280759
O12	O	1.437126	-0.379144	0.475321
O13	O	1.623236	-0.489867	0.808783
O14	O	1.428607	-0.489920	0.614201
O15	O	1.779221	-0.379051	0.817334
O16	O	1.759242	-0.636248	0.455517
O17	O	1.611869	-0.636194	0.602934
C18	C	1.389319	-0.434531	0.544760
C19	C	1.255918	-0.434547	0.544781
C20	C	1.683058	-0.668958	0.526728
C21	C	1.675431	-0.769241	0.519048
C22	C	1.814540	-0.957492	0.658301
C23	C	1.807378	-1.051716	0.651089
C24	C	1.653940	-1.051917	0.497418
C25	C	1.661102	-0.957693	0.504630
C26	C	1.741406	-0.910483	0.585073
C27	C	1.748573	-0.816256	0.592278
C28	C	1.595129	-0.816459	0.438615
C29	C	1.587967	-0.910684	0.431403
C30	C	2.014184	-0.434559	0.544789
C31	C	2.147583	-0.434565	0.544796
C32	C	1.701243	-0.434444	0.857825
C33	C	1.701285	-0.434402	0.991228
C34	C	1.719331	-0.199216	0.562917
C35	C	1.727082	-0.098933	0.570649
C36	C	1.701117	-0.434579	0.232947
C37	C	1.701327	-0.434368	0.099564
H38	H	1.813964	-0.777819	0.657776
F39	F	1.900016	-0.907246	0.743900
H40	H	1.866925	-1.089987	0.710724
F41	F	1.568457	-1.102176	0.411837
H42	H	1.522583	-0.949135	0.365912
H43	H	1.535582	-0.778174	0.378984
