data_functionalizedCrystal
_audit_creation_method	'MofGen! by Chris Wilmer'
_symmetry_space_group_name_H-M	'P1'
_symmetry_Int_Tables_number	1
_symmetry_cell_setting	triclinic
loop_
_symmetry_equiv_pos_as_xyz
  x,y,z
_cell_length_a	10.489746
_cell_length_b	11.792241
_cell_length_c	10.268362
_cell_angle_alpha	89.994572
_cell_angle_beta	90.001649
_cell_angle_gamma	95.632642
loop_
_atom_site_label
_atom_site_type_symbol
_atom_site_fract_x
_atom_site_fract_y
_atom_site_fract_z
O1	O	1.693504	-0.160166	0.108213
O2	O	1.322258	-0.175191	0.108235
O3	O	1.516890	-0.002532	0.108215
O4	O	1.498872	-0.332824	0.108234
O5	O	1.516873	-0.002525	-0.108386
O6	O	1.322241	-0.175184	-0.108365
O7	O	1.693487	-0.160158	-0.108387
Cu8	Cu	1.507863	-0.167670	-0.128154
Cu9	Cu	1.507883	-0.167679	0.128002
O10	O	1.498855	-0.332817	-0.108367
C11	C	1.274722	-0.174051	-0.000062
C12	C	1.133104	-0.170652	-0.000054
C13	C	0.980628	-0.058783	-0.000079
C14	C	1.057823	-0.114709	-0.106868
C15	C	1.057795	-0.114743	0.106684
C16	C	0.957970	-0.220580	-0.106963
C17	C	0.957937	-0.220598	0.106684
C18	C	1.035083	-0.276602	-0.000130
C19	C	1.515750	0.039765	-0.000085
C20	C	1.512362	0.165788	-0.000084
C21	C	1.741023	-0.161298	-0.000087
C22	C	1.882641	-0.164697	-0.000086
C23	C	1.499995	-0.375115	-0.000064
C24	C	1.503383	-0.501138	-0.000057
N25	N	1.507858	-0.167664	-0.308320
C26	C	1.506133	0.396517	-0.000062
C27	C	1.509594	0.268123	-0.000074
C28	C	1.507876	-0.167677	-0.573990
C29	C	1.507862	-0.167673	-0.426152
N30	N	1.507898	-0.167677	0.308167
H31	H	0.914531	-0.265258	-0.197349
H32	H	0.956221	0.033314	-0.000192
C33	C	1.249580	-0.059077	-0.228029
C34	C	1.116721	-0.054352	-0.228753
H35	H	1.285933	-0.021815	-0.303278
H36	H	1.285087	-0.022218	-0.152202
H37	H	1.267819	-0.136407	-0.228138
H38	H	1.098482	0.022978	-0.228635
H39	H	1.081202	-0.091208	-0.304600
C40	C	0.927886	-0.394340	0.229690
C41	C	0.899009	-0.280908	0.228575
H42	H	0.891511	-0.431562	0.304953
H43	H	0.893542	-0.432075	0.153892
H44	H	1.018192	-0.396310	0.231004
H45	H	0.808702	-0.278938	0.227252
H46	H	0.933347	-0.243163	0.304393
H47	H	1.059245	-0.368768	-0.000184
C48	C	1.089715	0.059601	0.228341
C49	C	1.116650	-0.054371	0.228571
H50	H	1.126041	0.096873	0.303590
H51	H	1.125255	0.096446	0.152514
H52	H	0.999576	0.062776	0.228784
H53	H	1.206789	-0.057546	0.228118
H54	H	1.081114	-0.091225	0.304418
