data_functionalizedCrystal
_audit_creation_method	'MofGen! by Chris Wilmer'
_symmetry_space_group_name_H-M	'P1'
_symmetry_Int_Tables_number	1
_symmetry_cell_setting	triclinic
loop_
_symmetry_equiv_pos_as_xyz
  x,y,z
_cell_length_a	10.723024
_cell_length_b	11.026607
_cell_length_c	9.198806
_cell_angle_alpha	89.998911
_cell_angle_beta	89.996352
_cell_angle_gamma	96.526943
loop_
_atom_site_label
_atom_site_type_symbol
_atom_site_fract_x
_atom_site_fract_y
_atom_site_fract_z
O1	O	1.693992	0.170518	-0.120878
O2	O	2.193992	0.670518	0.379122
O3	O	1.334363	0.186840	-0.120883
O4	O	1.834363	0.686840	0.379117
O5	O	1.484372	0.001778	-0.120876
O6	O	1.984372	0.501778	0.379124
O7	O	1.543983	0.355580	-0.120886
O8	O	2.043983	0.855580	0.379114
O9	O	1.484357	0.001777	0.120909
O10	O	1.984357	0.501777	0.620909
O11	O	1.334348	0.186840	0.120902
O12	O	1.834348	0.686840	0.620902
O13	O	1.693977	0.170518	0.120907
O14	O	2.193977	0.670518	0.620907
Cu15	Cu	1.514161	0.178679	0.142981
Cu16	Cu	2.014161	0.678679	0.642981
Cu17	Cu	1.514179	0.178679	-0.142958
Cu18	Cu	2.014179	0.678679	0.357042
O19	O	1.543968	0.355580	0.120899
O20	O	2.043968	0.855580	0.620899
C21	C	1.287599	0.185652	0.000009
C22	C	1.787599	0.685652	0.500009
C23	C	1.148278	0.182098	0.000007
C24	C	1.648278	0.682098	0.500007
C25	C	1.095646	0.285649	0.000003
C26	C	1.595646	0.785649	0.500003
C27	C	0.951650	0.281979	0.000001
C28	C	1.451650	0.781979	0.500001
C29	C	1.473367	-0.043525	0.000015
C30	C	1.973367	0.456475	0.500015
C31	C	1.440584	-0.178512	0.000009
C32	C	1.940584	0.321488	0.500009
C33	C	1.531104	-0.251564	0.000008
C34	C	2.031104	0.248436	0.500008
C35	C	1.497223	-0.391080	0.000003
C36	C	1.997223	0.108920	0.500003
C37	C	1.740741	0.171706	0.000011
C38	C	2.240741	0.671706	0.500011
C39	C	1.880062	0.175259	0.000004
C40	C	2.380062	0.675259	0.500004
C41	C	1.554973	0.400883	0.000006
C42	C	2.054973	0.900883	0.500006
C43	C	1.587756	0.535869	0.000002
C44	C	2.087756	1.035869	0.500002
N45	N	1.514157	0.178677	0.344095
N46	N	2.014157	0.678677	0.844095
N47	N	1.514191	0.178671	-0.344072
N48	N	2.014191	0.678671	0.155928
C49	C	1.577068	0.100633	0.416295
C50	C	2.077068	0.600633	0.916295
C51	C	1.577086	0.100628	0.583707
C52	C	2.077086	0.600628	1.083707
H53	H	0.925352	0.086607	-0.000002
H54	H	1.425352	0.586607	0.499998
F55	F	1.647495	0.013296	0.664859
F56	F	2.147495	0.513296	1.164859
F57	F	1.443766	0.266006	0.425292
F58	F	1.943766	0.766006	0.925292
H59	H	1.460333	0.245496	0.593849
H60	H	1.960333	0.745496	1.093849
H61	H	1.394636	-0.431820	-0.000008
H62	H	1.894636	0.068180	0.499992
H63	H	1.633684	-0.210818	0.000019
H64	H	2.133684	0.289182	0.500019
F65	F	1.176082	0.405083	0.000005
F66	F	1.676082	0.905083	0.500005
H67	H	1.690344	-0.423393	-0.000106
H68	H	2.190344	0.076607	0.499894
F69	F	0.892447	0.397853	-0.000013
F70	F	1.392447	0.897853	0.499987
F71	F	1.647181	0.013082	0.335099
F72	F	2.147181	0.513082	0.835099
F73	F	1.067842	0.062665	0.000020
F74	F	1.567842	0.562665	0.500020
F75	F	1.306501	-0.231762	-0.000006
F76	F	1.806501	0.268238	0.499994
