data_functionalizedCrystal
_audit_creation_method	'MofGen! by Chris Wilmer'
_symmetry_space_group_name_H-M	'P1'
_symmetry_Int_Tables_number	1
_symmetry_cell_setting	triclinic
loop_
_symmetry_equiv_pos_as_xyz
  x,y,z
_cell_length_a	19.121112
_cell_length_b	19.121063
_cell_length_c	21.395355
_cell_angle_alpha	87.579260
_cell_angle_beta	92.462121
_cell_angle_gamma	90.126867
loop_
_atom_site_label
_atom_site_type_symbol
_atom_site_fract_x
_atom_site_fract_y
_atom_site_fract_z
Zn1	Zn	1.059885	-0.324994	0.406891
Zn2	Zn	1.054782	-0.442210	0.306376
Zn3	Zn	0.942638	-0.319984	0.297482
Zn4	Zn	0.937610	-0.437185	0.406473
O5	O	0.998729	-0.381093	0.354306
O6	O	1.157314	-0.344744	0.397455
O7	O	1.039875	-0.426003	0.217517
O8	O	0.962431	-0.222544	0.308448
O9	O	1.153565	-0.430862	0.323607
O10	O	1.048572	-0.226226	0.388830
O11	O	0.957483	-0.336204	0.210983
O12	O	0.843866	-0.331330	0.308043
O13	O	0.953862	-0.422296	0.494207
O14	O	0.840172	-0.417437	0.388118
O15	O	1.043697	-0.339870	0.494514
O16	O	1.035000	-0.539648	0.323201
O17	O	0.948914	-0.535956	0.396742
C18	C	0.816581	-0.373295	0.347070
C19	C	0.738657	-0.369976	0.343990
C20	C	0.298030	-0.348919	0.324482
C21	C	0.371248	-0.352041	0.327380
C22	C	0.405946	-0.398508	0.370457
C23	C	0.367423	-0.441849	0.410644
C24	C	0.294207	-0.438723	0.407749
C25	C	0.626918	-0.410191	0.381282
C26	C	0.700139	-0.413316	0.384173
C27	C	0.703958	-0.323507	0.300909
C28	C	0.630740	-0.320387	0.298016
C29	C	0.592224	-0.363726	0.338205
C30	C	0.480787	-0.401702	0.373418
C31	C	0.517385	-0.360528	0.335246
C32	C	0.990877	-0.563240	0.360906
C33	C	0.987581	-0.641166	0.363753
C34	C	1.030888	-0.679676	0.326837
C35	C	1.027793	-0.752896	0.329518
C36	C	0.981387	-0.787603	0.369113
C37	C	0.938078	-0.749088	0.406034
C38	C	0.941178	-0.675870	0.403355
C39	C	0.969789	-1.008580	0.379118
C40	C	0.966692	-1.081803	0.381793
C41	C	1.056408	-1.085606	0.305277
C42	C	1.059500	-1.012386	0.302599
C43	C	1.016194	-0.973877	0.339523
C44	C	0.978221	-0.862446	0.371854
C45	C	1.019364	-0.899036	0.336785
C46	C	1.181588	-0.388922	0.361569
C47	C	1.259512	-0.392258	0.364665
C48	C	0.998788	-0.381082	0.517731
C49	C	0.998813	-0.381077	0.587373
C50	C	1.006632	-0.198236	0.347694
C51	C	1.009999	-0.120314	0.344876
C52	C	0.998713	-0.381056	0.191516
C53	C	0.998832	-0.380869	0.121872
C54	C	1.045588	-0.338156	0.620247
C55	C	1.045589	-0.338125	0.685681
C56	C	0.998820	-0.381029	0.718240
C57	C	0.952036	-0.423953	0.685358
C58	C	0.952033	-0.423977	0.619924
C59	C	0.990563	-0.443917	0.823982
C60	C	0.990572	-0.443894	0.889415
C61	C	0.998828	-0.380955	0.920058
C62	C	1.007090	-0.318037	0.885261
C63	C	1.007086	-0.318061	0.819828
C64	C	0.998819	-0.381008	0.789191
C65	C	1.045606	-0.337998	1.023883
C66	C	1.045602	-0.337966	1.089318
C67	C	0.952053	-0.423800	1.088994
C68	C	0.952054	-0.423825	1.023560
C69	C	0.998834	-0.380925	0.991008
H70	H	0.735326	-0.288222	0.268191
H71	H	0.983849	-0.495126	0.917742
H72	H	0.489130	-0.322692	0.300176
H73	H	0.395681	-0.479680	0.445720
N74	N	0.888022	-0.786521	0.448736
H75	H	0.861057	-0.751013	0.471717
H76	H	0.915257	-0.818081	0.479995
H77	H	1.013814	-0.266786	0.910209
H78	H	0.983653	-0.495148	0.799031
H79	H	0.940436	-0.890713	0.404091
N80	N	1.080938	-0.642244	0.284128
H81	H	1.107905	-0.677753	0.261150
H82	H	1.114655	-0.613210	0.309832
H83	H	1.083677	-0.303170	0.712452
N84	N	0.252655	-0.485467	0.451085
H85	H	0.265890	-0.475202	0.495982
H86	H	0.263247	-0.536067	0.443543
H87	H	0.509047	-0.439537	0.408490
N88	N	1.109563	-0.974956	0.259902
H89	H	1.098168	-0.987267	0.215162
H90	H	1.159088	-0.989813	0.272185
H91	H	1.091666	-1.116968	0.275218
H92	H	0.728389	-0.451155	0.419255
N93	N	1.096040	-0.291886	0.585138
H94	H	1.125672	-0.264690	0.615896
H95	H	1.068905	-0.258228	0.555668
N96	N	0.585379	-0.456946	0.424615
H97	H	0.618473	-0.486862	0.452337
H98	H	0.553596	-0.488044	0.399025
H99	H	0.402606	-0.316753	0.294656
H100	H	1.083694	-0.303062	0.997378
H101	H	0.602493	-0.282554	0.262934
N102	N	1.015999	-0.250206	0.782296
H103	H	1.021232	-0.210328	0.811632
H104	H	0.973564	-0.241878	0.753201
H105	H	0.913940	-0.458927	0.593158
N106	N	1.096058	-0.291665	1.124769
H107	H	1.127315	-0.321535	1.154256
H108	H	1.068927	-0.257947	1.149555
H109	H	1.063058	-0.784248	0.299456
H110	H	0.928911	-1.110060	0.414047
H111	H	0.934526	-0.977231	0.409181
H112	H	0.913956	-0.458883	0.711871
N113	N	0.901603	-0.470070	1.124101
H114	H	0.908701	-0.463541	1.170541
H115	H	0.910349	-0.520611	1.114923
N116	N	0.901593	-0.470107	0.988097
H117	H	0.871960	-0.497278	1.018649
H118	H	0.928712	-0.503787	0.963262
H119	H	0.269783	-0.311082	0.289404
H120	H	1.057151	-0.870775	0.304549
N121	N	0.894471	-0.634330	0.443174
H122	H	0.864601	-0.667426	0.468664
H123	H	0.863325	-0.602605	0.415250
