data_functionalizedCrystal
_audit_creation_method	'MofGen! by Chris Wilmer'
_symmetry_space_group_name_H-M	'P1'
_symmetry_Int_Tables_number	1
_symmetry_cell_setting	triclinic
loop_
_symmetry_equiv_pos_as_xyz
  x,y,z
_cell_length_a	16.959455
_cell_length_b	25.639239
_cell_length_c	16.959447
_cell_angle_alpha	90.033076
_cell_angle_beta	90.014322
_cell_angle_gamma	90.035633
loop_
_atom_site_label
_atom_site_type_symbol
_atom_site_fract_x
_atom_site_fract_y
_atom_site_fract_z
Zn1	Zn	1.208282	-0.208183	0.446894
Zn2	Zn	1.208161	-0.295624	0.314709
Zn3	Zn	1.076110	-0.208199	0.314731
Zn4	Zn	1.076032	-0.295585	0.446847
O5	O	1.142146	-0.251898	0.380795
O6	O	1.318876	-0.219792	0.429369
O7	O	1.190627	-0.284050	0.204101
O8	O	1.093726	-0.135032	0.332291
O9	O	1.318788	-0.284034	0.332253
O10	O	1.190832	-0.135020	0.429391
O11	O	1.093609	-0.219820	0.204117
O12	O	0.965489	-0.219782	0.332247
O13	O	1.093593	-0.283967	0.557464
O14	O	0.965431	-0.283983	0.429312
O15	O	1.190756	-0.219754	0.557498
O16	O	1.190551	-0.368784	0.332208
O17	O	1.093476	-0.368755	0.429290
C18	C	0.936780	-0.251880	0.380777
C19	C	0.848923	-0.251886	0.380788
C20	C	0.477453	-0.218441	0.330359
C21	C	0.477442	-0.285398	0.431277
C22	C	0.559988	-0.285390	0.431272
C23	C	0.601270	-0.251908	0.380809
C24	C	0.560007	-0.218433	0.330351
C25	C	0.601258	-0.318868	0.481723
C26	C	0.683809	-0.318863	0.481720
C27	C	0.725092	-0.285377	0.431260
C28	C	0.683824	-0.251901	0.380801
C29	C	0.725106	-0.218418	0.330338
C30	C	0.683839	-0.184939	0.279882
C31	C	0.601290	-0.184948	0.279891
C32	C	0.807641	-0.285368	0.431251
C33	C	0.807660	-0.218411	0.330330
C34	C	1.142013	-0.387740	0.380759
C35	C	1.142029	-0.445854	0.380770
C36	C	1.192825	-0.806220	0.330331
C37	C	1.192855	-0.860824	0.330341
O38	O	1.235906	-0.889063	0.287417
N39	N	1.142285	-0.888137	0.380847
C40	C	1.091686	-0.860842	0.431352
O41	O	1.048675	-0.889088	0.474313
C42	C	1.091660	-0.806239	0.431345
C43	C	1.142228	-0.778929	0.380830
C44	C	1.243389	-0.778910	0.279820
C45	C	1.243358	-0.724309	0.279809
C46	C	1.192761	-0.697019	0.330308
C47	C	1.142196	-0.724329	0.380818
C48	C	1.041066	-0.778946	0.481853
C49	C	1.041045	-0.724339	0.481842
C50	C	1.091613	-0.697029	0.431326
C51	C	1.091568	-0.642437	0.431306
N52	N	1.142139	-0.615125	0.380800
C53	C	1.192735	-0.642415	0.330301
C54	C	1.091746	-0.975513	0.431364
C55	C	1.091767	-1.030115	0.431368
C56	C	1.192938	-1.030093	0.330358
C57	C	1.192912	-0.975490	0.330351
C58	C	1.142316	-0.948200	0.380858
C59	C	1.192664	-0.527750	0.330280
C60	C	1.192625	-0.473145	0.330271
C61	C	1.091458	-0.473172	0.431283
C62	C	1.091493	-0.527772	0.431290
C63	C	1.142103	-0.555060	0.380786
O64	O	1.048541	-0.614164	0.474211
O65	O	1.235746	-0.614163	0.287355
C66	C	1.348314	-0.251915	0.380814
C67	C	1.436171	-0.251923	0.380822
C68	C	1.142179	-0.251854	0.586963
C69	C	1.142193	-0.251836	0.674820
C70	C	1.142301	-0.115525	0.380849
C71	C	1.142367	-0.057411	0.380872
C72	C	1.142159	-0.251903	0.175429
C73	C	1.142298	-0.251774	0.087573
C74	C	1.091699	-0.285214	1.046281
C75	C	1.192876	-0.218348	1.046311
C76	C	1.192855	-0.218359	0.963765
C77	C	1.142256	-0.251799	0.922473
C78	C	1.091678	-0.285227	0.963727
C79	C	1.243438	-0.184935	0.922505
C80	C	1.243419	-0.184945	0.839954
C81	C	1.192816	-0.218382	0.798661
C82	C	1.142235	-0.251812	0.839920
C83	C	1.091636	-0.285251	0.798628
C84	C	1.041051	-0.318679	0.839885
C85	C	1.041074	-0.318665	0.922433
C86	C	1.192792	-0.218396	0.716112
C87	C	1.091615	-0.285265	0.716074
H88	H	0.567640	-0.346132	0.522802
N89	N	1.298011	-0.148873	0.967042
H90	H	1.285781	-0.111517	0.952694
H91	H	1.354452	-0.157049	0.952656
N92	N	0.728376	-0.148827	0.225461
H93	H	0.714049	-0.111480	0.237843
H94	H	0.713971	-0.156943	0.168983
H95	H	1.050403	-0.312491	0.682460
N96	N	1.247456	-0.946034	0.275875
H97	H	1.235223	-0.955569	0.219389
H98	H	1.303905	-0.955511	0.288274
H99	H	1.050538	-0.953296	0.472491
H100	H	0.717401	-0.346123	0.522805
N101	N	0.852151	-0.321477	0.485658
H102	H	0.813473	-0.342691	0.517623
H103	H	0.886429	-0.300223	0.522296
H104	H	0.999884	-0.801172	0.522984
H105	H	1.233804	-0.450911	0.289133
H106	H	1.050511	-0.312428	1.079876
H107	H	1.050319	-0.550009	0.472426
N108	N	0.556783	-0.148857	0.225450
H109	H	0.498225	-0.153950	0.233103
H110	H	0.571201	-0.156964	0.168984
H111	H	1.233876	-0.549962	0.289157
N112	N	0.986475	-0.694905	0.536320
H113	H	0.954448	-0.720495	0.568318
H114	H	0.949900	-0.672289	0.504111
N115	N	1.247512	-1.059533	0.275889
H116	H	1.239852	-1.098267	0.283564
H117	H	1.303951	-1.049950	0.288241
N118	N	0.986504	-0.354705	0.966931
H119	H	0.994194	-0.349620	1.025490
H120	H	0.998744	-0.392053	0.952491
H121	H	1.050260	-0.450943	0.472397
N122	N	1.297911	-0.694857	0.225337
H123	H	1.329968	-0.720438	0.193357
H124	H	1.334457	-0.672169	0.257550
N125	N	1.037213	-1.059568	0.485838
H126	H	1.005157	-1.033989	0.517823
H127	H	1.069370	-1.082186	0.522456
H128	H	1.284608	-0.157726	0.806369
N129	N	0.432951	-0.182341	0.275926
H130	H	0.374392	-0.187426	0.283582
H131	H	0.447364	-0.190443	0.219457
H132	H	0.999857	-0.345907	0.806254
H133	H	1.284596	-0.801124	0.238698
N134	N	1.247453	-0.182286	1.090843
H135	H	1.239793	-0.187351	1.149397
H136	H	1.235188	-0.144946	1.076436
H137	H	1.233980	-0.191182	0.682524
H138	H	0.841266	-0.191142	0.289241
N139	N	0.432912	-0.321506	0.485700
H140	H	0.447300	-0.313429	0.542197
H141	H	0.447261	-0.358838	0.473257
