data_functionalizedCrystal
_audit_creation_method	'MofGen! by Chris Wilmer'
_symmetry_space_group_name_H-M	'P1'
_symmetry_Int_Tables_number	1
_symmetry_cell_setting	triclinic
loop_
_symmetry_equiv_pos_as_xyz
  x,y,z
_cell_length_a	13.339070
_cell_length_b	27.731996
_cell_length_c	12.376457
_cell_angle_alpha	101.172962
_cell_angle_beta	75.589755
_cell_angle_gamma	99.125341
loop_
_atom_site_label
_atom_site_type_symbol
_atom_site_fract_x
_atom_site_fract_y
_atom_site_fract_z
O1	O	1.357935	0.235154	-0.094104
O2	O	1.857935	0.735154	0.405896
O3	O	1.063914	0.203416	-0.094089
O4	O	1.563914	0.703416	0.405911
O5	O	1.220079	0.150149	-0.094072
O6	O	1.720079	0.650149	0.405928
O7	O	1.201771	0.288421	-0.094120
O8	O	1.701771	0.788421	0.405880
O9	O	1.181052	0.163443	0.093936
O10	O	1.681052	0.663443	0.593936
O11	O	1.024887	0.216709	0.093919
O12	O	1.524887	0.716709	0.593919
O13	O	1.318908	0.248447	0.093904
O14	O	1.818908	0.748447	0.593904
Zn15	Zn	1.165701	0.234689	0.123762
Zn16	Zn	1.665701	0.734689	0.623762
Zn17	Zn	1.217121	0.217174	-0.123947
Zn18	Zn	1.717121	0.717174	0.376053
O19	O	1.162744	0.301714	0.093888
O20	O	1.662744	0.801714	0.593888
C21	C	1.006797	0.204701	-0.000083
C22	C	1.506797	0.704701	0.499917
C23	C	0.894750	0.188721	-0.000076
C24	C	1.394750	0.688721	0.499924
C25	C	1.200188	0.138737	-0.000064
C26	C	1.700188	0.638737	0.499936
C27	C	1.199052	0.084925	-0.000053
C28	C	1.699052	0.584925	0.499947
C29	C	0.527978	0.312975	-0.000137
C30	C	1.027978	0.812975	0.499863
C31	C	0.633252	0.327991	-0.000147
C32	C	1.133252	0.827991	0.499853
C33	C	0.698632	0.293175	-0.000129
C34	C	1.198632	0.793175	0.499871
C35	C	0.658727	0.243340	-0.000102
C36	C	1.158727	0.743340	0.499898
C37	C	0.553444	0.228323	-0.000101
C38	C	1.053444	0.728323	0.499899
C39	C	0.724098	0.208522	-0.000093
C40	C	1.224098	0.708522	0.499907
C41	C	0.684193	0.158688	-0.000066
C42	C	1.184193	0.658688	0.499934
C43	C	0.578920	0.143673	-0.000064
C44	C	1.078920	0.643673	0.499936
C45	C	0.513541	0.178489	-0.000082
C46	C	1.013541	0.678489	0.499918
C47	C	0.829380	0.223540	-0.000094
C48	C	1.329380	0.723540	0.499906
C49	C	0.854846	0.138887	-0.000057
C50	C	1.354846	0.638887	0.499943
C51	C	0.749572	0.123871	-0.000048
C52	C	1.249572	0.623871	0.499952
C53	C	1.213206	-0.256023	-0.102591
C54	C	1.713206	0.243977	0.397409
C55	C	1.208906	-0.458275	-0.102611
C56	C	1.708906	0.041725	0.397389
O57	O	1.226399	-0.490591	-0.189769
O58	O	1.726399	0.009409	0.310231
N59	N	1.187099	-0.476320	-0.000128
N60	N	1.687099	0.023680	0.499872
C61	C	1.166357	-0.443798	0.102366
C62	C	1.666357	0.056202	0.602366
O63	O	1.147699	-0.463788	0.189533
O64	O	1.647699	0.036212	0.689533
C65	C	1.170650	-0.241547	0.102384
C66	C	1.670650	0.258453	0.602384
C67	C	1.192470	-0.223505	-0.000104
C68	C	1.692470	0.276495	0.499896
C69	C	1.235023	-0.237980	-0.205071
C70	C	1.735023	0.262020	0.294929
C71	C	1.236103	-0.187419	-0.205066
C72	C	1.736103	0.312581	0.294934
C73	C	1.215367	-0.154902	-0.102579
C74	C	1.715367	0.345098	0.397421
C75	C	1.193550	-0.172945	-0.000098
C76	C	1.693550	0.327055	0.499902
C77	C	1.149902	-0.209027	0.204878
C78	C	1.649902	0.290973	0.704878
C79	C	1.150975	-0.158462	0.204873
C80	C	1.650975	0.341538	0.704873
C81	C	1.172794	-0.140420	0.102384
C82	C	1.672794	0.359580	0.602384
C83	C	1.173894	-0.089866	0.102394
C84	C	1.673894	0.410134	0.602394
N85	N	1.195702	-0.071822	-0.000088
N86	N	1.695702	0.428178	0.499912
C87	C	1.216438	-0.104339	-0.102575
C88	C	1.716438	0.395661	0.397425
C89	C	1.164107	-0.549983	0.102349
C90	C	1.664107	-0.049983	0.602349
C91	C	1.163036	-0.600545	0.102345
C92	C	1.663036	-0.100545	0.602345
C93	C	1.205583	-0.615019	-0.102632
C94	C	1.705583	-0.115019	0.397368
C95	C	1.206661	-0.564455	-0.102627
C96	C	1.706661	-0.064455	0.397373
C97	C	1.185915	-0.531938	-0.000133
C98	C	1.685915	-0.031938	0.499867
C99	C	1.218706	0.001842	-0.102554
C100	C	1.718706	0.501842	0.397446
C101	C	1.219789	0.052408	-0.102539
C102	C	1.719789	0.552408	0.397461
C103	C	1.177236	0.066877	0.102437
C104	C	1.677236	0.566877	0.602437
C105	C	1.176159	0.016316	0.102423
C106	C	1.676159	0.516316	0.602423
C107	C	1.196892	-0.016201	-0.000082
C108	C	1.696892	0.483799	0.499918
O109	O	1.156400	-0.057523	0.189507
O110	O	1.656400	0.442477	0.689507
O111	O	1.235071	-0.084342	-0.189729
O112	O	1.735071	0.415658	0.310271
C113	C	1.212126	-0.306583	-0.102597
C114	C	1.712126	0.193417	0.397403
C115	C	1.190309	-0.324626	-0.000116
C116	C	1.690309	0.175374	0.499884
C117	C	1.169573	-0.292108	0.102370
C118	C	1.669573	0.207892	0.602370
C119	C	1.189238	-0.375188	-0.000121
C120	C	1.689238	0.124812	0.499879
C121	C	1.209974	-0.407706	-0.102607
C122	C	1.709974	0.092294	0.397393
C123	C	1.231782	-0.389661	-0.205089
C124	C	1.731782	0.110339	0.294911
C125	C	1.232863	-0.339101	-0.205083
C126	C	1.732863	0.160899	0.294917
C127	C	1.147765	-0.310153	0.204852
C128	C	1.647765	0.189847	0.704852
C129	C	1.146688	-0.360714	0.204838
C130	C	1.646688	0.139286	0.704838
C131	C	1.167424	-0.393232	0.102352
C132	C	1.667424	0.106768	0.602352
C133	C	1.376026	0.247162	-0.000104
C134	C	1.876026	0.747162	0.499896
C135	C	1.488075	0.263141	-0.000118
C136	C	1.988075	0.763141	0.499882
C137	C	1.182635	0.313126	-0.000123
C138	C	1.682635	0.813126	0.499877
C139	C	1.183772	0.366937	-0.000142
C140	C	1.683772	0.866937	0.499858
N141	N	1.130616	0.246643	0.292816
N142	N	1.630616	0.746643	0.792816
N143	N	1.252214	0.205218	-0.293001
N144	N	1.752214	0.705218	0.206999
C145	C	1.333659	0.177459	0.647823
C146	C	1.833659	0.677459	1.147823
C147	C	1.358209	0.169092	0.529486
C148	C	1.858209	0.669092	1.029486
C149	C	1.301313	0.188479	0.470313
C150	C	1.801313	0.688479	0.970313
C151	C	1.219862	0.216235	0.529488
C152	C	1.719862	0.716235	1.029488
C153	C	1.195314	0.224606	0.647837
C154	C	1.695314	0.724606	1.147837
C155	C	1.162968	0.235626	0.470327
C156	C	1.662968	0.735626	0.970327
C157	C	1.081518	0.263382	0.529502
C158	C	1.581518	0.763382	1.029502
C159	C	1.056974	0.271751	0.647840
C160	C	1.556974	0.771751	1.147840
C161	C	1.113870	0.252365	0.707013
C162	C	1.613870	0.752365	1.207013
C163	C	1.187516	0.227254	0.351978
C164	C	1.687516	0.727254	0.851978
C165	C	1.049172	0.274401	0.351992
C166	C	1.549172	0.774401	0.851992
C167	C	1.024621	0.282768	0.470329
C168	C	1.524621	0.782768	0.970329
H169	H	0.861859	0.264116	-0.000111
H170	H	1.361859	0.764116	0.499889
Br171	Br	1.119608	-0.266030	0.343956
Br172	Br	1.619608	0.233970	0.843956
Br173	Br	1.410879	0.151158	0.728129
Br174	Br	1.910879	0.651158	1.228129
Br175	Br	1.334631	0.177123	0.309710
Br176	Br	1.834631	0.677123	0.809710
Br177	Br	1.468745	0.131427	0.449177
Br178	Br	1.968745	0.631427	0.949177
Br179	Br	0.841506	0.313554	-0.000141
Br180	Br	1.341506	0.813554	0.499859
Br181	Br	1.080542	0.263717	0.867621
Br182	Br	1.580542	0.763717	1.367621
H183	H	1.134065	-0.131990	0.288338
H184	H	1.634065	0.368010	0.788338
Br185	Br	0.946449	0.309429	0.728153
Br186	Br	1.446449	0.809429	1.228153
Br187	Br	1.263169	-0.282103	-0.344180
Br188	Br	1.763169	0.217897	0.155820
H189	H	1.253834	0.204655	0.303808
H190	H	1.753834	0.704655	0.803808
H191	H	0.427817	0.166265	-0.000074
H192	H	0.927817	0.666265	0.499926
Br193	Br	0.914082	0.320435	0.550650
Br194	Br	1.414082	0.820435	1.050650
H195	H	0.546436	0.103093	-0.000055
H196	H	1.046436	0.603093	0.499945
H197	H	0.908080	0.110536	-0.000047
H198	H	1.408080	0.610536	0.499953
H199	H	1.132136	-0.223708	0.288335
H200	H	1.632136	0.276292	0.788335
Br201	Br	1.236274	-0.539975	-0.241723
Br202	Br	1.736274	-0.039975	0.258277
H203	H	1.002843	0.290189	0.303814
H204	H	1.502843	0.790189	0.803814
Br205	Br	0.687404	0.395620	-0.000193
Br206	Br	1.187404	0.895620	0.499807
Br207	Br	0.695403	0.056241	-0.000009
Br208	Br	1.195403	0.556241	0.499991
Br209	Br	1.259933	-0.433802	-0.344177
Br210	Br	1.759933	0.066198	0.155823
H211	H	1.237560	0.067095	-0.186002
H212	H	1.737560	0.567095	0.313998
Br213	Br	1.246844	-0.042281	-0.241669
Br214	Br	1.746844	0.457719	0.258331
H215	H	0.474740	0.341317	-0.000162
H216	H	0.974740	0.841317	0.499838
Br217	Br	1.265710	-0.162942	-0.344165
Br218	Br	1.765710	0.337058	0.155835
H219	H	1.222468	-0.641504	-0.186081
H220	H	1.722468	-0.141504	0.313919
Br221	Br	1.135939	-0.505860	0.241462
Br222	Br	1.635939	-0.005860	0.741462
Br223	Br	1.133446	-0.625023	0.241442
Br224	Br	1.633446	-0.125023	0.741442
Br225	Br	1.149098	0.111017	0.241519
Br226	Br	1.649098	0.611017	0.741519
Br227	Br	1.146570	-0.008170	0.241515
Br228	Br	1.646570	0.491830	0.741515
H229	H	1.250630	-0.324416	-0.288540
H230	H	1.750630	0.175584	0.211460
H231	H	1.128926	-0.375398	0.288303
H232	H	1.628926	0.124602	0.788303
