data_functionalizedCrystal
_audit_creation_method	'MofGen! by Chris Wilmer'
_symmetry_space_group_name_H-M	'P1'
_symmetry_Int_Tables_number	1
_symmetry_cell_setting	triclinic
loop_
_symmetry_equiv_pos_as_xyz
  x,y,z
_cell_length_a	20.016444
_cell_length_b	14.560438
_cell_length_c	20.016444
_cell_angle_alpha	59.998569
_cell_angle_beta	89.999461
_cell_angle_gamma	60.002114
loop_
_atom_site_label
_atom_site_type_symbol
_atom_site_fract_x
_atom_site_fract_y
_atom_site_fract_z
Zr1	Zr	0.643583	1.005322	-0.087662
O2	O	0.536912	1.196921	-0.194336
O3	O	0.676283	0.813721	-0.054962
O4	O	0.676285	1.005329	-0.194338
O5	O	0.536909	1.005307	0.054985
O6	O	0.786225	1.005337	-0.194339
O7	O	0.536910	1.005313	-0.054959
O8	O	0.786221	0.662585	0.054980
O9	O	0.536912	1.348059	-0.194334
O10	O	0.772276	0.892535	-0.041014
O11	O	0.690228	0.892525	0.041037
O12	O	0.690231	1.118119	-0.123061
O13	O	0.608183	1.118109	-0.041011
Zr14	Zr	0.818922	1.005324	0.087687
Zr15	Zr	0.818924	1.005333	-0.087662
Zr16	Zr	0.643581	1.005312	0.087687
Zr17	Zr	0.643583	1.246369	-0.087658
Zr18	Zr	0.818922	0.764276	0.087684
O19	O	0.786222	1.196924	0.054988
O20	O	0.786225	1.196937	-0.194336
O21	O	0.536909	1.196908	0.054988
O22	O	0.925593	0.813725	0.194361
O23	O	0.925596	0.813738	-0.054962
O24	O	0.676280	0.813708	0.194362
O25	O	0.925596	1.005338	-0.054960
O26	O	0.786220	1.005316	0.194364
O27	O	0.676280	1.005309	0.194364
O28	O	0.925595	1.005333	0.054985
O29	O	0.676285	1.348068	-0.194334
O30	O	0.786219	0.662578	0.194359
O31	O	0.925592	0.662587	0.194359
O32	O	0.925594	0.662594	0.054980
O33	O	0.536911	1.348052	-0.054955
O34	O	0.676284	1.348061	-0.054955
O35	O	0.772274	0.892526	0.123087
O36	O	0.854322	0.892536	0.041036
O37	O	0.772276	1.118120	-0.041011
O38	O	0.690229	1.118111	0.041040
C39	C	0.731252	0.703809	0.000009
C40	C	0.731252	0.601478	0.000007
C41	C	0.774078	0.553407	-0.042822
C42	C	0.774081	0.457248	-0.042815
C43	C	0.688425	0.457243	0.042853
C44	C	0.688427	0.553394	0.042850
C45	C	0.511927	1.005308	0.000013
C46	C	0.437490	1.005304	0.000013
C47	C	0.309050	0.887566	0.042843
C48	C	0.239105	0.887571	0.042845
C49	C	0.153457	1.123089	-0.042819
C50	C	0.223401	1.123082	-0.042815
C51	C	0.301197	1.005317	0.000013
C52	C	0.161308	1.005329	0.000012
C53	C	0.085470	1.005336	0.000014
C54	C	0.377040	1.005309	0.000013
C55	C	0.950578	1.005337	0.000012
C56	C	1.025015	1.005342	0.000012
C57	C	0.731255	1.005334	-0.219322
C58	C	0.731256	1.005338	-0.293762
C59	C	0.731253	1.306837	0.000017
C60	C	0.731253	1.409168	0.000018
C61	C	0.791822	1.005326	-0.465018
C62	C	0.791823	1.005317	-0.534958
C63	C	0.670679	1.005316	-0.534950
C64	C	0.670683	1.005315	-0.465008
C65	C	0.731254	1.005327	-0.430046
C66	C	0.731251	1.005319	-0.569928
C67	C	0.731251	1.005309	-0.645760
C68	C	0.731255	1.005334	-0.354208
C69	C	0.731250	1.005311	0.219348
C70	C	0.731249	1.005307	0.293788
C71	C	0.950577	0.703823	0.000008
C72	C	1.025014	0.601497	0.000007
C73	C	0.731249	0.703797	0.219343
C74	C	0.731248	0.601462	0.293782
C75	C	0.950574	0.703812	0.219343
C76	C	1.025010	0.601482	0.293782
C77	C	0.511930	1.306834	-0.219318
C78	C	0.437494	1.409164	-0.293756
C79	C	0.511927	1.306822	0.000017
C80	C	0.437491	1.409148	0.000019
C81	C	0.731256	1.306848	-0.219318
C82	C	0.731257	1.409183	-0.293757
C83	C	1.017143	0.553443	-0.042831
C84	C	1.087078	0.457310	-0.042848
C85	C	1.164883	0.409227	-0.000023
C86	C	1.172752	0.457290	0.042815
C87	C	1.102818	0.553428	0.042828
C88	C	0.774075	0.553405	0.371576
C89	C	0.774070	0.457264	0.441526
C90	C	0.731244	0.409175	0.433680
C91	C	0.688412	0.457242	0.355878
C92	C	0.688412	0.553388	0.285930
C93	C	1.102802	0.553432	0.285910
C94	C	1.172749	0.457295	0.355846
C95	C	1.164903	0.409204	0.433654
C96	C	1.087103	0.457263	0.441525
C97	C	1.017158	0.553405	0.371589
C98	C	0.359703	1.457226	-0.285884
C99	C	0.289756	1.553392	-0.355820
C100	C	0.297602	1.601488	-0.433628
C101	C	0.375401	1.553423	-0.441499
C102	C	0.445347	1.457264	-0.371563
C103	C	0.445361	1.457212	0.042849
C104	C	0.375427	1.553372	0.042847
C105	C	0.297622	1.601459	0.000020
C106	C	0.289753	1.553391	-0.042816
C107	C	0.359687	1.457240	-0.042818
C108	C	0.774091	1.457242	-0.285885
C109	C	0.774108	1.553383	-0.355821
C110	C	0.731285	1.601472	-0.433629
C111	C	0.688449	1.553404	-0.441499
C112	C	0.688438	1.457257	-0.371564
H113	H	0.653552	0.592532	0.077731
Br114	Br	0.832205	0.392050	0.547104
Br115	Br	0.911586	0.618599	0.382288
Br116	Br	0.832205	0.392013	-0.100944
Br117	Br	0.731252	0.278690	0.528620
H118	H	0.808989	1.592510	-0.349397
Br119	Br	1.259786	0.278752	-0.000049
Br120	Br	0.202666	1.731991	-0.528534
H121	H	0.653558	0.418082	0.077733
H122	H	0.841144	1.005333	-0.436552
Br123	Br	0.630291	1.392057	-0.382262
H124	H	0.353267	1.418109	-0.077693
Br125	Br	0.832215	1.392001	-0.180297
H126	H	0.653540	0.592503	0.222589
Br127	Br	0.414628	0.727743	0.100969
H128	H	0.217001	1.218975	-0.077690
H129	H	1.236110	0.418126	0.077682
Br130	Br	0.249767	0.727760	0.100980
Br131	Br	0.047875	1.282905	-0.100941
Br132	Br	0.630295	0.391964	0.345244
H133	H	0.841144	1.005314	-0.563429
Br134	Br	0.184181	1.618602	-0.345119
H135	H	0.621363	1.005309	-0.563424
H136	H	0.731301	1.679761	-0.490568
H137	H	0.653584	1.592572	-0.504860
H138	H	1.109206	0.592573	0.222561
Br139	Br	0.386036	1.618707	-0.547102
H140	H	0.621360	1.005312	-0.436531
H141	H	1.236090	0.418175	0.349423
H142	H	1.080727	0.418093	0.504885
Br143	Br	0.550918	1.392043	-0.382262
Br144	Br	0.832199	0.618658	-0.100963
Br145	Br	0.550945	1.391977	0.100976
Br146	Br	0.386125	1.618583	0.100987
H147	H	0.953797	0.592592	-0.077714
Br148	Br	0.349032	1.391970	-0.180296
Br149	Br	1.076379	0.392099	-0.100989
Br150	Br	0.202719	1.731952	0.000032
H151	H	1.109238	0.592541	0.077716
H152	H	1.221864	0.330919	0.490593
Br153	Br	0.832208	0.618641	0.382247
H154	H	0.226395	1.592558	-0.077684
