data_functionalizedCrystal
_audit_creation_method	'MofGen! by Chris Wilmer'
_symmetry_space_group_name_H-M	'P1'
_symmetry_Int_Tables_number	1
_symmetry_cell_setting	triclinic
loop_
_symmetry_equiv_pos_as_xyz
  x,y,z
_cell_length_a	12.594516
_cell_length_b	21.395362
_cell_length_c	21.395356
_cell_angle_alpha	90.047076
_cell_angle_beta	89.979423
_cell_angle_gamma	89.965683
loop_
_atom_site_label
_atom_site_type_symbol
_atom_site_fract_x
_atom_site_fract_y
_atom_site_fract_z
Zn1	Zn	-0.423250	-0.957917	-0.354685
Zn2	Zn	0.076750	-0.457917	0.145315
Zn3	Zn	-0.601243	-0.957848	-0.249921
Zn4	Zn	-0.101243	-0.457848	0.250079
Zn5	Zn	-0.423336	-0.853134	-0.249879
Zn6	Zn	0.076664	-0.353134	0.250121
Zn7	Zn	-0.601244	-0.853128	-0.354618
Zn8	Zn	-0.101244	-0.353128	0.145382
O9	O	-0.512268	-0.905507	-0.302276
O10	O	-0.012268	-0.405507	0.197724
O11	O	-0.446825	-1.045586	-0.340833
O12	O	0.053175	-0.545586	0.159167
O13	O	-0.577679	-0.943931	-0.162237
O14	O	-0.077679	-0.443931	0.337763
O15	O	-0.274378	-0.867065	-0.263792
O16	O	0.225622	-0.367065	0.236208
O17	O	-0.577596	-1.045536	-0.263863
O18	O	-0.077596	-0.545536	0.236137
O19	O	-0.274316	-0.944049	-0.340793
O20	O	0.225684	-0.444049	0.159207
O21	O	-0.446971	-0.866998	-0.162206
O22	O	0.053029	-0.366998	0.337794
O23	O	-0.446972	-0.765455	-0.263727
O24	O	0.053028	-0.265455	0.236273
O25	O	-0.577597	-0.867055	-0.442305
O26	O	-0.077597	-0.367055	0.057695
O27	O	-0.577680	-0.765451	-0.340678
O28	O	-0.077680	-0.265451	0.159322
O29	O	-0.446826	-0.944043	-0.442354
O30	O	0.053174	-0.444043	0.057646
O31	O	-0.750189	-0.943926	-0.263798
O32	O	-0.250189	-0.443926	0.236202
O33	O	-0.750189	-0.866988	-0.340719
O34	O	-0.250189	-0.366988	0.159281
C35	C	-0.512336	-0.742719	-0.302191
C36	C	-0.012336	-0.242719	0.197809
C37	C	-0.512391	-0.673078	-0.302170
C38	C	-0.012391	-0.173078	0.197830
C39	C	-0.788809	-0.905466	-0.302269
C40	C	-0.288809	-0.405466	0.197731
C41	C	-0.907114	-0.905506	-0.302288
C42	C	-0.407114	-0.405506	0.197712
C43	C	-0.580543	-0.640379	-0.342176
C44	C	-0.080543	-0.140379	0.157824
C45	C	-0.580521	-0.574944	-0.342200
C46	C	-0.080521	-0.074944	0.157800
C47	C	-0.512359	-0.542210	-0.302205
C48	C	-0.012359	-0.042210	0.197795
C49	C	-0.444193	-0.574917	-0.262196
C50	C	0.055807	-0.074917	0.237804
C51	C	-0.444209	-0.640351	-0.262179
C52	C	0.055791	-0.140351	0.237821
C53	C	-0.503807	-0.438485	-0.245792
C54	C	-0.003807	0.061515	0.254208
C55	C	-0.503798	-0.373052	-0.245809
C56	C	-0.003798	0.126948	0.254191
C57	C	-0.512304	-0.340389	-0.302260
C58	C	-0.012304	0.159611	0.197740
C59	C	-0.520839	-0.373167	-0.358697
C60	C	-0.020839	0.126833	0.141303
C61	C	-0.520855	-0.438602	-0.358679
C62	C	-0.020855	0.061398	0.141321
C63	C	-0.512333	-0.471257	-0.302220
C64	C	-0.012333	0.028743	0.197780
C65	C	-0.580436	-0.236738	-0.342295
C66	C	-0.080436	0.263262	0.157705
C67	C	-0.580407	-0.171301	-0.342319
C68	C	-0.080407	0.328699	0.157681
C69	C	-0.444085	-0.171275	-0.262310
C70	C	0.055915	0.328725	0.237690
C71	C	-0.444108	-0.236711	-0.262292
C72	C	0.055892	0.263289	0.237708
C73	C	-0.512290	-0.269438	-0.302283
C74	C	-0.012290	0.230562	0.197717
C75	C	-0.976407	-0.863655	-0.344096
C76	C	-0.476407	-0.363655	0.155904
C77	C	-1.047271	-0.848387	-0.286917
C78	C	-0.547271	-0.348387	0.213083
C79	C	-1.047049	-0.920831	-0.359476
C80	C	-0.547049	-0.420831	0.140524
C81	C	-0.976420	-0.890207	-0.245079
C82	C	-0.476420	-0.390207	0.254921
C83	C	-0.976193	-0.962678	-0.317677
C84	C	-0.476193	-0.462678	0.182323
C85	C	-1.047025	-0.947431	-0.260459
C86	C	-0.547025	-0.447431	0.239541
C87	C	-0.234647	-0.905565	-0.302296
C88	C	0.265353	-0.405565	0.197704
C89	C	-0.116342	-0.905590	-0.302304
C90	C	0.383658	-0.405590	0.197696
C91	C	-0.512202	-0.905556	-0.465699
C92	C	-0.012202	-0.405556	0.034301
C93	C	-0.512174	-0.905577	-0.535340
C94	C	-0.012174	-0.405577	-0.035340
C95	C	-0.512219	-0.068930	-0.302343
C96	C	-0.012219	0.431070	0.197657
C97	C	-0.512243	-0.138572	-0.302325
C98	C	-0.012243	0.361428	0.197675
C99	C	-0.444107	-0.865529	-0.568028
C100	C	0.055893	-0.365529	-0.068028
C101	C	-0.444087	-0.865527	-0.633463
C102	C	0.055913	-0.365527	-0.133463
C103	C	-0.512123	-0.905584	-0.666209
C104	C	-0.012123	-0.405584	-0.166209
C105	C	-0.580204	-0.945635	-0.633513
C106	C	-0.080204	-0.445635	-0.133513
C107	C	-0.580229	-0.945632	-0.568079
C108	C	-0.080229	-0.445632	-0.068079
C109	C	-0.520461	-0.962038	-0.769919
C110	C	-0.020461	-0.462038	-0.269919
C111	C	-0.520428	-0.962042	-0.835352
C112	C	-0.020428	-0.462042	-0.335352
C113	C	-0.512051	-0.905595	-0.868030
C114	C	-0.012051	-0.405595	-0.368030
C115	C	-0.503685	-0.849141	-0.835266
C116	C	-0.003685	-0.349141	-0.335266
C117	C	-0.503711	-0.849137	-0.769832
C118	C	-0.003711	-0.349137	-0.269832
C119	C	-0.512104	-0.905592	-0.737161
C120	C	-0.012104	-0.405592	-0.237161
C121	C	-0.443959	-0.865540	-0.971669
C122	C	0.056041	-0.365540	-0.471669
C123	C	-0.443947	-0.865537	-1.037106
C124	C	0.056053	-0.365537	-0.537106
C125	C	-0.580058	-0.945652	-1.037155
C126	C	-0.080058	-0.445652	-0.537155
C127	C	-0.580076	-0.945649	-0.971720
C128	C	-0.080076	-0.445649	-0.471720
C129	C	-0.512021	-0.905594	-0.938981
C130	C	-0.012021	-0.405594	-0.438981
C131	C	-0.512257	-0.905494	-0.139488
C132	C	-0.012257	-0.405494	0.360512
C133	C	-0.511985	-0.905594	-0.069847
C134	C	-0.011985	-0.405594	0.430153
H135	H	-0.636060	-0.667022	-0.374741
H136	H	-0.136060	-0.167022	0.125259
N137	N	-0.374487	-0.270106	-0.221420
N138	N	0.125513	0.229894	0.278580
N139	N	-0.313628	-0.240874	-0.185715
N140	N	0.186372	0.259126	0.314285
H141	H	-0.264453	-0.264459	-0.156848
H142	H	0.235547	0.235541	0.343152
H143	H	-0.496855	-0.346369	-0.199854
H144	H	0.003145	0.153631	0.300146
H145	H	-0.527273	-1.008008	-0.743318
H146	H	-0.027273	-0.508008	-0.243318
H147	H	-1.077838	-0.982859	-0.225069
H148	H	-0.577838	-0.482859	0.274931
N149	N	-0.649771	-0.986545	-0.534696
N150	N	-0.149771	-0.486545	-0.034696
N151	N	-0.710522	-1.022304	-0.563937
N152	N	-0.210522	-0.522304	-0.063937
H153	H	-0.759638	-1.051200	-0.540360
H154	H	-0.259638	-0.551200	-0.040360
N155	N	-0.529505	-0.472094	-0.416320
N156	N	-0.029505	0.027906	0.083680
N157	N	-0.529481	-0.530516	-0.416295
N158	N	-0.029481	-0.030516	0.083705
H159	H	-0.535568	-0.554172	-0.457005
H160	H	-0.035568	-0.054172	0.042995
H161	H	-0.527763	-0.346575	-0.404665
H162	H	-0.027763	0.153425	0.095335
H163	H	-0.636019	-0.548315	-0.374780
H164	H	-0.136019	-0.048315	0.125220
N165	N	-0.495099	-0.471836	-0.188119
N166	N	0.004901	0.028164	0.311881
N167	N	-0.487482	-0.442565	-0.137736
N168	N	0.012518	0.057435	0.362264
H169	H	-0.481326	-0.466118	-0.097006
H170	H	0.018674	0.033882	0.402994
N171	N	-1.086424	-0.787777	-0.270596
N172	N	-0.586424	-0.287777	0.229404
N173	N	-1.063831	-0.741595	-0.303772
N174	N	-0.563831	-0.241595	0.196228
H175	H	-1.091479	-0.698787	-0.292249
H176	H	-0.591479	-0.198787	0.207751
H177	H	-0.635948	-0.263386	-0.374861
H178	H	-0.135948	0.236614	0.125139
N179	N	-1.085991	-0.937046	-0.420135
N180	N	-0.585991	-0.437046	0.079865
N181	N	-1.144099	-0.899760	-0.449323
N182	N	-0.644099	-0.399760	0.050677
H183	H	-1.171601	-0.911206	-0.492165
H184	H	-0.671601	-0.411206	0.007835
N185	N	-0.650024	-0.137907	-0.383197
N186	N	-0.150024	0.362093	0.116803
N187	N	-0.710888	-0.167139	-0.418899
N188	N	-0.210888	0.332861	0.081101
H189	H	-0.760056	-0.143555	-0.447770
H190	H	-0.260056	0.356445	0.052230
H191	H	-0.388693	-0.548260	-0.229634
H192	H	0.111307	-0.048260	0.270366
H193	H	-0.388580	-0.144624	-0.229749
H194	H	0.111420	0.355376	0.270251
H195	H	-0.945524	-0.877223	-0.196709
H196	H	-0.445524	-0.377223	0.303291
H197	H	-0.388653	-0.832916	-0.660082
H198	H	0.111347	-0.332916	-0.160082
H199	H	-0.945397	-0.828201	-0.379399
H200	H	-0.445397	-0.328201	0.120601
H201	H	-0.635501	-0.978262	-0.945106
H202	H	-0.135501	-0.478262	-0.445106
N203	N	-0.937009	-1.023270	-0.334027
N204	N	-0.437009	-0.523270	0.165973
N205	N	-0.959556	-1.046583	-0.385938
N206	N	-0.459556	-0.546583	0.114062
H207	H	-0.931882	-1.089377	-0.397492
H208	H	-0.431882	-0.589377	0.102508
N209	N	-0.495165	-0.791471	-0.736375
N210	N	0.004835	-0.291471	-0.236375
N211	N	-0.487681	-0.741073	-0.765552
N212	N	0.012319	-0.241073	-0.265552
H213	H	-0.481648	-0.700345	-0.741923
H214	H	0.018352	-0.200345	-0.241923
N215	N	-0.374592	-0.824608	-0.534596
N216	N	0.125408	-0.324608	-0.034596
N217	N	-0.313826	-0.788850	-0.563795
N218	N	0.186174	-0.288850	-0.063795
H219	H	-0.264733	-0.759947	-0.540183
H220	H	0.235267	-0.259947	-0.040183
N221	N	-0.495117	-0.791482	-0.868646
N222	N	0.004883	-0.291482	-0.368646
N223	N	-0.495098	-0.791490	-0.927069
N224	N	0.004902	-0.291490	-0.427069
H225	H	-0.489043	-0.750771	-0.950647
H226	H	0.010957	-0.250771	-0.450647
H227	H	-0.388546	-0.832925	-0.945012
H228	H	0.111454	-0.332925	-0.445012
H229	H	-0.388708	-0.666974	-0.229601
H230	H	0.111292	-0.166974	0.270399
H231	H	-0.388522	-0.832920	-1.063719
H232	H	0.111478	-0.332920	-0.563719
H233	H	-0.635452	-0.978268	-1.063816
H234	H	-0.135452	-0.478268	-0.563816
H235	H	-0.527235	-1.008010	-0.862023
H236	H	-0.027235	-0.508010	-0.362023
H237	H	-0.635600	-0.978250	-0.660179
H238	H	-0.135600	-0.478250	-0.160179
