data_functionalizedCrystal
_audit_creation_method	'MofGen! by Chris Wilmer'
_symmetry_space_group_name_H-M	'P1'
_symmetry_Int_Tables_number	1
_symmetry_cell_setting	triclinic
loop_
_symmetry_equiv_pos_as_xyz
  x,y,z
_cell_length_a	15.944551
_cell_length_b	10.654545
_cell_length_c	9.730223
_cell_angle_alpha	90.002833
_cell_angle_beta	89.994648
_cell_angle_gamma	96.009092
loop_
_atom_site_label
_atom_site_type_symbol
_atom_site_fract_x
_atom_site_fract_y
_atom_site_fract_z
O1	O	0.117958	-1.666316	-0.114279
O2	O	0.129202	-1.300691	-0.114286
O3	O	0.001363	-1.493488	-0.114270
O4	O	0.245797	-1.473519	-0.114295
O5	O	0.001360	-1.493476	0.114310
O6	O	0.129199	-1.300679	0.114294
O7	O	0.117955	-1.666304	0.114300
Zn8	Zn	0.123576	-1.483489	0.150589
Zn9	Zn	0.123581	-1.483506	-0.150575
O10	O	0.245794	-1.473507	0.114285
C11	C	-0.029937	-1.492653	0.000020
C12	C	-0.123198	-1.490168	0.000021
C13	C	0.128376	-1.253898	0.000004
C14	C	0.125908	-1.114486	0.000002
C15	C	0.118781	-1.713097	0.000008
C16	C	0.121249	-1.852509	0.000001
C17	C	-0.338779	-1.364723	-0.000000
C18	C	-0.399462	-1.422969	0.112705
C19	C	-0.293950	-1.485672	0.000010
C20	C	-0.399441	-1.423010	-0.112657
C21	C	-0.458887	-1.481320	-0.000006
C22	C	-0.353404	-1.543951	0.112808
C23	C	-0.353377	-1.543975	-0.112655
C24	C	-0.414042	-1.602309	0.000077
C25	C	-0.198933	-1.488175	0.000021
C26	C	-0.553903	-1.478825	-0.000007
C27	C	0.277094	-1.474342	-0.000008
C28	C	0.370355	-1.476827	-0.000018
N29	N	0.123573	-1.483488	0.356126
C30	C	0.124745	-1.048990	0.124602
C31	C	0.122412	-0.918001	0.124602
C32	C	0.122410	-0.918015	-0.124608
C33	C	0.124737	-1.049003	-0.124607
N34	N	0.123578	-1.483518	-0.356111
C35	C	0.066989	-1.568887	0.428059
C36	C	0.066990	-1.568899	0.571942
C37	C	0.180164	-1.398109	0.571946
C38	C	0.180159	-1.398092	0.428066
H39	H	-0.306052	-1.264330	0.000111
O40	O	-0.329024	-1.604776	-0.226466
C41	C	-0.352247	-1.540703	-0.345065
H42	H	-0.359604	-1.438317	-0.318065
H43	H	-0.414612	-1.588204	-0.386184
C44	C	-0.274395	-1.670607	-0.488707
C45	C	-0.283425	-1.544851	-0.455547
H46	H	-0.231945	-1.673170	-0.556860
H47	H	-0.258752	-1.713778	-0.408806
H48	H	-0.326371	-1.710178	-0.522965
H49	H	-0.231453	-1.505288	-0.421274
H50	H	-0.299058	-1.501674	-0.535445
O51	O	-0.423960	-1.362023	0.226329
C52	C	-0.512349	-1.361512	0.225345
H53	H	-0.541784	-1.442660	0.159000
H54	H	-0.529240	-1.268183	0.181470
C55	C	-0.510171	-1.277741	0.454645
C56	C	-0.546324	-1.377415	0.373169
H57	H	-0.531129	-1.287544	0.545830
H58	H	-0.450621	-1.278080	0.455307
H59	H	-0.524249	-1.199976	0.418067
H60	H	-0.532236	-1.455175	0.409738
H61	H	-0.605872	-1.377089	0.372517
O62	O	0.121325	-0.854564	0.245761
C63	C	0.122835	-0.940460	0.355736
H64	H	0.151041	-1.028632	0.319200
H65	H	0.055816	-0.967571	0.394062
C66	C	0.142272	-0.770265	0.518323
C67	C	0.176922	-0.878555	0.473451
H68	H	0.175632	-0.732079	0.590939
H69	H	0.141252	-0.712395	0.444232
H70	H	0.086424	-0.792874	0.550252
H71	H	0.232765	-0.855944	0.441508
H72	H	0.177953	-0.936421	0.547540
H73	H	0.226236	-1.328543	0.369494
H74	H	0.121457	-0.864682	-0.226061
H75	H	-0.446620	-1.702790	0.000142
O76	O	0.125764	-1.112764	0.245554
C77	C	0.054480	-1.202736	0.253032
H78	H	0.030622	-1.227109	0.144849
H79	H	0.002732	-1.162210	0.314523
C80	C	0.108049	-1.292900	0.457145
C81	C	0.078750	-1.322843	0.324272
H82	H	0.123018	-1.366987	0.501094
H83	H	0.156073	-1.232282	0.452111
H84	H	0.064920	-1.259127	0.508370
H85	H	0.121882	-1.356600	0.273044
H86	H	0.030734	-1.383470	0.329299
O87	O	0.011938	-1.651876	0.358388
C88	C	-0.037989	-1.727273	0.452739
H89	H	-0.039253	-1.675798	0.555312
H90	H	-0.010136	-1.820561	0.468015
C91	C	-0.126895	-1.816370	0.270625
C92	C	-0.128452	-1.753143	0.396604
H93	H	-0.182695	-1.832334	0.235998
H94	H	-0.093256	-1.765578	0.207058
H95	H	-0.103680	-1.894103	0.283373
H96	H	-0.151657	-1.675406	0.383852
H97	H	-0.162097	-1.803923	0.460168
H98	H	0.125682	-1.102332	-0.226078
H99	H	0.020914	-1.638437	0.630505
O100	O	0.235103	-1.315290	0.642045
C101	C	0.222963	-1.333597	0.784463
H102	H	0.192190	-1.433437	0.804101
H103	H	0.180395	-1.262525	0.825323
C104	C	0.346573	-1.192107	0.834190
C105	C	0.308783	-1.314737	0.858311
H106	H	0.399509	-1.180468	0.879746
H107	H	0.354750	-1.179769	0.738241
H108	H	0.311090	-1.132895	0.868241
H109	H	0.344260	-1.373946	0.824245
H110	H	0.300613	-1.327085	0.954257
H111	H	-0.333119	-1.595059	0.208196
H112	H	-0.419812	-1.371843	-0.207947
