data_functionalizedCrystal
_audit_creation_method	'MofGen! by Chris Wilmer'
_symmetry_space_group_name_H-M	'P1'
_symmetry_Int_Tables_number	1
_symmetry_cell_setting	triclinic
loop_
_symmetry_equiv_pos_as_xyz
  x,y,z
_cell_length_a	23.532355
_cell_length_b	23.532407
_cell_length_c	9.130313
_cell_angle_alpha	89.994125
_cell_angle_beta	90.005604
_cell_angle_gamma	82.838088
loop_
_atom_site_label
_atom_site_type_symbol
_atom_site_fract_x
_atom_site_fract_y
_atom_site_fract_z
O1	O	0.755275	0.068992	-0.121615
O2	O	1.255275	0.568992	0.378385
O3	O	0.589408	0.079026	-0.121664
O4	O	1.089408	0.579026	0.378336
O5	O	0.677343	-0.008924	-0.121611
O6	O	1.177343	0.491076	0.378389
O7	O	0.667340	0.156941	-0.121668
O8	O	1.167340	0.656941	0.378332
O9	O	0.677342	-0.008922	0.121988
O10	O	1.177342	0.491078	0.621988
O11	O	0.589407	0.079028	0.121935
O12	O	1.089407	0.579028	0.621935
O13	O	0.755274	0.068994	0.121984
O14	O	1.255274	0.568994	0.621984
Cu15	Cu	0.672340	0.074011	0.144202
Cu16	Cu	1.172340	0.574011	0.644202
Cu17	Cu	0.672342	0.074008	-0.143882
Cu18	Cu	1.172342	0.574008	0.356118
O19	O	0.667339	0.156944	0.121931
O20	O	1.167339	0.656944	0.621931
C21	C	0.568191	0.078776	0.000130
C22	C	1.068191	0.578776	0.500130
C23	C	0.504972	0.078022	0.000113
C24	C	1.004972	0.578022	0.500113
C25	C	0.677088	-0.030139	0.000192
C26	C	1.177088	0.469861	0.500192
C27	C	0.676322	-0.093356	0.000203
C28	C	1.176322	0.406644	0.500203
C29	C	0.112958	0.073285	0.132961
C30	C	0.612958	0.573285	0.632961
C31	C	0.053558	0.072568	0.132967
C32	C	0.553558	0.572568	0.632967
O33	O	0.022839	0.072178	0.245895
O34	O	0.522839	0.572178	0.745895
N35	N	0.023850	0.072211	0.000182
N36	N	0.523850	0.572211	0.500182
C37	C	0.053546	0.072565	-0.132618
C38	C	0.553546	0.572565	0.367382
O39	O	0.022823	0.072195	-0.245561
O40	O	0.522823	0.572195	0.254439
C41	C	0.112945	0.073279	-0.132622
C42	C	0.612945	0.573279	0.367378
C43	C	0.142649	0.073641	0.000172
C44	C	0.642649	0.573641	0.500172
C45	C	0.142662	0.073647	0.265744
C46	C	0.642662	0.573647	0.765744
C47	C	0.202057	0.074366	0.265738
C48	C	0.702057	0.574366	0.765738
C49	C	0.231748	0.074722	0.132948
C50	C	0.731748	0.574722	0.632948
C51	C	0.202044	0.074360	0.000165
C52	C	0.702044	0.574360	0.500165
C53	C	0.142640	0.073629	-0.265420
C54	C	0.642640	0.573629	0.234580
C55	C	0.202043	0.074342	-0.265413
C56	C	0.702043	0.574342	0.234587
C57	C	0.231747	0.074705	-0.132619
C58	C	0.731747	0.574705	0.367381
C59	C	0.291130	0.075435	-0.132631
C60	C	0.791130	0.575435	0.367369
N61	N	0.320838	0.075792	0.000155
N62	N	0.820838	0.575792	0.500155
C63	C	0.291147	0.075435	0.132944
C64	C	0.791147	0.575435	0.632944
C65	C	-0.071196	0.071066	-0.132598
C66	C	0.428804	0.571066	0.367402
C67	C	-0.130594	0.070357	-0.132596
C68	C	0.369406	0.570357	0.367404
C69	C	-0.130577	0.070358	0.132990
C70	C	0.369423	0.570358	0.632990
C71	C	-0.071178	0.071072	0.132986
C72	C	0.428822	0.571072	0.632986
C73	C	-0.041488	0.071423	0.000187
C74	C	0.458512	0.571423	0.500187
C75	C	0.415881	0.076945	0.132920
C76	C	0.915881	0.576945	0.632920
C77	C	0.475281	0.077666	0.132902
C78	C	0.975281	0.577666	0.632902
C79	C	0.475260	0.077661	-0.132682
C80	C	0.975260	0.577661	0.367318
C81	C	0.415864	0.076943	-0.132665
C82	C	0.915864	0.576943	0.367335
C83	C	0.386177	0.076583	0.000148
C84	C	0.886177	0.576583	0.500148
O85	O	0.321887	0.075822	-0.245501
O86	O	0.821887	0.575822	0.254499
O87	O	0.321878	0.075798	0.245869
O88	O	0.821878	0.575798	0.745869
C89	C	0.723557	-0.492468	0.000137
C90	C	1.223557	0.007532	0.500137
C91	C	0.722845	-0.551868	0.000125
C92	C	1.222845	-0.051868	0.500125
O93	O	0.766632	-0.588620	0.000084
O94	O	1.266632	-0.088620	0.500084
N95	N	0.670568	-0.574484	0.000111
N96	N	1.170568	-0.074484	0.500111
C97	C	0.618998	-0.537697	0.000093
C98	C	1.118998	-0.037697	0.500093
O99	O	0.574467	-0.562388	0.000079
O100	O	1.074467	-0.062388	0.500079
C101	C	0.619710	-0.478298	0.000094
C102	C	1.119710	0.021702	0.500094
C103	C	0.671991	-0.455685	0.000123
C104	C	1.171991	0.044315	0.500123
C105	C	0.775834	-0.469854	0.000164
C106	C	1.275834	0.030146	0.500164
C107	C	0.776545	-0.410458	0.000178
C108	C	1.276545	0.089542	0.500178
C109	C	0.724979	-0.373676	0.000165
C110	C	1.224979	0.126324	0.500165
C111	C	0.672703	-0.396289	0.000137
C112	C	1.172703	0.103711	0.500137
C113	C	0.568141	-0.441512	0.000066
C114	C	1.068141	0.058488	0.500066
C115	C	0.568858	-0.382110	0.000066
C116	C	1.068858	0.117890	0.500066
C117	C	0.621139	-0.359497	0.000095
C118	C	1.121139	0.140503	0.500095
C119	C	0.621848	-0.300110	0.000138
C120	C	1.121848	0.199890	0.500138
N121	N	0.674126	-0.277494	0.000152
N122	N	1.174126	0.222506	0.500152
C123	C	0.725691	-0.314277	0.000166
C124	C	1.225691	0.185723	0.500166
C125	C	0.617507	-0.662439	0.000089
C126	C	1.117507	-0.162439	0.500089
C127	C	0.616794	-0.721837	0.000099
C128	C	1.116794	-0.221837	0.500099
C129	C	0.720642	-0.736004	0.000128
C130	C	1.220642	-0.236004	0.500128
C131	C	0.721354	-0.676605	0.000129
C132	C	1.221354	-0.176605	0.500129
C133	C	0.669784	-0.639823	0.000103
C134	C	1.169784	-0.139823	0.500103
C135	C	0.727181	-0.189540	0.000197
C136	C	1.227181	0.310460	0.500197
C137	C	0.727888	-0.130138	0.000217
C138	C	1.227888	0.369862	0.500217
C139	C	0.624041	-0.115977	0.000180
C140	C	1.124041	0.384023	0.500180
C141	C	0.623334	-0.175373	0.000167
C142	C	1.123334	0.324627	0.500167
C143	C	0.674909	-0.212154	0.000171
C144	C	1.174909	0.287846	0.500171
O145	O	0.578084	-0.263323	0.000173
O146	O	1.078084	0.236677	0.500173
O147	O	0.770216	-0.289577	0.000161
O148	O	1.270216	0.210423	0.500161
C149	C	0.776492	0.069244	0.000187
C150	C	1.276492	0.569244	0.500187
C151	C	0.839710	0.069998	0.000195
C152	C	1.339710	0.569998	0.500195
C153	C	0.667594	0.178158	0.000125
C154	C	1.167594	0.678158	0.500125
C155	C	0.668360	0.241375	0.000104
C156	C	1.168360	0.741375	0.500104
N157	N	0.672344	0.074013	0.346825
N158	N	1.172344	0.574013	0.846825
N159	N	0.672343	0.074002	-0.346504
N160	N	1.172343	0.574002	0.153496
C161	C	0.711291	0.035082	0.423500
C162	C	1.211291	0.535082	0.923500
C163	C	0.711290	0.035075	0.576837
C164	C	1.211290	0.535075	1.076837
C165	C	0.633391	0.112935	0.576810
C166	C	1.133391	0.612935	1.076810
C167	C	0.633391	0.112939	0.423476
C168	C	1.133391	0.612939	0.923476
C169	C	0.750245	-0.003844	0.346849
C170	C	1.250245	0.496156	0.846849
C171	C	0.789196	-0.042778	0.423525
C172	C	1.289196	0.457222	0.923525
C173	C	0.789194	-0.042785	0.576861
C174	C	1.289194	0.457215	1.076861
C175	C	0.750242	-0.003858	0.653523
C176	C	1.250242	0.496142	1.153523
H177	H	0.499463	0.077963	0.241043
H178	H	0.999463	0.577963	0.741043
H179	H	0.820906	-0.074490	0.639289
H180	H	1.320906	0.425510	1.139289
H181	H	0.226237	0.074658	0.373872
H182	H	0.726237	0.574658	0.873872
H183	H	0.391677	0.076657	-0.240797
H184	H	0.891677	0.576657	0.259203
O185	O	0.591386	0.154925	0.659484
O186	O	1.091386	0.654925	1.159484
H187	H	0.597934	0.148387	0.778988
H188	H	1.097934	0.648387	1.278988
O189	O	-0.162629	0.069956	-0.275821
O190	O	0.337371	0.569956	0.224179
H191	H	-0.131997	0.070315	-0.368151
H192	H	0.368003	0.570315	0.131849
H193	H	0.118465	0.073333	-0.373555
H194	H	0.618465	0.573333	0.126445
O195	O	-0.039174	0.071457	-0.275839
O196	O	0.460826	0.571457	0.224161
H197	H	-0.069816	0.071094	-0.368161
H198	H	0.430184	0.571094	0.131839
H199	H	0.763925	-0.658198	0.000151
H200	H	1.263925	-0.158198	0.500151
O201	O	0.831192	-0.084773	0.340837
O202	O	1.331192	0.415227	0.840837
H203	H	0.858740	-0.060949	0.270980
H204	H	1.358740	0.439051	0.770980
H205	H	0.750250	-0.003841	0.221995
H206	H	1.250250	0.496159	0.721995
H207	H	0.601675	0.144640	0.361046
H208	H	1.101675	0.644640	0.861046
O209	O	0.507290	0.078033	-0.275904
O210	O	1.007290	0.578033	0.224096
H211	H	0.553584	0.078582	-0.253585
H212	H	1.053584	0.578582	0.246415
O213	O	0.750238	-0.003862	0.818909
O214	O	1.250238	0.496138	1.318909
H215	H	0.783867	-0.037472	0.859352
H216	H	1.283867	0.462528	1.359352
H217	H	0.118494	0.073356	0.373883
H218	H	0.618494	0.573356	0.873883
O219	O	0.566943	-0.199761	0.000153
O220	O	1.066943	0.300239	0.500153
H221	H	0.564131	-0.226489	0.099436
H222	H	1.064131	0.273511	0.599436
H223	H	0.762629	-0.765963	0.000133
H224	H	1.262629	-0.265963	0.500133
O225	O	0.383863	0.076564	0.276164
O226	O	0.883863	0.576564	0.776164
H227	H	0.414504	0.076943	0.368483
H228	H	0.914504	0.576943	0.868483
O229	O	0.560406	-0.746225	0.000086
O230	O	1.060406	-0.246225	0.500086
H231	H	0.524672	-0.710663	0.000071
H232	H	1.024672	-0.210663	0.500071
O233	O	-0.039147	0.071465	0.276218
O234	O	0.460853	0.571465	0.776218
H235	H	-0.006783	0.032970	0.282600
H236	H	0.493217	0.532970	0.782600
H237	H	-0.154762	0.070067	0.241115
H238	H	0.345238	0.570067	0.741115
H239	H	0.226214	0.074629	-0.373557
H240	H	0.726214	0.574629	0.126443
H241	H	0.770463	-0.111731	0.000244
H242	H	1.270463	0.388269	0.500244
H243	H	0.769178	-0.219481	0.000194
H244	H	1.269178	0.280519	0.500194
H245	H	0.819117	-0.392053	0.000196
H246	H	1.319117	0.107947	0.500196
O247	O	0.831455	-0.509523	0.000200
O248	O	1.331455	-0.009523	0.500200
H249	H	0.867920	-0.483809	0.000234
H250	H	1.367920	0.016191	0.500234
H251	H	0.525569	-0.459912	0.000033
H252	H	1.025569	0.040088	0.500033
O253	O	0.561883	-0.622767	0.000100
O254	O	1.061883	-0.122767	0.500100
H255	H	0.525415	-0.648478	0.000109
H256	H	1.025415	-0.148478	0.500109
H257	H	0.526863	-0.352164	0.000043
H258	H	1.026863	0.147836	0.500043
O259	O	0.568424	-0.076300	0.000163
O260	O	1.068424	0.423700	0.500163
H261	H	0.577707	-0.031198	0.000161
H262	H	1.077707	0.468802	0.500161
