data_functionalizedCrystal
_audit_creation_method	'MofGen! by Chris Wilmer'
_symmetry_space_group_name_H-M	'P1'
_symmetry_Int_Tables_number	1
_symmetry_cell_setting	triclinic
loop_
_symmetry_equiv_pos_as_xyz
  x,y,z
_cell_length_a	19.188925
_cell_length_b	19.188930
_cell_length_c	7.088668
_cell_angle_alpha	96.991245
_cell_angle_beta	96.989027
_cell_angle_gamma	83.143665
loop_
_atom_site_label
_atom_site_type_symbol
_atom_site_fract_x
_atom_site_fract_y
_atom_site_fract_z
O1	O	0.932530	0.093530	0.159060
O2	O	0.729218	0.105268	0.159057
O3	O	0.836739	-0.002259	0.159021
O4	O	0.825008	0.201056	0.159096
O5	O	0.823970	-0.015017	-0.158973
O6	O	0.716448	0.092509	-0.158937
O7	O	0.919760	0.080771	-0.158935
Cu8	Cu	0.816938	0.085475	-0.187972
Cu9	Cu	0.832040	0.100564	0.188094
O10	O	0.812239	0.188297	-0.158899
C11	C	0.696822	0.098509	0.000059
C12	C	0.619317	0.097370	0.000057
C13	C	0.057548	0.152835	0.000082
C14	C	0.130372	0.153912	0.000092
C15	C	0.175305	0.090818	0.000066
C16	C	0.147411	0.026645	0.000077
C17	C	0.074590	0.025571	0.000086
N18	N	0.291635	0.040798	-0.108199
N19	N	0.360812	0.041823	-0.108211
C20	C	0.394713	0.094052	0.000044
N21	N	0.356823	0.145226	0.108288
N22	N	0.287639	0.144203	0.108292
C23	C	0.254269	0.091976	0.000058
C24	C	0.501563	0.159389	0.000058
C25	C	0.574389	0.160463	0.000080
C26	C	0.591427	0.033195	0.000046
C27	C	0.518603	0.032123	0.000043
C28	C	0.473675	0.095221	0.000039
C29	C	0.829975	-0.034649	0.000018
C30	C	0.828833	-0.112154	0.000002
C31	C	0.891924	-0.157080	-0.000006
C32	C	0.890853	-0.229902	0.000024
C33	C	0.826687	-0.257798	0.000025
C34	C	0.763589	-0.212862	0.000044
C35	C	0.764662	-0.140040	0.000033
N36	N	0.773294	-0.370144	-0.108195
N37	N	0.772279	-0.439322	-0.108189
C38	C	0.823451	-0.477205	0.000063
N39	N	0.875686	-0.443298	0.108285
N40	N	0.876702	-0.374114	0.108269
C41	C	0.825517	-0.336760	0.000038
C42	C	0.885385	-0.601093	0.000091
C43	C	0.884312	-0.673916	0.000133
C44	C	0.757045	-0.656875	0.000134
C45	C	0.758120	-0.584053	0.000111
C46	C	0.822292	-0.556167	0.000080
C47	C	0.952156	0.087530	0.000067
C48	C	1.029662	0.088670	0.000083
C49	C	0.819004	0.220688	0.000108
C50	C	0.820146	0.298194	0.000137
N51	N	0.806322	0.074862	-0.452476
N52	N	0.842662	0.111171	0.452598
H53	H	0.020972	0.204215	0.000088
H54	H	0.935691	-0.710494	0.000137
H55	H	0.184001	-0.024725	0.000061
C56	C	0.755466	0.024034	-0.562854
N57	N	0.717158	-0.014250	-0.646003
C58	C	0.693005	-0.243549	0.000031
N59	N	0.639839	-0.266662	0.000022
C60	C	0.893522	0.162000	-0.437015
N61	N	0.931830	0.200285	-0.353871
C62	C	0.686461	-0.687555	0.000141
N63	N	0.633296	-0.710667	0.000152
H64	H	0.713284	-0.103461	0.000039
C65	C	0.043914	-0.045019	0.000063
N66	N	0.020807	-0.098190	0.000036
C67	C	0.452141	0.228799	0.000090
N68	N	0.414918	0.281080	0.000122
C69	C	0.161053	0.224500	0.000078
N70	N	0.184160	0.277668	0.000062
H71	H	0.628011	-0.018176	0.000039
C72	C	0.487925	-0.038467	0.000003
N73	N	0.464820	-0.091638	-0.000030
H74	H	0.944178	-0.134380	-0.000025
H75	H	0.942231	-0.266487	0.000025
H76	H	0.597092	0.212717	0.000095
H77	H	0.937638	-0.578387	0.000075
H78	H	0.706744	-0.547473	0.000107
