data_functionalizedCrystal
_audit_creation_method	'MofGen! by Chris Wilmer'
_symmetry_space_group_name_H-M	'P1'
_symmetry_Int_Tables_number	1
_symmetry_cell_setting	triclinic
loop_
_symmetry_equiv_pos_as_xyz
  x,y,z
_cell_length_a	13.635800
_cell_length_b	23.752959
_cell_length_c	23.752930
_cell_angle_alpha	82.885251
_cell_angle_beta	100.066047
_cell_angle_gamma	79.933576
loop_
_atom_site_label
_atom_site_type_symbol
_atom_site_fract_x
_atom_site_fract_y
_atom_site_fract_z
V1	V	1.985895	-0.079916	0.178719
O2	O	1.988842	0.003064	0.174985
O3	O	1.953506	-0.157713	0.177817
O4	O	1.953510	-0.079027	0.256519
O5	O	1.988838	-0.076167	0.095738
V6	V	2.229831	-0.069950	0.168755
O7	O	2.111755	-0.101776	0.200576
O8	O	2.329069	-0.048090	0.146898
O9	O	2.150616	0.007847	0.169658
O10	O	2.285582	-0.152930	0.172490
O11	O	2.285586	-0.073700	0.251737
O12	O	2.150612	-0.070839	0.090955
V13	V	2.485895	-0.079916	0.178719
O14	O	2.488842	0.003064	0.174985
O15	O	2.453506	-0.157713	0.177817
O16	O	2.453510	-0.079027	0.256519
O17	O	2.488838	-0.076167	0.095738
V18	V	2.729831	-0.069950	0.168755
O19	O	2.611755	-0.101776	0.200576
O20	O	2.829069	-0.048090	0.146898
O21	O	2.650616	0.007847	0.169658
O22	O	2.785582	-0.152930	0.172490
O23	O	2.785586	-0.073700	0.251737
O24	O	2.650612	-0.070839	0.090955
C25	C	1.874279	-0.176668	0.175080
C26	C	1.888386	-0.240271	0.174861
C27	C	1.858989	-0.512263	0.171081
C28	C	1.845719	-0.452501	0.171283
O29	O	1.761947	-0.419107	0.168969
N30	N	1.929524	-0.425536	0.174247
C31	C	2.026607	-0.458339	0.177016
O32	O	2.096671	-0.429916	0.179557
C33	C	2.039877	-0.518101	0.176819
C34	C	1.956064	-0.545061	0.173848
C35	C	1.775184	-0.539224	0.168112
C36	C	1.788453	-0.598982	0.167909
C37	C	1.885528	-0.631780	0.170676
C38	C	1.969334	-0.604819	0.173646
C39	C	2.136961	-0.550903	0.179592
C40	C	2.150224	-0.610669	0.179395
C41	C	2.066411	-0.637629	0.176424
C42	C	2.079679	-0.697375	0.176211
N43	N	1.995874	-0.724339	0.173246
C44	C	1.898799	-0.691542	0.170479
C45	C	1.998732	-0.332835	0.177432
C46	C	1.985462	-0.273073	0.177625
C47	C	1.804575	-0.267239	0.171892
C48	C	1.817845	-0.327001	0.171695
C49	C	1.914927	-0.359799	0.174467
C50	C	1.926672	-0.817038	0.170053
C51	C	1.939951	-0.876802	0.169849
C52	C	2.120837	-0.882631	0.175584
C53	C	2.107560	-0.822872	0.175786
C54	C	2.010470	-0.790077	0.173022
O55	O	2.163420	-0.730806	0.178526
O56	O	1.828751	-0.719973	0.167946
C57	C	1.874284	-0.076295	0.275472
C58	C	1.888393	-0.076084	0.339075
C59	C	2.061514	0.026799	0.172393
C60	C	2.037026	0.090401	0.172616
C61	C	2.061510	-0.073573	0.072000
C62	C	2.037020	-0.073782	0.008395
C63	C	2.374279	-0.176668	0.175080
C64	C	2.388386	-0.240271	0.174861
C65	C	2.374284	-0.076295	0.275472
C66	C	2.388393	-0.076084	0.339075
C67	C	2.066422	-0.077585	0.736406
C68	C	2.079692	-0.077379	0.796168
O69	O	2.163463	-0.079691	0.829561
N70	N	1.995886	-0.074411	0.823132
C71	C	1.898803	-0.071643	0.790330
O72	O	1.828738	-0.069099	0.818753
C73	C	1.885534	-0.071846	0.730569
C74	C	1.969348	-0.074820	0.703609
C75	C	2.150228	-0.080558	0.709446
C76	C	2.136960	-0.080766	0.649688
C77	C	2.039885	-0.078001	0.616891
C78	C	1.956079	-0.075027	0.643852
C79	C	1.788451	-0.069074	0.697768
C80	C	1.775189	-0.069277	0.638003
C81	C	1.859002	-0.072251	0.611043
C82	C	1.845736	-0.072470	0.551297
N83	N	1.929542	-0.075438	0.524333
C84	C	2.026616	-0.078203	0.557130
C85	C	1.926675	-0.071218	0.915833
C86	C	1.939944	-0.071019	0.975594
C87	C	2.120832	-0.076754	0.981427
C88	C	2.107563	-0.076956	0.921666
C89	C	2.010481	-0.074185	0.888869
C90	C	1.998745	-0.078639	0.431635
C91	C	1.985468	-0.078849	0.371873
C92	C	1.804581	-0.073112	0.366044
C93	C	1.817857	-0.072905	0.425802
C94	C	1.914946	-0.075667	0.458596
O95	O	1.761995	-0.070156	0.517867
O96	O	2.096665	-0.080739	0.528699
C97	C	2.561514	0.026799	0.172393
C98	C	2.537026	0.090401	0.172616
C99	C	2.561510	-0.073573	0.072000
C100	C	2.537020	-0.073782	0.008395
C101	C	2.485461	-0.273068	0.177629
C102	C	2.498733	-0.332832	0.177431
C103	C	2.414927	-0.359795	0.174462
C104	C	2.317844	-0.326993	0.171696
C105	C	2.304575	-0.267232	0.171897
C106	C	2.485468	-0.078849	0.371873
C107	C	2.498737	-0.078642	0.431634
C108	C	2.414931	-0.075675	0.458598
C109	C	2.317848	-0.072907	0.425797
C110	C	2.304579	-0.073110	0.366035
C111	C	2.612444	0.123198	0.169850
C112	C	2.589444	0.182961	0.170050
C113	C	2.491027	0.209924	0.173020
C114	C	2.415603	0.177123	0.175785
C115	C	2.438601	0.117362	0.175580
C116	C	2.438594	-0.076743	-0.018554
C117	C	2.415567	-0.076933	-0.078318
C118	C	2.490968	-0.074165	-0.111130
C119	C	2.589401	-0.071201	-0.084177
C120	C	2.612426	-0.071008	-0.024415
H121	H	1.871695	-0.898749	0.167430
H122	H	2.377186	-0.078997	0.008155
H123	H	2.692576	-0.068599	-0.002477
H124	H	2.553711	-0.251122	0.180043
Cl125	Cl	1.804617	-0.775820	0.166578
Cl126	Cl	2.590840	-0.082579	0.337988
Cl127	Cl	1.683079	-0.632865	0.164173
H128	H	2.053724	-0.081272	0.349925
Cl129	Cl	2.120799	-0.082112	0.472853
H130	H	2.425745	-0.408457	0.174299
H131	H	2.577794	-0.080898	0.458334
Cl132	Cl	2.242333	-0.084500	0.615804
Cl133	Cl	2.431631	-0.075423	0.533729
Cl134	Cl	1.653133	-0.498002	0.164632
H135	H	2.692586	0.101253	0.167432
H136	H	2.229281	-0.637370	0.181654
H137	H	2.249619	-0.070491	0.447760
Cl138	Cl	2.291881	0.211029	0.179516
H139	H	2.229280	-0.082809	0.736143
H140	H	2.650786	-0.068946	-0.110903
Cl141	Cl	1.682548	-0.069637	0.324803
Cl142	Cl	2.212496	-0.360898	0.167960
H143	H	2.225523	-0.240531	0.169641
Cl144	Cl	1.712475	-0.360888	0.167963
H145	H	2.175813	-0.079377	0.899719
H146	H	2.472210	-0.074330	-0.159791
H147	H	2.199878	-0.079005	1.008141
Cl148	Cl	1.682535	-0.225997	0.168420
Cl149	Cl	2.684277	0.224185	0.166576
H150	H	2.577788	-0.359531	0.179682
H151	H	2.472314	0.258586	0.173186
H152	H	2.225529	-0.070859	0.339336
Cl153	Cl	2.090830	-0.239186	0.181345
H154	H	2.077790	-0.359535	0.179684
H155	H	2.335413	-0.079346	-0.100254
H156	H	2.377184	0.090661	0.177838
H157	H	2.205214	-0.528963	0.182013
H158	H	2.199875	-0.909345	0.177836
Cl159	Cl	2.212927	-0.788979	0.179524
H160	H	1.847617	-0.068961	0.889133
Cl161	Cl	1.834575	-0.067292	1.009480
H162	H	1.696129	-0.067006	0.611300
Cl163	Cl	1.712492	-0.069174	0.459697
Cl164	Cl	1.683074	-0.065334	0.731645
