data_functionalizedCrystal
_audit_creation_method	'MofGen! by Chris Wilmer'
_symmetry_space_group_name_H-M	'P1'
_symmetry_Int_Tables_number	1
_symmetry_cell_setting	triclinic
loop_
_symmetry_equiv_pos_as_xyz
  x,y,z
_cell_length_a	19.121063
_cell_length_b	16.625548
_cell_length_c	19.120904
_cell_angle_alpha	87.578974
_cell_angle_beta	94.741613
_cell_angle_gamma	87.531074
loop_
_atom_site_label
_atom_site_type_symbol
_atom_site_fract_x
_atom_site_fract_y
_atom_site_fract_z
Zn1	Zn	-0.297115	-1.197998	-0.409803
Zn2	Zn	0.036219	-0.864665	-0.076469
Zn3	Zn	0.369552	-0.531332	0.256864
Zn4	Zn	-0.409762	-1.197899	-0.297153
Zn5	Zn	-0.076428	-0.864565	0.036180
Zn6	Zn	0.256905	-0.531232	0.369513
Zn7	Zn	-0.292115	-1.069176	-0.292152
Zn8	Zn	0.041218	-0.735843	0.041181
Zn9	Zn	0.374552	-0.402510	0.374515
Zn10	Zn	-0.414741	-1.057114	-0.414770
Zn11	Zn	-0.081408	-0.723781	-0.081437
Zn12	Zn	0.251925	-0.390448	0.251897
O13	O	-0.353433	-1.130547	-0.353470
O14	O	-0.020100	-0.797214	-0.020136
O15	O	0.313234	-0.463880	0.313197
O16	O	-0.312066	-1.310816	-0.394874
O17	O	0.021267	-0.977483	-0.061540
O18	O	0.354601	-0.644150	0.271793
O19	O	-0.389979	-1.185830	-0.198030
O20	O	-0.056646	-0.852496	0.135304
O21	O	0.276688	-0.519163	0.468637
O22	O	-0.194315	-1.091355	-0.303587
O23	O	0.139018	-0.758021	0.029747
O24	O	0.472351	-0.424688	0.363080
O25	O	-0.394827	-1.310743	-0.312111
O26	O	-0.061494	-0.977410	0.021223
O27	O	0.271840	-0.644076	0.354556
O28	O	-0.197989	-1.186000	-0.390024
O29	O	0.135345	-0.852666	-0.056691
O30	O	0.468678	-0.519333	0.276643
O31	O	-0.303545	-1.091258	-0.194355
O32	O	0.029789	-0.757924	0.138978
O33	O	0.363122	-0.424591	0.472311
O34	O	-0.308373	-0.954745	-0.308403
O35	O	0.024960	-0.621412	0.024930
O36	O	0.358293	-0.288078	0.358263
O37	O	-0.403314	-1.070797	-0.512571
O38	O	-0.069981	-0.737463	-0.179238
O39	O	0.263352	-0.404130	0.154095
O40	O	-0.398466	-0.945883	-0.398490
O41	O	-0.065133	-0.612550	-0.065157
O42	O	0.268200	-0.279216	0.268176
O43	O	-0.316894	-1.174304	-0.508922
O44	O	0.016439	-0.840970	-0.175588
O45	O	0.349772	-0.507637	0.157745
O46	O	-0.508885	-1.174133	-0.316928
O47	O	-0.175552	-0.840800	0.016406
O48	O	0.157782	-0.507467	0.349739
O49	O	-0.512543	-1.070700	-0.403340
O50	O	-0.179210	-0.737366	-0.070007
O51	O	0.154123	-0.404033	0.263327
C52	C	-0.353418	-0.921058	-0.353444
C53	C	-0.020085	-0.587725	-0.020110
C54	C	0.313249	-0.254391	0.313223
C55	C	-0.353429	-0.831436	-0.353450
C56	C	-0.020096	-0.498103	-0.020117
C57	C	0.313237	-0.164769	0.313217
C58	C	-0.536245	-1.121118	-0.361231
C59	C	-0.202912	-0.787785	-0.027898
C60	C	0.130422	-0.454451	0.305436
C61	C	-0.614454	-1.117157	-0.364575
C62	C	-0.281120	-0.783823	-0.031241
C63	C	0.052213	-0.450490	0.302092
C64	C	-0.353429	-0.503259	-0.353471
C65	C	-0.020096	-0.169926	-0.020138
C66	C	0.313238	0.163407	0.313196
C67	C	-0.353427	-0.594568	-0.353463
C68	C	-0.020094	-0.261235	-0.020130
C69	C	0.313240	0.072098	0.313204
C70	C	-0.353429	-0.667345	-0.353460
C71	C	-0.020096	-0.334011	-0.020127
C72	C	0.313237	-0.000678	0.313207
C73	C	-0.353427	-0.758660	-0.353453
C74	C	-0.020094	-0.425326	-0.020120
C75	C	0.313240	-0.091993	0.313214
C76	C	-0.649270	-1.169186	-0.321193
C77	C	-0.315937	-0.835853	0.012141
C78	C	0.017397	-0.502520	0.345474
C79	C	-0.722756	-1.165466	-0.324342
C80	C	-0.389422	-0.832132	0.008992
C81	C	-0.056089	-0.498799	0.342325
C82	C	-0.761424	-1.109711	-0.370870
C83	C	-0.428090	-0.776377	-0.037536
C84	C	-0.094757	-0.443044	0.295797
C85	C	-0.726603	-1.057679	-0.414256
C86	C	-0.393269	-0.724345	-0.080923
C87	C	-0.059936	-0.391012	0.252410
C88	C	-0.653118	-1.061404	-0.411111
C89	C	-0.319785	-0.728071	-0.077777
C90	C	0.013548	-0.394737	0.255556
C91	C	-0.983395	-1.095770	-0.382621
C92	C	-0.650062	-0.762437	-0.049287
C93	C	-0.316729	-0.429103	0.284046
C94	C	-1.056884	-1.092047	-0.385762
C95	C	-0.723551	-0.758714	-0.052428
C96	C	-0.390218	-0.425380	0.280905
C97	C	-1.053032	-1.199835	-0.295847
C98	C	-0.719699	-0.866502	0.037486
C99	C	-0.386366	-0.533169	0.370819
C100	C	-0.979547	-1.203552	-0.292703
C101	C	-0.646213	-0.870219	0.040631
C102	C	-0.312880	-0.536886	0.373964
C103	C	-0.944732	-1.151523	-0.336092
C104	C	-0.611399	-0.818190	-0.002759
C105	C	-0.278065	-0.484857	0.330575
C106	C	-0.836538	-1.105904	-0.374088
C107	C	-0.503205	-0.772571	-0.040755
C108	C	-0.169871	-0.439238	0.292579
C109	C	-0.869619	-1.155334	-0.332877
C110	C	-0.536286	-0.822001	0.000457
C111	C	-0.202953	-0.488668	0.333790
C112	C	-0.169908	-1.140034	-0.345693
C113	C	0.163425	-0.806700	-0.012360
C114	C	0.496759	-0.473367	0.320973
C115	C	-0.091700	-1.144076	-0.342380
C116	C	0.241633	-0.810743	-0.009046
C117	C	0.574966	-0.477410	0.324287
C118	C	-0.361218	-1.121216	-0.536990
C119	C	-0.027884	-0.787882	-0.203657
C120	C	0.305449	-0.454549	0.129677
C121	C	-0.364535	-1.117239	-0.615196
C122	C	-0.031201	-0.783906	-0.281862
C123	C	0.302132	-0.450573	0.051471
C124	C	-0.353444	-0.340854	-0.353489
C125	C	-0.020110	-0.007521	-0.020156
C126	C	0.313223	0.325812	0.313178
C127	C	-0.353436	-0.430476	-0.353479
C128	C	-0.020102	-0.097143	-0.020146
C129	C	0.313231	0.236190	0.313187
C130	C	-0.321101	-1.169259	-0.650038
C131	C	0.012232	-0.835926	-0.316704
C132	C	0.345566	-0.502592	0.016629
C133	C	-0.324215	-1.165513	-0.723520
C134	C	0.009118	-0.832180	-0.390187
C135	C	0.342451	-0.498846	-0.056853
C136	C	-0.370767	-1.109751	-0.762159
C137	C	-0.037434	-0.776417	-0.428826
C138	C	0.295899	-0.443084	-0.095492
C139	C	-0.414203	-1.057726	-0.727312
C140	C	-0.080869	-0.724392	-0.393978
C141	C	0.252464	-0.391059	-0.060645
C142	C	-0.411084	-1.061468	-0.653831
C143	C	-0.077751	-0.728135	-0.320497
C144	C	0.255582	-0.394801	0.012836
C145	C	-0.382430	-1.095751	-0.984119
C146	C	-0.049097	-0.762418	-0.650786
C147	C	0.284237	-0.429084	-0.317452
C148	C	-0.385546	-1.092014	-1.057605
C149	C	-0.052213	-0.758680	-0.724272
C150	C	0.281120	-0.425347	-0.390939
C151	C	-0.295558	-1.199801	-1.053808
C152	C	0.037776	-0.866467	-0.720475
C153	C	0.371109	-0.533134	-0.387142
C154	C	-0.292447	-1.203542	-0.980326
C155	C	0.040887	-0.870208	-0.646993
C156	C	0.374220	-0.536875	-0.313660
C157	C	-0.335879	-1.151514	-0.945485
C158	C	-0.002546	-0.818180	-0.612152
C159	C	0.330787	-0.484847	-0.278819
C160	C	-0.373953	-1.105922	-0.837270
C161	C	-0.040620	-0.772589	-0.503936
C162	C	0.292714	-0.439256	-0.170603
C163	C	-0.332689	-1.155339	-0.870376
C164	C	0.000644	-0.822006	-0.537042
C165	C	0.333977	-0.488672	-0.203709
C166	C	-0.345628	-1.139891	-0.170661
C167	C	-0.012295	-0.806557	0.162672
C168	C	0.321038	-0.473224	0.496006
C169	C	-0.342113	-1.144033	-0.092447
C170	C	-0.008779	-0.810700	0.240886
C171	C	0.324554	-0.477367	0.574219
H172	H	-0.617791	-1.214585	-0.283301
H173	H	-0.284457	-0.881251	0.050032
H174	H	0.048876	-0.547918	0.383365
Cl175	Cl	-1.105495	-1.021940	-0.444250
Cl176	Cl	-0.772161	-0.688606	-0.110916
Cl177	Cl	-0.438828	-0.355273	0.222417
Cl178	Cl	-0.465687	-0.996067	-0.610029
Cl179	Cl	-0.132354	-0.662733	-0.276695
Cl180	Cl	0.200980	-0.329400	0.056638
H181	H	-0.260196	-1.242158	-1.082184
H182	H	0.073137	-0.908825	-0.748851
H183	H	0.406470	-0.575491	-0.415517
Cl184	Cl	-0.233922	-1.273646	-0.931757
Cl185	Cl	0.099411	-0.940313	-0.598424
Cl186	Cl	0.432744	-0.606980	-0.265090
H187	H	-0.758092	-1.012285	-0.452144
H188	H	-0.424759	-0.678952	-0.118810
H189	H	-0.091426	-0.345618	0.214523
H190	H	-0.624772	-1.019037	-0.446438
H191	H	-0.291439	-0.685704	-0.113104
H192	H	0.041895	-0.352370	0.220229
H193	H	-0.751099	-1.207833	-0.289015
H194	H	-0.417766	-0.874500	0.044319
H195	H	-0.084433	-0.541166	0.377652
H196	H	-0.423456	-1.046603	-1.089063
H197	H	-0.090123	-0.713269	-0.755730
H198	H	0.243210	-0.379936	-0.422397
H199	H	-0.838134	-1.200733	-0.294996
H200	H	-0.504800	-0.867400	0.038337
H201	H	-0.171467	-0.534066	0.371671
Cl202	Cl	-0.939638	-1.030360	-0.437167
Cl203	Cl	-0.606305	-0.697027	-0.103833
Cl204	Cl	-0.272971	-0.363693	0.229500
Cl205	Cl	-0.274162	-1.225430	-0.821800
Cl206	Cl	0.059171	-0.892096	-0.488467
Cl207	Cl	0.392505	-0.558763	-0.155133
Cl208	Cl	-0.437032	-1.030344	-0.940329
Cl209	Cl	-0.103699	-0.697011	-0.606995
Cl210	Cl	0.229634	-0.363677	-0.273662
Cl211	Cl	-0.885155	-1.035814	-0.432578
Cl212	Cl	-0.551822	-0.702480	-0.099245
Cl213	Cl	-0.218489	-0.369147	0.234089
H214	H	-0.283196	-1.214669	-0.618583
H215	H	0.050138	-0.881336	-0.285250
H216	H	0.383471	-0.548002	0.048084
H217	H	-0.288849	-1.207875	-0.751885
H218	H	0.044485	-0.874542	-0.418552
H219	H	0.377818	-0.541208	-0.085218
Cl220	Cl	-0.472723	-0.987621	-0.775886
Cl221	Cl	-0.139390	-0.654288	-0.442553
Cl222	Cl	0.193944	-0.320954	-0.109220
Cl223	Cl	-0.930941	-1.273658	-0.234218
Cl224	Cl	-0.597608	-0.940325	0.099116
Cl225	Cl	-0.264274	-0.606991	0.432449
H226	H	-1.081386	-1.242195	-0.260523
H227	H	-0.748053	-0.908862	0.072810
H228	H	-0.414720	-0.575529	0.406143
Cl229	Cl	-0.432477	-1.035826	-0.885850
Cl230	Cl	-0.099144	-0.702493	-0.552517
Cl231	Cl	0.234190	-0.369160	-0.219184
