data_functionalizedCrystal
_audit_creation_method	'MofGen! by Chris Wilmer'
_symmetry_space_group_name_H-M	'P1'
_symmetry_Int_Tables_number	1
_symmetry_cell_setting	triclinic
loop_
_symmetry_equiv_pos_as_xyz
  x,y,z
_cell_length_a	15.298068
_cell_length_b	21.295417
_cell_length_c	15.296720
_cell_angle_alpha	80.361834
_cell_angle_beta	91.645182
_cell_angle_gamma	99.689184
loop_
_atom_site_label
_atom_site_type_symbol
_atom_site_fract_x
_atom_site_fract_y
_atom_site_fract_z
Zn1	Zn	1.253346	-0.187264	0.727332
Zn2	Zn	1.278593	-0.271807	0.580848
Zn3	Zn	1.132227	-0.181147	0.555499
Zn4	Zn	1.106816	-0.307096	0.701865
O5	O	1.192745	-0.236829	0.641386
O6	O	1.379273	-0.186270	0.729166
O7	O	1.280378	-0.242452	0.454927
O8	O	1.148362	-0.093867	0.578343
O9	O	1.397822	-0.248383	0.621545
O10	O	1.237347	-0.098361	0.704587
O11	O	1.172843	-0.175845	0.436303
O12	O	1.006278	-0.210064	0.553649
O13	O	1.105053	-0.308529	0.827802
O14	O	0.987609	-0.302598	0.661183
O15	O	1.212708	-0.220489	0.846512
O16	O	1.255738	-0.364580	0.596852
O17	O	1.129534	-0.390507	0.685763
C18	C	0.965160	-0.259497	0.601902
C19	C	0.867795	-0.269213	0.585032
C20	C	0.554648	-0.167546	0.761963
C21	C	0.646127	-0.158420	0.777819
C22	C	0.701549	-0.186117	0.729623
C23	C	0.665482	-0.222943	0.665570
C24	C	0.573993	-0.232074	0.649718
C25	C	0.720894	-0.250645	0.617378
C26	C	0.684827	-0.287470	0.553324
C27	C	0.593347	-0.296599	0.537474
C28	C	0.537926	-0.268902	0.585670
C29	C	0.812382	-0.241514	0.633230
C30	C	0.831727	-0.306041	0.520984
C31	C	0.740248	-0.315167	0.505129
C32	C	1.192639	-0.400385	0.641318
C33	C	1.192669	-0.470351	0.641331
C34	C	1.258423	-0.489700	0.595102
C35	C	1.258460	-0.555441	0.595128
C36	C	1.192730	-0.601831	0.641373
C37	C	1.126970	-0.582477	0.687613
C38	C	1.126939	-0.516736	0.687592
N39	N	1.114946	-0.713679	0.634756
N40	N	1.114978	-0.776128	0.634771
C41	C	1.192819	-0.799903	0.641440
N42	N	1.270631	-0.758867	0.648077
N43	N	1.270598	-0.696411	0.648058
C44	C	1.192756	-0.673117	0.641401
C45	C	1.258619	-0.890535	0.595237
C46	C	1.258657	-0.956278	0.595271
C47	C	1.127160	-0.983313	0.687750
C48	C	1.127129	-0.917571	0.687722
C49	C	1.192858	-0.871185	0.641461
C50	C	1.421219	-0.214072	0.681024
C51	C	1.518581	-0.204375	0.697916
C52	C	1.153230	-0.269128	0.869824
C53	C	1.136390	-0.282892	0.967170
C54	C	1.192873	-0.072634	0.641478
C55	C	1.192927	-0.002664	0.641517
C56	C	1.232158	-0.204605	0.413846
C57	C	1.249167	-0.190647	0.316529
C58	C	1.313131	-0.138342	1.280540
C59	C	1.328958	-0.125411	1.189079
C60	C	1.280817	-0.164779	1.133598
C61	C	1.216847	-0.217082	1.169586
C62	C	1.201024	-0.230018	1.261056
C63	C	1.168710	-0.256456	1.114114
C64	C	1.104740	-0.308759	1.150102
C65	C	1.088919	-0.321692	1.241564
C66	C	1.137060	-0.282323	1.297045
C67	C	1.184534	-0.243520	1.022643
C68	C	1.072426	-0.335196	1.003159
C69	C	1.056600	-0.348128	1.094620
H70	H	0.463435	-0.276335	0.572769
H71	H	1.312208	-0.972029	0.557627
Br72	Br	0.691291	-0.365141	0.418200
Br73	Br	1.271348	-0.172540	0.973813
Br74	Br	1.115586	-0.299873	1.421178
Br75	Br	0.861319	-0.191539	0.720158
H76	H	1.381044	-0.082827	1.159785
H77	H	0.876851	-0.328598	0.481744
Br78	Br	1.347636	-0.426751	0.532333
Br79	Br	0.695068	-0.108451	0.864750
Br80	Br	1.037960	-1.046265	0.750522
Br81	Br	1.347705	-0.581708	0.532384
H82	H	1.073453	-0.620252	0.725268
Br83	Br	0.969785	-0.419108	1.143471
H84	H	1.033228	-0.367255	0.957986
H85	H	1.073583	-0.901816	0.725363
Br86	Br	0.479430	-0.129974	0.827377
H87	H	1.293707	-0.154248	1.059127
H88	H	1.073393	-0.500984	0.725239
H89	H	0.563984	-0.326590	0.485324
H90	H	1.312143	-0.852766	0.557572
Br91	Br	1.378468	-0.084926	1.355840
H92	H	0.776035	-0.178682	0.742534
Br93	Br	1.002121	-0.392685	1.290406
