data_functionalizedCrystal
_audit_creation_method	'MofGen! by Chris Wilmer'
_symmetry_space_group_name_H-M	'P1'
_symmetry_Int_Tables_number	1
_symmetry_cell_setting	triclinic
loop_
_symmetry_equiv_pos_as_xyz
  x,y,z
_cell_length_a	18.050589
_cell_length_b	18.050590
_cell_length_c	18.050582
_cell_angle_alpha	89.999872
_cell_angle_beta	89.981088
_cell_angle_gamma	90.017386
loop_
_atom_site_label
_atom_site_type_symbol
_atom_site_fract_x
_atom_site_fract_y
_atom_site_fract_z
Zn1	Zn	-0.295916	1.135299	-0.419624
Zn2	Zn	-0.420101	1.135208	-0.295444
Zn3	Zn	-0.295906	1.011116	-0.295482
Zn4	Zn	-0.420045	1.011066	-0.419626
O5	O	-0.357992	1.073172	-0.357544
O6	O	-0.312417	1.239211	-0.403134
O7	O	-0.403645	1.118730	-0.191524
O8	O	-0.191983	1.027649	-0.311965
O9	O	-0.403655	1.239144	-0.311899
O10	O	-0.191990	1.118885	-0.403172
O11	O	-0.312400	1.027560	-0.191552
O12	O	-0.312346	0.907185	-0.311967
O13	O	-0.403560	1.027563	-0.523550
O14	O	-0.403550	0.907148	-0.403175
O15	O	-0.312363	1.118836	-0.523549
O16	O	-0.524018	1.118681	-0.311901
O17	O	-0.523977	1.027475	-0.403138
C18	C	-0.357941	0.880220	-0.357576
C19	C	-0.357938	0.797674	-0.357607
C20	C	-0.407677	0.598225	-0.407088
C21	C	-0.339962	0.548832	-0.425358
C22	C	-0.357979	0.646544	-0.357571
C23	C	-0.425733	0.548855	-0.339300
C24	C	-0.358025	0.500559	-0.357537
C25	C	-0.290228	0.598238	-0.375876
C26	C	-0.376045	0.598265	-0.289787
C27	C	-0.308283	0.548895	-0.308031
C28	C	-0.357954	0.730642	-0.357592
C29	C	-0.358043	0.416462	-0.357516
C30	C	-0.550944	1.073083	-0.357532
C31	C	-0.633490	1.073112	-0.357551
C32	C	-0.832945	1.023563	-0.407148
C33	C	-0.882377	1.005464	-0.339386
C34	C	-0.784620	1.073185	-0.357561
C35	C	-0.882271	1.091321	-0.425331
C36	C	-0.930606	1.073254	-0.357576
C37	C	-0.832965	1.055051	-0.289763
C38	C	-0.832854	1.140939	-0.375754
C39	C	-0.882263	1.122865	-0.307945
C40	C	-0.700522	1.073144	-0.357553
C41	C	-1.014702	1.073296	-0.357576
C42	C	-0.164287	1.073283	-0.357573
C43	C	-0.081741	1.073330	-0.357585
C44	C	-0.357957	1.073204	-0.551250
C45	C	-0.357942	1.073218	-0.633796
C46	C	-0.358044	1.266878	-0.357512
C47	C	-0.358066	1.349424	-0.357499
C48	C	-0.407454	1.023630	-0.882622
C49	C	-0.339713	1.005490	-0.833234
C50	C	-0.357833	1.073281	-0.930916
C51	C	-0.425623	1.091355	-0.833222
C52	C	-0.357890	1.073248	-0.784931
C53	C	-0.290056	1.055106	-0.882615
C54	C	-0.376012	1.141003	-0.882608
C55	C	-0.308224	1.122888	-0.833242
C56	C	-0.357801	1.073298	-1.015014
C57	C	-0.357914	1.073231	-0.700834
C58	C	-0.357974	1.073183	-0.164592
C59	C	-0.357780	1.073313	-0.082047
H60	H	-0.483012	0.527159	-0.323863
C61	C	-0.863202	1.265804	-0.410067
C62	C	-0.803462	1.218225	-0.396552
H63	H	-0.845054	1.313515	-0.422918
H64	H	-0.892913	1.269390	-0.366777
H65	H	-0.892147	1.246778	-0.449682
H66	H	-0.774520	1.237248	-0.356933
H67	H	-0.773739	1.214641	-0.439847
H68	H	-0.903929	1.106632	-0.482637
C69	C	-0.338773	0.671415	-0.185131
C70	C	-0.396677	0.627607	-0.212444
H71	H	-0.351516	0.689526	-0.137381
H72	H	-0.330579	0.711953	-0.217669
H73	H	-0.294956	0.642471	-0.181807
H74	H	-0.440493	0.656553	-0.215773
H75	H	-0.404880	0.587063	-0.179897
C76	C	-0.160715	1.086008	-0.886270
C77	C	-0.212673	1.034355	-0.911778
H78	H	-0.112946	1.073197	-0.904280
H79	H	-0.160262	1.085885	-0.833652
H80	H	-0.173696	1.133973	-0.903590
H81	H	-0.199696	0.986392	-0.894453
H82	H	-0.213124	1.034471	-0.964407
C83	C	-0.445232	0.602522	-0.534609
C84	C	-0.464312	0.627478	-0.463677
H85	H	-0.480191	0.620588	-0.569544
H86	H	-0.445330	0.549907	-0.535297
H87	H	-0.397237	0.620160	-0.547095
H88	H	-0.512305	0.609836	-0.451189
H89	H	-0.464221	0.680104	-0.462987
C90	C	-0.269960	1.250261	-0.830179
C91	C	-0.251548	1.179551	-0.804148
H92	H	-0.234966	1.285237	-0.812219
H93	H	-0.318042	1.263219	-0.813173
H94	H	-0.269346	1.250282	-0.882803
H95	H	-0.252167	1.179529	-0.751525
H96	H	-0.203454	1.166590	-0.821151
C97	C	-0.955054	1.143236	-0.198474
C98	C	-0.911323	1.179553	-0.251282
H99	H	-0.972998	1.178232	-0.163495
H100	H	-0.926117	1.106942	-0.173713
H101	H	-0.995712	1.119915	-0.222402
H102	H	-0.870661	1.202870	-0.227355
H103	H	-0.940261	1.215861	-0.276046
C104	C	-0.444804	0.896028	-0.886976
C105	C	-0.463997	0.966928	-0.911902
H106	H	-0.479707	0.861022	-0.905058
H107	H	-0.444905	0.895317	-0.834361
H108	H	-0.396788	0.883657	-0.904618
H109	H	-0.512011	0.979301	-0.894256
H110	H	-0.463904	0.967641	-0.964528
C111	C	-0.248935	0.545519	-0.522329
C112	C	-0.319355	0.519516	-0.502722
H113	H	-0.236221	0.527425	-0.570093
H114	H	-0.213608	0.528629	-0.487194
H115	H	-0.249222	0.598141	-0.523008
H116	H	-0.319066	0.466894	-0.502037
H117	H	-0.354690	0.536401	-0.537866
H118	H	-0.324357	0.948205	-0.811546
C119	C	-0.213567	0.704962	-0.396677
C120	C	-0.212881	0.627392	-0.396817
H121	H	-0.165818	0.722959	-0.409611
H122	H	-0.226458	0.722294	-0.348692
H123	H	-0.248883	0.722238	-0.431644
H124	H	-0.177569	0.610116	-0.361845
H125	H	-0.199981	0.610054	-0.444809
C126	C	-0.460570	1.213043	-0.955708
C127	C	-0.396768	1.218310	-0.911919
H128	H	-0.473386	1.260770	-0.973808
H129	H	-0.500194	1.194016	-0.926761
H130	H	-0.451393	1.180781	-0.996261
H131	H	-0.405946	1.250569	-0.871363
H132	H	-0.357135	1.237348	-0.940868
C133	C	-0.550851	1.124137	-0.863745
C134	C	-0.502982	1.112023	-0.803936
H135	H	-0.598608	1.136898	-0.845665
H136	H	-0.554183	1.080325	-0.892697
H137	H	-0.532232	1.163414	-0.893427
H138	H	-0.521598	1.072742	-0.774257
H139	H	-0.499652	1.155841	-0.774972
C140	C	-0.198787	0.476140	-0.287937
C141	C	-0.251512	0.519828	-0.251484
H142	H	-0.163741	0.458191	-0.253029
H143	H	-0.174093	0.505107	-0.324283
H144	H	-0.222770	0.435484	-0.311212
H145	H	-0.227529	0.560487	-0.228214
H146	H	-0.276208	0.490860	-0.215125
C147	C	-0.828706	0.895954	-0.444449
C148	C	-0.803702	0.966835	-0.463677
H149	H	-0.810647	0.860933	-0.479343
H150	H	-0.881321	0.895280	-0.444533
H151	H	-0.811094	0.883575	-0.396433
H152	H	-0.821319	0.979216	-0.511691
H153	H	-0.751076	0.967511	-0.463600
C154	C	-0.954445	0.933195	-0.254031
C155	C	-0.911748	0.928158	-0.318613
H156	H	-0.972571	0.885468	-0.241210
H157	H	-0.994973	0.965708	-0.262294
H158	H	-0.924741	0.951816	-0.214787
H159	H	-0.941453	0.909542	-0.357859
H160	H	-0.871214	0.895634	-0.310354
C161	C	-0.726285	1.034403	-0.213082
C162	C	-0.803855	1.034284	-0.212380
H163	H	-0.708315	1.021576	-0.165312
H164	H	-0.708921	1.082354	-0.226073
H165	H	-0.709013	0.999349	-0.248332
H166	H	-0.821127	1.069342	-0.177134
H167	H	-0.821226	0.986327	-0.199380
