data_functionalizedCrystal
_audit_creation_method	'MofGen! by Chris Wilmer'
_symmetry_space_group_name_H-M	'P1'
_symmetry_Int_Tables_number	1
_symmetry_cell_setting	triclinic
loop_
_symmetry_equiv_pos_as_xyz
  x,y,z
_cell_length_a	10.908937
_cell_length_b	9.130313
_cell_length_c	11.026607
_cell_angle_alpha	89.999963
_cell_angle_beta	84.335986
_cell_angle_gamma	90.001642
loop_
_atom_site_label
_atom_site_type_symbol
_atom_site_fract_x
_atom_site_fract_y
_atom_site_fract_z
O1	O	1.662440	0.121844	-0.179062
O2	O	1.309508	0.121836	-0.088526
O3	O	1.456723	0.121834	-0.304544
O4	O	1.515225	0.121846	0.036956
O5	O	1.456722	-0.121765	-0.304539
O6	O	1.309506	-0.121763	-0.088521
O7	O	1.662439	-0.121755	-0.179057
Cu8	Cu	1.485973	-0.144001	-0.133788
Cu9	Cu	1.485974	0.144083	-0.133795
O10	O	1.515223	-0.121753	0.036961
C11	C	1.263622	0.000036	-0.080062
C12	C	1.126895	0.000033	-0.054865
N13	N	1.485980	-0.346624	-0.133787
C14	C	0.915317	0.000057	-0.120775
C15	C	1.056631	0.000038	-0.146820
C16	C	1.551195	-0.423277	-0.229417
C17	C	1.551188	-0.576614	-0.229431
C18	C	1.420751	-0.576631	-0.038171
C19	C	1.420751	-0.423297	-0.038164
C20	C	1.616423	-0.346603	-0.325040
C21	C	1.681644	-0.423256	-0.420678
C22	C	1.681638	-0.576593	-0.420691
C23	C	1.616411	-0.653277	-0.325067
C24	C	1.708325	0.000049	-0.187521
C25	C	1.845052	0.000062	-0.212718
N26	N	1.485974	0.346705	-0.133808
C27	C	1.445930	0.000036	-0.347575
C28	C	1.413757	0.000041	-0.475796
C29	C	1.502592	0.000045	-0.567529
C30	C	1.469342	0.000049	-0.700053
C31	C	1.526016	0.000048	0.079992
C32	C	1.558189	0.000054	0.208213
H33	H	1.101088	0.000037	-0.244824
C34	C	1.878307	-0.375973	-0.531526
C35	C	1.753310	-0.338942	-0.525785
H36	H	1.922539	-0.323919	-0.596421
H37	H	1.909512	-0.350856	-0.456832
H38	H	1.887640	-0.478261	-0.545240
H39	H	1.743976	-0.236656	-0.512062
H40	H	1.722096	-0.364050	-0.600496
C41	C	1.224072	-0.623875	0.072641
C42	C	1.349063	-0.660923	0.066935
H43	H	1.179817	-0.675921	0.137526
H44	H	1.214744	-0.521598	0.086339
H45	H	1.192884	-0.649004	-0.002071
H46	H	1.380254	-0.635784	0.141644
H47	H	1.358398	-0.763223	0.053245
H48	H	1.367647	-0.360886	0.039707
C49	C	1.645130	0.000032	-0.414944
C50	C	1.638498	0.000040	-0.541116
H51	H	1.729036	0.000020	-0.398644
H52	H	1.605443	0.084976	-0.380310
H53	H	1.605425	-0.084921	-0.380314
H54	H	1.678195	0.085000	-0.575745
H55	H	1.678201	-0.084912	-0.575764
C56	C	1.326797	0.000050	-0.852631
C57	C	1.333429	0.000047	-0.726459
H58	H	1.242891	0.000040	-0.868931
H59	H	1.366488	0.084996	-0.887260
H60	H	1.366498	-0.084901	-0.887265
H61	H	1.293736	0.085005	-0.691826
H62	H	1.293721	-0.084907	-0.691815
H63	H	0.870855	0.000075	-0.022779
C64	C	0.938518	0.000066	0.077638
C65	C	1.066894	0.000049	0.077441
H66	H	0.901479	0.000069	0.159317
H67	H	0.913516	0.085010	0.036873
H68	H	0.913496	-0.084887	0.036873
H69	H	1.091918	0.085009	0.118198
H70	H	1.091906	-0.084903	0.118224
H71	H	0.889514	0.000061	-0.310715
H72	H	1.658866	0.000166	-0.772219
C73	C	1.739539	-0.811634	-0.505641
C74	C	1.753317	-0.660855	-0.525816
H75	H	1.783791	-0.863648	-0.570546
H76	H	1.770744	-0.836765	-0.430951
H77	H	1.654737	-0.836746	-0.501764
H78	H	1.838119	-0.635740	-0.529684
H79	H	1.722118	-0.635713	-0.600527
H80	H	1.616437	-0.221749	-0.325037
C81	C	1.202068	0.000047	-0.392049
C82	C	1.277851	0.000047	-0.502207
H83	H	1.118164	0.000061	-0.408354
H84	H	1.218307	-0.084901	-0.346552
H85	H	1.218326	0.084997	-0.346542
H86	H	1.261599	-0.084909	-0.547711
H87	H	1.261604	0.085004	-0.547723
H88	H	1.616401	-0.778134	-0.325092
