data_functionalizedCrystal
_audit_creation_method	'MofGen! by Chris Wilmer'
_symmetry_space_group_name_H-M	'P1'
_symmetry_Int_Tables_number	1
_symmetry_cell_setting	triclinic
loop_
_symmetry_equiv_pos_as_xyz
  x,y,z
_cell_length_a	11.026660
_cell_length_b	19.188928
_cell_length_c	9.482900
_cell_angle_alpha	99.272338
_cell_angle_beta	101.381977
_cell_angle_gamma	84.135677
loop_
_atom_site_label
_atom_site_type_symbol
_atom_site_fract_x
_atom_site_fract_y
_atom_site_fract_z
O1	O	1.627609	-0.283636	0.120985
O2	O	2.127609	0.216364	0.620985
O3	O	1.274480	-0.250369	0.120976
O4	O	1.774480	0.249631	0.620976
O5	O	1.461231	-0.166648	0.120944
O6	O	1.961231	0.333352	0.620944
O7	O	1.440858	-0.367357	0.121017
O8	O	1.940858	0.132643	0.621017
O9	O	1.423224	-0.183689	-0.120842
O10	O	1.923224	0.316311	0.379158
O11	O	1.236473	-0.267410	-0.120810
O12	O	1.736473	0.232590	0.379190
O13	O	1.589602	-0.300677	-0.120801
O14	O	2.089602	0.199323	0.379199
Cu15	Cu	1.409567	-0.285600	-0.142882
Cu16	Cu	1.909567	0.214400	0.357118
Cu17	Cu	1.454515	-0.265446	0.143058
Cu18	Cu	1.954515	0.234554	0.643058
O19	O	1.402851	-0.384398	-0.120769
O20	O	1.902851	0.115602	0.379231
C21	C	1.210299	-0.252752	0.000082
C22	C	1.710299	0.247248	0.500082
C23	C	1.075682	-0.234456	0.000076
C24	C	1.575682	0.265544	0.500076
C25	C	0.862476	-0.266071	0.000092
C26	C	1.362476	0.233929	0.500092
C27	C	1.001609	-0.284982	0.000096
C28	C	1.501609	0.215018	0.500096
C29	C	1.441567	-0.149074	0.000045
C30	C	1.941567	0.350926	0.500045
C31	C	1.439584	-0.071318	0.000026
C32	C	1.939584	0.428682	0.500026
C33	C	1.549164	-0.040360	0.000018
C34	C	2.049164	0.459640	0.500018
C35	C	1.547306	0.032702	0.000036
C36	C	2.047306	0.532702	0.500036
C37	C	1.435858	0.074802	0.000031
C38	C	1.935858	0.574802	0.500031
C39	C	1.326264	0.043836	0.000047
C40	C	1.826264	0.543836	0.500047
C41	C	1.328127	-0.029224	0.000044
C42	C	1.828127	0.470776	0.500044
N43	N	1.337734	0.187863	-0.082265
N44	N	1.837734	0.687863	0.417735
N45	N	1.335971	0.257266	-0.082265
N46	N	1.835971	0.757266	0.417735
C47	C	1.430238	0.294928	0.000042
C48	C	1.930238	0.794928	0.500042
N49	N	1.526351	0.260562	0.082332
N50	N	2.026351	0.760562	0.582332
N51	N	1.528116	0.191152	0.082326
N52	N	2.028116	0.691152	0.582326
C53	C	1.433825	0.154023	0.000035
C54	C	1.933825	0.654023	0.500035
C55	C	1.537813	0.405108	0.000055
C56	C	2.037813	0.905108	0.500055
C57	C	1.535952	0.478173	0.000082
C58	C	2.035952	0.978173	0.500082
C59	C	1.314904	0.489303	0.000078
C60	C	1.814904	0.989303	0.500078
C61	C	1.316770	0.416241	0.000067
C62	C	1.816770	0.916241	0.500067
C63	C	1.428227	0.374147	0.000048
C64	C	1.928227	0.874147	0.500048
C65	C	1.653784	-0.298294	0.000097
C66	C	2.153784	0.201706	0.500097
C67	C	1.788402	-0.316588	0.000112
C68	C	2.288402	0.183412	0.500112
N69	N	1.377962	-0.299775	-0.343997
N70	N	1.877962	0.200225	0.156003
C71	C	1.422516	0.598027	0.000113
C72	C	1.922516	1.098027	0.500113
C73	C	1.424502	0.520267	0.000080
C74	C	1.924502	1.020267	0.500080
C75	C	1.418907	-0.281419	-0.583617
C76	C	1.918907	0.218581	-0.083617
C77	C	1.445194	-0.269618	-0.416204
C78	C	1.945194	0.230382	0.083796
N79	N	1.486130	-0.251266	0.344173
N80	N	1.986130	0.248734	0.844173
H81	H	0.827987	-0.373839	0.000123
H82	H	1.327987	0.126161	0.500123
H83	H	1.639921	-0.074628	0.000008
H84	H	2.139921	0.425372	0.500008
N85	N	0.810054	-0.190233	0.000079
N86	N	1.310054	0.309767	0.500079
H87	H	0.878603	-0.159118	0.000069
H88	H	1.378603	0.340882	0.500069
H89	H	0.744114	-0.186763	-0.089556
H90	H	1.244114	0.313237	0.410444
H91	H	1.563138	-0.216712	-0.593711
H92	H	2.063138	0.283288	-0.093711
N93	N	1.665501	0.066105	0.000031
N94	N	2.165501	0.566105	0.500031
H95	H	1.736390	0.028353	0.000021
H96	H	2.236390	0.528353	0.500021
H97	H	1.655440	0.089866	-0.089604
H98	H	2.155440	0.589866	0.410396
H99	H	1.522208	-0.235062	-0.354093
H100	H	2.022208	0.264938	0.145907
N101	N	1.054021	-0.360823	0.000111
N102	N	1.554021	0.139177	0.500111
H103	H	1.145983	-0.363583	0.000109
H104	H	1.645983	0.136417	0.500109
H105	H	1.039603	-0.378488	0.089754
H106	H	1.539603	0.121512	0.589754
N107	N	1.023261	-0.158617	0.000040
N108	N	1.523261	0.341383	0.500040
H109	H	0.985515	-0.142450	0.089666
H110	H	1.485515	0.357550	0.589666
H111	H	1.091867	-0.127555	-0.000029
H112	H	1.591867	0.372445	0.499971
N113	N	1.206058	0.089238	0.000050
N114	N	1.706058	0.589238	0.500050
H115	H	1.221504	0.140219	0.000046
H116	H	1.721504	0.640219	0.500046
H117	H	1.144029	0.072588	-0.089581
H118	H	1.644029	0.572588	0.410419
N119	N	1.209924	-0.062620	0.000018
N120	N	1.709924	0.437380	0.500018
H121	H	1.228015	-0.115291	0.000007
H122	H	1.728015	0.384709	0.500007
H123	H	1.175418	-0.041115	0.089649
H124	H	1.675418	0.458885	0.589649
N125	N	1.275932	-0.345539	-0.426254
N126	N	1.775932	0.154461	0.073746
H127	H	1.312269	-0.386688	-0.489386
H128	H	1.812269	0.113312	0.010614
H129	H	1.234722	-0.363986	-0.354966
H130	H	1.734722	0.136014	0.145034
N131	N	1.198580	0.382840	0.000057
N132	N	1.698580	0.882840	0.500057
H133	H	1.164025	0.404296	0.089686
H134	H	1.664025	0.904296	0.589686
H135	H	1.135936	0.391684	-0.089634
H136	H	1.635936	0.891684	0.410366
N137	N	1.658019	0.359701	0.000042
N138	N	2.158019	0.859701	0.500042
H139	H	1.727161	0.390404	0.000052
H140	H	2.227161	0.890404	0.500052
H141	H	1.677695	0.335451	0.089669
H142	H	2.177695	0.835451	0.589669
N143	N	1.194702	0.534708	0.000063
N144	N	1.694702	1.034708	0.500063
H145	H	1.132622	0.518118	-0.089571
H146	H	1.632622	1.018118	0.410429
H147	H	1.160897	0.530723	0.089748
H148	H	1.660897	1.030723	0.589748
N149	N	1.654149	0.511568	0.000080
N150	N	2.154149	1.011568	0.500080
H151	H	1.725032	0.473812	0.000063
H152	H	2.225032	0.973812	0.500063
H153	H	1.644090	0.535331	-0.089551
H154	H	2.144090	1.035331	0.410449
N155	N	1.316883	-0.327181	-0.665880
N156	N	1.816883	0.172819	-0.165880
H157	H	1.312564	-0.329122	-0.773814
H158	H	1.812564	0.170878	-0.273814
H159	H	1.334822	-0.376581	-0.639334
H160	H	1.834822	0.123419	-0.139334
