data_functionalizedCrystal
_audit_creation_method	'MofGen! by Chris Wilmer'
_symmetry_space_group_name_H-M	'P1'
_symmetry_Int_Tables_number	1
_symmetry_cell_setting	triclinic
loop_
_symmetry_equiv_pos_as_xyz
  x,y,z
_cell_length_a	16.992694
_cell_length_b	11.026607
_cell_length_c	16.053802
_cell_angle_alpha	93.134017
_cell_angle_beta	87.249047
_cell_angle_gamma	99.627120
loop_
_atom_site_label
_atom_site_type_symbol
_atom_site_fract_x
_atom_site_fract_y
_atom_site_fract_z
O1	O	1.079834	0.256038	-0.069317
O2	O	0.851145	0.253175	-0.069342
O3	O	0.946536	0.076115	-0.069328
O4	O	0.984443	0.433098	-0.069330
O5	O	0.941279	0.085818	0.069530
O6	O	0.845889	0.262878	0.069516
O7	O	1.074577	0.265741	0.069541
Zn8	Zn	0.959398	0.265850	0.091575
Zn9	Zn	0.966324	0.253066	-0.091376
O10	O	0.979186	0.442801	0.069528
C11	C	0.818785	0.254344	0.000084
C12	C	0.730190	0.243357	0.000075
C13	C	0.694911	0.349355	0.000075
C14	C	0.611666	0.339026	0.000086
C15	C	0.563702	0.222698	0.000092
C16	C	0.598986	0.116693	0.000094
C17	C	0.682229	0.127024	0.000089
C18	C	0.314060	0.179883	0.000114
C19	C	0.230811	0.169561	0.000117
C20	C	0.243497	0.391895	0.000111
C21	C	0.326741	0.402215	0.000100
C22	C	0.362018	0.296210	0.000107
N23	N	0.478612	0.212138	0.000101
N24	N	0.447107	0.306772	0.000104
C25	C	0.936914	0.035078	0.000099
C26	C	0.916068	-0.101658	0.000094
C27	C	0.973629	-0.169881	0.000099
C28	C	0.952085	-0.311205	0.000093
C29	C	1.106937	0.264572	0.000113
C30	C	1.195532	0.275558	0.000117
C31	C	0.988808	0.483838	0.000099
C32	C	1.009655	0.620574	0.000098
N33	N	0.954677	0.274575	0.216435
N34	N	0.971050	0.244332	-0.216236
C35	C	0.995289	0.199266	0.260135
C36	C	0.991996	0.205382	0.347541
C37	C	0.948095	0.286813	0.391246
C38	C	0.907478	0.362124	0.347540
C39	C	0.910767	0.356002	0.260136
C40	C	0.933722	0.313521	0.652654
C41	C	0.930438	0.319641	0.740065
C42	C	1.014955	0.162896	0.740059
C43	C	1.018244	0.156786	0.652653
C44	C	0.977624	0.232093	0.608955
N45	N	0.944729	0.293068	0.480589
N46	N	0.980985	0.225830	0.519613
H47	H	0.191760	0.074828	0.000121
H48	H	0.886850	-0.357419	0.000081
C49	C	1.110797	-0.197608	0.000101
C50	C	1.061692	-0.107504	0.000102
H51	H	1.165165	-0.159099	0.000096
H52	H	1.098443	-0.244023	0.048522
H53	H	1.102094	-0.250797	-0.048325
H54	H	1.070391	-0.054320	0.048531
H55	H	1.074051	-0.061069	-0.048324
C56	C	0.565244	-0.080982	-0.071282
C57	C	0.546266	-0.011179	0.000099
H58	H	0.532701	-0.159928	-0.071277
H59	H	0.556030	-0.040383	-0.119695
H60	H	0.619872	-0.089989	-0.071273
H61	H	0.491640	-0.002163	0.000087
H62	H	0.555474	-0.051787	0.048525
H63	H	0.900649	0.374842	0.617082
H64	H	0.850837	-0.147877	0.000081
C65	C	0.824256	0.516428	0.338760
C66	C	0.859214	0.451627	0.395578
H67	H	0.794455	0.571678	0.368417
H68	H	0.864876	0.561540	0.304664
H69	H	0.789718	0.460008	0.304674
H70	H	0.893757	0.508046	0.429660
H71	H	0.818588	0.406512	0.429688
H72	H	1.074893	-0.333220	0.000043
H73	H	1.031042	0.132962	0.224556
C74	C	1.075892	0.049869	0.338756
C75	C	1.036653	0.122620	0.395576
H76	H	1.103469	-0.001217	0.368412
H77	H	1.037840	-0.000028	0.304679
H78	H	1.112990	0.101519	0.304652
H79	H	0.999550	0.070970	0.429676
H80	H	1.074709	0.172522	0.429667
H81	H	0.877695	0.417324	0.224556
H82	H	1.048025	0.101583	0.775646
C83	C	0.699080	0.568082	0.000078
C84	C	0.747630	0.477228	0.000071
H85	H	0.731626	0.647027	0.000083
H86	H	0.668177	0.556047	-0.048340
H87	H	0.664520	0.562801	0.048506
H88	H	0.782186	0.482504	-0.048361
H89	H	0.778547	0.489268	0.048494
C90	C	1.101445	0.002451	0.661431
C91	C	1.066496	0.067267	0.604615
H92	H	1.131232	-0.052817	0.631772
H93	H	1.135988	0.058851	0.695511
H94	H	1.060815	-0.042654	0.695532
H95	H	1.107127	0.112380	0.570517
H96	H	1.031951	0.010859	0.570520
H97	H	0.582946	0.425341	0.000085
H98	H	0.342772	0.093566	0.000121
C99	C	0.365837	0.589902	-0.071293
C100	C	0.379447	0.530098	0.000090
H101	H	0.398369	0.668858	-0.071299
H102	H	0.378708	0.542535	-0.119704
H103	H	0.311205	0.598889	-0.071277
H104	H	0.434078	0.521103	0.000072
H105	H	0.366581	0.577476	0.048515
C106	C	0.159928	0.504271	-0.071264
C107	C	0.204716	0.508409	0.000112
H108	H	0.135984	0.576203	-0.071256
H109	H	0.193964	0.500304	-0.119680
H110	H	0.119453	0.433508	-0.071252
H111	H	0.245196	0.579168	0.000098
H112	H	0.170677	0.512389	0.048541
C113	C	0.771186	0.004676	-0.071296
C114	C	0.721015	0.010511	0.000086
H115	H	0.795133	-0.067253	-0.071291
H116	H	0.740800	0.001873	-0.119709
H117	H	0.811659	0.075443	-0.071290
H118	H	0.680538	-0.060252	0.000077
H119	H	0.751402	0.013303	0.048511
H120	H	0.894687	0.385957	0.775645
