data_functionalizedCrystal
_audit_creation_method	'MofGen! by Chris Wilmer'
_symmetry_space_group_name_H-M	'P1'
_symmetry_Int_Tables_number	1
_symmetry_cell_setting	triclinic
loop_
_symmetry_equiv_pos_as_xyz
  x,y,z
_cell_length_a	25.639243
_cell_length_b	25.639240
_cell_length_c	13.032268
_cell_angle_alpha	97.135339
_cell_angle_beta	97.159423
_cell_angle_gamma	90.035481
loop_
_atom_site_label
_atom_site_type_symbol
_atom_site_fract_x
_atom_site_fract_y
_atom_site_fract_z
Zn1	Zn	0.761712	-0.245637	-0.590836
Zn2	Zn	0.772747	-0.321975	-0.416068
Zn3	Zn	0.685389	-0.234562	-0.416108
Zn4	Zn	0.674249	-0.333041	-0.590741
O5	O	0.723524	-0.283804	-0.503438
O6	O	0.836340	-0.255767	-0.567675
O7	O	0.770439	-0.301113	-0.269848
O8	O	0.695557	-0.162870	-0.439342
O9	O	0.844447	-0.311852	-0.439274
O10	O	0.751632	-0.171006	-0.567714
O11	O	0.706257	-0.236891	-0.269877
O12	O	0.610747	-0.247622	-0.439251
O13	O	0.676571	-0.330713	-0.736980
O14	O	0.602563	-0.319974	-0.567553
O15	O	0.740830	-0.266498	-0.737049
O16	O	0.759637	-0.396605	-0.439182
O17	O	0.687271	-0.404735	-0.567514
C18	C	0.587684	-0.283798	-0.503397
C19	C	0.529570	-0.283809	-0.503404
C20	C	0.164970	-0.254660	-0.570408
C21	C	0.110366	-0.254660	-0.570415
O22	O	0.078530	-0.229863	-0.627333
N23	N	0.087283	-0.283804	-0.503467
C24	C	0.118809	-0.312946	-0.436501
O25	O	0.094162	-0.337735	-0.379557
C26	C	0.173413	-0.312943	-0.436490
C27	C	0.196492	-0.283801	-0.503450
C28	C	0.188049	-0.225520	-0.637362
C29	C	0.242650	-0.225521	-0.637356
C30	C	0.274172	-0.254662	-0.570398
C31	C	0.251093	-0.283802	-0.503444
C32	C	0.204939	-0.342082	-0.369519
C33	C	0.259546	-0.342075	-0.369514
C34	C	0.282625	-0.312933	-0.436473
C35	C	0.337216	-0.312944	-0.436480
N36	N	0.360298	-0.283799	-0.503428
C37	C	0.328776	-0.254659	-0.570387
C38	C	0.004137	-0.312950	-0.436528
C39	C	-0.050466	-0.312957	-0.436543
C40	C	-0.058906	-0.254670	-0.570456
C41	C	-0.004302	-0.254666	-0.570445
C42	C	0.027219	-0.283806	-0.503475
C43	C	0.443442	-0.254663	-0.570371
C44	C	0.498048	-0.254668	-0.570363
C45	C	0.506483	-0.312953	-0.436446
C46	C	0.451882	-0.312950	-0.436458
C47	C	0.420363	-0.283801	-0.503424
O48	O	0.369084	-0.337726	-0.379588
O49	O	0.353431	-0.229868	-0.627312
C50	C	0.723456	-0.419641	-0.503356
C51	C	0.723472	-0.477755	-0.503356
C52	C	0.752731	-0.842329	-0.570402
C53	C	0.752745	-0.896935	-0.570423
O54	O	0.777540	-0.928747	-0.627344
N55	N	0.723590	-0.920049	-0.503539
C56	C	0.694415	-0.888555	-0.436637
O57	O	0.669617	-0.913230	-0.379750
C58	C	0.694398	-0.833951	-0.436622
C59	C	0.723560	-0.810839	-0.503503
C60	C	0.781889	-0.819218	-0.637278
C61	C	0.781876	-0.764616	-0.637255
C62	C	0.752704	-0.733126	-0.570356
C63	C	0.723546	-0.756237	-0.503480
C64	C	0.665221	-0.802458	-0.369726
C65	C	0.665206	-0.747851	-0.369717
C66	C	0.694367	-0.724739	-0.436598
C67	C	0.694361	-0.670145	-0.436558
N68	N	0.723516	-0.647031	-0.503442
C69	C	0.752688	-0.678521	-0.570341
C70	C	0.694452	-1.003228	-0.436676
C71	C	0.694471	-1.057831	-0.436685
C72	C	0.752801	-1.066207	-0.570472
C73	C	0.752784	-1.011603	-0.570457
C74	C	0.723607	-0.980114	-0.503559
C75	C	0.752658	-0.563853	-0.570287
C76	C	0.752643	-0.509245	-0.570255
C77	C	0.694312	-0.500874	-0.436472
C78	C	0.694328	-0.555477	-0.436500
C79	C	0.723502	-0.586965	-0.503416
O80	O	0.669577	-0.638301	-0.379670
O81	O	0.777476	-0.653840	-0.627229
C82	C	0.859894	-0.283811	-0.503480
C83	C	0.918007	-0.283813	-0.503498
C84	C	0.706227	-0.301075	-0.775989
C85	C	0.698855	-0.308435	-0.892134
C86	C	0.723606	-0.147438	-0.503543
C87	C	0.723641	-0.089326	-0.503588
C88	C	0.727363	-0.279944	-0.943949
C89	C	0.719745	-0.287550	-1.063991
C90	C	0.740785	-0.266562	-0.231948
C91	C	0.748257	-0.259055	-0.115804
H92	H	0.261436	-0.201789	-0.691880
H93	H	0.689694	-0.317572	-1.108496
H94	H	-0.069253	-0.336694	-0.382030
O95	O	0.780916	-0.594468	-0.635396
C96	C	0.778966	-0.665028	-0.776478
C97	C	0.746897	-0.630385	-0.702833
H98	H	0.751477	-0.694082	-0.831005
H99	H	0.799789	-0.639153	-0.824345
H100	H	0.809384	-0.687520	-0.728545
H101	H	0.716452	-0.607887	-0.750685
H102	H	0.726111	-0.656288	-0.654963
H103	H	0.285209	-0.365804	-0.314976
H104	H	0.641475	-0.821266	-0.315264
H105	H	-0.084581	-0.230940	-0.624975
H106	H	0.668806	-0.338455	-0.936643
O107	O	0.781217	-1.096773	-0.635355
C108	C	0.866899	-1.116602	-0.686308
C109	C	0.834785	-1.081958	-0.612755
H110	H	0.910213	-1.104630	-0.668077
H111	H	0.861943	-1.159604	-0.674823
H112	H	0.852306	-1.111197	-0.770538
H113	H	0.849357	-1.087317	-0.528497
H114	H	0.839742	-1.038969	-0.624330
H115	H	0.162390	-0.201787	-0.691888
H116	H	0.757408	-0.249919	-0.899440
O117	O	0.636798	-0.717248	-0.304879
C118	C	0.567118	-0.654745	-0.290662
C119	C	0.599239	-0.689385	-0.364209
H120	H	0.536751	-0.632200	-0.338600
H121	H	0.546241	-0.680624	-0.242886
H122	H	0.594613	-0.625737	-0.236035
H123	H	0.571780	-0.718398	-0.418899
H124	H	0.620122	-0.663473	-0.411912
H125	H	0.805620	-0.745802	-0.691718
O126	O	0.520383	-0.226310	-0.635442
C127	C	0.506236	-0.168524	-0.768311
C128	C	0.480877	-0.200605	-0.694650
H129	H	0.474306	-0.147742	-0.816215
H130	H	0.534833	-0.138082	-0.720493
H131	H	0.528345	-0.196032	-0.822812
H132	H	0.458741	-0.173138	-0.640134
H133	H	0.452309	-0.231053	-0.742532
O134	O	0.412768	-0.226427	-0.635476
C135	C	0.342214	-0.228451	-0.776651
C136	C	0.376908	-0.260485	-0.702963
H137	H	0.313220	-0.255975	-0.831247
H138	H	0.319659	-0.198050	-0.728855
H139	H	0.368109	-0.207613	-0.824451
H140	H	0.351051	-0.281356	-0.655147
H141	H	0.399466	-0.290856	-0.750818
H142	H	0.776529	-0.992789	-0.624918
H143	H	0.670732	-1.076643	-0.382212
H144	H	0.778303	-0.229026	-1.071300
H145	H	0.670562	-0.475226	-0.382000
O146	O	0.018032	-0.226309	-0.635519
C147	C	0.003879	-0.168527	-0.768394
C148	C	-0.021477	-0.200610	-0.694732
H149	H	-0.028053	-0.147749	-0.816302
H150	H	0.032472	-0.138081	-0.720577
H151	H	0.025992	-0.196033	-0.822890
H152	H	-0.043618	-0.173145	-0.640220
H153	H	-0.050041	-0.231061	-0.742614
H154	H	0.029799	-0.336684	-0.381996
O155	O	0.666102	-0.972716	-0.371578
C156	C	0.608227	-0.970185	-0.238923
C157	C	0.640319	-1.004796	-0.312572
H158	H	0.587364	-0.996109	-0.191213
H159	H	0.635689	-0.941163	-0.184250
H160	H	0.577838	-0.947656	-0.286846
H161	H	0.670710	-1.027359	-0.264733
H162	H	0.612825	-1.033785	-0.367248
O163	O	0.182585	-0.370464	-0.304518
C164	C	0.169054	-0.456125	-0.253457
C165	C	0.194405	-0.424043	-0.327129
H166	H	0.178592	-0.499452	-0.271727
H167	H	0.185150	-0.441575	-0.169224
H168	H	0.124615	-0.451100	-0.264929
H169	H	0.238845	-0.429054	-0.315751
H170	H	0.178267	-0.438601	-0.411335
O171	O	0.429547	-0.341274	-0.371327
C172	C	0.443684	-0.399114	-0.238552
C173	C	0.469043	-0.367055	-0.312251
H174	H	0.475604	-0.419975	-0.190786
H175	H	0.421613	-0.371631	-0.183934
H176	H	0.415052	-0.429500	-0.286440
H177	H	0.497698	-0.336667	-0.264448
H178	H	0.491081	-0.394570	-0.366872
H179	H	0.805644	-0.844852	-0.691762
O180	O	0.665958	-0.577847	-0.371495
C181	C	0.608123	-0.563767	-0.238756
C182	C	0.640226	-0.538370	-0.312328
H183	H	0.587320	-0.531861	-0.190884
H184	H	0.577696	-0.592357	-0.286641
H185	H	0.635623	-0.585888	-0.184220
H186	H	0.612767	-0.516222	-0.366878
H187	H	0.670659	-0.509808	-0.264377
O188	O	0.537158	-0.341293	-0.371550
C189	C	0.599660	-0.410974	-0.357210
C190	C	0.564952	-0.378916	-0.430828
H191	H	0.622131	-0.441406	-0.405108
H192	H	0.628727	-0.383493	-0.302688
H193	H	0.573782	-0.431778	-0.309325
H194	H	0.590788	-0.358107	-0.478781
H195	H	0.535881	-0.406421	-0.485281
O196	O	0.780981	-0.486883	-0.635329
C197	C	0.838860	-0.500961	-0.767987
C198	C	0.806785	-0.526353	-0.694364
H199	H	0.859740	-0.532860	-0.815720
H200	H	0.811383	-0.478881	-0.822640
H201	H	0.869234	-0.472334	-0.720042
H202	H	0.776410	-0.555003	-0.742224
H203	H	0.834294	-0.548401	-0.639708
