data_functionalizedCrystal
_audit_creation_method	'MofGen! by Chris Wilmer'
_symmetry_space_group_name_H-M	'P1'
_symmetry_Int_Tables_number	1
_symmetry_cell_setting	triclinic
loop_
_symmetry_equiv_pos_as_xyz
  x,y,z
_cell_length_a	6.817900
_cell_length_b	11.452732
_cell_length_c	10.773894
_cell_angle_alpha	83.898808
_cell_angle_beta	96.645922
_cell_angle_gamma	108.697210
loop_
_atom_site_label
_atom_site_type_symbol
_atom_site_fract_x
_atom_site_fract_y
_atom_site_fract_z
V1	V	-3.967651	-0.164841	-0.353160
O2	O	-3.936515	0.012549	-0.384265
O3	O	-3.938590	-0.331303	-0.314363
O4	O	-3.884793	-0.160275	-0.523783
O5	O	-3.990684	-0.159663	-0.173395
V6	V	-4.453238	-0.143863	-0.336078
O7	O	-4.224382	-0.210858	-0.390630
O8	O	-4.646704	-0.097846	-0.298608
O9	O	-4.259092	0.022599	-0.374874
O10	O	-4.601770	-0.321253	-0.304973
O11	O	-4.547601	-0.149041	-0.515842
O12	O	-4.312889	-0.148429	-0.165455
C13	C	-3.789411	-0.371946	-0.299404
C14	C	-3.846707	-0.508018	-0.268821
C15	C	-3.890521	-0.584038	-0.360417
C16	C	-3.949740	-0.724675	-0.328810
C17	C	-3.720786	-0.153781	-0.566539
C18	C	-3.734453	-0.151149	-0.705785
C19	C	-3.913057	-0.155711	-0.772657
C20	C	-3.927186	-0.152990	-0.916576
C21	C	-4.071615	0.063236	-0.389828
C22	C	-3.993555	0.199307	-0.420420
C23	C	-4.140239	-0.154927	-0.122691
C24	C	-4.105811	-0.157553	0.016555
H25	H	-3.987218	-0.761666	-0.522246
H26	H	-3.884178	-0.545002	-0.462236
O27	O	-3.957485	-0.771434	-0.207400
C28	C	-4.014864	-0.901442	-0.202868
H29	H	-4.101735	-0.934808	-0.295863
H30	H	-3.869444	-0.931552	-0.185198
C31	C	-4.049934	-0.916732	0.018049
C32	C	-4.156647	-0.957713	-0.096165
H33	H	-4.137385	-0.951443	0.083871
H34	H	-4.011270	-0.829142	0.014997
H35	H	-3.928756	-0.941826	0.032757
H36	H	-4.277808	-0.932605	-0.110879
H37	H	-4.195336	-1.045300	-0.093114
O38	O	-3.757149	-0.146089	-0.975216
C39	C	-3.690418	-0.249330	-0.934145
H40	H	-3.748139	-0.288278	-0.838489
H41	H	-3.755781	-0.323211	-1.004162
C42	C	-3.380367	-0.161855	-1.041403
C43	C	-3.451246	-0.209685	-0.923912
H44	H	-3.232835	-0.137404	-1.035095
H45	H	-3.425327	-0.092301	-1.069078
H46	H	-3.434854	-0.223430	-1.099738
H47	H	-3.396780	-0.148106	-0.865583
H48	H	-3.406270	-0.279228	-0.896227
H49	H	-3.853025	-0.547053	-0.167001
O50	O	-4.083048	-0.162989	-0.713789
C51	C	-4.133162	-0.271054	-0.632224
H52	H	-4.066870	-0.341182	-0.664580
H53	H	-4.063855	-0.247265	-0.533138
C54	C	-4.452497	-0.240372	-0.593531
C55	C	-4.371091	-0.326508	-0.633277
H56	H	-4.599262	-0.274577	-0.594174
H57	H	-4.418732	-0.167564	-0.648478
H58	H	-4.394721	-0.220555	-0.510962
H59	H	-4.428848	-0.346312	-0.715849
H60	H	-4.404872	-0.399322	-0.578343
H61	H	-4.248278	-0.163477	-0.934156
H62	H	-3.591999	-0.145222	-0.755081
