data_functionalizedCrystal
_audit_creation_method	'MofGen! by Chris Wilmer'
_symmetry_space_group_name_H-M	'P1'
_symmetry_Int_Tables_number	1
_symmetry_cell_setting	triclinic
loop_
_symmetry_equiv_pos_as_xyz
  x,y,z
_cell_length_a	18.215407
_cell_length_b	15.297327
_cell_length_c	18.215399
_cell_angle_alpha	80.351692
_cell_angle_beta	90.016899
_cell_angle_gamma	99.703952
loop_
_atom_site_label
_atom_site_type_symbol
_atom_site_fract_x
_atom_site_fract_y
_atom_site_fract_z
Zn1	Zn	1.074350	-0.359235	0.466749
Zn2	Zn	1.052956	-0.510105	0.364971
Zn3	Zn	0.951279	-0.359256	0.343706
Zn4	Zn	0.929954	-0.510047	0.487994
O5	O	1.002135	-0.434661	0.415855
O6	O	1.174494	-0.379263	0.453256
O7	O	1.039440	-0.490128	0.259171
O8	O	0.985483	-0.233007	0.342236
O9	O	1.158776	-0.490107	0.378481
O10	O	1.075902	-0.232991	0.432636
O11	O	0.964738	-0.379300	0.243547
O12	O	0.845468	-0.379244	0.362837
O13	O	0.949137	-0.490008	0.588156
O14	O	0.829801	-0.490029	0.468846
O15	O	1.055224	-0.379207	0.572547
O16	O	1.018762	-0.636344	0.399082
O17	O	0.928393	-0.636302	0.489466
C18	C	0.810932	-0.434633	0.415840
C19	C	0.729132	-0.434643	0.415854
C20	C	0.455920	-0.492442	0.471002
C21	C	0.532780	-0.492434	0.470998
C22	C	0.549088	-0.376900	0.360723
C23	C	0.472229	-0.376913	0.360726
C24	C	0.425647	-0.434683	0.415869
C25	C	0.579366	-0.434662	0.415862
C26	C	0.662701	-0.434653	0.415857
C27	C	0.342307	-0.434693	0.415874
C28	C	0.968962	-0.669057	0.448903
C29	C	0.954837	-0.769333	0.463066
C30	C	1.103387	-1.051957	0.314882
C31	C	1.116657	-0.957743	0.301572
C32	C	1.076204	-0.910636	0.341944
C33	C	1.022477	-0.957752	0.395629
C34	C	1.009201	-1.051976	0.408937
C35	C	0.982018	-0.910654	0.435999
C36	C	0.928291	-0.957770	0.489684
C37	C	0.915019	-1.051984	0.502990
C38	C	0.955472	-1.099092	0.462617
C39	C	0.995294	-0.816431	0.422692
C40	C	0.901108	-0.816449	0.516746
C41	C	0.887838	-0.910663	0.530057
C42	C	1.194084	-0.434689	0.415871
C43	C	1.275881	-0.434701	0.415878
C44	C	1.002188	-0.434599	0.607799
C45	C	1.002211	-0.434572	0.689594
C46	C	1.035458	-0.199349	0.382694
C47	C	1.049658	-0.099073	0.368562
C48	C	1.002133	-0.434658	0.224648
C49	C	1.002289	-0.434430	0.142818
C50	C	1.057475	-0.376824	0.869654
C51	C	1.057488	-0.376798	0.946509
C52	C	0.947019	-0.492181	0.962753
C53	C	0.947004	-0.492202	0.885898
C54	C	1.002236	-0.434525	0.839351
C55	C	1.002264	-0.434478	0.993061
C56	C	1.002277	-0.434449	1.076391
C57	C	1.002223	-0.434552	0.756016
H58	H	0.447581	-0.329878	0.315826
H59	H	1.102468	-0.329810	0.971178
H60	H	1.160400	-0.919385	0.257862
C61	C	1.054394	-0.764610	0.363645
C62	C	1.046600	-0.777640	0.281819
C63	C	1.105705	-0.725819	0.222770
C64	C	1.172604	-0.660968	0.245548
C65	C	1.180400	-0.647935	0.327378
C66	C	1.121295	-0.699756	0.386427
H67	H	0.997075	-0.825649	0.264954
H68	H	1.099934	-0.735467	0.162194
H69	H	1.216357	-0.622607	0.201837
H70	H	1.229925	-0.599926	0.344243
H71	H	1.127067	-0.690108	0.447003
H72	H	0.944672	-1.175809	0.473453
H73	H	0.557424	-0.539468	0.515892
C74	C	0.600332	-0.313342	0.300078
C75	C	0.567031	-0.249804	0.239434
C76	C	0.618274	-0.186238	0.178791
C77	C	0.702817	-0.186211	0.178791
C78	C	0.736123	-0.249752	0.239437
C79	C	0.684880	-0.313317	0.300080
H80	H	0.504442	-0.249822	0.239432
H81	H	0.593618	-0.139201	0.133897
H82	H	0.740750	-0.139156	0.133899
H83	H	0.798711	-0.249734	0.239439
H84	H	0.709536	-0.360354	0.344975
C85	C	1.147880	-1.103775	0.270476
C86	C	1.133275	-1.207411	0.285114
C87	C	1.177771	-1.259229	0.240703
C88	C	1.236872	-1.207411	0.181655
C89	C	1.251479	-1.103769	0.167014
C90	C	1.206983	-1.051951	0.211425
H91	H	1.089523	-1.245775	0.328828
H92	H	1.166957	-1.335952	0.251541
H93	H	1.269810	-1.245770	0.148779
H94	H	1.295231	-1.065405	0.123301
H95	H	1.217797	-0.975228	0.200587
H96	H	0.844093	-0.949039	0.573767
C97	C	0.886271	-0.555630	1.013957
C98	C	0.886287	-0.555615	1.098495
C99	C	0.825538	-0.619069	1.149698
C100	C	0.764775	-0.682537	1.116363
C101	C	0.764757	-0.682555	1.031821
C102	C	0.825505	-0.619102	0.980618
H103	H	0.931269	-0.508629	1.123176
H104	H	0.825552	-0.619055	1.212282
H105	H	0.719805	-0.729509	1.154266
H106	H	0.719774	-0.729541	1.007140
H107	H	0.825492	-0.619115	0.918034
C108	C	0.855915	-1.103811	0.562039
C109	C	0.774071	-1.090934	0.554145
C110	C	0.714966	-1.142757	0.613193
C111	C	0.737706	-1.207456	0.680136
C112	C	0.819553	-1.220335	0.688033
C113	C	0.878658	-1.168512	0.628984
H114	H	0.757234	-1.043038	0.504587
H115	H	0.654377	-1.133223	0.607347
H116	H	0.693953	-1.245818	0.723848
H117	H	0.836390	-1.268232	0.737591
H118	H	0.939247	-1.178047	0.634830
C119	C	1.118223	-0.313374	0.818451
C120	C	1.126736	-0.210811	0.814566
C121	C	1.187484	-0.147357	0.763364
C122	C	1.239720	-0.186465	0.716047
C123	C	1.231210	-0.289033	0.719929
C124	C	1.170461	-0.352488	0.771131
H125	H	1.088066	-0.181856	0.849595
H126	H	1.193784	-0.071429	0.760491
H127	H	1.284690	-0.139493	0.678144
H128	H	1.269880	-0.317988	0.684900
H129	H	1.164162	-0.428415	0.774005
H130	H	1.087011	-0.833923	0.331103
H131	H	0.902017	-0.539188	0.861226
C132	C	0.404678	-0.555993	0.531654
C133	C	0.341820	-0.626781	0.509654
C134	C	0.290580	-0.690336	0.570305
C135	C	0.302197	-0.683103	0.652956
C136	C	0.365058	-0.612312	0.674960
C137	C	0.416298	-0.548757	0.614309
H138	H	0.333217	-0.632137	0.448467
H139	H	0.244046	-0.742740	0.554016
H140	H	0.264266	-0.730150	0.697854
H141	H	0.373661	-0.606955	0.736147
H142	H	0.462832	-0.496353	0.630598
H143	H	0.868166	-0.778095	0.549620
