data_functionalizedCrystal
_audit_creation_method	'MofGen! by Chris Wilmer'
_symmetry_space_group_name_H-M	'P1'
_symmetry_Int_Tables_number	1
_symmetry_cell_setting	triclinic
loop_
_symmetry_equiv_pos_as_xyz
  x,y,z
_cell_length_a	18.215407
_cell_length_b	13.032721
_cell_length_c	18.215407
_cell_angle_alpha	82.830864
_cell_angle_beta	90.010236
_cell_angle_gamma	97.205008
loop_
_atom_site_label
_atom_site_type_symbol
_atom_site_fract_x
_atom_site_fract_y
_atom_site_fract_z
Zn1	Zn	1.087789	-0.416218	0.453336
Zn2	Zn	1.587789	0.083782	0.953336
Zn3	Zn	1.072097	-0.590939	0.345894
Zn4	Zn	1.572097	-0.090939	0.845894
Zn5	Zn	0.964743	-0.416204	0.330282
Zn6	Zn	1.464743	0.083796	0.830282
Zn7	Zn	0.949067	-0.590929	0.468918
Zn8	Zn	1.449067	-0.090929	0.968918
O9	O	1.018424	-0.503573	0.399608
O10	O	1.518424	-0.003573	0.899608
O11	O	1.188691	-0.439405	0.439096
O12	O	1.688691	0.060595	0.939096
O13	O	1.057849	-0.567759	0.240839
O14	O	1.557849	-0.067759	0.740839
O15	O	0.994194	-0.269961	0.333551
O16	O	1.494194	0.230039	0.833551
O17	O	1.177162	-0.567772	0.360159
O18	O	1.677162	-0.067772	0.860159
O19	O	1.084595	-0.269971	0.423958
O20	O	1.584595	0.230029	0.923958
O21	O	0.978977	-0.439382	0.229369
O22	O	1.478977	0.060618	0.729369
O23	O	0.859681	-0.439372	0.348660
O24	O	1.359681	0.060628	0.848660
O25	O	0.967475	-0.567755	0.569835
O26	O	1.467475	-0.067755	1.069835
O27	O	0.848163	-0.567741	0.450515
O28	O	1.348163	-0.067741	0.950515
O29	O	1.069394	-0.439395	0.558387
O30	O	1.569394	0.060605	1.058387
O31	O	1.042648	-0.737183	0.375268
O32	O	1.542648	-0.237183	0.875268
O33	O	0.952259	-0.737175	0.465654
O34	O	1.452259	-0.237175	0.965654
C35	C	0.827219	-0.503555	0.399585
C36	C	1.327219	-0.003555	0.899585
C37	C	0.745419	-0.503572	0.399595
C38	C	1.245419	-0.003572	0.899595
C39	C	0.551238	-0.570519	0.452581
C40	C	1.051238	-0.070519	0.952581
C41	C	0.474379	-0.570523	0.452591
C42	C	0.974379	-0.070523	0.952591
C43	C	0.486361	-0.436645	0.346652
C44	C	0.986361	0.063355	0.846652
C45	C	0.563219	-0.436637	0.346646
C46	C	1.063219	0.063363	0.846646
C47	C	0.595655	-0.503580	0.399610
C48	C	1.095655	-0.003580	0.899610
C49	C	0.441938	-0.503591	0.399625
C50	C	0.941938	-0.003591	0.899625
C51	C	0.358604	-0.503594	0.399635
C52	C	0.858604	-0.003594	0.899635
C53	C	0.678994	-0.503576	0.399601
C54	C	1.178994	-0.003576	0.899601
C55	C	0.994070	-0.775098	0.423862
C56	C	1.494070	-0.275098	0.923862
C57	C	0.983718	-0.891258	0.434263
C58	C	1.483718	-0.391258	0.934263
C59	C	1.023866	-0.943015	0.394212
C60	C	1.523866	-0.443015	0.894212
C61	C	1.013168	-1.063072	0.404961
C62	C	1.513168	-0.563072	0.904961
C63	C	1.210375	-0.503591	0.399631
C64	C	1.710375	-0.003591	0.899631
C65	C	1.292173	-0.503599	0.399641
C66	C	1.792173	-0.003599	0.899641
C67	C	1.018436	-0.503575	0.591561
C68	C	1.518436	-0.003575	1.091561
C69	C	1.018442	-0.503577	0.673360
C70	C	1.518442	-0.003577	1.173360
C71	C	1.042893	-0.230987	0.375274
C72	C	1.542893	0.269013	0.875274
C73	C	1.053321	-0.114827	0.364905
C74	C	1.553321	0.385173	0.864905
C75	C	1.071495	-0.436751	0.855595
C76	C	1.571495	0.063249	1.355595
C77	C	1.071491	-0.436750	0.932453
C78	C	1.571491	0.063250	1.432453
C79	C	0.965363	-0.570418	0.944364
C80	C	1.465363	-0.070418	1.444364
C81	C	0.965364	-0.570412	0.867506
C82	C	1.465364	-0.070412	1.367506
C83	C	1.018435	-0.503580	0.823123
C84	C	1.518435	-0.003580	1.323123
C85	C	1.018429	-0.503585	0.976840
C86	C	1.518429	-0.003585	1.476840
C87	C	1.018424	-0.503585	1.060174
C88	C	1.518424	-0.003585	1.560174
C89	C	1.018439	-0.503579	0.739784
C90	C	1.518439	-0.003579	1.239784
C91	C	1.018410	-0.503592	1.208403
C92	C	1.518410	-0.003592	1.708403
C93	C	1.018422	-0.503589	1.126604
C94	C	1.518422	-0.003589	1.626604
H95	H	0.577645	-0.625026	0.495710
H96	H	1.077645	-0.125026	0.995710
Cl97	Cl	0.418543	-0.654677	0.519187
Cl98	Cl	0.918543	-0.154677	1.019187
Cl99	Cl	0.619062	-0.352471	0.280053
Cl100	Cl	1.119062	0.147529	0.780053
H101	H	0.459942	-0.382144	0.303529
H102	H	0.959942	0.117856	0.803529
H103	H	1.095618	-1.070261	0.322659
H104	H	1.595618	-0.570261	0.822659
Cl105	Cl	0.947872	-1.131874	0.470195
Cl106	Cl	1.447872	-0.631874	0.970195
H107	H	0.941430	-0.935829	0.476512
H108	H	1.441430	-0.435829	0.976512
H109	H	1.066160	-0.898447	0.351969
H110	H	1.566160	-0.398447	0.851969
Cl111	Cl	1.138209	-0.352729	0.799802
Cl112	Cl	1.638209	0.147271	1.299802
Cl113	Cl	1.138205	-0.352741	0.973272
Cl114	Cl	1.638205	0.147259	1.473272
H115	H	0.922157	-0.624832	0.980509
H116	H	1.422157	-0.124832	1.480509
Cl117	Cl	0.898650	-0.654428	0.826681
Cl118	Cl	1.398650	-0.154428	1.326681
