data_functionalizedCrystal
_audit_creation_method	'MofGen! by Chris Wilmer'
_symmetry_space_group_name_H-M	'P1'
_symmetry_Int_Tables_number	1
_symmetry_cell_setting	triclinic
loop_
_symmetry_equiv_pos_as_xyz
  x,y,z
_cell_length_a	12.837943
_cell_length_b	14.044220
_cell_length_c	11.295483
_cell_angle_alpha	94.468632
_cell_angle_beta	85.461227
_cell_angle_gamma	94.008909
loop_
_atom_site_label
_atom_site_type_symbol
_atom_site_fract_x
_atom_site_fract_y
_atom_site_fract_z
O1	O	1.404877	0.242691	-0.099010
O2	O	1.904877	0.742691	0.400990
O3	O	1.101936	0.230415	-0.099017
O4	O	1.601936	0.730415	0.400983
O5	O	1.248859	0.098158	-0.099002
O6	O	1.748859	0.598158	0.400998
O7	O	1.257954	0.374947	-0.099025
O8	O	1.757954	0.874947	0.400975
O9	O	1.235952	0.109755	0.099047
O10	O	1.735952	0.609755	0.599047
O11	O	1.089030	0.242012	0.099032
O12	O	1.589030	0.742012	0.599032
O13	O	1.391970	0.254287	0.099039
O14	O	1.891970	0.754287	0.599039
Cu15	Cu	1.239322	0.249208	0.117119
Cu16	Cu	1.739322	0.749208	0.617119
Cu17	Cu	1.254585	0.235494	-0.117097
Cu18	Cu	1.754585	0.735494	0.382903
O19	O	1.245048	0.386544	0.099024
O20	O	1.745048	0.886544	0.599024
C21	C	1.056479	0.232067	0.000007
C22	C	1.556479	0.732067	0.500007
C23	C	0.940259	0.219699	0.000005
C24	C	1.440259	0.719699	0.500005
C25	C	0.713048	0.368378	0.000009
C26	C	1.213048	0.868378	0.500009
C27	C	0.603848	0.356763	0.000008
C28	C	1.103848	0.856763	0.500008
C29	C	0.612656	0.184853	0.000010
C30	C	1.112656	0.684853	0.500010
C31	C	0.721856	0.196469	0.000011
C32	C	1.221856	0.696469	0.500011
C33	C	0.772048	0.288234	0.000009
C34	C	1.272048	0.788234	0.500009
C35	C	0.881251	0.299849	0.000002
C36	C	1.381251	0.799849	0.500002
C37	C	0.890056	0.127940	0.000012
C38	C	1.390056	0.627940	0.500012
C39	C	0.780856	0.116324	0.000011
C40	C	1.280856	0.616324	0.500011
C41	C	1.238424	0.068282	0.000023
C42	C	1.738424	0.568282	0.500023
C43	C	1.226550	-0.038016	0.000024
C44	C	1.726550	0.461984	0.500024
C45	C	1.204843	-0.232639	0.000007
C46	C	1.704843	0.267361	0.500007
C47	C	1.289060	-0.282665	0.000005
C48	C	1.789060	0.217335	0.500005
C49	C	1.276982	-0.390961	-0.000005
C50	C	1.776982	0.109039	0.499995
C51	C	1.216919	-0.124334	0.000016
C52	C	1.716919	0.375666	0.500016
C53	C	1.437428	0.252635	0.000012
C54	C	1.937428	0.752635	0.500012
C55	C	1.553649	0.265002	0.000007
C56	C	2.053649	0.765002	0.500007
C57	C	1.255482	0.416420	-0.000004
C58	C	1.755482	0.916420	0.499996
C59	C	1.267357	0.522717	-0.000013
C60	C	1.767357	1.022717	0.499987
N61	N	1.228594	0.258854	0.281854
N62	N	1.728594	0.758854	0.781854
N63	N	1.265320	0.225841	-0.281832
N64	N	1.765320	0.725841	0.218168
C65	C	1.342540	0.156351	0.531156
C66	C	1.842540	0.656351	1.031156
C67	C	1.334441	0.163648	0.655818
C68	C	1.834441	0.663648	1.155818
C69	C	1.204292	0.280740	0.655845
C70	C	1.704292	0.780740	1.155845
C71	C	1.212391	0.273443	0.531182
C72	C	1.712391	0.773443	1.031182
C73	C	1.281518	0.211247	0.468842
C74	C	1.781518	0.711247	0.968842
C75	C	1.289622	0.203956	0.344177
C76	C	1.789622	0.703956	0.844177
C77	C	1.159469	0.321042	0.344206
C78	C	1.659469	0.821042	0.844206
C79	C	1.151370	0.328339	0.468869
C80	C	1.651370	0.828339	0.968869
H81	H	0.571765	0.110147	0.000110
H82	H	1.071765	0.610147	0.500110
C83	C	1.095193	-0.284646	0.000014
C84	C	1.595193	0.215354	0.500014
H85	H	1.101358	-0.351663	0.000021
H86	H	1.601358	0.148337	0.500021
H87	H	1.062779	-0.271227	-0.069043
H88	H	1.562779	0.228773	0.430957
H89	H	1.053799	-0.263148	0.069094
H90	H	1.553799	0.236852	0.569094
C91	C	1.398718	-0.230662	0.000022
C92	C	1.898718	0.269338	0.500022
H93	H	1.449970	-0.276293	0.000014
H94	H	1.949970	0.223707	0.500014
H95	H	1.402413	-0.187772	0.069090
H96	H	1.902413	0.312228	0.569090
H97	H	1.411426	-0.195846	-0.069047
H98	H	1.911426	0.304154	0.430953
C99	C	0.954959	0.039778	0.000010
C100	C	1.454959	0.539778	0.500010
H101	H	1.027183	0.059836	0.000015
H102	H	1.527183	0.559836	0.500015
H103	H	0.943367	-0.001482	-0.069054
H104	H	1.443367	0.498518	0.430946
H105	H	0.934375	0.006599	0.069083
H106	H	1.434375	0.506599	0.569083
C107	C	1.075341	0.396752	0.537449
C108	C	1.575341	0.896752	1.037449
H109	H	1.079260	0.393242	0.620619
H110	H	1.579260	0.893242	1.120619
H111	H	1.005939	0.378849	0.517036
H112	H	1.505939	0.878849	1.017036
H113	H	1.093935	0.460385	0.517013
H114	H	1.593935	0.960385	1.017013
H115	H	1.109784	0.365746	0.293456
H116	H	1.609784	0.865746	0.793456
H117	H	1.148003	0.331371	0.706619
H118	H	1.648003	0.831371	1.206619
C119	C	1.365653	0.135541	0.275603
C120	C	1.865653	0.635541	0.775603
H121	H	1.400827	0.103885	0.330575
H122	H	1.900827	0.603885	0.830575
H123	H	1.415511	0.171025	0.226958
H124	H	1.915511	0.671025	0.726958
H125	H	1.327518	0.089488	0.226987
H126	H	1.827518	0.589488	0.726987
C127	C	1.418577	0.087944	0.462578
C128	C	1.918577	0.587944	0.962578
H129	H	1.453759	0.056292	0.517545
H130	H	1.953759	0.556292	1.017545
H131	H	1.468428	0.123435	0.413932
H132	H	1.968428	0.623435	0.913932
H133	H	1.380447	0.041887	0.413961
H134	H	1.880447	0.541887	0.913961
H135	H	1.384129	0.118944	0.706551
H136	H	1.884129	0.618944	1.206551
H137	H	0.739974	0.041612	0.000026
H138	H	1.239974	0.541612	0.500026
H139	H	0.922115	0.374569	0.000002
H140	H	1.422115	0.874569	0.500002
H141	H	0.753915	0.443098	0.000006
H142	H	1.253915	0.943098	0.500006
H143	H	0.555814	0.422025	0.000012
H144	H	1.055814	0.922025	0.500012
