data_functionalizedCrystal
_audit_creation_method	'MofGen! by Chris Wilmer'
_symmetry_space_group_name_H-M	'P1'
_symmetry_Int_Tables_number	1
_symmetry_cell_setting	triclinic
loop_
_symmetry_equiv_pos_as_xyz
  x,y,z
_cell_length_a	10.967926
_cell_length_b	14.044190
_cell_length_c	10.065875
_cell_angle_alpha	99.589132
_cell_angle_beta	93.120479
_cell_angle_gamma	88.857419
loop_
_atom_site_label
_atom_site_type_symbol
_atom_site_fract_x
_atom_site_fract_y
_atom_site_fract_z
O1	O	1.630693	0.165920	0.270014
O2	O	2.130693	0.665920	0.770014
O3	O	1.280941	0.168637	0.187751
O4	O	1.780941	0.668637	0.687751
O5	O	1.450559	0.029111	0.227673
O6	O	1.950559	0.529111	0.727673
O7	O	1.461075	0.305446	0.230093
O8	O	1.961075	0.805446	0.730093
O9	O	1.418227	0.055829	0.447052
O10	O	1.918227	0.555829	0.947052
O11	O	1.248609	0.195355	0.407130
O12	O	1.748609	0.695355	0.907130
O13	O	1.598361	0.192638	0.489393
O14	O	2.098361	0.692638	0.989393
Zn15	Zn	1.418352	0.198238	0.483093
Zn16	Zn	1.918352	0.698238	0.983093
Zn17	Zn	1.460950	0.163037	0.194052
Zn18	Zn	1.960950	0.663037	0.694052
O19	O	1.428743	0.332164	0.449472
O20	O	1.928743	0.832164	0.949472
C21	C	1.219743	0.179779	0.286850
C22	C	1.719743	0.679779	0.786850
C23	C	1.085563	0.173164	0.255292
C24	C	1.585563	0.673164	0.755292
C25	C	1.008993	0.184055	0.354867
C26	C	1.508993	0.684055	0.854867
C27	C	0.870310	0.177217	0.322252
C28	C	1.370310	0.677217	0.822252
C29	C	1.429795	0.006993	0.336285
C30	C	1.929795	0.506993	0.836285
C31	C	1.416081	-0.098716	0.333071
C32	C	1.916081	0.401284	0.833071
C33	C	1.488272	-0.346456	0.349997
C34	C	1.988272	0.153544	0.849997
C35	C	1.391037	-0.292265	0.327137
C36	C	1.891037	0.207735	0.827137
C37	C	1.404975	-0.184565	0.330440
C38	C	1.904975	0.315435	0.830440
C39	C	1.474336	-0.454166	0.346695
C40	C	1.974336	0.045834	0.846695
C41	C	1.659559	0.181495	0.390292
C42	C	2.159559	0.681495	0.890292
C43	C	1.793740	0.188110	0.421841
C44	C	2.293740	0.688110	0.921841
C45	C	1.449507	0.354281	0.340857
C46	C	1.949507	0.854281	0.840857
C47	C	1.463223	0.459990	0.344062
C48	C	1.963223	0.959990	0.844062
N49	N	1.389288	0.222262	0.680358
N50	N	1.889288	0.722262	1.180358
N51	N	1.490023	0.139006	-0.003211
N52	N	1.990023	0.639006	0.496789
C53	C	1.450830	0.171389	0.762622
C54	C	1.950830	0.671389	1.262622
C55	C	1.428472	0.189886	0.914527
C56	C	1.928472	0.689886	1.414527
H57	H	0.833200	0.162828	0.212850
H58	H	1.333200	0.662828	0.712850
H59	H	1.046109	0.198435	0.464262
H60	H	1.546109	0.698435	0.964262
H61	H	0.830849	0.202494	0.531245
H62	H	1.330849	0.702494	1.031245
H63	H	1.048448	0.158775	0.145896
H64	H	1.548448	0.658775	0.645896
C65	C	1.334930	0.267229	0.971287
C66	C	1.834930	0.767229	1.471287
H67	H	1.332180	0.269520	1.065939
H68	H	1.832180	0.769520	1.565939
H69	H	1.256532	0.251463	0.929519
H70	H	1.756532	0.751463	1.429519
H71	H	1.358387	0.328429	0.953440
H72	H	1.858387	0.828429	1.453440
C73	C	1.614861	-0.299870	0.379801
C74	C	2.114861	0.200130	0.879801
H75	H	1.674042	-0.348032	0.393707
H76	H	2.174042	0.151968	0.893707
H77	H	1.613037	-0.252121	0.458538
H78	H	2.113037	0.247879	0.958538
H79	H	1.635610	-0.270722	0.305528
H80	H	2.135610	0.229278	0.805528
H81	H	1.559264	0.081750	0.954764
H82	H	2.059264	0.581750	1.454764
H83	H	1.520066	0.114137	0.720593
H84	H	2.020066	0.614137	1.220593
H85	H	1.297324	-0.326756	0.305088
H86	H	1.797324	0.173244	0.805088
H87	H	1.320042	0.279506	0.722386
H88	H	1.820042	0.779506	1.222386
