data_functionalizedCrystal
_audit_creation_method	'MofGen! by Chris Wilmer'
_symmetry_space_group_name_H-M	'P1'
_symmetry_Int_Tables_number	1
_symmetry_cell_setting	triclinic
loop_
_symmetry_equiv_pos_as_xyz
  x,y,z
_cell_length_a	16.120484
_cell_length_b	21.395362
_cell_length_c	21.395356
_cell_angle_alpha	90.035878
_cell_angle_beta	92.870655
_cell_angle_gamma	87.057600
loop_
_atom_site_label
_atom_site_type_symbol
_atom_site_fract_x
_atom_site_fract_y
_atom_site_fract_z
Zn1	Zn	-0.331576	-0.945196	-0.367212
Zn2	Zn	0.168424	-0.445196	0.132788
Zn3	Zn	-0.470997	-0.939809	-0.267744
Zn4	Zn	0.029003	-0.439809	0.232256
Zn5	Zn	-0.331639	-0.840423	-0.262416
Zn6	Zn	0.168361	-0.340423	0.237584
Zn7	Zn	-0.470991	-0.835077	-0.372448
Zn8	Zn	0.029009	-0.335077	0.127552
O9	O	-0.401301	-0.890126	-0.317455
O10	O	0.098699	-0.390126	0.182545
O11	O	-0.350047	-1.032160	-0.354056
O12	O	0.149953	-0.532160	0.145944
O13	O	-0.452540	-0.926609	-0.179360
O14	O	0.047460	-0.426609	0.320640
O15	O	-0.214963	-0.858814	-0.271896
O16	O	0.285037	-0.358814	0.228104
O17	O	-0.452479	-1.028203	-0.280977
O18	O	0.047521	-0.528203	0.219023
O19	O	-0.214917	-0.935790	-0.348889
O20	O	0.285083	-0.435790	0.151111
O21	O	-0.350154	-0.853590	-0.175446
O22	O	0.149846	-0.353590	0.324554
O23	O	-0.350147	-0.752035	-0.276973
O24	O	0.149853	-0.252035	0.223027
O25	O	-0.452469	-0.849701	-0.459430
O26	O	0.047531	-0.349701	0.040570
O27	O	-0.452529	-0.748107	-0.357814
O28	O	0.047471	-0.248107	0.142186
O29	O	-0.350041	-0.930605	-0.455583
O30	O	0.149959	-0.430605	0.044417
O31	O	-0.587664	-0.921424	-0.286054
O32	O	-0.087664	-0.421424	0.213946
O33	O	-0.587660	-0.844478	-0.362980
O34	O	-0.087660	-0.344478	0.137020
C35	C	-0.401345	-0.727337	-0.317384
C36	C	0.098655	-0.227337	0.182616
C37	C	-0.401384	-0.657694	-0.317369
C38	C	0.098616	-0.157694	0.182631
C39	C	-0.617913	-0.881803	-0.325677
C40	C	-0.117913	-0.381803	0.174323
C41	C	-0.710580	-0.878300	-0.329216
C42	C	-0.210580	-0.378300	0.170784
C43	C	-0.401247	-0.890157	-0.480876
C44	C	0.098753	-0.390157	0.019124
C45	C	-0.401224	-0.890171	-0.550517
C46	C	0.098776	-0.390171	-0.050517
C47	C	-0.880244	-0.871908	-0.335689
C48	C	-0.380244	-0.371908	0.164311
C49	C	-0.921517	-0.908457	-0.299231
C50	C	-0.421517	-0.408457	0.200769
C51	C	-1.015924	-0.904900	-0.302833
C52	C	-0.515924	-0.404900	0.197167
C53	C	-0.785829	-0.875464	-0.332088
C54	C	-0.285829	-0.375464	0.167912
C55	C	-0.183843	-0.898499	-0.309214
C56	C	0.316157	-0.398499	0.190786
C57	C	-0.091176	-0.902067	-0.305703
C58	C	0.408824	-0.402067	0.194297
C59	C	-0.401257	-1.053551	-0.317527
C60	C	0.098743	-0.553551	0.182473
C61	C	-0.401239	-1.123193	-0.317557
C62	C	0.098761	-0.623193	0.182443
C63	C	-0.454765	-0.622949	-0.359405
C64	C	0.045235	-0.122949	0.140595
C65	C	-0.454744	-0.557515	-0.359433
C66	C	0.045256	-0.057515	0.140567
C67	C	-0.401352	-0.526827	-0.317413
C68	C	0.098648	-0.026827	0.182587
C69	C	-0.347961	-0.561580	-0.275373
C70	C	0.152039	-0.061580	0.224627
C71	C	-0.347977	-0.627014	-0.275351
C72	C	0.152023	-0.127014	0.224649
C73	C	-0.394648	-0.423365	-0.260752
C74	C	0.105352	0.076635	0.239248
C75	C	-0.394638	-0.357933	-0.260773
C76	C	0.105362	0.142067	0.239227
C77	C	-0.401297	-0.325009	-0.317480
C78	C	0.098703	0.174991	0.182520
C79	C	-0.407985	-0.357524	-0.374168
C80	C	0.092015	0.142476	0.125832
C81	C	-0.408001	-0.422958	-0.374146
C82	C	0.091999	0.077042	0.125854
C83	C	-0.401328	-0.455876	-0.317432
C84	C	0.098672	0.044124	0.182568
C85	C	-0.454659	-0.219312	-0.359549
C86	C	0.045341	0.280688	0.140451
C87	C	-0.454633	-0.153876	-0.359577
C88	C	0.045367	0.346124	0.140423
C89	C	-0.347853	-0.157943	-0.275512
C90	C	0.152147	0.342057	0.224488
C91	C	-0.347875	-0.223377	-0.275489
C92	C	0.152125	0.276623	0.224511
C93	C	-0.401282	-0.254058	-0.317507
C94	C	0.098718	0.245942	0.182493
C95	C	-0.347758	-0.932361	-1.050306
C96	C	0.152242	-0.432361	-0.550306
C97	C	-0.347778	-0.932356	-0.984871
C98	C	0.152222	-0.432356	-0.484871
C99	C	-0.401113	-0.890229	-0.954151
C100	C	0.098887	-0.390229	-0.454151
C101	C	-0.454448	-0.848115	-0.988872
C102	C	0.045552	-0.348115	-0.488872
C103	C	-0.454432	-0.848126	-1.054305
C104	C	0.045568	-0.348126	-0.554305
C105	C	-0.407737	-0.833508	-0.850708
C106	C	0.092263	-0.333508	-0.350708
C107	C	-0.407747	-0.833496	-0.785275
C108	C	0.092253	-0.333496	-0.285275
C109	C	-0.401167	-0.890194	-0.752332
C110	C	0.098833	-0.390194	-0.252332
C111	C	-0.394560	-0.946908	-0.784829
C112	C	0.105440	-0.446908	-0.284829
C113	C	-0.394544	-0.946919	-0.850262
C114	C	0.105456	-0.446919	-0.350262
C115	C	-0.401137	-0.890212	-0.883199
C116	C	0.098863	-0.390212	-0.383199
C117	C	-0.347861	-0.932302	-0.646668
C118	C	0.152139	-0.432302	-0.146668
C119	C	-0.347887	-0.932298	-0.581232
C120	C	0.152113	-0.432298	-0.081232
C121	C	-0.454553	-0.848051	-0.585234
C122	C	0.045447	-0.348051	-0.085234
C123	C	-0.454532	-0.848061	-0.650668
C124	C	0.045468	-0.348061	-0.150668
C125	C	-0.401181	-0.890186	-0.681381
C126	C	0.098819	-0.390186	-0.181381
C127	C	-0.401294	-0.890134	-0.154667
C128	C	0.098706	-0.390134	0.345333
C129	C	-0.401082	-0.890251	-0.085018
C130	C	0.098918	-0.390251	0.414982
H131	H	-0.885949	-0.942419	-0.265314
H132	H	-0.385949	-0.442419	0.234686
H133	H	-0.915809	-0.837948	-0.369603
H134	H	-0.415809	-0.337948	0.130397
H135	H	-0.498252	-0.647925	-0.393620
H136	H	0.001748	-0.147925	0.106380
Br137	Br	-0.275441	-0.989457	-0.688353
Br138	Br	0.224559	-0.489457	-0.188353
Br139	Br	-0.526838	-0.790945	-0.947182
Br140	Br	-0.026838	-0.290945	-0.447182
Br141	Br	-0.275426	-0.270535	-0.218437
Br142	Br	0.224574	0.229465	0.281563
H143	H	-0.389199	-0.993077	-0.758008
H144	H	0.110801	-0.493077	-0.258008
H145	H	-0.304319	-0.966666	-1.075308
H146	H	0.195681	-0.466666	-0.575308
H147	H	-0.413443	-0.449429	-0.420304
H148	H	0.086557	0.050571	0.079696
Br149	Br	-0.417021	-0.312850	-0.451133
Br150	Br	0.082979	0.187150	0.048867
H151	H	-0.498213	-0.529220	-0.393666
H152	H	0.001787	-0.029220	0.106334
H153	H	-0.498142	-0.244293	-0.393765
H154	H	0.001858	0.255707	0.106235
H155	H	-0.498100	-0.125588	-0.393812
H156	H	0.001900	0.374412	0.106188
H157	H	-0.304376	-0.132958	-0.241301
H158	H	0.195624	0.367042	0.258699
Br159	Br	-0.385564	-0.313811	-0.183840
Br160	Br	0.114436	0.186189	0.316160
H161	H	-0.389222	-0.450167	-0.214571
H162	H	0.110778	0.049833	0.285429
H163	H	-0.304487	-0.536590	-0.241161
H164	H	0.195513	-0.036590	0.258839
H165	H	-0.389166	-0.993096	-0.876719
H166	H	0.110834	-0.493096	-0.376719
H167	H	-0.304505	-0.655303	-0.241120
H168	H	0.195495	-0.155303	0.258880
H169	H	-0.304352	-0.966647	-0.956603
H170	H	0.195648	-0.466647	-0.456603
Br171	Br	-0.275519	-0.989458	-0.534121
Br172	Br	0.224481	-0.489458	-0.034121
H173	H	-0.497983	-0.813753	-0.560222
H174	H	0.002017	-0.313753	-0.060222
Br175	Br	-0.526905	-0.790908	-0.697781
Br176	Br	-0.026905	-0.290908	-0.197781
Br177	Br	-0.416701	-0.756529	-0.741179
Br178	Br	0.083299	-0.256529	-0.241179
Br179	Br	-0.526809	-0.790973	-1.101418
Br180	Br	-0.026809	-0.290973	-0.601418
Br181	Br	-0.416657	-0.756552	-0.895410
Br182	Br	0.083343	-0.256552	-0.395410
