data_functionalizedCrystal
_audit_creation_method	'MofGen! by Chris Wilmer'
_symmetry_space_group_name_H-M	'P1'
_symmetry_Int_Tables_number	1
_symmetry_cell_setting	triclinic
loop_
_symmetry_equiv_pos_as_xyz
  x,y,z
_cell_length_a	19.077105
_cell_length_b	16.625546
_cell_length_c	16.625539
_cell_angle_alpha	90.028532
_cell_angle_beta	92.314163
_cell_angle_gamma	87.718759
loop_
_atom_site_label
_atom_site_type_symbol
_atom_site_fract_x
_atom_site_fract_y
_atom_site_fract_z
Zn1	Zn	1.075977	-0.370618	0.505359
Zn2	Zn	1.409310	-0.037285	0.838692
Zn3	Zn	1.742644	0.296049	1.172026
Zn4	Zn	1.075900	-0.505453	0.370518
Zn5	Zn	1.409233	-0.172120	0.703851
Zn6	Zn	1.742566	0.161213	1.037185
Zn7	Zn	0.958284	-0.365216	0.365129
Zn8	Zn	1.291618	-0.031883	0.698463
Zn9	Zn	1.624951	0.301450	1.031796
Zn10	Zn	0.958251	-0.499985	0.499900
Zn11	Zn	1.291585	-0.166652	0.833233
Zn12	Zn	1.624918	0.166681	1.166566
O13	O	1.017103	-0.435318	0.435227
O14	O	1.350436	-0.101985	0.768560
O15	O	1.683770	0.231348	1.101893
O16	O	1.174458	-0.393053	0.492012
O17	O	1.507791	-0.059720	0.825345
O18	O	1.841124	0.273613	1.158679
O19	O	1.060279	-0.486878	0.256970
O20	O	1.393613	-0.153545	0.590303
O21	O	1.726946	0.179788	0.923636
O22	O	0.973943	-0.253103	0.383761
O23	O	1.307276	0.080231	0.717094
O24	O	1.640609	0.413564	1.050428
O25	O	1.174401	-0.492116	0.392945
O26	O	1.507734	-0.158783	0.726278
O27	O	1.841067	0.174550	1.059611
O28	O	1.060411	-0.257071	0.486787
O29	O	1.393744	0.076262	0.820120
O30	O	1.727078	0.409595	1.153454
O31	O	0.973868	-0.383847	0.253011
O32	O	1.307201	-0.050513	0.586344
O33	O	1.640535	0.282820	0.919678
O34	O	0.859789	-0.378545	0.378467
O35	O	1.193123	-0.045211	0.711800
O36	O	1.526456	0.288122	1.045134
O37	O	0.973887	-0.482797	0.613457
O38	O	1.307220	-0.149463	0.946790
O39	O	1.640553	0.183870	1.280124
O40	O	0.859765	-0.477559	0.477482
O41	O	1.193098	-0.144225	0.810815
O42	O	1.526432	0.189108	1.144149
O43	O	1.060379	-0.387751	0.617468
O44	O	1.393712	-0.054418	0.950802
O45	O	1.727046	0.278915	1.284135
O46	O	1.060247	-0.617558	0.387651
O47	O	1.393581	-0.284225	0.720984
O48	O	1.726914	0.049108	1.054318
O49	O	0.973812	-0.613541	0.482707
O50	O	1.307145	-0.280207	0.816040
O51	O	1.640478	0.053126	1.149374
C52	C	0.834240	-0.426873	0.426798
C53	C	1.167573	-0.093539	0.760131
C54	C	1.500906	0.239794	1.093465
C55	C	0.756010	-0.423279	0.423211
C56	C	1.089343	-0.089946	0.756545
C57	C	1.422676	0.243388	1.089878
C58	C	1.017037	-0.644806	0.435190
C59	C	1.350370	-0.311473	0.768523
C60	C	1.683703	0.021861	1.101856
C61	C	1.017072	-0.734429	0.435204
C62	C	1.350406	-0.401095	0.768537
C63	C	1.683739	-0.067762	1.101871
C64	C	0.719263	-0.473220	0.472997
C65	C	1.052596	-0.139887	0.806330
C66	C	1.385930	0.193447	1.139664
C67	C	0.645758	-0.469833	0.469631
C68	C	0.979091	-0.136499	0.802964
C69	C	1.312424	0.196834	1.136298
C70	C	0.609000	-0.416508	0.416474
C71	C	0.942334	-0.083175	0.749808
C72	C	1.275667	0.250159	1.083141
C73	C	0.645752	-0.366562	0.366687
C74	C	0.979086	-0.033228	0.700020
C75	C	1.312419	0.300105	1.033353
C76	C	0.719256	-0.369946	0.370057
C77	C	1.052590	-0.036612	0.703391
C78	C	1.385923	0.296721	1.036724
C79	C	0.389167	-0.400848	0.400878
C80	C	0.722500	-0.067515	0.734211
C81	C	1.055833	0.265819	1.067544
C82	C	0.315657	-0.397470	0.397509
C83	C	0.648991	-0.064136	0.730842
C84	C	0.982324	0.269197	1.064175
C85	C	0.315668	-0.500740	0.500455
C86	C	0.649001	-0.167407	0.833788
C87	C	0.982334	0.165927	1.167121
C88	C	0.389173	-0.504122	0.503817
C89	C	0.722506	-0.170789	0.837151
C90	C	1.055840	0.162544	1.170484
C91	C	0.425919	-0.454173	0.454033
C92	C	0.759252	-0.120840	0.787366
C93	C	1.092585	0.212494	1.120699
N94	N	0.533866	-0.413046	0.413030
N95	N	0.867200	-0.079713	0.746364
N96	N	1.200533	0.253620	1.079697
N97	N	0.501051	-0.457631	0.457481
N98	N	0.834385	-0.124298	0.790814
N99	N	1.167718	0.209035	1.124148
C100	C	1.017195	-1.062610	0.435294
C101	C	1.350529	-0.729277	0.768627
C102	C	1.683862	-0.395943	1.101960
C103	C	1.017159	-0.971300	0.435271
C104	C	1.350492	-0.637967	0.768604
C105	C	1.683825	-0.304633	1.101937
C106	C	1.017133	-0.898522	0.435248
C107	C	1.350467	-0.565189	0.768582
C108	C	1.683800	-0.231856	1.101915
C109	C	1.017098	-0.807206	0.435226
C110	C	1.350431	-0.473873	0.768560
C111	C	1.683765	-0.140540	1.101893
C112	C	1.200681	-0.443797	0.443689
C113	C	1.534014	-0.110464	0.777022
C114	C	1.867347	0.222869	1.110355
C115	C	1.278911	-0.447411	0.447294
C116	C	1.612244	-0.114077	0.780628
C117	C	1.945577	0.219256	1.113961
C118	C	1.017138	-0.435267	0.645537
C119	C	1.350471	-0.101933	0.978870
C120	C	1.683804	0.231400	1.312204
C121	C	1.017152	-0.435245	0.735159
C122	C	1.350486	-0.101911	1.068492
C123	C	1.683819	0.231422	1.401826
C124	C	1.017189	-0.225013	0.435282
C125	C	1.350523	0.108320	0.768615
C126	C	1.683856	0.441653	1.101949
C127	C	1.017226	-0.135394	0.435306
C128	C	1.350559	0.197940	0.768639
C129	C	1.683893	0.531273	1.101972
C130	C	1.017109	-0.435313	0.225736
C131	C	1.350443	-0.101980	0.559069
C132	C	1.683776	0.231353	0.892403
C133	C	1.017231	-0.435114	0.136121
C134	C	1.350564	-0.101781	0.469454
C135	C	1.683898	0.231552	0.802788
C136	C	1.017164	-0.435227	0.807942
C137	C	1.350497	-0.101894	1.141275
C138	C	1.683830	0.231439	1.474609
C139	C	1.017180	-0.435198	0.899251
C140	C	1.350514	-0.101865	1.232585
C141	C	1.683847	0.231469	1.565918
C142	C	1.017197	-0.435170	0.972029
C143	C	1.350530	-0.101837	1.305362
C144	C	1.683863	0.231496	1.638695
C145	C	1.017214	-0.435142	1.063344
C146	C	1.350548	-0.101809	1.396677
C147	C	1.683881	0.231525	1.730010
H148	H	0.749185	-0.516645	0.516280
H149	H	1.082519	-0.183312	0.849614
H150	H	1.415852	0.150021	1.182947
H151	H	0.749175	-0.329274	0.329521
H152	H	1.082508	0.004059	0.662854
H153	H	1.415841	0.337393	0.996187
Cl154	Cl	0.435377	-0.571164	0.570643
Cl155	Cl	0.768710	-0.237830	0.903977
Cl156	Cl	1.102043	0.095503	1.237310
H157	H	0.615819	-0.323140	0.323409
H158	H	0.949152	0.010193	0.656742
H159	H	1.282486	0.343526	0.990076
Cl160	Cl	0.599565	-0.532619	0.532222
Cl161	Cl	0.932898	-0.199285	0.865555
Cl162	Cl	1.266231	0.134048	1.198889
H163	H	0.285742	-0.541405	0.540988
H164	H	0.619075	-0.208071	0.874321
H165	H	0.952408	0.125262	1.207654
H166	H	0.285732	-0.354037	0.354227
H167	H	0.619065	-0.020704	0.687561
H168	H	0.952398	0.312630	1.020894
Cl169	Cl	0.435351	-0.338052	0.338293
Cl170	Cl	0.768685	-0.004718	0.671626
Cl171	Cl	1.102018	0.328615	1.004959
