data_functionalizedCrystal
_audit_creation_method	'MofGen! by Chris Wilmer'
_symmetry_space_group_name_H-M	'P1'
_symmetry_Int_Tables_number	1
_symmetry_cell_setting	triclinic
loop_
_symmetry_equiv_pos_as_xyz
  x,y,z
_cell_length_a	14.853558
_cell_length_b	14.853567
_cell_length_c	13.330367
_cell_angle_alpha	89.999156
_cell_angle_beta	89.992972
_cell_angle_gamma	83.633032
loop_
_atom_site_label
_atom_site_type_symbol
_atom_site_fract_x
_atom_site_fract_y
_atom_site_fract_z
O1	O	1.196374	0.117664	-0.083403
O2	O	1.696374	0.617664	0.416597
O3	O	0.933913	0.131694	-0.083406
O4	O	1.433913	0.631694	0.416594
O5	O	1.072154	-0.006551	-0.083407
O6	O	1.572154	0.493449	0.416593
O7	O	1.058133	0.255909	-0.083401
O8	O	1.558133	0.755909	0.416599
O9	O	1.072134	-0.006554	0.083440
O10	O	1.572134	0.493446	0.583440
O11	O	0.933893	0.131691	0.083441
O12	O	1.433893	0.631691	0.583441
O13	O	1.196354	0.117661	0.083445
O14	O	1.696354	0.617661	0.583445
Cu15	Cu	1.065122	0.124675	0.098677
Cu16	Cu	1.565122	0.624675	0.598677
Cu17	Cu	1.065145	0.124679	-0.098639
Cu18	Cu	1.565145	0.624679	0.401361
O19	O	1.058113	0.255906	0.083446
O20	O	1.558113	0.755906	0.583446
C21	C	0.900314	0.131058	0.000017
C22	C	1.400314	0.631058	0.500017
C23	C	0.800230	0.129158	0.000015
C24	C	1.300230	0.629158	0.500015
C25	C	0.753221	0.128268	-0.090937
C26	C	1.253221	0.628268	0.409063
C27	C	0.753198	0.128254	0.090966
C28	C	1.253198	0.628254	0.590966
C29	C	0.659164	0.126463	0.090968
C30	C	1.159164	0.626463	0.590968
C31	C	0.612155	0.125574	0.000015
C32	C	1.112155	0.625574	0.500015
C33	C	0.659179	0.126475	-0.090938
C34	C	1.159179	0.626475	0.409062
C35	C	0.612134	0.125553	0.181920
C36	C	1.112134	0.625553	0.681920
C37	C	0.518094	0.123762	0.181925
C38	C	1.018094	0.623762	0.681925
C39	C	0.471083	0.122879	0.090972
C40	C	0.971083	0.622879	0.590972
C41	C	0.518113	0.123781	0.000014
C42	C	1.018113	0.623781	0.500014
C43	C	0.471103	0.122891	-0.090938
C44	C	0.971103	0.622891	0.409062
C45	C	0.518131	0.123799	-0.181897
C46	C	1.018131	0.623799	0.318103
C47	C	0.612167	0.125592	-0.181892
C48	C	1.112167	0.625592	0.318108
C49	C	0.377046	0.121086	0.090967
C50	C	0.877046	0.621086	0.590967
C51	C	0.377061	0.121098	-0.090939
C52	C	0.877061	0.621098	0.409061
C53	C	1.071509	-0.040141	0.000013
C54	C	1.571509	0.459859	0.500013
C55	C	1.069605	-0.140225	0.000005
C56	C	1.569605	0.359775	0.500005
C57	C	0.979439	-0.552756	0.000022
C58	C	1.479439	-0.052756	0.500022
C59	C	1.143673	-0.574042	0.000025
C60	C	1.643673	-0.074042	0.500025
C61	C	1.145463	-0.480009	0.000019
C62	C	1.645463	0.019991	0.500019
C63	C	1.064240	-0.422344	0.000016
C64	C	1.564240	0.077656	0.500016
C65	C	0.981227	-0.458713	0.000020
C66	C	1.481227	0.041287	0.500020
C67	C	1.228474	-0.443632	0.000026
C68	C	1.728474	0.056368	0.500026
C69	C	1.230268	-0.349593	0.000021
C70	C	1.730268	0.150407	0.500021
C71	C	1.149044	-0.291927	0.000011
C72	C	1.649044	0.208073	0.500011
C73	C	1.066027	-0.328301	0.000013
C74	C	1.566027	0.171699	0.500013
C75	C	0.984805	-0.270637	0.000011
C76	C	1.484805	0.229363	0.500011
C77	C	0.901787	-0.307009	0.000006
C78	C	1.401787	0.192991	0.500006
C79	C	0.900003	-0.401047	0.000010
C80	C	1.400003	0.098953	0.500010
C81	C	1.150828	-0.197890	0.000007
C82	C	1.650828	0.302110	0.500007
C83	C	0.986592	-0.176594	0.000008
C84	C	1.486592	0.323406	0.500008
C85	C	1.229953	0.118296	0.000019
C86	C	1.729953	0.618296	0.500019
C87	C	1.330037	0.120197	0.000015
C88	C	1.830037	0.620197	0.500015
C89	C	1.058758	0.289496	0.000023
C90	C	1.558758	0.789496	0.500023
C91	C	1.060662	0.389580	0.000025
C92	C	1.560662	0.889580	0.500025
N93	N	1.065112	0.124672	0.237459
N94	N	1.565112	0.624672	0.737459
N95	N	1.065163	0.124675	-0.237420
N96	N	1.565163	0.624675	0.262580
C97	C	1.003930	0.185870	0.710082
C98	C	1.503930	0.685870	1.210082
C99	C	1.126386	0.063481	0.710049
C100	C	1.626386	0.563481	1.210049
C101	C	1.126375	0.063478	0.605031
C102	C	1.626375	0.563478	1.105031
C103	C	1.065142	0.124673	0.552533
C104	C	1.565142	0.624673	1.052533
C105	C	1.003919	0.185871	0.605054
C106	C	1.503919	0.685871	1.105054
C107	C	1.187603	0.002288	0.552502
C108	C	1.687603	0.502288	1.052502
C109	C	1.187596	0.002284	0.447477
C110	C	1.687596	0.502284	0.947477
C111	C	1.126358	0.063475	0.394978
C112	C	1.626358	0.563475	0.894978
C113	C	1.065132	0.124674	0.447505
C114	C	1.565132	0.624674	0.947505
C115	C	1.003899	0.185869	0.395008
C116	C	1.503899	0.685869	0.895008
C117	C	0.942668	0.247065	0.447533
C118	C	1.442668	0.747065	0.947533
C119	C	0.942681	0.247062	0.552555
C120	C	1.442681	0.747062	1.052555
C121	C	1.126345	0.063477	0.289956
C122	C	1.626345	0.563477	0.789956
C123	C	1.003889	0.185870	0.289979
C124	C	1.503889	0.685870	0.789979
H125	H	0.650417	0.126269	0.255968
H126	H	1.150417	0.626269	0.755968
H127	H	0.338792	0.120379	-0.165005
H128	H	0.838792	0.620379	0.334995
H129	H	1.218419	-0.168279	0.000018
H130	H	1.718419	0.331721	0.500018
F131	F	0.662224	0.126549	-0.278687
F132	F	1.162224	0.626549	0.221313
H133	H	0.479813	0.123021	0.255989
H134	H	0.979813	0.623021	0.755989
H135	H	0.920449	-0.129649	0.000001
H136	H	1.420449	0.370351	0.500001
H137	H	1.294601	-0.490589	0.000037
H138	H	1.794601	0.009411	0.500037
F139	F	0.877522	0.312188	0.608459
F140	F	1.377522	0.812188	1.108459
F141	F	0.938710	0.250999	0.234116
F142	F	1.438710	0.750999	0.734116
F143	F	1.318621	-0.310891	0.000014
F144	F	1.818621	0.189109	0.500014
H145	H	1.209801	-0.620998	0.000035
H146	H	1.709801	-0.120998	0.500035
F147	F	0.327002	0.120107	0.187764
F148	F	0.827002	0.620107	0.687764
H149	H	0.479844	0.123070	-0.255950
H150	H	0.979844	0.623070	0.244050
H151	H	0.835656	-0.260047	0.000011
H152	H	1.335656	0.239953	0.500011
F153	F	0.811658	-0.439764	0.000001
F154	F	1.311658	0.060236	0.500001
F155	F	0.891090	-0.591466	0.000009
F156	F	1.391090	-0.091466	0.500009
H157	H	0.892815	0.296894	0.404777
H158	H	1.392815	0.796894	0.904777
F159	F	0.803270	0.129236	-0.187737
F160	F	1.303270	0.629236	0.312263
F161	F	0.938763	0.250993	0.765981
F162	F	1.438763	0.750993	1.265981
H163	H	1.176244	0.013662	0.752796
H164	H	1.676244	0.513662	1.252796
H165	H	1.237462	-0.047531	0.595249
H166	H	1.737462	0.452469	1.095249
H167	H	1.237453	-0.047546	0.404718
H168	H	1.737453	0.452454	0.904718
H169	H	0.791479	0.128971	0.165015
H170	H	1.291479	0.628971	0.665015
F171	F	1.191512	-0.001642	0.234061
F172	F	1.691512	0.498358	0.734061
