data_functionalizedCrystal
_audit_creation_method	'MofGen! by Chris Wilmer'
_symmetry_space_group_name_H-M	'P1'
_symmetry_Int_Tables_number	1
_symmetry_cell_setting	triclinic
loop_
_symmetry_equiv_pos_as_xyz
  x,y,z
_cell_length_a	15.944551
_cell_length_b	10.723024
_cell_length_c	9.198806
_cell_angle_alpha	90.003648
_cell_angle_beta	89.995864
_cell_angle_gamma	96.016696
loop_
_atom_site_label
_atom_site_type_symbol
_atom_site_fract_x
_atom_site_fract_y
_atom_site_fract_z
O1	O	0.117808	-1.655699	-0.120886
O2	O	0.617808	-1.155699	0.379114
O3	O	0.129085	-1.292405	-0.120892
O4	O	0.629085	-0.792405	0.379108
O5	O	0.001228	-1.483973	-0.120876
O6	O	0.501228	-0.983973	0.379124
O7	O	0.245664	-1.464131	-0.120902
O8	O	0.745664	-0.964131	0.379098
O9	O	0.001228	-1.483958	0.120909
O10	O	0.501228	-0.983958	0.620909
O11	O	0.129084	-1.292389	0.120893
O12	O	0.629084	-0.792389	0.620893
O13	O	0.117808	-1.655684	0.120899
O14	O	0.617808	-1.155684	0.620899
Cu15	Cu	0.123446	-1.474035	0.142973
Cu16	Cu	0.623446	-0.974035	0.642973
Cu17	Cu	0.123446	-1.474053	-0.142966
Cu18	Cu	0.623446	-0.974053	0.357034
O19	O	0.245664	-1.464116	0.120883
O20	O	0.745664	-0.964116	0.620883
C21	C	0.128264	-1.245908	0.000000
C22	C	0.628264	-0.745908	0.500000
C23	C	0.125809	-1.107384	-0.000001
C24	C	0.625809	-0.607384	0.499999
C25	C	-0.030070	-1.483141	0.000017
C26	C	0.469930	-0.983141	0.500017
C27	C	-0.123331	-1.480672	0.000018
C28	C	0.376669	-0.980672	0.500018
C29	C	0.118629	-1.702181	0.000003
C30	C	0.618629	-1.202181	0.500003
C31	C	0.121084	-1.840704	-0.000005
C32	C	0.621084	-1.340704	0.499995
C33	C	-0.338901	-1.356026	-0.000004
C34	C	0.161099	-0.856026	0.499996
C35	C	-0.399587	-1.413900	0.119211
C36	C	0.100413	-0.913900	0.619211
C37	C	-0.294082	-1.476205	0.000006
C38	C	0.205918	-0.976205	0.500006
C39	C	-0.399570	-1.413944	-0.119170
C40	C	0.100430	-0.913944	0.380830
C41	C	-0.459020	-1.471880	-0.000011
C42	C	0.040980	-0.971880	0.499989
C43	C	-0.353540	-1.534111	0.119320
C44	C	0.146460	-1.034111	0.619320
C45	C	-0.353516	-1.534138	-0.119168
C46	C	0.146484	-1.034138	0.380832
C47	C	-0.414184	-1.592099	0.000077
C48	C	0.085816	-1.092099	0.500077
C49	C	-0.199066	-1.478692	0.000018
C50	C	0.300934	-0.978692	0.500018
C51	C	-0.554035	-1.469402	-0.000011
C52	C	-0.054035	-0.969402	0.499989
C53	C	0.276963	-1.464947	-0.000013
C54	C	0.776963	-0.964947	0.499987
C55	C	0.370223	-1.467417	-0.000024
C56	C	0.870223	-0.967417	0.499976
N57	N	0.123445	-1.474032	0.344087
N58	N	0.623445	-0.974032	0.844087
C59	C	0.197350	-1.031498	-0.000010
C60	C	0.697350	-0.531498	0.499990
C61	C	0.194814	-0.888327	-0.000012
C62	C	0.694814	-0.388327	0.499988
N63	N	0.123441	-1.474067	-0.344080
N64	N	0.623441	-0.974067	0.155920
C65	C	0.069525	-1.554469	0.416290
C66	C	0.569525	-1.054469	0.916290
C67	C	0.069522	-1.554488	0.583703
C68	C	0.569522	-1.054488	1.083703
H69	H	-0.306164	-1.256273	0.000113
H70	H	0.193836	-0.756273	0.500113
F71	F	0.009186	-1.644509	0.664858
F72	F	0.509186	-1.144509	1.164858
H73	H	-0.419938	-1.363104	-0.219964
H74	H	0.080062	-0.863104	0.280036
H75	H	0.169603	-1.405176	0.406209
H76	H	0.669603	-0.905176	0.906209
H77	H	0.059835	-0.905903	-0.000006
H78	H	0.559835	-0.405903	0.499994
H79	H	-0.333095	-1.584931	-0.219959
H80	H	0.166905	-1.084931	0.280041
H81	H	0.023361	-1.623316	0.354170
H82	H	0.523361	-1.123316	0.854170
F83	F	-0.426251	-1.347456	0.250947
F84	F	0.073749	-0.847456	0.750947
F85	F	-0.327035	-1.600491	0.251200
F86	F	0.172965	-1.100491	0.751200
H87	H	0.260477	-1.072523	-0.000009
H88	H	0.760477	-0.572523	0.499991
F89	F	-0.456780	-1.722596	0.000162
F90	F	0.043220	-1.222596	0.500162
H91	H	0.256060	-0.823120	-0.000025
H92	H	0.756060	-0.323120	0.499975
H93	H	0.062682	-1.066360	-0.000032
H94	H	0.562682	-0.566360	0.499968
H95	H	0.169609	-1.405202	0.593837
H96	H	0.669609	-0.905202	1.093837
