data_functionalizedCrystal
_audit_creation_method	'MofGen! by Chris Wilmer'
_symmetry_space_group_name_H-M	'P1'
_symmetry_Int_Tables_number	1
_symmetry_cell_setting	triclinic
loop_
_symmetry_equiv_pos_as_xyz
  x,y,z
_cell_length_a	12.759387
_cell_length_b	12.759395
_cell_length_c	12.759394
_cell_angle_alpha	90.016374
_cell_angle_beta	90.031660
_cell_angle_gamma	90.020509
loop_
_atom_site_label
_atom_site_type_symbol
_atom_site_fract_x
_atom_site_fract_y
_atom_site_fract_z
Zn1	Zn	-0.593999	-1.606268	0.418168
Zn2	Zn	-0.418317	-1.606158	0.593885
Zn3	Zn	-0.418336	-1.430566	0.418225
Zn4	Zn	-0.593956	-1.430558	0.593810
O5	O	-0.506152	-1.518387	0.506022
O6	O	-0.570704	-1.753274	0.441485
O7	O	-0.271298	-1.582823	0.570639
O8	O	-0.441664	-1.453922	0.271197
O9	O	-0.441631	-1.753194	0.570583
O10	O	-0.570723	-1.583010	0.271155
O11	O	-0.271312	-1.453816	0.441582
O12	O	-0.441622	-1.283544	0.441510
O13	O	-0.740983	-1.453909	0.570456
O14	O	-0.570649	-1.283538	0.570511
O15	O	-0.741014	-1.583002	0.441412
O16	O	-0.441590	-1.582815	0.740896
O17	O	-0.570631	-1.453802	0.740841
C18	C	-0.506134	-1.245420	0.506009
C19	C	-0.506151	-1.128643	0.506029
C20	C	-0.506126	-1.518324	0.778990
C21	C	-0.506151	-1.518393	0.895766
C22	C	-0.780185	-1.518467	0.505919
C23	C	-0.896962	-1.518500	0.505875
C24	C	-0.897015	-1.652934	0.371511
C25	C	-0.951902	-1.720166	0.304313
C26	C	-1.061624	-1.720192	0.304275
C27	C	-1.116461	-1.652976	0.371439
C28	C	-1.061574	-1.585744	0.438637
C29	C	-0.951849	-1.585728	0.438671
C30	C	-1.061521	-1.451307	0.572995
C31	C	-0.951799	-1.451285	0.573040
C32	C	-1.116358	-1.384091	0.640159
C33	C	-1.061471	-1.316863	0.707364
C34	C	-0.951742	-1.316841	0.707400
C35	C	-0.896912	-1.384053	0.640238
C36	C	-0.233184	-1.518369	0.506049
C37	C	-0.116408	-1.518538	0.505797
C38	C	-0.506170	-1.792421	0.506036
C39	C	-0.506178	-1.909197	0.506042
C40	C	-0.640290	-1.128676	0.640576
C41	C	-0.707362	-1.073831	0.707857
C42	C	-0.707375	-0.964109	0.707870
C43	C	-0.640310	-0.909230	0.640592
C44	C	-0.573238	-0.964074	0.573310
C45	C	-0.573230	-1.073799	0.573307
C46	C	-0.439106	-0.964042	0.438760
C47	C	-0.439086	-1.073764	0.438751
C48	C	-0.372042	-0.909162	0.371482
C49	C	-0.304962	-0.964007	0.304204
C50	C	-0.304951	-1.073735	0.304195
C51	C	-0.372014	-1.128608	0.371469
C52	C	-0.506200	-1.518479	0.231989
C53	C	-0.506221	-1.518518	0.115212
C54	C	-0.371881	-1.652835	0.895770
C55	C	-0.304758	-1.720083	0.950633
C56	C	-0.304786	-1.720145	1.060354
C57	C	-0.371947	-1.652953	1.115216
C58	C	-0.439070	-1.585705	1.060353
C59	C	-0.439032	-1.585648	0.950629
C60	C	-0.573343	-1.451270	1.060349
C61	C	-0.573311	-1.451202	0.950628
C62	C	-0.640504	-1.384079	1.115211
C63	C	-0.707623	-1.316823	1.060348
C64	C	-0.707591	-1.316764	0.950620
C65	C	-0.640434	-1.383954	0.895765
H66	H	-0.807674	-1.652930	0.371545
H67	H	-0.372008	-1.217949	0.371471
H68	H	-0.807571	-1.384046	0.640265
H69	H	-0.907242	-1.774890	0.249627
F70	F	-0.779098	-1.245328	1.118741
F71	F	-1.120040	-1.791733	0.232742
H72	H	-0.640336	-0.819889	0.640599
F73	F	-0.372063	-0.792387	0.371491
F74	F	-0.372075	-1.653006	0.778995
F75	F	-0.371626	-1.652674	1.231991
F76	F	-0.640185	-1.383798	1.231985
F77	F	-1.119837	-1.245331	0.778832
F78	F	-0.779039	-1.245193	0.892239
F79	F	-1.233237	-1.652998	0.371386
H80	H	-1.205699	-1.384113	0.640119
F81	F	-0.893335	-1.245277	0.778918
H82	H	-0.640394	-1.383905	0.806424
H83	H	-0.761966	-1.118526	0.762632
H84	H	-0.640278	-1.218017	0.640580
H85	H	-0.761996	-0.919455	0.762651
F86	F	-0.233603	-0.905595	0.232603
H87	H	-0.250078	-1.774792	0.905955
F88	F	-0.233567	-1.132097	0.232578
F89	F	-0.233353	-1.791722	1.118745
