data_functionalizedCrystal
_audit_creation_method	'MofGen! by Chris Wilmer'
_symmetry_space_group_name_H-M	'P1'
_symmetry_Int_Tables_number	1
_symmetry_cell_setting	triclinic
loop_
_symmetry_equiv_pos_as_xyz
  x,y,z
_cell_length_a	17.917559
_cell_length_b	14.560438
_cell_length_c	14.560438
_cell_angle_alpha	60.004347
_cell_angle_beta	89.999714
_cell_angle_gamma	57.009611
loop_
_atom_site_label
_atom_site_type_symbol
_atom_site_fract_x
_atom_site_fract_y
_atom_site_fract_z
Zr1	Zr	0.754938	0.920647	-0.078150
O2	O	0.629815	1.126257	-0.231786
O3	O	0.793292	0.724759	-0.031065
O4	O	0.793296	0.916350	-0.222649
O5	O	0.629812	0.934666	0.110938
O6	O	0.922255	0.901902	-0.215427
O7	O	0.629812	0.934666	-0.040202
O8	O	0.922249	0.559181	0.127282
O9	O	0.629818	1.277387	-0.231771
O10	O	0.905894	0.790948	-0.005578
O11	O	0.809653	0.801730	0.101826
O12	O	0.809657	1.027304	-0.123740
O13	O	0.713417	1.038086	-0.016336
Zr14	Zr	0.960613	0.897605	0.174419
Zr15	Zr	0.960613	0.897605	-0.066631
Zr16	Zr	0.754938	0.920647	0.162900
Zr17	Zr	0.754943	1.161683	-0.078126
Zr18	Zr	0.960609	0.656570	0.174396
O19	O	0.922259	1.093493	0.127334
O20	O	0.922259	1.093493	-0.215408
O21	O	0.629815	1.126257	0.110956
O22	O	1.085736	0.691996	0.328055
O23	O	1.085736	0.691996	-0.014687
O24	O	0.793292	0.724759	0.311678
O25	O	1.085740	0.883587	-0.014668
O26	O	0.922255	0.901902	0.318918
O27	O	0.793296	0.916350	0.311696
O28	O	1.085740	0.883587	0.136471
O29	O	0.793303	1.259071	-0.222616
O30	O	0.922249	0.559181	0.318885
O31	O	1.085733	0.540865	0.328041
O32	O	1.085733	0.540865	0.136438
O33	O	0.629818	1.277387	-0.040169
O34	O	0.793303	1.259071	-0.031013
O35	O	0.905894	0.790948	0.220009
O36	O	1.002135	0.780166	0.112605
O37	O	0.905898	1.016522	-0.005556
O38	O	0.809657	1.027304	0.101848
C39	C	0.857770	0.607628	0.048105
C40	C	0.857768	0.505302	0.048096
C41	C	0.786737	0.452229	-0.039084
C42	C	0.786726	0.548407	-0.039122
C43	C	0.928818	0.366009	0.135362
C44	C	0.928824	0.269835	0.135403
C45	C	0.704703	0.557536	-0.139824
C46	C	0.704693	0.653713	-0.139861
C47	C	0.600507	0.937949	0.033727
C48	C	0.513193	0.947731	0.028837
C49	C	0.362199	0.852669	0.076359
C50	C	0.353360	0.965578	0.019913
C51	C	0.442300	0.955644	0.024880
C52	C	0.273252	0.862599	0.071394
C53	C	1.115044	0.880304	0.062543
C54	C	1.202358	0.870521	0.067433
C55	C	0.857776	0.909126	-0.253382
C56	C	0.857776	0.909126	-0.355714
C57	C	0.857782	1.210625	0.048164
C58	C	0.857784	1.312950	0.048174
C59	C	0.807543	1.032502	-0.561624
C60	C	0.807540	1.032504	-0.465473
C61	C	0.908010	0.785741	-0.342109
C62	C	0.908007	0.785742	-0.438259
C63	C	0.749541	1.174969	-0.632846
C64	C	0.749538	1.174970	-0.536695
C65	C	0.857776	0.909126	0.349652
C66	C	0.857776	0.909126	0.451984
C67	C	1.115038	0.578805	0.062513
C68	C	1.202351	0.466697	0.067393
C69	C	0.857770	0.607628	0.349622
C70	C	0.857768	0.505302	0.451945
C71	C	1.115038	0.578805	0.364030
C72	C	1.202351	0.466697	0.471243
C73	C	0.600513	1.239447	-0.267761
C74	C	0.513201	1.351555	-0.374973
C75	C	0.600513	1.239447	0.033756
C76	C	0.513201	1.351555	0.028876
C77	C	0.857782	1.210625	-0.253353
C78	C	0.857784	1.312951	-0.355675
C79	C	1.193117	0.419678	0.007984
C80	C	1.275148	0.314355	0.012547
C81	C	1.366413	0.256046	0.076525
C82	C	1.375645	0.303075	0.135936
C83	C	1.293614	0.408403	0.131366
C84	C	1.293599	0.408421	0.465527
C85	C	1.375646	0.303096	0.566256
C86	C	1.366443	0.256043	0.672698
C87	C	1.275185	0.314330	0.678411
C88	C	1.193140	0.419659	0.577684
C89	C	0.421953	1.409843	-0.369258
C90	C	0.339905	1.515198	-0.469986
C91	C	0.349108	1.562256	-0.576429
C92	C	0.440366	1.503963	-0.582141
C93	C	0.522411	1.398617	-0.481414
C94	C	0.522435	1.398584	0.088275
C95	C	0.440403	1.503934	0.083686
C96	C	0.349139	1.562246	0.019704
C97	C	0.339907	1.515213	-0.039702
C98	C	0.421937	1.409872	-0.035119
C99	C	0.908005	0.451596	0.561707
C100	C	0.907995	0.355456	0.657845
C101	C	0.807510	0.366733	0.534445
C102	C	0.807515	0.462878	0.438309
C103	C	0.966023	0.445080	0.632951
C104	C	0.966013	0.348940	0.729090
H105	H	0.986656	0.330920	0.206382
H106	H	1.267613	0.276078	-0.035833
H107	H	0.436557	0.748553	0.128409
H108	H	0.414441	1.371536	-0.282597
H109	H	0.596708	1.351160	-0.486081
H110	H	1.118845	0.467095	0.582353
H111	H	0.948901	0.685278	-0.427171
H112	H	0.265607	1.562643	-0.465313
H113	H	1.433257	0.170276	0.754708
H114	H	0.282294	1.648036	-0.658439
H115	H	1.449963	0.255584	0.188025
H116	H	0.933758	0.538701	0.631171
H117	H	0.948905	0.685286	-0.252735
H118	H	1.433199	0.170281	0.080238
H119	H	0.927742	0.389357	0.777873
H120	H	0.672725	1.235783	-0.689339
H121	H	0.787820	1.212863	-0.681616
H122	H	0.596739	1.351114	0.140383
H123	H	0.675258	1.225501	-0.532134
H124	H	0.766595	0.332180	0.523357
H125	H	0.781811	1.223558	-0.534892
H126	H	0.447848	1.542292	-0.668819
H127	H	0.639441	0.720694	-0.126720
H128	H	1.118812	0.467152	-0.044128
H129	H	1.042827	0.250315	0.785581
H130	H	1.449945	0.255649	0.561584
H131	H	1.301146	0.446672	0.179752
H132	H	1.301110	0.446715	0.378866
H133	H	0.447939	1.542210	0.132067
H134	H	1.267706	0.276003	0.765090
H135	H	1.040297	0.400626	0.628379
H136	H	0.766596	0.506617	0.348938
H137	H	0.265588	1.562707	-0.091795
H138	H	0.282352	1.648021	0.015982
H139	H	0.414405	1.371585	-0.083486
H140	H	0.719043	0.555902	-0.215476
H141	H	0.986670	0.156430	0.206464
H142	H	0.278996	1.069702	-0.032150
H143	H	0.634637	0.576212	-0.135453
H144	H	0.711761	0.715908	-0.221591
