data_functionalizedCrystal
_audit_creation_method	'MofGen! by Chris Wilmer'
_symmetry_space_group_name_H-M	'P1'
_symmetry_Int_Tables_number	1
_symmetry_cell_setting	triclinic
loop_
_symmetry_equiv_pos_as_xyz
  x,y,z
_cell_length_a	16.625546
_cell_length_b	12.827893
_cell_length_c	12.827885
_cell_angle_alpha	90.021379
_cell_angle_beta	89.964876
_cell_angle_gamma	89.979323
loop_
_atom_site_label
_atom_site_type_symbol
_atom_site_fract_x
_atom_site_fract_y
_atom_site_fract_z
Zn1	Zn	-0.321001	-1.597620	-0.590863
Zn2	Zn	0.178999	-1.097620	-0.090863
Zn3	Zn	-0.455855	-1.597492	-0.416107
Zn4	Zn	0.044145	-1.097492	0.083893
Zn5	Zn	-0.321036	-1.422861	-0.416131
Zn6	Zn	0.178964	-0.922861	0.083869
Zn7	Zn	-0.455791	-1.422825	-0.590801
Zn8	Zn	0.044209	-0.922825	-0.090801
O9	O	-0.388421	-1.510200	-0.503476
O10	O	0.111579	-1.010200	-0.003476
O11	O	-0.338902	-1.743839	-0.567698
O12	O	0.161098	-1.243839	-0.067698
O13	O	-0.438013	-1.574288	-0.269874
O14	O	0.061987	-1.074288	0.230126
O15	O	-0.208199	-1.446112	-0.439346
O16	O	0.291801	-0.946112	0.060654
O17	O	-0.437979	-1.743745	-0.439305
O18	O	0.062021	-1.243745	0.060695
O19	O	-0.208173	-1.574507	-0.567721
O20	O	0.291827	-1.074507	-0.067721
O21	O	-0.338962	-1.445988	-0.269892
O22	O	0.161038	-0.945988	0.230108
O23	O	-0.338900	-1.276620	-0.439286
O24	O	0.161100	-0.776620	0.060714
O25	O	-0.437869	-1.446051	-0.737046
O26	O	0.062131	-0.946051	-0.237046
O27	O	-0.437904	-1.276594	-0.567615
O28	O	0.062096	-0.776594	-0.067615
O29	O	-0.338840	-1.574472	-0.737091
O30	O	0.161160	-1.074472	-0.237091
O31	O	-0.568679	-1.574254	-0.439245
O32	O	-0.068679	-1.074254	0.060755
O33	O	-0.568632	-1.445927	-0.567592
O34	O	-0.068632	-0.945927	-0.067592
C35	C	-0.388399	-1.238690	-0.503447
C36	C	0.111601	-0.738690	-0.003447
C37	C	-0.388409	-1.122537	-0.503459
C38	C	0.111591	-0.622537	-0.003459
C39	C	-0.339468	-1.070798	-0.567089
C40	C	0.160532	-0.570798	-0.067089
C41	C	-0.339477	-0.950748	-0.567103
C42	C	0.160523	-0.450748	-0.067103
C43	C	-0.597912	-1.510101	-0.503432
C44	C	-0.097912	-1.010101	-0.003432
C45	C	-0.687533	-1.510154	-0.503448
C46	C	-0.187533	-1.010154	-0.003448
C47	C	-1.015708	-1.510336	-0.503557
C48	C	-0.515708	-1.010336	-0.003557
C49	C	-0.924400	-1.510282	-0.503530
C50	C	-0.424400	-1.010282	-0.003530
C51	C	-0.851624	-1.510244	-0.503502
C52	C	-0.351624	-1.010244	-0.003502
C53	C	-0.760309	-1.510192	-0.503476
C54	C	-0.260309	-1.010192	-0.003476
C55	C	-0.178112	-1.510327	-0.503543
C56	C	0.321888	-1.010327	-0.003543
C57	C	-0.088491	-1.510382	-0.503571
C58	C	0.411509	-1.010382	-0.003571
C59	C	-0.388344	-1.510272	-0.776046
C60	C	0.111656	-1.010272	-0.276046
C61	C	-0.388311	-1.510302	-0.892199
C62	C	0.111689	-1.010302	-0.392199
C63	C	-0.388437	-0.782770	-0.503497
C64	C	0.111563	-0.282770	-0.003497
C65	C	-0.388427	-0.898923	-0.503485
C66	C	0.111573	-0.398923	-0.003485
C67	C	-0.339287	-1.446835	-0.943993
C68	C	0.160713	-0.946835	-0.443993
C69	C	-0.339252	-1.446866	-1.064043
C70	C	0.160748	-0.946866	-0.564043
C71	C	-0.388440	-1.510188	-0.231966
C72	C	0.111560	-1.010188	0.268034
C73	C	-0.388246	-1.510360	-0.115813
C74	C	0.111754	-1.010360	0.384187
H75	H	-0.297580	-0.906254	-0.621583
H76	H	0.202420	-0.406254	-0.121583
N77	N	-0.441006	-0.954707	-0.435137
N78	N	0.058994	-0.454707	0.064863
N79	N	-0.515423	-0.942572	-0.441883
N80	N	-0.015423	-0.442572	0.058117
H81	H	-0.552558	-0.981975	-0.393612
H82	H	-0.052558	-0.481975	0.106388
H83	H	-0.430314	-1.077955	-0.448992
H84	H	0.069686	-0.577955	0.051008
H85	H	-0.297346	-1.392472	-0.899458
H86	H	0.202654	-0.892472	-0.399458
H87	H	-0.297278	-1.392534	-1.108584
H88	H	0.202722	-0.892534	-0.608584
N89	N	-0.440889	-1.578551	-1.059956
N90	N	0.059111	-1.078551	-0.559956
N91	N	-0.412496	-1.645093	-0.999055
N92	N	0.087504	-1.145093	-0.499055
H93	H	-0.449675	-1.693257	-0.959600
H94	H	0.050325	-1.193257	-0.459600
N95	N	-0.286892	-1.126731	-0.635405
N96	N	0.213108	-0.626731	-0.135405
N97	N	-0.286956	-1.224172	-0.635293
N98	N	0.213044	-0.724172	-0.135293
H99	H	-0.249822	-1.263675	-0.683542
H100	H	0.250178	-0.763675	-0.183542
N101	N	-0.440928	-1.578519	-0.948041
N102	N	0.059072	-1.078519	-0.448041
N103	N	-0.487012	-1.638195	-0.899408
N104	N	0.012988	-1.138195	-0.399408
H105	H	-0.524173	-1.686379	-0.938842
H106	H	-0.024173	-1.186379	-0.438842
