data_functionalizedCrystal
_audit_creation_method	'MofGen! by Chris Wilmer'
_symmetry_space_group_name_H-M	'P1'
_symmetry_Int_Tables_number	1
_symmetry_cell_setting	triclinic
loop_
_symmetry_equiv_pos_as_xyz
  x,y,z
_cell_length_a	16.120530
_cell_length_b	21.395361
_cell_length_c	21.395355
_cell_angle_alpha	89.978489
_cell_angle_beta	87.079043
_cell_angle_gamma	87.125977
loop_
_atom_site_label
_atom_site_type_symbol
_atom_site_fract_x
_atom_site_fract_y
_atom_site_fract_z
Zn1	Zn	1.274542	-0.298157	-0.402756
Zn2	Zn	1.607875	0.035177	-0.069422
Zn3	Zn	1.941208	0.368510	0.263911
Zn4	Zn	1.274412	-0.402911	-0.297968
Zn5	Zn	1.607745	-0.069578	0.035366
Zn6	Zn	1.941079	0.263755	0.368699
Zn7	Zn	1.135113	-0.292835	-0.292686
Zn8	Zn	1.468447	0.040498	0.040647
Zn9	Zn	1.801780	0.373832	0.373981
Zn10	Zn	1.135072	-0.397577	-0.397405
Zn11	Zn	1.468406	-0.064244	-0.064071
Zn12	Zn	1.801739	0.269090	0.269262
O13	O	1.204785	-0.347870	-0.347704
O14	O	1.538118	-0.014537	-0.014370
O15	O	1.871451	0.318797	0.318963
O16	O	1.391190	-0.316512	-0.393305
O17	O	1.724523	0.016821	-0.059972
O18	O	2.057857	0.350155	0.273362
O19	O	1.255897	-0.388315	-0.209588
O20	O	1.589230	-0.054982	0.123746
O21	O	1.922563	0.278352	0.457079
O22	O	1.153680	-0.205866	-0.307316
O23	O	1.487014	0.127467	0.026018
O24	O	1.820347	0.460801	0.359351
O25	O	1.391095	-0.393475	-0.316318
O26	O	1.724428	-0.060142	0.017015
O27	O	2.057761	0.273192	0.350349
O28	O	1.256118	-0.209776	-0.388183
O29	O	1.589451	0.123558	-0.054850
O30	O	1.922784	0.456891	0.278483
O31	O	1.153554	-0.307442	-0.205707
O32	O	1.486888	0.025891	0.127626
O33	O	1.820221	0.359224	0.460959
O34	O	1.018442	-0.302270	-0.302127
O35	O	1.351776	0.031063	0.031206
O36	O	1.685109	0.364397	0.364539
O37	O	1.153610	-0.384383	-0.485794
O38	O	1.486944	-0.051050	-0.152461
O39	O	1.820277	0.282283	0.180873
O40	O	1.018412	-0.379223	-0.379064
O41	O	1.351745	-0.045890	-0.045731
O42	O	1.685079	0.287443	0.287603
O43	O	1.256078	-0.311340	-0.489725
O44	O	1.589411	0.021994	-0.156392
O45	O	1.922745	0.355327	0.176942
O46	O	1.255857	-0.489879	-0.311129
O47	O	1.589190	-0.156546	0.022204
O48	O	1.922523	0.176788	0.355537
O49	O	1.153484	-0.485960	-0.384185
O50	O	1.486818	-0.152627	-0.050852
O51	O	1.820151	0.180707	0.282481
C52	C	1.204675	-0.510654	-0.347664
C53	C	1.538008	-0.177320	-0.014331
C54	C	1.871341	0.156013	0.319002
C55	C	1.204704	-0.580296	-0.347672
C56	C	1.538037	-0.246963	-0.014338
C57	C	1.871371	0.086371	0.318995
C58	C	0.988177	-0.339591	-0.339442
C59	C	1.321510	-0.006257	-0.006109
C60	C	1.654844	0.327076	0.327225
C61	C	0.895511	-0.336064	-0.335923
C62	C	1.228845	-0.002731	-0.002589
C63	C	1.562178	0.330603	0.330744
C64	C	1.258056	-0.615031	-0.309674
C65	C	1.591390	-0.281697	0.023659
C66	C	1.924723	0.051636	0.356992
C67	C	1.258095	-0.680468	-0.309690
C68	C	1.591429	-0.347134	0.023644
C69	C	1.924762	-0.013801	0.356977
C70	C	1.204767	-0.711167	-0.347695
C71	C	1.538100	-0.377833	-0.014362
C72	C	1.871433	-0.044500	0.318971
C73	C	1.151410	-0.676424	-0.385701
C74	C	1.484744	-0.343090	-0.052367
C75	C	1.818077	-0.009757	0.280966
C76	C	1.151379	-0.610988	-0.385689
C77	C	1.484712	-0.277655	-0.052355
C78	C	1.818046	0.055678	0.280978
C79	C	1.129700	-0.812017	-0.349748
C80	C	1.463034	-0.478683	-0.016415
C81	C	1.796367	-0.145350	0.316918
C82	C	1.129730	-0.877451	-0.349756
C83	C	1.463064	-0.544117	-0.016423
C84	C	1.796397	-0.210784	0.316911
C85	C	1.204864	-0.912991	-0.347736
C86	C	1.538197	-0.579658	-0.014403
C87	C	1.871530	-0.246324	0.318931
C88	C	1.279969	-0.883089	-0.345695
C89	C	1.613303	-0.549756	-0.012362
C90	C	1.946636	-0.216423	0.320971
C91	C	1.279938	-0.817654	-0.345683
C92	C	1.613271	-0.484321	-0.012350
C93	C	1.946605	-0.150987	0.320983
C94	C	1.204795	-0.782120	-0.347713
C95	C	1.538128	-0.448787	-0.014380
C96	C	1.871462	-0.115453	0.318954
C97	C	1.258263	-1.018680	-0.309753
C98	C	1.591596	-0.685347	0.023580
C99	C	1.924929	-0.352013	0.356913
C100	C	1.258303	-1.084118	-0.309773
C101	C	1.591636	-0.750785	0.023560
C102	C	1.924970	-0.417452	0.356893
C103	C	1.151611	-1.080073	-0.385781
C104	C	1.484944	-0.746740	-0.052447
C105	C	1.818277	-0.413406	0.280886
C106	C	1.151578	-1.014636	-0.385764
C107	C	1.484911	-0.681303	-0.052431
C108	C	1.818245	-0.347970	0.280902
C109	C	1.204903	-0.983944	-0.347747
C110	C	1.538236	-0.650610	-0.014414
C111	C	1.871569	-0.317277	0.318919
C112	C	0.725850	-0.329610	-0.329503
C113	C	1.059183	0.003723	0.003831
C114	C	1.392517	0.337056	0.337164
C115	C	0.684560	-0.366176	-0.365950
C116	C	1.017893	-0.032843	-0.032617
C117	C	1.351227	0.300491	0.300717
C118	C	0.590155	-0.362585	-0.362378
C119	C	0.923488	-0.029252	-0.029045
C120	C	1.256821	0.304082	0.304289
C121	C	0.820264	-0.333200	-0.333074
C122	C	1.153597	0.000133	0.000259
C123	C	1.486931	0.333466	0.333593
C124	C	1.422238	-0.356182	-0.355998
C125	C	1.755572	-0.022849	-0.022664
C126	C	2.088905	0.310485	0.310669
C127	C	1.514904	-0.359724	-0.359532
C128	C	1.848237	-0.026391	-0.026199
C129	C	2.181571	0.306942	0.307135
C130	C	1.204854	-0.347860	-0.511129
C131	C	1.538187	-0.014527	-0.177796
C132	C	1.871521	0.318807	0.155537
C133	C	1.204884	-0.347856	-0.580772
C134	C	1.538217	-0.014522	-0.247439
C135	C	1.871550	0.318811	0.085895
C136	C	1.204918	-0.184452	-0.347757
C137	C	1.538251	0.148881	-0.014424
C138	C	1.871585	0.482215	0.318909
C139	C	1.204975	-0.114813	-0.347780
C140	C	1.538308	0.218521	-0.014447
C141	C	1.871641	0.551854	0.318886
C142	C	1.258236	-0.309820	-0.615533
C143	C	1.591569	0.023513	-0.282200
C144	C	1.924903	0.356847	0.051134
C145	C	1.258235	-0.309793	-0.680968
C146	C	1.591568	0.023540	-0.347635
C147	C	1.924902	0.356874	-0.014302
C148	C	1.204890	-0.347813	-0.711641
C149	C	1.538223	-0.014480	-0.378307
C150	C	1.871557	0.318853	-0.044974
C151	C	1.151527	-0.385851	-0.676871
C152	C	1.484860	-0.052518	-0.343538
C153	C	1.818194	0.280815	-0.010205
C154	C	1.151524	-0.385873	-0.611437
C155	C	1.484857	-0.052539	-0.278104
C156	C	1.818190	0.280794	0.055230
C157	C	1.198269	-0.403976	-0.815051
C158	C	1.531602	-0.070643	-0.481718
C159	C	1.864936	0.262691	-0.148384
C160	C	1.198278	-0.403956	-0.880484
C161	C	1.531611	-0.070623	-0.547151
C162	C	1.864945	0.262711	-0.213818
C163	C	1.204895	-0.347747	-0.913462
C164	C	1.538229	-0.014414	-0.580128
C165	C	1.871562	0.318919	-0.246795
C166	C	1.211521	-0.291558	-0.880998
C167	C	1.544854	0.041776	-0.547665
C168	C	1.878187	0.375109	-0.214331
C169	C	1.211517	-0.291579	-0.815564
C170	C	1.544851	0.041755	-0.482230
C171	C	1.878184	0.375088	-0.148897
C172	C	1.204887	-0.347794	-0.782593
C173	C	1.538221	-0.014461	-0.449260
C174	C	1.871554	0.318872	-0.115926
C175	C	1.258249	-0.309679	-1.019175
C176	C	1.591583	0.023654	-0.685842
C177	C	1.924916	0.356988	-0.352509
C178	C	1.258242	-0.309651	-1.084612
C179	C	1.591576	0.023683	-0.751278
C180	C	1.924909	0.357016	-0.417945
C181	C	1.151539	-0.385715	-1.080513
C182	C	1.484872	-0.052382	-0.747180
C183	C	1.818206	0.280952	-0.413847
C184	C	1.151541	-0.385737	-1.015078
C185	C	1.484875	-0.052404	-0.681745
C186	C	1.818208	0.280929	-0.348412
C187	C	1.204901	-0.347721	-0.984413
C188	C	1.538235	-0.014387	-0.651080
C189	C	1.871568	0.318946	-0.317746
C190	C	1.204764	-0.347837	-0.184915
C191	C	1.538097	-0.014503	0.148418
C192	C	1.871431	0.318830	0.481752
C193	C	1.204896	-0.347671	-0.115279
C194	C	1.538229	-0.014337	0.218054
C195	C	1.871563	0.318996	0.551387
H196	H	1.301479	-0.590043	-0.278720
H197	H	1.634812	-0.256710	0.054613
H198	H	1.968145	0.076624	0.387947
Cl199	Cl	1.325387	-1.127786	-0.262005
Cl200	Cl	1.658721	-0.794453	0.071328
Cl201	Cl	1.992054	-0.461119	0.404661
H202	H	1.301685	-0.278863	-0.590570
H203	H	1.635018	0.054470	-0.257236
H204	H	1.968352	0.387804	0.076097
H205	H	0.720111	-0.400177	-0.399837
H206	H	1.053444	-0.066844	-0.066504
H207	H	1.386778	0.266490	0.266829
H208	H	1.341150	-0.912025	-0.344051
H209	H	1.674484	-0.578691	-0.010717
H210	H	2.007817	-0.245358	0.322616
H211	H	1.301679	-0.278816	-0.709276
H212	H	1.635013	0.054517	-0.375943
H213	H	1.968346	0.387850	-0.042609
Cl214	Cl	1.325298	-0.980092	-0.261961
Cl215	Cl	1.658631	-0.646759	0.071372
Cl216	Cl	1.991964	-0.313426	0.404705
Cl217	Cl	0.670965	-0.277119	-0.277186
Cl218	Cl	1.004298	0.056215	0.056147
Cl219	Cl	1.337632	0.389548	0.389480
H220	H	1.216910	-0.245827	-0.789134
H221	H	1.550243	0.087506	-0.455801
H222	H	1.883577	0.420840	-0.122468
Cl223	Cl	1.219843	-0.220890	-0.922447
Cl224	Cl	1.553177	0.112443	-0.589114
Cl225	Cl	1.886510	0.445776	-0.255781
Cl226	Cl	1.189975	-0.474648	-0.773602
Cl227	Cl	1.523308	-0.141315	-0.440269
Cl228	Cl	1.856641	0.192019	-0.106935
H229	H	1.301693	-0.278720	-0.994206
H230	H	1.635027	0.054614	-0.660873
H231	H	1.968360	0.387947	-0.327540
Cl232	Cl	1.084469	-0.433559	-0.971376
Cl233	Cl	1.417802	-0.100226	-0.638043
Cl234	Cl	1.751136	0.233107	-0.304710
H235	H	1.301687	-0.278674	-1.112913
H236	H	1.635021	0.054659	-0.779580
H237	H	1.968354	0.387993	-0.446247
H238	H	1.108096	-0.416665	-1.105486
H239	H	1.441429	-0.083332	-0.772152
H240	H	1.774762	0.250002	-0.438819
H241	H	1.192888	-0.449709	-0.906911
H242	H	1.526222	-0.116376	-0.573578
H243	H	1.859555	0.216957	-0.240245
H244	H	1.108091	-0.416806	-0.701849
H245	H	1.441424	-0.083472	-0.368515
H246	H	1.774757	0.249861	-0.035182
H247	H	1.108074	-0.416845	-0.583134
H248	H	1.441407	-0.083512	-0.249801
H249	H	1.774740	0.249822	0.083532
H250	H	1.107932	-0.582706	-0.416631
H251	H	1.441266	-0.249373	-0.083298
H252	H	1.774599	0.083960	0.250035
Cl253	Cl	1.325171	-0.724143	-0.261917
Cl254	Cl	1.658504	-0.390810	0.071417
Cl255	Cl	1.991837	-0.057476	0.404750
H256	H	1.108193	-1.105067	-0.416729
H257	H	1.441526	-0.771734	-0.083395
H258	H	1.774860	-0.438401	0.249938
Cl259	Cl	1.084498	-0.970967	-0.433532
Cl260	Cl	1.417832	-0.637634	-0.100199
Cl261	Cl	1.751165	-0.304300	0.233134
Cl262	Cl	1.035313	-0.915035	-0.352320
Cl263	Cl	1.368646	-0.581702	-0.018987
Cl264	Cl	1.701980	-0.248368	0.314347
Cl265	Cl	1.374352	-0.780065	-0.343124
Cl266	Cl	1.707686	-0.446732	-0.009791
Cl267	Cl	2.041019	-0.113398	0.323543
Cl268	Cl	1.035237	-0.767344	-0.352288
Cl269	Cl	1.368571	-0.434011	-0.018955
Cl270	Cl	1.701904	-0.100677	0.314378
Cl271	Cl	1.084372	-0.715016	-0.433482
Cl272	Cl	1.417706	-0.381683	-0.100149
Cl273	Cl	1.751039	-0.048349	0.233184
