data_functionalizedCrystal
_audit_creation_method	'MofGen! by Chris Wilmer'
_symmetry_space_group_name_H-M	'P1'
_symmetry_Int_Tables_number	1
_symmetry_cell_setting	triclinic
loop_
_symmetry_equiv_pos_as_xyz
  x,y,z
_cell_length_a	16.992694
_cell_length_b	11.792241
_cell_length_c	15.455313
_cell_angle_alpha	92.683265
_cell_angle_beta	87.142206
_cell_angle_gamma	87.430819
loop_
_atom_site_label
_atom_site_type_symbol
_atom_site_fract_x
_atom_site_fract_y
_atom_site_fract_z
O1	O	1.044827	0.236106	-0.072022
O2	O	1.544827	0.736106	0.427978
O3	O	0.816531	0.233463	-0.072048
O4	O	1.316531	0.733463	0.427952
O5	O	0.936219	0.070068	-0.072029
O6	O	1.436219	0.570068	0.427971
O7	O	0.925139	0.399501	-0.072042
O8	O	1.425139	0.899501	0.427958
O9	O	0.929374	0.079370	0.072232
O10	O	1.429374	0.579370	0.572232
O11	O	0.809687	0.242766	0.072213
O12	O	1.309687	0.742766	0.572213
O13	O	1.037982	0.245409	0.072239
O14	O	1.537982	0.745409	0.572239
Cu15	Cu	0.923210	0.244937	0.085398
Cu16	Cu	1.423210	0.744937	0.585398
Cu17	Cu	0.931304	0.233935	-0.085207
Cu18	Cu	1.431304	0.733935	0.414793
O19	O	0.918295	0.408804	0.072219
O20	O	1.418295	0.908804	0.572219
C21	C	0.783882	0.234716	0.000079
C22	C	1.283882	0.734716	0.500079
C23	C	0.696795	0.224578	0.000070
C24	C	1.196795	0.724578	0.500070
C25	C	0.932101	0.032371	0.000102
C26	C	1.432101	0.532371	0.500102
C27	C	0.930017	-0.093813	0.000101
C28	C	1.430017	0.406187	0.500101
C29	C	0.646971	0.322395	0.000066
C30	C	1.146971	0.822395	0.500066
C31	C	0.565143	0.312864	0.000079
C32	C	1.065143	0.812864	0.500079
C33	C	0.533142	0.205513	0.000088
C34	C	1.033142	0.705513	0.500088
C35	C	0.582973	0.107688	0.000094
C36	C	1.082973	0.607688	0.500094
C37	C	0.664799	0.117221	0.000088
C38	C	1.164799	0.617221	0.500088
C39	C	0.289375	0.166002	0.000113
C40	C	0.789375	0.666002	0.500113
C41	C	0.207543	0.156476	0.000117
C42	C	0.707543	0.656476	0.500117
C43	C	0.189719	0.361652	0.000103
C44	C	0.689719	0.861652	0.500103
C45	C	0.271548	0.371176	0.000091
C46	C	0.771548	0.871176	0.500091
C47	C	0.321371	0.273351	0.000102
C48	C	0.821371	0.773351	0.500102
N49	N	0.449501	0.195767	0.000098
N50	N	0.949501	0.695767	0.500098
N51	N	0.405010	0.283098	0.000098
N52	N	0.905010	0.783098	0.500098
C53	C	0.926187	-0.324840	0.000086
C54	C	1.426187	0.175160	0.500086
C55	C	0.928315	-0.196280	0.000094
C56	C	1.428315	0.303720	0.500094
C57	C	1.070631	0.244155	0.000109
C58	C	1.570631	0.744155	0.500109
C59	C	1.157718	0.254293	0.000113
C60	C	1.657718	0.754293	0.500113
C61	C	0.922413	0.446501	0.000087
C62	C	1.422413	0.946501	0.500087
C63	C	0.924497	0.572684	0.000082
C64	C	1.424497	1.072684	0.500082
N65	N	0.917522	0.252674	0.205393
N66	N	1.417522	0.752674	0.705393
N67	N	0.936998	0.226189	-0.205202
N68	N	1.436998	0.726189	0.294798
C69	C	0.968388	0.183287	0.250795
C70	C	1.468388	0.683287	0.750795
C71	C	0.964094	0.189150	0.341602
C72	C	1.464094	0.689150	0.841602
C73	C	0.908938	0.264406	0.387005
C74	C	1.408938	0.764406	0.887005
C75	C	0.858067	0.333796	0.341597
C76	C	1.358067	0.833796	0.841597
C77	C	0.862358	0.327927	0.250791
C78	C	1.362358	0.827927	0.750791
C79	C	0.890417	0.289710	0.658584
C80	C	1.390417	0.789710	1.158584
C81	C	0.886132	0.295576	0.749396
C82	C	1.386132	0.795576	1.249396
C83	C	0.992158	0.150928	0.749395
C84	C	1.492158	0.650928	1.249395
C85	C	0.996447	0.145070	0.658588
C86	C	1.496447	0.645070	1.158588
C87	C	0.945574	0.214455	0.613187
C88	C	1.445574	0.714455	1.113187
N89	N	0.904549	0.270403	0.479825
N90	N	1.404549	0.770403	0.979825
N91	N	0.949959	0.208452	0.520369
N92	N	1.449959	0.708452	1.020369
H93	H	0.673020	0.409812	0.000058
H94	H	1.173020	0.909812	0.500058
H95	H	1.005512	0.132648	0.378568
H96	H	1.505512	0.632648	0.878568
H97	H	1.013305	0.122010	0.213834
H98	H	1.513305	0.622010	0.713834
H99	H	0.813154	0.395068	0.378569
H100	H	1.313154	0.895068	0.878569
N101	N	1.055943	0.063904	0.609625
N102	N	1.555943	0.563904	1.109625
H103	H	1.092634	0.108049	0.571947
H104	H	1.592634	0.608049	1.071947
H105	H	1.087459	0.020863	0.652227
H106	H	1.587459	0.520863	1.152227
N107	N	0.548461	-0.008098	0.000118
N108	N	1.048461	0.491902	0.500118
H109	H	0.489064	0.000703	0.000121
H110	H	0.989064	0.500703	0.500121
H111	H	0.569186	-0.054687	-0.053357
H112	H	1.069186	0.445313	0.446643
N113	N	1.047026	0.076093	0.798362
N114	N	1.547026	0.576093	1.298362
H115	H	1.035941	0.091227	0.862776
H116	H	1.535941	0.591227	1.362776
H117	H	1.038375	-0.006309	0.782500
H118	H	1.538375	0.493691	1.282500
H119	H	0.848996	0.346209	0.621625
H120	H	1.348996	0.846209	1.121625
H121	H	0.181491	0.069054	0.000123
H122	H	0.681491	0.569054	0.500123
N123	N	0.826648	0.376761	0.798369
N124	N	1.326648	0.876761	1.298369
H125	H	0.795071	0.419829	0.755830
H126	H	1.295071	0.919829	1.255830
H127	H	0.790011	0.332560	0.836064
H128	H	1.290011	0.832560	1.336064
N129	N	0.135990	0.467167	0.000102
N130	N	0.635990	0.967167	0.500102
H131	H	0.104170	0.464348	-0.053371
H132	H	0.604170	0.964348	0.446629
H133	H	0.099166	0.471180	0.053619
H134	H	0.599166	0.971180	0.553619
N135	N	0.343106	0.060497	0.000130
N136	N	0.843106	0.560497	0.500130
H137	H	0.310415	-0.008953	0.000135
H138	H	0.810415	0.491047	0.500135
H139	H	0.379979	0.056524	-0.053348
H140	H	0.879979	0.556524	0.446652
H141	H	0.705366	0.037568	0.000090
H142	H	1.205366	0.537568	0.500090
H143	H	0.524579	0.392517	0.000075
H144	H	1.024579	0.892517	0.500075
N145	N	0.306063	0.486960	0.000065
N146	N	0.806063	0.986960	0.500065
H147	H	0.262082	0.547483	0.000061
H148	H	0.762082	1.047483	0.500061
H149	H	0.337100	0.498847	0.053536
H150	H	0.837100	0.998847	0.553536
N151	N	0.807492	0.402759	0.201817
N152	N	1.307492	0.902759	0.701817
H153	H	0.771900	0.451326	0.244356
H154	H	1.271900	0.951326	0.744356
H155	H	0.839509	0.453269	0.164127
H156	H	1.339509	0.953269	0.664127
