data_functionalizedCrystal
_audit_creation_method	'MofGen! by Chris Wilmer'
_symmetry_space_group_name_H-M	'P1'
_symmetry_Int_Tables_number	1
_symmetry_cell_setting	triclinic
loop_
_symmetry_equiv_pos_as_xyz
  x,y,z
_cell_length_a	19.077105
_cell_length_b	19.076808
_cell_length_c	21.395355
_cell_angle_alpha	92.317436
_cell_angle_beta	92.321224
_cell_angle_gamma	89.927608
loop_
_atom_site_label
_atom_site_type_symbol
_atom_site_fract_x
_atom_site_fract_y
_atom_site_fract_z
Zn1	Zn	1.063037	-0.323083	0.380673
Zn2	Zn	1.058217	-0.440575	0.271519
Zn3	Zn	0.945519	-0.318353	0.271881
Zn4	Zn	0.940775	-0.435829	0.372234
O5	O	1.001887	-0.379460	0.324077
O6	O	1.160729	-0.342634	0.369574
O7	O	1.043236	-0.424368	0.183888
O8	O	0.965110	-0.220646	0.289996
O9	O	1.157189	-0.428954	0.289379
O10	O	1.051450	-0.224121	0.369925
O11	O	0.960437	-0.334573	0.184154
O12	O	0.846557	-0.329971	0.281813
O13	O	0.957025	-0.420867	0.461033
O14	O	0.843072	-0.416281	0.355542
O15	O	1.046850	-0.338033	0.467233
O16	O	1.038636	-0.538280	0.281196
O17	O	0.952352	-0.534793	0.355191
C18	C	0.819318	-0.372098	0.317801
C19	C	0.741214	-0.368966	0.315131
C20	C	0.702722	-0.412498	0.352198
C21	C	0.629335	-0.409546	0.349692
C22	C	0.594442	-0.363064	0.310116
C23	C	0.632939	-0.319526	0.273048
C24	C	0.706325	-0.322476	0.275557
C25	C	0.375155	-0.349413	0.298504
C26	C	0.301764	-0.346468	0.295996
C27	C	0.298165	-0.436487	0.372641
C28	C	0.371552	-0.439436	0.375144
C29	C	0.410043	-0.395896	0.338079
N30	N	0.519428	-0.360046	0.307552
N31	N	0.485055	-0.398910	0.340646
C32	C	0.994475	-0.562034	0.317253
C33	C	0.991369	-0.640143	0.314357
C34	C	1.034828	-0.678586	0.354642
C35	C	1.031907	-0.751977	0.351922
C36	C	0.985529	-0.786924	0.308913
C37	C	0.942064	-0.748476	0.268626
C38	C	0.944983	-0.675086	0.271350
C39	C	0.971980	-1.006230	0.296304
C40	C	0.969066	-1.079625	0.293582
C41	C	1.058908	-1.083121	0.376879
C42	C	1.061825	-1.009730	0.379597
C43	C	1.018358	-0.971288	0.339312
N44	N	0.982543	-0.861942	0.306130
N45	N	1.021341	-0.896271	0.342098
C46	C	1.185168	-0.386851	0.330377
C47	C	1.263272	-0.390001	0.333062
C48	C	1.001946	-0.379448	0.487503
C49	C	1.001971	-0.379443	0.557145
C50	C	1.009347	-0.196174	0.330942
C51	C	1.012525	-0.118068	0.333867
C52	C	1.001871	-0.379423	0.161290
C53	C	1.001990	-0.379235	0.091660
C54	C	1.048741	-0.336310	0.593088
C55	C	1.048741	-0.336279	0.658524
C56	C	1.001978	-0.379396	0.688016
C57	C	0.955199	-0.422532	0.652065
C58	C	0.955196	-0.422556	0.586630
C59	C	0.993861	-0.442445	0.789135
C60	C	0.993870	-0.442422	0.854569
C61	C	1.001986	-0.379321	0.889839
C62	C	1.010108	-0.316242	0.859668
C63	C	1.010104	-0.316266	0.794233
C64	C	1.001977	-0.379374	0.758969
C65	C	1.048759	-0.336151	0.996736
C66	C	1.048754	-0.336120	1.062173
C67	C	0.955215	-0.422379	1.055713
C68	C	0.955217	-0.422404	0.990276
C69	C	1.001992	-0.379291	0.960792
H70	H	0.399957	-0.477288	0.407370
Br71	Br	1.117894	-1.135296	0.431550
H72	H	1.086826	-0.301151	0.687794
Br73	Br	0.758566	-0.263390	0.225254
Br74	Br	0.885997	-0.622912	0.216677
H75	H	1.016715	-0.264904	0.769670
H76	H	0.917135	-0.457533	0.961011
H77	H	0.273357	-0.308609	0.263772
Br78	Br	1.097779	-0.631165	0.413010
H79	H	1.067302	-0.783275	0.384722
Br80	Br	0.750069	-0.475590	0.405906
Br81	Br	0.245923	-0.495577	0.422939
Br82	Br	0.585586	-0.256436	0.219342
H83	H	0.406486	-0.313965	0.268317
H84	H	0.931296	-1.108076	0.258558
H85	H	1.099590	-0.981277	0.414618
Br86	Br	0.912980	-0.954067	0.241639
H87	H	0.904299	-0.776936	0.233609
H88	H	1.086828	-0.301203	0.569086
H89	H	0.917133	-0.457477	1.079724
Br90	Br	0.891716	-0.481098	0.537847
H91	H	1.016717	-0.264859	0.888384
H92	H	0.987261	-0.493786	0.879130
Br93	Br	0.982867	-0.528092	0.741276
H94	H	0.917122	-0.457635	0.676081
H95	H	0.597997	-0.444995	0.379875
H96	H	1.086842	-0.301042	0.972728
Br97	Br	1.112244	-0.277587	1.110954
