data_functionalizedCrystal
_audit_creation_method	'MofGen! by Chris Wilmer'
_symmetry_space_group_name_H-M	'P1'
_symmetry_Int_Tables_number	1
_symmetry_cell_setting	triclinic
loop_
_symmetry_equiv_pos_as_xyz
  x,y,z
_cell_length_a	20.919309
_cell_length_b	20.919309
_cell_length_c	20.919327
_cell_angle_alpha	55.760361
_cell_angle_beta	86.849798
_cell_angle_gamma	60.099716
loop_
_atom_site_label
_atom_site_type_symbol
_atom_site_fract_x
_atom_site_fract_y
_atom_site_fract_z
Zr1	Zr	0.672824	0.648320	-0.083068
O2	O	0.578556	0.789228	-0.194455
O3	O	0.697781	0.512813	-0.045478
O4	O	0.711082	0.645336	-0.183686
O5	O	0.559246	0.657175	0.048856
O6	O	0.820104	0.636838	-0.179108
O7	O	0.565255	0.656705	-0.056247
O8	O	0.796311	0.399779	0.068120
O9	O	0.583040	0.894235	-0.198372
O10	O	0.794549	0.560207	-0.030190
O11	O	0.708703	0.566899	0.044831
O12	O	0.724363	0.722928	-0.117891
O13	O	0.638517	0.729621	-0.042870
Zr14	Zr	0.837120	0.635517	0.091862
Zr15	Zr	0.846702	0.634767	-0.075766
Zr16	Zr	0.663241	0.649070	0.084560
Zr17	Zr	0.679975	0.815794	-0.089315
Zr18	Zr	0.829969	0.468043	0.098109
O19	O	0.812163	0.771024	0.054272
O20	O	0.825788	0.769958	-0.184073
O21	O	0.564931	0.790294	0.043891
O22	O	0.931388	0.494609	0.203249
O23	O	0.945013	0.493543	-0.035096
O24	O	0.684155	0.513879	0.192867
O25	O	0.950697	0.626662	-0.040062
O26	O	0.798862	0.638501	0.192480
O27	O	0.689839	0.646998	0.187902
O28	O	0.944689	0.627132	0.065042
O29	O	0.721250	0.883462	-0.192568
O30	O	0.788694	0.400375	0.201362
O31	O	0.926904	0.389602	0.207166
O32	O	0.934521	0.389006	0.073924
O33	O	0.575423	0.894831	-0.065130
O34	O	0.713633	0.884058	-0.059326
O35	O	0.785581	0.560909	0.126685
O36	O	0.871427	0.554216	0.051664
O37	O	0.801241	0.716938	-0.036037
O38	O	0.715395	0.723630	0.038984
C39	C	0.746027	0.432434	0.012211
C40	C	0.742991	0.361337	0.014863
C41	C	0.786374	0.324443	-0.023051
C42	C	0.783523	0.257634	-0.020552
C43	C	0.737285	0.227727	0.019858
C44	C	0.693901	0.264625	0.057777
C45	C	0.696756	0.331427	0.055282
C46	C	0.726424	0.026199	0.029355
C47	C	0.723570	-0.040606	0.031845
C48	C	0.813194	-0.047593	-0.046483
C49	C	0.816042	0.019215	-0.048978
C50	C	0.772661	0.056103	-0.011055
C51	C	0.734367	0.159441	0.022412
C52	C	0.775583	0.124383	-0.013605
C53	C	0.537477	0.658871	-0.004736
C54	C	0.463661	0.664624	-0.007836
C55	C	0.465616	0.582391	0.036483
C56	C	0.396256	0.587802	0.033568
C57	C	0.324941	0.675448	-0.013670
C58	C	0.322988	0.757688	-0.057989
C59	C	0.392347	0.752276	-0.055070
C60	C	0.113688	0.696040	-0.024771
C61	C	0.044327	0.701446	-0.027689
C62	C	0.117601	0.531559	0.063871
C63	C	0.186958	0.526155	0.066782
C64	C	0.184998	0.608395	0.022466
C65	C	0.254043	0.680982	-0.016652
C66	C	0.255895	0.602860	0.025453
C67	C	0.972467	0.624966	0.013530
C68	C	1.046283	0.619213	0.016630
C69	C	0.766958	0.640980	-0.205280
C70	C	0.771026	0.640662	-0.276443
C71	C	0.763917	0.851403	-0.003417
C72	C	0.766952	0.922500	-0.006069
C73	C	0.712879	0.645193	-0.312399
C74	C	0.716703	0.644901	-0.379268
C75	C	0.778679	0.640073	-0.410176
C76	C	0.836830	0.635544	-0.374216
C77	C	0.833002	0.635842	-0.307352
C78	C	0.793240	0.638945	-0.611939
C79	C	0.797065	0.638644	-0.678807
C80	C	0.676937	0.648003	-0.683855
C81	C	0.673117	0.648295	-0.616986
C82	C	0.731265	0.643772	-0.581035
C83	C	0.782591	0.639772	-0.478525
C84	C	0.727350	0.644079	-0.512691
C85	C	0.742985	0.642856	0.214074
C86	C	0.738917	0.643175	0.285237
C87	C	0.963522	0.415482	0.021344
C88	C	1.034302	0.338631	0.027096
C89	C	0.734040	0.433372	0.221888
C90	C	0.726937	0.362594	0.295703
C91	C	0.951536	0.416420	0.231021
C92	C	1.018248	0.339888	0.307936
C93	C	0.558408	0.867417	-0.222227
C94	C	0.491696	0.943949	-0.299142
C95	C	0.546422	0.868355	-0.012550
C96	C	0.475641	0.945205	-0.018302
C97	C	0.775903	0.850465	-0.213094
C98	C	0.783007	0.921243	-0.286909
C99	C	1.027412	0.305669	-0.012937
C100	C	1.093912	0.233469	-0.007549
C101	C	1.167301	0.194229	0.037877
C102	C	1.174190	0.227199	0.077911
C103	C	1.107691	0.299401	0.072518
C104	C	0.763730	0.326228	0.373101
C105	C	0.757052	0.259734	0.442464
C106	C	0.713585	0.229601	0.434427
C107	C	0.676787	0.265974	0.357020
C108	C	0.683461	0.332472	0.287659
C109	C	1.094394	0.300453	0.304895
C110	C	1.157085	0.228552	0.377158
C111	C	1.143627	0.196082	0.452460
C112	C	1.067472	0.235524	0.455498
C113	C	1.004783	0.307428	0.383236
C114	C	0.415550	0.983392	-0.296102
C115	C	0.352860	1.055314	-0.368365
C116	C	0.366318	1.087787	-0.443667
C117	C	0.442473	1.048341	-0.446705
C118	C	0.505161	0.976425	-0.374443
C119	C	0.482532	0.978175	0.021724
C120	C	0.416034	1.050393	0.016317
C121	C	0.342645	1.089635	-0.029112
C122	C	0.335756	1.056663	-0.069142
C123	C	0.402254	0.984451	-0.063740
C124	C	0.826480	0.951354	-0.278846
C125	C	0.833170	1.017848	-0.348195
C126	C	0.796382	1.054235	-0.425607
C127	C	0.752907	1.024117	-0.433669
C128	C	0.746223	0.957620	-0.364320
H129	H	0.853692	0.043564	-0.081883
H130	H	0.453422	1.074791	-0.508025
C131	C	0.334339	0.506451	0.077413
C132	C	0.395249	0.479136	0.036842
C133	C	0.473700	0.382727	0.088800
C134	C	0.491240	0.313634	0.181327
C135	C	0.430328	0.340947	0.221902
C136	C	0.351877	0.437356	0.169945
H137	H	0.382266	0.530284	-0.031656
H138	H	0.518791	0.362508	0.058762
H139	H	0.549314	0.242266	0.219789
H140	H	0.443311	0.289799	0.290401
H141	H	0.306786	0.457575	0.199983
C142	C	0.712436	1.064156	-0.518826
C143	C	0.719788	1.137310	-0.595101
C144	C	0.679311	1.177357	-0.680261
C145	C	0.631483	1.144250	-0.689146
C146	C	0.624130	1.071093	-0.612869
C147	C	0.664606	1.031046	-0.527709
H148	H	0.755194	1.161821	-0.588525
H149	H	0.684755	1.231513	-0.736726
H150	H	0.601520	1.173895	-0.752187
H151	H	0.588723	1.046582	-0.619444
H152	H	0.659162	0.976890	-0.471244
H153	H	0.856438	0.921738	-0.215819
C154	C	0.111533	0.786499	-0.073528
C155	C	0.145980	0.806397	-0.028960
C156	C	0.143829	0.896859	-0.077722
C157	C	0.107231	0.967422	-0.171052
C158	C	0.072781	0.947526	-0.215625
C159	C	0.074933	0.857064	-0.166863
H160	H	0.173075	0.754160	0.040133
H161	H	0.169331	0.911587	-0.044726
H162	H	0.105638	1.034387	-0.207149
H163	H	0.045687	0.999763	-0.284718
H164	H	0.049430	0.842336	-0.199859
H165	H	0.967662	0.337617	-0.049937
H166	H	0.824022	0.348792	-0.055961
H167	H	1.221442	0.135437	0.042263
H168	H	0.801831	1.108381	-0.482069
C169	C	0.831236	0.217055	-0.062264
C170	C	0.893312	0.110848	-0.011708
C171	C	0.941026	0.070268	-0.053423
C172	C	0.926665	0.135894	-0.145695
C173	C	0.864587	0.242107	-0.196257
C174	C	0.816872	0.282687	-0.154541
H175	H	0.903945	0.062262	0.056602
H176	H	0.986981	-0.008358	-0.015994
H177	H	0.961986	0.105854	-0.176575
H178	H	0.853954	0.290694	-0.264566
H179	H	0.770918	0.361314	-0.191971
C180	C	0.683500	0.126546	0.066854
C181	C	0.720924	0.022260	0.138954
C182	C	0.670059	-0.010639	0.183396
C183	C	0.581770	0.060748	0.155739
C184	C	0.544342	0.165041	0.083635
C185	C	0.595207	0.197940	0.039192
H186	H	0.786285	-0.030591	0.159431
H187	H	0.697766	-0.087843	0.236773
H188	H	0.544116	0.036395	0.188638
H189	H	0.478981	0.217892	0.063158
H190	H	0.567500	0.275145	-0.014184
H191	H	0.691104	0.056222	0.060238
C192	C	0.423624	1.086644	0.060362
C193	C	0.394473	1.190277	0.011198
C194	C	0.402066	1.226524	0.055245
C195	C	0.438809	1.159138	0.148455
C196	C	0.467963	1.055499	0.197624
C197	C	0.460370	1.019252	0.153578
H198	H	0.367271	1.240167	-0.057806
H199	H	0.380484	1.303246	0.018846
H200	H	0.444430	1.185970	0.181061
H201	H	0.495165	1.005609	0.266629
H202	H	0.481952	0.942530	0.189977
C203	C	1.254922	0.184017	0.127887
C204	C	1.317191	0.188361	0.086143
C205	C	1.397924	0.145170	0.136126
C206	C	1.416389	0.097633	0.227853
C207	C	1.354118	0.093287	0.269603
C208	C	1.273384	0.136479	0.219620
H209	H	1.303524	0.223553	0.018236
H210	H	1.444021	0.148387	0.105219
H211	H	1.476152	0.065660	0.264854
H212	H	1.367785	0.058096	0.337510
H213	H	1.227288	0.133261	0.250526
H214	H	0.942783	0.339527	0.385723
C215	C	0.652744	0.649880	-0.418821
C216	C	0.637574	0.572861	-0.368105
C217	C	0.573612	0.577841	-0.407659
C218	C	0.524820	0.659839	-0.497929
C219	C	0.539989	0.736864	-0.548651
C220	C	0.603951	0.731884	-0.509096
H221	H	0.673694	0.512156	-0.301276
H222	H	0.562384	0.520822	-0.370111
H223	H	0.477472	0.663525	-0.527210
H224	H	0.503869	0.797570	-0.615479
H225	H	0.615179	0.788904	-0.546644
H226	H	0.404576	0.956956	-0.234794
C227	C	0.857205	0.633958	-0.572389
C228	C	0.942184	0.549143	-0.535894
C229	C	1.006152	0.544155	-0.496338
C230	C	0.985140	0.623981	-0.493277
C231	C	0.900156	0.708803	-0.529773
C232	C	0.836189	0.713791	-0.569329
H233	H	0.957742	0.490045	-0.538159
H234	H	1.069062	0.481364	-0.469321
H235	H	1.032493	0.620289	-0.463995
H236	H	0.884598	0.767901	-0.527508
H237	H	0.773278	0.776582	-0.596346
H238	H	0.710819	0.933111	-0.370896
H239	H	0.396632	0.957610	-0.096332
H240	H	0.622651	0.652227	-0.591823
H241	H	0.653501	0.362072	0.224641
H242	H	0.275994	1.088625	-0.106130
H243	H	0.787021	0.230127	0.505485
C244	C	0.544061	0.485977	0.088446
C245	C	0.546209	0.395522	0.137199
C246	C	0.624652	0.299105	0.189166
C247	C	0.700948	0.293144	0.192380
C248	C	0.698803	0.383602	0.143625
C249	C	0.620360	0.480019	0.091658
H250	H	0.489727	0.399932	0.134822
H251	H	0.626239	0.232142	0.225258
H252	H	0.759016	0.221770	0.230849
H253	H	0.755284	0.379192	0.146002
H254	H	0.618772	0.546982	0.055567
H255	H	0.708157	0.175454	0.490912
H256	H	0.567161	0.944312	-0.376927
C257	C	0.265401	0.429739	0.118745
C258	C	0.326310	0.402411	0.078178
C259	C	0.404752	0.305993	0.130137
C260	C	0.422285	0.236902	0.222664
C261	C	0.361375	0.264228	0.263236
C262	C	0.282933	0.360646	0.211277
H263	H	0.313332	0.453558	0.009680
H264	H	0.449842	0.285765	0.100102
H265	H	0.480353	0.165527	0.261127
H266	H	0.374353	0.213082	0.331734
H267	H	0.237843	0.380874	0.241311
C268	C	0.896967	0.630856	-0.267796
C269	C	0.981947	0.546040	-0.231296
C270	C	1.045912	0.541058	-0.191744
C271	C	1.024897	0.620893	-0.188693
C272	C	0.939913	0.705715	-0.225194
C273	C	0.875948	0.710696	-0.264746
H274	H	0.997507	0.486937	-0.233554
H275	H	1.108823	0.478267	-0.164723
H276	H	1.072248	0.617205	-0.159414
H277	H	0.924353	0.764818	-0.222937
H278	H	0.813037	0.773487	-0.291767
C279	C	0.119753	0.441100	0.112623
C280	C	0.043465	0.447044	0.109420
C281	C	0.045620	0.356580	0.158178
C282	C	0.124063	0.260172	0.210140
C283	C	0.200358	0.254224	0.213346
C284	C	0.198203	0.344688	0.164588
H285	H	-0.014609	0.518415	0.070952
H286	H	-0.010859	0.360984	0.155805
H287	H	0.125658	0.193205	0.246234
H288	H	0.258431	0.182853	0.251813
H289	H	0.254681	0.340284	0.166961
H290	H	0.641397	0.241430	0.350488
C291	C	0.880986	1.050976	-0.339315
C292	C	0.921435	1.010961	-0.254163
C293	C	0.969249	1.044087	-0.245281
C294	C	0.976614	1.117229	-0.321552
C295	C	0.936163	1.157248	-0.406711
C296	C	0.888349	1.124122	-0.415593
H297	H	0.915985	0.956813	-0.197697
H298	H	0.999194	1.014462	-0.182240
H299	H	1.012009	1.141751	-0.314978
H300	H	0.941613	1.211396	-0.463177
H301	H	0.858405	1.153747	-0.478633
C302	C	0.390198	0.842734	-0.103823
C303	C	0.311756	0.939145	-0.155787
C304	C	0.309605	1.029606	-0.204538
C305	C	0.385895	1.023657	-0.201326
C306	C	0.464343	0.927243	-0.149360
C307	C	0.466494	0.836781	-0.100609
H308	H	0.255276	0.943552	-0.158166
H309	H	0.251533	1.100978	-0.243007
H310	H	0.384303	1.090622	-0.237415
H311	H	0.520823	0.922835	-0.146981
H312	H	0.524566	0.765409	-0.062140
C313	C	0.297356	1.166891	-0.523153
C314	C	0.213596	1.210225	-0.519798
C315	C	0.144630	1.289326	-0.599280
C316	C	0.159424	1.325093	-0.682117
C317	C	0.243188	1.281758	-0.685475
C318	C	0.312154	1.202658	-0.605993
H319	H	0.202640	1.183749	-0.458474
H320	H	0.082622	1.321405	-0.596794
H321	H	0.108372	1.383648	-0.740954
H322	H	0.254143	1.308235	-0.746798
H323	H	0.374162	1.170579	-0.608479
C324	C	1.086322	0.197205	-0.051582
C325	C	1.115499	0.093562	-0.002406
C326	C	1.107908	0.057299	-0.046437
C327	C	1.071140	0.124679	-0.139644
C328	C	1.041961	0.228328	-0.188824
C329	C	1.049552	0.264591	-0.144793
H330	H	1.142720	0.043678	0.066595
H331	H	1.129509	-0.019430	-0.010030
H332	H	1.065520	0.097835	-0.172238
H333	H	1.014740	0.278213	-0.257826
H334	H	1.027951	0.341320	-0.181201
H335	H	0.799125	0.350754	0.379661
H336	H	0.288505	1.148435	-0.033504
C337	C	0.672712	-0.073514	0.076307
C338	C	0.624999	-0.032946	0.118027
C339	C	0.574145	-0.065855	0.162487
C340	C	0.571005	-0.139332	0.165227
C341	C	0.618719	-0.179904	0.123506
C342	C	0.669573	-0.146995	0.079046
H343	H	0.627323	0.021451	0.116000
H344	H	0.538824	-0.035820	0.193372
H345	H	0.533359	-0.163693	0.198139
H346	H	0.616396	-0.234300	0.125533
H347	H	0.704895	-0.177030	0.048161
C348	C	1.212589	0.116980	0.531946
C349	C	1.296348	0.073603	0.528592
C350	C	1.365313	-0.005501	0.608075
C351	C	1.350521	-0.041229	0.690910
C352	C	1.266758	0.002148	0.694266
C353	C	1.197793	0.081252	0.614784
H354	H	1.307302	0.100051	0.467270
H355	H	1.427320	-0.037611	0.605589
H356	H	1.401573	-0.099787	0.749747
H357	H	1.255805	-0.024300	0.755589
H358	H	1.135786	0.113362	0.617269
H359	H	-0.013742	0.772822	-0.066159
H360	H	0.848513	-0.077634	-0.077357
H361	H	1.113312	0.326230	0.105123
H362	H	0.542283	0.946229	0.058722
H363	H	0.656257	0.240265	0.090684
H364	H	1.105367	0.326880	0.243588
H365	H	0.661428	0.361469	0.086154
H366	H	1.219088	0.196446	0.374670
H367	H	0.813233	0.148732	-0.046502
H368	H	0.397855	0.520839	0.069658
H369	H	0.264917	0.829052	-0.096447
H370	H	0.662414	0.649119	-0.287236
H371	H	0.195971	0.752344	-0.055113
H372	H	0.629594	0.651687	-0.713133
H373	H	0.847537	0.634711	-0.703968
H374	H	0.887291	0.631618	-0.399388
H375	H	0.676886	0.648016	-0.487527
H376	H	0.833054	0.635838	-0.503694
H377	H	1.056525	0.209076	0.516819
H378	H	0.290857	1.087419	-0.365876
