data_functionalizedCrystal
_audit_creation_method	'MofGen! by Chris Wilmer'
_symmetry_space_group_name_H-M	'P1'
_symmetry_Int_Tables_number	1
_symmetry_cell_setting	triclinic
loop_
_symmetry_equiv_pos_as_xyz
  x,y,z
_cell_length_a	19.805407
_cell_length_b	12.827892
_cell_length_c	19.805399
_cell_angle_alpha	90.019631
_cell_angle_beta	89.982197
_cell_angle_gamma	89.985353
loop_
_atom_site_label
_atom_site_type_symbol
_atom_site_fract_x
_atom_site_fract_y
_atom_site_fract_z
Zn1	Zn	1.034778	0.416132	-0.382725
Zn2	Zn	1.534778	0.916132	0.117275
Zn3	Zn	1.034711	0.590887	-0.269553
Zn4	Zn	1.534711	1.090887	0.230447
Zn5	Zn	0.921593	0.416153	-0.269553
Zn6	Zn	1.421593	0.916153	0.230447
Zn7	Zn	0.921574	0.590824	-0.382703
Zn8	Zn	1.421574	1.090824	0.117297
O9	O	0.978164	0.503499	-0.326133
O10	O	1.478164	1.003499	0.173867
O11	O	1.129486	0.439332	-0.367722
O12	O	1.629486	0.939332	0.132278
O13	O	1.019685	0.567744	-0.174836
O14	O	1.519685	1.067744	0.325164
O15	O	0.936643	0.269914	-0.284575
O16	O	1.436643	0.769914	0.215425
O17	O	1.129437	0.567724	-0.284574
O18	O	1.629437	1.067724	0.215426
O19	O	1.019800	0.269899	-0.367722
O20	O	1.519800	0.769899	0.132278
O21	O	0.936578	0.439367	-0.174836
O22	O	1.436578	0.939367	0.325164
O23	O	0.826874	0.439305	-0.284554
O24	O	1.326874	0.939305	0.215446
O25	O	0.936612	0.567615	-0.477422
O26	O	1.436612	1.067615	0.022578
O27	O	0.826860	0.567635	-0.367684
O28	O	1.326860	1.067635	0.132316
O29	O	1.019782	0.439270	-0.477439
O30	O	1.519782	0.939270	0.022561
O31	O	1.019667	0.737115	-0.284553
O32	O	1.519667	1.237115	0.215447
O33	O	0.936546	0.737068	-0.367684
O34	O	1.436546	1.237068	0.132316
C35	C	0.802308	0.503466	-0.326117
C36	C	1.302308	1.003466	0.173883
C37	C	0.727076	0.503477	-0.326126
C38	C	1.227076	1.003477	0.173874
C39	C	0.691758	0.436742	-0.369487
C40	C	1.191758	0.936742	0.130513
C41	C	0.621070	0.436747	-0.369489
C42	C	1.121070	0.936747	0.130511
C43	C	0.585701	0.503494	-0.326134
C44	C	1.085701	1.003494	0.173866
C45	C	0.621023	0.570233	-0.282769
C46	C	1.121023	1.070233	0.217231
C47	C	0.691711	0.570221	-0.282763
C48	C	1.191711	1.070221	0.217237
C49	C	0.335950	0.570280	-0.282789
C50	C	0.835950	1.070280	0.217211
C51	C	0.265258	0.570288	-0.282800
C52	C	0.765258	1.070288	0.217200
C53	C	0.265310	0.436806	-0.369516
C54	C	0.765310	0.936806	0.130484
C55	C	0.335997	0.436794	-0.369510
C56	C	0.835997	0.936794	0.130490
C57	C	0.371313	0.503528	-0.326142
C58	C	0.871313	1.003528	0.173858
C59	C	0.447962	0.503520	-0.326139
C60	C	0.947962	1.003520	0.173861
C61	C	0.509054	0.503509	-0.326140
C62	C	1.009054	1.003509	0.173860
C63	C	0.978116	0.775009	-0.326130
C64	C	1.478116	1.275009	0.173870
C65	C	0.978157	0.891162	-0.326152
C66	C	1.478157	1.391162	0.173848
C67	C	1.019336	0.942935	-0.285063
C68	C	1.519336	1.442935	0.214937
C69	C	1.019379	1.062986	-0.285084
C70	C	1.519379	1.562986	0.214916
C71	C	1.154707	0.503533	-0.326150
C72	C	1.654707	1.003533	0.173850
C73	C	1.229939	0.503547	-0.326157
C74	C	1.729939	1.003547	0.173843
C75	C	0.978202	0.503433	-0.502676
C76	C	1.478202	1.003433	-0.002676
C77	C	0.978218	0.503405	-0.577908
C78	C	1.478218	1.003405	-0.077908
C79	C	0.978226	1.230929	-0.326159
C80	C	1.478226	1.730929	0.173841
C81	C	0.978238	1.114776	-0.326192
C82	C	1.478238	1.614776	0.173808
C83	C	1.021526	0.436572	-0.613262
C84	C	1.521526	0.936572	-0.113262
C85	C	1.021533	0.436542	-0.683950
C86	C	1.521533	0.936542	-0.183950
C87	C	0.978235	0.503350	-0.719284
C88	C	1.478235	1.003350	-0.219284
C89	C	0.934923	0.570186	-0.683925
C90	C	1.434923	1.070186	-0.183925
C91	C	0.934913	0.570210	-0.613238
C92	C	1.434913	1.070210	-0.113238
C93	C	0.934961	0.570089	-0.968999
C94	C	1.434961	1.070089	-0.468999
C95	C	0.934975	0.570061	-1.039691
C96	C	1.434975	1.070061	-0.539691
C97	C	1.021581	0.436420	-1.039711
C98	C	1.521581	0.936420	-0.539711
C99	C	1.021571	0.436445	-0.969024
C100	C	1.521571	0.936445	-0.469024
C101	C	0.978257	0.503276	-0.933671
C102	C	1.478257	1.003276	-0.433671
C103	C	0.978249	0.503307	-0.857023
C104	C	1.478249	1.003307	-0.357023
C105	C	0.978246	0.503326	-0.795931
C106	C	1.478246	1.003326	-0.295931
C107	C	0.978165	0.503489	-0.150277
C108	C	1.478165	1.003489	0.349723
C109	C	0.978280	0.503223	-0.075046
C110	C	1.478280	1.003223	0.424954
H111	H	0.720551	0.382391	-0.404793
H112	H	1.220551	0.882391	0.095207
H113	H	1.056831	0.382046	-0.940259
H114	H	1.556831	0.882046	-0.440259
Br115	Br	1.080366	0.345717	-1.087693
Br116	Br	1.580366	0.845717	-0.587693
Br117	Br	0.876211	0.660738	-1.087643
Br118	Br	1.376211	1.160738	-0.587643
H119	H	0.899701	0.624522	-0.940223
H120	H	1.399701	1.124522	-0.440223
H121	H	0.899666	0.624579	-0.712699
H122	H	1.399666	1.124579	-0.212699
Br123	Br	1.080296	0.345907	-0.565316
Br124	Br	1.580296	0.845907	-0.065316
Br125	Br	0.919453	0.965407	-0.384818
Br126	Br	1.419453	1.465407	0.115182
Br127	Br	0.573023	0.660811	-0.223923
Br128	Br	1.073023	1.160811	0.276077
H129	H	0.364696	0.624620	-0.247477
H130	H	0.864696	1.124620	0.252523
Br131	Br	0.876131	0.660909	-0.565257
Br132	Br	1.376131	1.160909	-0.065257
H133	H	1.056800	0.382123	-0.712732
H134	H	1.556800	0.882123	-0.212732
Br135	Br	1.078138	1.137187	-0.226444
Br136	Br	1.578138	1.637187	0.273556
H137	H	0.592317	0.382407	-0.404799
H138	H	1.092317	0.882407	0.095201
H139	H	0.364791	0.382446	-0.404817
H140	H	0.864791	0.882446	0.095183
H141	H	0.942979	1.070260	-0.361368
H142	H	1.442979	1.570260	0.138632
Br143	Br	1.078052	0.868691	-0.226409
Br144	Br	1.578052	1.368691	0.273591
Br145	Br	0.217257	0.660880	-0.223956
Br146	Br	0.717257	1.160880	0.276044
Br147	Br	0.217376	0.346236	-0.428373
Br148	Br	0.717376	0.846236	0.071627
H149	H	0.720465	0.624563	-0.247454
H150	H	1.220465	1.124563	0.252546
