data_functionalizedCrystal
_audit_creation_method	'MofGen! by Chris Wilmer'
_symmetry_space_group_name_H-M	'P1'
_symmetry_Int_Tables_number	1
_symmetry_cell_setting	triclinic
loop_
_symmetry_equiv_pos_as_xyz
  x,y,z
_cell_length_a	14.853569
_cell_length_b	13.930277
_cell_length_c	8.559649
_cell_angle_alpha	90.003218
_cell_angle_beta	76.707115
_cell_angle_gamma	90.005244
loop_
_atom_site_label
_atom_site_type_symbol
_atom_site_fract_x
_atom_site_fract_y
_atom_site_fract_z
O1	O	1.181778	0.079783	0.208592
O2	O	0.917581	0.079794	0.233437
O3	O	1.072955	0.079786	-0.011535
O4	O	1.026403	0.079790	0.453565
O5	O	1.072937	-0.079876	-0.011541
O6	O	0.917562	-0.079868	0.233432
O7	O	1.181759	-0.079879	0.208587
Zn8	Zn	1.049658	-0.105223	0.221008
Zn9	Zn	1.049682	0.105138	0.221015
O10	O	1.026385	-0.079872	0.453559
C11	C	0.884062	-0.000036	0.232308
C12	C	0.784214	-0.000031	0.228933
N13	N	1.049647	-0.248789	0.221003
C14	C	0.758126	-0.000029	0.081831
C15	C	0.716481	-0.000037	0.372865
C16	C	0.622668	-0.000039	0.369699
C17	C	0.596580	-0.000036	0.222597
C18	C	0.664305	-0.000033	0.078661
C19	C	0.554937	-0.000052	0.513633
C20	C	0.461117	-0.000054	0.510473
C21	C	0.435028	-0.000045	0.363369
C22	C	0.502760	-0.000040	0.219427
C23	C	0.476672	-0.000038	0.072325
C24	C	0.544402	-0.000027	-0.071620
C25	C	0.638216	-0.000024	-0.068443
C26	C	0.341214	-0.000048	0.360193
C27	C	0.382851	-0.000042	0.069154
C28	C	0.980883	-0.701055	0.329447
C29	C	1.118507	-0.701031	0.112572
C30	C	1.118497	-0.600536	0.112567
C31	C	1.049679	-0.550295	0.221005
C32	C	0.980872	-0.600550	0.329448
C33	C	1.187308	-0.550273	0.004137
C34	C	1.187301	-0.449771	0.004128
C35	C	1.118479	-0.399529	0.112560
C36	C	1.049669	-0.449790	0.221006
C37	C	0.980851	-0.399550	0.329444
C38	C	0.912036	-0.449809	0.437884
C39	C	0.912050	-0.550308	0.437880
C40	C	1.118465	-0.299030	0.112565
C41	C	0.980840	-0.299045	0.329446
C42	C	1.215278	-0.000048	0.209716
C43	C	1.315126	-0.000046	0.213091
C44	C	1.076474	-0.000043	-0.071060
C45	C	1.086975	-0.000038	-0.248417
N46	N	1.049701	0.248704	0.221008
C47	C	1.022866	-0.000040	0.513084
C48	C	1.012365	-0.000039	0.690441
H49	H	0.361620	-0.000035	-0.050636
H50	H	1.243341	-0.591182	-0.084143
H51	H	0.856024	-0.591236	0.526169
H52	H	0.924853	-0.741979	0.417733
H53	H	1.243333	-0.408856	-0.084170
H54	H	1.158890	-0.000049	-0.331762
H55	H	0.286072	-0.000065	0.477390
H56	H	0.523149	-0.000019	-0.191390
H57	H	0.940455	-0.000039	-0.226223
H58	H	0.813276	-0.000016	-0.035364
H59	H	0.693369	-0.000017	-0.185634
H60	H	0.576185	-0.000060	0.633396
H61	H	0.737728	-0.000046	0.492629
H62	H	0.405978	-0.000061	0.627681
H63	H	0.856007	-0.408892	0.526182
H64	H	0.924797	-0.258145	0.417744
H65	H	1.174497	-0.258113	0.024282
H66	H	1.174540	-0.741940	0.024292
