data_functionalizedCrystal
_audit_creation_method	'MofGen! by Chris Wilmer'
_symmetry_space_group_name_H-M	'P1'
_symmetry_Int_Tables_number	1
_symmetry_cell_setting	triclinic
loop_
_symmetry_equiv_pos_as_xyz
  x,y,z
_cell_length_a	19.805407
_cell_length_b	16.120444
_cell_length_c	19.805399
_cell_angle_alpha	92.871785
_cell_angle_beta	89.975799
_cell_angle_gamma	92.926126
loop_
_atom_site_label
_atom_site_type_symbol
_atom_site_fract_x
_atom_site_fract_y
_atom_site_fract_z
Zn1	Zn	1.021070	-0.331945	-0.396464
Zn2	Zn	1.521070	0.168055	0.103536
Zn3	Zn	1.015245	-0.471364	-0.289013
Zn4	Zn	1.515245	0.028636	0.210987
Zn5	Zn	0.907883	-0.331966	-0.283280
Zn6	Zn	1.407883	0.168034	0.216720
Zn7	Zn	0.902110	-0.471318	-0.402149
Zn8	Zn	1.402110	0.028682	0.097851
O9	O	0.961577	-0.401649	-0.342726
O10	O	1.461577	0.098351	0.157274
O11	O	1.115013	-0.350450	-0.382230
O12	O	1.615013	0.149550	0.117770
O13	O	1.000982	-0.452901	-0.193537
O14	O	1.500982	0.047099	0.306463
O15	O	0.927752	-0.215297	-0.293516
O16	O	1.427752	0.284703	0.206484
O17	O	1.110734	-0.452880	-0.303287
O18	O	1.610734	0.047120	0.196713
O19	O	1.010909	-0.215282	-0.376671
O20	O	1.510909	0.284718	0.123329
O21	O	0.922104	-0.350486	-0.189325
O22	O	1.422104	0.149514	0.310675
O23	O	0.812401	-0.350441	-0.299028
O24	O	1.312401	0.149559	0.200972
O25	O	0.917912	-0.452802	-0.496110
O26	O	1.417912	0.047198	0.003890
O27	O	0.808160	-0.452822	-0.386360
O28	O	1.308160	0.047178	0.113640
O29	O	1.005311	-0.350405	-0.491933
O30	O	1.505311	0.149595	0.008067
O31	O	0.995383	-0.588025	-0.308799
O32	O	1.495383	-0.088025	0.191201
O33	O	0.912264	-0.587991	-0.391919
O34	O	1.412264	-0.087991	0.108081
C35	C	0.785722	-0.401630	-0.342689
C36	C	1.285722	0.098370	0.157311
C37	C	0.710489	-0.401642	-0.342691
C38	C	1.210489	0.098358	0.157309
C39	C	0.246503	-0.455059	-0.388180
C40	C	0.746503	0.044941	0.111820
C41	C	0.317191	-0.455057	-0.388165
C42	C	0.817191	0.044943	0.111835
C43	C	0.354726	-0.401669	-0.342754
C44	C	0.854726	0.098331	0.157246
C45	C	0.321569	-0.348284	-0.297349
C46	C	0.821569	0.151716	0.202651
C47	C	0.250882	-0.348290	-0.297360
C48	C	0.750882	0.151710	0.202640
C49	C	0.606644	-0.348259	-0.297300
C50	C	1.106644	0.151741	0.202700
C51	C	0.677336	-0.348255	-0.297293
C52	C	1.177336	0.151745	0.202707
C53	C	0.672953	-0.455025	-0.388105
C54	C	1.172953	0.044975	0.111895
C55	C	0.602266	-0.455032	-0.388117
C56	C	1.102266	0.044968	0.111883
C57	C	0.569115	-0.401651	-0.342710
C58	C	1.069115	0.098349	0.157290
C59	C	0.492466	-0.401654	-0.342725
C60	C	0.992466	0.098346	0.157275
C61	C	0.431374	-0.401661	-0.342741
C62	C	0.931374	0.098339	0.157259
C63	C	0.952583	-0.618258	-0.351613
C64	C	1.452583	-0.118258	0.148387
C65	C	0.948797	-0.710924	-0.355437
C66	C	1.448797	-0.210924	0.144563
C67	C	0.981381	-0.921864	-0.323033
C68	C	1.481381	-0.421864	0.176967
C69	C	0.941898	-0.880582	-0.362427
C70	C	1.441898	-0.380582	0.137573
C71	C	0.945738	-0.786175	-0.358537
C72	C	1.445738	-0.286175	0.141463
C73	C	0.977542	-1.016279	-0.326922
C74	C	1.477542	-0.516279	0.173078
C75	C	1.138119	-0.401668	-0.342764
C76	C	1.638119	0.098332	0.157236
C77	C	1.213351	-0.401676	-0.342780
C78	C	1.713351	0.098324	0.157220
C79	C	0.961617	-0.401596	-0.519267
C80	C	1.461617	0.098404	-0.019267
C81	C	0.961634	-0.401574	-0.594498
C82	C	1.461634	0.098426	-0.094498
C83	C	0.970624	-0.184193	-0.333820
C84	C	1.470624	0.315807	0.166180
C85	C	0.974480	-0.091527	-0.330024
C86	C	1.474480	0.408473	0.169976
C87	C	1.007144	-0.348253	-0.627668
C88	C	1.507144	0.151747	-0.127668
C89	C	1.007152	-0.348229	-0.698356
C90	C	1.507152	0.151771	-0.198356
C91	C	0.961653	-0.401530	-0.735872
C92	C	1.461653	0.098470	-0.235872
C93	C	0.916138	-0.454853	-0.702697
C94	C	1.416138	0.045147	-0.202697
C95	C	0.916127	-0.454872	-0.632010
C96	C	1.416127	0.045128	-0.132010
C97	C	0.916179	-0.454775	-0.987767
C98	C	1.416179	0.045225	-0.487767
C99	C	0.916195	-0.454754	-1.058458
C100	C	1.416195	0.045246	-0.558458
C101	C	1.007204	-0.348132	-1.054113
C102	C	1.507204	0.151868	-0.554113
C103	C	1.007193	-0.348151	-0.983426
C104	C	1.507193	0.151849	-0.483426
C105	C	0.961677	-0.401471	-0.950257
C106	C	1.461677	0.098529	-0.450257
C107	C	0.961668	-0.401495	-0.873610
C108	C	1.461668	0.098505	-0.373610
C109	C	0.961664	-0.401510	-0.812518
C110	C	1.461664	0.098490	-0.312518
C111	C	0.961578	-0.401641	-0.166870
C112	C	1.461578	0.098359	0.333130
C113	C	0.961702	-0.401428	-0.091630
C114	C	1.461702	0.098572	0.408370
H115	H	0.223890	-0.304819	-0.260393
H116	H	0.723890	0.195181	0.239607
H117	H	0.879090	-0.498249	-0.733248
H118	H	1.379090	0.001751	-0.233248
Cl119	Cl	0.858959	-0.521806	-0.946078
Cl120	Cl	1.358959	-0.021806	-0.446078
Cl121	Cl	1.038017	-0.866968	-0.266453
Cl122	Cl	1.538017	-0.366968	0.233547
H123	H	0.879062	-0.498283	-0.605004
H124	H	1.379062	0.001717	-0.105004
Cl125	Cl	1.064350	-0.281246	-0.580512
Cl126	Cl	1.564350	0.218754	-0.080512
H127	H	0.352136	-0.304818	-0.260371
H128	H	0.852136	0.195182	0.239629
Cl129	Cl	0.564977	-0.281141	-0.240224
Cl130	Cl	1.064977	0.218859	0.259776
Cl131	Cl	0.885254	-0.935477	-0.419006
Cl132	Cl	1.385254	-0.435477	0.080994
H133	H	0.215947	-0.498529	-0.425163
H134	H	0.715947	0.001471	0.074837
Cl135	Cl	1.064396	-0.281231	-0.740054
Cl136	Cl	1.564396	0.218769	-0.240054
H137	H	0.344181	-0.498528	-0.425133
H138	H	0.844181	0.001472	0.074867
H139	H	1.044246	-0.304751	-0.952884
H140	H	1.544246	0.195249	-0.452884
H141	H	1.044264	-0.304714	-1.081127
H142	H	1.544264	0.195286	-0.581127
H143	H	0.571708	-0.498503	-0.425098
H144	H	1.071708	0.001497	0.074902
H145	H	0.879141	-0.498159	-1.089002
H146	H	1.379141	0.001841	-0.589002
H147	H	0.699953	-0.498493	-0.425076
H148	H	1.199953	0.001507	0.074924
H149	H	0.707895	-0.304776	-0.260312
H150	H	1.207895	0.195224	0.239688
