data_functionalizedCrystal
_audit_creation_method	'MofGen! by Chris Wilmer'
_symmetry_space_group_name_H-M	'P1'
_symmetry_Int_Tables_number	1
_symmetry_cell_setting	triclinic
loop_
_symmetry_equiv_pos_as_xyz
  x,y,z
_cell_length_a	12.594517
_cell_length_b	12.594516
_cell_length_c	17.077396
_cell_angle_alpha	89.976020
_cell_angle_beta	89.989369
_cell_angle_gamma	90.016010
loop_
_atom_site_label
_atom_site_type_symbol
_atom_site_fract_x
_atom_site_fract_y
_atom_site_fract_z
Zn1	Zn	1.627228	-0.423735	-0.443733
Zn2	Zn	1.627131	-0.601738	-0.312480
Zn3	Zn	1.449244	-0.423774	-0.312496
Zn4	Zn	1.449214	-0.601671	-0.443718
O5	O	1.538204	-0.512729	-0.378107
O6	O	1.776161	-0.447359	-0.426321
O7	O	1.603505	-0.578175	-0.202635
O8	O	1.472907	-0.274823	-0.329919
O9	O	1.776089	-0.578137	-0.329890
O10	O	1.603671	-0.274794	-0.426338
O11	O	1.472812	-0.447425	-0.202647
O12	O	1.300294	-0.447361	-0.329904
O13	O	1.472857	-0.578023	-0.553567
O14	O	1.300272	-0.578061	-0.426312
O15	O	1.603643	-0.447294	-0.553578
O16	O	1.603476	-0.750675	-0.329875
O17	O	1.472762	-0.750626	-0.426296
C18	C	1.261663	-0.512709	-0.378109
C19	C	1.143358	-0.512726	-0.378128
C20	C	1.003360	-0.583943	-0.430467
C21	C	1.074137	-0.609846	-0.358827
C22	C	1.074153	-0.486869	-0.449761
C23	C	1.003349	-0.538714	-0.306426
C24	C	1.003358	-0.415692	-0.397409
C25	C	1.074103	-0.441559	-0.325719
C26	C	1.538134	-0.789270	-0.378099
C27	C	1.538202	-0.907576	-0.378122
C28	C	1.467100	-0.976841	-0.430528
C29	C	1.441172	-1.047703	-0.358903
C30	C	1.564226	-1.047513	-0.449760
C31	C	1.512224	-0.976879	-0.306459
C32	C	1.635322	-0.976684	-0.397364
C33	C	1.609432	-1.047513	-0.325689
C34	C	1.815825	-0.512751	-0.378105
C35	C	1.934130	-0.512760	-0.378105
C36	C	1.538258	-0.512647	-0.582851
C37	C	1.538280	-0.512612	-0.670101
C38	C	1.538303	-0.235109	-0.378132
C39	C	1.538345	-0.116803	-0.378142
C40	C	1.470249	-0.444522	-0.711097
C41	C	1.470267	-0.444498	-0.793078
C42	C	1.538321	-0.512559	-0.834061
C43	C	1.606355	-0.580656	-0.793059
C44	C	1.606332	-0.580685	-0.711080
C45	C	1.606401	-0.580589	-0.963929
C46	C	1.606427	-0.580560	-1.045914
C47	C	1.470336	-0.444403	-1.045927
C48	C	1.470313	-0.444432	-0.963948
C49	C	1.538349	-0.512528	-0.922952
C50	C	1.538212	-0.512735	-0.174159
C51	C	1.538396	-0.512470	-0.086910
H52	H	1.105254	-0.464985	-0.510350
O53	O	1.343335	-1.084976	-0.339359
C54	C	1.350793	-1.146598	-0.270634
H55	H	1.424690	-1.122388	-0.236480
H56	H	1.356379	-1.234193	-0.286922
C57	C	1.160809	-1.158025	-0.261646
C58	C	1.251566	-1.128283	-0.219694
H59	H	1.099600	-1.146732	-0.230225
H60	H	1.155784	-1.116512	-0.307949
H61	H	1.165479	-1.231019	-0.275217
H62	H	1.246901	-1.055287	-0.206132
H63	H	1.256588	-1.169783	-0.173387
O64	O	1.110759	-0.369716	-0.272788
C65	C	1.024158	-0.320133	-0.235391
H66	H	0.951317	-0.373600	-0.239430
H67	H	1.006712	-0.241084	-0.265278
C68	C	1.140989	-0.234857	-0.143750
C69	C	1.051526	-0.300530	-0.148705
H70	H	1.157872	-0.222760	-0.090279
H71	H	1.199335	-0.268258	-0.168947
H72	H	1.126439	-0.168990	-0.168660
H73	H	1.066082	-0.366399	-0.123803
H74	H	0.993184	-0.267139	-0.123502
H75	H	0.972245	-0.333642	-0.413753
H76	H	1.414941	-0.388956	-1.079310
O77	O	0.966344	-0.655967	-0.483128
C78	C	1.002432	-0.758181	-0.462499
H79	H	1.022284	-0.760076	-0.397387
H80	H	1.076505	-0.778187	-0.497917
C81	C	0.890594	-0.837922	-0.560046
C82	C	0.914968	-0.840252	-0.480073
H83	H	0.836645	-0.888549	-0.570890
H84	H	0.866283	-0.769059	-0.573947
H85	H	0.952329	-0.854590	-0.589552
H86	H	0.853238	-0.823570	-0.450570
H87	H	0.939267	-0.909114	-0.466168
H88	H	1.717370	-0.945468	-0.413657
H89	H	1.414837	-0.389093	-0.677735
H90	H	1.586179	-1.078540	-0.510335
H91	H	1.490175	-0.945981	-0.245867
H92	H	1.661738	-0.636122	-0.677702
O93	O	1.395100	-0.939860	-0.483235
C94	C	1.292888	-0.976076	-0.462669
H95	H	1.290948	-0.995982	-0.397559
H96	H	1.272950	-1.050142	-0.498099
C97	C	1.213171	-0.864246	-0.560268
C98	C	1.210786	-0.888686	-0.480297
H99	H	1.162525	-0.810343	-0.571144
H100	H	1.282033	-0.839850	-0.574126
H101	H	1.196559	-0.925975	-0.589784
H102	H	1.227411	-0.826961	-0.450783
H103	H	1.141925	-0.913070	-0.466434
O104	O	1.672351	-0.646924	-0.832831
C105	C	1.649063	-0.753011	-0.812773
H106	H	1.564022	-0.758387	-0.790241
H107	H	1.706102	-0.780854	-0.765182
C108	C	1.765898	-0.817418	-0.913263
C109	C	1.661446	-0.824022	-0.885595
H110	H	1.773541	-0.861223	-0.958181
H111	H	1.781591	-0.745945	-0.926775
H112	H	1.813418	-0.840619	-0.873597
H113	H	1.613930	-0.800809	-0.925258
H114	H	1.645745	-0.895493	-0.872092
H115	H	1.669622	-1.078349	-0.281328
H116	H	1.105226	-0.691921	-0.342503
H117	H	1.414865	-0.389057	-0.826453
O118	O	1.404109	-0.378282	-0.924257
C119	C	1.344082	-0.318154	-0.978018
H120	H	1.340390	-0.361725	-1.036452
H121	H	1.383093	-0.237318	-0.986744
C122	C	1.235334	-0.249299	-0.874251
C123	C	1.230793	-0.302818	-0.946019
H124	H	1.165454	-0.239834	-0.854512
H125	H	1.275778	-0.289805	-0.838030
H126	H	1.267848	-0.181941	-0.881532
H127	H	1.198292	-0.370179	-0.938735
H128	H	1.190341	-0.262323	-0.982238
O129	O	1.672669	-0.646626	-1.085645
C130	C	1.778765	-0.623386	-1.065638
H131	H	1.780989	-0.582503	-1.006117
H132	H	1.814647	-0.568647	-1.111781
C133	C	1.840450	-0.777382	-1.134961
C134	C	1.843182	-0.727176	-1.061852
H135	H	1.880188	-0.841403	-1.132629
H136	H	1.768972	-0.793037	-1.148443
H137	H	1.870350	-0.731756	-1.173406
H138	H	1.813270	-0.772797	-1.023411
H139	H	1.914656	-0.711531	-1.048364
O140	O	1.672544	-0.646591	-0.924020
C141	C	1.741317	-0.586014	-0.876621
H142	H	1.703802	-0.505354	-0.864347
H143	H	1.820206	-0.574311	-0.908217
C144	C	1.806627	-0.743675	-0.813819
C145	C	1.760546	-0.644611	-0.798739
H146	H	1.818494	-0.779821	-0.765779
H147	H	1.760297	-0.784488	-0.845755
H148	H	1.872363	-0.733909	-0.840151
H149	H	1.694806	-0.654379	-0.772416
H150	H	1.806866	-0.603801	-0.766797
H151	H	0.972379	-0.560698	-0.245821
