data_functionalizedCrystal
_audit_creation_method	'MofGen! by Chris Wilmer'
_symmetry_space_group_name_H-M	'P1'
_symmetry_Int_Tables_number	1
_symmetry_cell_setting	triclinic
loop_
_symmetry_equiv_pos_as_xyz
  x,y,z
_cell_length_a	18.426585
_cell_length_b	23.196402
_cell_length_c	23.196402
_cell_angle_alpha	60.003895
_cell_angle_beta	60.002344
_cell_angle_gamma	90.005052
loop_
_atom_site_label
_atom_site_type_symbol
_atom_site_fract_x
_atom_site_fract_y
_atom_site_fract_z
Zr1	Zr	0.699124	-0.075658	0.631029
O2	O	0.583242	-0.167704	0.751290
O3	O	0.734645	-0.047442	0.510764
O4	O	0.734637	-0.167709	0.631029
O5	O	0.583261	0.047433	0.631027
O6	O	0.854062	-0.167711	0.631033
O7	O	0.583251	-0.047437	0.631025
O8	O	0.854078	0.047424	0.415900
O9	O	0.583245	-0.167702	0.846159
O10	O	0.838924	-0.035408	0.560235
O11	O	0.749806	0.035394	0.560233
O12	O	0.749795	-0.106205	0.701830
O13	O	0.660677	-0.035403	0.701828
Zr14	Zr	0.889611	0.075645	0.631038
Zr15	Zr	0.889595	-0.075661	0.631035
Zr16	Zr	0.699140	0.075649	0.631031
Zr17	Zr	0.699129	-0.075655	0.782333
Zr18	Zr	0.889606	0.075643	0.479733
O19	O	0.854090	0.047429	0.751303
O20	O	0.854067	-0.167709	0.751300
O21	O	0.583265	0.047435	0.751294
O22	O	1.005493	0.167691	0.510776
O23	O	1.005470	-0.047447	0.510773
O24	O	0.734668	0.167697	0.510767
O25	O	1.005474	-0.047445	0.631040
O26	O	0.854098	0.167696	0.631038
O27	O	0.734672	0.167698	0.631034
O28	O	1.005484	0.047424	0.631041
O29	O	0.734644	-0.167705	0.846164
O30	O	0.854091	0.167693	0.415902
O31	O	1.005490	0.167690	0.415907
O32	O	1.005477	0.047421	0.415906
O33	O	0.583258	-0.047434	0.846161
O34	O	0.734657	-0.047437	0.846166
O35	O	0.838939	0.106192	0.560237
O36	O	0.928058	0.035390	0.560239
O37	O	0.838929	-0.035406	0.701834
O38	O	0.749811	0.035396	0.701832
C39	C	0.556118	-0.000001	0.631025
C40	C	0.475258	0.000000	0.631023
C41	C	0.794361	-0.000009	0.441774
C42	C	0.794359	-0.000010	0.377542
C43	C	0.794388	0.189255	0.631036
C44	C	0.794394	0.253489	0.631037
C45	C	0.179143	-0.000012	0.631047
C46	C	0.261529	-0.000011	0.631044
C47	C	0.327198	-0.000007	0.631035
C48	C	0.409589	-0.000004	0.631031
C49	C	1.032617	-0.000011	0.631041
C50	C	1.113477	-0.000013	0.631044
C51	C	0.794347	-0.189268	0.631030
C52	C	0.794340	-0.253501	0.631029
C53	C	0.747874	0.246709	0.704946
C54	C	0.747861	0.307063	0.704947
C55	C	0.794386	0.374197	0.631035
C56	C	0.840908	0.380975	0.557117
C57	C	0.840913	0.320620	0.557118
C58	C	0.872308	0.498132	0.574410
C59	C	0.872306	0.558483	0.574412
C60	C	0.794371	0.560351	0.631029
C61	C	0.716438	0.501853	0.687658
C62	C	0.716442	0.441499	0.687659
C63	C	0.794386	0.439645	0.631026
C64	C	0.747832	0.619012	0.704944
C65	C	0.747816	0.679369	0.704942
C66	C	0.840872	0.753280	0.557109
C67	C	0.840879	0.692923	0.557114
C68	C	0.794361	0.625791	0.631033
C69	C	0.728586	-0.052269	-0.033044
C70	C	0.728578	-0.052269	0.027314
C71	C	0.794375	-0.000007	0.005235
C72	C	0.860171	0.052270	-0.077211
C73	C	0.860172	0.052272	-0.137566
C74	C	0.874681	0.016279	0.060817
C75	C	0.874681	0.016273	0.121173
C76	C	0.794374	-0.000009	0.191387
C77	C	0.714061	-0.016299	0.201248
C78	C	0.714061	-0.016297	0.140893
C79	C	0.794382	-0.000003	0.070674
C80	C	0.728570	-0.052279	0.339269
C81	C	0.728562	-0.052274	0.399626
C82	C	0.860162	0.052262	0.295098
C83	C	0.860163	0.052260	0.234744
C84	C	0.794367	-0.000014	0.256835
C85	C	0.794374	-0.000003	0.820292
C86	C	0.794376	-0.000002	0.884525
C87	C	1.032611	-0.000014	0.441782
C88	C	1.113468	-0.000017	0.377552
C89	C	0.794381	0.189252	0.441777
C90	C	0.794386	0.253485	0.377546
C91	C	1.032631	0.189247	0.441785
C92	C	1.113495	0.253478	0.377556
C93	C	0.556104	-0.189260	0.820281
C94	C	0.475240	-0.253491	0.884510
C95	C	0.556124	0.000002	0.820284
C96	C	0.475267	0.000004	0.884514
C97	C	0.794354	-0.189265	0.820289
C98	C	0.794349	-0.253497	0.884521
C99	C	1.104913	-0.036980	0.347387
C100	C	1.180880	-0.036997	0.287045
C101	C	1.265401	-0.000045	0.256864
C102	C	1.273955	0.036920	0.287035
C103	C	1.197989	0.036932	0.347381
C104	C	0.840915	0.320612	0.347384
C105	C	0.840916	0.380971	0.287040
C106	C	0.794393	0.374202	0.256854
C107	C	0.747858	0.307068	0.287022
C108	C	0.747852	0.246710	0.347369
C109	C	1.197997	0.246684	0.347395
C110	C	1.273985	0.307030	0.287053
C111	C	1.265469	0.374170	0.256870
C112	C	1.180958	0.380963	0.287038
C113	C	1.104972	0.320618	0.347382
C114	C	0.390738	-0.246696	0.914679
C115	C	0.314750	-0.307042	0.975040
C116	C	0.323266	-0.374182	1.005226
C117	C	0.407776	-0.380975	0.975054
C118	C	0.483763	-0.320630	0.914699
C119	C	0.483822	0.036962	0.914686
C120	C	0.407855	0.036962	0.975045
C121	C	0.323334	0.000008	1.005227
C122	C	0.314780	-0.036954	0.975053
C123	C	0.390746	-0.036958	0.914699
C124	C	0.840882	-0.246706	0.914687
C125	C	0.840895	-0.307053	0.975032
C126	C	0.794369	-0.374192	1.005213
C127	C	0.747835	-0.380982	0.975041
C128	C	0.747828	-0.320635	0.914693
H129	H	0.709993	0.192051	0.765137
H130	H	0.878813	0.435628	0.262484
H131	H	0.261484	0.000017	1.054371
H132	H	0.552566	-0.326171	0.890136
H133	H	0.709932	-0.326175	0.890139
C134	C	0.958033	0.622826	0.512120
N135	N	1.022605	0.671289	0.465198
C136	C	0.221798	-0.077589	1.008252
N137	N	0.151761	-0.108189	1.033252
C138	C	0.892072	-0.172858	0.881495
N139	N	0.930637	-0.117238	0.856494
H140	H	0.383768	-0.067051	0.890135
H141	H	0.878786	-0.301510	0.999592
H142	H	1.174038	0.435636	0.262454
C143	C	0.696638	0.671906	0.786252
N144	N	0.658091	0.666284	0.847496
C145	C	0.656191	-0.109760	-0.008738
N146	N	0.601658	-0.153057	0.009568
C147	C	0.794384	-0.440569	1.071599
N148	N	0.794397	-0.490562	1.121602
H149	H	0.674991	-0.094824	0.094442
H150	H	0.709956	-0.435655	0.999624
C151	C	0.696690	0.299633	0.253805
N152	N	0.658156	0.294036	0.228780
H153	H	0.709975	0.301543	0.765134
C154	C	0.630700	0.503903	0.749936
N155	N	0.566124	0.505450	0.796842
C156	C	0.630714	0.377159	0.749938
N157	N	0.566140	0.328700	0.796844
H158	H	0.648668	-0.029559	0.148925
C159	C	1.207386	0.172836	0.380589
N160	N	1.214465	0.117214	0.405592
H161	H	0.261386	-0.423314	1.054370
H162	H	1.327349	0.423301	0.207734
C163	C	0.696658	0.545165	0.786256
N164	N	0.658114	0.489544	0.847501
H165	H	0.935775	0.496624	0.528298
H166	H	0.913732	0.094819	0.277119
C167	C	1.012022	0.328104	0.380552
N168	N	0.942012	0.333747	0.405533
H169	H	0.414837	0.067063	0.999602
C170	C	0.892021	0.827124	0.475805
N171	N	0.930537	0.882748	0.414564
C172	C	1.366937	0.077569	0.253822
N173	N	1.436974	0.108191	0.228799
H174	H	0.913740	0.094819	0.167622
C175	C	0.576789	0.077613	0.881500
N176	N	0.646810	0.108229	0.856513
C177	C	1.366938	0.299542	0.253872
N178	N	1.436948	0.293900	0.228880
C179	C	0.892062	0.700383	0.475807
N180	N	0.930613	0.706004	0.414563
C181	C	0.696674	0.172872	0.380532
N182	N	0.658126	0.117258	0.405506
C183	C	1.348958	-0.000060	0.190476
N184	N	1.411890	-0.000071	0.140470
C185	C	0.381349	-0.172848	0.881491
N186	N	0.374270	-0.117227	0.856502
H187	H	0.878787	0.435639	0.496937
H188	H	0.245945	-0.301498	0.999595
H189	H	0.878796	0.326146	0.496930
C190	C	0.625716	-0.034206	0.278481
N191	N	0.559177	-0.047693	0.336654
H192	H	0.674994	-0.094843	0.357257
C193	C	0.656184	-0.109775	0.490307
N194	N	0.601668	-0.153088	0.558611
H195	H	0.940076	0.029532	0.113140
C196	C	0.417129	-0.454836	1.008260
N197	N	0.424171	-0.510470	1.033268
H198	H	0.940082	0.029542	0.003644
H199	H	0.913742	0.094823	-0.095184
H200	H	0.913748	0.094836	-0.204689
H201	H	1.036098	-0.067079	0.371959
H202	H	1.204967	0.067036	0.371934
C203	C	1.171451	-0.077655	0.253860
N204	N	1.164346	-0.108277	0.228866
H205	H	0.878800	0.326137	0.371954
H206	H	0.794404	0.423354	0.207716
