data_functionalizedCrystal
_audit_creation_method	'MofGen! by Chris Wilmer'
_symmetry_space_group_name_H-M	'P1'
_symmetry_Int_Tables_number	1
_symmetry_cell_setting	triclinic
loop_
_symmetry_equiv_pos_as_xyz
  x,y,z
_cell_length_a	17.077404
_cell_length_b	13.897448
_cell_length_c	13.897449
_cell_angle_alpha	90.010270
_cell_angle_beta	90.007040
_cell_angle_gamma	90.017917
loop_
_atom_site_label
_atom_site_type_symbol
_atom_site_fract_x
_atom_site_fract_y
_atom_site_fract_z
Zn1	Zn	1.199986	-0.384172	0.545408
Zn2	Zn	1.533320	-0.050839	0.878741
Zn3	Zn	1.866653	0.282495	1.212075
Zn4	Zn	1.199934	-0.545436	0.384110
Zn5	Zn	1.533267	-0.212103	0.717443
Zn6	Zn	1.866601	0.121230	1.050776
Zn7	Zn	1.068747	-0.384158	0.384124
Zn8	Zn	1.402080	-0.050824	0.717457
Zn9	Zn	1.735413	0.282509	1.050790
Zn10	Zn	1.068698	-0.545427	0.545359
Zn11	Zn	1.402031	-0.212094	0.878692
Zn12	Zn	1.735365	0.121239	1.212026
O13	O	1.134341	-0.464798	0.464750
O14	O	1.467675	-0.131465	0.798083
O15	O	1.801008	0.201868	1.131417
O16	O	1.309826	-0.405574	0.524026
O17	O	1.643160	-0.072240	0.857359
O18	O	1.976493	0.261093	1.190693
O19	O	1.182530	-0.524040	0.249130
O20	O	1.515863	-0.190707	0.582463
O21	O	1.849197	0.142626	0.915796
O22	O	1.086198	-0.249178	0.405545
O23	O	1.419532	0.084155	0.738878
O24	O	1.752865	0.417489	1.072211
O25	O	1.309788	-0.524054	0.405521
O26	O	1.643121	-0.190721	0.738854
O27	O	1.976454	0.142613	1.072187
O28	O	1.182619	-0.249188	0.524040
O29	O	1.515953	0.084145	0.857373
O30	O	1.849286	0.417478	1.190706
O31	O	1.086147	-0.405549	0.249140
O32	O	1.419481	-0.072216	0.582473
O33	O	1.752814	0.261117	0.915807
O34	O	0.958893	-0.405541	0.405497
O35	O	1.292227	-0.072207	0.738830
O36	O	1.625560	0.261126	1.072164
O37	O	1.086115	-0.524039	0.680347
O38	O	1.419449	-0.190705	1.013680
O39	O	1.752782	0.142628	1.347014
O40	O	0.958858	-0.524025	0.523956
O41	O	1.292191	-0.190691	0.857289
O42	O	1.625524	0.142642	1.190623
O43	O	1.182572	-0.405565	0.680383
O44	O	1.515906	-0.072232	1.013716
O45	O	1.849239	0.261102	1.347050
O46	O	1.182483	-0.680417	0.405473
O47	O	1.515816	-0.347083	0.738807
O48	O	1.849150	-0.013750	1.072140
O49	O	1.086064	-0.680410	0.523943
O50	O	1.419398	-0.347077	0.857276
O51	O	1.752731	-0.013743	1.190609
C52	C	0.930393	-0.464781	0.464723
C53	C	1.263727	-0.131447	0.798057
C54	C	1.597060	0.201886	1.131390
C55	C	0.843144	-0.464797	0.464735
C56	C	1.176477	-0.131463	0.798068
C57	C	1.509810	0.201870	1.131402
C58	C	0.802155	-0.526584	0.526318
C59	C	1.135489	-0.193251	0.859651
C60	C	1.468822	0.140082	1.192984
C61	C	0.720175	-0.526586	0.526333
C62	C	1.053508	-0.193253	0.859666
C63	C	1.386842	0.140080	1.193000
C64	C	0.679184	-0.464805	0.464760
C65	C	1.012518	-0.131472	0.798094
C66	C	1.345851	0.201862	1.131427
C67	C	0.720178	-0.403010	0.403175
C68	C	1.053512	-0.069677	0.736508
C69	C	1.386845	0.263656	1.069841
C70	C	0.802157	-0.403004	0.403165
C71	C	1.135490	-0.069671	0.736498
C72	C	1.468824	0.263663	1.069832
C73	C	0.549308	-0.403029	0.403198
C74	C	0.882641	-0.069696	0.736531
C75	C	1.215975	0.263637	1.069865
C76	C	0.467324	-0.403037	0.403206
C77	C	0.800657	-0.069703	0.736540
C78	C	1.133990	0.263630	1.069873
C79	C	0.467326	-0.526612	0.526366
C80	C	0.800659	-0.193278	0.859699
C81	C	1.133993	0.140055	1.193033
C82	C	0.549305	-0.526605	0.526356
C83	C	0.882638	-0.193272	0.859690
C84	C	1.215972	0.140061	1.193023
C85	C	0.590293	-0.464812	0.464769
C86	C	0.923627	-0.131479	0.798103
C87	C	1.256960	0.201855	1.131436
C88	C	1.134284	-0.715413	0.464722
C89	C	1.467617	-0.382079	0.798055
C90	C	1.800951	-0.048746	1.131389
C91	C	1.134331	-0.822627	0.464742
C92	C	1.467665	-0.489293	0.798076
C93	C	1.800998	-0.155960	1.131409
C94	C	1.134414	-1.018922	0.464803
C95	C	1.467747	-0.685588	0.798136
C96	C	1.801080	-0.352255	1.131470
C97	C	1.134366	-0.909689	0.464772
C98	C	1.467699	-0.576356	0.798106
C99	C	1.801032	-0.243022	1.131439
C100	C	1.339086	-0.464817	0.464777
C101	C	1.672419	-0.131483	0.798111
C102	C	2.005752	0.201850	1.131444
C103	C	1.426335	-0.464824	0.464789
C104	C	1.759669	-0.131491	0.798122
C105	C	2.093002	0.201842	1.131456
C106	C	1.134344	-0.464802	0.716343
C107	C	1.467678	-0.131469	1.049676
C108	C	1.801011	0.201864	1.383010
C109	C	1.134345	-0.464804	0.823557
C110	C	1.467679	-0.131471	1.156890
C111	C	1.801012	0.201863	1.490224
C112	C	1.134420	-0.213205	0.464799
C113	C	1.467754	0.120128	0.798133
C114	C	1.801087	0.453461	1.131466
C115	C	1.134454	-0.105991	0.464820
C116	C	1.467787	0.227342	0.798153
C117	C	1.801120	0.560675	1.131487
C118	C	1.134326	-0.464808	1.019852
C119	C	1.467659	-0.131475	1.353185
C120	C	1.800992	0.201858	1.686519
C121	C	1.134334	-0.464809	0.910620
C122	C	1.467668	-0.131475	1.243953
C123	C	1.801001	0.201858	1.577286
C124	C	1.134331	-0.464814	1.214136
C125	C	1.467664	-0.131480	1.547469
C126	C	1.800998	0.201853	1.880802
C127	C	1.134325	-0.464806	1.106922
C128	C	1.467658	-0.131473	1.440255
C129	C	1.800991	0.201861	1.773588
H130	H	0.835524	-0.576897	0.576454
H131	H	1.168858	-0.243564	0.909788
H132	H	1.502191	0.089769	1.243121
F133	F	0.592929	-0.592366	0.591883
F134	F	0.926262	-0.259033	0.925216
F135	F	1.259595	0.074300	1.258549
F136	F	0.592929	-0.337260	0.337651
F137	F	0.926262	-0.003927	0.670984
F138	F	1.259596	0.329407	1.004318
H139	H	0.835529	-0.352685	0.353023
H140	H	1.168862	-0.019352	0.686356
H141	H	1.502195	0.313982	1.019690
H142	H	0.686797	-0.352703	0.353045
H143	H	1.020130	-0.019369	0.686379
H144	H	1.353464	0.313964	1.019712
H145	H	0.686806	-0.576901	0.576479
H146	H	1.020139	-0.243568	0.909812
H147	H	1.353473	0.089766	1.243146
F148	F	0.423703	-0.592366	0.591923
F149	F	0.757036	-0.259033	0.925256
F150	F	1.090369	0.074300	1.258589
H151	H	0.433951	-0.352717	0.353080
H152	H	0.767284	-0.019384	0.686413
H153	H	1.100618	0.313949	1.019746
