data_functionalizedCrystal
_audit_creation_method	'MofGen! by Chris Wilmer'
_symmetry_space_group_name_H-M	'P1'
_symmetry_Int_Tables_number	1
_symmetry_cell_setting	triclinic
loop_
_symmetry_equiv_pos_as_xyz
  x,y,z
_cell_length_a	10.723024
_cell_length_b	14.971482
_cell_length_c	13.448316
_cell_angle_alpha	89.993798
_cell_angle_beta	89.994589
_cell_angle_gamma	84.040239
loop_
_atom_site_label
_atom_site_type_symbol
_atom_site_fract_x
_atom_site_fract_y
_atom_site_fract_z
O1	O	0.162595	1.187822	-0.082676
O2	O	0.662595	1.687822	0.417324
O3	O	0.182073	0.927526	-0.082681
O4	O	0.682073	1.427526	0.417319
O5	O	-0.009305	1.063679	-0.082675
O6	O	0.490695	1.563679	0.417325
O7	O	0.353973	1.051670	-0.082682
O8	O	0.853973	1.551670	0.417318
O9	O	-0.009317	1.063661	0.082709
O10	O	0.490683	1.563661	0.582709
O11	O	0.182061	0.927509	0.082703
O12	O	0.682061	1.427509	0.582703
O13	O	0.162583	1.187805	0.082707
O14	O	0.662583	1.687805	0.582707
Cu15	Cu	0.172321	1.057656	0.097806
Cu16	Cu	0.672321	1.557656	0.597806
Cu17	Cu	0.172335	1.057676	-0.097780
Cu18	Cu	0.672335	1.557676	0.402220
O19	O	0.353961	1.051653	0.082701
O20	O	0.853961	1.551653	0.582701
C21	C	0.181197	0.894188	0.000010
C22	C	0.681197	1.394188	0.500010
C23	C	0.178589	0.794877	0.000009
C24	C	0.678589	1.294877	0.500009
C25	C	0.177354	0.748216	0.090160
C26	C	0.677354	1.248216	0.590160
C27	C	0.174884	0.654905	0.090162
C28	C	0.674884	1.154905	0.590162
C29	C	0.173657	0.608255	0.000010
C30	C	0.673657	1.108255	0.500010
C31	C	0.174888	0.654922	-0.090149
C32	C	0.674888	1.154922	0.409851
C33	C	0.177350	0.748233	-0.090149
C34	C	0.677350	1.248233	0.409851
C35	C	0.169761	0.460433	-0.090142
C36	C	0.669761	0.960433	0.409858
C37	C	0.167302	0.367115	-0.090143
C38	C	0.667302	0.867115	0.409857
C39	C	0.167295	0.367104	0.090168
C40	C	0.667295	0.867104	0.590168
C41	C	0.169756	0.460415	0.090168
C42	C	0.669756	0.960415	0.590168
C43	C	0.170990	0.507076	0.000009
C44	C	0.670990	1.007076	0.500009
C45	C	-0.055802	1.062796	0.000016
C46	C	0.444198	1.562796	0.500016
C47	C	-0.194329	1.060182	0.000012
C48	C	0.305671	1.560182	0.500012
C49	C	-0.270109	1.136365	0.000012
C50	C	0.229891	1.636365	0.500012
C51	C	-0.413284	1.133665	0.000009
C52	C	0.086716	1.633665	0.500009
C53	C	0.400457	1.052536	0.000008
C54	C	0.900457	1.552536	0.500008
C55	C	0.538984	1.055150	0.000005
C56	C	1.038984	1.555150	0.500005
C57	C	0.163459	1.221143	0.000014
C58	C	0.663459	1.721143	0.500014
C59	C	0.166067	1.320455	0.000009
C60	C	0.666067	1.820455	0.500009
N61	N	0.172310	1.057648	0.235370
N62	N	0.672310	1.557648	0.735370
N63	N	0.172336	1.057691	-0.235344
N64	N	0.672336	1.557691	0.264656
C65	C	0.087603	1.117955	0.287413
C66	C	0.587603	1.617955	0.787413
C67	C	0.087602	1.117960	0.391517
C68	C	0.587602	1.617960	0.891517
C69	C	0.172315	1.057662	0.443575
C70	C	0.672315	1.557662	0.943575
C71	C	0.257027	0.997349	0.391525
C72	C	0.757027	1.497349	0.891525
C73	C	0.257021	0.997340	0.287423
C74	C	0.757021	1.497340	0.787423
C75	C	0.257035	0.997374	0.608505
C76	C	0.757035	1.497374	1.108505
C77	C	0.257043	0.997384	0.712613
C78	C	0.757043	1.497384	1.212613
C79	C	0.087616	1.117995	0.712598
C80	C	0.587616	1.617995	1.212598
C81	C	0.087610	1.117985	0.608497
C82	C	0.587610	1.617985	1.108497
C83	C	0.172324	1.057673	0.556454
C84	C	0.672324	1.557673	1.056454
H85	H	-0.228990	1.203588	0.000020
H86	H	0.271010	1.703588	0.500020
H87	H	0.018625	1.167060	0.245034
H88	H	0.518625	1.667060	0.745034
N89	N	0.171074	0.510740	0.187397
N90	N	0.671074	1.010740	0.687397
H91	H	0.249389	0.542674	0.191409
H92	H	0.749389	1.042674	0.691409
H93	H	0.169866	0.466976	0.244459
H94	H	0.669866	0.966976	0.744459
H95	H	0.166291	0.329109	0.163579
H96	H	0.666291	0.829109	0.663579
N97	N	-0.003718	1.183037	0.447650
N98	N	0.496282	1.683037	0.947650
H99	H	-0.057363	1.221248	0.398875
H100	H	0.442637	1.721248	0.898875
H101	H	0.044201	1.222855	0.490808
H102	H	0.544201	1.722855	0.990808
H103	H	0.326014	0.948257	0.566135
H104	H	0.826014	1.448257	1.066135
H105	H	-0.235447	0.992959	0.000005
H106	H	0.264553	1.492959	0.500005
N107	N	-0.374771	0.968756	0.000020
N108	N	0.125229	1.468756	0.500020
H109	H	-0.320098	0.966200	-0.061284
H110	H	0.179902	1.466200	0.438716
H111	H	-0.426382	0.916035	0.000058
H112	H	0.073618	1.416035	0.500058
H113	H	0.018640	1.167103	0.754978
H114	H	0.518640	1.667103	1.254978
H115	H	0.166304	0.329135	-0.163552
H116	H	0.666304	0.829135	0.336448
N117	N	-0.003748	1.183025	0.552344
N118	N	0.496252	1.683025	1.052344
H119	H	-0.057415	1.221233	0.601108
H120	H	0.442585	1.721233	1.101108
H121	H	-0.058993	1.148441	0.509166
H122	H	0.441007	1.648441	1.009166
H123	H	-0.478399	1.198884	0.000013
H124	H	0.021601	1.698884	0.500013
H125	H	0.170765	0.498421	-0.163560
H126	H	0.670765	0.998421	0.336440
H127	H	0.173880	0.616933	-0.163552
H128	H	0.673880	1.116933	0.336448
H129	H	0.326024	0.948282	0.754994
H130	H	0.826024	1.448282	1.254994
N131	N	0.348388	0.932310	0.447676
N132	N	0.848388	1.432310	0.947676
H133	H	0.403721	0.966830	0.490851
H134	H	0.903721	1.466830	0.990851
H135	H	0.401964	0.894116	0.398848
H136	H	0.901964	1.394116	0.898848
H137	H	0.325996	0.948230	0.245051
H138	H	0.825996	1.448230	0.745051
H139	H	0.173857	0.616920	0.163572
H140	H	0.673857	1.116920	0.663572
N141	N	0.178690	0.798528	0.187397
N142	N	0.678690	1.298528	0.687397
H143	H	0.177531	0.754806	0.244507
H144	H	0.677531	1.254806	0.744507
H145	H	0.102417	0.844025	0.191328
H146	H	0.602417	1.344025	0.691328
H147	H	0.178357	0.786223	-0.163560
H148	H	0.678357	1.286223	0.336440
