data_functionalizedCrystal
_audit_creation_method	'MofGen! by Chris Wilmer'
_symmetry_space_group_name_H-M	'P1'
_symmetry_Int_Tables_number	1
_symmetry_cell_setting	triclinic
loop_
_symmetry_equiv_pos_as_xyz
  x,y,z
_cell_length_a	15.944551
_cell_length_b	15.944493
_cell_length_c	7.540329
_cell_angle_alpha	89.997607
_cell_angle_beta	89.998701
_cell_angle_gamma	96.513109
loop_
_atom_site_label
_atom_site_type_symbol
_atom_site_fract_x
_atom_site_fract_y
_atom_site_fract_z
O1	O	-0.108099	1.114553	-0.147439
O2	O	-0.121506	0.869996	-0.147446
O3	O	0.007474	0.998953	-0.147453
O4	O	-0.237079	0.985596	-0.147432
O5	O	0.007475	0.998945	0.147512
O6	O	-0.121504	0.869989	0.147519
O7	O	-0.108097	1.114545	0.147526
Cu8	Cu	-0.114801	0.992266	0.174455
Cu9	Cu	-0.114803	0.992275	-0.174375
O10	O	-0.237077	0.985589	0.147533
C11	C	-0.120957	0.838698	0.000036
C12	C	-0.119314	0.745449	0.000032
C13	C	-0.195235	0.509689	0.000037
C14	C	-0.154293	0.459127	0.145475
C15	C	-0.116270	0.574728	0.000036
C16	C	-0.154276	0.459139	-0.145338
C17	C	-0.113336	0.409819	0.000031
C18	C	-0.075350	0.525394	0.145593
C19	C	-0.075344	0.525410	-0.145350
C20	C	-0.034345	0.474880	0.000123
C21	C	-0.117963	0.669728	0.000040
C22	C	-0.111637	0.314821	0.000039
C23	C	-0.268372	0.986147	0.000053
C24	C	-0.361617	0.987809	0.000060
C25	C	-0.576457	1.071716	0.000036
C26	C	-0.637480	1.032749	0.145469
C27	C	-0.532343	0.990817	0.000045
C28	C	-0.637467	1.032737	-0.145343
C29	C	-0.697255	0.993728	0.000022
C30	C	-0.592138	0.951827	0.145598
C31	C	-0.592119	0.951827	-0.145345
C32	C	-0.653125	0.912801	0.000125
C33	C	-0.437341	0.989142	0.000059
C34	C	-0.792256	0.995396	0.000020
C35	C	0.038768	0.998395	0.000023
C36	C	0.132014	0.996732	0.000004
C37	C	-0.108646	1.145844	0.000040
C38	C	-0.110289	1.239092	0.000032
N39	N	-0.114799	0.992266	0.419804
N40	N	-0.114798	0.992282	-0.419724
H41	H	-0.263254	0.525313	0.000179
F42	F	0.054626	0.454659	0.000225
H43	H	-0.042021	0.554219	0.268671
H44	H	-0.657579	1.066963	0.268425
H45	H	-0.571998	0.917642	-0.268306
H46	H	-0.042022	0.554359	-0.268316
H47	H	-0.187641	0.430204	-0.268276
H48	H	-0.543137	1.138867	0.000180
H49	H	-0.572153	0.917633	0.268684
H50	H	-0.686297	0.845592	0.000204
F51	F	-0.197879	0.421298	0.306192
H52	H	-0.657551	1.066973	-0.268289
