data_functionalizedCrystal
_audit_creation_method	'MofGen! by Chris Wilmer'
_symmetry_space_group_name_H-M	'P1'
_symmetry_Int_Tables_number	1
_symmetry_cell_setting	triclinic
loop_
_symmetry_equiv_pos_as_xyz
  x,y,z
_cell_length_a	27.440280
_cell_length_b	14.395555
_cell_length_c	14.395555
_cell_angle_alpha	60.002398
_cell_angle_beta	89.995994
_cell_angle_gamma	59.991377
loop_
_atom_site_label
_atom_site_type_symbol
_atom_site_fract_x
_atom_site_fract_y
_atom_site_fract_z
Zr1	Zr	0.469468	1.016740	-0.121946
O2	O	0.391644	1.210552	-0.270266
O3	O	0.493329	0.822934	-0.076476
O4	O	0.493324	1.016729	-0.270271
O5	O	0.391649	1.016764	0.076396
O6	O	0.573526	1.016714	-0.270277
O7	O	0.391649	1.016757	-0.076471
O8	O	0.573534	0.670051	0.076387
O9	O	0.391640	1.363427	-0.270268
O10	O	0.563354	0.902636	-0.057090
O11	O	0.503500	0.902653	0.056997
O12	O	0.503494	1.130821	-0.171171
O13	O	0.443640	1.130837	-0.057084
Zr14	Zr	0.597380	1.016728	0.121851
Zr15	Zr	0.597381	1.016717	-0.121955
Zr16	Zr	0.469467	1.016751	0.121860
Zr17	Zr	0.469461	1.260559	-0.121948
Zr18	Zr	0.597387	0.772909	0.121853
O19	O	0.573519	1.210534	0.076381
O20	O	0.573520	1.210518	-0.270279
O21	O	0.391643	1.210567	0.076394
O22	O	0.675203	0.822916	0.270171
O23	O	0.675204	0.822901	-0.076489
O24	O	0.493327	0.822950	0.270184
O25	O	0.675199	1.016704	-0.076491
O26	O	0.573524	1.016739	0.270176
O27	O	0.493322	1.016754	0.270182
O28	O	0.675198	1.016711	0.076376
O29	O	0.493314	1.363409	-0.270275
O30	O	0.573534	0.670059	0.270180
O31	O	0.675207	0.670040	0.270173
O32	O	0.675208	0.670032	0.076380
O33	O	0.391639	1.363436	-0.076475
O34	O	0.493313	1.363417	-0.076482
O35	O	0.563353	0.902647	0.171076
O36	O	0.623207	0.902630	0.056989
O37	O	0.563347	1.130815	-0.057092
O38	O	0.503493	1.130832	0.056995
C39	C	0.533433	0.711753	-0.000044
C40	C	0.533436	0.608246	-0.000043
C41	C	0.566065	0.547659	-0.062259
C42	C	0.589716	0.409550	0.045007
C43	C	0.509788	0.561920	-0.107298
C44	C	0.557119	0.471438	0.107286
C45	C	0.477160	0.623881	-0.045096
C46	C	0.500797	0.485782	0.062234
C47	C	0.373424	1.016764	-0.000036
C48	C	0.319122	1.016774	-0.000033
C49	C	-0.017576	1.016701	-0.084265
C50	C	-0.068594	1.016692	-0.084266
O51	O	-0.094968	1.016639	-0.155864
N52	N	-0.094112	1.016698	-0.000051
C53	C	-0.068606	1.016700	0.084176
O54	O	-0.094995	1.016703	0.155808
C55	C	-0.017586	1.016700	0.084180
C56	C	0.007926	1.016707	-0.000046
C57	C	0.007937	1.016707	-0.168484
C58	C	0.058951	1.016718	-0.168484
C59	C	0.084452	1.016725	-0.084266
C60	C	0.058939	1.016719	-0.000047
C61	C	0.007921	1.016693	0.168411
C62	C	0.058944	1.016692	0.168409
C63	C	0.084456	1.016699	0.084182
C64	C	0.135454	1.016737	0.084172
N65	N	0.160973	1.016731	-0.000042
C66	C	0.135471	1.016724	-0.084261
C67	C	-0.175750	1.016698	0.084162
C68	C	-0.226771	1.016707	0.084154
C69	C	-0.226754	1.016696	-0.084287
C70	C	-0.175735	1.016696	-0.084283
C71	C	-0.150231	1.016692	-0.000053
C72	C	0.242604	1.016750	-0.084256
C73	C	0.293620	1.016768	-0.084251
C74	C	0.293601	1.016772	0.084192
C75	C	0.242587	1.016761	0.084185
C76	C	0.217091	1.016746	-0.000045
O77	O	0.161863	1.016784	0.155737
O78	O	0.161872	1.016704	-0.155872
C79	C	0.693423	1.016704	-0.000059
C80	C	0.747726	1.016694	-0.000062
C81	C	0.533425	1.016720	-0.305011
C82	C	0.533425	1.016716	-0.408513
C83	C	0.533415	1.321714	-0.000051
C84	C	0.533412	1.425222	-0.000052
C85	C	0.566067	0.892299	-0.406900
C86	C	0.509785	0.954503	-0.499918
C87	C	0.589693	0.954517	-0.499923
C88	C	0.477110	1.078920	-0.500168
C89	C	0.557059	1.078916	-0.500159
C90	C	0.500744	1.141211	-0.593195
C91	C	0.533422	1.016748	0.304916
C92	C	0.533422	1.016752	0.408418
C93	C	0.693432	0.711724	-0.000055
C94	C	0.747737	0.608206	-0.000058
C95	C	0.533431	0.711767	0.304919
C96	C	0.533434	0.608264	0.408422
C97	C	0.693431	0.711738	0.304908
C98	C	0.747736	0.608225	0.408407
C99	C	0.373416	1.321730	-0.305003
C100	C	0.319111	1.425243	-0.408502
C101	C	0.373415	1.321744	-0.000040
C102	C	0.319110	1.425262	-0.000037
C103	C	0.533416	1.321701	-0.305014
C104	C	0.533413	1.425204	-0.408517
C105	C	0.741997	0.559596	-0.059618
C106	C	0.793018	0.462344	-0.059643
C107	C	0.849778	0.413696	-0.000101
C108	C	0.855518	0.462316	0.059460
C109	C	0.804498	0.559573	0.059478
C110	C	0.804487	0.559605	0.397459
C111	C	0.855517	0.462357	0.494698
C112	C	0.849795	0.413724	0.602884
C113	C	0.793038	0.462353	0.613830
C114	C	0.742009	0.559605	0.516592
C115	C	0.262360	1.473875	-0.397554
C116	C	0.211330	1.571153	-0.494793
C117	C	0.217052	1.619791	-0.602980
C118	C	0.273809	1.571156	-0.613925
C119	C	0.324838	1.473886	-0.516687
C120	C	0.324850	1.473882	0.059512
C121	C	0.273829	1.571161	0.059511
C122	C	0.217069	1.619812	-0.000034
C123	C	0.211329	1.571188	-0.059591
C124	C	0.262350	1.473917	-0.059595
C125	C	0.500800	0.547683	0.406811
C126	C	0.557085	0.409570	0.499826
C127	C	0.477172	0.561923	0.499837
C128	C	0.589753	0.471452	0.500074
C129	C	0.509799	0.623879	0.500071
C130	C	0.566118	0.485775	0.593104
H131	H	0.637298	0.317912	0.083114
H132	H	0.489799	0.599118	-0.197997
H133	H	0.257690	1.434278	-0.309472
H134	H	0.593702	0.574732	-0.114781
O135	O	0.414149	0.745307	-0.095601
H136	H	0.394621	0.783704	-0.184674
H137	H	0.577163	0.434048	0.198029
H138	H	0.165108	1.610814	-0.108071
O139	O	0.386041	1.421473	-0.528534
H140	H	0.410780	1.440153	-0.487098
O141	O	0.464294	0.583581	0.301159
H142	H	0.464267	0.661333	0.224674
H143	H	0.788333	0.422770	-0.108145
O144	O	0.464245	0.449964	0.132013
H145	H	0.483995	0.411592	0.220967
O146	O	0.321140	1.016770	-0.175096
H147	H	0.294836	1.016750	-0.233649
O148	O	0.652726	0.884828	-0.501133
H149	H	0.672572	0.935509	-0.500596
O150	O	0.256155	1.421467	-0.123814
H151	H	0.208113	1.471636	-0.165204
H152	H	0.489790	0.901926	-0.500848
O153	O	0.215102	1.016752	-0.175109
H154	H	0.241416	1.016773	-0.233672
H155	H	0.473100	1.246502	-0.672822
O156	O	0.086468	1.016712	-0.259322
H157	H	0.060161	1.016694	-0.317870
H158	H	0.577086	0.317942	0.500752
H159	H	-0.012821	1.016697	-0.237066
H160	H	0.891318	0.334502	-0.000124
O161	O	0.680801	0.612007	0.528418
H162	H	0.675610	0.656301	0.575655
H163	H	0.577067	1.131447	-0.499186
O164	O	0.414045	1.148505	-0.499077
H165	H	0.414545	1.147890	-0.421670
O166	O	-0.148215	1.016691	-0.175119
H167	H	-0.174523	1.016680	-0.233674
O168	O	-0.254261	1.016680	-0.175124
H169	H	-0.294019	1.016665	-0.160963
O170	O	-0.254284	1.016694	0.174999
H171	H	-0.227972	1.016685	0.233564
O172	O	0.652817	0.421906	0.498985
H173	H	0.652313	0.499653	0.421579
O174	O	0.386064	1.421441	0.123733
H175	H	0.410811	1.314160	0.189571
H176	H	0.593623	0.787096	-0.327140
H177	H	0.695784	0.599204	-0.108117
O178	O	-0.148247	1.016710	0.175006
H179	H	-0.174569	1.016725	0.233553
O180	O	-0.019578	1.016645	0.259277
H181	H	0.006742	1.016619	0.317845
O182	O	0.904836	0.308815	0.707761
H183	H	0.945257	0.283173	0.681961
H184	H	0.079708	1.016684	0.237003
O185	O	0.916740	0.409831	0.123690
H186	H	0.951247	0.334024	0.113676
H187	H	0.788388	0.422741	0.701928
O188	O	0.150118	1.623576	-0.482976
H189	H	0.154717	1.573383	-0.391409
O190	O	0.916734	0.409932	0.482901
H191	H	0.941496	0.302639	0.524376
H192	H	0.809180	0.599139	0.107985
O193	O	0.280027	1.623573	0.123770
H194	H	0.304815	1.667843	0.089377
H195	H	0.175530	1.699016	-0.000021
H196	H	0.175496	1.698994	-0.682148
H197	H	0.221810	1.016774	0.152760
H198	H	0.278461	1.610770	-0.702022
O199	O	0.321115	1.016761	0.175036
H200	H	0.360881	1.016749	0.160888
H201	H	0.593760	0.458743	0.672730
O202	O	0.483294	0.745292	0.498771
H203	H	0.436562	0.783683	0.497610
O204	O	0.810666	0.612065	0.280778
H205	H	0.858705	0.561921	0.289521
O206	O	0.414140	0.611207	0.501052
H207	H	0.387142	0.635826	0.424645
