data_functionalizedCrystal
_audit_creation_method	'MofGen! by Chris Wilmer'
_symmetry_space_group_name_H-M	'P1'
_symmetry_Int_Tables_number	1
_symmetry_cell_setting	triclinic
loop_
_symmetry_equiv_pos_as_xyz
  x,y,z
_cell_length_a	16.120490
_cell_length_b	18.050590
_cell_length_c	16.120297
_cell_angle_alpha	92.871020
_cell_angle_beta	90.129683
_cell_angle_gamma	87.110849
loop_
_atom_site_label
_atom_site_type_symbol
_atom_site_fract_x
_atom_site_fract_y
_atom_site_fract_z
Zn1	Zn	1.247484	-0.376310	-0.534523
Zn2	Zn	1.580817	-0.042977	-0.201189
Zn3	Zn	1.914151	0.290357	0.132144
Zn4	Zn	1.254446	-0.494536	-0.395461
Zn5	Zn	1.587780	-0.161202	-0.062128
Zn6	Zn	1.921113	0.172131	0.271205
Zn7	Zn	1.115472	-0.363754	-0.388444
Zn8	Zn	1.448806	-0.030421	-0.055111
Zn9	Zn	1.782139	0.302913	0.278222
Zn10	Zn	1.108402	-0.493845	-0.527434
Zn11	Zn	1.441735	-0.160511	-0.194101
Zn12	Zn	1.775069	0.172822	0.139232
O13	O	1.181451	-0.432111	-0.461466
O14	O	1.514785	-0.098778	-0.128132
O15	O	1.848118	0.234556	0.205201
O16	O	1.364775	-0.397537	-0.521979
O17	O	1.698108	-0.064203	-0.188646
O18	O	2.031442	0.269130	0.144687
O19	O	1.241884	-0.472222	-0.278165
O20	O	1.575217	-0.138888	0.055168
O21	O	1.908551	0.194445	0.388502
O22	O	1.133029	-0.261498	-0.407852
O23	O	1.466363	0.071835	-0.074519
O24	O	1.799696	0.405168	0.258815
O25	O	1.369890	-0.484397	-0.419811
O26	O	1.703224	-0.151063	-0.086478
O27	O	2.036557	0.182270	0.246855
O28	O	1.230018	-0.270723	-0.515175
O29	O	1.563351	0.062610	-0.181842
O30	O	1.896684	0.395944	0.151491
O31	O	1.139780	-0.376137	-0.273010
O32	O	1.473114	-0.042804	0.060324
O33	O	1.806447	0.290530	0.393657
O34	O	0.998167	-0.375467	-0.400978
O35	O	1.331500	-0.042134	-0.067645
O36	O	1.664834	0.291200	0.265688
O37	O	1.120979	-0.483219	-0.644740
O38	O	1.454312	-0.149886	-0.311407
O39	O	1.787645	0.183448	0.021927
O40	O	0.992972	-0.471044	-0.503094
O41	O	1.326306	-0.137711	-0.169760
O42	O	1.659639	0.195623	0.163573
O43	O	1.223162	-0.396867	-0.649948
O44	O	1.556495	-0.063533	-0.316615
O45	O	1.889828	0.269800	0.016719
O46	O	1.235028	-0.598365	-0.412938
O47	O	1.568361	-0.265032	-0.079605
O48	O	1.901695	0.068302	0.253729
O49	O	1.127730	-0.597857	-0.509898
O50	O	1.461063	-0.264524	-0.176564
O51	O	1.794397	0.068809	0.156769
C52	C	0.965397	-0.421819	-0.450506
C53	C	1.298730	-0.088485	-0.117173
C54	C	1.632064	0.244848	0.216161
C55	C	0.872967	-0.417434	-0.445837
C56	C	1.206300	-0.084101	-0.112504
C57	C	1.539634	0.249233	0.220830
C58	C	0.660009	-0.454848	-0.485686
C59	C	0.993342	-0.121515	-0.152352
C60	C	1.326675	0.211819	0.180981
C61	C	0.703741	-0.409436	-0.437312
C62	C	1.037075	-0.076103	-0.103978
C63	C	1.370408	0.257231	0.229355
C64	C	0.797907	-0.413887	-0.442057
C65	C	1.131241	-0.080554	-0.108723
C66	C	1.464574	0.252779	0.224610
C67	C	0.565834	-0.450398	-0.480942
C68	C	0.899168	-0.117064	-0.147608
C69	C	1.232501	0.216269	0.185725
C70	C	1.181389	-0.625059	-0.461429
C71	C	1.514722	-0.291725	-0.128096
C72	C	1.848056	0.041608	0.205237
C73	C	1.181437	-0.707607	-0.461445
C74	C	1.514770	-0.374274	-0.128112
C75	C	1.848104	-0.040941	0.205221
C76	C	1.239897	-0.907316	-0.408802
C77	C	1.573231	-0.573983	-0.075469
C78	C	1.906564	-0.240649	0.257865
C79	C	1.256363	-0.960870	-0.485723
C80	C	1.589696	-0.627537	-0.152390
C81	C	1.923029	-0.294203	0.180943
C82	C	1.181483	-0.858741	-0.461481
C83	C	1.514816	-0.525408	-0.128148
C84	C	1.848149	-0.192075	0.205186
C85	C	1.165100	-0.952274	-0.384598
C86	C	1.498433	-0.618941	-0.051265
C87	C	1.831767	-0.285608	0.282069
C88	C	1.181528	-1.004730	-0.461509
C89	C	1.514862	-0.671396	-0.128175
C90	C	1.848195	-0.338063	0.205158
C91	C	1.197985	-0.911212	-0.538444
C92	C	1.531318	-0.577878	-0.205111
C93	C	1.864651	-0.244545	0.128222
C94	C	1.106690	-0.902608	-0.437266
C95	C	1.440023	-0.569275	-0.103932
C96	C	1.773356	-0.235941	0.229401
C97	C	1.123123	-0.956141	-0.514238
C98	C	1.456457	-0.622807	-0.180905
C99	C	1.789790	-0.289474	0.152429
C100	C	1.181458	-0.774641	-0.461464
C101	C	1.514792	-0.441308	-0.128131
C102	C	1.848125	-0.107975	0.205203
C103	C	1.181552	-1.088829	-0.461534
C104	C	1.514885	-0.755495	-0.128201
C105	C	1.848219	-0.422162	0.205132
C106	C	1.398349	-0.442444	-0.472469
C107	C	1.731682	-0.109111	-0.139135
C108	C	2.065016	0.224222	0.194198
C109	C	1.490778	-0.446848	-0.477158
C110	C	1.824111	-0.113514	-0.143824
C111	C	2.157445	0.219819	0.189509
C112	C	1.170505	-0.441366	-0.678360
C113	C	1.503838	-0.108033	-0.345027
C114	C	1.837172	0.225300	-0.011693
C115	C	1.165840	-0.445310	-0.770787
C116	C	1.499174	-0.111977	-0.437454
C117	C	1.832507	0.221356	-0.104121
C118	C	1.181535	-0.238412	-0.461522
C119	C	1.514869	0.094922	-0.128188
C120	C	1.848202	0.428255	0.205145
C121	C	1.181571	-0.155869	-0.461545
C122	C	1.514905	0.177465	-0.128212
C123	C	1.848238	0.510798	0.205121
C124	C	1.157293	-0.452493	-0.940012
C125	C	1.490627	-0.119160	-0.606678
C126	C	1.823960	0.214174	-0.273345
C127	C	1.205773	-0.411514	-0.983780
C128	C	1.539106	-0.078181	-0.650446
C129	C	1.872440	0.255152	-0.317113
C130	C	1.201017	-0.415511	-1.077942
C131	C	1.534351	-0.082177	-0.744609
C132	C	1.867684	0.251156	-0.411275
C133	C	1.162048	-0.448497	-0.845841
C134	C	1.495381	-0.115164	-0.512508
C135	C	1.828714	0.218169	-0.179174
C136	C	1.192403	-0.422840	-0.245418
C137	C	1.525736	-0.089507	0.087916
C138	C	1.859069	0.243826	0.421249
C139	C	1.197229	-0.418695	-0.152999
C140	C	1.530562	-0.085362	0.180334
C141	C	1.863895	0.247972	0.513668
H142	H	0.670461	-0.367214	-0.392334
H143	H	1.003795	-0.033881	-0.059000
H144	H	1.337128	0.299452	0.274333
O145	O	1.097585	-0.502938	-0.984043
O146	O	1.430918	-0.169605	-0.650710
O147	O	1.764252	0.163729	-0.317377
H148	H	1.132832	-0.544141	-1.025501
H149	H	1.466166	-0.210808	-0.692168
H150	H	1.799499	0.122526	-0.358835
H151	H	1.211794	-0.893126	-0.603527
H152	H	1.545127	-0.559793	-0.270194
H153	H	1.878461	-0.226459	0.063140
H154	H	0.693287	-0.497067	-0.530659
H155	H	1.026620	-0.163734	-0.197326
H156	H	1.359953	0.169600	0.136008
H157	H	1.073741	-0.977452	-0.558853
H158	H	1.407074	-0.644118	-0.225520
H159	H	1.740407	-0.310785	0.107814
H160	H	1.250849	-0.373429	-0.950532
H161	H	1.584182	-0.040095	-0.617199
H162	H	1.917515	0.293238	-0.283866
H163	H	1.319633	-0.986316	-0.506222
H164	H	1.652966	-0.652983	-0.172888
H165	H	1.986299	-0.319650	0.160445
O166	O	1.305342	-0.878901	-0.349856
O167	O	1.638675	-0.545568	-0.016523
O168	O	1.972009	-0.212234	0.316810
H169	H	1.367388	-0.902369	-0.370170
H170	H	1.700721	-0.569036	-0.036837
H171	H	2.034054	-0.235703	0.296497
H172	H	1.043439	-0.877146	-0.416746
H173	H	1.376772	-0.543812	-0.083413
H174	H	1.710106	-0.210479	0.249921
O175	O	1.146706	-0.976348	-0.298460
O176	O	1.480040	-0.643015	0.034873
O177	O	1.813373	-0.309682	0.368207
H178	H	1.195261	-0.956802	-0.254845
H179	H	1.528595	-0.623469	0.078488
H180	H	1.861928	-0.290136	0.411821
