data_functionalizedCrystal
_audit_creation_method	'MofGen! by Chris Wilmer'
_symmetry_space_group_name_H-M	'P1'
_symmetry_Int_Tables_number	1
_symmetry_cell_setting	triclinic
loop_
_symmetry_equiv_pos_as_xyz
  x,y,z
_cell_length_a	18.215407
_cell_length_b	18.101395
_cell_length_c	18.215398
_cell_angle_alpha	89.976098
_cell_angle_beta	89.980536
_cell_angle_gamma	90.031552
loop_
_atom_site_label
_atom_site_type_symbol
_atom_site_fract_x
_atom_site_fract_y
_atom_site_fract_z
Zn1	Zn	1.125037	-0.294847	-0.416124
Zn2	Zn	1.625037	0.205153	0.083876
Zn3	Zn	1.124933	-0.418688	-0.293061
Zn4	Zn	1.624933	0.081312	0.206939
Zn5	Zn	1.001971	-0.294866	-0.293071
Zn6	Zn	1.501971	0.205134	0.206929
Zn7	Zn	1.001923	-0.418652	-0.416086
Zn8	Zn	1.501923	0.081348	0.083914
O9	O	1.063466	-0.356763	-0.354585
O10	O	1.563466	0.143237	0.145415
O11	O	1.228008	-0.311282	-0.399811
O12	O	1.728008	0.188718	0.100189
O13	O	1.108599	-0.402285	-0.190078
O14	O	1.608599	0.097715	0.309922
O15	O	1.018360	-0.191230	-0.309414
O16	O	1.518360	0.308770	0.190586
O17	O	1.227931	-0.402267	-0.309397
O18	O	1.727931	0.097733	0.190603
O19	O	1.108776	-0.191216	-0.399821
O20	O	1.608776	0.308784	0.100179
O21	O	1.018259	-0.311314	-0.190085
O22	O	1.518259	0.188686	0.309915
O23	O	0.898980	-0.311279	-0.309378
O24	O	1.398980	0.188721	0.190622
O25	O	1.018277	-0.402206	-0.519075
O26	O	1.518277	0.097794	-0.019075
O27	O	0.898945	-0.402224	-0.399756
O28	O	1.398945	0.097776	0.100244
O29	O	1.108729	-0.311247	-0.519103
O30	O	1.608729	0.188753	-0.019103
O31	O	1.108552	-0.522316	-0.309360
O32	O	1.608552	-0.022316	0.190640
O33	O	1.018176	-0.522290	-0.399746
O34	O	1.518176	-0.022290	0.100254
C35	C	0.872260	-0.356750	-0.354564
C36	C	1.372260	0.143250	0.145436
C37	C	0.790461	-0.356763	-0.354572
C38	C	1.290461	0.143237	0.145428
C39	C	0.602268	-0.404192	-0.401573
C40	C	1.102268	0.095808	0.098427
C41	C	0.525409	-0.404195	-0.401583
C42	C	1.025409	0.095805	0.098417
C43	C	0.525416	-0.309347	-0.307613
C44	C	1.025416	0.190653	0.192387
C45	C	0.602274	-0.309342	-0.307608
C46	C	1.102274	0.190658	0.192392
C47	C	0.640697	-0.356768	-0.354587
C48	C	1.140697	0.143232	0.145413
C49	C	0.486981	-0.356776	-0.354601
C50	C	0.986981	0.143224	0.145399
C51	C	0.403648	-0.356778	-0.354611
C52	C	0.903648	0.143222	0.145389
C53	C	0.724036	-0.356766	-0.354579
C54	C	1.224036	0.143234	0.145421
C55	C	1.063368	-0.549174	-0.354564
C56	C	1.563368	-0.049174	0.145436
C57	C	1.063393	-0.631488	-0.354579
C58	C	1.563393	-0.131488	0.145421
C59	C	1.063554	-0.930579	-0.354619
C60	C	1.563554	-0.430579	0.145381
C61	C	1.006824	-0.899268	-0.411628
C62	C	1.506824	-0.399268	0.088372
C63	C	1.006555	-0.813650	-0.411450
C64	C	1.506555	-0.313650	0.088550
C65	C	1.063474	-0.782196	-0.354600
C66	C	1.563474	-0.282196	0.145400
C67	C	1.042477	-0.813343	-0.277038
C68	C	1.542477	-0.313343	0.222962
C69	C	1.042111	-0.898988	-0.277380
C70	C	1.542111	-0.398988	0.222620
C71	C	1.141406	-0.898923	-0.374487
C72	C	1.641406	-0.398923	0.125513
C73	C	1.140948	-0.813272	-0.376188
C74	C	1.640948	-0.313272	0.123812
C75	C	1.063430	-0.698337	-0.354584
C76	C	1.563430	-0.198337	0.145416
C77	C	1.063596	-1.014438	-0.354629
C78	C	1.563596	-0.514438	0.145371
C79	C	1.255419	-0.356776	-0.354607
C80	C	1.755419	0.143224	0.145393
C81	C	1.337218	-0.356782	-0.354616
C82	C	1.837218	0.143218	0.145384
C83	C	1.063510	-0.356721	-0.546538
C84	C	1.563510	0.143279	-0.046538
C85	C	1.063528	-0.356702	-0.628337
C86	C	1.563528	0.143298	-0.128337
C87	C	1.063585	-0.163601	-0.354623
C88	C	1.563585	0.336399	0.145377
C89	C	1.063636	-0.081287	-0.354639
C90	C	1.563636	0.418713	0.145361
C91	C	1.110602	-0.403980	-0.893395
C92	C	1.610602	0.096020	-0.393395
C93	C	1.110591	-0.404006	-0.816536
C94	C	1.610591	0.095994	-0.316536
C95	C	1.016510	-0.309282	-0.816528
C96	C	1.516510	0.190718	-0.316528
C97	C	1.016518	-0.309261	-0.893385
C98	C	1.516518	0.190739	-0.393385
C99	C	1.063568	-0.356608	-0.931817
C100	C	1.563568	0.143392	-0.431817
C101	C	1.063549	-0.356655	-0.778101
C102	C	1.563549	0.143345	-0.278101
C103	C	1.063536	-0.356683	-0.694767
C104	C	1.563536	0.143317	-0.194767
C105	C	1.063580	-0.356582	-1.015156
C106	C	1.563580	0.143418	-0.515156
C107	C	1.063465	-0.356752	-0.163379
C108	C	1.563465	0.143248	0.336621
C109	C	1.063589	-0.356561	-0.081580
C110	C	1.563589	0.143439	0.418420
H111	H	0.633564	-0.270719	-0.269346
H112	H	1.133564	0.229281	0.230654
Cl113	Cl	0.955542	-0.780332	-0.250586
Cl114	Cl	1.455542	-0.280332	0.249414
Cl115	Cl	1.026833	-0.781130	-0.500243
Cl116	Cl	1.526833	-0.281130	-0.000243
Cl117	Cl	1.209661	-0.780204	-0.316758
Cl118	Cl	1.709661	-0.280204	0.183242
H119	H	1.081638	-0.919703	-0.233455
H120	H	1.581638	-0.419703	0.266545
Cl121	Cl	1.169720	-0.463562	-0.768238
Cl122	Cl	1.669720	0.036438	-0.268238
Cl123	Cl	0.957374	-0.249714	-0.941690
Cl124	Cl	1.457374	0.250286	-0.441690
Cl125	Cl	1.026900	-0.931000	-0.500711
Cl126	Cl	1.526900	-0.431000	-0.000711
H127	H	0.494123	-0.442811	-0.439845
H128	H	0.994123	0.057189	0.060155
H129	H	0.949470	-0.920854	-0.398633
H130	H	1.449470	-0.420854	0.101367
Cl131	Cl	0.477107	-0.249730	-0.248555
Cl132	Cl	0.977107	0.250270	0.251445
H133	H	0.948849	-0.793226	-0.398289
H134	H	1.448849	-0.293226	0.101711
H135	H	1.148912	-0.442534	-0.924684
H136	H	1.648912	0.057466	-0.424684
H137	H	0.985202	-0.919031	-0.260549
H138	H	1.485202	-0.419031	0.239451
Cl139	Cl	0.957382	-0.249745	-0.768208
Cl140	Cl	1.457382	0.250255	-0.268208
Cl141	Cl	1.104261	-0.781891	-0.209666
Cl142	Cl	1.604261	-0.281891	0.290334
H143	H	0.633550	-0.442809	-0.439829
H144	H	1.133550	0.057191	0.060171
H145	H	1.183672	-0.919170	-0.332965
H146	H	1.683672	-0.419170	0.167035
H147	H	1.160549	-0.920474	-0.430081
H148	H	1.660549	-0.420474	0.069919
H149	H	1.156782	-0.792912	-0.433269
H150	H	1.656782	-0.292912	0.066731
