data_functionalizedCrystal
_audit_creation_method	'MofGen! by Chris Wilmer'
_symmetry_space_group_name_H-M	'P1'
_symmetry_Int_Tables_number	1
_symmetry_cell_setting	triclinic
loop_
_symmetry_equiv_pos_as_xyz
  x,y,z
_cell_length_a	12.759399
_cell_length_b	17.077404
_cell_length_c	17.077396
_cell_angle_alpha	90.021457
_cell_angle_beta	89.974693
_cell_angle_gamma	89.985345
loop_
_atom_site_label
_atom_site_type_symbol
_atom_site_fract_x
_atom_site_fract_y
_atom_site_fract_z
Zn1	Zn	-0.418291	-1.200095	-0.443901
Zn2	Zn	0.081709	-0.700095	0.056099
Zn3	Zn	-0.593992	-1.200019	-0.312642
Zn4	Zn	-0.093992	-0.700019	0.187358
Zn5	Zn	-0.418325	-1.068826	-0.312644
Zn6	Zn	0.081675	-0.568826	0.187356
Zn7	Zn	-0.593926	-1.068811	-0.443861
Zn8	Zn	-0.093926	-0.568811	0.056139
O9	O	-0.506134	-1.134438	-0.378262
O10	O	-0.006134	-0.634438	0.121738
O11	O	-0.441612	-1.309931	-0.426505
O12	O	0.058388	-0.809931	0.073495
O13	O	-0.570731	-1.182590	-0.202796
O14	O	-0.070731	-0.682590	0.297204
O15	O	-0.271299	-1.086278	-0.330073
O16	O	0.228701	-0.586278	0.169927
O17	O	-0.570698	-1.309876	-0.330070
O18	O	-0.070698	-0.809876	0.169930
O19	O	-0.271275	-1.182720	-0.426507
O20	O	0.228725	-0.682720	0.073493
O21	O	-0.441669	-1.086204	-0.202797
O22	O	0.058331	-0.586204	0.297203
O23	O	-0.441605	-0.958978	-0.330035
O24	O	0.058395	-0.458978	0.169965
O25	O	-0.570586	-1.086252	-0.553714
O26	O	-0.070586	-0.586252	-0.053714
O27	O	-0.570619	-0.958966	-0.426440
O28	O	-0.070619	-0.458966	0.073560
O29	O	-0.441548	-1.182705	-0.553743
O30	O	0.058452	-0.682705	-0.053743
O31	O	-0.741004	-1.182575	-0.330031
O32	O	-0.241004	-0.682575	0.169969
O33	O	-0.740956	-1.086178	-0.426437
O34	O	-0.240956	-0.586178	0.073563
C35	C	-0.506109	-0.930490	-0.378234
C36	C	-0.006109	-0.430490	0.121766
C37	C	-0.506124	-0.843240	-0.378240
C38	C	-0.006124	-0.343240	0.121760
C39	C	-0.779101	-1.134388	-0.378247
C40	C	-0.279101	-0.634388	0.121753
C41	C	-0.895878	-1.134439	-0.378267
C42	C	-0.395878	-0.634439	0.121733
C43	C	-0.506056	-1.134485	-0.583007
C44	C	-0.006056	-0.634485	-0.083007
C45	C	-0.506023	-1.134505	-0.670256
C46	C	-0.006023	-0.634505	-0.170256
C47	C	-1.060477	-1.084283	-0.428448
C48	C	-0.560477	-0.584283	0.071552
C49	C	-0.950753	-1.084234	-0.428430
C50	C	-0.450753	-0.584234	0.071570
C51	C	-0.950731	-1.184700	-0.328125
C52	C	-0.450731	-0.684700	0.171875
C53	C	-1.060453	-1.184752	-0.328148
C54	C	-0.560453	-0.684752	0.171852
C55	C	-1.060489	-1.026277	-0.486356
C56	C	-0.560489	-0.526277	0.013644
C57	C	-0.950765	-1.026229	-0.486338
C58	C	-0.450765	-0.526229	0.013662
C59	C	-0.232100	-1.134509	-0.378295
C60	C	0.267900	-0.634509	0.121705
C61	C	-0.115324	-1.134539	-0.378309
C62	C	0.384676	-0.634539	0.121691
C63	C	-0.573402	-0.802265	-0.428356
C64	C	-0.073402	-0.302265	0.071644
C65	C	-0.573402	-0.720284	-0.428366
C66	C	-0.073402	-0.220284	0.071634
C67	C	-0.506129	-0.679281	-0.378255
C68	C	-0.006129	-0.179281	0.121745
C69	C	-0.438844	-0.720262	-0.328137
C70	C	0.061156	-0.220262	0.171863
C71	C	-0.438839	-0.802241	-0.328132
C72	C	0.061161	-0.302241	0.171868
C73	C	-0.438860	-0.549392	-0.328150
C74	C	0.061140	-0.049392	0.171850
C75	C	-0.438866	-0.467407	-0.328154
C76	C	0.061134	0.032593	0.171846
C77	C	-0.573423	-0.467435	-0.428384
C78	C	-0.073423	0.032565	0.071616
C79	C	-0.573418	-0.549414	-0.428379
C80	C	-0.073418	-0.049414	0.071621
C81	C	-0.506134	-0.590390	-0.378259
C82	C	-0.006134	-0.090390	0.121741
C83	C	-0.506152	-0.339182	-0.378283
C84	C	-0.006152	0.160818	0.121717
C85	C	-0.506143	-0.426432	-0.378270
C86	C	-0.006143	0.073568	0.121730
C87	C	-0.438827	-1.184731	-0.711263
C88	C	0.061173	-0.684731	-0.211263
C89	C	-0.438792	-1.184740	-0.793244
C90	C	0.061208	-0.684740	-0.293244
C91	C	-0.505959	-1.134528	-0.834216
C92	C	-0.005959	-0.634528	-0.334216
C93	C	-0.573158	-1.084297	-0.793204
C94	C	-0.073158	-0.584297	-0.293204
C95	C	-0.573187	-1.084284	-0.711225
C96	C	-0.073187	-0.584284	-0.211225
C97	C	-0.573095	-1.084329	-0.964074
C98	C	-0.073095	-0.584329	-0.464074
C99	C	-0.573068	-1.084342	-1.046058
C100	C	-0.073068	-0.584342	-0.546058
C101	C	-0.438700	-1.184784	-1.046093
C102	C	0.061300	-0.684784	-0.546093
C103	C	-0.438729	-1.184772	-0.964114
C104	C	0.061271	-0.684772	-0.464114
C105	C	-0.505930	-1.134542	-0.923107
C106	C	-0.005930	-0.634542	-0.423107
C107	C	-0.506135	-1.134436	-0.174314
C108	C	-0.006135	-0.634436	0.325686
C109	C	-0.505872	-1.134567	-0.087065
C110	C	-0.005872	-0.634567	0.412935
H111	H	-0.906044	-1.225583	-0.287286
H112	H	-0.406044	-0.725583	0.212714
H113	H	-0.384074	-0.434024	-0.287359
H114	H	0.115926	0.065976	0.212641
H115	H	-0.627800	-1.043414	-0.930689
H116	H	-0.127800	-0.543414	-0.430689
H117	H	-0.384061	-0.582752	-0.287344
H118	H	0.115939	-0.082752	0.212656
O119	O	-0.638515	-1.035632	-0.833038
O120	O	-0.138515	-0.535632	-0.333038
C121	C	-0.780284	-1.025047	-0.925609
C122	C	-0.280284	-0.525047	-0.425609
C123	C	-0.706347	-1.080249	-0.880534
C124	C	-0.206347	-0.580249	-0.380534
H125	H	-0.835131	-1.061096	-0.964033
H126	H	-0.335131	-0.561096	-0.464033
H127	H	-0.828393	-0.989158	-0.882252
H128	H	-0.328393	-0.489158	-0.382252
H129	H	-0.732007	-0.984007	-0.963953
H130	H	-0.232007	-0.484007	-0.463953
H131	H	-0.754544	-1.121336	-0.842189
H132	H	-0.254544	-0.621336	-0.342189
H133	H	-0.658236	-1.116082	-0.923933
H134	H	-0.158236	-0.616082	-0.423933
H135	H	-0.383982	-1.225682	-1.079484
H136	H	0.116018	-0.725682	-0.579484
H137	H	-1.105105	-1.225682	-0.287326
H138	H	-0.605105	-0.725682	0.212674
O139	O	-0.638656	-0.589210	-0.477168
O140	O	-0.138656	-0.089210	0.022832
C141	C	-0.689922	-0.614313	-0.610623
C142	C	-0.189922	-0.114313	-0.110623
C143	C	-0.615962	-0.569211	-0.555457
C144	C	-0.115962	-0.069211	-0.055457
H145	H	-0.671615	-0.598148	-0.673930
H146	H	-0.171615	-0.098148	-0.173930
H147	H	-0.678358	-0.679953	-0.602077
H148	H	-0.178358	-0.179953	-0.102077
H149	H	-0.774610	-0.598186	-0.596690
H150	H	-0.274610	-0.098186	-0.096690
H151	H	-0.531246	-0.585272	-0.569355
H152	H	-0.031246	-0.085272	-0.069355
H153	H	-0.627617	-0.503581	-0.564013
H154	H	-0.127617	-0.003581	-0.064013
O155	O	-0.638809	-0.680391	-0.476934
O156	O	-0.138809	-0.180391	0.023066
C157	C	-0.780715	-0.587845	-0.487302
C158	C	-0.280715	-0.087845	0.012698
C159	C	-0.706689	-0.632964	-0.432210
C160	C	-0.206689	-0.132964	0.067790
H161	H	-0.835629	-0.549503	-0.451164
H162	H	-0.335629	-0.049503	0.048836
H163	H	-0.732612	-0.549439	-0.528402
H164	H	-0.232612	-0.049439	-0.028402
H165	H	-0.828757	-0.631243	-0.523133
H166	H	-0.328757	-0.131243	-0.023133
H167	H	-0.658632	-0.589622	-0.396329
H168	H	-0.158632	-0.089622	0.103671
H169	H	-0.754853	-0.671382	-0.391162
H170	H	-0.254853	-0.171382	0.108838
H171	H	-0.384064	-0.686870	-0.287339
H172	H	0.115936	-0.186870	0.212661
H173	H	-0.627758	-1.043453	-1.079416
H174	H	-0.127758	-0.543453	-0.579416
H175	H	-0.627894	-1.043378	-0.677838
H176	H	-0.127894	-0.543378	-0.177838
O177	O	-0.373636	-0.842135	-0.279408
O178	O	0.126364	-0.342135	0.220592
C179	C	-0.359320	-0.934616	-0.173412
C180	C	0.140680	-0.434616	0.326588
C181	C	-0.433286	-0.889499	-0.228552
C182	C	0.066714	-0.389499	0.271448
H183	H	-0.407518	-0.972908	-0.132270
H184	H	0.092482	-0.472908	0.367730
H185	H	-0.304462	-0.973073	-0.209478
H186	H	0.195538	-0.473073	0.290522
H187	H	-0.311215	-0.891216	-0.137631
H188	H	0.188785	-0.391216	0.362369
H189	H	-0.481459	-0.932842	-0.264345
H190	H	0.018541	-0.432842	0.235655
H191	H	-0.488075	-0.851030	-0.192441
H192	H	0.011925	-0.351030	0.307559
H193	H	-0.384077	-1.225640	-0.826628
H194	H	0.115923	-0.725640	-0.326628
O195	O	-1.095751	-1.045725	-0.558943
O196	O	-0.595751	-0.545725	-0.058943
C197	C	-1.049762	-1.081004	-0.691204
C198	C	-0.549762	-0.581004	-0.191204
C199	C	-1.009686	-1.059007	-0.609036
C200	C	-0.509686	-0.559007	-0.109036
H201	H	-0.980200	-1.091733	-0.731731
H202	H	-0.480200	-0.591733	-0.231731
H203	H	-1.099297	-1.136420	-0.687350
H204	H	-0.599297	-0.636420	-0.187350
H205	H	-1.099473	-1.031085	-0.715374
H206	H	-0.599473	-0.531085	-0.215374
H207	H	-0.959933	-1.108875	-0.584818
H208	H	-0.459933	-0.608875	-0.084818
H209	H	-0.960209	-1.003567	-0.612939
H210	H	-0.460209	-0.503567	-0.112939
H211	H	-0.384042	-1.225663	-0.930756
H212	H	0.115958	-0.725663	-0.430756
O213	O	-1.101034	-0.957358	-0.460336
O214	O	-0.601034	-0.457358	0.039664
C215	C	-1.064822	-0.827836	-0.411305
C216	C	-0.564822	-0.327836	0.088695
C217	C	-1.018765	-0.905839	-0.440777
C218	C	-0.518765	-0.405839	0.059223
H219	H	-0.998331	-0.786168	-0.395468
H220	H	-0.498331	-0.286168	0.104532
H221	H	-1.115059	-0.800505	-0.459249
H222	H	-0.615059	-0.300505	0.040751
H223	H	-1.115187	-0.839114	-0.357321
H224	H	-0.615187	-0.339114	0.142679
H225	H	-0.968353	-0.894628	-0.494747
H226	H	-0.468353	-0.394628	0.005253
H227	H	-0.968589	-0.933146	-0.392785
H228	H	-0.468589	-0.433146	0.107215
H229	H	-0.628205	-0.434069	-0.469195
H230	H	-0.128205	0.065931	0.030805
H231	H	-0.384136	-1.225622	-0.677909
H232	H	0.115864	-0.725622	-0.177909
O233	O	-0.638605	-0.842179	-0.477074
O234	O	-0.138605	-0.342179	0.022926
C235	C	-0.652908	-0.934741	-0.583064
C236	C	-0.152908	-0.434741	-0.083064
C237	C	-0.578949	-0.889604	-0.527925
C238	C	-0.078949	-0.389604	-0.027925
H239	H	-0.604705	-0.973083	-0.624202
H240	H	-0.104705	-0.473083	-0.124202
H241	H	-0.707766	-0.973150	-0.546998
H242	H	-0.207766	-0.473150	-0.046998
H243	H	-0.701014	-0.891354	-0.618850
H244	H	-0.201014	-0.391354	-0.118850
H245	H	-0.530775	-0.932934	-0.492127
H246	H	-0.030775	-0.432934	0.007873
H247	H	-0.524161	-0.851184	-0.564036
H248	H	-0.024161	-0.351184	-0.064036
H249	H	-0.921074	-0.965429	-0.469989
H250	H	-0.421074	-0.465429	0.030011
O251	O	-0.910015	-1.052264	-0.555190
O252	O	-0.410015	-0.552264	-0.055190
C253	C	-0.801599	-1.148417	-0.619349
C254	C	-0.301599	-0.648417	-0.119349
C255	C	-0.847698	-1.119025	-0.541326
C256	C	-0.347698	-0.619025	-0.041326
H257	H	-0.751188	-1.202388	-0.608164
H258	H	-0.251188	-0.702388	-0.108164
H259	H	-0.868036	-1.164198	-0.661083
H260	H	-0.368036	-0.664198	-0.161083
H261	H	-0.751385	-1.100381	-0.646558
H262	H	-0.251385	-0.600381	-0.146558
H263	H	-0.897900	-1.167026	-0.514048
H264	H	-0.397900	-0.667026	-0.014048
H265	H	-0.781211	-1.103221	-0.499645
H266	H	-0.281211	-0.603221	0.000355
