data_functionalizedCrystal
_audit_creation_method	'MofGen! by Chris Wilmer'
_symmetry_space_group_name_H-M	'P1'
_symmetry_Int_Tables_number	1
_symmetry_cell_setting	triclinic
loop_
_symmetry_equiv_pos_as_xyz
  x,y,z
_cell_length_a	19.077105
_cell_length_b	19.077068
_cell_length_c	19.076919
_cell_angle_alpha	85.529249
_cell_angle_beta	89.923776
_cell_angle_gamma	90.115316
loop_
_atom_site_label
_atom_site_type_symbol
_atom_site_fract_x
_atom_site_fract_y
_atom_site_fract_z
Zn1	Zn	1.044048	-0.340450	0.453500
Zn2	Zn	1.544048	0.159550	0.953500
Zn3	Zn	1.043962	-0.453600	0.340340
Zn4	Zn	1.543962	0.046400	0.840340
Zn5	Zn	0.931660	-0.331023	0.330931
Zn6	Zn	1.431660	0.168977	0.830931
Zn7	Zn	0.921801	-0.453176	0.453077
Zn8	Zn	1.421801	0.046824	0.953077
O9	O	0.985368	-0.394562	0.394462
O10	O	1.485368	0.105438	0.894462
O11	O	1.142196	-0.359583	0.442604
O12	O	1.642196	0.140417	0.942604
O13	O	1.033154	-0.433572	0.240616
O14	O	1.533154	0.066428	0.740616
O15	O	0.950731	-0.233799	0.343429
O16	O	1.450731	0.266201	0.843429
O17	O	1.142133	-0.442714	0.359466
O18	O	1.642133	0.057286	0.859466
O19	O	1.033302	-0.240725	0.433479
O20	O	1.533302	0.259275	0.933479
O21	O	0.950647	-0.343516	0.233703
O22	O	1.450647	0.156484	0.733703
O23	O	0.832193	-0.343104	0.343019
O24	O	1.332193	0.156896	0.843019
O25	O	0.933928	-0.441990	0.551609
O26	O	1.433928	0.058010	1.051609
O27	O	0.824949	-0.432849	0.432759
O28	O	1.324949	0.067151	0.932759
O29	O	1.023742	-0.359171	0.551919
O30	O	1.523742	0.140829	1.051919
O31	O	1.023594	-0.552019	0.359056
O32	O	1.523594	-0.052019	0.859056
O33	O	0.933844	-0.551707	0.441883
O34	O	1.433844	-0.051707	0.941883
C35	C	0.803119	-0.386908	0.386822
C36	C	1.303119	0.113092	0.886822
C37	C	0.725151	-0.383651	0.383571
C38	C	1.225151	0.116349	0.883571
C39	C	0.684769	-0.428912	0.428699
C40	C	1.184769	0.071088	0.928699
C41	C	0.611510	-0.425842	0.425647
C42	C	1.111510	0.074158	0.925647
C43	C	0.578634	-0.377515	0.377464
C44	C	1.078634	0.122485	0.877464
C45	C	0.619022	-0.332250	0.332335
C46	C	1.119022	0.167750	0.832335
C47	C	0.692280	-0.335317	0.335390
C48	C	1.192280	0.164683	0.835390
C49	C	0.359940	-0.363323	0.363326
C50	C	0.859940	0.136677	0.863326
C51	C	0.286677	-0.360262	0.360273
C52	C	0.786677	0.139738	0.860273
C53	C	0.279170	-0.453853	0.453586
C54	C	0.779170	0.046147	0.953586
C55	C	0.352429	-0.456918	0.456635
C56	C	0.852429	0.043082	0.956635
C57	C	0.392810	-0.411651	0.411508
C58	C	0.892810	0.088349	0.911508
N59	N	0.503752	-0.374378	0.374342
N60	N	1.003752	0.125622	0.874342
N61	N	0.467691	-0.414785	0.414634
N62	N	0.967691	0.085215	0.914634
C63	C	0.977658	-0.577398	0.401461
C64	C	1.477658	-0.077398	0.901461
C65	C	0.974423	-0.655619	0.404482
C66	C	1.474423	-0.155619	0.904482
C67	C	1.019665	-0.692509	0.362816
C68	C	1.519665	-0.192509	0.862816
C69	C	1.016626	-0.766007	0.365661
C70	C	1.516626	-0.266007	0.865661
C71	C	0.968342	-0.802612	0.410169
C72	C	1.468342	-0.302612	0.910169
C73	C	0.923098	-0.765717	0.451839
C74	C	1.423098	-0.265717	0.951839
C75	C	0.926141	-0.692221	0.448997
C76	C	1.426141	-0.192221	0.948997
C77	C	0.954231	-1.022406	0.423292
C78	C	1.454231	-0.522406	0.923292
C79	C	0.951190	-1.095907	0.426130
C80	C	1.451190	-0.595907	0.926130
C81	C	1.044720	-1.096192	0.339952
C82	C	1.544720	-0.596192	0.839952
C83	C	1.047755	-1.022695	0.337111
C84	C	1.547755	-0.522695	0.837111
C85	C	1.002514	-0.985806	0.378784
C86	C	1.502514	-0.485806	0.878784
N87	N	0.965233	-0.877738	0.413077
N88	N	1.465233	-0.377738	0.913077
N89	N	1.005627	-0.910681	0.375880
N90	N	1.505627	-0.410681	0.875880
C91	C	1.168328	-0.402247	0.402132
C92	C	1.668328	0.097753	0.902132
C93	C	1.246295	-0.405522	0.405400
C94	C	1.746295	0.094478	0.905400
C95	C	0.977745	-0.401585	0.578012
C96	C	1.477745	0.098415	1.078012
C97	C	0.974497	-0.404578	0.656230
C98	C	1.474497	0.095422	1.156230
C99	C	0.993126	-0.211015	0.387451
C100	C	1.493126	0.288985	0.887451
C101	C	0.996432	-0.132798	0.384464
C102	C	1.496432	0.367202	0.884464
C103	C	0.993003	-0.387518	0.211626
C104	C	1.493003	0.112482	0.711626
C105	C	0.996396	-0.384333	0.133406
C106	C	1.496396	0.115667	0.633406
C107	C	1.019730	-0.362866	0.693140
C108	C	1.519730	0.137134	1.193140
C109	C	1.016669	-0.365675	0.766634
C110	C	1.516669	0.134325	1.266634
C111	C	0.968378	-0.410200	0.803216
C112	C	1.468378	0.089800	1.303216
C113	C	0.923140	-0.451913	0.766301
C114	C	1.423140	0.048087	1.266301
C115	C	0.926198	-0.449100	0.692809
C116	C	1.426198	0.050900	1.192809
C117	C	0.954216	-0.423233	1.022998
C118	C	1.454216	0.076767	1.522998
C119	C	0.951163	-0.426044	1.096496
C120	C	1.451163	0.073956	1.596496
C121	C	1.044691	-0.339805	1.096823
C122	C	1.544691	0.160195	1.596823
C123	C	1.047748	-0.337000	1.023329
C124	C	1.547748	0.163000	1.523329
C125	C	1.002507	-0.378710	0.986421
C126	C	1.502507	0.121290	1.486421
N127	N	0.965250	-0.413073	0.878339
N128	N	1.465250	0.086927	1.378339
N129	N	1.005632	-0.375832	0.911299
N130	N	1.505632	0.124168	1.411299
H131	H	0.246283	-0.490707	0.490327
H132	H	0.746283	0.009293	0.990327
Cl133	Cl	1.073507	-0.812380	0.313281
Cl134	Cl	1.573507	-0.312380	0.813281
H135	H	0.711530	-0.468267	0.467932
H136	H	1.211530	0.031733	0.967932
H137	H	0.259912	-0.320900	0.321040
H138	H	0.759912	0.179100	0.821040
Cl139	Cl	0.897354	-0.976041	0.475681
Cl140	Cl	1.397354	-0.476041	0.975681
Cl141	Cl	0.410696	-0.306413	0.306597
Cl142	Cl	0.910696	0.193587	0.806597
Cl143	Cl	0.577693	-0.271491	0.271766
Cl144	Cl	1.077693	0.228509	0.771766
H145	H	0.725159	-0.298457	0.298646
H146	H	1.225159	0.201543	0.798646
Cl147	Cl	1.080445	-0.306893	0.647157
Cl148	Cl	1.580445	0.193107	1.147157
H149	H	1.087073	-0.300745	0.993549
H150	H	1.587073	0.199255	1.493549
Cl151	Cl	0.862429	-0.507884	0.812291
Cl152	Cl	1.362429	-0.007884	1.312291
H153	H	1.087072	-0.992892	0.300869
H154	H	1.587072	-0.492892	0.800869
Cl155	Cl	1.080365	-0.646498	0.306856
Cl156	Cl	1.580365	-0.146498	0.806856
Cl157	Cl	0.897342	-0.475670	0.976608
Cl158	Cl	1.397342	0.024330	1.476608
H159	H	0.883787	-0.795527	0.488082
H160	H	1.383787	-0.295527	0.988082
Cl161	Cl	0.869265	-0.645844	0.501382
Cl162	Cl	1.369265	-0.145844	1.001382
H163	H	1.081523	-0.305846	1.126882
H164	H	1.581523	0.194154	1.626882
H165	H	0.911836	-0.462303	1.126280
H166	H	1.411836	0.037697	1.626280
H167	H	0.578633	-0.462699	0.462394
H168	H	1.078633	0.037301	0.962394
H169	H	1.081554	-1.126235	0.306026
H170	H	1.581554	-0.626235	0.806026
H171	H	0.379191	-0.496273	0.495869
H172	H	0.879191	0.003727	0.995869
H173	H	1.053504	-0.331711	0.796682
H174	H	1.553504	0.168289	1.296682
H175	H	0.889357	-0.483058	0.662757
H176	H	1.389357	0.016942	1.162757
H177	H	0.911879	-1.125710	0.462386
H178	H	1.411879	-0.625710	0.962386
