data_functionalizedCrystal
_audit_creation_method	'MofGen! by Chris Wilmer'
_symmetry_space_group_name_H-M	'P1'
_symmetry_Int_Tables_number	1
_symmetry_cell_setting	triclinic
loop_
_symmetry_equiv_pos_as_xyz
  x,y,z
_cell_length_a	15.944551
_cell_length_b	17.699083
_cell_length_c	16.176319
_cell_angle_alpha	89.995661
_cell_angle_beta	90.001492
_cell_angle_gamma	96.609124
loop_
_atom_site_label
_atom_site_type_symbol
_atom_site_fract_x
_atom_site_fract_y
_atom_site_fract_z
O1	O	1.114321	-0.097612	0.068662
O2	O	0.869746	-0.109647	0.068683
O3	O	0.998943	0.006548	0.068665
O4	O	0.985124	-0.213807	0.068680
O5	O	0.998928	0.006548	-0.068829
O6	O	0.869731	-0.109647	-0.068810
O7	O	1.114306	-0.097612	-0.068831
Cu8	Cu	0.992017	-0.103629	-0.081375
Cu9	Cu	0.992035	-0.103630	0.081227
O10	O	0.985108	-0.213807	-0.068813
C11	C	0.838445	-0.109147	-0.000061
C12	C	0.745203	-0.107650	-0.000054
N13	N	0.992010	-0.103629	-0.195740
C14	C	0.998440	0.034746	-0.000082
C15	C	0.996955	0.118766	-0.000082
C16	C	0.530505	-0.032046	-0.000075
C17	C	0.469418	-0.067154	0.067719
C18	C	0.574482	-0.104940	-0.000063
C19	C	0.469426	-0.067171	-0.067839
C20	C	0.409575	-0.102317	-0.000077
C21	C	0.514624	-0.140068	0.067786
C22	C	0.514638	-0.140074	-0.067832
C23	C	0.453569	-0.175235	-0.000022
C24	C	0.669481	-0.106449	-0.000055
C25	C	0.314577	-0.100814	-0.000079
C26	C	1.145606	-0.098112	-0.000085
C27	C	1.238849	-0.099610	-0.000088
C28	C	0.985611	-0.242005	-0.000064
C29	C	0.987097	-0.326026	-0.000059
C30	C	1.072791	0.167258	-0.000090
C31	C	1.071390	0.246203	-0.000083
C32	C	0.994152	0.276656	-0.000073
C33	C	0.918310	0.228158	-0.000063
C34	C	0.919712	0.149214	-0.000065
C35	C	0.912656	0.546531	-0.000056
C36	C	0.911260	0.625481	-0.000057
C37	C	1.064334	0.643520	-0.000074
C38	C	1.065735	0.564576	-0.000075
C39	C	0.989894	0.516085	-0.000061
C40	C	0.991414	0.430484	-0.000067
C41	C	0.992632	0.362256	-0.000073
C42	C	1.042855	-0.149564	-0.239002
C43	C	1.042865	-0.149561	-0.325549
C44	C	0.992023	-0.103627	-0.368833
C45	C	0.941176	-0.057686	-0.325565
C46	C	0.941172	-0.057685	-0.239020
C47	C	0.941192	-0.057687	-0.674593
C48	C	0.941198	-0.057693	-0.761145
C49	C	1.042884	-0.149563	-0.761123
C50	C	1.042880	-0.149562	-0.674577
C51	C	0.992037	-0.103619	-0.631317
C52	C	0.992029	-0.103621	-0.537473
C53	C	0.992026	-0.103627	-0.462675
N54	N	0.992048	-0.103625	0.195592
H55	H	0.563965	0.028449	0.000005
C56	C	1.150694	0.531078	-0.000089
H57	H	1.140667	0.477117	-0.000096
H58	H	1.181922	0.547718	0.047854
H59	H	1.181904	0.547726	-0.048046
H60	H	0.449379	-0.036323	0.125030
H61	H	0.534553	-0.170876	0.125163
H62	H	0.420283	-0.235793	0.000021
C63	C	1.098786	-0.200090	-0.191397
H64	H	1.129075	-0.227440	-0.229561
H65	H	1.064298	-0.234904	-0.157632
H66	H	1.137508	-0.169087	-0.157640
C67	C	0.826294	0.658978	-0.000036
H68	H	0.781326	0.618793	-0.000018
H69	H	0.822554	0.689403	-0.047981
H70	H	0.822583	0.689396	0.047919
H71	H	0.534698	-0.170880	-0.125145
H72	H	0.449398	-0.036327	-0.125151
H73	H	1.135687	0.142470	-0.000102
H74	H	1.133144	0.285683	-0.000091
H75	H	1.126087	0.683011	-0.000081
C76	C	0.829234	0.493201	-0.000055
H77	H	0.783036	0.522647	-0.000061
H78	H	0.826595	0.462024	0.047890
H79	H	0.826597	0.462037	-0.048010
C80	C	0.833350	0.261654	-0.000056
H81	H	0.843376	0.315616	-0.000065
H82	H	0.802134	0.245008	0.047893
H83	H	0.802130	0.245011	-0.048007
H84	H	0.857958	0.109733	-0.000058
H85	H	0.899769	-0.020280	-0.203797
H86	H	1.084269	-0.186965	-0.360769
H87	H	1.084277	-0.186970	-0.639340
H88	H	0.899785	-0.020281	-0.360814
C89	C	1.098820	-0.200093	-0.808711
H90	H	1.091551	-0.193511	-0.866454
H91	H	1.083103	-0.251870	-0.794524
H92	H	1.156320	-0.186060	-0.794521
H93	H	0.899795	-0.020284	-0.796384
C94	C	0.885258	-0.007159	-0.627018
H95	H	0.854973	0.020189	-0.665194
H96	H	0.919744	0.027657	-0.593257
H97	H	0.846532	-0.038157	-0.593258
