data_functionalizedCrystal
_audit_creation_method	'MofGen! by Chris Wilmer'
_symmetry_space_group_name_H-M	'P1'
_symmetry_Int_Tables_number	1
_symmetry_cell_setting	triclinic
loop_
_symmetry_equiv_pos_as_xyz
  x,y,z
_cell_length_a	17.699104
_cell_length_b	17.699092
_cell_length_c	16.776229
_cell_angle_alpha	89.995030
_cell_angle_beta	90.008863
_cell_angle_gamma	96.711057
loop_
_atom_site_label
_atom_site_type_symbol
_atom_site_fract_x
_atom_site_fract_y
_atom_site_fract_z
O1	O	-1.004071	0.095788	-0.066317
O2	O	-0.670738	0.429121	0.267017
O3	O	-0.337405	0.762454	0.600350
O4	O	-0.783696	0.108224	-0.066311
O5	O	-0.450362	0.441557	0.267022
O6	O	-0.117029	0.774890	0.600356
O7	O	-0.900106	-0.008183	-0.066312
O8	O	-0.566773	0.325151	0.267021
O9	O	-0.233440	0.658484	0.600354
O10	O	-0.887661	0.212194	-0.066316
O11	O	-0.554327	0.545527	0.267018
O12	O	-0.220994	0.878861	0.600351
O13	O	-0.900091	-0.008190	0.066264
O14	O	-0.566758	0.325144	0.399598
O15	O	-0.233424	0.658477	0.732931
O16	O	-0.783680	0.108216	0.066265
O17	O	-0.450347	0.441550	0.399599
O18	O	-0.117013	0.774883	0.732932
O19	O	-1.004056	0.095781	0.066260
O20	O	-0.670723	0.429114	0.399593
O21	O	-0.337389	0.762447	0.732926
Zn22	Zn	-0.893866	0.101997	0.087312
Zn23	Zn	-0.560532	0.435331	0.420645
Zn24	Zn	-0.227199	0.768664	0.753979
Zn25	Zn	-0.893886	0.102007	-0.087363
Zn26	Zn	-0.560553	0.435340	0.245970
Zn27	Zn	-0.227219	0.768673	0.579303
O28	O	-0.887645	0.212187	0.066261
O29	O	-0.554312	0.545520	0.399594
O30	O	-0.220978	0.878853	0.732928
C31	C	-0.755491	0.107772	-0.000022
C32	C	-0.422158	0.441105	0.333311
C33	C	-0.088824	0.774438	0.666645
C34	C	-0.671474	0.106427	-0.000020
C35	C	-0.338140	0.439760	0.333313
C36	C	-0.004807	0.773094	0.666647
C37	C	-0.899652	-0.036383	-0.000025
C38	C	-0.566318	0.296950	0.333308
C39	C	-0.232985	0.630283	0.666641
C40	C	-0.898311	-0.120401	-0.000029
C41	C	-0.564977	0.212932	0.333304
C42	C	-0.231644	0.546266	0.666638
C43	C	-0.146605	0.167170	-0.000021
C44	C	0.186729	0.500504	0.333312
C45	C	0.520062	0.833837	0.666645
C46	C	-0.225548	0.168430	-0.000025
C47	C	0.107785	0.501763	0.333309
C48	C	0.441118	0.835096	0.666642
C49	C	-0.274164	0.100095	-0.000024
C50	C	0.059169	0.433428	0.333309
C51	C	0.392503	0.766761	0.666642
C52	C	-0.243832	0.030496	-0.000028
C53	C	0.089501	0.363829	0.333305
C54	C	0.422835	0.697163	0.666638
C55	C	-0.164890	0.029238	-0.000031
C56	C	0.168444	0.362571	0.333303
C57	C	0.501777	0.695904	0.666636
C58	C	-0.562198	0.035569	-0.000021
C59	C	-0.228865	0.368902	0.333313
C60	C	0.104468	0.702236	0.666646
C61	C	-0.641145	0.036833	-0.000016
C62	C	-0.307812	0.370166	0.333317
C63	C	0.025521	0.703499	0.666651
C64	C	-0.622857	0.174761	-0.000015
C65	C	-0.289524	0.508094	0.333318
C66	C	0.043810	0.841428	0.666652
C67	C	-0.543915	0.173503	-0.000017
C68	C	-0.210581	0.506836	0.333316
C69	C	0.122752	0.840169	0.666650
C70	C	-0.513590	0.103905	-0.000025
C71	C	-0.180256	0.437238	0.333308
C72	C	0.153077	0.770571	0.666641
C73	C	-0.427990	0.102540	-0.000023
C74	C	-0.094656	0.435874	0.333310
C75	C	0.238677	0.769207	0.666644
C76	C	-0.359762	0.101458	-0.000021
C77	C	-0.026429	0.434792	0.333312
C78	C	0.306904	0.768125	0.666646
C79	C	-0.897691	-0.159865	-0.072297
C80	C	-0.564357	0.173469	0.261036
C81	C	-0.231024	0.506802	0.594369
C82	C	-0.896426	-0.238808	-0.072298
C83	C	-0.563092	0.094526	0.261035
C84	C	-0.229759	0.427859	0.594369
C85	C	-0.895786	-0.278286	-0.000030
C86	C	-0.562453	0.055047	0.333303
C87	C	-0.229120	0.388380	0.666637
C88	C	-0.896404	-0.238817	0.072244
C89	C	-0.563071	0.094516	0.405577
C90	C	-0.229737	0.427850	0.738911
C91	C	-0.897663	-0.159875	0.072244
C92	C	-0.564330	0.173459	0.405577
C93	C	-0.230997	0.506792	0.738911
C94	C	-0.891324	-0.557182	0.072245
C95	C	-0.557990	-0.223849	0.405579
C96	C	-0.224657	0.109484	0.738912
C97	C	-0.890066	-0.636131	0.072240
C98	C	-0.556733	-0.302797	0.405573
C99	C	-0.223400	0.030536	0.738906
C100	C	-0.890086	-0.636115	-0.072297
C101	C	-0.556753	-0.302782	0.261036
C102	C	-0.223419	0.030551	0.594370
C103	C	-0.891345	-0.557173	-0.072297
C104	C	-0.558012	-0.223840	0.261037
C105	C	-0.224679	0.109494	0.594370
C106	C	-0.891959	-0.517710	-0.000023
C107	C	-0.558626	-0.184377	0.333310
C108	C	-0.225292	0.148957	0.666643
C109	C	-0.893329	-0.432111	-0.000023
C110	C	-0.559996	-0.098777	0.333310
C111	C	-0.226662	0.234556	0.666643
C112	C	-0.894421	-0.363885	-0.000029
C113	C	-0.561088	-0.030552	0.333304
C114	C	-0.227755	0.302782	0.666638
C115	C	-0.032260	0.096232	-0.000027
C116	C	0.301073	0.429566	0.333306
C117	C	0.634406	0.762899	0.666640
C118	C	-0.116278	0.097577	-0.000023
C119	C	0.217056	0.430911	0.333310
C120	C	0.550389	0.764244	0.666644
C121	C	-0.888100	0.240387	-0.000028
C122	C	-0.554767	0.573721	0.333305
C123	C	-0.221433	0.907054	0.666639
C124	C	-0.889441	0.324405	-0.000029
C125	C	-0.556108	0.657738	0.333304
C126	C	-0.222774	0.991072	0.666637
N127	N	-0.893857	0.101990	0.206523
N128	N	-0.560524	0.435324	0.539857
N129	N	-0.227191	0.768657	0.873190
N130	N	-0.893900	0.102008	-0.206575
N131	N	-0.560567	0.435341	0.126759
N132	N	-0.227234	0.768674	0.460092
C133	C	-0.945420	0.050467	0.248240
C134	C	-0.612086	0.383800	0.581573
C135	C	-0.278753	0.717134	0.914906
C136	C	-0.945424	0.050466	0.331692
C137	C	-0.612091	0.383800	0.665025
C138	C	-0.278757	0.717133	0.998359
C139	C	-0.893869	0.101993	0.373426
C140	C	-0.560535	0.435327	0.706759
C141	C	-0.227202	0.768660	1.040093
C142	C	-0.842301	0.153519	0.331704
C143	C	-0.508967	0.486853	0.665037
C144	C	-0.175634	0.820186	0.998370
C145	C	-0.842294	0.153516	0.248253
C146	C	-0.508960	0.486849	0.581586
C147	C	-0.175627	0.820183	0.914920
C148	C	-0.842328	0.153534	0.668251
C149	C	-0.508995	0.486868	1.001584
C150	C	-0.175661	0.820201	1.334918
C151	C	-0.842341	0.153535	0.751707
C152	C	-0.509008	0.486869	1.085041
C153	C	-0.175674	0.820202	1.418374
C154	C	-0.945458	0.050485	0.751690
C155	C	-0.612125	0.383818	1.085023
C156	C	-0.278792	0.717151	1.418356
C157	C	-0.945451	0.050481	0.668239
C158	C	-0.612118	0.383814	1.001572
C159	C	-0.278785	0.717148	1.334906
C160	C	-0.893881	0.102004	0.626524
C161	C	-0.560548	0.435337	0.959857
C162	C	-0.227214	0.768671	1.293191
C163	C	-0.893876	0.102003	0.536036
C164	C	-0.560543	0.435337	0.869369
C165	C	-0.227209	0.768670	1.202702
C166	C	-0.893877	0.101998	0.463913
C167	C	-0.560543	0.435332	0.797246
C168	C	-0.227210	0.768665	1.130580
H169	H	-0.107027	0.222817	-0.000016
H170	H	0.226307	0.556150	0.333318
H171	H	0.559640	0.889484	0.666651
F172	F	-0.295574	-0.042231	-0.000030
F173	F	0.037759	0.291102	0.333303
F174	F	0.371092	0.624435	0.666636
H175	H	-0.140199	-0.027432	-0.000033
H176	H	0.193134	0.305901	0.333300
H177	H	0.526467	0.639235	0.666633
F178	F	-1.000342	-0.004354	0.796092
F179	F	-0.667009	0.328979	1.129425
F180	F	-0.333676	0.662313	1.462759
H181	H	-0.891870	-0.525034	-0.131145
H182	H	-0.558537	-0.191701	0.202188
H183	H	-0.225203	0.141633	0.535522
H184	H	-0.898216	-0.127727	-0.131147
H185	H	-0.564882	0.205606	0.202187
H186	H	-0.231549	0.538939	0.535520
F187	F	-1.000296	-0.004373	0.203831
F188	F	-0.666963	0.328960	0.537164
F189	F	-0.333630	0.662294	0.870498
F190	F	-0.895767	-0.280804	-0.149216
F191	F	-0.562433	0.052529	0.184117
F192	F	-0.229100	0.385862	0.517451
F193	F	-0.889430	-0.678121	-0.149218
F194	F	-0.556097	-0.344787	0.184116
F195	F	-0.222764	-0.011454	0.517449
H196	H	-0.987409	0.008511	0.365657
H197	H	-0.654076	0.341845	0.698991
H198	H	-0.320743	0.675178	1.032324
F199	F	-0.257821	0.242500	-0.000027
F200	F	0.075513	0.575834	0.333306
F201	F	0.408846	0.909167	0.666640
F202	F	-0.895715	-0.280834	0.149158
F203	F	-0.562381	0.052499	0.482491
F204	F	-0.229048	0.385832	0.815824
F205	F	-0.889384	-0.678145	0.149161
F206	F	-0.556051	-0.344812	0.482495
F207	F	-0.222718	-0.011478	0.815828
F208	F	-0.891967	-0.515192	0.149165
F209	F	-0.558634	-0.181858	0.482499
F210	F	-0.225300	0.151475	0.815832
F211	F	-1.000325	-0.004358	0.623826
F212	F	-0.666992	0.328975	0.957159
F213	F	-0.333658	0.662309	1.290493
F214	F	-0.787446	0.208370	0.623861
F215	F	-0.454113	0.541703	0.957194
F216	F	-0.120780	0.875037	1.290528
H217	H	-0.800305	0.195471	0.214288
H218	H	-0.466972	0.528804	0.547621
H219	H	-0.133639	0.862137	0.880955
F220	F	-0.898322	-0.117875	0.149162
F221	F	-0.564989	0.215458	0.482495
F222	F	-0.231655	0.548792	0.815829
F223	F	-0.787465	0.208380	0.796123
F224	F	-0.454132	0.541713	1.129456
F225	F	-0.120799	0.875046	1.462789
F226	F	-0.492178	0.246234	-0.000015
F227	F	-0.158845	0.579567	0.333318
F228	F	0.174489	0.912900	0.666652
H229	H	-0.647557	0.231431	-0.000012
H230	H	-0.314223	0.564764	0.333322
H231	H	0.019110	0.898098	0.666655
F232	F	-0.692885	-0.035902	-0.000016
F233	F	-0.359552	0.297431	0.333317
F234	F	-0.026219	0.630764	0.666650
H235	H	-0.800320	0.195471	0.365688
H236	H	-0.466986	0.528805	0.699022
H237	H	-0.133653	0.862138	1.032355
F238	F	-0.529934	-0.038503	-0.000044
F239	F	-0.196601	0.294830	0.333289
F240	F	0.136732	0.628163	0.666622
