data_functionalizedCrystal
_audit_creation_method	'MofGen! by Chris Wilmer'
_symmetry_space_group_name_H-M	'P1'
_symmetry_Int_Tables_number	1
_symmetry_cell_setting	triclinic
loop_
_symmetry_equiv_pos_as_xyz
  x,y,z
_cell_length_a	10.654550
_cell_length_b	14.044190
_cell_length_c	9.730223
_cell_angle_alpha	89.993542
_cell_angle_beta	89.996251
_cell_angle_gamma	88.838339
loop_
_atom_site_label
_atom_site_type_symbol
_atom_site_fract_x
_atom_site_fract_y
_atom_site_fract_z
O1	O	1.681227	0.133228	-0.114421
O2	O	1.317024	0.145921	-0.114401
O3	O	1.493654	0.001554	-0.114384
O4	O	1.504597	0.277595	-0.114438
O5	O	1.493652	0.001557	0.114196
O6	O	1.317022	0.145925	0.114179
O7	O	1.681225	0.133231	0.114159
Zn8	Zn	1.499123	0.139579	0.150461
Zn9	Zn	1.499126	0.139574	-0.150703
O10	O	1.504595	0.277599	0.114142
C11	C	1.270131	0.144991	-0.000108
C12	C	1.130408	0.142203	-0.000099
C13	C	1.059467	0.227204	-0.000136
C14	C	0.928182	0.224578	-0.000159
C15	C	0.938791	0.051942	-0.000114
C16	C	1.070074	0.054569	-0.000081
C17	C	1.053340	0.326874	-0.000168
C18	C	0.922056	0.324248	-0.000191
C19	C	1.488866	-0.033790	-0.000089
C20	C	1.474587	-0.139110	-0.000077
C21	C	1.549752	-0.388903	-0.000135
C22	C	1.448502	-0.331939	-0.000119
C23	C	1.463019	-0.224639	-0.000096
C24	C	1.535237	-0.496212	-0.000159
C25	C	1.728117	0.134161	-0.000137
C26	C	1.867841	0.136950	-0.000155
C27	C	1.509383	0.312943	-0.000156
C28	C	1.523662	0.418263	-0.000178
N29	N	1.499131	0.139581	0.355997
N30	N	1.499127	0.139564	-0.356239
C31	C	1.577366	0.075677	0.427931
C32	C	1.577362	0.075666	0.571814
C33	C	1.420883	0.203471	0.571817
C34	C	1.420881	0.203477	0.427937
C35	C	1.667713	0.001893	0.427930
C36	C	1.667708	0.001881	0.571813
H37	H	0.879411	0.354371	0.098487
H38	H	1.357164	0.255504	0.369369
C39	C	1.334811	0.273751	0.650963
N40	N	1.269980	0.326687	0.710575
C41	C	0.870772	0.374971	-0.129447
N42	N	0.832147	0.413171	-0.226801
H43	H	1.092187	0.358609	-0.098861
C44	C	1.681578	-0.345921	-0.000107
N45	N	1.780869	-0.313536	-0.000077
C46	C	1.794037	0.033097	0.367622
N47	N	1.889185	0.056601	0.322196
C48	C	1.628835	-0.096601	0.375185
N49	N	1.599549	-0.170784	0.335458
C50	C	1.316667	-0.374920	-0.000114
N51	N	1.217372	-0.407298	-0.000103
C52	C	1.617116	-0.091192	0.632115
N53	N	1.579002	-0.161290	0.677537
C54	C	1.098264	0.379534	0.129061
N55	N	1.132101	0.419194	0.226396
H56	H	1.127830	-0.014647	-0.000031
C57	C	0.872411	-0.044450	-0.000102
N58	N	0.822415	-0.117054	-0.000096
H59	H	1.765854	0.018134	0.610855
