data_functionalizedCrystal
_audit_creation_method	'MofGen! by Chris Wilmer'
_symmetry_space_group_name_H-M	'P1'
_symmetry_Int_Tables_number	1
_symmetry_cell_setting	triclinic
loop_
_symmetry_equiv_pos_as_xyz
  x,y,z
_cell_length_a	21.295417
_cell_length_b	13.033293
_cell_length_c	13.032268
_cell_angle_alpha	89.079182
_cell_angle_beta	97.140648
_cell_angle_gamma	97.199348
loop_
_atom_site_label
_atom_site_type_symbol
_atom_site_fract_x
_atom_site_fract_y
_atom_site_fract_z
Zn1	Zn	-0.195846	1.498395	-0.781439
Zn2	Zn	-0.286309	1.520106	-0.609445
Zn3	Zn	-0.192522	1.348256	-0.587615
Zn4	Zn	-0.312551	1.326348	-0.759479
O5	O	-0.246807	1.423276	-0.684495
O6	O	-0.198255	1.645197	-0.776949
O7	O	-0.261495	1.515565	-0.462644
O8	O	-0.104872	1.368254	-0.613380
O9	O	-0.264718	1.661148	-0.650587
O10	O	-0.107314	1.478561	-0.755781
O11	O	-0.192590	1.389307	-0.446605
O12	O	-0.218035	1.201428	-0.592087
O13	O	-0.309443	1.330915	-0.906298
O14	O	-0.306220	1.185332	-0.718355
O15	O	-0.223701	1.457317	-0.922431
O16	O	-0.377882	1.494322	-0.629294
O17	O	-0.397162	1.351968	-0.739523
C18	C	-0.264615	1.156062	-0.650470
C19	C	-0.272251	1.041744	-0.635939
C20	C	-0.242838	0.982873	-0.692079
C21	C	-0.250729	0.864718	-0.677061
C22	C	-0.410363	1.423149	-0.684420
C23	C	-0.480330	1.423184	-0.684435
C24	C	-0.503138	1.497357	-0.627113
C25	C	-0.568880	1.497402	-0.627143
C26	C	-0.611810	1.423257	-0.684481
C27	C	-0.588995	1.349078	-0.741814
C28	C	-0.523254	1.349041	-0.741792
N29	N	-0.721751	1.332291	-0.680864
N30	N	-0.784201	1.332329	-0.680880
C31	C	-0.809882	1.423365	-0.684554
N32	N	-0.770752	1.514365	-0.688192
N33	N	-0.708297	1.514326	-0.688171
C34	C	-0.683095	1.423289	-0.684512
C35	C	-0.903974	1.497593	-0.627261
C36	C	-0.969717	1.497639	-0.627298
C37	C	-0.989831	1.349306	-0.741963
C38	C	-0.924089	1.349269	-0.741933
C39	C	-0.881164	1.423412	-0.684577
C40	C	-0.082613	1.423429	-0.684595
C41	C	-0.012643	1.423495	-0.684638
C42	C	-0.269870	1.389251	-0.952721
C43	C	-0.279698	1.374751	-1.067023
C44	C	-0.228930	1.691533	-0.718653
C45	C	-0.221312	1.805848	-0.733209
C46	C	-0.241656	1.430828	-1.125965
C47	C	-0.251813	1.415843	-1.244103
C48	C	-0.223785	1.457229	-0.417319
C49	C	-0.213766	1.471928	-0.303043
H50	H	-0.190283	0.842914	-0.792389
H51	H	-0.623953	1.288710	-0.788501
H52	H	-0.173671	1.531029	-1.266050
H53	H	-0.869023	1.557968	-0.580562
C54	C	-0.333141	1.296034	-1.116545
C55	C	-0.332605	1.296848	-1.223878
C56	C	-0.381835	1.224358	-1.269529
H57	H	-0.327093	1.229090	-1.090318
H58	H	-0.372953	1.313265	-1.100942
H59	H	-0.292803	1.279610	-1.239473
H60	H	-0.338662	1.363774	-1.250134
H61	H	-0.421647	1.241590	-1.253927
H62	H	-0.375782	1.157420	-1.243295
H63	H	-0.381482	1.224908	-1.342360
H64	H	-0.291901	1.356729	-1.281096
C65	C	-0.201360	1.032249	-0.770865
C66	C	-0.138869	1.009063	-0.745368
C67	C	-0.100640	1.054538	-0.817917
H68	H	-0.217660	1.005979	-0.837758
H69	H	-0.201510	1.105105	-0.770465
H70	H	-0.138721	0.936222	-0.745778
H71	H	-0.122550	1.035335	-0.678486
H72	H	-0.100790	1.127394	-0.817518
H73	H	-0.116945	1.028264	-0.884807
H74	H	-0.058234	1.038821	-0.800623
H75	H	-0.201566	1.489927	-1.088967
C76	C	-0.292196	0.815229	-0.598307
C77	C	-0.341694	0.746185	-0.648633
C78	C	-0.379910	0.700587	-0.576123
H79	H	-0.267084	0.778917	-0.548252
H80	H	-0.309667	0.867452	-0.565047
H81	H	-0.324223	0.693970	-0.681876
H82	H	-0.366822	0.782472	-0.698682
H83	H	-0.397381	0.752809	-0.542864
H84	H	-0.354792	0.664280	-0.526073
H85	H	-0.413501	0.653742	-0.610260
H86	H	-0.504684	1.288639	-0.788471
H87	H	-0.303272	1.004674	-0.576755
H88	H	-0.468190	1.557731	-0.580413
H89	H	-0.587454	1.557807	-0.580465
H90	H	-1.024785	1.288940	-0.788654
C91	C	-0.994357	1.578230	-0.564952
C92	C	-0.942691	1.643131	-0.514699
C93	C	-0.965365	1.717374	-0.457245
H94	H	-1.020350	1.618141	-0.609932
H95	H	-1.018785	1.544652	-0.515070
H96	H	-0.918274	1.676707	-0.564575
H97	H	-0.916694	1.603249	-0.469701
H98	H	-0.989794	1.683796	-0.407362
H99	H	-0.991358	1.757278	-0.502232
H100	H	-0.930314	1.761412	-0.423133
C101	C	-0.899446	1.268608	-0.804181
C102	C	-0.951110	1.203665	-0.854381
C103	C	-0.928434	1.129338	-0.911726
H104	H	-0.875012	1.302082	-0.854093
H105	H	-0.873457	1.228752	-0.759107
H106	H	-0.977088	1.243516	-0.899451
H107	H	-0.975549	1.170167	-0.804494
H108	H	-0.902445	1.089482	-0.866653
H109	H	-0.904001	1.162821	-0.961632
H110	H	-0.963484	1.085260	-0.945786
