data_functionalizedCrystal
_audit_creation_method	'MofGen! by Chris Wilmer'
_symmetry_space_group_name_H-M	'P1'
_symmetry_Int_Tables_number	1
_symmetry_cell_setting	triclinic
loop_
_symmetry_equiv_pos_as_xyz
  x,y,z
_cell_length_a	15.995300
_cell_length_b	15.995350
_cell_length_c	15.072220
_cell_angle_alpha	90.001101
_cell_angle_beta	89.985917
_cell_angle_gamma	83.482091
loop_
_atom_site_label
_atom_site_type_symbol
_atom_site_fract_x
_atom_site_fract_y
_atom_site_fract_z
O1	O	1.111022	0.107720	-0.073811
O2	O	0.867241	0.121092	-0.073805
O3	O	0.995796	-0.007483	-0.073807
O4	O	0.982468	0.236295	-0.073808
O5	O	0.995764	-0.007476	0.073758
O6	O	0.867209	0.121099	0.073760
O7	O	1.110990	0.107727	0.073755
Zn8	Zn	0.989095	0.114414	0.097187
Zn9	Zn	0.989137	0.114405	-0.097237
O10	O	0.982436	0.236302	0.073757
C11	C	0.836030	0.120550	-0.000021
C12	C	0.743077	0.118915	-0.000019
C13	C	0.995229	-0.038674	-0.000026
C14	C	0.993577	-0.131624	-0.000031
C15	C	0.572894	0.115896	-0.000026
C16	C	0.525428	0.207443	-0.000025
C17	C	0.428741	0.205773	-0.000362
C18	C	0.405337	0.112924	-0.000032
C19	C	0.446488	0.067500	-0.084132
C20	C	0.543122	0.069816	-0.084201
C21	C	0.543365	0.068469	0.083614
C22	C	0.446420	0.068477	0.084717
C23	C	0.310642	0.111239	-0.000038
C24	C	0.667590	0.117577	-0.000026
C25	C	0.987644	-0.469370	-0.000028
C26	C	0.896090	-0.421920	-0.000357
C27	C	0.897743	-0.325230	-0.000024
C28	C	0.990587	-0.301810	-0.000030
C29	C	1.035727	-0.342892	0.084234
C30	C	1.033427	-0.439527	0.084305
C31	C	1.035354	-0.439894	-0.083504
C32	C	1.035333	-0.342948	-0.084618
C33	C	0.992255	-0.207113	-0.000028
C34	C	0.985979	-0.564068	-0.000024
C35	C	1.142202	0.108269	-0.000031
C36	C	1.235154	0.109904	-0.000039
C37	C	0.983003	0.267493	-0.000026
C38	C	0.984655	0.360443	-0.000027
N39	N	0.989072	0.114420	0.229875
N40	N	0.989166	0.114392	-0.229926
C41	C	0.989135	0.114402	0.589077
C42	C	0.920117	0.182969	0.551471
C43	C	0.920275	0.183219	0.448645
C44	C	0.989103	0.114411	0.410873
C45	C	1.076470	0.133477	0.448162
C46	C	1.076083	0.133964	0.551020
C47	C	0.971565	0.026565	0.551178
C48	C	0.969560	0.027152	0.448315
C49	C	0.989091	0.114415	0.310160
C50	C	0.989153	0.114400	0.689790
H51	H	0.400264	0.241465	0.059911
C52	C	1.033074	-0.045008	0.413602
N53	N	1.080924	-0.099356	0.387464
H54	H	0.545050	0.243683	-0.060243
C55	C	0.990790	-0.306085	-0.168835
N56	N	0.957232	-0.278322	-0.232266
C57	C	0.832100	0.167895	0.584945
N58	N	0.765805	0.156544	0.610170
C59	C	0.391134	0.253769	-0.082287
N60	N	0.362810	0.289917	-0.144000
H61	H	1.021897	-0.024460	0.575496
H62	H	0.561454	0.102547	-0.147305
H63	H	0.543906	0.244237	0.060275
H64	H	1.103040	-0.327599	-0.089710
C65	C	1.126545	-0.482823	-0.084279
N66	N	1.195226	-0.515162	-0.084857
H67	H	1.129055	0.084864	0.423692
C68	C	0.882734	0.007605	0.415398
N69	N	0.817334	-0.007115	0.390601
C70	C	0.586724	-0.020999	-0.089057
N71	N	0.619562	-0.089400	-0.092724
H72	H	0.859510	-0.440448	-0.060784
C73	C	1.147567	0.069083	0.584626
N74	N	1.201417	0.020226	0.609934
H75	H	0.432389	-0.000724	-0.087023
C76	C	0.408155	0.109557	-0.169006
N77	N	0.379269	0.141226	-0.232931
H78	H	0.931182	0.247784	0.577309
H79	H	1.004349	-0.314502	0.146945
H80	H	0.419067	0.101649	0.146936
C81	C	0.571035	0.109195	0.169757
N82	N	0.591875	0.139879	0.234636
C83	C	0.425691	-0.022973	0.091922
N84	N	0.410076	-0.091856	0.097342
C85	C	0.832538	0.167891	0.414587
N86	N	0.766448	0.156351	0.388938
H87	H	0.575145	0.000972	0.084424
H88	H	0.862259	-0.296804	-0.060428
H89	H	0.859647	-0.441504	0.059736
H90	H	0.861994	-0.297356	0.060485
H91	H	1.000484	-0.457820	0.147298
H92	H	1.005434	-0.460431	-0.147372
H93	H	1.092323	0.196805	0.422392
C94	C	1.124231	-0.483111	0.089478
N95	N	1.192624	-0.515935	0.093380
C96	C	1.127870	-0.323809	0.088477
N97	N	1.197270	-0.309428	0.091674
C98	C	0.935437	0.271277	0.415388
N99	N	0.946863	0.337604	0.390340
H100	H	1.091566	0.198022	0.575000
C101	C	0.887349	0.001810	0.586259
N102	N	0.823912	-0.016826	0.612682
