data_functionalizedCrystal
_audit_creation_method	'MofGen! by Chris Wilmer'
_symmetry_space_group_name_H-M	'P1'
_symmetry_Int_Tables_number	1
_symmetry_cell_setting	triclinic
loop_
_symmetry_equiv_pos_as_xyz
  x,y,z
_cell_length_a	18.050589
_cell_length_b	18.215407
_cell_length_c	18.215399
_cell_angle_alpha	90.017777
_cell_angle_beta	89.976397
_cell_angle_gamma	89.976159
loop_
_atom_site_label
_atom_site_type_symbol
_atom_site_fract_x
_atom_site_fract_y
_atom_site_fract_z
Zn1	Zn	-0.295754	-1.125055	-0.416098
Zn2	Zn	0.204246	-0.625055	0.083902
Zn3	Zn	-0.419949	-1.124956	-0.293041
Zn4	Zn	0.080051	-0.624956	0.206959
Zn5	Zn	-0.295768	-1.001987	-0.293049
Zn6	Zn	0.204232	-0.501987	0.206951
Zn7	Zn	-0.419897	-1.001946	-0.416070
Zn8	Zn	0.080103	-0.501946	0.083930
O9	O	-0.357842	-1.063486	-0.354564
O10	O	0.142158	-0.563486	0.145436
O11	O	-0.312244	-1.228026	-0.399782
O12	O	0.187756	-0.728026	0.100218
O13	O	-0.403503	-1.108620	-0.190058
O14	O	0.096497	-0.608620	0.309942
O15	O	-0.191841	-1.018371	-0.309387
O16	O	0.308159	-0.518371	0.190613
O17	O	-0.403490	-1.227953	-0.309372
O18	O	0.096510	-0.727953	0.190628
O19	O	-0.191831	-1.108788	-0.399790
O20	O	0.308169	-0.608788	0.100210
O21	O	-0.312268	-1.018275	-0.190064
O22	O	0.187732	-0.518275	0.309936
O23	O	-0.312218	-0.898998	-0.309361
O24	O	0.187782	-0.398998	0.190639
O25	O	-0.403402	-1.018301	-0.519058
O26	O	0.096598	-0.518301	-0.019058
O27	O	-0.403415	-0.898967	-0.399743
O28	O	0.096585	-0.398967	0.100257
O29	O	-0.312194	-1.108748	-0.519078
O30	O	0.187806	-0.608748	-0.019078
O31	O	-0.523867	-1.108580	-0.309346
O32	O	-0.023867	-0.608580	0.190654
O33	O	-0.523829	-1.018205	-0.399735
O34	O	-0.023829	-0.518205	0.100265
C35	C	-0.357813	-0.872280	-0.354550
C36	C	0.142187	-0.372280	0.145450
C37	C	-0.357818	-0.790481	-0.354562
C38	C	0.142182	-0.290481	0.145438
C39	C	-0.310399	-0.602324	-0.401711
C40	C	0.189601	-0.102324	0.098289
C41	C	-0.310402	-0.525465	-0.401713
C42	C	0.189598	-0.025465	0.098287
C43	C	-0.405274	-0.525400	-0.307424
C44	C	0.094726	-0.025400	0.192576
C45	C	-0.405266	-0.602258	-0.307419
C46	C	0.094734	-0.102258	0.192581
C47	C	-0.357829	-0.640717	-0.354566
C48	C	0.142171	-0.140717	0.145434
C49	C	-0.357841	-0.487001	-0.354573
C50	C	0.142159	0.012999	0.145427
C51	C	-0.357846	-0.403668	-0.354575
C52	C	0.142154	0.096332	0.145425
C53	C	-0.357823	-0.724056	-0.354564
C54	C	0.142177	-0.224056	0.145436
C55	C	-0.550794	-1.063397	-0.354552
C56	C	-0.050794	-0.563397	0.145448
C57	C	-0.633340	-1.063427	-0.354572
C58	C	-0.133340	-0.563427	0.145428
C59	C	-0.832797	-1.014329	-0.403708
C60	C	-0.332797	-0.514329	0.096292
C61	C	-0.882236	-0.996389	-0.336555
C62	C	-0.382236	-0.496389	0.163445
C63	C	-0.784470	-1.063499	-0.354581
C64	C	-0.284470	-0.563499	0.145419
C65	C	-0.882113	-1.081475	-0.421742
C66	C	-0.382113	-0.581475	0.078258
C67	C	-0.930455	-1.063567	-0.354596
C68	C	-0.430455	-0.563567	0.145404
C69	C	-0.832822	-1.045524	-0.287392
C70	C	-0.332822	-0.545524	0.212608
C71	C	-0.832695	-1.130641	-0.372625
C72	C	-0.332695	-0.630641	0.127375
C73	C	-0.882111	-1.112726	-0.305426
C74	C	-0.382111	-0.612726	0.194574
C75	C	-0.700372	-1.063458	-0.354573
C76	C	-0.200372	-0.563458	0.145427
C77	C	-1.014552	-1.063609	-0.354597
C78	C	-0.514552	-0.563609	0.145403
C79	C	-0.164136	-1.063595	-0.354593
C80	C	0.335864	-0.563595	0.145407
C81	C	-0.081590	-1.063642	-0.354605
C82	C	0.418410	-0.563642	0.145395
C83	C	-0.357791	-1.063531	-0.546517
C84	C	0.142209	-0.563531	-0.046517
C85	C	-0.357769	-1.063550	-0.628316
C86	C	0.142231	-0.563550	-0.128316
C87	C	-0.357863	-0.255439	-0.354577
C88	C	0.142137	0.244561	0.145423
C89	C	-0.357852	-0.337238	-0.354578
C90	C	0.142148	0.162762	0.145422
C91	C	-0.310233	-1.110663	-0.816522
C92	C	0.189767	-0.610663	-0.316522
C93	C	-0.310211	-1.110672	-0.893381
C94	C	0.189789	-0.610672	-0.393381
C95	C	-0.405190	-1.016489	-0.893349
C96	C	0.094810	-0.516489	-0.393349
C97	C	-0.405207	-1.016477	-0.816491
C98	C	0.094793	-0.516477	-0.316491
C99	C	-0.357730	-1.063568	-0.778080
C100	C	0.142270	-0.563568	-0.278080
C101	C	-0.357691	-1.063589	-0.931796
C102	C	0.142309	-0.563589	-0.431796
C103	C	-0.357668	-1.063598	-1.015130
C104	C	0.142332	-0.563598	-0.515130
C105	C	-0.357752	-1.063558	-0.694741
C106	C	0.142248	-0.563558	-0.194741
C107	C	-0.357839	-1.063484	-0.163358
C108	C	0.142161	-0.563484	0.336642
C109	C	-0.357652	-1.063607	-0.081560
C110	C	0.142348	-0.563607	0.418440
H111	H	-0.271779	-0.494208	-0.440101
H112	H	0.228221	0.005792	0.059899
H113	H	-0.903764	-1.096652	-0.478534
H114	H	-0.403764	-0.596652	0.021466
H115	H	-0.811260	-1.030281	-0.230585
H116	H	-0.311260	-0.530281	0.269415
H117	H	-0.443896	-0.494077	-0.269039
H118	H	0.056104	0.005923	0.230961
H119	H	-0.810920	-1.187375	-0.387906
H120	H	-0.310920	-0.687375	0.112094
F121	F	-0.259663	-1.160801	-0.934291
F122	F	0.240337	-0.660801	-0.434291
H123	H	-0.811143	-0.972687	-0.445194
H124	H	-0.311143	-0.472687	0.054806
H125	H	-0.443885	-0.978122	-0.785191
H126	H	0.056115	-0.478122	-0.285191
F127	F	-0.910677	-0.922213	-0.316607
F128	F	-0.410677	-0.422213	0.183393
F129	F	-0.455744	-0.643122	-0.257233
F130	F	0.044256	-0.143122	0.242767
H131	H	-0.903628	-1.154337	-0.263839
H132	H	-0.403628	-0.654337	0.236161
F133	F	-0.455719	-0.966377	-0.934235
F134	F	0.044281	-0.466377	-0.434235
F135	F	-0.259701	-1.160779	-0.775645
F136	F	0.240299	-0.660779	-0.275645
F137	F	-0.259910	-0.643253	-0.451887
F138	F	0.240090	-0.143253	0.048113
