data_functionalizedCrystal
_audit_creation_method	'MofGen! by Chris Wilmer'
_symmetry_space_group_name_H-M	'P1'
_symmetry_Int_Tables_number	1
_symmetry_cell_setting	triclinic
loop_
_symmetry_equiv_pos_as_xyz
  x,y,z
_cell_length_a	21.295419
_cell_length_b	15.298671
_cell_length_c	15.296720
_cell_angle_alpha	91.597329
_cell_angle_beta	80.341241
_cell_angle_gamma	99.650610
loop_
_atom_site_label
_atom_site_type_symbol
_atom_site_fract_x
_atom_site_fract_y
_atom_site_fract_z
Zn1	Zn	0.962245	0.434057	0.435041
Zn2	Zn	0.997568	0.555186	0.263253
Zn3	Zn	0.871621	0.408780	0.288575
Zn4	Zn	0.877716	0.580510	0.409678
O5	O	0.927288	0.494633	0.349137
O6	O	1.055016	0.450105	0.412270
O7	O	0.993092	0.514588	0.144036
O8	O	0.866310	0.289570	0.329215
O9	O	1.080967	0.539098	0.286059
O10	O	0.932891	0.308141	0.436823
O11	O	0.900560	0.407024	0.162640
O12	O	0.784345	0.431580	0.304622
O13	O	0.876697	0.582260	0.535618
O14	O	0.788822	0.557750	0.393596
O15	O	0.938801	0.474661	0.554252
O16	O	0.999002	0.681108	0.261465
O17	O	0.910947	0.699713	0.369043
C18	C	0.763744	0.494671	0.349105
C19	C	0.693781	0.494712	0.349108
C20	C	0.647428	0.448480	0.414897
C21	C	0.581682	0.448457	0.414905
C22	C	0.562292	0.494683	0.349130
C23	C	0.608654	0.540917	0.283329
C24	C	0.674399	0.540932	0.283318
N25	N	0.470570	0.570135	0.329044
N26	N	0.408115	0.570120	0.329060
C27	C	0.364209	0.494641	0.349157
N28	N	0.385116	0.419179	0.369255
N29	N	0.447577	0.419196	0.369243
C30	C	0.491005	0.494672	0.349134
C31	C	0.246566	0.448380	0.414958
C32	C	0.180819	0.448354	0.414959
C33	C	0.207793	0.540824	0.283387
C34	C	0.273538	0.540840	0.283382
C35	C	0.292921	0.494621	0.349172
C36	C	0.959484	0.722193	0.309773
C37	C	0.973313	0.819549	0.292962
C38	C	0.904488	0.534105	0.577606
C39	C	0.894773	0.550925	0.674966
C40	C	1.091469	0.494596	0.349169
C41	C	1.161434	0.494580	0.349183
C42	C	1.025679	0.855574	0.229103
C43	C	1.038676	0.947046	0.213312
C44	C	0.999306	1.002500	0.261374
C45	C	0.946936	0.966474	0.325230
C46	C	0.933940	0.874995	0.341027
C47	C	0.907567	1.021921	0.373298
C48	C	0.855196	0.985895	0.437154
C49	C	0.842203	0.894424	0.452948
C50	C	0.881573	0.838970	0.404886
C51	C	0.920563	1.113400	0.357501
C52	C	0.828823	1.132821	0.469425
C53	C	0.815826	1.041349	0.485216
C54	C	0.894975	1.266190	0.388684
C55	C	0.881190	1.168846	0.405566
C56	C	0.950025	0.455252	0.121567
C57	C	0.959828	0.438185	0.024250
C58	C	0.996728	0.374262	0.988214
C59	C	1.005861	0.358460	0.896740
C60	C	0.978089	0.406574	0.841292
C61	C	0.941184	0.470494	0.877328
C62	C	0.932055	0.486303	0.968811
C63	C	0.913416	0.518616	0.821888
C64	C	0.876511	0.582536	0.857924
C65	C	0.867383	0.598341	0.949399
C66	C	0.895155	0.550226	1.004846
C67	C	0.922545	0.502807	0.730405
C68	C	0.857872	0.614848	0.711002
C69	C	0.848740	0.630650	0.802477
H70	H	0.592863	0.578554	0.229774
O71	O	0.536618	0.403434	0.478711
C72	C	0.444478	0.287303	0.511166
C73	C	0.495481	0.338202	0.438818
H74	H	0.411197	0.234564	0.478939
H75	H	0.469590	0.254205	0.558179
H76	H	0.414860	0.335510	0.549945
H77	H	0.525115	0.290053	0.399974
H78	H	0.470329	0.371314	0.391866
H79	H	0.799564	0.865093	0.504950
O80	O	0.666290	0.403717	0.478871
C81	C	0.727120	0.412553	0.599116
C82	C	0.705794	0.463361	0.526719
H83	H	0.759074	0.460750	0.637808
H84	H	0.682715	0.379532	0.646198
H85	H	0.755395	0.359742	0.566890
H86	H	0.677532	0.516213	0.558867
H87	H	0.750225	0.496320	0.479644
H88	H	1.081316	0.976371	0.161320
O89	O	0.765000	1.006209	0.547243
C90	C	0.704305	0.873883	0.621135
C91	C	0.761893	0.913564	0.550880
H92	H	0.701766	0.798972	0.624085
H93	H	0.710807	0.903963	0.688713
H94	H	0.657676	0.889338	0.602571
H95	H	0.808549	0.898122	0.569359
H96	H	0.755334	0.883483	0.483320
H97	H	0.192007	0.578462	0.229831
H98	H	0.887721	0.563089	1.079334
O99	O	1.041700	0.296311	0.861887
C100	C	1.104915	0.186888	0.890785
C101	C	1.064329	0.257236	0.930375
H102	H	1.123233	0.155289	0.946137
H103	H	1.073835	0.133643	0.855912
H104	H	1.147766	0.219704	0.840978
H105	H	1.021474	0.224499	0.980217
H106	H	1.095454	0.310475	0.965193
O107	O	0.318487	0.585837	0.219437
C108	C	0.338299	0.677506	0.088907
C109	C	0.287329	0.626603	0.161290
H110	H	0.313127	0.710463	0.041866
H111	H	0.371547	0.730358	0.121058
H112	H	0.367962	0.629321	0.050176
H113	H	0.257620	0.674719	0.200046
H114	H	0.254125	0.573738	0.129085
O115	O	0.812796	0.692645	0.837463
C116	C	0.708954	0.740047	0.858036
C117	C	0.749581	0.669765	0.818387
H118	H	0.657840	0.721584	0.842612
H119	H	0.707145	0.743075	0.932952
H120	H	0.731819	0.807557	0.827842
H121	H	0.726746	0.602218	0.848512
H122	H	0.751391	0.666815	0.743471
H123	H	0.143078	0.410701	0.468532
H124	H	0.837339	0.650396	0.978735
O125	O	0.830913	0.661485	0.657028
C126	C	0.816349	0.686823	0.507492
C127	C	0.846898	0.633932	0.568524
H128	H	0.829272	0.664579	0.435922
H129	H	0.761615	0.674549	0.528065
H130	H	0.835582	0.760550	0.513308
H131	H	0.827716	0.560188	0.562739
H132	H	0.901629	0.646280	0.547935
O133	O	1.063832	0.801651	0.182338
C134	C	1.069488	0.677928	0.081974
C135	C	1.026205	0.738947	0.134876
H136	H	1.039081	0.627206	0.043602
H137	H	1.109140	0.719332	0.033559
H138	H	1.092282	0.642035	0.129655
H139	H	1.003365	0.774853	0.087262
H140	H	0.986590	0.697497	0.183302
H141	H	0.712140	0.578581	0.229743
O142	O	0.790623	1.186661	0.516248
C143	C	0.749064	1.240341	0.660380
C144	C	0.792353	1.179339	0.607462
H145	H	0.750438	1.234428	0.734138
H146	H	0.767342	1.311931	0.638194
H147	H	0.697322	1.219775	0.647981
H148	H	0.844106	1.199825	0.619836
H149	H	0.774022	1.107763	0.629657
O150	O	1.023637	0.327585	1.042204
C151	C	1.038274	0.302341	1.191727
C152	C	1.007746	0.355252	1.130688
H153	H	1.025449	0.324702	1.263277
H154	H	1.019022	0.228602	1.186041
H155	H	1.092997	0.314589	1.171035
H156	H	0.953022	0.343077	1.151339
H157	H	1.027049	0.428973	1.136381
H158	H	1.009892	1.076980	0.248513
O159	O	0.265287	0.403403	0.478902
C160	C	0.231598	0.311737	0.609439
C161	C	0.210309	0.362616	0.537061
H162	H	0.187160	0.278763	0.656489
H163	H	0.259879	0.258901	0.577284
H164	H	0.263525	0.359942	0.648161
H165	H	0.178359	0.314480	0.498314
H166	H	0.182063	0.415465	0.569270
O167	O	0.958300	0.440595	0.695470
C168	C	0.970599	0.286780	0.693334
C169	C	0.930040	0.357149	0.732950
H170	H	0.947774	0.219301	0.723634
H171	H	0.972345	0.283661	0.618431
H172	H	1.021738	0.305303	0.708653
H173	H	0.878882	0.338677	0.717698
H174	H	0.928348	0.360255	0.807842
O175	O	0.971504	1.148288	0.295534
C176	C	1.086795	1.168802	0.248389
C177	C	1.029154	1.129239	0.318623
H178	H	1.133420	1.153432	0.267041
H179	H	1.080333	1.138628	0.180835
H180	H	1.089304	1.243701	0.245325
H181	H	1.026610	1.054342	0.321767
H182	H	1.035639	1.159483	0.386142
O183	O	0.987085	0.391220	0.752435
C184	C	1.063735	0.391066	0.617293
C185	C	1.053633	0.408479	0.717923
H186	H	1.117535	0.405031	0.589356
H187	H	1.043614	0.318937	0.604152
H188	H	1.037521	0.436404	0.583860
H189	H	1.079846	0.363197	0.751423
H190	H	1.073736	0.480630	0.730998
H191	H	0.870994	0.764485	0.417740
