data_functionalizedCrystal
_audit_creation_method	'MofGen! by Chris Wilmer'
_symmetry_space_group_name_H-M	'P1'
_symmetry_Int_Tables_number	1
_symmetry_cell_setting	triclinic
loop_
_symmetry_equiv_pos_as_xyz
  x,y,z
_cell_length_a	19.902436
_cell_length_b	14.560438
_cell_length_c	14.560438
_cell_angle_alpha	119.988920
_cell_angle_beta	90.000068
_cell_angle_gamma	120.004433
loop_
_atom_site_label
_atom_site_type_symbol
_atom_site_fract_x
_atom_site_fract_y
_atom_site_fract_z
Zr1	Zr	0.647367	-1.005021	-0.120193
O2	O	0.540085	-1.196610	-0.266803
O3	O	0.680249	-0.813443	-0.075284
O4	O	0.680260	-1.005016	-0.266837
O5	O	0.540072	-1.005037	0.075890
O6	O	0.790839	-1.004998	-0.266825
O7	O	0.540074	-1.005038	-0.075250
O8	O	0.790818	-0.662310	0.075829
O9	O	0.540092	-1.347726	-0.266764
O10	O	0.776803	-0.892224	-0.056080
O11	O	0.694278	-0.892237	0.056705
O12	O	0.694291	-1.117789	-0.168824
O13	O	0.611766	-1.117802	-0.056039
Zr14	Zr	0.823724	-1.004992	0.120877
Zr15	Zr	0.823727	-1.004992	-0.120173
Zr16	Zr	0.647363	-1.005020	0.120857
Zr17	Zr	0.647378	-1.246032	-0.120131
Zr18	Zr	0.823713	-0.763980	0.120815
O19	O	0.790842	-1.196569	0.075968
O20	O	0.790847	-1.196570	-0.266775
O21	O	0.540080	-1.196610	0.075940
O22	O	0.931005	-0.813402	0.267487
O23	O	0.931010	-0.813403	-0.075256
O24	O	0.680244	-0.813442	0.267459
O25	O	0.931019	-1.004975	-0.075206
O26	O	0.790831	-1.004997	0.267521
O27	O	0.680252	-1.005014	0.267509
O28	O	0.931017	-1.004975	0.075934
O29	O	0.680275	-1.347703	-0.266748
O30	O	0.790816	-0.662309	0.267432
O31	O	0.930999	-0.662287	0.267448
O32	O	0.931001	-0.662287	0.075845
O33	O	0.540089	-1.347725	-0.075161
O34	O	0.680272	-1.347703	-0.075145
O35	O	0.776800	-0.892223	0.169508
O36	O	0.859325	-0.892210	0.056723
O37	O	0.776813	-1.117775	-0.056021
O38	O	0.694288	-1.117788	0.056764
C39	C	0.735532	-0.703537	0.000264
C40	C	0.735527	-0.601222	0.000237
C41	C	0.674615	-0.636356	-0.082987
C42	C	0.674627	-0.540173	-0.082941
C43	C	0.796466	-0.373723	0.083563
C44	C	0.796457	-0.469905	0.083511
C45	C	0.604270	-0.732454	-0.179113
C46	C	0.604282	-0.636271	-0.179068
C47	C	0.514945	-1.005042	0.000317
C48	C	0.440076	-1.005054	0.000309
C49	C	0.168074	-1.004990	0.000353
C50	C	0.144514	-1.147281	-0.070428
C51	C	0.222352	-1.147370	-0.070821
C52	C	0.303017	-1.005022	0.000331
C53	C	0.300603	-0.934358	-0.051574
C54	C	0.222376	-0.935268	-0.052098
C55	C	0.223360	-0.932345	0.123071
C56	C	0.300282	-0.935019	0.122883
C57	C	0.379284	-1.005033	0.000320
C58	C	0.091809	-1.004975	0.000360
C59	C	0.956145	-1.004971	0.000366
C60	C	1.031015	-1.004959	0.000375
C61	C	0.735555	-0.306492	0.000392
C62	C	0.735548	-0.408857	0.000334
C63	C	0.735550	-1.005007	-0.301175
C64	C	0.735551	-1.005007	-0.403507
C65	C	0.796466	-1.005003	-0.451585
C66	C	0.796462	-1.004997	-0.547734
C67	C	0.674621	-1.005006	-0.547723
C68	C	0.674629	-1.005002	-0.451571
C69	C	0.866808	-1.005003	-0.451595
C70	C	0.866804	-1.004998	-0.547744
C71	C	0.735541	-1.005006	0.301859
C72	C	0.735539	-1.005005	0.404191
C73	C	0.956132	-0.703502	0.000288
C74	C	1.030997	-0.601174	0.000270
C75	C	0.735528	-0.703537	0.301781
C76	C	0.735521	-0.601221	0.404087
C77	C	0.956128	-0.703501	0.301806
C78	C	1.030991	-0.601173	0.404120
C79	C	0.514963	-1.306511	-0.301122
C80	C	0.440100	-1.408839	-0.403436
C81	C	0.514959	-1.306510	0.000396
C82	C	0.440094	-1.408838	0.000414
C83	C	0.735563	-1.306476	-0.301097
C84	C	0.735569	-1.408791	-0.403403
C85	C	1.023079	-0.553127	-0.058630
C86	C	1.093416	-0.456992	-0.058670
C87	C	1.171670	-0.408900	0.000198
C88	C	1.179587	-0.456957	0.059101
C89	C	1.109251	-0.553096	0.059133
C90	C	1.109233	-0.553112	0.393295
C91	C	1.179582	-0.456977	0.489421
C92	C	1.171687	-0.408899	0.596370
C93	C	1.093438	-0.456970	0.607192
C94	C	1.023090	-0.553109	0.511068
C95	C	0.361858	-1.456912	-0.392611
C96	C	0.291509	-1.553076	-0.488737
C97	C	0.299403	-1.601160	-0.595686
C98	C	0.377653	-1.553083	-0.606508
C99	C	0.448000	-1.456927	-0.510384
C100	C	0.448012	-1.456895	0.059304
C101	C	0.377675	-1.553057	0.059317
C102	C	0.299421	-1.601152	0.000446
C103	C	0.291504	-1.553091	-0.058452
C104	C	0.361840	-1.456938	-0.058471
C105	C	0.778596	-0.553141	0.511032
C106	C	0.778583	-0.457009	0.607155
C107	C	0.692422	-0.457042	0.489374
C108	C	0.692430	-0.553179	0.393253
C109	C	0.828343	-0.553117	0.579033
C110	C	0.828331	-0.456985	0.675157
H111	H	0.616573	-0.636236	-0.255523
Br112	Br	0.554183	-1.391690	-0.525095
Br113	Br	0.185324	-1.618301	-0.474022
Br114	Br	0.938104	-0.306962	0.762163
Br115	Br	0.351079	-1.391723	-0.138396
Br116	Br	0.203923	-1.731660	-0.726131
Br117	Br	1.267168	-0.278423	0.726815
H118	H	0.384137	-1.592172	0.107283
H119	H	0.860739	-1.095393	-0.619024
H120	H	0.657337	-0.417916	0.480567
Br121	Br	0.077999	-1.239915	-0.220401
H122	H	0.846065	-0.441287	0.151271
H123	H	1.228936	-0.330616	0.000164
Br124	Br	0.162837	-1.008220	0.195342
Br125	Br	0.388353	-1.618350	-0.751663
Br126	Br	0.219397	-1.240360	-0.221699
Br127	Br	1.082652	-0.391790	-0.138612
H128	H	1.243311	-0.417786	0.107029
Br129	Br	0.846312	-1.160450	-0.479577
Br130	Br	0.782241	-0.703130	0.579088
H131	H	1.115709	-0.592204	0.107103
H132	H	1.087022	-0.417810	0.694283
H133	H	0.892030	-0.516978	0.570302
Br134	Br	0.916885	-0.618377	-0.138537
Br135	Br	0.966940	-0.854345	-0.332800
H136	H	0.511724	-1.417743	0.107252
Br137	Br	0.254607	-0.761273	0.028252
Br138	Br	0.960044	-0.849545	-0.519764
Br139	Br	0.299677	-1.020871	0.187528
H140	H	0.795515	-0.493116	0.726085
H141	H	1.115676	-0.592243	0.306220
Br142	Br	0.591947	-1.004994	-0.612953
Br143	Br	0.879154	-0.195508	0.196570
H144	H	1.243290	-0.417848	0.480589
Br145	Br	0.203971	-1.731647	0.000483
Br146	Br	0.916908	-0.618318	0.525779
Br147	Br	0.351121	-1.391673	-0.247477
H148	H	0.610328	-0.795424	-0.261237
Br149	Br	0.185295	-1.618374	-0.138341
H150	H	0.548323	-0.792132	-0.162317
H151	H	0.544206	-0.647094	-0.170764
Br152	Br	0.220404	-1.239772	-0.012789
H153	H	0.105349	-1.203130	-0.035788
Br154	Br	0.161466	-1.018976	-0.202611
Br155	Br	0.633951	-0.618454	0.248112
H156	H	0.302157	-0.983435	-0.141019
Br157	Br	0.395283	-0.759908	0.030214
H158	H	0.357736	-0.831168	0.180061
H159	H	0.625034	-1.004989	-0.412419
Br160	Br	0.256566	-0.757632	0.211380
