data_functionalizedCrystal
_audit_creation_method	'MofGen! by Chris Wilmer'
_symmetry_space_group_name_H-M	'P1'
_symmetry_Int_Tables_number	1
_symmetry_cell_setting	triclinic
loop_
_symmetry_equiv_pos_as_xyz
  x,y,z
_cell_length_a	14.044220
_cell_length_b	10.654550
_cell_length_c	9.730223
_cell_angle_alpha	90.003749
_cell_angle_beta	89.997406
_cell_angle_gamma	91.163110
loop_
_atom_site_label
_atom_site_type_symbol
_atom_site_fract_x
_atom_site_fract_y
_atom_site_fract_z
O1	O	0.133227	-1.681222	-0.114408
O2	O	0.145921	-1.317019	-0.114387
O3	O	0.001554	-1.493654	-0.114384
O4	O	0.277595	-1.504587	-0.114411
O5	O	0.001557	-1.493652	0.114196
O6	O	0.145925	-1.317017	0.114193
O7	O	0.133231	-1.681220	0.114172
Zn8	Zn	0.139578	-1.499118	0.150474
Zn9	Zn	0.139574	-1.499121	-0.150689
O10	O	0.277598	-1.504585	0.114169
C11	C	-0.033790	-1.488867	-0.000093
C12	C	-0.139110	-1.474592	-0.000090
C13	C	0.144991	-1.270127	-0.000094
C14	C	0.142202	-1.130403	-0.000085
C15	C	0.134161	-1.728113	-0.000124
C16	C	0.136950	-1.867836	-0.000142
C17	C	-0.331943	-1.448493	-0.000108
C18	C	-0.388911	-1.549741	-0.000119
C19	C	-0.496210	-1.535219	-0.000129
C20	C	-0.224634	-1.463013	-0.000098
C21	C	0.312942	-1.509372	-0.000125
C22	C	0.418262	-1.523648	-0.000137
N23	N	0.139581	-1.499126	0.356011
C24	C	0.227203	-1.059459	-0.000114
C25	C	0.224578	-0.928175	-0.000137
C26	C	0.051942	-0.938790	-0.000109
C27	C	0.054569	-1.070072	-0.000076
C28	C	0.314837	-1.119790	-0.000123
C29	C	0.399845	-1.048846	-0.000153
C30	C	0.397219	-0.917561	-0.000177
C31	C	0.309585	-0.857221	-0.000170
N32	N	0.139563	-1.499123	-0.356226
C33	C	0.075677	-1.577364	0.427938
C34	C	0.075666	-1.577359	0.571821
C35	C	0.203470	-1.420876	0.571837
C36	C	0.203477	-1.420875	0.427956
C37	C	0.011782	-1.655615	0.355993
C38	C	-0.052127	-1.733861	0.427920
C39	C	-0.052138	-1.733856	0.571803
C40	C	0.011759	-1.655606	0.643759
H41	H	-0.357098	-1.647328	-0.000217
H42	H	-0.363754	-1.350913	-0.000106
H43	H	0.307454	-0.750320	-0.000168
C44	C	0.222844	-1.252155	0.733673
C45	C	0.273707	-1.334879	0.650932
H46	H	0.266210	-1.199072	0.782507
H47	H	0.183055	-1.202528	0.677547
H48	H	0.184785	-1.298768	0.797094
H49	H	0.311761	-1.288266	0.587504
H50	H	0.313513	-1.384511	0.707063
C51	C	0.329817	-1.266213	0.442412
C52	C	0.273726	-1.334883	0.348883
H53	H	0.373189	-1.213129	0.393592
H54	H	0.290013	-1.216586	0.498529
H55	H	0.364302	-1.322357	0.498532
H56	H	0.239235	-1.278738	0.292770
H57	H	0.313535	-1.384513	0.292742
H58	H	0.316985	-1.226688	-0.000110
H59	H	0.471193	-1.097984	-0.000147
H60	H	0.011787	-1.655629	0.238836
H61	H	-0.019405	-0.889650	-0.000126
C62	C	0.543544	-0.868122	-0.117720
C63	C	0.490656	-0.839576	-0.000208
H64	H	0.601227	-0.819972	-0.117746
H65	H	0.557645	-0.954934	-0.117693
H66	H	0.507631	-0.848799	-0.197417
H67	H	0.526566	-0.858908	0.079489
H68	H	0.476557	-0.752745	-0.000223
C69	C	-0.116338	-1.067388	-0.000083
C70	C	-0.038865	-1.148063	-0.000062
H71	H	-0.174020	-1.115540	-0.000082
H72	H	-0.113777	-1.015947	0.079612
H73	H	-0.113765	-1.015978	-0.079811
H74	H	-0.041434	-1.199467	0.079671
H75	H	-0.041427	-1.199526	-0.079765
C76	C	-0.215840	-1.789289	0.616077
C77	C	-0.122387	-1.819857	0.650866
H78	H	-0.259207	-1.842394	0.664880
H79	H	-0.226732	-1.704274	0.639670
H80	H	-0.224964	-1.800490	0.520087
H81	H	-0.113261	-1.808648	0.746855
H82	H	-0.111492	-1.904893	0.627283
C83	C	-0.108913	-1.803275	0.207354
C84	C	-0.122400	-1.819811	0.348833
H85	H	-0.152307	-1.856328	0.158534
H86	H	-0.119767	-1.718242	0.183814
H87	H	-0.045519	-1.824063	0.183762
H88	H	-0.185793	-1.799015	0.372426
H89	H	-0.111554	-1.904864	0.372382
C90	C	-0.077816	-1.620234	0.849859
C91	C	0.011742	-1.655592	0.801918
H92	H	-0.077825	-1.620235	0.947498
H93	H	-0.091349	-1.538467	0.817310
H94	H	-0.125010	-1.678037	0.817297
H95	H	0.058935	-1.597783	0.834472
H96	H	0.025285	-1.737371	0.834481
