data_functionalizedCrystal
_audit_creation_method	'MofGen! by Chris Wilmer'
_symmetry_space_group_name_H-M	'P1'
_symmetry_Int_Tables_number	1
_symmetry_cell_setting	triclinic
loop_
_symmetry_equiv_pos_as_xyz
  x,y,z
_cell_length_a	11.169416
_cell_length_b	12.759401
_cell_length_c	12.759393
_cell_angle_alpha	90.021157
_cell_angle_beta	89.972430
_cell_angle_gamma	89.994057
loop_
_atom_site_label
_atom_site_type_symbol
_atom_site_fract_x
_atom_site_fract_y
_atom_site_fract_z
Zn1	Zn	-0.477890	-1.606298	-0.594048
Zn2	Zn	-0.678619	-1.606203	-0.418377
Zn3	Zn	-0.477933	-1.430597	-0.418382
Zn4	Zn	-0.678514	-1.430602	-0.594013
O5	O	-0.578239	-1.518425	-0.506205
O6	O	-0.504543	-1.753307	-0.570757
O7	O	-0.652059	-1.582866	-0.271356
O8	O	-0.309978	-1.453942	-0.441701
O9	O	-0.652017	-1.753236	-0.441692
O10	O	-0.309946	-1.583029	-0.570762
O11	O	-0.504616	-1.453849	-0.271360
O12	O	-0.504515	-1.283577	-0.441668
O13	O	-0.651839	-1.453951	-0.741039
O14	O	-0.651881	-1.283580	-0.570703
O15	O	-0.504441	-1.583034	-0.741064
O16	O	-0.846555	-1.582871	-0.441659
O17	O	-0.846478	-1.453858	-0.570698
C18	C	-0.578192	-1.245458	-0.506183
C19	C	-0.578201	-1.128681	-0.506199
C20	C	-0.501566	-0.964119	-0.573510
C21	C	-0.501550	-1.073843	-0.573505
C22	C	-0.654881	-1.073789	-0.438899
C23	C	-0.654902	-0.964067	-0.438910
C24	C	-0.890064	-1.518383	-0.506197
C25	C	-1.023464	-1.518462	-0.506229
C26	C	-0.265197	-1.518495	-0.506236
C27	C	-0.131797	-1.518525	-0.506249
C28	C	-0.578124	-1.518504	-0.780238
C29	C	-0.578075	-1.518537	-0.897015
C30	C	-0.578269	-0.792458	-0.506222
C31	C	-0.578238	-0.909235	-0.506213
C32	C	-0.501312	-1.585756	-0.951892
C33	C	-0.501261	-1.585773	-1.061616
C34	C	-0.654744	-1.451351	-1.061577
C35	C	-0.654789	-1.451329	-0.951855
C36	C	-0.578267	-1.518407	-0.233237
C37	C	-0.577978	-1.518577	-0.116461
H38	H	-0.717297	-1.118447	-0.384101
H39	H	-0.439117	-1.118525	-0.628306
C40	C	-0.739136	-1.377441	-1.121912
C41	C	-0.833335	-1.422975	-1.197336
C42	C	-0.917733	-1.349069	-1.257672
C43	C	-0.907931	-1.229629	-1.242585
C44	C	-0.813728	-1.184089	-1.167158
C45	C	-0.729331	-1.257995	-1.106821
H46	H	-0.840594	-1.511396	-1.208507
H47	H	-0.987468	-1.382781	-1.313508
H48	H	-0.970408	-1.174920	-1.287249
H49	H	-0.806469	-1.095667	-1.155986
H50	H	-0.659595	-1.224283	-1.050985
C51	C	-0.417247	-0.903801	-0.647549
C52	C	-0.427207	-0.918941	-0.766969
C53	C	-0.342889	-0.858626	-0.841012
C54	C	-0.248611	-0.783171	-0.795636
C55	C	-0.238647	-0.768027	-0.676209
C56	C	-0.322965	-0.828343	-0.602166
H57	H	-0.497001	-0.974801	-0.800565
H58	H	-0.350266	-0.869837	-0.929420
H59	H	-0.186194	-0.738522	-0.850447
H60	H	-0.168853	-0.712168	-0.642613
H61	H	-0.315589	-0.817132	-0.513758
C62	C	-0.739248	-0.903687	-0.364878
C63	C	-0.729291	-0.918708	-0.245454
C64	C	-0.813636	-0.858328	-0.171430
C65	C	-0.907938	-0.782927	-0.216831
C66	C	-0.917899	-0.767902	-0.336261
C67	C	-0.833553	-0.828282	-0.410285
H68	H	-0.659480	-0.974528	-0.211840
H69	H	-0.806262	-0.869451	-0.083020
H70	H	-0.970375	-0.738230	-0.162034
H71	H	-0.987710	-0.712082	-0.369875
H72	H	-0.840927	-0.817159	-0.498696
C73	C	-0.739234	-1.377380	-0.891486
C74	C	-0.729405	-1.257951	-0.906559
C75	C	-0.813842	-1.184001	-0.846193
C76	C	-0.908107	-1.229480	-0.770753
C77	C	-0.917939	-1.348916	-0.755677
C78	C	-0.833502	-1.422866	-0.816044
H79	H	-0.659622	-1.224278	-0.962407
H80	H	-0.806563	-1.095586	-0.857354
H81	H	-0.970612	-1.174738	-0.726066
H82	H	-0.987723	-1.382588	-0.699829
H83	H	-0.840781	-1.511280	-0.804883
H84	H	-0.438751	-1.640508	-1.106292
H85	H	-0.438844	-1.640478	-0.907245
