data_functionalizedCrystal
_audit_creation_method	'MofGen! by Chris Wilmer'
_symmetry_space_group_name_H-M	'P1'
_symmetry_Int_Tables_number	1
_symmetry_cell_setting	triclinic
loop_
_symmetry_equiv_pos_as_xyz
  x,y,z
_cell_length_a	8.634740
_cell_length_b	8.634740
_cell_length_c	9.730223
_cell_angle_alpha	89.997377
_cell_angle_beta	90.001685
_cell_angle_gamma	79.429693
loop_
_atom_site_label
_atom_site_type_symbol
_atom_site_fract_x
_atom_site_fract_y
_atom_site_fract_z
O1	O	-0.514106	2.122442	-0.114271
O2	O	-0.470996	1.667085	-0.114275
O3	O	-0.264873	1.873208	-0.114272
O4	O	-0.720230	1.916318	-0.114274
O5	O	-0.264864	1.873192	0.114308
O6	O	-0.470988	1.667068	0.114305
O7	O	-0.514098	2.122425	0.114309
Zn8	Zn	-0.492541	1.894744	0.150599
Zn9	Zn	-0.492553	1.894766	-0.150565
O10	O	-0.720221	1.916302	0.114306
C11	C	-0.461226	1.608176	0.000014
C12	C	-0.432108	1.432666	0.000012
C13	C	-0.779127	1.926076	0.000015
C14	C	-0.954636	1.955195	0.000014
C15	C	-0.205967	1.863434	0.000015
C16	C	-0.030458	1.834316	0.000007
C17	C	-0.523868	2.181335	0.000017
C18	C	-0.552987	2.356844	0.000010
N19	N	-0.492534	1.894741	0.356135
N20	N	-0.492549	1.894780	-0.356101
C21	C	-0.401313	1.986055	0.428063
C22	C	-0.401316	1.986071	0.571946
C23	C	-0.583774	1.803455	0.571961
C24	C	-0.583761	1.803432	0.428081
H25	H	-0.961102	1.708549	0.000004
H26	H	-1.024001	2.080970	-0.000039
H27	H	-0.678761	1.426209	0.000018
C28	C	-0.300976	2.086523	0.651068
C29	C	-0.200662	2.186984	0.571927
C30	C	-0.100316	2.287438	0.651049
C31	C	-0.100285	2.287432	0.809312
C32	C	-0.200604	2.186968	0.888461
C33	C	-0.300949	2.086513	0.809339
H34	H	-0.200681	2.186991	0.454764
H35	H	-0.026054	2.361808	0.592457
H36	H	-0.026003	2.361795	0.867883
H37	H	-0.200584	2.186960	1.005625
H38	H	-0.375212	2.012143	0.867932
H39	H	-0.658052	1.729116	0.630553
C40	C	-0.300952	2.086479	0.348922
C41	C	-0.120996	2.057163	0.368723
C42	C	-0.020627	2.157585	0.289587
C43	C	-0.100214	2.287323	0.190651
C44	C	-0.280180	2.316645	0.170845
C45	C	-0.380548	2.216223	0.249981
H46	H	-0.062072	1.961118	0.441965
H47	H	0.112596	2.135879	0.304249
H48	H	-0.025915	2.361662	0.132070
H49	H	-0.339103	2.412690	0.097603
H50	H	-0.513771	2.237930	0.235319
H51	H	-0.306341	1.363310	-0.000023
H52	H	-0.658044	1.729065	0.369513
