data_functionalizedCrystal
_audit_creation_method	'MofGen! by Chris Wilmer'
_symmetry_space_group_name_H-M	'P1'
_symmetry_Int_Tables_number	1
_symmetry_cell_setting	triclinic
loop_
_symmetry_equiv_pos_as_xyz
  x,y,z
_cell_length_a	10.654550
_cell_length_b	11.804365
_cell_length_c	10.654559
_cell_angle_alpha	78.050013
_cell_angle_beta	84.486794
_cell_angle_gamma	101.967841
loop_
_atom_site_label
_atom_site_type_symbol
_atom_site_fract_x
_atom_site_fract_y
_atom_site_fract_z
O1	O	1.693022	0.099120	0.151237
O2	O	1.327539	0.099100	0.168048
O3	O	1.518677	0.099110	-0.023096
O4	O	1.501883	0.099110	0.342381
O5	O	1.468357	-0.098948	0.027174
O6	O	1.277219	-0.098959	0.218318
O7	O	1.642702	-0.098939	0.201507
Cu8	Cu	1.455366	-0.117033	0.214502
Cu9	Cu	1.514875	0.117194	0.155053
O10	O	1.451563	-0.098949	0.392651
C11	C	1.255580	0.000068	0.191950
C12	C	1.116135	0.000061	0.188260
N13	N	1.413519	-0.281776	0.256316
C14	C	1.036657	0.000078	0.300796
C15	C	0.905642	0.000099	0.297315
C16	C	0.933595	0.000090	0.068748
C17	C	1.064606	0.000061	0.072233
C18	C	1.020519	0.000088	0.432756
C19	C	0.889503	0.000109	0.429274
C20	C	1.657219	-0.655712	0.012797
C21	C	1.688874	-0.531048	-0.018840
C22	C	1.620038	-0.468724	0.049946
C23	C	1.519542	-0.531075	0.150375
C24	C	1.487890	-0.655751	0.182021
C25	C	1.450709	-0.468763	0.219170
C26	C	1.350212	-0.531115	0.319599
C27	C	1.318565	-0.655778	0.351240
C28	C	1.387402	-0.718102	0.282454
C29	C	1.482360	-0.344088	0.187524
C30	C	1.313031	-0.344127	0.356748
C31	C	1.281376	-0.468791	0.388385
C32	C	1.714661	0.000096	0.177605
C33	C	1.854108	0.000111	0.181293
C34	C	1.492282	0.000083	-0.044760
C35	C	1.488588	0.000091	-0.184204
N36	N	1.556731	0.281937	0.113230
C37	C	1.372575	0.000087	-0.235743
C38	C	1.369107	0.000078	-0.366763
C39	C	1.597677	0.000081	-0.394696
C40	C	1.601141	0.000081	-0.263676
C41	C	1.240613	0.000091	-0.219619
C42	C	1.237145	0.000082	-0.350638
C43	C	1.477959	0.000080	0.414314
C44	C	1.481655	0.000081	0.553756
H45	H	1.129309	0.000030	-0.019401
H46	H	1.645816	-0.367217	0.024182
H47	H	1.222473	0.085608	-0.195682
C48	C	1.144993	-0.111879	-0.134787
C49	C	1.064410	-0.202152	-0.198776
C50	C	0.968795	-0.314120	-0.113945
C51	C	0.953762	-0.335814	0.034873
C52	C	1.034347	-0.245538	0.098869
C53	C	1.129962	-0.133570	0.014039
H54	H	1.075537	-0.186096	-0.308947
H55	H	0.909141	-0.380948	-0.161320
H56	H	0.882981	-0.418699	0.097670
H57	H	1.023220	-0.261594	0.209041
H58	H	1.189616	-0.066742	0.061414
C59	C	1.195893	0.112052	-0.418749
C60	C	1.166149	0.202332	-0.341284
C61	C	1.124902	0.314298	-0.409394
C62	C	1.113398	0.335985	-0.554969
C63	C	1.143143	0.245703	-0.632442
C64	C	1.184390	0.133737	-0.564332
H65	H	1.174664	0.186280	-0.233513
H66	H	1.102883	0.381131	-0.352042
H67	H	1.082864	0.418869	-0.605388
H68	H	1.134628	0.261755	-0.740213
H69	H	1.206409	0.066904	-0.621684
H70	H	0.891629	0.000108	-0.025721
H71	H	1.770698	-0.480286	-0.100607
H72	H	1.077901	0.085598	0.453071
C73	C	1.031710	-0.111890	0.530894
C74	C	1.166250	-0.133615	0.553437
C75	C	1.177444	-0.245590	0.651571
C76	C	1.054097	-0.335840	0.727162
C77	C	0.919547	-0.314117	0.704621
C78	C	0.908354	-0.202142	0.606487
H79	H	1.257568	-0.066805	0.497479
H80	H	1.277047	-0.261670	0.668257
H81	H	1.062383	-0.418731	0.799806
H82	H	0.828230	-0.380927	0.760579
H83	H	0.808750	-0.186062	0.589801
C84	C	0.798449	-0.115400	0.512471
C85	C	0.700331	-0.110131	0.625848
C86	C	0.609278	-0.225637	0.709040
C87	C	0.616343	-0.346413	0.678855
C88	C	0.714465	-0.351686	0.565472
C89	C	0.805518	-0.236180	0.482280
H90	H	0.695098	-0.020721	0.648197
H91	H	0.536642	-0.221732	0.792973
H92	H	0.548941	-0.431917	0.740439
H93	H	0.719699	-0.441096	0.543123
H94	H	0.878155	-0.240085	0.398347
C95	C	0.861568	0.112097	0.467999
C96	C	0.971421	0.202360	0.502726
C97	C	0.943487	0.314346	0.541442
C98	C	0.805700	0.336068	0.545430
C99	C	0.695838	0.245802	0.510701
C100	C	0.723772	0.133816	0.471985
H101	H	1.073427	0.186282	0.499775
H102	H	1.024815	0.381166	0.567151
H103	H	0.785022	0.418966	0.574090
H104	H	0.593832	0.261880	0.513652
H105	H	0.642444	0.066996	0.446277
H106	H	1.689313	0.000072	-0.459417
H107	H	1.564185	-0.293332	0.105755
H108	H	1.173368	-0.085429	-0.364561
H109	H	1.256980	-0.293384	0.412763
C110	C	1.732936	-0.724264	-0.062858
C111	C	1.698126	-0.861395	-0.028048
C112	C	1.773853	-0.929947	-0.103709
C113	C	1.884389	-0.861368	-0.214181
C114	C	1.919205	-0.724230	-0.248996
C115	C	1.843478	-0.655678	-0.173335
H116	H	1.616296	-0.912168	0.053734
H117	H	1.748080	-1.031466	-0.077936
H118	H	1.940447	-0.912114	-0.270189
H119	H	2.001035	-0.673457	-0.330778
H120	H	1.869251	-0.554159	-0.199108
H121	H	1.361625	-0.819614	0.308209
H122	H	1.236745	-0.706545	0.433025
H123	H	1.199550	-0.519573	0.470157
H124	H	1.695606	0.000068	-0.221715
