data_functionalizedCrystal
_audit_creation_method	'MofGen! by Chris Wilmer'
_symmetry_space_group_name_H-M	'P1'
_symmetry_Int_Tables_number	1
_symmetry_cell_setting	triclinic
loop_
_symmetry_equiv_pos_as_xyz
  x,y,z
_cell_length_a	10.489716
_cell_length_b	19.188930
_cell_length_c	8.965430
_cell_angle_alpha	90.005777
_cell_angle_beta	89.996741
_cell_angle_gamma	83.836959
loop_
_atom_site_label
_atom_site_type_symbol
_atom_site_fract_x
_atom_site_fract_y
_atom_site_fract_z
O1	O	1.691858	0.098418	0.124046
O2	O	2.191858	0.598418	0.624046
O3	O	1.320451	0.107681	0.124054
O4	O	1.820451	0.607681	0.624054
O5	O	1.516873	0.001465	0.124021
O6	O	2.016873	0.501465	0.624021
O7	O	1.495437	0.204634	0.124079
O8	O	1.995437	0.704634	0.624079
O9	O	1.516882	0.001468	-0.124058
O10	O	2.016882	0.501468	0.375942
O11	O	1.320460	0.107685	-0.124025
O12	O	1.820460	0.607685	0.375975
O13	O	1.691867	0.098421	-0.124033
O14	O	2.191867	0.598421	0.375967
Cu15	Cu	1.506165	0.103053	-0.146681
Cu16	Cu	2.006165	0.603053	0.353319
Cu17	Cu	1.506154	0.103049	0.146701
Cu18	Cu	2.006154	0.603049	0.646701
O19	O	1.495446	0.204637	-0.124000
O20	O	1.995446	0.704637	0.376000
C21	C	1.272939	0.106987	0.000015
C22	C	1.772939	0.606987	0.500015
C23	C	1.131355	0.104905	0.000016
C24	C	1.631355	0.604905	0.500016
C25	C	1.032224	0.170040	0.000039
C26	C	1.532224	0.670040	0.500039
C27	C	0.955653	0.135623	-0.122294
C28	C	1.455653	0.635623	0.377706
C29	C	0.955651	0.135604	0.122292
C30	C	1.455651	0.635604	0.622292
C31	C	1.056648	0.070515	-0.122417
C32	C	1.556648	0.570515	0.377583
C33	C	1.056651	0.070506	0.122279
C34	C	1.556651	0.570506	0.622279
C35	C	0.980129	0.036041	-0.000084
C36	C	1.480129	0.536041	0.499916
C37	C	1.516183	-0.024549	-0.000023
C38	C	2.016183	0.475451	0.499977
C39	C	1.514099	-0.102067	-0.000036
C40	C	2.014099	0.397933	0.499964
C41	C	1.629353	-0.146225	-0.000045
C42	C	2.129353	0.353775	0.499955
C43	C	1.627395	-0.219061	-0.000021
C44	C	2.127395	0.280939	0.499979
C45	C	1.510177	-0.247738	-0.000018
C46	C	2.010177	0.252262	0.499982
C47	C	1.394908	-0.203571	-0.000000
C48	C	1.894908	0.296429	0.500000
C49	C	1.396869	-0.130735	-0.000009
C50	C	1.896869	0.369265	0.499991
N51	N	1.420581	-0.356337	-0.084442
N52	N	1.920581	0.143663	0.415558
N53	N	1.418726	-0.425528	-0.084437
N54	N	1.918726	0.074472	0.415563
C55	C	1.504262	-0.467186	0.000012
C56	C	2.004262	0.032814	0.500012
N57	N	1.591742	-0.437039	0.084437
N58	N	2.091742	0.062961	0.584437
N59	N	1.593601	-0.367842	0.084425
N60	N	2.093601	0.132158	0.584425
C61	C	1.508038	-0.326714	-0.000007
C62	C	2.008038	0.173286	0.499993
C63	C	1.617401	-0.590321	0.000031
C64	C	2.117401	-0.090321	0.500031
C65	C	1.615438	-0.663159	0.000064
C66	C	2.115438	-0.163159	0.500064
C67	C	1.382948	-0.647667	0.000070
C68	C	1.882948	-0.147667	0.500070
C69	C	1.384914	-0.574831	0.000052
C70	C	1.884914	-0.074831	0.500052
C71	C	1.502144	-0.546163	0.000025
C72	C	2.002144	-0.046163	0.500025
C73	C	1.739379	0.099115	0.000010
C74	C	2.239379	0.599115	0.500010
C75	C	1.880964	0.101198	0.000018
C76	C	2.380964	0.601198	0.500018
C77	C	1.496135	0.230651	0.000047
C78	C	1.996135	0.730651	0.500047
C79	C	1.498219	0.308170	0.000070
C80	C	1.998219	0.808170	0.500070
N81	N	1.506181	0.103056	-0.353030
N82	N	2.006181	0.603056	0.146970
C83	C	1.597049	0.053937	-0.450311
C84	C	2.097049	0.553937	0.049689
C85	C	1.481868	0.039803	-0.549718
C86	C	1.981868	0.539803	-0.049718
C87	C	1.621318	0.117145	-0.549750
C88	C	2.121318	0.617145	-0.049750
C89	C	1.390943	0.088889	-0.450248
C90	C	1.890943	0.588889	0.049752
C91	C	1.530468	0.166259	-0.450271
C92	C	2.030468	0.666259	0.049729
C93	C	1.415204	0.152151	-0.549633
C94	C	1.915204	0.652151	-0.049633
N95	N	1.506147	0.103041	0.353051
N96	N	2.006147	0.603041	0.853051
H97	H	0.911548	0.163112	0.225699
H98	H	1.411548	0.663112	0.725699
F99	F	1.262244	-0.527833	0.000056
F100	F	1.762244	-0.027833	0.500056
H101	H	1.100582	0.043036	-0.225942
H102	H	1.600582	0.543036	0.274058
F103	F	1.274195	-0.083738	0.000002
F104	F	1.774195	0.416262	0.500002
H105	H	1.709296	-0.699112	0.000065
H106	H	2.209296	-0.199112	0.500065
H107	H	0.911559	0.163120	-0.225699
H108	H	1.411559	0.663120	0.274301
F109	F	1.062825	0.244093	-0.000090
F110	F	1.562825	0.744093	0.499910
F111	F	1.258195	-0.678181	0.000081
F112	F	1.758195	-0.178181	0.500081
H113	H	1.673819	0.012378	-0.406699
H114	H	2.173819	0.512378	0.093301
F115	F	0.949844	-0.038067	-0.000197
F116	F	1.449844	0.461933	0.499803
F117	F	1.114319	0.034598	0.257443
F118	F	1.614319	0.534598	0.757443
F119	F	1.454978	-0.030068	-0.606804
F120	F	1.954978	0.469932	-0.106804
F121	F	1.742165	-0.559808	-0.000005
F122	F	2.242165	-0.059808	0.499995
F123	F	1.754120	-0.115718	-0.000042
F124	F	2.254120	0.384282	0.499958
H125	H	1.721252	-0.255021	-0.000023
H126	H	2.221252	0.244979	0.499977
F127	F	1.557398	0.236108	-0.393124
F128	F	2.057398	0.736108	0.106876
F129	F	1.270157	-0.234091	0.000013
F130	F	1.770157	0.265909	0.500013
H131	H	1.718701	0.129068	-0.593457
H132	H	2.218701	0.629068	-0.093457
H133	H	1.293537	0.076906	-0.406725
H134	H	1.793537	0.576906	0.093275
F135	F	1.314639	0.206440	-0.606279
F136	F	1.814639	0.706440	-0.106279
