data_functionalizedCrystal
_audit_creation_method	'MofGen! by Chris Wilmer'
_symmetry_space_group_name_H-M	'P1'
_symmetry_Int_Tables_number	1
_symmetry_cell_setting	triclinic
loop_
_symmetry_equiv_pos_as_xyz
  x,y,z
_cell_length_a	12.594517
_cell_length_b	12.594516
_cell_length_c	12.594509
_cell_angle_alpha	89.973801
_cell_angle_beta	89.974182
_cell_angle_gamma	90.010991
loop_
_atom_site_label
_atom_site_type_symbol
_atom_site_fract_x
_atom_site_fract_y
_atom_site_fract_z
Zn1	Zn	-1.627267	0.423854	0.602003
Zn2	Zn	-1.627158	0.601864	0.424030
Zn3	Zn	-1.449271	0.423884	0.424017
Zn4	Zn	-1.449253	0.601775	0.601946
O5	O	-1.538237	0.512844	0.512999
O6	O	-1.776198	0.447492	0.578423
O7	O	-1.603523	0.578305	0.275083
O8	O	-1.472936	0.274934	0.447646
O9	O	-1.776118	0.578275	0.447668
O10	O	-1.603709	0.274912	0.578411
O11	O	-1.472830	0.447544	0.275073
O12	O	-1.300323	0.447457	0.447591
O13	O	-1.472905	0.578123	0.750900
O14	O	-1.300310	0.578153	0.578315
O15	O	-1.603691	0.447405	0.750941
O16	O	-1.603505	0.750798	0.447613
O17	O	-1.472799	0.750732	0.578327
C18	C	-1.261696	0.512799	0.512946
C19	C	-1.143391	0.512806	0.512949
C20	C	-1.538167	0.789385	0.512989
C21	C	-1.538235	0.907691	0.513020
C22	C	-1.074114	0.441618	0.441978
C23	C	-1.003303	0.538700	0.415796
C24	C	-1.003403	0.415753	0.539132
C25	C	-1.074138	0.609940	0.486716
C26	C	-1.074244	0.486927	0.610097
C27	C	-1.003465	0.584077	0.583952
C28	C	-1.538308	0.512751	0.790620
C29	C	-1.538339	0.512711	0.908926
C30	C	-0.815858	0.512869	0.513033
C31	C	-0.934163	0.512825	0.512998
C32	C	-1.538336	0.235223	0.513033
C33	C	-1.538378	0.116918	0.513047
C34	C	-1.467137	0.976947	0.584065
C35	C	-1.441204	1.047810	0.486940
C36	C	-1.564265	1.047626	0.610162
C37	C	-1.512250	0.976995	0.415843
C38	C	-1.635357	0.976806	0.539130
C39	C	-1.609461	1.047637	0.441938
C40	C	-1.538227	0.512860	0.236458
C41	C	-1.538403	0.512600	0.118153
C42	C	-1.467227	0.583768	0.978157
C43	C	-1.564347	0.609783	1.048956
C44	C	-1.441294	0.486632	1.048926
C45	C	-1.635510	0.538777	0.978167
C46	C	-1.512392	0.415581	0.978131
C47	C	-1.609579	0.441559	1.048898
H48	H	-1.105135	0.381482	0.381894
C49	C	-1.331892	0.457341	1.090580
C50	C	-1.333616	0.456762	1.201736
C51	C	-1.232850	0.429807	1.240141
H52	H	-1.312848	0.388857	1.065403
H53	H	-1.281411	0.507952	1.066420
H54	H	-1.384081	0.406154	1.225886
H55	H	-1.352641	0.525237	1.226941
H56	H	-1.182369	0.480418	1.215981
H57	H	-1.213815	0.361324	1.214957
H58	H	-1.234005	0.429420	1.315563
H59	H	-1.105080	0.692048	0.464499
C60	C	-1.387242	0.664179	0.936789
C61	C	-1.414945	0.765673	0.972658
C62	C	-1.341302	0.839777	0.934560
H63	H	-1.318415	0.646511	0.962033
H64	H	-1.387338	0.663280	0.861361
H65	H	-1.414839	0.766570	1.048071
H66	H	-1.483761	0.783375	0.947417
H67	H	-1.341398	0.838878	0.859132
H68	H	-1.272479	0.822098	0.959807
H69	H	-1.360094	0.908650	0.958884
H70	H	-0.972276	0.333679	0.561222
C71	C	-1.115693	0.457830	0.719675
C72	C	-1.078325	0.531469	0.794060
C73	C	-1.116480	0.504678	0.895014
H74	H	-1.191107	0.458699	0.719154
H75	H	-1.091490	0.388834	0.738228
H76	H	-1.102534	0.600447	0.775512
H77	H	-1.002916	0.530610	0.794614
H78	H	-1.092276	0.435682	0.913567
H79	H	-1.191892	0.505548	0.894481
H80	H	-1.091123	0.554632	0.945497
C81	C	-0.962408	0.664615	0.663866
C82	C	-0.998421	0.766028	0.635986
C83	C	-0.960607	0.840250	0.709563
H84	H	-0.987749	0.646955	0.732693
H85	H	-0.886978	0.663842	0.663847
H86	H	-1.073836	0.766798	0.636016
H87	H	-0.973084	0.783721	0.567171
H88	H	-0.885177	0.839476	0.709544
H89	H	-0.985950	0.822580	0.778386
H90	H	-0.985028	0.909068	0.690651
H91	H	-1.669647	1.078480	0.381800
H92	H	-0.972144	0.560604	0.333660
H93	H	-1.406905	0.945907	0.644059
H94	H	-1.490197	0.946098	0.333680
C95	C	-1.331696	1.089342	0.457701
C96	C	-1.257503	1.053555	0.532332
C97	C	-1.156616	1.091799	0.505446
H98	H	-1.312622	1.064143	0.389226
H99	H	-1.332660	1.164769	0.457334
H100	H	-1.256537	0.978143	0.532688
H101	H	-1.276542	1.078751	0.600813
H102	H	-1.157579	1.167227	0.505079
H103	H	-1.137552	1.066598	0.436970
H104	H	-1.106265	1.067532	0.556084
C105	C	-1.744818	0.935390	0.568681
C106	C	-1.812807	1.021172	0.588043
C107	C	-1.913646	0.983059	0.615295
H108	H	-1.772200	0.893927	0.511969
H109	H	-1.739719	0.892820	0.630764
H110	H	-1.817910	1.063723	0.525968
H111	H	-1.785459	1.062643	0.644759
H112	H	-1.908547	0.940490	0.677378
H113	H	-1.941019	0.941596	0.558580
H114	H	-1.959787	1.041255	0.628445
C115	C	-1.593406	1.088851	0.719778
C116	C	-1.518645	1.053009	0.793814
C117	C	-1.545454	1.090947	0.894806
H118	H	-1.593866	1.164266	0.718990
H119	H	-1.661845	1.063463	0.738861
H120	H	-1.450224	1.078403	0.774736
H121	H	-1.518175	0.977598	0.794635
H122	H	-1.613893	1.065559	0.913889
H123	H	-1.545914	1.166362	0.894007
H124	H	-1.494739	1.066627	0.945053
H125	H	-1.717631	0.560881	0.947215
C126	C	-1.690058	0.361511	1.090006
C127	C	-1.791487	0.389249	1.053980
C128	C	-1.865653	0.315549	1.091842
H129	H	-1.672333	0.292719	1.064707
H130	H	-1.689301	0.361509	1.165437
H131	H	-1.792240	0.389241	0.978566
H132	H	-1.809244	0.458030	1.079277
H133	H	-1.864897	0.315546	1.167272
H134	H	-1.847919	0.246760	1.066540
H135	H	-1.934482	0.334364	1.067412
H136	H	-1.586329	0.691876	1.080065
H137	H	-1.490382	0.333511	0.946998
