data_functionalizedCrystal
_audit_creation_method	'MofGen! by Chris Wilmer'
_symmetry_space_group_name_H-M	'P1'
_symmetry_Int_Tables_number	1
_symmetry_cell_setting	triclinic
loop_
_symmetry_equiv_pos_as_xyz
  x,y,z
_cell_length_a	12.784905
_cell_length_b	10.540510
_cell_length_c	11.295483
_cell_angle_alpha	94.138442
_cell_angle_beta	86.327249
_cell_angle_gamma	78.810315
loop_
_atom_site_label
_atom_site_type_symbol
_atom_site_fract_x
_atom_site_fract_y
_atom_site_fract_z
O1	O	1.417464	-0.001385	-0.099032
O2	O	1.108417	0.052932	-0.099031
O3	O	1.270008	-0.159792	-0.099031
O4	O	1.255873	0.211339	-0.099032
O5	O	1.255815	-0.141135	0.099020
O6	O	1.094224	0.071589	0.099020
O7	O	1.403271	0.017272	0.099019
Cu8	Cu	1.247452	0.046134	0.117103
Cu9	Cu	1.264237	0.024070	-0.117115
O10	O	1.241680	0.229996	0.099019
C11	C	1.061747	0.065793	-0.000005
C12	C	0.943833	0.076304	-0.000005
C13	C	0.745844	-0.137846	-0.000026
C14	C	0.635053	-0.127976	-0.000025
C15	C	0.611458	0.105912	-0.000013
C16	C	0.722249	0.096042	-0.000013
C17	C	0.789438	-0.025841	-0.000018
C18	C	0.900231	-0.035709	-0.000009
C19	C	0.876635	0.198177	-0.000005
C20	C	0.765844	0.208047	-0.000005
C21	C	1.261858	-0.197640	-0.000008
C22	C	1.258707	-0.338208	-0.000015
C23	C	1.370932	-0.569228	0.000438
C24	C	1.374325	-0.423083	-0.000014
C25	C	1.207627	-0.386447	-0.113109
C26	C	1.205091	-0.532908	-0.113198
C27	C	1.186543	-0.511208	0.112023
C28	C	1.191920	-0.365391	0.113512
C29	C	1.449941	0.004411	-0.000009
C30	C	1.567856	-0.006101	-0.000017
C31	C	1.249830	0.267843	-0.000007
C32	C	1.252982	0.408411	-0.000007
N33	N	1.235654	0.061652	0.281839
N34	N	1.276043	0.008541	-0.281851
C35	C	1.360970	-0.103234	0.531129
C36	C	1.352062	-0.091499	0.655792
C37	C	1.208925	0.096850	0.655833
C38	C	1.217833	0.085116	0.531169
C39	C	1.293859	-0.014929	0.468821
C40	C	1.302772	-0.026657	0.344155
C41	C	1.159630	0.161686	0.344198
C42	C	1.150722	0.173421	0.468862
H43	H	0.711125	0.307280	-0.000006
H44	H	1.422881	-0.184687	0.480364
C45	C	1.077220	-0.284418	0.122737
N46	N	0.990824	-0.223431	0.129676
H47	H	1.228990	-0.334117	0.197178
C48	C	0.587102	-0.251190	-0.000025
N49	N	0.550987	-0.344000	-0.000023
H50	H	1.251596	-0.585991	-0.197738
C51	C	0.537533	0.239972	-0.000012
N52	N	0.481851	0.340947	-0.000009
H53	H	1.099681	-0.522764	0.112785
C54	C	0.924598	0.321391	0.000001
N55	N	0.960724	0.414193	0.000008
C56	C	1.125277	0.206863	0.724437
N57	N	1.062266	0.289719	0.776110
H58	H	1.364679	-0.108115	0.293393
H59	H	1.406709	-0.163407	0.706520
H60	H	1.414824	-0.391715	0.081054
H61	H	1.421495	-0.625760	-0.080209
H62	H	1.088820	0.254872	0.519639
C63	C	1.085803	0.258828	0.275650
N64	N	1.030200	0.331995	0.224018
H65	H	0.800550	-0.237087	-0.000021
H66	H	1.410163	-0.609002	0.081544
H67	H	1.426723	-0.407973	-0.081225
H68	H	0.954935	-0.134952	-0.000011
H69	H	1.118982	-0.545904	-0.118321
H70	H	1.122812	-0.329137	-0.117314
H71	H	1.254761	-0.368501	-0.197274
H72	H	1.217141	-0.549767	0.197749
