data_functionalizedCrystal
_audit_creation_method	'MofGen! by Chris Wilmer'
_symmetry_space_group_name_H-M	'P1'
_symmetry_Int_Tables_number	1
_symmetry_cell_setting	triclinic
loop_
_symmetry_equiv_pos_as_xyz
  x,y,z
_cell_length_a	21.395362
_cell_length_b	18.215405
_cell_length_c	21.395356
_cell_angle_alpha	89.973047
_cell_angle_beta	89.964230
_cell_angle_gamma	90.040762
loop_
_atom_site_label
_atom_site_type_symbol
_atom_site_fract_x
_atom_site_fract_y
_atom_site_fract_z
Zn1	Zn	0.957834	-0.292706	-0.354580
Zn2	Zn	1.207834	-0.042706	-0.104580
Zn3	Zn	1.457834	0.207294	0.145420
Zn4	Zn	1.707834	0.457294	0.395420
Zn5	Zn	0.957762	-0.415770	-0.249800
Zn6	Zn	1.207762	-0.165770	0.000200
Zn7	Zn	1.457762	0.084230	0.250200
Zn8	Zn	1.707762	0.334230	0.500200
Zn9	Zn	0.853064	-0.292756	-0.249781
Zn10	Zn	1.103064	-0.042756	0.000219
Zn11	Zn	1.353064	0.207244	0.250219
Zn12	Zn	1.603064	0.457244	0.500219
Zn13	Zn	0.853029	-0.415769	-0.354505
Zn14	Zn	1.103029	-0.165769	-0.104505
Zn15	Zn	1.353029	0.084231	0.145495
Zn16	Zn	1.603029	0.334231	0.395495
O17	O	0.905422	-0.354250	-0.302166
O18	O	1.155422	-0.104250	-0.052166
O19	O	1.405422	0.145750	0.197834
O20	O	1.655422	0.395750	0.447834
O21	O	1.045503	-0.309010	-0.340720
O22	O	1.295503	-0.059010	-0.090720
O23	O	1.545503	0.190990	0.159280
O24	O	1.795503	0.440990	0.409280
O25	O	0.943859	-0.399472	-0.162119
O26	O	1.193859	-0.149472	0.087881
O27	O	1.443859	0.100528	0.337881
O28	O	1.693859	0.350528	0.587881
O29	O	0.867007	-0.189765	-0.263706
O30	O	1.117007	0.060235	-0.013706
O31	O	1.367007	0.310235	0.236294
O32	O	1.617007	0.560235	0.486294
O33	O	1.045450	-0.399424	-0.263738
O34	O	1.295450	-0.149424	-0.013738
O35	O	1.545450	0.100576	0.236262
O36	O	1.795450	0.350576	0.486262
O37	O	0.943981	-0.189728	-0.340702
O38	O	1.193981	0.060272	-0.090702
O39	O	1.443981	0.310272	0.159298
O40	O	1.693981	0.560272	0.409298
O41	O	0.866937	-0.309094	-0.162106
O42	O	1.116937	-0.059094	0.087894
O43	O	1.366937	0.190906	0.337894
O44	O	1.616937	0.440906	0.587894
O45	O	0.765382	-0.309094	-0.263634
O46	O	1.015382	-0.059094	-0.013634
O47	O	1.265382	0.190906	0.236366
O48	O	1.515382	0.440906	0.486366
O49	O	0.866947	-0.399424	-0.442192
O50	O	1.116947	-0.149424	-0.192192
O51	O	1.366947	0.100576	0.057808
O52	O	1.616947	0.350576	0.307808
O53	O	0.765356	-0.399472	-0.340573
O54	O	1.015356	-0.149472	-0.090573
O55	O	1.265356	0.100528	0.159427
O56	O	1.515356	0.350528	0.409427
O57	O	0.943947	-0.309010	-0.442248
O58	O	1.193947	-0.059010	-0.192248
O59	O	1.443947	0.190990	0.057752
O60	O	1.693947	0.440990	0.307752
O61	O	0.943824	-0.518754	-0.263666
O62	O	1.193824	-0.268754	-0.013666
O63	O	1.443824	-0.018754	0.236334
O64	O	1.693824	0.231246	0.486334
O65	O	0.866877	-0.518754	-0.340592
O66	O	1.116877	-0.268754	-0.090592
O67	O	1.366877	-0.018754	0.159408
O68	O	1.616877	0.231246	0.409408
C69	C	0.742635	-0.354289	-0.302094
C70	C	0.992635	-0.104289	-0.052094
C71	C	1.242635	0.145711	0.197906
C72	C	1.492635	0.395711	0.447906
C73	C	0.672994	-0.354323	-0.302077
C74	C	0.922994	-0.104323	-0.052077
C75	C	1.172994	0.145677	0.197923
C76	C	1.422994	0.395677	0.447923
C77	C	0.640283	-0.401446	-0.342080
C78	C	0.890283	-0.151446	-0.092080
C79	C	1.140283	0.098554	0.157920
C80	C	1.390283	0.348554	0.407920
C81	C	0.574848	-0.401428	-0.342108
C82	C	0.824848	-0.151428	-0.092108
C83	C	1.074848	0.098572	0.157892
C84	C	1.324848	0.348572	0.407892
C85	C	0.542125	-0.354295	-0.302122
C86	C	0.792125	-0.104295	-0.052122
C87	C	1.042125	0.145705	0.197878
C88	C	1.292125	0.395705	0.447878
C89	C	0.574843	-0.307164	-0.262117
C90	C	0.824843	-0.057164	-0.012117
C91	C	1.074843	0.192836	0.237883
C92	C	1.324843	0.442836	0.487883
C93	C	0.640277	-0.307178	-0.262094
C94	C	0.890277	-0.057178	-0.012094
C95	C	1.140277	0.192822	0.237906
C96	C	1.390277	0.442822	0.487906
C97	C	0.438408	-0.348375	-0.245717
C98	C	0.688408	-0.098375	0.004283
C99	C	0.938408	0.151625	0.254283
C100	C	1.188408	0.401625	0.504283
C101	C	0.372975	-0.348366	-0.245738
C102	C	0.622975	-0.098366	0.004262
C103	C	0.872975	0.151634	0.254262
C104	C	1.122975	0.401634	0.504262
C105	C	0.340305	-0.354247	-0.302191
C106	C	0.590305	-0.104247	-0.052191
C107	C	0.840305	0.145753	0.197809
C108	C	1.090305	0.395753	0.447809
C109	C	0.373075	-0.360153	-0.358625
C110	C	0.623075	-0.110153	-0.108625
C111	C	0.873075	0.139847	0.141375
C112	C	1.123075	0.389847	0.391375
C113	C	0.438509	-0.360167	-0.358602
C114	C	0.688509	-0.110167	-0.108602
C115	C	0.938509	0.139833	0.141398
C116	C	1.188509	0.389833	0.391398
C117	C	0.471173	-0.354274	-0.302142
C118	C	0.721173	-0.104274	-0.052142
C119	C	0.971173	0.145726	0.197858
C120	C	1.221173	0.395726	0.447858
C121	C	0.236642	-0.401352	-0.342227
C122	C	0.486642	-0.151352	-0.092227
C123	C	0.736642	0.098648	0.157773
C124	C	0.986642	0.348648	0.407773
C125	C	0.171205	-0.401329	-0.342256
C126	C	0.421205	-0.151329	-0.092256
C127	C	0.671205	0.098671	0.157744
C128	C	0.921205	0.348671	0.407744
C129	C	0.171202	-0.307069	-0.262260
C130	C	0.421202	-0.057069	-0.012260
C131	C	0.671202	0.192931	0.237740
C132	C	0.921202	0.442931	0.487740
C133	C	0.236637	-0.307088	-0.262236
C134	C	0.486637	-0.057088	-0.012236
C135	C	0.736637	0.192912	0.237764
C136	C	0.986637	0.442912	0.487764
C137	C	0.269353	-0.354234	-0.302219
C138	C	0.519353	-0.104234	-0.052219
C139	C	0.769353	0.145766	0.197781
C140	C	1.019353	0.395766	0.447781
C141	C	0.905356	-0.545456	-0.302136
C142	C	1.155356	-0.295456	-0.052136
C143	C	1.405356	-0.045456	0.197864
C144	C	1.655356	0.204544	0.447864
C145	C	0.905385	-0.627255	-0.302144
C146	C	1.155385	-0.377255	-0.052144
C147	C	1.405385	-0.127255	0.197856
C148	C	1.655385	0.122745	0.447856
C149	C	0.945546	-0.815425	-0.262163
C150	C	1.195546	-0.565425	-0.012163
C151	C	1.445546	-0.315425	0.237837
C152	C	1.695546	-0.065425	0.487837
C153	C	0.945574	-0.892284	-0.262178
C154	C	1.195574	-0.642284	-0.012178
C155	C	1.445574	-0.392284	0.237822
C156	C	1.695574	-0.142284	0.487822
C157	C	0.865379	-0.892323	-0.342215
C158	C	1.115379	-0.642323	-0.092215
C159	C	1.365379	-0.392323	0.157785
C160	C	1.615379	-0.142323	0.407785
C161	C	0.865355	-0.815466	-0.342203
C162	C	1.115355	-0.565466	-0.092203
C163	C	1.365355	-0.315466	0.157797
C164	C	1.615355	-0.065466	0.407797
C165	C	0.905437	-0.777019	-0.302173
C166	C	1.155437	-0.527019	-0.052173
C167	C	1.405437	-0.277019	0.197827
C168	C	1.655437	-0.027019	0.447827
C169	C	0.905490	-0.930735	-0.302200
C170	C	1.155490	-0.680735	-0.052200
C171	C	1.405490	-0.430735	0.197800
C172	C	1.655490	-0.180735	0.447800
C173	C	0.905520	-1.014068	-0.302217
C174	C	1.155520	-0.764068	-0.052217
C175	C	1.405520	-0.514068	0.197783
C176	C	1.655520	-0.264068	0.447783
C177	C	0.905408	-0.693680	-0.302157
C178	C	1.155408	-0.443680	-0.052157
C179	C	1.405408	-0.193680	0.197843
C180	C	1.655408	0.056320	0.447843
C181	C	1.068846	-0.354212	-0.302240
C182	C	1.318846	-0.104212	-0.052240
C183	C	1.568846	0.145788	0.197760
C184	C	1.818846	0.395788	0.447760
C185	C	1.138487	-0.354195	-0.302271
C186	C	1.388487	-0.104195	-0.052271
C187	C	1.638487	0.145805	0.197729
C188	C	1.888487	0.395805	0.447729
C189	C	0.905451	-0.354211	-0.465590
C190	C	1.155451	-0.104211	-0.215590
C191	C	1.405451	0.145789	0.034410
C192	C	1.655451	0.395789	0.284410
C193	C	0.905463	-0.354195	-0.535231
C194	C	1.155463	-0.104195	-0.285231
C195	C	1.405463	0.145805	-0.035231
C196	C	1.655463	0.395805	0.214769
C197	C	0.905506	-0.162297	-0.302210
C198	C	1.155506	0.087703	-0.052210
C199	C	1.405506	0.337703	0.197790
C200	C	1.655506	0.587703	0.447790
C201	C	0.905542	-0.080498	-0.302229
C202	C	1.155542	0.169502	-0.052229
C203	C	1.405542	0.419502	0.197771
C204	C	1.655542	0.669502	0.447771
C205	C	0.945587	-0.401100	-1.037035
C206	C	1.195587	-0.151100	-0.787035
C207	C	1.445587	0.098900	-0.537035
C208	C	1.695587	0.348900	-0.287035
C209	C	0.945575	-0.401124	-0.971600
C210	C	1.195575	-0.151124	-0.721600
C211	C	1.445575	0.098876	-0.471600
C212	C	1.695575	0.348876	-0.221600
C213	C	0.905523	-0.354078	-0.938870
C214	C	1.155523	-0.104078	-0.688870
C215	C	1.405523	0.145922	-0.438870
C216	C	1.655523	0.395922	-0.188870
C217	C	0.865468	-0.307019	-0.971580
C218	C	1.115468	-0.057019	-0.721580
C219	C	1.365468	0.192981	-0.471580
C220	C	1.615468	0.442981	-0.221580
C221	C	0.865476	-0.307002	-1.037014
C222	C	1.115476	-0.057002	-0.787014
C223	C	1.365476	0.192998	-0.537014
C224	C	1.615476	0.442998	-0.287014
C225	C	0.900592	-0.287802	-0.835214
C226	C	1.150592	-0.037802	-0.585214
C227	C	1.400592	0.212198	-0.335214
C228	C	1.650592	0.462198	-0.085214
C229	C	0.900588	-0.287818	-0.769781
C230	C	1.150588	-0.037818	-0.519781
C231	C	1.400588	0.212182	-0.269781
C232	C	1.650588	0.462182	-0.019781
C233	C	0.905495	-0.354130	-0.737049
C234	C	1.155495	-0.104130	-0.487049
C235	C	1.405495	0.145870	-0.237049
C236	C	1.655495	0.395870	0.012951
C237	C	0.910418	-0.420430	-0.769757
C238	C	1.160418	-0.170430	-0.519757
C239	C	1.410418	0.079570	-0.269757
C240	C	1.660418	0.329570	-0.019757
C241	C	0.910426	-0.420413	-0.835192
C242	C	1.160426	-0.170413	-0.585192
C243	C	1.410426	0.079587	-0.335192
C244	C	1.660426	0.329587	-0.085192
C245	C	0.905510	-0.354092	-0.867917
C246	C	1.155510	-0.104092	-0.617917
C247	C	1.405510	0.145908	-0.367917
C248	C	1.655510	0.395908	-0.117917
C249	C	0.945533	-0.401216	-0.633393
C250	C	1.195533	-0.151216	-0.383393
C251	C	1.445533	0.098784	-0.133393
C252	C	1.695533	0.348784	0.116607
C253	C	0.945517	-0.401240	-0.567957
C254	C	1.195517	-0.151240	-0.317957
C255	C	1.445517	0.098760	-0.067957
C256	C	1.695517	0.348760	0.182043
C257	C	0.865412	-0.307129	-0.567938
C258	C	1.115412	-0.057129	-0.317938
C259	C	1.365412	0.192871	-0.067938
C260	C	1.615412	0.442871	0.182062
C261	C	0.865425	-0.307111	-0.633374
C262	C	1.115425	-0.057111	-0.383374
C263	C	1.365425	0.192889	-0.133374
C264	C	1.615425	0.442889	0.116626
C265	C	0.905488	-0.354153	-0.666097
C266	C	1.155488	-0.104153	-0.416097
C267	C	1.405488	0.145847	-0.166097
C268	C	1.655488	0.395847	0.083903
C269	C	0.905430	-0.354236	-0.139379
C270	C	1.155430	-0.104236	0.110621
C271	C	1.405430	0.145764	0.360621
C272	C	1.655430	0.395764	0.610621
C273	C	0.905539	-0.354045	-0.069738
C274	C	1.155539	-0.104045	0.180262
C275	C	1.405539	0.145955	0.430262
C276	C	1.655539	0.395955	0.680262
H277	H	0.666910	-0.268803	-0.229519
H278	H	0.916910	-0.018803	0.020481
H279	H	1.166910	0.231197	0.270481
H280	H	1.416910	0.481197	0.520481
H281	H	0.978153	-0.439522	-0.660038
H282	H	1.228153	-0.189522	-0.410038
H283	H	1.478153	0.060478	-0.160038
H284	H	1.728153	0.310478	0.089962
H285	H	0.832816	-0.268790	-0.660001
H286	H	1.082816	-0.018790	-0.410001
H287	H	1.332816	0.231210	-0.160001
H288	H	1.582816	0.481210	0.089999
O289	O	0.822145	-0.933800	-0.385379
O290	O	1.072145	-0.683800	-0.135379
O291	O	1.322145	-0.433800	0.114621
O292	O	1.572145	-0.183800	0.364621
H293	H	0.832853	-0.919008	-0.434567
H294	H	1.082853	-0.669008	-0.184567
H295	H	1.332853	-0.419008	0.065433
H296	H	1.582853	-0.169008	0.315433
O297	O	0.895281	-0.216313	-0.734504
O298	O	1.145281	0.033687	-0.484504
O299	O	1.395281	0.283687	-0.234504
O300	O	1.645281	0.533687	0.015496
H301	H	0.937258	-0.208795	-0.704722
H302	H	1.187258	0.041205	-0.454722
H303	H	1.437258	0.291205	-0.204722
H304	H	1.687258	0.541205	0.045278
O305	O	0.988720	-0.451987	-0.532679
O306	O	1.238720	-0.201987	-0.282679
O307	O	1.488720	0.048013	-0.032679
O308	O	1.738720	0.298013	0.217321
H309	H	1.016585	-0.484684	-0.566430
H310	H	1.266585	-0.234684	-0.316430
H311	H	1.516585	0.015316	-0.066430
H312	H	1.766585	0.265316	0.183570
H313	H	0.978196	-0.439434	-0.944968
H314	H	1.228196	-0.189434	-0.694968
H315	H	1.478196	0.060566	-0.444968
H316	H	1.728196	0.310566	-0.194968
H317	H	0.896637	-0.233794	-0.861859
H318	H	1.146637	0.016206	-0.611859
H319	H	1.396637	0.266206	-0.361859
H320	H	1.646637	0.516206	-0.111859
H321	H	0.914415	-0.474428	-0.743108
H322	H	1.164415	-0.224428	-0.493108
H323	H	1.414415	0.025572	-0.243108
H324	H	1.664415	0.275572	0.006892
H325	H	0.832800	-0.268825	-0.541290
H326	H	1.082800	-0.018825	-0.291290
H327	H	1.332800	0.231175	-0.041290
H328	H	1.582800	0.481175	0.208710
H329	H	0.832694	-0.784194	-0.374787
H330	H	1.082694	-0.534194	-0.124787
H331	H	1.332694	-0.284194	0.125213
H332	H	1.582694	-0.034194	0.375213
H333	H	0.666917	-0.439834	-0.374638
H334	H	0.916917	-0.189834	-0.124638
H335	H	1.166917	0.060166	0.125362
H336	H	1.416917	0.310166	0.375362
O337	O	0.988832	-0.933715	-0.219027
O338	O	1.238832	-0.683715	0.030973
O339	O	1.488832	-0.433715	0.280973
O340	O	1.738832	-0.183715	0.530973
H341	H	0.978111	-0.919026	-0.169835
H342	H	1.228111	-0.669026	0.080165
H343	H	1.478111	-0.419026	0.330165
H344	H	1.728111	-0.169026	0.580165
H345	H	0.978208	-0.439408	-1.063675
H346	H	1.228208	-0.189408	-0.813675
H347	H	1.478208	0.060592	-0.563675
H348	H	1.728208	0.310592	-0.313675
O349	O	0.915722	-0.491915	-0.870473
O350	O	1.165722	-0.241915	-0.620473
O351	O	1.415722	0.008085	-0.370473
O352	O	1.665722	0.258085	-0.120473
H353	H	0.919126	-0.538034	-0.836725
H354	H	1.169126	-0.288034	-0.586725
H355	H	1.419126	-0.038034	-0.336725
H356	H	1.669126	0.211966	-0.086725
H357	H	0.832856	-0.268715	-0.944927
H358	H	1.082856	-0.018715	-0.694927
H359	H	1.332856	0.231285	-0.444927
H360	H	1.582856	0.481285	-0.194927
H361	H	0.144560	-0.268690	-0.229705
H362	H	0.394560	-0.018690	0.020295
H363	H	0.644560	0.231310	0.270295
H364	H	0.894560	0.481310	0.520295
O365	O	0.539555	-0.452282	-0.385230
O366	O	0.789555	-0.202282	-0.135230
O367	O	1.039555	0.047718	0.114770
O368	O	1.289555	0.297718	0.364770
H369	H	0.573298	-0.485079	-0.413018
H370	H	0.823298	-0.235079	-0.163018
H371	H	1.073298	0.014921	0.086982
H372	H	1.323298	0.264921	0.336982
O373	O	0.473854	-0.366520	-0.419466
O374	O	0.723854	-0.116520	-0.169466
O375	O	0.973854	0.133480	0.080534
O376	O	1.223854	0.383480	0.330534
H377	H	0.461279	-0.418909	-0.442774
H378	H	0.711279	-0.168909	-0.192774
H379	H	0.961279	0.081091	0.057226
H380	H	1.211279	0.331091	0.307226
O381	O	0.337850	-0.366491	-0.419521
O382	O	0.587850	-0.116491	-0.169521
O383	O	0.837850	0.133509	0.080479
O384	O	1.087850	0.383509	0.330479
H385	H	0.286844	-0.365478	-0.410060
H386	H	0.536844	-0.115478	-0.160060
H387	H	0.786844	0.134522	0.089940
H388	H	1.036844	0.384522	0.339940
O389	O	0.271936	-0.452188	-0.385357
O390	O	0.521936	-0.202188	-0.135357
O391	O	0.771936	0.047812	0.114643
O392	O	1.021936	0.297812	0.364643
H393	H	0.238194	-0.484944	-0.413188
H394	H	0.488194	-0.234944	-0.163188
H395	H	0.738194	0.015056	0.086812
H396	H	0.988194	0.265056	0.336812
O397	O	0.135878	-0.452156	-0.385370
O398	O	0.385878	-0.202156	-0.135370
O399	O	0.635878	0.047844	0.114630
O400	O	0.885878	0.297844	0.364630
H401	H	0.106014	-0.489502	-0.357233
H402	H	0.356014	-0.239502	-0.107233
H403	H	0.606014	0.010498	0.142767
H404	H	0.856014	0.260498	0.392767
O405	O	0.271924	-0.256283	-0.219074
O406	O	0.521924	-0.006283	0.030926
O407	O	0.771924	0.243717	0.280926
O408	O	1.021924	0.493717	0.530926
H409	H	0.238179	-0.223513	-0.191266
H410	H	0.488179	0.026487	0.058734
H411	H	0.738179	0.276487	0.308734
H412	H	0.988179	0.526487	0.558734
O413	O	0.337635	-0.341991	-0.184873
O414	O	0.587635	-0.091991	0.065127
O415	O	0.837635	0.158009	0.315127
O416	O	1.087635	0.408009	0.565127
H417	H	0.350135	-0.388731	-0.154026
H418	H	0.600135	-0.138731	0.095974
H419	H	0.850135	0.111269	0.345974
H420	H	1.100135	0.361269	0.595974
O421	O	0.473645	-0.342033	-0.184825
O422	O	0.723645	-0.092033	0.065175
O423	O	0.973645	0.157967	0.315175
O424	O	1.223645	0.407967	0.565175
H425	H	0.439866	-0.337936	-0.145588
H426	H	0.689866	-0.087936	0.104412
H427	H	0.939866	0.162064	0.354412
H428	H	1.189866	0.412064	0.604412
O429	O	0.539555	-0.256342	-0.218974
O430	O	0.789555	-0.006342	0.031026
O431	O	1.039555	0.243658	0.281026
O432	O	1.289555	0.493658	0.531026
H433	H	0.488559	-0.264260	-0.225700
H434	H	0.738559	-0.014260	0.024300
H435	H	0.988559	0.235740	0.274300
H436	H	1.238559	0.485740	0.524300
H437	H	0.978184	-0.784123	-0.229569
H438	H	1.228184	-0.534123	0.020431
H439	H	1.478184	-0.284123	0.270431
H440	H	1.728184	-0.034123	0.520431
O441	O	0.822286	-0.256241	-1.072293
O442	O	1.072286	-0.006241	-0.822293
O443	O	1.322286	0.243759	-0.572293
O444	O	1.572286	0.493759	-0.322293
H445	H	0.794435	-0.223526	-1.038544
H446	H	1.044435	0.026474	-0.788544
H447	H	1.294435	0.276474	-0.538544
H448	H	1.544435	0.526474	-0.288544
