data_functionalizedCrystal
_audit_creation_method	'MofGen! by Chris Wilmer'
_symmetry_space_group_name_H-M	'P1'
_symmetry_Int_Tables_number	1
_symmetry_cell_setting	triclinic
loop_
_symmetry_equiv_pos_as_xyz
  x,y,z
_cell_length_a	19.188930
_cell_length_b	14.519709
_cell_length_c	13.596369
_cell_angle_alpha	89.999709
_cell_angle_beta	89.988893
_cell_angle_gamma	96.587536
loop_
_atom_site_label
_atom_site_type_symbol
_atom_site_fract_x
_atom_site_fract_y
_atom_site_fract_z
O1	O	0.091524	-1.223300	-0.081675
O2	O	0.102302	-0.954756	-0.081706
O3	O	-0.004715	-1.096778	-0.081670
O4	O	0.198542	-1.081278	-0.081711
O5	O	-0.004720	-1.096763	0.081912
O6	O	0.102297	-0.954742	0.081877
O7	O	0.091519	-1.223286	0.081908
Zn8	Zn	0.096907	-1.089012	0.107865
Zn9	Zn	0.096914	-1.089030	-0.107663
O10	O	0.198536	-1.081264	0.081872
C11	C	0.101797	-0.920392	0.000081
C12	C	0.100292	-0.818020	0.000070
C13	C	-0.030730	-1.096269	0.000124
C14	C	-0.108240	-1.094762	0.000132
N15	N	0.096901	-1.089006	0.254956
C16	C	-0.152867	-1.178095	0.000146
C17	C	-0.225696	-1.176680	0.000131
C18	C	-0.253895	-1.091926	0.000120
C19	C	-0.209257	-1.008582	0.000100
C20	C	-0.136430	-1.009999	0.000106
N21	N	-0.362132	-1.027137	0.055783
N22	N	-0.431316	-1.025796	0.055779
C23	C	-0.473318	-1.087649	0.000100
N24	N	-0.443526	-1.150908	-0.055564
N25	N	-0.374336	-1.152252	-0.055556
C26	C	-0.332863	-1.090379	0.000113
C27	C	-0.596916	-1.169454	0.000095
C28	C	-0.669745	-1.168035	0.000073
C29	C	-0.653305	-0.999934	0.000053
C30	C	-0.580477	-1.001355	0.000065
C31	C	-0.552287	-1.086118	0.000091
C32	C	0.224551	-1.081773	0.000076
C33	C	0.302061	-1.083280	0.000061
C34	C	0.092024	-1.257649	0.000118
C35	C	0.093529	-1.360021	0.000123
C36	C	0.094751	-0.443159	0.000116
C37	C	0.096290	-0.547457	0.000103
C38	C	0.097521	-0.630586	0.000092
C39	C	0.099060	-0.734891	0.000081
N40	N	0.096914	-1.089043	-0.254755
C41	C	0.096915	-1.089029	0.656247
C42	C	0.096914	-1.089020	0.544596
C43	C	0.096909	-1.089018	0.455605
C44	C	0.096906	-1.089008	0.343947
H45	H	-0.129920	-1.247116	0.000164
C46	C	-0.531383	-0.909684	0.000065
C47	C	-0.534601	-0.840154	-0.084884
C48	C	-0.485508	-0.748477	-0.084886
C49	C	-0.433196	-0.726332	0.000062
C50	C	-0.429976	-0.795865	0.085018
C51	C	-0.479070	-0.887541	0.085020
H52	H	-0.573327	-0.856545	-0.147773
H53	H	-0.487892	-0.697005	-0.147776
H54	H	-0.396854	-0.658468	0.000061
H55	H	-0.391250	-0.779473	0.147907
H56	H	-0.476686	-0.939013	0.147910
C57	C	-0.087336	-0.918327	0.000098
C58	C	-0.034991	-0.896194	-0.084842
C59	C	0.014105	-0.804520	-0.084847
C60	C	0.010856	-0.734979	0.000087
C61	C	-0.041491	-0.757110	0.085033
C62	C	-0.090587	-0.848784	0.085038
H63	H	-0.032584	-0.947673	-0.147721
H64	H	0.052856	-0.788137	-0.147730
H65	H	0.047200	-0.667116	0.000083
H66	H	-0.043897	-0.705630	0.147912
H67	H	-0.129337	-0.865166	0.147921
C68	C	-0.274798	-1.268352	0.000151
C69	C	-0.354905	-1.266790	0.000146
C70	C	-0.404004	-1.358461	0.000167
C71	C	-0.372997	-1.451694	0.000194
C72	C	-0.292886	-1.453260	0.000199
C73	C	-0.243786	-1.361589	0.000178
H74	H	-0.377862	-1.197770	0.000126
H75	H	-0.463308	-1.357301	0.000163
H76	H	-0.409343	-1.519554	0.000209
H77	H	-0.269928	-1.522280	0.000219
H78	H	-0.184483	-1.362748	0.000182
C79	C	-0.240272	-0.915351	0.000087
C80	C	-0.320379	-0.913787	0.000085
C81	C	-0.351392	-0.820552	0.000065
C82	C	-0.302298	-0.728882	0.000047
C83	C	-0.222187	-0.730443	0.000050
C84	C	-0.191174	-0.823677	0.000070
H85	H	-0.356725	-0.981649	0.000098
H86	H	-0.410696	-0.819397	0.000063
H87	H	-0.325256	-0.659864	0.000033
H88	H	-0.185841	-0.662580	0.000037
H89	H	-0.131870	-0.824832	0.000071
H90	H	-0.676263	-0.930926	0.000039
H91	H	-0.573962	-1.238472	0.000112
C92	C	-0.718838	-1.259709	0.000087
C93	C	-0.715622	-1.329227	0.085050
C94	C	-0.764715	-1.420903	0.085063
C95	C	-0.817024	-1.443063	0.000114
C96	C	-0.820241	-1.373543	-0.084855
C97	C	-0.771148	-1.281867	-0.084868
H98	H	-0.676899	-1.312825	0.147940
H99	H	-0.762333	-1.472366	0.147963
H100	H	-0.853365	-1.510927	0.000124
H101	H	-0.858965	-1.389946	-0.147745
H102	H	-0.773530	-1.230404	-0.147768
