data_functionalizedCrystal
_audit_creation_method	'MofGen! by Chris Wilmer'
_symmetry_space_group_name_H-M	'P1'
_symmetry_Int_Tables_number	1
_symmetry_cell_setting	triclinic
loop_
_symmetry_equiv_pos_as_xyz
  x,y,z
_cell_length_a	10.686154
_cell_length_b	10.686203
_cell_length_c	14.909227
_cell_angle_alpha	97.924029
_cell_angle_beta	88.694188
_cell_angle_gamma	90.345070
loop_
_atom_site_label
_atom_site_type_symbol
_atom_site_fract_x
_atom_site_fract_y
_atom_site_fract_z
Zn1	Zn	-1.984604	0.318985	-0.383997
Zn2	Zn	-1.988493	0.542895	-0.220682
Zn3	Zn	-1.764436	0.347263	-0.243660
Zn4	Zn	-1.790785	0.544952	-0.382210
O5	O	-1.882080	0.438524	-0.307637
O6	O	-2.160002	0.335991	-0.353465
O7	O	-1.949372	0.527918	-0.097399
O8	O	-1.780988	0.167071	-0.272641
O9	O	-2.162859	0.500498	-0.233478
O10	O	-1.942743	0.146295	-0.375746
O11	O	-1.784759	0.384188	-0.114281
O12	O	-1.593049	0.386182	-0.270908
O13	O	-1.825895	0.504003	-0.508778
O14	O	-1.612408	0.531423	-0.372699
O15	O	-1.968293	0.337986	-0.510091
O16	O	-1.974921	0.719609	-0.231745
O17	O	-1.829666	0.721120	-0.350418
C18	C	-1.557384	0.462095	-0.324104
C19	C	-1.418481	0.472208	-0.331167
C20	C	-1.905610	0.766110	-0.288412
C21	C	-1.915793	0.906241	-0.280212
C22	C	-1.899599	0.418069	-0.543107
C23	C	-1.907065	0.409353	-0.643450
C24	C	-1.208042	0.414849	-0.291102
C25	C	-1.346945	0.404730	-0.284043
C26	C	-1.858481	1.109654	-0.326966
C27	C	-1.848396	0.969510	-0.335229
C28	C	-1.991717	0.310641	-0.785564
C29	C	-1.984709	0.318825	-0.691283
C30	C	-1.836426	0.491704	-0.689905
C31	C	-1.843435	0.483520	-0.784187
C32	C	-1.921082	0.392984	-0.832013
C33	C	-1.928083	0.384794	-0.926297
C34	C	-1.779808	0.557678	-0.924917
C35	C	-1.772799	0.565863	-0.830635
C36	C	-1.864694	0.458802	-0.073086
C37	C	-1.857444	0.467146	0.027248
H38	H	-1.391964	0.339224	-0.238293
H39	H	-2.054927	0.236911	-0.824506
Br40	Br	-1.683923	0.669423	-0.987960
Br41	Br	-1.343448	0.581418	-0.407414
Br42	Br	-2.033444	0.261914	-0.991205
H43	H	-1.773220	0.565423	-0.650948
H44	H	-1.782904	0.916474	-0.388605
H45	H	-1.981280	0.959287	-0.226826
Br46	Br	-2.080582	0.207075	-0.628246
H47	H	-1.709585	0.639578	-0.791682
