data_functionalizedCrystal
_audit_creation_method	'MofGen! by Chris Wilmer'
_symmetry_space_group_name_H-M	'P1'
_symmetry_Int_Tables_number	1
_symmetry_cell_setting	triclinic
loop_
_symmetry_equiv_pos_as_xyz
  x,y,z
_cell_length_a	19.188930
_cell_length_b	11.026607
_cell_length_c	9.482900
_cell_angle_alpha	101.363848
_cell_angle_beta	99.297616
_cell_angle_gamma	84.134601
loop_
_atom_site_label
_atom_site_type_symbol
_atom_site_fract_x
_atom_site_fract_y
_atom_site_fract_z
O1	O	0.283622	-1.627581	-0.120957
O2	O	0.783622	-1.127581	0.379043
O3	O	0.250352	-1.274451	-0.120952
O4	O	0.750352	-0.774451	0.379048
O5	O	0.166632	-1.461202	-0.120926
O6	O	0.666632	-0.961202	0.379074
O7	O	0.367342	-1.440830	-0.120983
O8	O	0.867342	-0.940830	0.379017
O9	O	0.183725	-1.423268	0.120861
O10	O	0.683725	-0.923268	0.620861
O11	O	0.267445	-1.236517	0.120835
O12	O	0.767445	-0.736517	0.620835
O13	O	0.300715	-1.589648	0.120830
O14	O	0.800715	-1.089648	0.620830
Cu15	Cu	0.285641	-1.409619	0.142910
Cu16	Cu	0.785641	-0.909619	0.642910
Cu17	Cu	0.265426	-1.454480	-0.143032
Cu18	Cu	0.765426	-0.954480	0.356968
O19	O	0.384435	-1.402896	0.120804
O20	O	0.884435	-0.902896	0.620804
C21	C	0.252761	-1.210306	-0.000057
C22	C	0.752761	-0.710306	0.499943
C23	C	0.234464	-1.075688	-0.000054
C24	C	0.734464	-0.575688	0.499946
C25	C	0.149084	-1.441575	-0.000029
C26	C	0.649084	-0.941575	0.499971
C27	C	0.071328	-1.439592	-0.000016
C28	C	0.571328	-0.939592	0.499984
C29	C	0.298306	-1.653793	-0.000068
C30	C	0.798306	-1.153793	0.499932
C31	C	0.316602	-1.788412	-0.000081
C32	C	0.816602	-1.288412	0.499919
C33	C	0.040370	-1.549173	-0.000011
C34	C	0.540370	-1.049173	0.499989
C35	C	-0.032693	-1.547315	-0.000034
C36	C	0.467307	-1.047315	0.499966
C37	C	-0.074793	-1.435865	-0.000033
C38	C	0.425207	-0.935865	0.499967
C39	C	-0.043828	-1.326271	-0.000047
C40	C	0.456172	-0.826271	0.499953
C41	C	0.029233	-1.328134	-0.000038
C42	C	0.529233	-0.828134	0.499962
N43	N	-0.187838	-1.337766	0.082253
N44	N	0.312162	-0.837766	0.582253
N45	N	-0.257242	-1.336003	0.082248
N46	N	0.242758	-0.836003	0.582248
C47	C	-0.294921	-1.430246	-0.000063
C48	C	0.205079	-0.930246	0.499937
N49	N	-0.260572	-1.526334	-0.082349
N50	N	0.239428	-1.026334	0.417651
N51	N	-0.191161	-1.528099	-0.082338
N52	N	0.308839	-1.028099	0.417662
C53	C	-0.154016	-1.433833	-0.000044
C54	C	0.345984	-0.933833	0.499956
C55	C	-0.405101	-1.537820	-0.000085
C56	C	0.094899	-1.037820	0.499915
C57	C	-0.478166	-1.535959	-0.000117
C58	C	0.021834	-1.035959	0.499883
C59	C	-0.489299	-1.314910	-0.000115
C60	C	0.010701	-0.814910	0.499885
C61	C	-0.416236	-1.316776	-0.000098
C62	C	0.083764	-0.816776	0.499902
C63	C	-0.374141	-1.428234	-0.000075
C64	C	0.125859	-0.928234	0.499925
C65	C	0.401983	-1.422524	-0.000097
C66	C	0.901983	-0.922524	0.499903
C67	C	0.479738	-1.424509	-0.000119
C68	C	0.979738	-0.924509	0.499881
N69	N	0.299859	-1.378075	0.344025
N70	N	0.799859	-0.878075	0.844025
C71	C	0.284984	-1.001617	-0.000069
C72	C	0.784984	-0.501617	0.499931
C73	C	0.266075	-0.862482	-0.000066
C74	C	0.766075	-0.362482	0.499934
N75	N	0.251204	-1.486034	-0.344148
N76	N	0.751204	-0.986034	0.155852
C77	C	0.269615	-1.445167	0.416234
C78	C	0.769615	-0.945167	0.916234
C79	C	0.281452	-1.418931	0.583648
C80	C	0.781452	-0.918931	1.083648
H81	H	0.074639	-1.639931	0.000002
H82	H	0.574639	-1.139931	0.500002
O83	O	-0.530100	-1.206542	0.000077
O84	O	-0.030100	-0.706542	0.500077
C85	C	-0.506808	-1.120122	0.125321
C86	C	-0.006808	-0.620122	0.625321
H87	H	-0.449231	-1.146347	0.167081
H88	H	0.050769	-0.646347	0.667081
H89	H	-0.511390	-1.023498	0.097155
H90	H	-0.011390	-0.523498	0.597155
H91	H	-0.540966	-1.120637	0.212999
H92	H	-0.040966	-0.620637	0.712999
H93	H	0.216543	-1.562899	0.593739
H94	H	0.716543	-1.062899	1.093739
H95	H	0.177212	-1.036104	-0.000075
H96	H	0.677212	-0.536104	0.499925
H97	H	0.342235	-1.041206	-0.000077
H98	H	0.842235	-0.541206	0.499923
O99	O	0.384879	-0.835715	-0.000376
O100	O	0.884879	-0.335715	0.499624
C101	C	0.389603	-0.927677	-0.125592
C102	C	0.889603	-0.427677	0.374408
H103	H	0.343205	-0.911600	-0.213089
H104	H	0.843205	-0.411600	0.286911
H105	H	0.441446	-0.922739	-0.167662
H106	H	0.941446	-0.422739	0.332338
H107	H	0.387981	-1.023052	-0.097281
H108	H	0.887981	-0.523052	0.402719
O109	O	0.197801	-0.815079	-0.000113
O110	O	0.697801	-0.315079	0.499887
C111	C	0.194121	-0.686710	-0.000075
C112	C	0.694121	-0.186710	0.499925
H113	H	0.241632	-0.664024	-0.045862
H114	H	0.741632	-0.164024	0.454138
H115	H	0.143216	-0.658998	-0.070262
H116	H	0.643216	-0.158998	0.429738
H117	H	0.194540	-0.633307	0.115925
H118	H	0.694540	-0.133307	0.615925
H119	H	0.334511	-1.301206	0.406145
H120	H	0.834511	-0.801206	0.906145
H121	H	0.316106	-1.342057	0.645762
H122	H	0.816106	-0.842057	1.145762
O123	O	-0.062657	-1.653868	0.000040
O124	O	0.437343	-1.153868	0.500040
C125	C	-0.009839	-1.752646	0.000019
C126	C	0.490161	-1.252646	0.500019
H127	H	0.043842	-1.714396	0.045793
H128	H	0.543842	-1.214396	0.545793
H129	H	-0.022101	-1.818382	0.070224
H130	H	0.477899	-1.318382	0.570224
H131	H	-0.008549	-1.805037	-0.115975
H132	H	0.491451	-1.305037	0.384025
O133	O	0.228238	-1.536756	0.341947
O134	O	0.728238	-1.036756	0.841947
C135	C	0.170895	-1.485585	0.253915
C136	C	0.670895	-0.985585	0.753915
H137	H	0.185265	-1.394150	0.231311
H138	H	0.685265	-0.894150	0.731311
H139	H	0.158662	-1.552924	0.146797
H140	H	0.658662	-1.052924	0.646797
H141	H	0.122391	-1.468303	0.312449
H142	H	0.622391	-0.968303	0.812449
H143	H	-0.078111	-1.235528	-0.000050
H144	H	0.421889	-0.735528	0.499950
H145	H	0.054438	-1.238897	-0.000042
H146	H	0.554438	-0.738897	0.499958
H147	H	-0.391030	-1.227542	-0.000094
H148	H	0.108970	-0.727542	0.499906
H149	H	-0.503371	-1.625199	-0.000121
H150	H	-0.003371	-1.125199	0.499879
O151	O	-0.364315	-1.646204	-0.000154
O152	O	0.135685	-1.146204	0.499846
C153	C	-0.407309	-1.742527	-0.000138
C154	C	0.092691	-1.242527	0.499862
H155	H	-0.464253	-1.715975	-0.045916
H156	H	0.035747	-1.215975	0.454084
H157	H	-0.387263	-1.831370	-0.070344
H158	H	0.112737	-1.331370	0.429656
H159	H	-0.405178	-1.758125	0.115853
H160	H	0.094822	-1.258125	0.615853
