data_functionalizedCrystal
_audit_creation_method	'MofGen! by Chris Wilmer'
_symmetry_space_group_name_H-M	'P1'
_symmetry_Int_Tables_number	1
_symmetry_cell_setting	triclinic
loop_
_symmetry_equiv_pos_as_xyz
  x,y,z
_cell_length_a	18.050591
_cell_length_b	18.050589
_cell_length_c	18.050582
_cell_angle_alpha	90.018205
_cell_angle_beta	90.020922
_cell_angle_gamma	90.024227
loop_
_atom_site_label
_atom_site_type_symbol
_atom_site_fract_x
_atom_site_fract_y
_atom_site_fract_z
Zn1	Zn	1.135293	-0.295786	0.420054
Zn2	Zn	1.135203	-0.419969	0.295873
Zn3	Zn	1.011112	-0.295789	0.295865
Zn4	Zn	1.011060	-0.419930	0.420009
O5	O	1.073167	-0.357868	0.357950
O6	O	1.239205	-0.312274	0.403603
O7	O	1.118727	-0.403514	0.191948
O8	O	1.027644	-0.191864	0.312354
O9	O	1.239140	-0.403511	0.312369
O10	O	1.118879	-0.191862	0.403595
O11	O	1.027557	-0.312279	0.191942
O12	O	0.907180	-0.312241	0.312311
O13	O	1.027555	-0.403444	0.523940
O14	O	0.907142	-0.403447	0.403519
O15	O	1.118828	-0.312236	0.523973
O16	O	1.118676	-0.523888	0.312325
O17	O	1.027468	-0.523860	0.403527
C18	C	0.880215	-0.357841	0.357909
C19	C	0.797669	-0.357847	0.357909
C20	C	0.598217	-0.308191	0.308425
C21	C	0.548798	-0.375927	0.290154
C22	C	0.646539	-0.357869	0.357943
C23	C	0.548877	-0.290157	0.376212
C24	C	0.500553	-0.357885	0.357974
C25	C	0.598206	-0.425641	0.339637
C26	C	0.598289	-0.339825	0.425726
C27	C	0.548892	-0.407607	0.407481
C28	C	0.730637	-0.357859	0.357923
C29	C	0.416457	-0.357903	0.357994
C30	C	1.073077	-0.550820	0.357938
C31	C	1.073107	-0.633366	0.357958
C32	C	1.023557	-0.832828	0.407536
C33	C	1.005459	-0.882261	0.339767
C34	C	1.073180	-0.784497	0.357967
C35	C	1.091314	-0.882146	0.425744
C36	C	1.073249	-0.930482	0.357983
C37	C	1.055046	-0.832842	0.290162
C38	C	1.140933	-0.832722	0.376186
C39	C	1.122861	-0.882133	0.308370
C40	C	1.073138	-0.700398	0.357959
C41	C	1.073291	-1.014578	0.357983
C42	C	1.266872	-0.357897	0.357992
C43	C	1.349418	-0.357909	0.358010
C44	C	1.073196	-0.357835	0.551656
C45	C	1.073208	-0.357821	0.634202
C46	C	1.073277	-0.164163	0.357979
C47	C	1.073324	-0.081617	0.357991
C48	C	1.073181	-0.357848	0.164998
C49	C	1.073312	-0.357652	0.082453
C50	C	1.023612	-0.407353	0.833635
C51	C	1.091367	-0.425511	0.883034
C52	C	1.073245	-0.357765	0.785332
C53	C	1.005527	-0.339586	0.883014
C54	C	1.073274	-0.357711	0.931317
C55	C	1.141036	-0.375958	0.833645
C56	C	1.055150	-0.290002	0.833620
C57	C	1.122952	-0.308134	0.882998
C58	C	1.073227	-0.357797	0.701234
C59	C	1.073300	-0.357679	1.015414
H60	H	0.619785	-0.482928	0.324134
H61	H	1.106690	-0.482794	0.904739
O62	O	1.172866	-0.907894	0.258269
C63	C	1.192941	-0.980981	0.148366
C64	C	1.136241	-0.951870	0.205065
H65	H	1.163349	-1.016529	0.105328
H66	H	1.236502	-1.015748	0.178058
H67	H	1.220947	-0.932166	0.119707
H68	H	1.108181	-1.000640	0.233740
H69	H	1.092727	-0.917080	0.175332
H70	H	1.198333	-0.391377	0.812050
H71	H	1.198184	-0.810948	0.391613
O72	O	1.109498	-0.907895	0.494171
C73	C	1.077652	-0.912080	0.623733
C74	C	1.056992	-0.882859	0.546283
H75	H	1.035204	-0.891863	0.665884
H76	H	1.134956	-0.890831	0.639722
H77	H	1.078067	-0.975230	0.622916
H78	H	1.056534	-0.819711	0.547041
H79	H	0.999702	-0.904164	0.530324
O80	O	0.624339	-0.321494	0.494017
C81	C	0.697818	-0.236478	0.566179
C82	C	0.668380	-0.257176	0.488796
H83	H	0.733419	-0.184467	0.561986
H84	H	0.732610	-0.284017	0.588917
H85	H	0.649167	-0.225600	0.604934
H86	H	0.716986	-0.268041	0.449985
H87	H	0.633566	-0.209625	0.466119
H88	H	1.039669	-0.811275	0.232834
O89	O	0.973502	-0.457339	0.807735
C90	C	0.863038	-0.477211	0.735399
C91	C	0.919718	-0.420520	0.764696
H92	H	0.819549	-0.447467	0.700584
H93	H	0.834943	-0.506020	0.784066
H94	H	0.892697	-0.520130	0.699816
H95	H	0.890116	-0.377557	0.800268
H96	H	0.947811	-0.391768	0.715996
O97	O	1.173195	-0.258163	0.908665
C98	C	1.301327	-0.220836	0.912456
C99	C	1.244507	-0.277486	0.883352
H100	H	1.358993	-0.236429	0.891990
H101	H	1.300696	-0.220836	0.975611
H102	H	1.286343	-0.163267	0.891271
H103	H	1.259451	-0.335082	0.904482
H104	H	1.245149	-0.277421	0.820198
O105	O	0.973481	-0.806870	0.457466
C106	C	0.917739	-0.699464	0.513810
C107	C	0.974489	-0.728763	0.457256
H108	H	0.918524	-0.636313	0.513648
H109	H	0.932599	-0.720536	0.571461
H110	H	0.860039	-0.719863	0.498149
H111	H	1.032209	-0.708377	0.472848
H112	H	0.959566	-0.707697	0.399620
H113	H	0.948246	-0.324232	0.904701
H114	H	0.948195	-0.904037	0.324371
H115	H	0.527169	-0.232894	0.391625
O116	O	0.624025	-0.258209	0.258316
C117	C	0.628044	-0.220771	0.130254
C118	C	0.598783	-0.277434	0.186920
H119	H	0.607635	-0.236285	0.072519
H120	H	0.691198	-0.220854	0.131017
H121	H	0.606920	-0.163188	0.145288
H122	H	0.619852	-0.335045	0.171925
H123	H	0.535630	-0.277286	0.186146
O124	O	1.036763	-0.221743	0.807608
C125	C	0.951688	-0.149723	0.734176
C126	C	0.972447	-0.227069	0.763572
H127	H	0.899678	-0.154000	0.698580
H128	H	0.999207	-0.126920	0.699390
H129	H	0.940784	-0.110975	0.782848
H130	H	0.983338	-0.265873	0.714946
H131	H	0.924916	-0.249812	0.798381
O132	O	0.522705	-0.394119	0.221837
C133	C	0.415136	-0.414998	0.145529
C134	C	0.444601	-0.394446	0.222940
H135	H	0.351986	-0.415253	0.146391
H136	H	0.436180	-0.472335	0.129470
H137	H	0.435437	-0.372564	0.103398
H138	H	0.424312	-0.436830	0.265122
H139	H	0.423563	-0.337090	0.238936
O140	O	0.523244	-0.457889	0.457370
C141	C	0.519452	-0.586051	0.494498
C142	C	0.548535	-0.529187	0.437941
H143	H	0.539901	-0.643706	0.478818
H144	H	0.456297	-0.585413	0.494489
H145	H	0.540669	-0.571116	0.552093
H146	H	0.527372	-0.544083	0.380318
H147	H	0.611689	-0.529835	0.438014
