data_functionalizedCrystal
_audit_creation_method	'MofGen! by Chris Wilmer'
_symmetry_space_group_name_H-M	'P1'
_symmetry_Int_Tables_number	1
_symmetry_cell_setting	triclinic
loop_
_symmetry_equiv_pos_as_xyz
  x,y,z
_cell_length_a	10.686220
_cell_length_b	12.645330
_cell_length_c	10.686551
_cell_angle_alpha	85.593389
_cell_angle_beta	90.308082
_cell_angle_gamma	94.394340
loop_
_atom_site_label
_atom_site_type_symbol
_atom_site_fract_x
_atom_site_fract_y
_atom_site_fract_z
Zn1	Zn	1.972300	-0.258448	-0.562381
Zn2	Zn	1.956079	-0.450323	-0.352619
Zn3	Zn	1.746419	-0.285567	-0.368698
Zn4	Zn	1.762509	-0.448175	-0.578396
O5	O	1.859327	-0.360628	-0.465524
O6	O	2.145689	-0.273451	-0.521124
O7	O	1.914746	-0.440716	-0.179206
O8	O	1.776437	-0.133617	-0.394417
O9	O	2.133772	-0.414421	-0.367012
O10	O	1.942391	-0.113693	-0.536715
O11	O	1.760709	-0.319670	-0.191019
O12	O	1.573012	-0.317587	-0.409947
O13	O	1.803860	-0.410759	-0.751818
O14	O	1.584834	-0.437055	-0.564011
O15	O	1.957992	-0.271368	-0.740051
O16	O	1.930347	-0.598391	-0.382542
O17	O	1.788132	-0.596812	-0.548420
C18	C	1.533407	-0.380031	-0.490462
C19	C	1.393979	-0.388355	-0.501161
C20	C	1.859262	-0.636064	-0.465499
C21	C	1.859352	-0.753887	-0.465521
C22	C	1.948649	-0.922422	-0.360983
C23	C	1.948982	-0.799827	-0.361196
C24	C	1.905354	-0.786941	-0.595009
C25	C	1.906083	-0.909530	-0.594435
C26	C	1.724115	-0.931468	-0.441878
C27	C	1.724523	-0.809031	-0.438864
C28	C	2.186519	-0.341150	-0.440488
C29	C	2.325949	-0.332850	-0.429820
C30	C	1.884531	-0.337799	-0.792724
C31	C	1.895271	-0.328070	-0.932158
C32	C	1.859429	-0.084113	-0.465573
C33	C	1.859472	0.033721	-0.465595
C34	C	1.834293	-0.383288	-0.139590
C35	C	1.823796	-0.392704	-0.000139
H36	H	1.345550	-0.442254	-0.570422
H37	H	1.754390	-0.455484	-0.951670
H38	H	1.964690	-0.265292	-0.980632
H39	H	2.003537	-0.748408	-0.616842
H40	H	1.919024	-0.777975	-0.264865
N41	N	1.390078	-0.261468	-0.338065
H42	H	1.483930	-0.265438	-0.343171
H43	H	1.368766	-0.185756	-0.359474
N44	N	1.909309	-0.972352	-0.232963
H45	H	1.833303	-1.023893	-0.241531
H46	H	1.980437	-1.011569	-0.193956
H47	H	2.048150	-0.945784	-0.375653
H48	H	2.005324	-0.930265	-0.615705
H49	H	1.657546	-0.959845	-0.518195
N50	N	2.081501	-0.751032	-0.380913
H51	H	2.136836	-0.778821	-0.310870
H52	H	2.114079	-0.770500	-0.463989
N53	N	1.824518	-0.947253	-0.700477
H54	H	1.858605	-0.912824	-0.783000
H55	H	1.824385	-1.027107	-0.700818
N56	N	1.822526	-0.746883	-0.700453
H57	H	1.754223	-0.706825	-0.665213
H58	H	1.874653	-0.697885	-0.762364
N59	N	1.671287	-0.983831	-0.319686
H60	H	1.734571	-1.030657	-0.278463
H61	H	1.652427	-0.927316	-0.262172
H62	H	1.690020	-0.788409	-0.343621
H63	H	1.653672	-0.778379	-0.510288
