data_functionalizedCrystal
_audit_creation_method	'MofGen! by Chris Wilmer'
_symmetry_space_group_name_H-M	'P1'
_symmetry_Int_Tables_number	1
_symmetry_cell_setting	triclinic
loop_
_symmetry_equiv_pos_as_xyz
  x,y,z
_cell_length_a	20.919309
_cell_length_b	20.919151
_cell_length_c	20.919309
_cell_angle_alpha	55.750361
_cell_angle_beta	89.825423
_cell_angle_gamma	55.760852
loop_
_atom_site_label
_atom_site_type_symbol
_atom_site_fract_x
_atom_site_fract_y
_atom_site_fract_z
Zr1	Zr	0.597343	0.701001	-0.103550
O2	O	0.476831	0.862260	-0.224085
O3	O	0.640208	0.552554	-0.060661
O4	O	0.625301	0.707407	-0.209156
O5	O	0.496760	0.697886	0.034791
O6	O	0.735681	0.697886	-0.204134
O7	O	0.491738	0.707407	-0.075590
O8	O	0.762347	0.420882	0.061497
O9	O	0.470095	0.974890	-0.230840
O10	O	0.733710	0.601762	-0.045796
O11	O	0.655083	0.601761	0.032833
O12	O	0.637532	0.784081	-0.142001
O13	O	0.558906	0.784081	-0.063373
Zr14	Zr	0.781396	0.670631	0.080505
Zr15	Zr	0.773386	0.685816	-0.095540
Zr16	Zr	0.605353	0.685816	0.072496
Zr17	Zr	0.586599	0.880632	-0.114322
Zr18	Zr	0.792140	0.490999	0.091278
O19	O	0.738531	0.819078	0.037617
O20	O	0.727141	0.840669	-0.212697
O21	O	0.488221	0.840669	0.026228
O22	O	0.901908	0.509372	0.201041
O23	O	0.890518	0.530963	-0.049272
O24	O	0.651598	0.530963	0.189652
O25	O	0.881979	0.673746	-0.057835
O26	O	0.753438	0.664225	0.186112
O27	O	0.643058	0.673746	0.181090
O28	O	0.887001	0.664225	0.052546
O29	O	0.610025	0.962820	-0.224473
O30	O	0.768714	0.408812	0.201429
O31	O	0.908644	0.396742	0.207796
O32	O	0.902277	0.408812	0.067863
O33	O	0.476462	0.962820	-0.090907
O34	O	0.616392	0.950750	-0.084541
O35	O	0.741207	0.587551	0.118957
O36	O	0.819834	0.587551	0.040329
O37	O	0.723656	0.769870	-0.055877
O38	O	0.645029	0.769870	0.022751
C39	C	0.702808	0.461124	0.001953
C40	C	0.707369	0.384866	0.006526
C41	C	0.469167	0.704810	-0.021541
C42	C	0.394432	0.711256	-0.024941
C43	C	0.409523	0.619118	0.023675
C44	C	0.339299	0.625181	0.020478
C45	C	0.253984	0.723384	-0.031341
C46	C	0.238894	0.815528	-0.079959
C47	C	0.309118	0.809464	-0.076757
C48	C	0.039441	0.746456	-0.043519
C49	C	-0.030784	0.752513	-0.046719
C50	C	0.069626	0.562166	0.053719
C51	C	0.139846	0.556110	0.056913
C52	C	0.124751	0.648254	0.008299
C53	C	0.182202	0.729584	-0.034612
C54	C	0.196532	0.642053	0.011575
C55	C	0.642221	0.421602	-0.058638
C56	C	0.646507	0.349965	-0.054370
C57	C	0.715939	0.241592	0.015065
C58	C	0.781094	0.204856	0.080232
C59	C	0.776810	0.276492	0.075960
C60	C	0.732241	0.021666	0.031326
C61	C	0.736518	-0.049970	0.035593
C62	C	0.601932	0.095144	-0.099010
C63	C	0.597652	0.166776	-0.103272
C64	C	0.662809	0.130033	-0.038108
C65	C	0.720320	0.168366	0.019430
C66	C	0.658430	0.203259	-0.042477
C67	C	0.909572	0.666822	-0.001503
C68	C	0.984307	0.660376	0.001897
C69	C	0.679350	0.704810	-0.231728
C70	C	0.675949	0.711256	-0.306464
C71	C	0.675931	0.910508	-0.024997
C72	C	0.671370	0.986766	-0.029570
C73	C	0.724556	0.619118	-0.291359
C74	C	0.721353	0.625182	-0.361584
C75	C	0.669549	0.723384	-0.446914
C76	C	0.620936	0.815530	-0.462018
C77	C	0.624135	0.809465	-0.391793
C78	C	0.657376	0.746456	-0.661460
C79	C	0.654183	0.752513	-0.731686
C80	C	0.754599	0.562165	-0.631247
C81	C	0.757797	0.556109	-0.561025
C82	C	0.709181	0.648255	-0.576135
C83	C	0.666276	0.729585	-0.518697
C84	C	0.712450	0.642054	-0.504353
C85	C	0.699389	0.666822	0.208684
C86	C	0.702790	0.660375	0.283419
C87	C	0.923011	0.442130	0.011971
C88	C	1.002307	0.359426	0.019945
C89	C	0.712828	0.442130	0.222158
C90	C	0.720790	0.359425	0.301467
C91	C	0.933031	0.423136	0.232177
C92	C	1.015727	0.333985	0.314886
C93	C	0.445708	0.948495	-0.255221
C94	C	0.363012	1.037647	-0.337931
C95	C	0.455728	0.929501	-0.035016
C96	C	0.376432	1.012206	-0.042989
C97	C	0.665911	0.929502	-0.245202
C98	C	0.657949	1.012206	-0.324511
C99	C	0.994589	0.328005	-0.021274
C100	C	1.069088	0.250307	-0.013799
C101	C	1.151304	0.204026	0.034900
C102	C	1.159020	0.235454	0.076119
C103	C	1.084521	0.313155	0.068639
C104	C	0.769484	0.313168	0.383675
C105	C	0.776962	0.235468	0.458200
C106	C	0.735749	0.204021	0.450516
C107	C	0.687048	0.250287	0.368300
C108	C	0.679566	0.327991	0.293776
C109	C	1.095612	0.292118	0.312685
C110	C	1.173320	0.208361	0.390392
C111	C	1.171141	0.166468	0.470300
C112	C	1.091247	0.208343	0.472499
C113	C	1.013541	0.292103	0.394793
C114	C	0.283127	1.079522	-0.335729
C115	C	0.205418	1.163301	-0.413438
C116	C	0.207596	1.205198	-0.493346
C117	C	0.287490	1.163319	-0.495545
C118	C	0.365197	1.079546	-0.417838
C119	C	0.384149	1.043635	-0.001778
C120	C	0.309648	1.121354	-0.009273
C121	C	0.227432	1.167638	-0.057975
C122	C	0.219717	1.136207	-0.099191
C123	C	0.294216	1.058494	-0.091700
C124	C	0.699173	1.043627	-0.316800
C125	C	0.691709	1.121326	-0.391311
C126	C	0.643016	1.167607	-0.473533
C127	C	0.601792	1.136179	-0.481243
C128	C	0.609261	1.058477	-0.406733
H129	H	0.478987	0.539151	0.065875
F130	F	0.751001	0.994383	-0.229299
H131	H	0.578752	0.895488	-0.531500
H132	H	0.169424	0.895486	-0.122146
F133	F	0.846153	0.237390	0.145314
F134	F	0.289795	1.207919	-0.580598
H135	H	0.624099	0.809541	-0.588180
H136	H	0.430241	1.045453	-0.419640
H137	H	0.209310	0.476145	0.099094
F138	F	0.355366	0.527115	0.072230
F139	F	0.928525	0.336648	0.397149
F140	F	0.828798	0.186239	0.545693
H141	H	0.725279	1.146905	-0.385016
H142	H	0.584551	0.884494	-0.404098
H143	H	0.601901	0.291499	-0.099013
H144	H	0.754625	0.562098	-0.434875
H145	H	0.776852	0.080121	0.075964
F146	F	0.120398	1.207855	-0.411079
F147	F	0.854991	0.089515	0.154128
F148	F	0.285990	1.025049	-0.135562
H149	H	0.281337	1.045415	-0.270671
H150	H	0.112731	0.809540	-0.076803
F151	F	0.293054	0.907529	-0.128498
F152	F	0.813357	0.346617	0.391873
F153	F	1.258339	0.163807	0.388033
H154	H	0.927650	0.365688	-0.060940
H155	H	0.585674	0.509842	-0.115171
F156	F	0.523749	0.282114	-0.177171
F157	F	1.060858	0.216871	-0.057671
F158	F	0.565374	1.025053	-0.414954
H159	H	0.144316	1.273411	-0.556614
H160	H	0.741848	0.140749	0.511205
H161	H	0.636941	1.230877	-0.534198
H162	H	0.785297	-0.008263	0.084387
H163	H	0.451088	1.005955	0.037885
H164	H	1.090817	0.338727	0.102211
H165	H	1.225970	0.197760	0.115769
F166	F	0.317878	1.154787	0.034601
F167	F	0.549965	1.185453	-0.568759
F168	F	0.132209	1.185474	-0.151018
F169	F	0.085683	0.464106	0.105457
F170	F	-0.121587	0.857039	-0.101882
F171	F	1.097950	0.336694	0.227648
F172	F	0.023366	0.844525	-0.095261
H173	H	0.166777	1.230916	-0.064067
H174	H	0.265999	0.562097	0.053770
F175	F	0.643191	0.216807	0.360136
H176	H	0.593455	0.379886	-0.107433
H177	H	0.548885	0.125049	-0.152064
H178	H	0.793060	-0.138217	0.092140
H179	H	0.639917	0.365645	0.226842
H180	H	0.766744	0.539151	-0.221882
H181	H	1.234421	0.098265	0.533567
F182	F	0.812907	0.451591	-0.470214
F183	F	0.773084	0.527116	-0.345502
H184	H	0.611994	0.832486	-0.801168
F185	F	0.806332	0.464105	-0.615174
F186	F	1.230585	0.121328	0.042854
F187	F	0.605612	0.844528	-0.677552
F188	F	1.088942	0.163745	0.557551
