data_functionalizedCrystal
_audit_creation_method	'MofGen! by Chris Wilmer'
_symmetry_space_group_name_H-M	'P1'
_symmetry_Int_Tables_number	1
_symmetry_cell_setting	triclinic
loop_
_symmetry_equiv_pos_as_xyz
  x,y,z
_cell_length_a	17.699077
_cell_length_b	19.188924
_cell_length_c	16.176319
_cell_angle_alpha	89.991125
_cell_angle_beta	89.993140
_cell_angle_gamma	83.211270
loop_
_atom_site_label
_atom_site_type_symbol
_atom_site_fract_x
_atom_site_fract_y
_atom_site_fract_z
O1	O	1.003963	0.088275	-0.068739
O2	O	1.503963	0.588275	0.431261
O3	O	0.783569	0.099767	-0.068744
O4	O	1.283569	0.599767	0.431256
O5	O	0.900129	-0.007628	-0.068732
O6	O	1.400129	0.492372	0.431268
O7	O	0.887403	0.195670	-0.068751
O8	O	1.387403	0.695670	0.431249
O9	O	0.900113	-0.007635	0.068761
O10	O	1.400113	0.492365	0.568761
O11	O	0.783553	0.099760	0.068749
O12	O	1.283553	0.599760	0.568749
O13	O	1.003947	0.088268	0.068754
O14	O	1.503947	0.588268	0.568754
Cu15	Cu	0.893748	0.094013	0.081306
Cu16	Cu	1.393748	0.594013	0.581306
Cu17	Cu	0.893767	0.094021	-0.081296
Cu18	Cu	1.393767	0.594021	0.418704
O19	O	0.887387	0.195663	0.068742
O20	O	1.387387	0.695663	0.568742
C21	C	0.755364	0.099352	0.000002
C22	C	1.255364	0.599352	0.500002
C23	C	0.671347	0.098119	0.000001
C24	C	1.171347	0.598119	0.500001
C25	C	0.631872	0.097534	0.074949
C26	C	1.131872	0.597534	0.574949
C27	C	0.552931	0.096364	0.074950
C28	C	1.052931	0.596364	0.574950
C29	C	0.513466	0.095784	0.000002
C30	C	1.013466	0.595784	0.500002
C31	C	0.552947	0.096367	-0.074952
C32	C	1.052947	0.596367	0.425048
C33	C	0.631888	0.097532	-0.074952
C34	C	1.131888	0.597532	0.425048
C35	C	0.234590	0.091668	-0.074953
C36	C	0.734590	0.591668	0.425047
C37	C	0.155644	0.090506	-0.074947
C38	C	0.655644	0.590506	0.425053
C39	C	0.155634	0.090501	0.074949
C40	C	0.655634	0.590501	0.574949
C41	C	0.234574	0.091666	0.074949
C42	C	0.734574	0.591666	0.574949
C43	C	0.274049	0.092245	-0.000004
C44	C	0.774049	0.592245	0.499996
C45	C	0.359646	0.093512	-0.000005
C46	C	0.859646	0.593512	0.499995
C47	C	0.427870	0.094522	0.000001
C48	C	0.927870	0.594522	0.500001
C49	C	0.899709	-0.033643	0.000016
C50	C	1.399709	0.466357	0.500016
C51	C	0.898475	-0.111149	0.000018
C52	C	1.398475	0.388851	0.500018
C53	C	0.897908	-0.147545	-0.074930
C54	C	1.397908	0.352455	0.425070
C55	C	0.896737	-0.220369	-0.074936
C56	C	1.396737	0.279631	0.425064
C57	C	0.896149	-0.256796	0.000009
C58	C	1.396149	0.243204	0.500009
C59	C	0.896712	-0.220391	0.074967
C60	C	1.396712	0.279609	0.574967
C61	C	0.897875	-0.147568	0.074971
C62	C	1.397875	0.352432	0.574971
N63	N	0.937387	-0.376417	0.055791
N64	N	1.437387	0.123583	0.555791
N65	N	0.936284	-0.445596	0.055782
N66	N	1.436284	0.054404	0.555782
C67	C	0.892643	-0.476209	0.000001
C68	C	1.392643	0.023791	0.500001
N69	N	0.850157	-0.435031	-0.055782
N70	N	1.350157	0.064969	0.444218
N71	N	0.851263	-0.365845	-0.055775
N72	N	1.351263	0.134155	0.444225
C73	C	0.894887	-0.335761	0.000013
C74	C	1.394887	0.164239	0.500013
C75	C	0.890805	-0.591569	-0.074958
C76	C	1.390805	-0.091569	0.425042
C77	C	0.889630	-0.664394	-0.074962
C78	C	1.389630	-0.164394	0.425038
C79	C	0.889613	-0.664416	0.074944
C80	C	1.389613	-0.164416	0.574944
C81	C	0.890781	-0.591591	0.074945
C82	C	1.390781	-0.091591	0.574945
C83	C	0.891380	-0.555173	-0.000008
C84	C	1.391380	-0.055173	0.499992
C85	C	1.032152	0.088683	0.000006
C86	C	1.532152	0.588683	0.500006
C87	C	1.116168	0.089916	0.000002
C88	C	1.616168	0.589916	0.500002
C89	C	0.887806	0.221678	-0.000007
C90	C	1.387806	0.721678	0.499993
C91	C	0.889041	0.299184	-0.000015
C92	C	1.389041	0.799184	0.499985
N93	N	0.893741	0.094007	0.195671
N94	N	1.393741	0.594007	0.695671
N95	N	0.893781	0.094022	-0.195661
N96	N	1.393781	0.594022	0.304339
C97	C	0.945369	0.046472	0.238941
C98	C	1.445369	0.546472	0.738941
C99	C	0.945373	0.046471	0.325488
C100	C	1.445373	0.546471	0.825488
C101	C	0.893751	0.094010	0.368764
C102	C	1.393751	0.594010	0.868764
C103	C	0.842118	0.141547	0.325488
C104	C	1.342118	0.641547	0.825488
C105	C	0.842111	0.141544	0.238942
C106	C	1.342111	0.641544	0.738942
C107	C	0.842143	0.141560	0.674516
C108	C	1.342143	0.641560	1.174516
C109	C	0.842156	0.141561	0.761068
C110	C	1.342156	0.641561	1.261068
C111	C	0.945405	0.046488	0.761061
C112	C	1.445405	0.546488	1.261061
C113	C	0.945399	0.046485	0.674516
C114	C	1.445399	0.546485	1.174516
C115	C	0.893763	0.094019	0.631248
C116	C	1.393763	0.594019	1.131248
C117	C	0.893758	0.094018	0.537404
C118	C	1.393758	0.594018	1.037404
C119	C	0.893759	0.094014	0.462606
C120	C	1.393759	0.594014	0.962606
H121	H	0.520809	0.095890	-0.135977
H122	H	1.020809	0.595890	0.364023
H123	H	0.891289	-0.561915	-0.135990
H124	H	1.391289	-0.061915	0.364010
H125	H	0.898394	-0.117897	-0.135963
H126	H	1.398394	0.382103	0.364037
H127	H	0.987448	0.007780	0.796300
H128	H	1.487448	0.507780	1.296300
H129	H	0.800117	0.180274	0.796302
H130	H	1.300117	0.680274	1.296302
H131	H	0.800101	0.180265	0.639294
H132	H	1.300101	0.680265	1.139294
Br133	Br	0.499358	0.095582	0.176671
Br134	Br	0.999358	0.595582	0.676671
H135	H	0.266722	0.092138	-0.135985
H136	H	0.766722	0.592138	0.364015
H137	H	0.664027	0.098009	-0.135983
H138	H	1.164027	0.598009	0.364017
H139	H	0.889164	-0.694026	-0.135995
H140	H	1.389164	-0.194026	0.364005
H141	H	0.896270	-0.250008	-0.135970
H142	H	1.396270	0.249992	0.364030
Br143	Br	0.102084	0.089719	-0.176670
Br144	Br	0.602084	0.589719	0.323330
Br145	Br	0.891547	-0.542193	0.176666
Br146	Br	1.391547	-0.042193	0.676666
H147	H	0.987412	0.007764	0.360717
H148	H	1.487412	0.507764	0.860717
Br149	Br	0.685423	0.098328	0.176671
Br150	Br	1.185423	0.598328	0.676671
Br151	Br	0.895905	-0.269825	0.176680
Br152	Br	1.395905	0.230175	0.676680
Br153	Br	0.772052	0.206060	0.384216
Br154	Br	1.272052	0.706060	0.884216
H155	H	0.987436	0.007777	0.639283
H156	H	1.487436	0.507777	1.139283
Br157	Br	0.888807	-0.713844	0.176658
Br158	Br	1.388807	-0.213844	0.676658
H159	H	0.898334	-0.117934	0.136005
H160	H	1.398334	0.382066	0.636005
H161	H	0.987408	0.007764	0.203711
H162	H	1.487408	0.507764	0.703711
H163	H	0.800069	0.180251	0.203713
H164	H	1.300069	0.680251	0.703713
Br165	Br	0.288129	0.092459	0.176668
Br166	Br	0.788129	0.592459	0.676668
H167	H	0.123484	0.090026	0.135980
H168	H	0.623484	0.590026	0.635980
