data_functionalizedCrystal
_audit_creation_method	'MofGen! by Chris Wilmer'
_symmetry_space_group_name_H-M	'P1'
_symmetry_Int_Tables_number	1
_symmetry_cell_setting	triclinic
loop_
_symmetry_equiv_pos_as_xyz
  x,y,z
_cell_length_a	8.497374
_cell_length_b	13.032721
_cell_length_c	13.032831
_cell_angle_alpha	89.097115
_cell_angle_beta	82.827283
_cell_angle_gamma	82.830905
loop_
_atom_site_label
_atom_site_type_symbol
_atom_site_fract_x
_atom_site_fract_y
_atom_site_fract_z
Zn1	Zn	1.299749	-0.609635	-1.519982
Zn2	Zn	1.064703	-0.781567	-1.498071
Zn3	Zn	0.998870	-0.587743	-1.348061
Zn4	Zn	1.291326	-0.759681	-1.326132
O5	O	1.163662	-0.684657	-1.423062
O6	O	1.299646	-0.650764	-1.660983
O7	O	0.835209	-0.755853	-1.478179
O8	O	1.014756	-0.446737	-1.389213
O9	O	1.126959	-0.777081	-1.644885
O10	O	1.235810	-0.462821	-1.515523
O11	O	0.786842	-0.613452	-1.367967
O12	O	1.006589	-0.592230	-1.201245
O13	O	1.513205	-0.739780	-1.351839
O14	O	1.221455	-0.718552	-1.185134
O15	O	1.519393	-0.629542	-1.494260
O16	O	1.118792	-0.922574	-1.456916
O17	O	1.285291	-0.906494	-1.330593
C18	C	1.208312	-0.951852	-1.389026
C19	C	1.227486	-1.066171	-1.374559
C20	C	1.105965	-0.650641	-1.155876
C21	C	1.081324	-0.636114	-1.041569
C22	C	1.153738	-1.125067	-1.430666
C23	C	1.173554	-1.243222	-1.415716
C24	C	1.575141	-0.684657	-1.423054
C25	C	1.753788	-0.684668	-1.423055
C26	C	1.221586	-0.718806	-1.691291
C27	C	1.246269	-0.733358	-1.805594
C28	C	1.118879	-0.416421	-1.457259
C29	C	1.099795	-0.302116	-1.471831
C30	C	1.176523	-0.692239	-0.982652
C31	C	1.151057	-0.677225	-0.864510
H32	H	1.075935	-1.088019	-1.489775
H33	H	1.251375	-1.280269	-1.356612
H34	H	1.305302	-1.103223	-1.315459
C35	C	1.310434	-0.770982	-1.032159
C36	C	1.415157	-0.720640	-1.101259
C37	C	1.538525	-0.793149	-1.146892
H38	H	1.367040	-0.804288	-0.979991
H39	H	1.266469	-0.821005	-1.068427
H40	H	1.459119	-0.670636	-1.064992
H41	H	1.358599	-0.687339	-1.153446
H42	H	1.494560	-0.843172	-1.183160
H43	H	1.595118	-0.826451	-1.094717
H44	H	1.609586	-0.759004	-1.193788
C45	C	1.380194	-0.812105	-0.855090
C46	C	1.484921	-0.761763	-0.924188
C47	C	1.608297	-0.834270	-0.969812
H48	H	1.436795	-0.845407	-0.802918
H49	H	1.336238	-0.862132	-0.891359
H50	H	1.528874	-0.711755	-0.887920
H51	H	1.428368	-0.728466	-0.976379
H52	H	1.564342	-0.884297	-1.006081
H53	H	1.664885	-0.867567	-0.917633
H54	H	1.679361	-0.800125	-1.016707
C55	C	0.947525	-0.557321	-0.992015
C56	C	0.948822	-0.558128	-0.884683
C57	C	0.825567	-0.485572	-0.839001
H58	H	0.962841	-0.490398	-1.018238
H59	H	0.847707	-0.574494	-1.007599
H60	H	1.048617	-0.540949	-0.869107
H61	H	0.933486	-0.625034	-0.858431
H62	H	0.725749	-0.502745	-0.854585
H63	H	0.840894	-0.418654	-0.865232
H64	H	0.826422	-0.486116	-0.766172
H65	H	1.021987	-1.265071	-1.530944
H66	H	1.050699	-0.618052	-0.827493
