data_functionalizedCrystal
_audit_creation_method	'MofGen! by Chris Wilmer'
_symmetry_space_group_name_H-M	'P1'
_symmetry_Int_Tables_number	1
_symmetry_cell_setting	triclinic
loop_
_symmetry_equiv_pos_as_xyz
  x,y,z
_cell_length_a	10.654541
_cell_length_b	12.503552
_cell_length_c	10.654545
_cell_angle_alpha	93.556138
_cell_angle_beta	95.515322
_cell_angle_gamma	93.555982
loop_
_atom_site_label
_atom_site_type_symbol
_atom_site_fract_x
_atom_site_fract_y
_atom_site_fract_z
O1	O	1.675029	0.089282	-0.169191
O2	O	1.309551	0.089291	-0.185999
O3	O	1.500692	0.089285	0.005144
O4	O	1.483888	0.089287	-0.360334
O5	O	1.486300	-0.089357	-0.009243
O6	O	1.295159	-0.089351	-0.200387
O7	O	1.660637	-0.089360	-0.183578
Cu8	Cu	1.476584	-0.105667	-0.193296
Cu9	Cu	1.493604	0.105598	-0.176281
O10	O	1.469496	-0.089355	-0.374722
C11	C	1.255557	-0.000029	-0.191959
C12	C	1.116114	-0.000026	-0.188268
N13	N	1.464623	-0.254260	-0.205263
C14	C	1.088145	-0.000011	-0.416832
C15	C	1.008652	0.000001	-0.529374
C16	C	0.877634	0.000002	-0.525898
C17	C	0.826107	-0.000012	-0.409868
C18	C	0.905600	-0.000024	-0.297326
C19	C	1.036620	-0.000022	-0.300814
C20	C	0.933568	-0.000046	-0.068766
C21	C	1.064587	-0.000039	-0.072238
C22	C	0.882041	-0.000060	0.047264
C23	C	0.961535	-0.000064	0.159809
C24	C	1.092560	-0.000064	0.156329
C25	C	1.144080	-0.000051	0.040304
C26	C	1.523165	-0.526694	-0.146697
C27	C	1.447037	-0.473368	-0.222867
C28	C	1.456824	-0.351445	-0.213070
C29	C	1.513379	-0.648629	-0.156492
C30	C	1.714631	-0.000038	-0.177618
C31	C	1.854075	-0.000034	-0.181308
C32	C	1.492262	-0.000034	0.044749
C33	C	1.488570	-0.000027	0.184192
N34	N	1.505575	0.254190	-0.164305
C35	C	1.477926	-0.000033	-0.414326
C36	C	1.481619	-0.000033	-0.553769
C37	C	1.504275	0.194734	0.199887
C38	C	1.510398	0.292114	0.273244
C39	C	1.506929	0.292115	0.404263
C40	C	1.497333	0.194726	0.461926
C41	C	1.491210	0.097346	0.388569
C42	C	1.494684	0.097355	0.257549
C43	C	1.475496	-0.097413	0.372874
C44	C	1.478974	-0.097416	0.241856
C45	C	1.465900	-0.194802	0.430537
C46	C	1.459786	-0.292185	0.357181
C47	C	1.463257	-0.292182	0.226155
C48	C	1.472851	-0.194797	0.168499
H49	H	1.194827	0.000012	-0.419671
F50	F	1.352244	-0.533379	-0.317722
H51	H	1.451965	-0.371471	0.404141
H52	H	1.050620	0.000009	-0.623844
F53	F	1.617957	-0.466688	-0.051851
H54	H	1.507115	0.194743	0.093207
F55	F	1.520637	0.395758	0.211869
F56	F	1.513435	0.395757	0.482336
F57	F	1.462197	-0.194798	0.569978
F58	F	1.283520	-0.000045	0.036591
H59	H	1.494494	0.194736	0.568607
F60	F	1.456732	-0.395829	0.148091
H61	H	0.812910	0.000004	-0.617541
H62	H	1.475684	-0.194785	0.061818
F63	F	0.906688	-0.000087	0.283282
H64	H	0.719423	-0.000024	-0.407050
H65	H	0.775358	-0.000065	0.050085
H66	H	1.157277	-0.000077	0.247975
