data_functionalizedCrystal
_audit_creation_method	'MofGen! by Chris Wilmer'
_symmetry_space_group_name_H-M	'P1'
_symmetry_Int_Tables_number	1
_symmetry_cell_setting	triclinic
loop_
_symmetry_equiv_pos_as_xyz
  x,y,z
_cell_length_a	19.188905
_cell_length_b	19.188930
_cell_length_c	17.666332
_cell_angle_alpha	89.988397
_cell_angle_beta	89.983521
_cell_angle_gamma	83.139668
loop_
_atom_site_label
_atom_site_type_symbol
_atom_site_fract_x
_atom_site_fract_y
_atom_site_fract_z
O1	O	0.926161	0.087086	-0.063081
O2	O	0.722847	0.098838	-0.063057
O3	O	0.830371	-0.008694	-0.063055
O4	O	0.818637	0.194618	-0.063083
O5	O	0.830352	-0.008700	0.062842
O6	O	0.722828	0.098832	0.062840
O7	O	0.926142	0.087080	0.062815
Cu8	Cu	0.824483	0.092956	0.074323
Cu9	Cu	0.824506	0.092962	-0.074565
O10	O	0.818618	0.194612	0.062814
C11	C	0.696826	0.098458	-0.000105
C12	C	0.619321	0.097324	-0.000095
C13	C	0.582939	0.096782	-0.068723
C14	C	0.510116	0.095709	-0.068732
C15	C	0.473678	0.095164	-0.000110
C16	C	0.510068	0.095709	0.068528
C17	C	0.582889	0.096789	0.068535
N18	N	0.364650	0.053733	0.050966
N19	N	0.295473	0.052705	0.050954
C20	C	0.254272	0.091911	-0.000127
N21	N	0.284861	0.132174	-0.051208
N22	N	0.354045	0.133199	-0.051199
C23	C	0.394716	0.093993	-0.000110
C24	C	0.138926	0.090207	-0.068770
C25	C	0.066101	0.089138	-0.068777
C26	C	0.066055	0.089131	0.068485
C27	C	0.138879	0.090207	0.068490
C28	C	0.175310	0.090742	-0.000140
C29	C	0.829982	-0.034708	-0.000104
C30	C	0.828841	-0.112213	-0.000098
C31	C	0.891933	-0.157142	-0.000102
C32	C	0.890861	-0.229966	-0.000114
C33	C	0.826694	-0.257857	-0.000107
C34	C	0.763594	-0.212917	-0.000107
C35	C	0.764668	-0.140095	-0.000102
N36	N	0.777640	-0.365859	0.042744
N37	N	0.776624	-0.435038	0.042742
C38	C	0.823456	-0.477265	-0.000122
N39	N	0.871352	-0.447702	-0.042973
N40	N	0.872369	-0.378517	-0.042967
C41	C	0.825523	-0.336819	-0.000112
C42	C	0.885390	-0.601159	-0.000140
C43	C	0.884315	-0.673984	-0.000156
C44	C	0.757047	-0.656933	-0.000142
C45	C	0.758123	-0.584110	-0.000133
C46	C	0.822296	-0.556228	-0.000128
C47	C	0.952163	0.087460	-0.000138
C48	C	1.029668	0.088594	-0.000153
C49	C	0.819007	0.220626	-0.000139
C50	C	0.820148	0.298131	-0.000150
N51	N	0.824473	0.092950	0.179042
N52	N	0.824522	0.092962	-0.179284
C53	C	0.872100	0.045358	0.218653
C54	C	0.872104	0.045355	0.297901
C55	C	0.824488	0.092956	0.337535
C56	C	0.776852	0.140552	0.297915
C57	C	0.776844	0.140549	0.218668
N58	N	0.815411	0.154764	0.461945
N59	N	0.815422	0.154764	0.537226
C60	C	0.824506	0.092966	0.576299
N61	N	0.833592	0.031164	0.537247
N62	N	0.833584	0.031165	0.461960
C63	C	0.824490	0.092964	0.423464
C64	C	0.872140	0.045366	0.701838
C65	C	0.872139	0.045361	0.781087
C66	C	0.776890	0.140564	0.781100
C67	C	0.776888	0.140562	0.701852
C68	C	0.824516	0.092964	0.662226
H69	H	0.612597	0.097218	-0.124607
H70	H	0.937644	-0.578456	-0.000139
H71	H	0.935694	-0.710565	-0.000164
H72	H	0.910880	0.006599	0.186392
H73	H	0.738060	0.179305	0.186417
H74	H	0.910889	0.006598	0.330157
H75	H	0.942239	-0.266555	-0.000120
H76	H	0.910920	0.006606	0.669574
H77	H	0.168501	0.090643	0.124374
H78	H	0.704801	-0.679641	-0.000140
H79	H	0.910921	0.006602	0.813339
H80	H	0.738118	0.179319	0.813369
H81	H	0.711349	-0.235631	-0.000103
H82	H	0.706747	-0.547527	-0.000125
H83	H	0.738108	0.179319	0.669599
H84	H	0.036479	0.088702	-0.124664
H85	H	0.944187	-0.134445	-0.000101
H86	H	0.738081	0.179308	0.330189
H87	H	0.480488	0.095270	-0.124620
H88	H	0.612511	0.097231	0.124422
H89	H	0.480396	0.095267	0.124401
H90	H	0.036388	0.088691	0.124360
H91	H	0.168589	0.090650	-0.124653
H92	H	0.713289	-0.103513	-0.000099
