data_functionalizedCrystal
_audit_creation_method	'MofGen! by Chris Wilmer'
_symmetry_space_group_name_H-M	'P1'
_symmetry_Int_Tables_number	1
_symmetry_cell_setting	triclinic
loop_
_symmetry_equiv_pos_as_xyz
  x,y,z
_cell_length_a	12.759401
_cell_length_b	16.120444
_cell_length_c	12.759393
_cell_angle_alpha	92.863363
_cell_angle_beta	89.982620
_cell_angle_gamma	92.926596
loop_
_atom_site_label
_atom_site_type_symbol
_atom_site_fract_x
_atom_site_fract_y
_atom_site_fract_z
Zn1	Zn	1.584952	-0.331853	-0.615151
Zn2	Zn	1.575904	-0.471291	-0.448366
Zn3	Zn	1.409255	-0.331897	-0.439493
Zn4	Zn	1.400301	-0.471227	-0.624004
O5	O	1.492603	-0.401567	-0.531754
O6	O	1.730772	-0.350358	-0.593035
O7	O	1.553758	-0.452846	-0.300171
O8	O	1.440096	-0.215225	-0.455376
O9	O	1.724125	-0.452803	-0.470499
O10	O	1.569180	-0.215193	-0.584431
O11	O	1.431322	-0.350433	-0.293652
O12	O	1.261047	-0.350371	-0.463960
O13	O	1.424835	-0.452693	-0.769848
O14	O	1.254468	-0.452736	-0.599519
O15	O	1.560497	-0.350295	-0.763344
O16	O	1.545075	-0.587948	-0.479083
O17	O	1.416061	-0.587901	-0.608123
C18	C	1.219637	-0.401552	-0.531738
C19	C	1.102859	-0.401565	-0.531758
C20	C	1.478643	-0.618175	-0.545550
C21	C	1.472767	-0.710841	-0.551487
C22	C	1.044594	-0.454952	-0.602238
C23	C	0.934869	-0.454962	-0.602250
C24	C	0.941685	-0.348197	-0.461293
C25	C	1.051408	-0.348183	-0.461287
C26	C	1.040657	-0.516595	-0.683615
C27	C	0.930933	-0.516605	-0.683627
C28	C	1.523342	-0.921786	-0.501180
C29	C	1.462058	-0.880497	-0.562338
C30	C	1.468019	-0.786091	-0.556298
C31	C	1.517383	-1.016200	-0.507218
C32	C	1.766635	-0.401583	-0.531770
C33	C	1.883411	-0.401590	-0.531776
C34	C	1.492677	-0.401482	-0.805782
C35	C	1.492708	-0.401446	-0.922556
C36	C	1.506646	-0.184113	-0.517927
C37	C	1.512630	-0.091447	-0.512034
C38	C	1.428985	-0.348110	-0.974029
C39	C	1.429018	-0.348085	-1.083752
C40	C	1.556507	-0.454735	-1.090519
C41	C	1.556467	-0.454763	-0.980798
C42	C	1.355383	-0.286534	-0.970123
C43	C	1.355416	-0.286509	-1.079845
C44	C	1.492594	-0.401591	-0.258788
C45	C	1.492781	-0.401393	-0.141999
H46	H	1.098844	-0.304705	-0.403902
F47	F	1.387627	-0.926963	-0.636700
H48	H	1.580280	-0.886238	-0.444290
F49	F	1.624279	-0.511539	-0.926021
H50	H	0.899780	-0.304734	-0.403919
H51	H	1.071569	-0.499375	-0.763924
F52	F	1.398645	-0.206382	-0.920543
F53	F	0.886570	-0.600973	-0.660315
H54	H	1.070739	-0.577897	-0.658241
H55	H	1.608419	-0.498143	-1.137953
H56	H	1.272884	-0.303824	-0.941448
F57	F	0.888420	-0.486481	-0.782807
H58	H	1.276636	-0.309621	-1.115346
F59	F	1.389232	-0.202077	-1.113412
