data_functionalizedCrystal
_audit_creation_method	'MofGen! by Chris Wilmer'
_symmetry_space_group_name_H-M	'P1'
_symmetry_Int_Tables_number	1
_symmetry_cell_setting	triclinic
loop_
_symmetry_equiv_pos_as_xyz
  x,y,z
_cell_length_a	15.944551
_cell_length_b	16.992695
_cell_length_c	15.455438
_cell_angle_alpha	87.143447
_cell_angle_beta	92.669827
_cell_angle_gamma	87.083481
loop_
_atom_site_label
_atom_site_type_symbol
_atom_site_fract_x
_atom_site_fract_y
_atom_site_fract_z
O1	O	-1.117868	-0.104551	0.072040
O2	O	-0.617868	0.395449	0.572040
O3	O	-0.874153	-0.117020	0.072062
O4	O	-0.374153	0.382980	0.572062
O5	O	-0.995034	0.003357	0.072044
O6	O	-0.495034	0.503357	0.572044
O7	O	-0.996987	-0.224929	0.072058
O8	O	-0.496987	0.275071	0.572058
O9	O	-1.001908	0.010217	-0.072216
O10	O	-0.501908	0.510217	0.427784
O11	O	-0.881027	-0.110160	-0.072199
O12	O	-0.381027	0.389840	0.427801
O13	O	-1.124742	-0.097691	-0.072220
O14	O	-0.624742	0.402309	0.427780
Cu15	Cu	-1.003512	-0.103299	-0.085381
Cu16	Cu	-0.503512	0.396701	0.414619
Cu17	Cu	-0.995383	-0.111412	0.085223
Cu18	Cu	-0.495383	0.388588	0.585223
O19	O	-1.003861	-0.218069	-0.072203
O20	O	-0.503861	0.281931	0.427797
C21	C	-0.846262	-0.113073	-0.000066
C22	C	-0.346262	0.386927	0.499934
C23	C	-0.752911	-0.111521	-0.000058
C24	C	-0.252911	0.388479	0.499942
C25	C	-0.995957	0.036000	-0.000086
C26	C	-0.495957	0.536000	0.499914
C27	C	-0.988457	0.123045	-0.000085
C28	C	-0.488457	0.623045	0.499915
C29	C	-1.152634	-0.101639	-0.000091
C30	C	-0.652634	0.398361	0.499909
C31	C	-1.245984	-0.103190	-0.000093
C32	C	-0.745984	0.396810	0.499907
C33	C	-0.532803	-0.033196	-0.000079
C34	C	-0.032803	0.466804	0.499921
C35	C	-0.470832	-0.072950	0.071051
C36	C	0.029168	0.427050	0.571051
C37	C	-0.581998	-0.108713	-0.000068
C38	C	-0.081998	0.391287	0.499932
C39	C	-0.477633	-0.066204	-0.071178
C40	C	0.022367	0.433796	0.428822
C41	C	-0.416903	-0.105996	-0.000082
C42	C	0.083097	0.394004	0.499918
C43	C	-0.521254	-0.148491	0.071121
C44	C	-0.021254	0.351509	0.571121
C45	C	-0.528063	-0.141731	-0.071172
C46	C	-0.028063	0.358269	0.428828
C47	C	-0.466114	-0.181541	-0.000025
C48	C	0.033886	0.318459	0.499975
C49	C	-0.677104	-0.110277	-0.000059
C50	C	-0.177104	0.389723	0.499941
C51	C	-0.321798	-0.104438	-0.000084
C52	C	0.178202	0.395562	0.499916
C53	C	-1.002938	-0.250711	-0.000071
C54	C	-0.502938	0.249289	0.499929
C55	C	-1.010438	-0.337756	-0.000066
C56	C	-0.510438	0.162244	0.499934
N57	N	-1.009236	-0.097593	-0.205375
N58	N	-0.509236	0.402407	0.294625
C59	C	-1.060823	0.173282	-0.000092
C60	C	-0.560823	0.673282	0.499908
C61	C	-1.053770	0.255068	-0.000083
C62	C	-0.553770	0.755068	0.499917
C63	C	-0.974352	0.286616	-0.000073
C64	C	-0.474352	0.786616	0.499927
C65	C	-0.901981	0.236373	-0.000063
C66	C	-0.401981	0.736373	0.499937
C67	C	-0.909034	0.154588	-0.000066
C68	C	-0.409034	0.654588	0.499934
C69	C	-0.945120	0.530215	-0.000059
C70	C	-0.445120	1.030215	0.499941
C71	C	-0.938073	0.612007	-0.000059
C72	C	-0.438073	1.112007	0.499941
C73	C	-1.089862	0.630697	-0.000077
C74	C	-0.589862	1.130697	0.499923
C75	C	-1.096909	0.548909	-0.000085
C76	C	-0.596909	1.048909	0.499915
C77	C	-1.024537	0.498672	-0.000070
C78	C	-0.524537	0.998672	0.499930
N79	N	-0.967141	0.370215	-0.000067
N80	N	-0.467141	0.870215	0.499933
N81	N	-1.031748	0.415075	-0.000070
N82	N	-0.531748	0.915075	0.499930
C83	C	-0.957870	-0.148714	-0.250783
C84	C	-0.457870	0.351286	0.249217
C85	C	-0.962223	-0.144395	-0.341590
C86	C	-0.462223	0.355605	0.158410
C87	C	-1.017937	-0.088951	-0.386987
C88	C	-0.517937	0.411049	0.113013
C89	C	-1.069309	-0.037828	-0.341573
C90	C	-0.569309	0.462172	0.158427
C91	C	-1.064960	-0.042151	-0.250768
C92	C	-0.564960	0.457849	0.249232
C93	C	-1.036688	-0.070312	-0.658564
C94	C	-0.536688	0.429688	-0.158564
C95	C	-1.041031	-0.065991	-0.749375
C96	C	-0.541031	0.434009	-0.249375
C97	C	-0.933946	-0.172560	-0.749386
C98	C	-0.433946	0.327440	-0.249386
C99	C	-0.929599	-0.176875	-0.658579
C100	C	-0.429599	0.323125	-0.158579
C101	C	-0.980973	-0.125754	-0.613173
C102	C	-0.480973	0.374246	-0.113173
N103	N	-1.022386	-0.084534	-0.479806
N104	N	-0.522386	0.415466	0.020194
N105	N	-0.976529	-0.130176	-0.520355
N106	N	-0.476529	0.369824	-0.020355
N107	N	-0.989666	-0.117112	0.205217
N108	N	-0.489666	0.382888	0.705217
H109	H	-0.561928	0.029473	0.000005
H110	H	-0.061928	0.529473	0.500005
H111	H	-0.850106	0.113685	-0.000060
H112	H	-0.350106	0.613685	0.499940
H113	H	-0.892120	-0.214181	-0.786364
H114	H	-0.392120	0.285819	-0.286364
O115	O	-0.546770	-0.194533	0.150879
O116	O	-0.046770	0.305467	0.650879
H117	H	-0.582752	-0.245418	0.130977
H118	H	-0.082752	0.254582	0.630977
H119	H	-1.112698	0.295969	-0.000091
H120	H	-0.612698	0.795969	0.499909
O121	O	-1.120342	0.013008	-0.201792
O122	O	-0.620342	0.513008	0.298208
H123	H	-1.107957	0.000689	-0.131024
H124	H	-0.607957	0.500689	0.368976
O125	O	-0.437545	-0.034433	0.150698
O126	O	0.062455	0.465567	0.650698
H127	H	-0.464407	0.027132	0.150548
H128	H	0.035593	0.527132	0.650548
H129	H	-0.437161	-0.244280	0.000019
H130	H	0.062839	0.255720	0.500019
H131	H	-1.148782	0.671607	-0.000087
H132	H	-0.648782	1.171607	0.499913
H133	H	-1.161579	0.523229	-0.000093
H134	H	-0.661579	1.023229	0.499907
O135	O	-0.561383	-0.180214	-0.150822
O136	O	-0.061383	0.319786	0.349178
H137	H	-0.544141	-0.145939	-0.209784
H138	H	-0.044141	0.354061	0.290216
O139	O	-1.092091	-0.015165	-0.609603
O140	O	-0.592091	0.484835	-0.109603
H141	H	-1.159072	-0.024361	-0.627035
H142	H	-0.659072	0.475639	-0.127035
O143	O	-0.867068	0.476037	-0.000065
O144	O	-0.367068	0.976037	0.499935
H145	H	-0.810662	0.511718	-0.000073
H146	H	-0.310662	1.011718	0.499927
H147	H	-0.458269	-0.031390	-0.131311
H148	H	0.041731	0.468610	0.368689
H149	H	-0.912498	-0.193859	-0.213827
H150	H	-0.412498	0.306141	0.286173
O151	O	-0.852413	0.646043	-0.000046
O152	O	-0.352413	1.146043	0.499954
H153	H	-0.814576	0.623078	0.058763
H154	H	-0.314576	1.123078	0.558763
O155	O	-1.146481	0.139255	-0.000095
O156	O	-0.646481	0.639255	0.499905
H157	H	-1.195615	0.187931	-0.000087
H158	H	-0.695615	0.687931	0.499913
O159	O	-0.816320	0.270394	-0.000062
O160	O	-0.316320	0.770394	0.499938
H161	H	-0.823572	0.335705	-0.000074
H162	H	-0.323572	0.835705	0.499926
O163	O	-0.906863	-0.199568	-0.390569
O164	O	-0.406863	0.300432	0.109431
H165	H	-0.867399	-0.238854	-0.343747
H166	H	-0.367399	0.261146	0.156253
H167	H	-1.086403	-0.020839	-0.786333
H168	H	-0.586403	0.479161	-0.286333
O169	O	-0.869512	-0.236679	-0.609614
O170	O	-0.369512	0.263321	-0.109614
H171	H	-0.834529	-0.271507	-0.656446
H172	H	-0.334529	0.228493	-0.156446
O173	O	-1.129402	0.021975	-0.390530
O174	O	-0.629402	0.521975	0.109470
H175	H	-1.123791	0.016400	-0.461302
H176	H	-0.623791	0.516400	0.038698
