data_functionalizedCrystal
_audit_creation_method	'MofGen! by Chris Wilmer'
_symmetry_space_group_name_H-M	'P1'
_symmetry_Int_Tables_number	1
_symmetry_cell_setting	triclinic
loop_
_symmetry_equiv_pos_as_xyz
  x,y,z
_cell_length_a	25.639242
_cell_length_b	25.639239
_cell_length_c	16.120256
_cell_angle_alpha	92.870449
_cell_angle_beta	92.869764
_cell_angle_gamma	90.034213
loop_
_atom_site_label
_atom_site_type_symbol
_atom_site_fract_x
_atom_site_fract_y
_atom_site_fract_z
Zn1	Zn	0.784258	-0.223230	-0.471562
Zn2	Zn	0.788606	-0.306228	-0.332145
Zn3	Zn	0.701259	-0.218801	-0.332145
Zn4	Zn	0.696782	-0.310627	-0.471489
O5	O	0.742726	-0.264722	-0.401835
O6	O	0.857999	-0.234252	-0.453099
O7	O	0.780713	-0.290936	-0.215483
O8	O	0.712323	-0.146225	-0.350669
O9	O	0.861194	-0.295230	-0.350670
O10	O	0.773302	-0.149478	-0.453098
O11	O	0.716540	-0.226704	-0.215483
O12	O	0.627501	-0.230970	-0.350599
O13	O	0.704692	-0.302728	-0.588161
O14	O	0.624211	-0.298434	-0.452974
O15	O	0.768960	-0.238518	-0.588214
O16	O	0.776372	-0.379976	-0.350599
O17	O	0.708908	-0.383208	-0.452974
C18	C	0.606885	-0.264699	-0.401779
C19	C	0.548772	-0.264703	-0.401774
C20	C	0.186704	-0.299904	-0.455092
C21	C	0.132099	-0.299908	-0.455105
O22	O	0.102415	-0.329810	-0.500389
N23	N	0.106485	-0.264738	-0.401890
C24	C	0.135479	-0.229558	-0.348664
O25	O	0.108678	-0.199643	-0.303402
C26	C	0.190083	-0.229552	-0.348656
C27	C	0.215694	-0.264728	-0.401868
C28	C	0.212315	-0.335077	-0.508300
C29	C	0.266916	-0.335074	-0.508286
C30	C	0.295906	-0.299898	-0.455063
C31	C	0.270295	-0.264725	-0.401854
C32	C	0.219075	-0.194371	-0.295435
C33	C	0.273682	-0.194368	-0.295431
C34	C	0.299293	-0.229544	-0.348644
C35	C	0.353885	-0.229546	-0.348616
N36	N	0.379499	-0.264716	-0.401831
C37	C	0.350510	-0.299892	-0.455054
C38	C	0.020808	-0.229572	-0.348687
C39	C	-0.033795	-0.229580	-0.348690
C40	C	-0.037171	-0.299929	-0.455132
C41	C	0.017433	-0.299924	-0.455124
C42	C	0.046422	-0.264742	-0.401902
C43	C	0.465176	-0.299883	-0.455019
C44	C	0.519782	-0.299879	-0.454998
C45	C	0.523153	-0.229528	-0.348559
C46	C	0.468552	-0.229534	-0.348577
C47	C	0.439564	-0.264714	-0.401814
O48	O	0.383604	-0.199658	-0.303357
O49	O	0.377317	-0.329798	-0.500316
C50	C	0.742640	-0.400563	-0.401797
C51	C	0.742649	-0.458677	-0.401809
C52	C	0.777939	-0.817349	-0.348619
C53	C	0.777959	-0.871953	-0.348631
O54	O	0.807873	-0.898750	-0.303365
N55	N	0.742816	-0.900962	-0.401891
C56	C	0.707655	-0.875364	-0.455149
O57	O	0.677766	-0.905053	-0.500452
C58	C	0.707638	-0.820761	-0.455141
C59	C	0.742779	-0.791754	-0.401872
C60	C	0.813077	-0.788342	-0.295355
C61	C	0.813057	-0.733741	-0.295343
C62	C	0.777897	-0.708147	-0.348595
C63	C	0.742759	-0.737153	-0.401860
C64	C	0.672480	-0.795164	-0.508403
C65	C	0.672467	-0.740556	-0.508391
C66	C	0.707608	-0.711550	-0.455122
C67	C	0.707579	-0.656958	-0.455100
N68	N	0.742721	-0.627949	-0.401840
C69	C	0.777880	-0.653543	-0.348588
C70	C	0.707694	-0.990035	-0.455162
C71	C	0.707709	-1.044638	-0.455166
C72	C	0.778012	-1.041223	-0.348648
C73	C	0.777995	-0.986619	-0.348641
C74	C	0.742837	-0.961026	-0.401902
C75	C	0.777834	-0.538877	-0.348566
C76	C	0.777809	-0.484272	-0.348556
C77	C	0.707507	-0.487691	-0.455076
C78	C	0.707530	-0.542292	-0.455083
C79	C	0.742698	-0.567884	-0.401825
O80	O	0.677681	-0.630125	-0.500345
O81	O	0.807769	-0.623848	-0.303300
C82	C	0.879097	-0.264744	-0.401892
C83	C	0.937211	-0.264754	-0.401917
C84	C	0.735841	-0.271608	-0.619282
C85	C	0.732907	-0.274542	-0.711946
C86	C	0.742827	-0.128350	-0.401892
C87	C	0.742870	-0.070237	-0.401916
C88	C	0.758025	-0.249405	-0.922915
C89	C	0.727533	-0.279878	-0.881597
C90	C	0.730524	-0.276908	-0.787194
C91	C	0.755035	-0.252375	-1.017326
C92	C	0.749614	-0.257825	-0.185234
C93	C	0.752650	-0.254743	-0.092572
H94	H	0.188718	-0.363722	-0.551646
Br95	Br	0.433793	-0.181805	-0.276344
H96	H	0.806472	-0.559708	-0.305200
H97	H	0.679089	-1.068250	-0.498535
H98	H	0.044407	-0.200923	-0.305341
Br99	Br	0.624791	-0.834516	-0.580711
Br100	Br	0.659826	-0.581659	-0.527358
H101	H	0.198232	-0.165728	-0.252101
H102	H	-0.054642	-0.200941	-0.305351
Br103	Br	0.825727	-1.075969	-0.276373
Br104	Br	0.680279	-0.327078	-0.940802
Br105	Br	0.301666	-0.382813	-0.580511
H106	H	-0.060784	-0.328570	-0.498472
H107	H	0.786375	-0.221090	-0.887393
H108	H	0.540632	-0.328525	-0.498330
Br109	Br	0.562506	-0.181792	-0.276330
Br110	Br	0.425844	-0.347628	-0.527270
H111	H	0.038282	-0.328566	-0.498455
H112	H	0.841711	-0.809175	-0.251990
Br113	Br	0.825688	-0.947259	-0.276344
Br114	Br	0.659971	-0.955307	-0.527446
H115	H	0.678879	-0.466844	-0.498431
Br116	Br	0.313021	-0.146617	-0.223200
H117	H	0.806425	-0.460656	-0.305175
H118	H	0.643837	-0.719721	-0.551765
Br119	Br	0.860758	-0.694384	-0.223057
