data_functionalizedCrystal
_audit_creation_method	'MofGen! by Chris Wilmer'
_symmetry_space_group_name_H-M	'P1'
_symmetry_Int_Tables_number	1
_symmetry_cell_setting	triclinic
loop_
_symmetry_equiv_pos_as_xyz
  x,y,z
_cell_length_a	16.625545
_cell_length_b	15.297476
_cell_length_c	15.298259
_cell_angle_alpha	88.370467
_cell_angle_beta	80.286739
_cell_angle_gamma	80.328684
loop_
_atom_site_label
_atom_site_type_symbol
_atom_site_fract_x
_atom_site_fract_y
_atom_site_fract_z
Zn1	Zn	-0.402717	1.253479	-0.726673
Zn2	Zn	0.097283	1.753479	-0.226673
Zn3	Zn	-0.564138	1.278711	-0.580172
Zn4	Zn	-0.064138	1.778711	-0.080172
Zn5	Zn	-0.410561	1.132332	-0.554896
Zn6	Zn	0.089439	1.632332	-0.054896
Zn7	Zn	-0.518740	1.106958	-0.701311
Zn8	Zn	-0.018740	1.606958	-0.201311
O9	O	-0.474039	1.192870	-0.640763
O10	O	0.025961	1.692870	-0.140763
O11	O	-0.439847	1.379406	-0.728432
O12	O	0.060153	1.879406	-0.228432
O13	O	-0.566048	1.280472	-0.454232
O14	O	-0.066048	1.780472	0.045768
O15	O	-0.296691	1.148462	-0.577719
O16	O	0.203309	1.648462	-0.077719
O17	O	-0.558442	1.397944	-0.620797
O18	O	-0.058442	1.897944	-0.120797
O19	O	-0.290929	1.237468	-0.703923
O20	O	0.209071	1.737468	-0.203923
O21	O	-0.453215	1.172928	-0.435662
O22	O	0.046785	1.672928	0.064338
O23	O	-0.409194	1.006386	-0.553126
O24	O	0.090806	1.506386	-0.053126
O25	O	-0.481067	1.105215	-0.827263
O26	O	0.018933	1.605215	-0.327263
O27	O	-0.488673	0.987744	-0.660697
O28	O	0.011327	1.487744	-0.160697
O29	O	-0.395826	1.212864	-0.845896
O30	O	0.104174	1.712864	-0.345896
O31	O	-0.670945	1.255868	-0.596205
O32	O	-0.170945	1.755868	-0.096205
O33	O	-0.637591	1.129681	-0.685206
O34	O	-0.137591	1.629681	-0.185206
C35	C	-0.444859	0.965281	-0.601417
C36	C	0.055141	1.465281	-0.101417
C37	C	-0.432391	0.867914	-0.584606
C38	C	0.067609	1.367914	-0.084606
C39	C	-0.385049	0.831840	-0.520786
C40	C	0.114951	1.331840	-0.020786
C41	C	-0.373333	0.740359	-0.504989
C42	C	0.126667	1.240359	-0.004989
C43	C	-0.408953	0.684943	-0.553014
C44	C	0.091047	1.184943	-0.053014
C45	C	-0.456291	0.721016	-0.616840
C46	C	0.043709	1.221016	-0.116840
C47	C	-0.468013	0.812506	-0.632634
C48	C	0.031987	1.312506	-0.132634
C49	C	-0.491917	0.665609	-0.664862
C50	C	0.008083	1.165609	-0.164862
C51	C	-0.539255	0.701682	-0.728687
C52	C	-0.039255	1.201682	-0.228687
C53	C	-0.550975	0.793164	-0.744478
C54	C	-0.050975	1.293164	-0.244478
C55	C	-0.515355	0.848580	-0.696453
C56	C	-0.015355	1.348580	-0.196453
C57	C	-0.480195	0.574118	-0.649068
C58	C	0.019805	1.074118	-0.149068
C59	C	-0.563159	0.554785	-0.760915
C60	C	-0.063159	1.054785	-0.260915
C61	C	-0.574875	0.646265	-0.776712
C62	C	-0.074875	1.146265	-0.276712
C63	C	-0.683523	1.192779	-0.640719
C64	C	-0.183523	1.692779	-0.140719
C65	C	-0.773146	1.192816	-0.640743
C66	C	-0.273146	1.692816	-0.140743
C67	C	-0.845929	1.192847	-0.640767
C68	C	-0.345929	1.692847	-0.140767
C69	C	-0.937241	1.192895	-0.640795
C70	C	-0.437241	1.692895	-0.140795
C71	C	-1.010021	1.192938	-0.640814
C72	C	-0.510021	1.692938	-0.140814
C73	C	-1.101338	1.192985	-0.640840
C74	C	-0.601338	1.692985	-0.140840
C75	C	-0.263737	1.192981	-0.640831
C76	C	0.236263	1.692981	-0.140831
C77	C	-0.174119	1.193029	-0.640859
C78	C	0.325881	1.693029	-0.140859
C79	C	-0.432507	1.153395	-0.869253
C80	C	0.067493	1.653395	-0.369253
C81	C	-0.414809	1.136573	-0.966622
C82	C	0.085191	1.636573	-0.466622
C83	C	-0.503334	1.421347	-0.680263
C84	C	-0.003334	1.921347	-0.180263
C85	C	-0.515817	1.518711	-0.697096
C86	C	-0.015817	2.018711	-0.197096
C87	C	-0.599914	1.313128	-1.279756
C88	C	-0.099914	1.813128	-0.779756
C89	C	-0.616546	1.328928	-1.188272
C90	C	-0.116546	1.828928	-0.688272
C91	C	-0.566113	1.280841	-1.132855
C92	C	-0.066113	1.780841	-0.632855
C93	C	-0.499045	1.216950	-1.168931
C94	C	0.000955	1.716950	-0.668931
C95	C	-0.482414	1.201143	-1.260423
C96	C	0.017586	1.701143	-0.760423
C97	C	-0.448614	1.168856	-1.113522
C98	C	0.051386	1.668856	-0.613522
C99	C	-0.381546	1.104965	-1.149598
C100	C	0.118454	1.604965	-0.649598
C101	C	-0.364918	1.089162	-1.241081
C102	C	0.135082	1.589162	-0.741081
C103	C	-0.415351	1.137249	-1.296498
C104	C	0.084649	1.637249	-0.796498
C105	C	-0.465245	1.184663	-1.022031
C106	C	0.034755	1.684663	-0.522031
C107	C	-0.347746	1.072678	-1.002698
C108	C	0.152254	1.572678	-0.502698
C109	C	-0.331113	1.056878	-1.094181
C110	C	0.168887	1.556878	-0.594181
C111	C	-0.515357	1.232242	-0.413170
C112	C	-0.015357	1.732242	0.086830
C113	C	-0.532850	1.249234	-0.315831
C114	C	-0.032850	1.749234	0.184169
H115	H	-0.356058	0.876968	-0.481686
H116	H	0.143942	1.376968	0.018314
N117	N	-0.602030	0.832080	-0.813315
N118	N	-0.102030	1.332080	-0.313315
H119	H	-0.650687	0.876177	-0.784190
H120	H	-0.150687	1.376177	-0.284190
H121	H	-0.622758	0.783046	-0.841327
H122	H	-0.122758	1.283046	-0.341327
N123	N	-0.292578	1.020250	-1.279983
N124	N	0.207422	1.520250	-0.779983
H125	H	-0.252882	1.049316	-1.324106
H126	H	0.247118	1.549316	-0.824106
H127	H	-0.313299	0.973095	-1.310864
H128	H	0.186701	1.473095	-0.810864
N129	N	-0.601585	0.495023	-0.812713
N130	N	-0.101585	0.995023	-0.312713
H131	H	-0.556629	0.450064	-0.846827
H132	H	-0.056629	0.950064	-0.346827
H133	H	-0.633365	0.531823	-0.855486
H134	H	-0.133365	1.031823	-0.355486
H135	H	-0.334795	0.710996	-0.453018
H136	H	0.165205	1.210996	0.046982
N137	N	-0.688878	1.397835	-1.149367
N138	N	-0.188878	1.897835	-0.649367
H139	H	-0.681488	1.457680	-1.176111
H140	H	-0.181488	1.957680	-0.676111
H141	H	-0.691725	1.400473	-1.083005
H142	H	-0.191725	1.900473	-0.583005
H143	H	-0.306679	1.033521	-0.957577
H144	H	0.193321	1.533521	-0.457577
H145	H	-0.613418	0.675649	-0.828679
H146	H	-0.113418	1.175649	-0.328679
H147	H	-0.640974	1.352267	-1.324883
H148	H	-0.140974	1.852267	-0.824883
H149	H	-0.276505	1.004857	-1.123567
H150	H	0.223495	1.504857	-0.623567
H151	H	-0.441649	0.544756	-0.597103
H152	H	0.058351	1.044756	-0.097103
H153	H	-0.519849	1.236689	-0.992668
H154	H	-0.019849	1.736689	-0.492668
H155	H	-0.579661	1.293709	-1.058366
H156	H	-0.079661	1.793709	-0.558366
H157	H	-0.399410	0.610455	-0.540149
H158	H	0.100590	1.110455	-0.040149
H159	H	-0.524890	0.923072	-0.709313
H160	H	-0.024890	1.423072	-0.209313
N161	N	-0.397412	1.120200	-1.395172
N162	N	0.102588	1.620200	-0.895172
H163	H	-0.386291	1.176491	-1.427602
H164	H	0.113709	1.676491	-0.927602
H165	H	-0.446673	1.100237	-1.414328
H166	H	0.053327	1.600237	-0.914328
