data_functionalizedCrystal
_audit_creation_method	'MofGen! by Chris Wilmer'
_symmetry_space_group_name_H-M	'P1'
_symmetry_Int_Tables_number	1
_symmetry_cell_setting	triclinic
loop_
_symmetry_equiv_pos_as_xyz
  x,y,z
_cell_length_a	10.723022
_cell_length_b	10.723024
_cell_length_c	9.798715
_cell_angle_alpha	90.001978
_cell_angle_beta	90.003391
_cell_angle_gamma	84.467548
loop_
_atom_site_label
_atom_site_type_symbol
_atom_site_fract_x
_atom_site_fract_y
_atom_site_fract_z
O1	O	1.657188	0.175015	0.113478
O2	O	1.294036	0.191770	0.113483
O3	O	1.483989	0.001817	0.113475
O4	O	1.467236	0.364969	0.113486
O5	O	1.483975	0.001816	-0.113507
O6	O	1.294022	0.191770	-0.113499
O7	O	1.657174	0.175015	-0.113504
Zn8	Zn	1.475596	0.183392	-0.149540
Zn9	Zn	1.475614	0.183393	0.149519
O10	O	1.467221	0.364969	-0.113496
C11	C	1.247529	0.190551	-0.000008
C12	C	1.108975	0.186904	-0.000006
C13	C	1.060414	0.077365	-0.000009
C14	C	0.917211	0.073593	-0.000007
C15	C	1.482763	-0.044683	-0.000014
C16	C	1.479115	-0.183238	-0.000009
C17	C	1.585403	-0.258221	-0.000009
C18	C	1.581635	-0.401424	-0.000004
C19	C	1.703681	0.176234	-0.000010
C20	C	1.842235	0.179881	-0.000003
C21	C	1.468448	0.411468	-0.000004
C22	C	1.472095	0.550023	0.000000
N23	N	1.475592	0.183391	-0.353640
C24	C	1.555348	0.103283	-0.421420
C25	C	1.555368	0.103279	-0.578582
N26	N	1.475628	0.183384	0.353619
H27	H	1.679188	-0.216399	-0.000018
H28	H	1.623612	0.034697	-0.363100
H29	H	1.407346	0.251976	-0.588102
H30	H	1.623655	0.034700	-0.636870
O31	O	1.137103	-0.031309	0.000053
C32	C	1.064147	-0.133891	0.000017
H33	H	0.967244	-0.103164	0.042985
H34	H	1.111581	-0.212268	0.065919
H35	H	1.054622	-0.169193	-0.108878
O36	O	1.394091	0.265039	-0.423357
C37	C	1.316390	0.197661	-0.506000
H38	H	1.365020	0.100334	-0.527255
H39	H	1.297332	0.249516	-0.606541
H40	H	1.223987	0.188652	-0.451034
H41	H	1.672625	-0.465857	-0.000009
H42	H	0.875399	-0.020195	0.000025
H43	H	1.044532	0.277893	0.000003
O44	O	0.891946	0.291857	0.000184
C45	C	0.851790	0.360128	0.117762
H46	H	0.761171	0.325465	0.156954
H47	H	0.834741	0.463904	0.091330
H48	H	0.926985	0.346222	0.200077
O49	O	1.363449	-0.373254	0.000183
C50	C	1.293515	-0.396487	0.117760
H51	H	1.323197	-0.494986	0.156956
H52	H	1.189509	-0.388094	0.091326
H53	H	1.311286	-0.325171	0.200073
O54	O	1.367115	-0.232911	0.000056
C55	C	1.269020	-0.135388	0.000018
H56	H	1.304636	-0.046602	0.042984
H57	H	1.188660	-0.163382	0.065921
H58	H	1.234442	-0.117320	-0.108877
