data_functionalizedCrystal
_audit_creation_method	'MofGen! by Chris Wilmer'
_symmetry_space_group_name_H-M	'P1'
_symmetry_Int_Tables_number	1
_symmetry_cell_setting	triclinic
loop_
_symmetry_equiv_pos_as_xyz
  x,y,z
_cell_length_a	13.635800
_cell_length_b	11.168121
_cell_length_c	17.982968
_cell_angle_alpha	85.739329
_cell_angle_beta	102.451960
_cell_angle_gamma	71.491504
loop_
_atom_site_label
_atom_site_type_symbol
_atom_site_fract_x
_atom_site_fract_y
_atom_site_fract_z
V1	V	2.020431	-0.175887	0.237555
O2	O	2.000881	0.007235	0.233026
O3	O	2.008810	-0.347585	0.235936
O4	O	1.993525	-0.173716	0.341158
O5	O	2.016271	-0.167837	0.127076
V6	V	2.260965	-0.153921	0.224340
O7	O	2.153751	-0.224073	0.266543
O8	O	2.352743	-0.105735	0.195352
O9	O	2.160983	0.017776	0.225958
O10	O	2.339213	-0.337043	0.228869
O11	O	2.323823	-0.161971	0.334818
O12	O	2.176267	-0.156092	0.120737
V13	V	2.520431	-0.175887	0.237555
O14	O	2.500881	0.007235	0.233026
O15	O	2.508810	-0.347585	0.235936
O16	O	2.493525	-0.173716	0.341158
O17	O	2.516271	-0.167837	0.127076
V18	V	2.760965	-0.153921	0.224340
O19	O	2.653751	-0.224073	0.266543
O20	O	2.852743	-0.105735	0.195352
O21	O	2.660983	0.017776	0.225958
O22	O	2.839213	-0.337043	0.228869
O23	O	2.823823	-0.161971	0.334818
O24	O	2.676267	-0.156092	0.120737
C25	C	1.934458	-0.389424	0.232190
C26	C	1.965581	-0.529792	0.231558
C27	C	2.066352	-0.598501	0.234889
C28	C	2.098522	-0.743579	0.234235
C29	C	1.914960	-0.167636	0.366410
C30	C	1.933687	-0.166996	0.451106
C31	C	2.067007	0.059609	0.229702
C32	C	2.025502	0.199976	0.230340
C33	C	2.086504	-0.162177	0.095481
C34	C	2.057396	-0.162810	0.010784
C35	C	2.434458	-0.389424	0.232190
C36	C	2.465581	-0.529792	0.231558
C37	C	2.414960	-0.167636	0.366410
C38	C	2.433687	-0.166996	0.451106
C39	C	2.033909	-0.173023	0.494778
C40	C	2.051498	-0.172422	0.574358
C41	C	1.968867	-0.165802	0.610267
C42	C	1.868637	-0.159771	0.566588
C43	C	1.851046	-0.160363	0.487008
C44	C	1.939575	-0.157380	0.887525
C45	C	1.957175	-0.156791	0.967112
C46	C	2.140028	-0.169438	0.974875
C47	C	2.122437	-0.170031	0.895295
C48	C	2.022207	-0.163993	0.851624
C49	C	2.003134	-0.164642	0.765333
C50	C	1.987941	-0.165161	0.696556
C51	C	2.567007	0.059609	0.229702
C52	C	2.525502	0.199976	0.230340
C53	C	2.586504	-0.162177	0.095481
C54	C	2.557396	-0.162810	0.010784
C55	C	2.533913	-0.173011	0.494764
C56	C	2.551519	-0.172394	0.574344
C57	C	2.468900	-0.165771	0.610265
C58	C	2.368665	-0.159752	0.566601
C59	C	2.351058	-0.160360	0.487022
C60	C	2.457783	-0.169418	-0.025118
C61	C	2.430414	-0.169998	-0.104700
C62	C	2.502663	-0.163978	-0.148379
C63	C	2.602283	-0.157365	-0.112472
C64	C	2.629647	-0.156776	-0.032892
C65	C	2.566352	-0.598501	0.234889
C66	C	2.598522	-0.743579	0.234235
H67	H	2.128810	-0.549921	0.238230
C68	C	2.681755	-0.150760	-0.160520
H69	H	2.745005	-0.146735	-0.127747
H70	H	2.698970	-0.224745	-0.184761
H71	H	2.650321	-0.076712	-0.198690
H72	H	2.403126	-0.578374	0.228226
H73	H	1.857975	-0.152508	0.851981
C74	C	2.250277	-0.176062	1.022915
H75	H	2.248920	-0.174747	1.075451
H76	H	2.303070	-0.252769	1.018431
H77	H	2.266845	-0.104737	1.004503
H78	H	2.101201	-0.178422	0.465548
C79	C	1.740806	-0.153738	0.438966
H80	H	1.742160	-0.155027	0.386428
H81	H	1.724229	-0.225053	0.457372
H82	H	1.688013	-0.077022	0.443451
H83	H	1.801357	-0.154374	0.595830
H84	H	2.601198	-0.178408	0.465528
C85	C	2.661783	-0.179037	0.622362
H86	H	2.708465	-0.183093	0.589569
H87	H	2.654360	-0.105056	0.646602
H88	H	2.690558	-0.253085	0.660532
H89	H	2.133105	-0.177323	0.609912
C90	C	2.213330	-0.177307	0.855800
H91	H	2.275536	-0.180798	0.893207
H92	H	2.228381	-0.251809	0.831876
H93	H	2.192150	-0.103777	0.817957
H94	H	2.483251	-0.165277	0.675064
H95	H	1.903126	-0.578374	0.228226
H96	H	2.684846	-0.802642	0.237079
C97	C	2.277799	-0.152483	0.606124
H98	H	2.302654	-0.152999	0.659771
H99	H	2.219225	-0.075980	0.584534
H100	H	2.255474	-0.224013	0.598461
C101	C	2.472555	-0.164641	-0.235913
H102	H	2.402884	-0.169454	-0.251032
H103	H	2.473768	-0.088438	-0.262322
H104	H	2.522434	-0.236469	-0.248385
H105	H	2.349294	-0.175382	-0.133924
C106	C	2.240811	-0.153765	0.439008
H107	H	2.194139	-0.149748	0.471806
H108	H	2.212014	-0.079734	0.400832
H109	H	2.248263	-0.227766	0.414778
H110	H	1.889880	-0.151398	0.996345
H111	H	2.398940	-0.174320	0.010436
C112	C	2.739232	-0.149530	0.006594
H113	H	2.778338	-0.146044	-0.030821
H114	H	2.729168	-0.075032	0.030521
H115	H	2.777809	-0.223065	0.044432
H116	H	2.184846	-0.802642	0.237079
C117	C	2.650732	-0.532885	0.239395
H118	H	2.618039	-0.443982	0.239237
H119	H	2.705745	-0.568847	0.285495
H120	H	2.680459	-0.545329	0.196217
H121	H	1.939172	-0.740966	0.227485
C122	C	2.408876	-0.720255	0.226484
H123	H	2.367236	-0.774487	0.223949
H124	H	2.406350	-0.680287	0.271194
H125	H	2.381082	-0.656782	0.181916
