data_functionalizedCrystal
_audit_creation_method	'MofGen! by Chris Wilmer'
_symmetry_space_group_name_H-M	'P1'
_symmetry_Int_Tables_number	1
_symmetry_cell_setting	triclinic
loop_
_symmetry_equiv_pos_as_xyz
  x,y,z
_cell_length_a	12.759395
_cell_length_b	12.759394
_cell_length_c	12.759393
_cell_angle_alpha	89.967706
_cell_angle_beta	89.979784
_cell_angle_gamma	90.015525
loop_
_atom_site_label
_atom_site_type_symbol
_atom_site_fract_x
_atom_site_fract_y
_atom_site_fract_z
Zn1	Zn	1.606255	-0.418185	-0.594024
Zn2	Zn	1.606149	-0.593904	-0.418342
Zn3	Zn	1.430557	-0.418242	-0.418358
Zn4	Zn	1.430545	-0.593825	-0.593978
O5	O	1.518377	-0.506039	-0.506176
O6	O	1.753262	-0.441504	-0.570732
O7	O	1.582817	-0.570659	-0.271323
O8	O	1.453913	-0.271213	-0.441687
O9	O	1.753184	-0.570604	-0.441659
O10	O	1.582998	-0.271172	-0.570748
O11	O	1.453810	-0.441601	-0.271335
O12	O	1.283534	-0.441524	-0.441642
O13	O	1.453893	-0.570469	-0.741006
O14	O	1.283526	-0.570524	-0.570670
O15	O	1.582986	-0.441427	-0.741039
O16	O	1.582806	-0.740915	-0.441615
O17	O	1.453790	-0.740857	-0.570654
C18	C	1.245409	-0.506022	-0.506153
C19	C	1.128632	-0.506040	-0.506169
C20	C	0.909238	-0.640609	-0.640347
C21	C	0.964125	-0.707872	-0.707412
C22	C	1.073847	-0.707859	-0.707398
C23	C	1.128684	-0.640579	-0.640311
C24	C	1.073798	-0.573316	-0.573247
C25	C	0.964073	-0.573334	-0.573270
C26	C	1.073746	-0.438778	-0.439104
C27	C	0.964024	-0.438784	-0.439121
C28	C	1.128583	-0.371497	-0.372017
C29	C	1.073697	-0.304227	-0.304956
C30	C	0.963968	-0.304242	-0.304973
C31	C	0.909137	-0.371521	-0.372057
C32	C	1.518314	-0.779007	-0.506150
C33	C	1.518383	-0.895783	-0.506175
C34	C	1.652827	-0.895791	-0.371907
C35	C	1.720077	-0.950655	-0.304785
C36	C	1.720138	-1.060376	-0.304814
C37	C	1.652945	-1.115236	-0.371973
C38	C	1.585696	-1.060372	-0.439095
C39	C	1.585639	-0.950648	-0.439057
C40	C	1.451258	-1.060364	-0.573366
C41	C	1.451190	-0.950643	-0.573334
C42	C	1.384065	-1.115224	-0.640526
C43	C	1.316809	-1.060360	-0.707644
C44	C	1.316749	-0.950631	-0.707612
C45	C	1.383940	-0.895778	-0.640456
C46	C	1.792410	-0.506057	-0.506199
C47	C	1.909187	-0.506064	-0.506209
C48	C	1.518450	-0.505933	-0.780209
C49	C	1.518482	-0.505888	-0.896986
C50	C	1.518469	-0.232006	-0.506224
C51	C	1.518508	-0.115229	-0.506245
C52	C	1.585710	-0.438689	-0.951867
C53	C	1.585735	-0.438651	-1.061591
C54	C	1.451300	-0.573019	-1.061543
C55	C	1.451271	-0.573051	-0.951821
C56	C	1.663328	-0.361116	-0.951896
C57	C	1.663353	-0.361078	-1.061620
C58	C	1.518364	-0.506069	-0.233208
C59	C	1.518536	-0.505818	-0.116432
H60	H	1.217924	-0.371496	-0.372006
C61	C	1.624343	-0.258096	-1.107082
C62	C	1.535536	-0.276763	-1.168742
C63	C	1.499555	-0.181925	-1.210625
H64	H	1.677749	-0.227591	-1.149075
H65	H	1.606750	-0.211608	-1.051667
H66	H	1.553132	-0.323235	-1.224150
H67	H	1.482108	-0.307253	-1.126773
H68	H	1.481963	-0.135437	-1.155209
H69	H	1.552968	-0.151428	-1.252613
H70	H	1.439291	-0.194577	-1.252458
H71	H	0.819897	-0.640616	-0.640376
H72	H	1.641559	-0.279752	-0.922140
H73	H	1.261990	-0.905967	-0.762274
H74	H	1.744723	-0.382870	-1.091401
C75	C	1.378222	-0.645982	-1.120892
C76	C	1.319323	-0.704822	-1.049340
C77	C	1.251983	-0.772038	-1.103971
H78	H	1.418288	-0.691842	-1.163692
H79	H	1.332413	-0.605797	-1.163676
H80	H	1.365127	-0.745004	-1.006574
H81	H	1.279236	-0.658990	-1.006537
H82	H	1.206174	-0.731854	-1.146755
H83	H	1.292057	-0.817891	-1.146769
H84	H	1.212005	-0.811962	-1.055432
C85	C	1.133423	-0.231228	-0.232239
C86	C	1.241259	-0.245603	-0.246593
C87	C	1.296315	-0.178362	-0.179634
H88	H	1.115526	-0.246450	-0.161582
H89	H	1.115527	-0.160634	-0.247756
H90	H	1.259147	-0.316181	-0.231069
H91	H	1.259186	-0.230373	-0.317236
H92	H	1.278419	-0.107768	-0.195151
H93	H	1.278410	-0.193590	-0.108981
H94	H	1.369487	-0.188099	-0.189371
C95	C	1.378142	-0.645823	-0.892173
C96	C	1.310800	-0.586332	-0.829215
C97	C	1.243407	-0.653331	-0.774261
H98	H	1.418176	-0.691639	-0.849273
H99	H	1.338057	-0.685801	-0.940510
H100	H	1.350881	-0.546371	-0.780884
H101	H	1.270743	-0.540518	-0.872090
H102	H	1.203321	-0.693309	-0.822598
H103	H	1.283449	-0.699145	-0.731367
H104	H	1.197701	-0.612976	-0.731546
H105	H	1.218025	-0.640583	-0.640297
C106	C	0.904398	-0.780801	-0.780209
C107	C	0.796560	-0.766400	-0.765893
C108	C	0.741511	-0.833555	-0.832943
H109	H	0.922235	-0.851414	-0.764775
H110	H	0.922358	-0.765494	-0.850846
H111	H	0.778607	-0.781715	-0.695272
H112	H	0.778692	-0.695801	-0.781335
H113	H	0.759472	-0.818249	-0.903580
H114	H	0.759357	-0.904164	-0.817503
H115	H	0.668338	-0.823787	-0.823246
H116	H	1.118535	-0.762633	-0.762005
H117	H	1.384124	-1.204565	-0.640549
H118	H	1.740599	-0.390284	-0.917862
H119	H	0.919286	-0.249469	-0.250360
H120	H	0.819796	-0.371535	-0.372082
H121	H	1.774787	-0.905979	-0.250106
C122	C	1.652946	-0.776664	-0.371750
C123	C	1.726195	-0.740363	-0.298587
C124	C	1.726343	-0.630629	-0.298421
H125	H	1.585202	-0.751787	-0.353484
H126	H	1.671123	-0.751726	-0.439535
H127	H	1.708011	-0.765290	-0.230816
H128	H	1.793949	-0.765210	-0.316836
H129	H	1.744521	-0.605692	-0.366207
H130	H	1.658596	-0.605763	-0.280157
H131	H	1.776048	-0.605985	-0.248788
H132	H	1.774904	-1.105047	-0.250163
C133	C	1.653136	-1.234363	-0.371821
C134	C	1.726398	-1.270669	-0.298653
C135	C	1.726591	-1.380403	-0.298475
H136	H	1.671323	-1.259238	-0.439580
H137	H	1.585379	-1.259298	-0.353552
H138	H	1.794140	-1.245745	-0.316927
H139	H	1.708228	-1.245822	-0.230882
H140	H	1.658834	-1.405338	-0.280206
H141	H	1.744777	-1.405268	-0.366239
H142	H	1.776292	-1.405050	-0.248825
H143	H	1.383891	-0.806437	-0.640416
C144	C	1.243905	-1.120110	-0.780439
C145	C	1.258342	-1.227941	-0.766087
C146	C	1.191189	-1.283019	-0.833117
H147	H	1.259168	-1.102179	-0.851080
H148	H	1.173286	-1.102268	-0.764988
H149	H	1.328944	-1.245776	-0.781545
H150	H	1.243071	-1.245904	-0.695460
H151	H	1.120571	-1.265177	-0.817666
H152	H	1.206458	-1.265080	-0.903754
H153	H	1.200968	-1.356188	-0.823382
