data_functionalizedCrystal
_audit_creation_method	'MofGen! by Chris Wilmer'
_symmetry_space_group_name_H-M	'P1'
_symmetry_Int_Tables_number	1
_symmetry_cell_setting	triclinic
loop_
_symmetry_equiv_pos_as_xyz
  x,y,z
_cell_length_a	15.944551
_cell_length_b	11.792241
_cell_length_c	14.421503
_cell_angle_alpha	90.003327
_cell_angle_beta	90.001526
_cell_angle_gamma	96.153923
loop_
_atom_site_label
_atom_site_type_symbol
_atom_site_fract_x
_atom_site_fract_y
_atom_site_fract_z
O1	O	0.115118	-1.505967	-0.077024
O2	O	0.126983	-1.175528	-0.077046
O3	O	-0.001183	-1.349771	-0.077026
O4	O	0.243285	-1.331724	-0.077044
O5	O	-0.001169	-1.349743	0.077198
O6	O	0.126998	-1.175500	0.077178
O7	O	0.115133	-1.505939	0.077200
Cu8	Cu	0.121067	-1.340717	0.091271
Cu9	Cu	0.121050	-1.340750	-0.091117
O10	O	0.243300	-1.331696	0.077180
C11	C	0.126245	-1.133229	0.000063
C12	C	0.124015	-1.007234	0.000055
C13	C	-0.032473	-1.349008	0.000086
C14	C	-0.125729	-1.346761	0.000086
C15	C	0.115871	-1.548237	0.000089
C16	C	0.118102	-1.674233	0.000091
C17	C	-0.341098	-1.233389	0.000066
C18	C	-0.401870	-1.286022	0.076111
C19	C	-0.296474	-1.342698	0.000079
C20	C	-0.401868	-1.286075	-0.075941
C21	C	-0.461404	-1.338765	0.000068
C22	C	-0.356018	-1.395361	0.076187
C23	C	-0.356009	-1.395399	-0.075934
C24	C	-0.416764	-1.448111	0.000130
C25	C	-0.201461	-1.344961	0.000086
C26	C	-0.556415	-1.336511	0.000067
C27	C	0.274590	-1.332459	0.000066
C28	C	0.367846	-1.334705	0.000059
N29	N	0.121078	-1.340702	0.219552
C30	C	0.119913	-0.776555	0.000082
C31	C	0.122192	-0.904922	0.000067
N32	N	0.121031	-1.340773	-0.219398
C33	C	0.180813	-1.260797	0.530996
C34	C	0.105040	-1.237832	0.469171
C35	C	0.121045	-1.340749	0.591441
C36	C	0.196832	-1.363638	0.469171
C37	C	0.121066	-1.340723	0.408719
C38	C	0.045234	-1.317732	0.530977
C39	C	0.137076	-1.443583	0.530982
C40	C	0.061249	-1.420661	0.469186
C41	C	0.121035	-1.340761	0.696702
C42	C	0.121068	-1.340712	0.303460
H43	H	-0.308200	-1.142657	0.000136
C44	C	-0.390738	-1.111179	0.162747
C45	C	-0.429298	-1.223598	0.162890
H46	H	-0.407673	-1.072637	0.216316
H47	H	-0.331199	-1.111551	0.163088
H48	H	-0.407204	-1.073102	0.108743
H49	H	-0.412826	-1.261677	0.216891
H50	H	-0.488850	-1.223230	0.162557
H51	H	0.231289	-1.193150	0.558136
H52	H	-0.018863	-1.298260	0.558012
H53	H	0.010659	-1.488266	0.442218
C54	C	0.012992	-1.132816	0.379082
C55	C	0.086737	-1.120425	0.432507
H56	H	0.001696	-1.060330	0.356454
H57	H	0.020155	-1.182182	0.328315
H58	H	-0.032892	-1.164322	0.416252
H59	H	0.132623	-1.088926	0.395335
H60	H	0.079579	-1.071040	0.483281
H61	H	-0.335813	-1.441544	0.140547
H62	H	0.150658	-1.530531	0.558156
H63	H	0.260918	-1.383023	0.442040
C64	C	-0.400226	-1.648102	0.001007
C65	C	-0.460968	-1.570705	0.000204
H66	H	-0.427515	-1.723786	0.001065
H67	H	-0.365641	-1.636768	-0.052524
H68	H	-0.366335	-1.636252	0.055035
H69	H	-0.494855	-1.582550	-0.053827
H70	H	-0.495568	-1.582045	0.053741
C71	C	-0.351438	-1.400380	-0.242275
C72	C	-0.328549	-1.457772	-0.162716
H73	H	-0.334477	-1.438879	-0.295855
H74	H	-0.410866	-1.398811	-0.243207
H75	H	-0.324479	-1.324532	-0.241724
H76	H	-0.355512	-1.533619	-0.163264
H77	H	-0.269109	-1.459354	-0.161784
H78	H	-0.422160	-1.239839	-0.140236
