data_functionalizedCrystal
_audit_creation_method	'MofGen! by Chris Wilmer'
_symmetry_space_group_name_H-M	'P1'
_symmetry_Int_Tables_number	1
_symmetry_cell_setting	triclinic
loop_
_symmetry_equiv_pos_as_xyz
  x,y,z
_cell_length_a	14.560432
_cell_length_b	14.560432
_cell_length_c	21.606444
_cell_angle_alpha	59.999580
_cell_angle_beta	90.002679
_cell_angle_gamma	60.001140
loop_
_atom_site_label
_atom_site_type_symbol
_atom_site_fract_x
_atom_site_fract_y
_atom_site_fract_z
Zr1	Zr	0.884787	1.005259	-0.081201
O2	O	0.738136	1.196867	-0.180029
O3	O	0.929741	0.813656	-0.050906
O4	O	0.929736	1.005264	-0.180027
O5	O	0.738149	1.005253	0.050946
O6	O	1.080877	1.005262	-0.180025
O7	O	0.738141	1.005259	-0.050908
O8	O	1.080885	0.662510	0.050950
O9	O	0.738140	1.348004	-0.180028
O10	O	1.061711	0.892461	-0.037982
O11	O	0.948922	0.892458	0.038028
O12	O	0.948917	1.118051	-0.113995
O13	O	0.836128	1.118048	-0.037985
Zr14	Zr	1.125852	1.005244	0.081249
Zr15	Zr	1.125840	1.005254	-0.081197
Zr16	Zr	0.884800	1.005248	0.081244
Zr17	Zr	0.884794	1.246305	-0.081200
Zr18	Zr	1.125846	0.764198	0.081247
O19	O	1.080899	1.196846	0.050953
O20	O	1.080881	1.196861	-0.180023
O21	O	0.738154	1.196852	0.050947
O22	O	1.272503	0.813636	0.180077
O23	O	1.272486	0.813651	-0.050900
O24	O	0.929758	0.813642	0.180071
O25	O	1.272491	1.005250	-0.050899
O26	O	1.080904	1.005239	0.180075
O27	O	0.929763	1.005241	0.180072
O28	O	1.272498	1.005244	0.050955
O29	O	0.929744	1.348000	-0.180025
O30	O	1.080895	0.662502	0.180073
O31	O	1.272499	0.662499	0.180076
O32	O	1.272490	0.662507	0.050953
O33	O	0.738150	1.347995	-0.050906
O34	O	0.929754	1.347992	-0.050902
O35	O	1.061723	0.892451	0.114043
O36	O	1.174512	0.892454	0.038032
O37	O	1.061717	1.118045	-0.037981
O38	O	0.948928	1.118042	0.038030
C39	C	1.005312	0.703739	0.000022
C40	C	1.005309	0.601409	0.000021
C41	C	0.838761	0.767935	-0.112204
C42	C	0.755487	0.803120	-0.168314
C43	C	0.755491	0.706966	-0.168311
C44	C	0.838779	0.575617	-0.112195
C45	C	0.922053	0.540432	-0.056086
C46	C	0.922038	0.636596	-0.056093
C47	C	1.088604	0.373908	0.056136
C48	C	1.088598	0.470060	0.056138
C49	C	1.171892	0.242559	0.112252
C50	C	1.255163	0.207372	0.168366
C51	C	1.255155	0.303534	0.168362
C52	C	1.171871	0.434874	0.112247
C53	C	0.703800	1.005256	0.000019
C54	C	0.601467	1.005258	0.000017
C55	C	0.601434	1.005281	-0.112218
C56	C	0.553341	1.005297	-0.168335
C57	C	0.457191	1.005297	-0.168332
C58	C	0.409135	1.005277	-0.112205
C59	C	0.457228	1.005261	-0.056089
C60	C	0.553378	1.005265	-0.056098
C61	C	0.457266	1.005229	0.056148
C62	C	0.553411	1.005238	0.056143
C63	C	0.409210	1.005208	0.112274
C64	C	0.457299	1.005202	0.168389
C65	C	0.553453	1.005203	0.168384
C66	C	0.601504	1.005222	0.112260
C67	C	1.306839	1.005246	0.000029
C68	C	1.409172	1.005245	0.000031
C69	C	1.005304	1.005264	-0.203171
C70	C	1.005299	1.005269	-0.272133
C71	C	1.005327	1.306763	0.000026
C72	C	1.005330	1.409093	0.000026
C73	C	0.946421	1.123024	-0.344210
C74	C	0.946431	1.123020	-0.409005
C75	C	1.005313	1.005260	-0.401721
C76	C	1.064198	0.887496	-0.329637
C77	C	1.064194	0.887501	-0.264844
C78	C	1.064216	0.887473	-0.590940
C79	C	1.064213	0.887478	-0.655741
C80	C	0.946452	1.122992	-0.735101
C81	C	0.946448	1.122997	-0.670308
C82	C	1.005338	1.005234	-0.598229
C83	C	1.005329	1.005240	-0.527972
C84	C	1.005316	1.005253	-0.471977
C85	C	1.005335	1.005238	0.203218
C86	C	1.005340	1.005234	0.272181
C87	C	1.306832	0.703734	0.000027
C88	C	1.409162	0.601402	0.000028
C89	C	1.005327	0.703727	0.203216
C90	C	1.005330	0.601392	0.272178
C91	C	1.306847	0.703721	0.203222
C92	C	1.409182	0.601385	0.272185
C93	C	0.703793	1.306781	-0.203174
C94	C	0.601457	1.409118	-0.272138
C95	C	0.703808	1.306768	0.000020
C96	C	0.601477	1.409100	0.000019
C97	C	1.005312	1.306776	-0.203169
C98	C	1.005310	1.409111	-0.272131
C99	C	1.064212	0.553331	0.344249
C100	C	1.064210	0.457190	0.409052
C101	C	1.005332	0.409105	0.401783
C102	C	0.946443	0.457176	0.329704
C103	C	0.946439	0.553321	0.264903
C104	C	1.516125	0.553328	0.264895
C105	C	1.612289	0.457186	0.329687
C106	C	1.601509	0.409095	0.401769
C107	C	1.494555	0.457161	0.409059
C108	C	1.398393	0.553309	0.344267
C109	C	0.494514	1.457186	-0.264847
C110	C	0.398350	1.553358	-0.329639
C111	C	0.409131	1.601454	-0.401722
C112	C	0.516085	1.553382	-0.409011
C113	C	0.612247	1.457218	-0.344219
C114	C	1.064199	1.457165	-0.264837
C115	C	1.064218	1.553307	-0.329628
C116	C	1.005341	1.601399	-0.401711
C117	C	0.946450	1.553335	-0.409004
C118	C	0.946438	1.457189	-0.344214
C119	C	1.291414	0.601381	-0.079324
C120	C	1.280617	0.553292	-0.118996
C121	C	1.376769	0.457143	-0.118993
C122	C	1.483727	0.409083	-0.079315
C123	C	1.494524	0.457172	-0.039643
C124	C	1.398363	0.553320	-0.039649
C125	C	1.612270	0.457200	0.039704
C126	C	1.516120	0.553342	0.039706
C127	C	1.719228	0.409140	0.079382
C128	C	1.730026	0.457222	0.119059
C129	C	1.633866	0.553376	0.119055
C130	C	1.526917	0.601431	0.079378
H131	H	0.838782	0.497331	-0.112203
O132	O	1.171921	0.149040	0.112394
C133	C	1.161644	0.071260	0.180872
H134	H	1.191628	0.078050	0.226201
H135	H	1.215159	-0.034003	0.199982
H136	H	1.069837	0.106834	0.171806
H137	H	1.817114	0.418090	0.151357
H138	H	0.592610	1.005183	0.214084
O139	O	1.484240	0.410452	0.479124
C140	C	1.536323	0.433969	0.518969
H141	H	1.601821	0.445977	0.494207
H142	H	1.579052	0.348542	0.581323
H143	H	1.470213	0.526401	0.513598
O144	O	1.644559	0.599903	0.157659
C145	C	1.759579	0.536889	0.192659
H146	H	1.810863	0.439428	0.200519
H147	H	1.772986	0.520324	0.250295
H148	H	1.787896	0.599956	0.155467
H149	H	0.485715	1.418032	-0.206160
O150	O	0.294549	1.599853	-0.322414
C151	C	0.305666	1.536784	-0.244897
H152	H	0.391473	1.439328	-0.210356
H153	H	0.236714	1.520204	-0.235862
H154	H	0.297801	1.599818	-0.225791
H155	H	1.112168	0.791583	-0.532259
H156	H	1.311319	0.592424	0.350214
H157	H	1.797516	0.330856	0.079377
H158	H	0.898514	1.592507	-0.467703
H159	H	0.699322	1.418081	-0.350165
O160	O	1.336030	0.079832	0.222970
C161	C	1.330735	0.052649	0.294807
H162	H	1.288406	0.146132	0.291423
H163	H	1.419494	-0.020238	0.337663
H164	H	1.280025	0.010071	0.313423
H165	H	1.112139	0.791613	-0.206156
O166	O	0.889395	0.599786	0.194911
C167	C	0.932681	0.497146	0.186639
H168	H	1.022429	0.415433	0.227672
H169	H	0.932528	0.533798	0.126030
H170	H	0.878090	0.459211	0.199523
H171	H	0.898506	0.418011	0.323797
H172	H	0.679790	1.005230	0.112249
O173	O	0.889106	1.410585	-0.351220
C174	C	0.806440	1.434159	-0.316148
H175	H	0.831224	1.446067	-0.271967
H176	H	0.799240	1.348807	-0.287407
H177	H	0.722011	1.526663	-0.360707
O178	O	0.889384	1.237335	-0.351192
C179	C	0.964973	1.244400	-0.316101
H180	H	1.042469	1.142158	-0.271938
H181	H	0.922255	1.294246	-0.287336
H182	H	0.991316	1.302510	-0.360652
H183	H	0.679716	1.005297	-0.112231
H184	H	1.213116	0.679639	-0.079310
O185	O	0.674490	0.741363	-0.222851
C186	C	0.600996	0.877908	-0.272395
H187	H	0.604954	0.922047	-0.242171
H188	H	0.511404	0.908347	-0.290501
H189	H	0.627199	0.913742	-0.324574
H190	H	0.330820	1.679757	-0.454473
O191	O	0.410542	1.005082	-0.222749
C192	C	0.410838	0.893218	-0.188406
H193	H	0.478928	0.815010	-0.130217
H194	H	0.428501	0.855676	-0.225387
H195	H	0.325326	0.918511	-0.181843
H196	H	1.005360	1.679688	-0.454461
O197	O	1.433628	0.694789	0.079478
C198	C	1.466086	0.726960	0.122982
H199	H	1.554840	0.642642	0.164943
H200	H	1.405336	0.746942	0.155274
H201	H	1.464329	0.817309	0.083907
O202	O	0.838953	0.861222	-0.112184
C203	C	0.940543	0.847719	-0.119131
H204	H	1.007826	0.743695	-0.098939
H205	H	0.968896	0.871113	-0.083068
H206	H	0.927057	0.917430	-0.181004
O207	O	1.694841	0.315575	0.464762
C208	C	1.694704	0.204313	0.508172
H209	H	1.604918	0.233331	0.494013
H210	H	1.730104	0.157773	0.571027
H211	H	1.748977	0.131868	0.494579
O212	O	1.716259	0.410415	0.322731
C213	C	1.798834	0.315231	0.395369
H214	H	1.761379	0.330998	0.438327
H215	H	1.872959	0.323076	0.394637
H216	H	1.828938	0.214653	0.411880
O217	O	0.526347	1.600204	-0.479091
C218	C	0.418532	1.695403	-0.534705
H219	H	0.354814	1.679605	-0.509437
H220	H	0.419559	1.687611	-0.584676
H221	H	0.394040	1.795971	-0.554975
O222	O	1.335904	0.269510	0.222887
C223	C	1.284959	0.320101	0.263963
H224	H	1.194007	0.406796	0.227816
H225	H	1.332780	0.352477	0.279232
H226	H	1.286895	0.241941	0.318054
H227	H	1.193523	0.592436	-0.151303
H228	H	0.898488	1.218908	-0.467691
H229	H	1.112173	1.592430	-0.323676
O230	O	1.366230	0.410303	-0.157430
C231	C	1.306902	0.354703	-0.128264
H232	H	1.314916	0.325852	-0.067787
H233	H	1.343441	0.264905	-0.128357
H234	H	1.214378	0.428388	-0.165063
O235	O	1.121319	1.410679	-0.194860
C236	C	1.078025	1.513275	-0.186546
H237	H	1.034905	1.609465	-0.244875
H238	H	1.149692	1.498762	-0.152465
H239	H	1.014470	1.514561	-0.155577
H240	H	1.562014	0.330805	-0.079324
O241	O	0.889354	1.237276	-0.805177
C242	C	0.901959	1.212030	-0.860807
H243	H	0.981484	1.110827	-0.835554
H244	H	0.908702	1.287241	-0.910773
H245	H	0.825888	1.217610	-0.881080
O246	O	0.674728	0.930753	-0.222840
C247	C	0.725663	0.991366	-0.263917
H248	H	0.816613	0.933484	-0.227772
H249	H	0.677833	1.094220	-0.279186
H250	H	0.723730	0.995410	-0.318008
O251	O	1.171659	0.528398	0.112222
C252	C	1.070060	0.606163	0.119166
H253	H	1.002793	0.599360	0.098978
H254	H	1.041691	0.711431	0.083096
H255	H	1.083541	0.570584	0.181036
H256	H	0.898496	1.218890	-0.676245
H257	H	0.330853	1.005261	-0.112201
H258	H	1.524924	0.592470	0.206207
O259	O	0.599833	1.005492	-0.222953
C260	C	0.520391	1.117400	-0.294783
H261	H	0.431936	1.154694	-0.291387
H262	H	0.529664	1.092252	-0.337644
H263	H	0.535335	1.195743	-0.313401
H264	H	0.330923	1.005200	0.112277
H265	H	1.112165	0.791578	-0.649802
O266	O	0.410775	1.004953	0.222998
C267	C	0.490233	0.893085	0.294833
H268	H	0.555762	0.814895	0.288345
H269	H	0.445789	0.855519	0.332945
H270	H	0.533397	0.918382	0.321298
H271	H	1.112147	0.791614	-0.323711
O272	O	1.121413	0.599941	0.351456
C273	C	1.173389	0.536876	0.428970
H274	H	1.127212	0.497245	0.463520
H275	H	1.170199	0.609015	0.437998
H276	H	1.264783	0.453375	0.448070
O277	O	1.121326	0.410398	0.479119
C278	C	1.108732	0.315207	0.534764
H279	H	1.029203	0.330992	0.509526
H280	H	1.102004	0.323025	0.584726
H281	H	1.184801	0.214634	0.555037
O282	O	1.005151	0.315866	0.464712
C283	C	0.893747	0.362827	0.464597
H284	H	0.839477	0.473532	0.427949
H285	H	0.892577	0.325061	0.525044
H286	H	0.859103	0.327861	0.440706
