data_functionalizedCrystal
_audit_creation_method	'MofGen! by Chris Wilmer'
_symmetry_space_group_name_H-M	'P1'
_symmetry_Int_Tables_number	1
_symmetry_cell_setting	triclinic
loop_
_symmetry_equiv_pos_as_xyz
  x,y,z
_cell_length_a	16.625547
_cell_length_b	12.645330
_cell_length_c	12.645318
_cell_angle_alpha	89.940182
_cell_angle_beta	89.953011
_cell_angle_gamma	90.012583
loop_
_atom_site_label
_atom_site_type_symbol
_atom_site_fract_x
_atom_site_fract_y
_atom_site_fract_z
Zn1	Zn	1.232912	-0.421689	-0.599546
Zn2	Zn	1.566245	-0.088356	-0.266212
Zn3	Zn	1.899579	0.244977	0.067121
Zn4	Zn	1.232786	-0.599079	-0.422279
Zn5	Zn	1.566120	-0.265745	-0.088946
Zn6	Zn	1.899453	0.067588	0.244388
Zn7	Zn	1.098022	-0.421830	-0.422277
Zn8	Zn	1.431355	-0.088496	-0.088944
Zn9	Zn	1.764688	0.244837	0.244389
Zn10	Zn	1.098067	-0.598911	-0.599482
Zn11	Zn	1.431401	-0.265578	-0.266149
Zn12	Zn	1.764734	0.067756	0.067185
O13	O	1.165447	-0.510377	-0.510896
O14	O	1.498780	-0.177044	-0.177563
O15	O	1.832113	0.156290	0.155771
O16	O	1.345728	-0.445232	-0.576058
O17	O	1.679061	-0.111899	-0.242725
O18	O	2.012394	0.221435	0.090609
O19	O	1.214838	-0.575695	-0.273931
O20	O	1.548171	-0.242362	0.059402
O21	O	1.881504	0.090971	0.392736
O22	O	1.115949	-0.273464	-0.445818
O23	O	1.449282	0.059870	-0.112485
O24	O	1.782615	0.393203	0.220848
O25	O	1.345635	-0.575559	-0.445821
O26	O	1.678969	-0.242226	-0.112488
O27	O	2.012302	0.091108	0.220846
O28	O	1.215052	-0.273361	-0.576057
O29	O	1.548385	0.059973	-0.242723
O30	O	1.881719	0.393306	0.090610
O31	O	1.115827	-0.445471	-0.273930
O32	O	1.449160	-0.112138	0.059403
O33	O	1.782493	0.221196	0.392737
O34	O	0.985195	-0.445308	-0.445757
O35	O	1.318529	-0.111975	-0.112423
O36	O	1.651862	0.221358	0.220910
O37	O	1.116027	-0.575273	-0.747838
O38	O	1.449360	-0.241940	-0.414505
O39	O	1.782693	0.091393	-0.081171
O40	O	0.985229	-0.575409	-0.575948
O41	O	1.318562	-0.242076	-0.242615
O42	O	1.651896	0.091257	0.090719
O43	O	1.215096	-0.445069	-0.747885
O44	O	1.548430	-0.111736	-0.414551
O45	O	1.881763	0.221598	-0.081218
O46	O	1.214882	-0.747404	-0.445759
O47	O	1.548215	-0.414070	-0.112426
O48	O	1.881549	-0.080737	0.220907
O49	O	1.115905	-0.747281	-0.575950
O50	O	1.449238	-0.413947	-0.242616
O51	O	1.782571	-0.080614	0.090717
C52	C	0.955956	-0.510357	-0.510846
C53	C	1.289289	-0.177023	-0.177512
C54	C	1.622623	0.156310	0.155821
C55	C	0.866335	-0.510373	-0.510850
C56	C	1.199668	-0.177040	-0.177516
C57	C	1.533001	0.156293	0.155817
C58	C	0.793552	-0.510375	-0.510863
C59	C	1.126886	-0.177042	-0.177529
C60	C	1.460219	0.156291	0.155804
C61	C	0.702244	-0.510381	-0.510889
C62	C	1.035577	-0.177048	-0.177556
C63	C	1.368911	0.156286	0.155777
C64	C	0.629467	-0.510391	-0.510916
C65	C	0.962801	-0.177057	-0.177583
C66	C	1.296134	0.156276	0.155751
C67	C	0.538153	-0.510398	-0.510942
C68	C	0.871487	-0.177065	-0.177608
C69	C	1.204820	0.156269	0.155725
C70	C	1.165406	-0.785807	-0.510871
C71	C	1.498740	-0.452474	-0.177537
C72	C	1.832073	-0.119140	0.155796
C73	C	1.165463	-0.903637	-0.510896
C74	C	1.498796	-0.570304	-0.177562
C75	C	1.832130	-0.236970	0.155771
C76	C	1.227629	-1.071234	-0.428827
C77	C	1.560963	-0.737901	-0.095493
C78	C	1.894296	-0.404568	0.237840
C79	C	1.227832	-0.948674	-0.429028
C80	C	1.561165	-0.615341	-0.095694
C81	C	1.894499	-0.282007	0.237639
C82	C	1.188539	-0.947955	-0.622643
C83	C	1.521872	-0.614622	-0.289309
C84	C	1.855206	-0.281288	0.044024
C85	C	1.189032	-1.070553	-0.622207
C86	C	1.522366	-0.737220	-0.288874
C87	C	1.855699	-0.403887	0.044459
C88	C	1.080196	-1.070981	-0.482319
C89	C	1.413529	-0.737647	-0.148985
C90	C	1.746863	-0.404314	0.184348
C91	C	1.080604	-0.948378	-0.479813
C92	C	1.413937	-0.615044	-0.146479
C93	C	1.747271	-0.281711	0.186854
C94	C	1.375756	-0.510399	-0.510947
C95	C	1.709089	-0.177065	-0.177613
C96	C	2.042422	0.156268	0.155720
C97	C	1.465377	-0.510408	-0.510968
C98	C	1.798710	-0.177074	-0.177635
C99	C	2.132043	0.156259	0.155698
C100	C	1.165581	-0.510137	-0.787402
C101	C	1.498914	-0.176803	-0.454068
C102	C	1.832247	0.156530	-0.120735
C103	C	1.165638	-0.510034	-0.905232
C104	C	1.498971	-0.176701	-0.571899
C105	C	1.832304	0.156632	-0.238565
C106	C	1.165509	-0.233872	-0.510944
C107	C	1.498843	0.099461	-0.177611
C108	C	1.832176	0.432795	0.155722
C109	C	1.165536	-0.116042	-0.510965
C110	C	1.498869	0.217292	-0.177632
C111	C	1.832203	0.550625	0.155702
C112	C	1.165360	-0.510540	-0.235466
C113	C	1.498693	-0.177207	0.097867
C114	C	1.832027	0.156127	0.431201
C115	C	1.165459	-0.510344	-0.117636
C116	C	1.498792	-0.177011	0.215697
C117	C	1.832126	0.156323	0.549030
C118	C	1.102753	-0.428944	-0.072816
C119	C	1.436086	-0.095611	0.260517
C120	C	1.769419	0.237723	0.593851
C121	C	1.102613	-0.429010	0.049745
C122	C	1.435946	-0.095676	0.383078
C123	C	1.769280	0.237657	0.716412
C124	C	1.143408	-0.622117	0.050613
C125	C	1.476741	-0.288784	0.383946
C126	C	1.810075	0.044550	0.717280
C127	C	1.142850	-0.621826	-0.071985
C128	C	1.476183	-0.288492	0.261348
C129	C	1.809517	0.044841	0.594682
C130	C	1.250595	-0.480570	-0.072750
C131	C	1.583929	-0.147237	0.260583
C132	C	1.917262	0.186096	0.593916
C133	C	1.250229	-0.477932	0.049850
C134	C	1.583563	-0.144598	0.383184
C135	C	1.916896	0.188735	0.716517
H136	H	1.213390	-0.918718	-0.346169
H137	H	1.546724	-0.585385	-0.012836
H138	H	1.880057	-0.252052	0.320498
H139	H	1.250215	-0.917153	-0.647311
H140	H	1.583548	-0.583820	-0.313978
H141	H	1.916882	-0.250486	0.019356
H142	H	1.299436	-0.532712	0.080481
H143	H	1.632770	-0.199379	0.413815
H144	H	1.966103	0.133955	0.747148
H145	H	1.145789	-1.100184	-0.685516
H146	H	1.479123	-0.766851	-0.352182
H147	H	1.812456	-0.433518	-0.018849
H148	H	1.116428	-0.345940	0.079584
H149	H	1.449761	-0.012607	0.412918
H150	H	1.783095	0.320727	0.746251
H151	H	1.116348	-0.345703	-0.102542
H152	H	1.449681	-0.012369	0.230791
H153	H	1.783015	0.320964	0.564124
H154	H	1.187757	-0.684366	0.079790
H155	H	1.521090	-0.351033	0.413124
H156	H	1.854423	-0.017699	0.746457
H157	H	1.040017	-0.448510	-0.103407
H158	H	1.373350	-0.115176	0.229927
H159	H	1.706683	0.218157	0.563260
H160	H	1.291040	-0.919255	-0.447976
H161	H	1.624373	-0.585922	-0.114642
H162	H	1.957707	-0.252589	0.218691
H163	H	1.031841	-0.917731	-0.535251
H164	H	1.365174	-0.584398	-0.201918
H165	H	1.698508	-0.251065	0.131416
H166	H	1.270934	-0.400275	-0.103926
H167	H	1.604268	-0.066942	0.229408
H168	H	1.937601	0.266391	0.562741
H169	H	1.290498	-1.101954	-0.447563
H170	H	1.623831	-0.768621	-0.114229
H171	H	1.957165	-0.435287	0.219104
H172	H	1.251413	-1.099052	-0.646471
H173	H	1.584746	-0.765719	-0.313138
H174	H	1.918079	-0.432385	0.020196
H175	H	1.213368	-1.100835	-0.345726
H176	H	1.546701	-0.767501	-0.012392
H177	H	1.880035	-0.434168	0.320941
H178	H	1.039571	-0.448727	0.079291
H179	H	1.372904	-0.115394	0.412624
H180	H	1.706237	0.217940	0.745957
H181	H	1.144691	-0.918773	-0.685482
H182	H	1.478025	-0.585440	-0.352149
H183	H	1.811358	-0.252107	-0.018815
H184	H	1.033931	-1.099954	-0.542143
H185	H	1.367264	-0.766621	-0.208810
H186	H	1.700597	-0.433287	0.124523
H187	H	1.059217	-1.102035	-0.402252
H188	H	1.392551	-0.768702	-0.068918
H189	H	1.725884	-0.435369	0.264415
H190	H	1.080646	-0.646906	-0.100352
H191	H	1.413980	-0.313573	0.232981
H192	H	1.747313	0.019760	0.566315
H193	H	1.063205	-0.919428	-0.397576
H194	H	1.396538	-0.586095	-0.064243
H195	H	1.729872	-0.252761	0.269091
H196	H	1.186587	-0.684596	-0.101618
H197	H	1.519920	-0.351262	0.231715
H198	H	1.853253	-0.017929	0.565048
H199	H	1.081941	-0.647527	0.081544
H200	H	1.415274	-0.314194	0.414877
H201	H	1.748607	0.019140	0.748210
H202	H	1.267000	-0.395443	0.078671
H203	H	1.600333	-0.062110	0.412004
H204	H	1.933667	0.271224	0.745338
H205	H	1.297309	-0.539837	-0.101739
H206	H	1.630643	-0.206503	0.231594
H207	H	1.963976	0.126830	0.564928
