data_functionalizedCrystal
_audit_creation_method	'MofGen! by Chris Wilmer'
_symmetry_space_group_name_H-M	'P1'
_symmetry_Int_Tables_number	1
_symmetry_cell_setting	triclinic
loop_
_symmetry_equiv_pos_as_xyz
  x,y,z
_cell_length_a	15.944551
_cell_length_b	11.026607
_cell_length_c	9.482944
_cell_angle_alpha	81.873049
_cell_angle_beta	79.531651
_cell_angle_gamma	96.042377
loop_
_atom_site_label
_atom_site_type_symbol
_atom_site_fract_x
_atom_site_fract_y
_atom_site_fract_z
O1	O	-1.152457	-0.173358	0.120736
O2	O	-0.910828	-0.192659	0.120771
O3	O	-1.011616	-0.006353	0.120751
O4	O	-1.051669	-0.359663	0.120756
O5	O	-0.983020	0.027390	-0.121038
O6	O	-0.882232	-0.158915	-0.121018
O7	O	-1.123861	-0.139614	-0.121053
Cu8	Cu	-1.000436	-0.146184	-0.143113
Cu9	Cu	-1.034253	-0.186089	0.142830
O10	O	-1.023073	-0.325920	-0.121033
C11	C	-0.865116	-0.174987	-0.000119
C12	C	-0.771508	-0.172587	-0.000105
C13	C	-0.989929	0.055730	-0.000141
C14	C	-0.967903	0.190444	-0.000132
C15	C	-1.169574	-0.157287	-0.000160
C16	C	-1.263182	-0.159688	-0.000164
C17	C	-0.538324	-0.051363	-0.000135
C18	C	-0.499912	-0.124291	0.119080
C19	C	-0.600124	-0.168240	-0.000123
C20	C	-0.471745	-0.091050	-0.119305
C21	C	-0.434572	-0.164031	-0.000146
C22	C	-0.562957	-0.241213	0.119191
C23	C	-0.534781	-0.207941	-0.119301
C24	C	-0.496403	-0.280958	-0.000056
C25	C	-0.695493	-0.170661	-0.000108
C26	C	-0.339206	-0.161621	-0.000150
C27	C	-1.044760	-0.388003	-0.000139
C28	C	-1.066787	-0.522719	-0.000137
N29	N	-0.976656	-0.118116	-0.344230
C30	C	-1.028722	0.264246	-0.000139
C31	C	-1.005959	0.403481	-0.000131
C32	C	-1.027233	-0.177810	-0.416436
C33	C	-1.007453	-0.154445	-0.583851
N34	N	-1.058038	-0.214148	0.343948
H35	H	-0.557011	0.045613	0.000011
Br36	Br	-0.910873	-0.040414	-0.687374
H37	H	-1.115989	-0.282554	-0.593936
Br38	Br	-0.853027	0.256922	-0.000095
Br39	Br	-1.123821	-0.291815	-0.312907
Br40	Br	-1.143603	0.197763	-0.000141
H41	H	-1.135727	0.437377	-0.000038
Br42	Br	-0.473811	-0.065351	0.287072
Br43	Br	-0.628599	-0.347016	0.287362
H44	H	-0.918713	-0.049709	-0.406355
H45	H	-0.550458	-0.243268	-0.220092
Br46	Br	-0.465609	-0.442804	0.000048
H47	H	-0.432264	-0.027530	-0.220088
H48	H	-0.937034	0.443369	-0.000111
