data_functionalizedCrystal
_audit_creation_method	'MofGen! by Chris Wilmer'
_symmetry_space_group_name_H-M	'P1'
_symmetry_Int_Tables_number	1
_symmetry_cell_setting	triclinic
loop_
_symmetry_equiv_pos_as_xyz
  x,y,z
_cell_length_a	14.908742
_cell_length_b	14.908178
_cell_length_c	17.077396
_cell_angle_alpha	93.326565
_cell_angle_beta	86.716548
_cell_angle_gamma	90.210560
loop_
_atom_site_label
_atom_site_type_symbol
_atom_site_fract_x
_atom_site_fract_y
_atom_site_fract_z
Zn1	Zn	1.353940	-0.437273	0.353739
Zn2	Zn	1.345170	-0.587650	0.215359
Zn3	Zn	1.203581	-0.428632	0.230488
Zn4	Zn	1.194885	-0.578929	0.354584
O5	O	1.274394	-0.508121	0.288542
O6	O	1.478597	-0.464487	0.328698
O7	O	1.326357	-0.566590	0.107519
O8	O	1.230837	-0.303945	0.252815
O9	O	1.472153	-0.574968	0.227031
O10	O	1.341305	-0.310293	0.343367
O11	O	1.222332	-0.449760	0.118634
O12	O	1.076608	-0.441303	0.253634
O13	O	1.216016	-0.560104	0.464319
O14	O	1.070219	-0.551725	0.344807
O15	O	1.332873	-0.456030	0.463698
O16	O	1.317924	-0.712326	0.227850
O17	O	1.207511	-0.705919	0.330138
C18	C	1.040789	-0.494631	0.300954
C19	C	0.940851	-0.488882	0.306282
C20	C	0.803337	-0.423358	0.366790
C21	C	0.897239	-0.428752	0.361789
C22	C	0.890554	-0.543622	0.255773
C23	C	0.796653	-0.538228	0.260775
C24	C	0.753048	-0.478093	0.316284
C25	C	0.659145	-0.472695	0.321281
C26	C	0.652462	-0.587569	0.215270
C27	C	0.746364	-0.592963	0.210268
C28	C	1.260847	-0.741751	0.277460
C29	C	1.255133	-0.841704	0.272740
C30	C	1.359341	-1.035981	0.358277
C31	C	1.353975	-1.129895	0.353845
C32	C	1.239034	-1.123449	0.259450
C33	C	1.244399	-1.029534	0.263882
C34	C	1.304555	-0.985804	0.313296
C35	C	1.309924	-0.891887	0.317723
C36	C	1.194979	-0.885443	0.223332
C37	C	1.189614	-0.979357	0.218901
C38	C	1.508911	-0.521664	0.276083
C39	C	1.608848	-0.527435	0.270773
C40	C	1.274452	-0.508058	0.493287
C41	C	1.274477	-0.508031	0.580537
C42	C	1.288019	-0.273580	0.299684
C43	C	1.293825	-0.173633	0.304432
C44	C	1.274392	-0.508122	0.084595
C45	C	1.274556	-0.507905	-0.002652
C46	C	1.335327	-0.453835	0.621205
C47	C	1.335340	-0.453806	0.703187
C48	C	1.274506	-0.507978	0.744498
C49	C	1.213650	-0.562176	0.703824
C50	C	1.213634	-0.562200	0.621844
C51	C	1.213689	-0.562124	0.874695
C52	C	1.213706	-0.562101	0.956680
C53	C	1.335395	-0.453730	0.956037
C54	C	1.335379	-0.453754	0.874057
C55	C	1.274524	-0.507953	0.833389
H56	H	0.623643	-0.423726	0.366477
H57	H	0.938181	-0.384182	0.402917
F58	F	1.148902	-0.619826	0.747793
F59	F	1.412283	-1.183294	0.401722
F60	F	1.148867	-0.619880	0.578563
H61	H	0.767834	-0.374385	0.411981
F62	F	1.400130	-0.396103	0.830092
F63	F	0.936977	-0.607625	0.196707
H64	H	1.190054	-1.159070	0.219223
F65	F	0.792781	-0.656962	0.151196
F66	F	1.125589	-1.025908	0.166319
H67	H	1.164168	-0.606211	0.990313
H68	H	1.150372	-0.844578	0.186703
F69	F	0.598934	-0.645821	0.161510
F70	F	1.373950	-0.845347	0.370311
F71	F	1.423371	-0.989438	0.410858
H72	H	1.384868	-0.409725	0.587575
H73	H	1.384892	-0.409676	0.736295
H74	H	1.384944	-0.409597	0.989153
H75	H	1.164121	-0.606244	0.841586
