data_functionalizedCrystal
_audit_creation_method	'MofGen! by Chris Wilmer'
_symmetry_space_group_name_H-M	'P1'
_symmetry_Int_Tables_number	1
_symmetry_cell_setting	triclinic
loop_
_symmetry_equiv_pos_as_xyz
  x,y,z
_cell_length_a	10.686285
_cell_length_b	12.759401
_cell_length_c	12.759393
_cell_angle_alpha	90.020566
_cell_angle_beta	85.602987
_cell_angle_gamma	94.370041
loop_
_atom_site_label
_atom_site_type_symbol
_atom_site_fract_x
_atom_site_fract_y
_atom_site_fract_z
Zn1	Zn	-0.502350	-1.638408	-0.561988
Zn2	Zn	-0.002350	-1.138408	-0.061988
Zn3	Zn	-0.713390	-1.651802	-0.372855
Zn4	Zn	-0.213390	-1.151802	0.127145
Zn5	Zn	-0.502405	-1.462710	-0.386320
Zn6	Zn	-0.002405	-0.962710	0.113680
Zn7	Zn	-0.713290	-1.476195	-0.548500
Zn8	Zn	-0.213290	-0.976195	-0.048500
O9	O	-0.607859	-1.557278	-0.467416
O10	O	-0.107859	-1.057278	0.032584
O11	O	-0.530364	-1.787207	-0.536908
O12	O	-0.030364	-1.287207	-0.036908
O13	O	-0.685468	-1.626680	-0.227616
O14	O	-0.185468	-1.126680	0.272384
O15	O	-0.325821	-1.474768	-0.420903
O16	O	0.174179	-0.974768	0.079097
O17	O	-0.685415	-1.797047	-0.397953
O18	O	-0.185415	-1.297047	0.102047
O19	O	-0.325781	-1.603852	-0.549965
O20	O	0.174219	-1.103852	-0.049965
O21	O	-0.530458	-1.487755	-0.237509
O22	O	-0.030458	-0.987755	0.262491
O23	O	-0.530361	-1.317477	-0.407825
O24	O	-0.030361	-0.817477	0.092175
O25	O	-0.685243	-1.497751	-0.697314
O26	O	-0.185243	-0.997751	-0.197314
O27	O	-0.685297	-1.327384	-0.526977
O28	O	-0.185297	-0.827384	-0.026977
O29	O	-0.530267	-1.616928	-0.707224
O30	O	-0.030267	-1.116928	-0.207224
O31	O	-0.889954	-1.639756	-0.384875
O32	O	-0.389954	-1.139756	0.115125
O33	O	-0.889880	-1.510738	-0.513920
O34	O	-0.389880	-1.010738	-0.013920
C35	C	-0.607825	-1.284309	-0.467399
C36	C	-0.107825	-0.784309	0.032601
C37	C	-0.607840	-1.167533	-0.467415
C38	C	-0.107840	-0.667533	0.032585
C39	C	-0.527249	-1.107557	-0.539862
C40	C	-0.027249	-0.607557	-0.039862
C41	C	-0.527257	-0.997834	-0.539867
C42	C	-0.027257	-0.497834	-0.039867
C43	C	-0.688458	-1.008073	-0.394973
C44	C	-0.188458	-0.508073	0.105027
C45	C	-0.688443	-1.117794	-0.394964
C46	C	-0.188443	-0.617794	0.105036
C47	C	-0.935702	-1.578192	-0.446496
C48	C	-0.435702	-1.078192	0.053504
C49	C	-1.075954	-1.587235	-0.437581
C50	C	-0.575954	-1.087235	0.062419
C51	C	-0.278736	-1.536312	-0.488441
C52	C	0.221264	-1.036312	0.011559
C53	C	-0.138484	-1.527377	-0.497400
C54	C	0.361516	-1.027377	0.002600
C55	C	-0.607738	-1.557349	-0.741457
C56	C	-0.107738	-1.057349	-0.241457
C57	C	-0.607686	-1.557380	-0.858237
C58	C	-0.107686	-1.057380	-0.358237
C59	C	-0.607883	-0.831313	-0.467430
C60	C	-0.107883	-0.331313	0.032570
C61	C	-0.607863	-0.948089	-0.467428
C62	C	-0.107863	-0.448089	0.032572
C63	C	-0.526977	-1.619439	-0.918261
C64	C	-0.026977	-1.119439	-0.418261
C65	C	-0.526923	-1.619454	-1.027989
C66	C	-0.026923	-1.119454	-0.527989
C67	C	-0.688298	-1.495346	-1.017658
C68	C	-0.188298	-0.995346	-0.517658
C69	C	-0.688345	-1.495327	-0.907932
C70	C	-0.188345	-0.995327	-0.407932
C71	C	-0.607889	-1.557263	-0.194447
C72	C	-0.107889	-1.057263	0.305553
C73	C	-0.607585	-1.557413	-0.077690
C74	C	-0.107585	-1.057413	0.422310
H75	H	-0.754083	-0.967561	-0.335988
H76	H	-0.254083	-0.467561	0.164012
F77	F	-0.441479	-0.934007	-0.616974
F78	F	0.058521	-0.434007	-0.116974
F79	F	-0.441461	-1.160490	-0.616967
F80	F	0.058539	-0.660490	-0.116967
H81	H	-1.084722	-1.469213	-0.555435
H82	H	-0.584722	-0.969213	-0.055435
H83	H	-1.129723	-1.645396	-0.379536
H84	H	-0.629723	-1.145396	0.120464
H85	H	-0.461297	-1.669963	-0.877803
H86	H	0.038703	-1.169963	-0.377803
F87	F	-0.774213	-1.181628	-0.317844
F88	F	-0.274213	-0.681628	0.182156
F89	F	-0.441029	-1.685514	-1.091866
F90	F	0.058971	-1.185514	-0.591866
H91	H	-0.753969	-1.444828	-1.058133
H92	H	-0.253969	-0.944828	-0.558133
H93	H	-0.754067	-1.444783	-0.859059
H94	H	-0.254067	-0.944783	-0.359059
