data_functionalizedCrystal
_audit_creation_method	'MofGen! by Chris Wilmer'
_symmetry_space_group_name_H-M	'P1'
_symmetry_Int_Tables_number	1
_symmetry_cell_setting	triclinic
loop_
_symmetry_equiv_pos_as_xyz
  x,y,z
_cell_length_a	11.792241
_cell_length_b	11.792241
_cell_length_c	10.268362
_cell_angle_alpha	89.999626
_cell_angle_beta	90.000297
_cell_angle_gamma	95.806585
loop_
_atom_site_label
_atom_site_type_symbol
_atom_site_fract_x
_atom_site_fract_y
_atom_site_fract_z
O1	O	-0.155569	1.506909	-0.108158
O2	O	0.344431	2.006909	0.391842
O3	O	-0.171602	1.176568	-0.108187
O4	O	0.328398	1.676568	0.391813
O5	O	0.001585	1.349755	-0.108180
O6	O	0.501585	1.849755	0.391820
O7	O	-0.328756	1.333722	-0.108166
O8	O	0.171244	1.833722	0.391834
O9	O	0.001593	1.349740	0.108421
O10	O	0.501593	1.849740	0.608421
O11	O	-0.171594	1.176553	0.108414
O12	O	0.328406	1.676553	0.608414
O13	O	-0.155561	1.506894	0.108442
O14	O	0.344439	2.006894	0.608442
Cu15	Cu	-0.163577	1.341722	0.128205
Cu16	Cu	0.336423	1.841722	0.628205
Cu17	Cu	-0.163586	1.341740	-0.127950
Cu18	Cu	0.336414	1.841740	0.372050
O19	O	-0.328748	1.333707	0.108435
O20	O	0.171252	1.833707	0.608435
C21	C	-0.170591	1.134269	0.000109
C22	C	0.329409	1.634269	0.500109
C23	C	-0.167576	1.008255	0.000098
C24	C	0.332424	1.508255	0.500098
C25	C	-0.162034	0.777543	0.000135
C26	C	0.337966	1.277543	0.500135
C27	C	-0.165113	0.905928	0.000114
C28	C	0.334887	1.405928	0.500114
C29	C	-0.371043	1.334721	0.000137
C30	C	0.128957	1.834721	0.500137
C31	C	-0.497057	1.337736	0.000143
C32	C	0.002943	1.837736	0.500143
C33	C	-0.727769	1.343279	0.000110
C34	C	-0.227769	1.843279	0.500110
C35	C	-0.599384	1.340199	0.000128
C36	C	-0.099384	1.840199	0.500128
C37	C	0.043880	1.348740	0.000116
C38	C	0.543880	1.848740	0.500116
C39	C	0.169894	1.345726	0.000101
C40	C	0.669894	1.845726	0.500101
C41	C	-0.156572	1.549192	0.000143
C42	C	0.343428	2.049192	0.500143
C43	C	-0.159587	1.675206	0.000146
C44	C	0.340413	2.175206	0.500146
N45	N	-0.163571	1.341717	0.308371
N46	N	0.336429	1.841717	0.808371
N47	N	-0.163584	1.341753	-0.308116
N48	N	0.336416	1.841753	0.191884
C49	C	-0.163583	1.341734	0.574042
C50	C	0.336417	1.841734	1.074042
C51	C	-0.163580	1.341721	0.426204
C52	C	0.336420	1.841721	0.926204
