data_functionalizedCrystal
_audit_creation_method	'MofGen! by Chris Wilmer'
_symmetry_space_group_name_H-M	'P1'
_symmetry_Int_Tables_number	1
_symmetry_cell_setting	triclinic
loop_
_symmetry_equiv_pos_as_xyz
  x,y,z
_cell_length_a	14.908571
_cell_length_b	16.120484
_cell_length_c	14.908308
_cell_angle_alpha	95.986071
_cell_angle_beta	90.175053
_cell_angle_gamma	89.787312
loop_
_atom_site_label
_atom_site_type_symbol
_atom_site_fract_x
_atom_site_fract_y
_atom_site_fract_z
Zn1	Zn	1.320097	-0.434923	-0.609960
Zn2	Zn	1.820097	0.065077	-0.109960
Zn3	Zn	1.321040	-0.566744	-0.466383
Zn4	Zn	1.821040	-0.066744	0.033617
Zn5	Zn	1.179340	-0.418915	-0.450134
Zn6	Zn	1.679340	0.081085	0.049866
Zn7	Zn	1.162126	-0.565754	-0.607984
Zn8	Zn	1.662126	-0.065754	-0.107984
O9	O	1.245651	-0.496584	-0.533615
O10	O	1.745651	0.003416	-0.033615
O11	O	1.445636	-0.459523	-0.598542
O12	O	1.945636	0.040477	-0.098542
O13	O	1.309843	-0.540849	-0.338080
O14	O	1.809843	-0.040849	0.161920
O15	O	1.204822	-0.304418	-0.465363
O16	O	1.704822	0.195582	0.034637
O17	O	1.446329	-0.556371	-0.493056
O18	O	1.946329	-0.056371	0.006944
O19	O	1.308235	-0.316179	-0.582786
O20	O	1.808235	0.183821	-0.082786
O21	O	1.205736	-0.432240	-0.326142
O22	O	1.705736	0.067760	0.173858
O23	O	1.051643	-0.431280	-0.463446
O24	O	1.551643	0.068720	0.036554
O25	O	1.175482	-0.554684	-0.734394
O26	O	1.675482	-0.054684	-0.234394
O27	O	1.038995	-0.539162	-0.579418
O28	O	1.538995	-0.039162	-0.079418
O29	O	1.291543	-0.458562	-0.735846
O30	O	1.791543	0.041438	-0.235846
O31	O	1.293150	-0.683233	-0.491140
O32	O	1.793150	-0.183233	0.008860
O33	O	1.176396	-0.682506	-0.595173
O34	O	1.676396	-0.182506	-0.095173
C35	C	1.012801	-0.483377	-0.519455
C36	C	1.512801	0.016623	-0.019455
C37	C	0.913184	-0.477748	-0.513419
C38	C	1.413184	0.022252	-0.013419
C39	C	0.712871	-0.579666	-0.622692
C40	C	1.212871	-0.079666	-0.122692
C41	C	0.619272	-0.574380	-0.617025
C42	C	1.119272	-0.074380	-0.117025
C43	C	0.632384	-0.461887	-0.496421
C44	C	1.132384	0.038113	0.003579
C45	C	0.725983	-0.467173	-0.502089
C46	C	1.225983	0.032827	-0.002089
C47	C	0.766223	-0.526065	-0.565226
C48	C	1.266223	-0.026065	-0.065226
C49	C	0.859824	-0.531355	-0.570888
C50	C	1.359824	-0.031355	-0.070888
C51	C	0.872935	-0.418858	-0.450290
C52	C	1.372935	0.081142	0.049710
C53	C	0.779335	-0.413572	-0.444622
C54	C	1.279335	0.086428	0.055378
C55	C	1.233031	-0.713110	-0.544726
C56	C	1.733031	-0.213110	-0.044726
C57	C	1.227712	-0.805747	-0.549515
C58	C	1.727712	-0.305747	-0.049515
C59	C	1.218005	-0.975358	-0.558276
C60	C	1.718005	-0.475358	-0.058276
C61	C	1.273456	-1.016980	-0.508979
C62	C	1.773456	-0.516980	-0.008979
C63	C	1.268055	-1.111356	-0.513854
C64	C	1.768055	-0.611356	-0.013854
C65	C	1.223405	-0.880972	-0.553403
C66	C	1.723405	-0.380972	-0.053403
C67	C	1.479410	-0.509843	-0.547832
C68	C	1.979410	-0.009843	-0.047832
C69	C	1.579025	-0.515493	-0.553890
C70	C	2.079025	-0.015493	-0.053890
C71	C	1.231487	-0.508298	-0.768743
C72	C	1.731487	-0.008298	-0.268743
C73	C	1.225451	-0.513290	-0.868941
C74	C	1.725451	-0.013290	-0.368941
C75	C	1.258344	-0.279214	-0.522482
C76	C	1.758344	0.220786	-0.022482
C77	C	1.263752	-0.186584	-0.517738
C78	C	1.763752	0.313416	-0.017738
C79	C	1.334963	-0.422560	-1.058735
C80	C	1.834963	0.077440	-0.558735
C81	C	1.329294	-0.427248	-1.152880
C82	C	1.829294	0.072752	-0.652880
C83	C	1.208443	-0.527348	-1.151376
C84	C	1.708443	-0.027348	-0.651376
C85	C	1.214111	-0.522661	-1.057231
C86	C	1.714111	-0.022661	-0.557231
C87	C	1.277374	-0.470266	-1.010914
C88	C	1.777374	0.029734	-0.510914
C89	C	1.283046	-0.465583	-0.916769
C90	C	1.783046	0.034417	-0.416769
C91	C	1.162191	-0.565679	-0.915266
C92	C	1.662191	-0.065679	-0.415266
C93	C	1.156523	-0.570366	-1.009410
C94	C	1.656523	-0.070366	-0.509410
C95	C	1.259815	-0.484858	-0.299402
C96	C	1.759815	0.015142	0.200598
C97	C	1.266038	-0.479641	-0.199204
C98	C	1.766038	0.020359	0.300796
H99	H	0.599604	-0.413934	-0.445024
H100	H	1.099604	0.086066	0.054976
C101	C	0.641675	-0.355515	-0.382387
C102	C	1.141675	0.144485	0.117613
C103	C	0.735098	-0.348839	-0.375226
C104	C	1.235098	0.151161	0.124774
H105	H	0.614369	-0.315553	-0.339539
H106	H	1.114369	0.184447	0.160461
H107	H	0.623414	-0.345553	-0.441420
H108	H	1.123414	0.154447	0.058580
H109	H	0.623885	-0.409966	-0.371041
H110	H	1.123885	0.090034	0.128959
H111	H	0.752888	-0.294390	-0.386578
H112	H	1.252888	0.205610	0.113422
H113	H	0.753366	-0.358795	-0.316179
H114	H	1.253366	0.141205	0.183821
C115	C	1.298793	-0.913680	-0.383520
C116	C	1.798793	-0.413680	0.116480
C117	C	1.343014	-0.969408	-0.447049
C118	C	1.843014	-0.469408	0.052951
H119	H	1.341733	-0.884314	-0.345284
H120	H	1.841733	-0.384314	0.154716
H121	H	1.264725	-0.875165	-0.413813
H122	H	1.764725	-0.375165	0.086187
H123	H	1.259942	-0.943771	-0.348367
H124	H	1.759942	-0.443771	0.151633
H125	H	1.381860	-0.939316	-0.482206
H126	H	1.881860	-0.439316	0.017794
H127	H	1.377097	-1.007928	-0.416753
H128	H	1.877097	-0.507928	0.083247
H129	H	1.376187	-0.388398	-1.191812
H130	H	1.876187	0.111602	-0.691812
H131	H	0.916384	-0.375214	-0.403494
H132	H	1.416384	0.124786	0.096506
C133	C	1.183060	-0.643997	-1.262260
C134	C	1.683060	-0.143997	-0.762260
C135	C	1.138901	-0.584924	-1.202302
C136	C	1.638901	-0.084924	-0.702302
H137	H	1.140123	-0.679541	-1.293696
H138	H	1.640123	-0.179541	-0.793696
H139	H	1.216545	-0.616252	-1.304202
H140	H	1.716545	-0.116252	-0.804202
H141	H	1.222449	-0.676271	-1.229539
H142	H	1.722449	-0.176271	-0.729539
H143	H	1.099516	-0.552647	-1.235024
H144	H	1.599516	-0.052647	-0.735024
H145	H	1.105400	-0.612672	-1.160354
H146	H	1.605400	-0.112672	-0.660354
H147	H	1.105015	-0.613023	-1.047134
H148	H	1.605015	-0.113023	-0.547134
C149	C	1.163508	-1.007462	-0.709589
C150	C	1.663508	-0.507462	-0.209589
C151	C	1.148443	-1.022933	-0.620187
C152	C	1.648443	-0.522933	-0.120187
H153	H	1.120565	-1.036846	-0.747806
H154	H	1.620565	-0.536846	-0.247806
H155	H	1.158048	-0.949369	-0.714394
H156	H	1.658048	-0.449369	-0.214394
H157	H	1.222124	-1.025694	-0.727202
H158	H	1.722124	-0.525694	-0.227202
H159	H	1.089829	-1.004695	-0.602571
H160	H	1.589829	-0.504695	-0.102571
H161	H	1.153895	-1.081038	-0.615378
H162	H	1.653895	-0.581038	-0.115378
C163	C	1.401923	-0.367101	-0.927714
C164	C	1.901923	0.132899	-0.427714
C165	C	1.352579	-0.407988	-0.865854
C166	C	1.852579	0.092012	-0.365854
H167	H	1.444845	-0.331538	-0.896281
H168	H	1.944845	0.168462	-0.396281
H169	H	1.431877	-0.407180	-0.968376
H170	H	1.931877	0.092820	-0.468376
H171	H	1.362511	-0.334844	-0.960428
H172	H	1.862511	0.165156	-0.460428
H173	H	1.391991	-0.440250	-0.833144
H174	H	1.891991	0.059750	-0.333144
H175	H	1.322623	-0.367903	-0.825177
H176	H	1.822623	0.132097	-0.325177
C177	C	1.117215	-0.602945	-0.770283
C178	C	1.617215	-0.102945	-0.270283
C179	C	1.098883	-0.618121	-0.862699
C180	C	1.598883	-0.118121	-0.362699
H181	H	1.078130	-0.635319	-0.737832
H182	H	1.578130	-0.135319	-0.237832
H183	H	1.177642	-0.617787	-0.759148
H184	H	1.677642	-0.117787	-0.259148
H185	H	1.108291	-0.545438	-0.751193
H186	H	1.608291	-0.045438	-0.251193
H187	H	1.107813	-0.675627	-0.881791
H188	H	1.607813	-0.175627	-0.381791
H189	H	1.038441	-0.603284	-0.873840
H190	H	1.538441	-0.103284	-0.373840
H191	H	0.745635	-0.627623	-0.674096
H192	H	1.245635	-0.127623	-0.174096
C193	C	0.837459	-0.642009	-0.689539
C194	C	1.337459	-0.142009	-0.189539
C195	C	0.904059	-0.596083	-0.640291
C196	C	1.404059	-0.096083	-0.140291
H197	H	0.864768	-0.681965	-0.732391
H198	H	1.364768	-0.181965	-0.232391
H199	H	0.801465	-0.669813	-0.649633
H200	H	1.301465	-0.169813	-0.149633
H201	H	0.800986	-0.605393	-0.720004
H202	H	1.300986	-0.105393	-0.220004
H203	H	0.940529	-0.632699	-0.609821
H204	H	1.440529	-0.132699	-0.109821
H205	H	0.940069	-0.568277	-0.680203
H206	H	1.440069	-0.068277	-0.180203
H207	H	0.575836	-0.618026	-0.663822
H208	H	1.075836	-0.118026	-0.163822
H209	H	1.386478	-0.379902	-1.021024
H210	H	1.886478	0.120098	-0.521024
