data_functionalizedCrystal
_audit_creation_method	'MofGen! by Chris Wilmer'
_symmetry_space_group_name_H-M	'P1'
_symmetry_Int_Tables_number	1
_symmetry_cell_setting	triclinic
loop_
_symmetry_equiv_pos_as_xyz
  x,y,z
_cell_length_a	17.666332
_cell_length_b	10.654550
_cell_length_c	10.654550
_cell_angle_alpha	84.484931
_cell_angle_beta	89.993725
_cell_angle_gamma	89.993908
loop_
_atom_site_label
_atom_site_type_symbol
_atom_site_fract_x
_atom_site_fract_y
_atom_site_fract_z
O1	O	0.062892	-1.667850	-0.176401
O2	O	0.562892	-1.167850	0.323599
O3	O	0.062905	-1.302371	-0.193207
O4	O	0.562905	-0.802371	0.306793
O5	O	0.062893	-1.493514	-0.002065
O6	O	0.562893	-0.993514	0.497935
O7	O	0.062904	-1.476708	-0.367544
O8	O	0.562904	-0.976708	0.132456
O9	O	-0.063003	-1.493480	-0.002054
O10	O	0.436997	-0.993480	0.497946
O11	O	-0.062991	-1.302337	-0.193197
O12	O	0.437009	-0.802337	0.306803
O13	O	-0.063005	-1.667816	-0.176391
O14	O	0.436995	-1.167816	0.323609
Cu15	Cu	-0.074494	-1.485074	-0.184793
Cu16	Cu	0.425506	-0.985074	0.315207
Cu17	Cu	0.074394	-1.485114	-0.184805
Cu18	Cu	0.574394	-0.985114	0.315195
O19	O	-0.062993	-1.476674	-0.367533
O20	O	0.437007	-0.976674	0.132467
C21	C	-0.000054	-1.492263	0.044738
C22	C	0.499946	-0.992263	0.544738
C23	C	-0.000053	-1.488571	0.184181
C24	C	0.499947	-0.988571	0.684181
C25	C	-0.000041	-1.255556	-0.191968
C26	C	0.499959	-0.755556	0.308032
C27	C	-0.000036	-1.116113	-0.188276
C28	C	0.499964	-0.616113	0.311724
N29	N	-0.179213	-1.485055	-0.184783
N30	N	0.320787	-0.985055	0.315217
C31	C	-0.218828	-1.569720	-0.100188
C32	C	0.281172	-1.069720	0.399812
C33	C	-0.298076	-1.569728	-0.100181
C34	C	0.201924	-1.069728	0.399819
C35	C	-0.337705	-1.485081	-0.184793
C36	C	0.162295	-0.985081	0.315207
C37	C	-0.298081	-1.400399	-0.269395
C38	C	0.201919	-0.900399	0.230605
C39	C	-0.218834	-1.400386	-0.269390
C40	C	0.281166	-0.900386	0.230610
N41	N	-0.462120	-1.470062	-0.295783
N42	N	0.037880	-0.970062	0.204217
N43	N	-0.537401	-1.470082	-0.295784
N44	N	-0.037401	-0.970082	0.204216
C45	C	-0.576469	-1.485114	-0.184811
C46	C	-0.076469	-0.985114	0.315189
N47	N	-0.537413	-1.500150	-0.073834
N48	N	-0.037413	-1.000150	0.426166
N49	N	-0.462126	-1.500136	-0.073834
N50	N	0.037874	-1.000136	0.426166
C51	C	-0.423634	-1.485086	-0.184807
C52	C	0.076366	-0.985086	0.315193
C53	C	-0.702014	-1.569793	-0.100202
C54	C	-0.202014	-1.069793	0.399798
C55	C	-0.781263	-1.569791	-0.100194
C56	C	-0.281263	-1.069791	0.399806
C57	C	-0.781266	-1.400469	-0.269419
C58	C	-0.281266	-0.900469	0.230581
C59	C	-0.702018	-1.400465	-0.269415
C60	C	-0.202018	-0.900465	0.230585
C61	C	-0.662397	-1.485133	-0.184808
C62	C	-0.162397	-0.985133	0.315192
N63	N	0.179113	-1.485143	-0.184805
N64	N	0.679113	-0.985143	0.315195
C65	C	-0.000057	-1.714631	-0.177630
C66	C	0.499943	-1.214631	0.322370
C67	C	-0.000057	-1.854074	-0.181322
C68	C	0.499943	-1.354074	0.318678
C69	C	-0.000035	-1.036628	-0.300818
C70	C	0.499965	-0.536628	0.199182
C71	C	-0.000048	-0.905607	-0.297341
C72	C	0.499952	-0.405607	0.202659
C73	C	-0.000060	-0.933570	-0.068772
C74	C	0.499940	-0.433570	0.431228
C75	C	-0.000052	-1.064588	-0.072250
C76	C	0.499948	-0.564588	0.427750
C77	C	-0.000044	-1.477925	-0.414336
C78	C	0.499956	-0.977925	0.085664
C79	C	-0.000040	-1.481616	-0.553779
C80	C	0.499960	-0.981616	-0.053779
C81	C	-0.000057	-1.601112	0.263667
C82	C	0.499943	-1.101112	0.763667
C83	C	-0.000048	-1.597636	0.394688
C84	C	0.499952	-1.097636	0.894688
C85	C	-0.000034	-1.369066	0.366725
C86	C	0.499966	-0.869066	0.866725
C87	C	-0.000038	-1.372544	0.235706
C88	C	0.499962	-0.872544	0.735706
H89	H	-0.186571	-1.638659	-0.031293
H90	H	0.313429	-1.138659	0.468707
H91	H	-0.813518	-1.638733	-0.031299
H92	H	-0.313518	-1.138733	0.468701
C93	C	-0.000035	-1.248742	0.148266
C94	C	0.499965	-0.748742	0.648266
H95	H	-0.000037	-1.179143	0.197715
H96	H	0.499963	-0.679143	0.697715
H97	H	0.043866	-1.245364	0.096564
H98	H	0.543866	-0.745364	0.596564
H99	H	-0.043946	-1.245339	0.096587
H100	H	0.456054	-0.745339	0.596587
C101	C	-0.824849	-1.307359	-0.362490
C102	C	-0.324849	-0.807359	0.137510
H103	H	-0.877719	-1.319496	-0.350382
H104	H	-0.377719	-0.819496	0.149618
H105	H	-0.811872	-1.223424	-0.348073
H106	H	-0.311872	-0.723424	0.151927
H107	H	-0.811853	-1.321731	-0.446441
H108	H	-0.311853	-0.821731	0.053559
H109	H	-0.000027	-1.078574	-0.395294
H110	H	0.499973	-0.578574	0.104706
H111	H	-0.000049	-1.689279	0.459401
H112	H	0.499951	-1.189279	0.959401
H113	H	-0.669762	-1.331527	-0.338306
H114	H	-0.169762	-0.831527	0.161694
C115	C	-0.000068	-1.728732	0.206986
C116	C	0.499932	-1.228732	0.706986
H117	H	-0.000078	-1.714689	0.117572
H118	H	0.499922	-1.214689	0.617572
H119	H	0.043832	-1.775134	0.234192
H120	H	0.543832	-1.275134	0.734192
H121	H	-0.043979	-1.775101	0.234216
H122	H	0.456021	-1.275101	0.734216
C123	C	-0.000042	-0.818178	-0.421137
C124	C	0.499958	-0.318178	0.078863
H125	H	-0.000025	-0.867634	-0.490731
H126	H	0.499975	-0.367634	0.009269
H127	H	-0.043947	-0.766485	-0.424538
H128	H	0.456053	-0.266485	0.075462
H129	H	0.043864	-0.766489	-0.424527
H130	H	0.543864	-0.266489	0.075473
H131	H	-0.000078	-0.891602	0.025693
H132	H	0.499922	-0.391602	0.525693
H133	H	-0.000022	-1.274601	0.408693
H134	H	0.499978	-0.774601	0.908693
H135	H	-0.330336	-1.638675	-0.031291
H136	H	0.169664	-1.138675	0.468709
H137	H	-0.000055	-1.129309	0.019401
H138	H	0.499945	-0.629309	0.519401
H139	H	-0.330351	-1.331477	-0.338285
H140	H	0.169649	-0.831477	0.161715
H141	H	-0.669752	-1.638731	-0.031306
H142	H	-0.169752	-1.138731	0.468694
C143	C	-0.175256	-1.307259	-0.362458
C144	C	0.324744	-0.807259	0.137542
H145	H	-0.210205	-1.256849	-0.412856
H146	H	0.289795	-0.756849	0.087144
H147	H	-0.144349	-1.254588	-0.316795
H148	H	0.355651	-0.754588	0.183205
H149	H	-0.144337	-1.352896	-0.415164
H150	H	0.355663	-0.852896	0.084836
