data_functionalizedCrystal
_audit_creation_method	'MofGen! by Chris Wilmer'
_symmetry_space_group_name_H-M	'P1'
_symmetry_Int_Tables_number	1
_symmetry_cell_setting	triclinic
loop_
_symmetry_equiv_pos_as_xyz
  x,y,z
_cell_length_a	16.120530
_cell_length_b	18.215405
_cell_length_c	18.215399
_cell_angle_alpha	90.032960
_cell_angle_beta	87.086235
_cell_angle_gamma	92.879755
loop_
_atom_site_label
_atom_site_type_symbol
_atom_site_fract_x
_atom_site_fract_y
_atom_site_fract_z
Zn1	Zn	1.274509	0.350098	-0.473075
Zn2	Zn	1.524509	0.600098	-0.223075
Zn3	Zn	1.774509	0.850098	0.026925
Zn4	Zn	2.024509	1.100098	0.276925
Zn5	Zn	1.274412	0.473170	-0.349999
Zn6	Zn	1.524412	0.723170	-0.099999
Zn7	Zn	1.774412	0.973170	0.150001
Zn8	Zn	2.024412	1.223170	0.400001
Zn9	Zn	1.135099	0.343878	-0.343791
Zn10	Zn	1.385099	0.593878	-0.093791
Zn11	Zn	1.635099	0.843878	0.156209
Zn12	Zn	1.885099	1.093878	0.406209
Zn13	Zn	1.135053	0.466877	-0.466795
Zn14	Zn	1.385053	0.716877	-0.216795
Zn15	Zn	1.635053	0.966877	0.033205
Zn16	Zn	1.885053	1.216877	0.283205
O17	O	1.204768	0.408505	-0.408415
O18	O	1.454768	0.658505	-0.158415
O19	O	1.704768	0.908505	0.091585
O20	O	1.954768	1.158505	0.341585
O21	O	1.391161	0.371660	-0.461976
O22	O	1.641161	0.621660	-0.211976
O23	O	1.891161	0.871660	0.038024
O24	O	2.141161	1.121660	0.288024
O25	O	1.255911	0.456049	-0.246190
O26	O	1.505911	0.706049	0.003810
O27	O	1.755911	0.956049	0.253810
O28	O	2.005911	1.206049	0.503810
O29	O	1.153652	0.241721	-0.360971
O30	O	1.403652	0.491721	-0.110971
O31	O	1.653652	0.741721	0.139029
O32	O	1.903652	0.991721	0.389029
O33	O	1.391090	0.462081	-0.371552
O34	O	1.641090	0.712081	-0.121552
O35	O	1.891090	0.962081	0.128448
O36	O	2.141090	1.212081	0.378448
O37	O	1.256075	0.246291	-0.455956
O38	O	1.506075	0.496291	-0.205956
O39	O	1.756075	0.746291	0.044044
O40	O	2.006075	0.996291	0.294044
O41	O	1.153558	0.361059	-0.241629
O42	O	1.403558	0.611059	0.008371
O43	O	1.653558	0.861059	0.258371
O44	O	1.903558	1.111059	0.508371
O45	O	1.018428	0.354957	-0.354881
O46	O	1.268428	0.604957	-0.104881
O47	O	1.518428	0.854957	0.145119
O48	O	1.768428	1.104957	0.395119
O49	O	1.153574	0.451355	-0.570613
O50	O	1.403574	0.701355	-0.320613
O51	O	1.653574	0.951355	-0.070613
O52	O	1.903574	1.201355	0.179387
O53	O	1.018394	0.445324	-0.445251
O54	O	1.268394	0.695324	-0.195251
O55	O	1.518394	0.945324	0.054749
O56	O	1.768394	1.195324	0.304749
O57	O	1.256031	0.365558	-0.575228
O58	O	1.506031	0.615558	-0.325228
O59	O	1.756031	0.865558	-0.075228
O60	O	2.006031	1.115558	0.174772
O61	O	1.255866	0.575317	-0.365462
O62	O	1.505866	0.825317	-0.115462
O63	O	1.755866	1.075317	0.134538
O64	O	2.005866	1.325317	0.384538
O65	O	1.153480	0.570693	-0.451271
O66	O	1.403480	0.820693	-0.201271
O67	O	1.653480	1.070693	0.048729
O68	O	1.903480	1.320693	0.298729
C69	C	1.204680	0.599708	-0.408376
C70	C	1.454680	0.849708	-0.158376
C71	C	1.704680	1.099708	0.091624
C72	C	1.954680	1.349708	0.341624
C73	C	1.204719	0.681508	-0.408387
C74	C	1.454719	0.931508	-0.158387
C75	C	1.704719	1.181508	0.091613
C76	C	1.954719	1.431508	0.341613
C77	C	0.988161	0.398783	-0.398711
C78	C	1.238161	0.648783	-0.148711
C79	C	1.488161	0.898783	0.101289
C80	C	1.738161	1.148783	0.351289
C81	C	0.895496	0.394641	-0.394577
C82	C	1.145496	0.644641	-0.144577
C83	C	1.395496	0.894641	0.105423
C84	C	1.645496	1.144641	0.355423
C85	C	1.204808	0.408448	-0.600370
C86	C	1.454808	0.658448	-0.350370
C87	C	1.704808	0.908448	-0.100370
C88	C	1.954808	1.158448	0.149630
C89	C	1.204825	0.408424	-0.682170
C90	C	1.454825	0.658424	-0.432170
C91	C	1.704825	0.908424	-0.182170
C92	C	1.954825	1.158424	0.067830
C93	C	0.725835	0.387063	-0.387036
C94	C	0.975835	0.637063	-0.137036
C95	C	1.225835	0.887063	0.112964
C96	C	1.475835	1.137063	0.362964
C97	C	0.684543	0.430002	-0.429848
C98	C	0.934543	0.680002	-0.179848
C99	C	1.184543	0.930002	0.070152
C100	C	1.434543	1.180002	0.320152
C101	C	0.590137	0.425785	-0.425652
C102	C	0.840137	0.675785	-0.175652
C103	C	1.090137	0.925785	0.074348
C104	C	1.340137	1.175785	0.324348
C105	C	0.820248	0.391279	-0.391231
C106	C	1.070248	0.641279	-0.141231
C107	C	1.320248	0.891279	0.108769
C108	C	1.570248	1.141279	0.358769
C109	C	1.422221	0.418266	-0.418157
C110	C	1.672221	0.668266	-0.168157
C111	C	1.922221	0.918266	0.081843
C112	C	2.172221	1.168266	0.331843
C113	C	1.514887	0.422426	-0.422309
C114	C	1.764887	0.672426	-0.172309
C115	C	2.014887	0.922426	0.077691
C116	C	2.264887	1.172426	0.327691
C117	C	1.204879	0.216557	-0.408472
C118	C	1.454879	0.466557	-0.158472
C119	C	1.704879	0.716557	0.091528
C120	C	1.954879	0.966557	0.341528
C121	C	1.204927	0.134761	-0.408496
C122	C	1.454927	0.384761	-0.158496
C123	C	1.704927	0.634761	0.091504
C124	C	1.954927	0.884761	0.341504
C125	C	1.258157	0.872091	-0.363798
C126	C	1.508157	1.122091	-0.113798
C127	C	1.758157	1.372091	0.136202
C128	C	2.008157	1.622091	0.386202
C129	C	1.258194	0.948951	-0.363818
C130	C	1.508194	1.198951	-0.113818
C131	C	1.758194	1.448951	0.136182
C132	C	2.008194	1.698951	0.386182
C133	C	1.151487	0.944173	-0.453089
C134	C	1.401487	1.194173	-0.203089
C135	C	1.651487	1.444173	0.046911
C136	C	1.901487	1.694173	0.296911
C137	C	1.151454	0.867314	-0.453073
C138	C	1.401454	1.117314	-0.203073
C139	C	1.651454	1.367314	0.046927
C140	C	1.901454	1.617314	0.296927
C141	C	1.204788	0.831275	-0.408424
C142	C	1.454788	1.081275	-0.158424
C143	C	1.704788	1.331275	0.091576
C144	C	1.954788	1.581275	0.341576
C145	C	1.204858	0.984994	-0.408459
C146	C	1.454858	1.234994	-0.158459
C147	C	1.704858	1.484994	0.091541
C148	C	1.954858	1.734994	0.341541
C149	C	1.204898	1.068329	-0.408481
C150	C	1.454898	1.318329	-0.158481
C151	C	1.704898	1.568329	0.091519
C152	C	1.954898	1.818329	0.341519
C153	C	1.204749	0.747934	-0.408403
C154	C	1.454749	0.997934	-0.158403
C155	C	1.704749	1.247934	0.091597
C156	C	1.954749	1.497934	0.341597
C157	C	1.151575	0.358933	-0.867991
C158	C	1.401575	0.608933	-0.617991
C159	C	1.651575	0.858933	-0.367991
C160	C	1.901575	1.108933	-0.117991
C161	C	1.151589	0.358919	-0.944851
C162	C	1.401589	0.608919	-0.694851
C163	C	1.651589	0.858919	-0.444851
C164	C	1.901589	1.108919	-0.194851
C165	C	1.258174	0.457832	-0.949590
C166	C	1.508174	0.707832	-0.699590
C167	C	1.758174	0.957832	-0.449590
C168	C	2.008174	1.207832	-0.199590
C169	C	1.258155	0.457849	-0.872732
C170	C	1.508155	0.707849	-0.622732
C171	C	1.758155	0.957849	-0.372732
C172	C	2.008155	1.207849	-0.122732
C173	C	1.204856	0.408395	-0.831935
C174	C	1.454856	0.658395	-0.581935
C175	C	1.704856	0.908395	-0.331935
C176	C	1.954856	1.158395	-0.081935
C177	C	1.204890	0.408364	-0.985652
C178	C	1.454890	0.658364	-0.735652
C179	C	1.704890	0.908364	-0.485652
C180	C	1.954890	1.158364	-0.235652
C181	C	1.204906	0.408349	-1.068987
C182	C	1.454906	0.658349	-0.818987
C183	C	1.704906	0.908349	-0.568987
C184	C	1.954906	1.158349	-0.318987
C185	C	1.204839	0.408411	-0.748595
C186	C	1.454839	0.658411	-0.498595
C187	C	1.704839	0.908411	-0.248595
C188	C	1.954839	1.158411	0.001405
C189	C	1.204777	0.408511	-0.217209
C190	C	1.454777	0.658511	0.032791
C191	C	1.704777	0.908511	0.282791
C192	C	1.954777	1.158511	0.532791
C193	C	1.204922	0.408335	-0.135417
C194	C	1.454922	0.658335	0.114583
C195	C	1.704922	0.908335	0.364583
C196	C	1.954922	1.158335	0.614583
H197	H	0.720092	0.469929	-0.469652
H198	H	0.970092	0.719929	-0.219652
H199	H	1.220092	0.969929	0.030348
H200	H	1.470092	1.219929	0.280348
H201	H	1.301545	0.498130	-0.843374
H202	H	1.551545	0.748130	-0.593374
H203	H	1.801545	0.998130	-0.343374
H204	H	2.051545	1.248130	-0.093374
F205	F	1.094870	0.306281	-0.983221
F206	F	1.344870	0.556281	-0.733221
F207	F	1.594870	0.806281	-0.483221
F208	F	1.844870	1.056281	-0.233221
H209	H	0.690287	0.347138	-0.347236
H210	H	0.940287	0.597138	-0.097236
H211	H	1.190287	0.847138	0.152764
H212	H	1.440287	1.097138	0.402764
F213	F	1.314920	0.833738	-0.316279
F214	F	1.564920	1.083738	-0.066279
F215	F	1.814920	1.333738	0.183721
F216	F	2.064920	1.583738	0.433721
F217	F	1.094848	0.306302	-0.824574
F218	F	1.344848	0.556302	-0.574574
F219	F	1.594848	0.806302	-0.324574
F220	F	1.844848	1.056302	-0.074574
F221	F	1.314998	0.992388	-0.316323
F222	F	1.564998	1.242388	-0.066323
F223	F	1.814998	1.492388	0.183677
F224	F	2.064998	1.742388	0.433677
H225	H	1.108063	0.973525	-0.489440
H226	H	1.358063	1.223525	-0.239440
H227	H	1.608063	1.473525	0.010560
H228	H	1.858063	1.723525	0.260560
F229	F	1.094653	0.823872	-0.500576
F230	F	1.344653	1.073872	-0.250576
F231	F	1.594653	1.323872	-0.000576
F232	F	1.844653	1.573872	0.249424
H233	H	1.301568	0.498095	-0.982816
H234	H	1.551568	0.748095	-0.732816
H235	H	1.801568	0.998095	-0.482816
H236	H	2.051568	1.248095	-0.232816
