data_functionalizedCrystal
_audit_creation_method	'MofGen! by Chris Wilmer'
_symmetry_space_group_name_H-M	'P1'
_symmetry_Int_Tables_number	1
_symmetry_cell_setting	triclinic
loop_
_symmetry_equiv_pos_as_xyz
  x,y,z
_cell_length_a	16.992694
_cell_length_b	16.992695
_cell_length_c	15.455313
_cell_angle_alpha	87.152573
_cell_angle_beta	92.857794
_cell_angle_gamma	90.668223
loop_
_atom_site_label
_atom_site_type_symbol
_atom_site_fract_x
_atom_site_fract_y
_atom_site_fract_z
O1	O	-1.054080	-0.163694	-0.072023
O2	O	-0.825681	-0.161862	-0.072048
O3	O	-0.938965	-0.048579	-0.072029
O4	O	-0.940797	-0.276978	-0.072042
O5	O	-0.932485	-0.055028	0.072232
O6	O	-0.819202	-0.168312	0.072213
O7	O	-1.047601	-0.170144	0.072238
Cu8	Cu	-0.932809	-0.169817	0.085398
Cu9	Cu	-0.940473	-0.162189	-0.085207
O10	O	-0.934317	-0.283428	0.072219
C11	C	-0.793081	-0.162731	0.000079
C12	C	-0.705597	-0.155702	0.000070
C13	C	-1.080201	-0.169275	0.000109
C14	C	-1.167685	-0.176304	0.000113
C15	C	-0.933369	-0.022443	0.000102
C16	C	-0.926341	0.065041	0.000101
C17	C	-0.659607	-0.223520	0.000066
C18	C	-0.577405	-0.216911	0.000079
C19	C	-0.541197	-0.142484	0.000088
C20	C	-0.587193	-0.074661	0.000094
C21	C	-0.669393	-0.081271	0.000088
C22	C	-0.295881	-0.115091	0.000113
C23	C	-0.213676	-0.108486	0.000116
C24	C	-0.203893	-0.250737	0.000103
C25	C	-0.286095	-0.257340	0.000091
C26	C	-0.332084	-0.189517	0.000102
N27	N	-0.457174	-0.135727	0.000098
N28	N	-0.416105	-0.196275	0.000098
C29	C	-0.939913	-0.309563	0.000087
C30	C	-0.946942	-0.397047	0.000082
N31	N	-0.927425	-0.175181	0.205392
C32	C	-0.994158	0.111032	0.000109
C33	C	-0.987550	0.193233	0.000100
C34	C	-0.913123	0.229442	0.000089
C35	C	-0.845300	0.183445	0.000078
C36	C	-0.851910	0.101246	0.000081
C37	C	-0.885729	0.474757	0.000074
C38	C	-0.879124	0.556962	0.000074
C39	C	-1.021375	0.566744	0.000094
C40	C	-1.027977	0.484543	0.000102
C41	C	-0.960155	0.438554	0.000087
N42	N	-0.906366	0.313464	0.000082
N43	N	-0.966913	0.354533	0.000087
N44	N	-0.945863	-0.156819	-0.205202
C45	C	-0.975571	-0.127074	0.250795
C46	C	-0.971507	-0.131139	0.341602
C47	C	-0.919301	-0.183315	0.387005
C48	C	-0.871149	-0.231424	0.341596
C49	C	-0.875210	-0.227355	0.250791
C50	C	-0.901772	-0.200858	0.658584
C51	C	-0.897717	-0.204926	0.749395
C52	C	-0.998074	-0.104639	0.749395
C53	C	-1.002133	-0.100578	0.658588
C54	C	-0.953979	-0.148684	0.613187
N55	N	-0.915147	-0.187473	0.479825
N56	N	-0.958129	-0.144522	0.520369
H57	H	-0.689081	-0.284126	0.000058
H58	H	-1.054764	0.081557	0.000124
H59	H	-0.855202	-0.247417	0.786359
C60	C	-0.130232	-0.015210	-0.074027
C61	C	-0.173871	-0.026671	0.000131
H62	H	-0.105662	0.035298	-0.074020
H63	H	-0.091085	-0.054654	-0.074027
H64	H	-0.164359	-0.018489	-0.124329
H65	H	-0.139742	-0.023398	0.050434
H66	H	-0.213023	0.012784	0.000139
H67	H	-0.333316	-0.059864	0.000122
H68	H	-1.088584	0.455068	0.000112
H69	H	-0.539963	-0.272136	0.000075
H70	H	-0.836004	-0.266527	0.213825
H71	H	-1.042774	0.230675	0.000109
H72	H	-0.315570	-0.317946	0.000074
H73	H	-0.862564	-0.240030	0.621625
C74	C	-0.758679	0.273526	-0.074092
C75	C	-0.763489	0.223247	0.000066
H76	H	-0.708173	0.298100	-0.074093
H77	H	-0.766469	0.243909	-0.124389
H78	H	-0.798128	0.312677	-0.074077
H79	H	-0.724043	0.184092	0.000047
H80	H	-0.755691	0.252867	0.050376
C81	C	-0.798881	-0.029106	0.000070
C82	C	-0.777363	0.050689	0.000071
H83	H	-0.752857	-0.060315	0.000055
H84	H	-0.826919	-0.042809	0.050379
H85	H	-0.831450	-0.038310	-0.050236
H86	H	-0.744798	0.059894	0.050380
H87	H	-0.749312	0.064397	-0.050243
C88	C	-0.792511	0.647053	-0.074098
C89	C	-0.797311	0.596771	0.000058
H90	H	-0.742007	0.671633	-0.074102
H91	H	-0.800299	0.617436	-0.124396
H92	H	-0.831965	0.686199	-0.074079
H93	H	-0.757860	0.557621	0.000036
H94	H	-0.789514	0.626389	0.050369
C95	C	-0.820370	-0.282198	0.480793
C96	C	-0.813764	-0.288779	0.391502
H97	H	-0.784947	-0.317613	0.511599
H98	H	-0.807864	-0.229794	0.495684
H99	H	-0.872780	-0.294737	0.495654
H100	H	-0.761356	-0.276235	0.376640
H101	H	-0.826266	-0.341195	0.376605
H102	H	-0.166440	-0.305954	0.000096
C103	C	-0.465533	-0.001366	0.000101
C104	C	-0.547395	0.007152	0.000103
H105	H	-0.440967	0.049144	0.000099
H106	H	-0.447802	-0.031750	0.050404
H107	H	-0.452313	-0.027259	-0.050211
H108	H	-0.560615	0.033039	0.050418
H109	H	-0.565132	0.037548	-0.050205
H110	H	-1.076591	0.604197	0.000106
H111	H	-0.830503	0.437322	0.000061
H112	H	-1.018087	-0.084591	0.213834
C113	C	-0.670812	0.060001	0.000087
C114	C	-0.719949	-0.006723	0.000083
H115	H	-0.702025	0.106024	0.000081
H116	H	-0.636298	0.057373	0.050394
H117	H	-0.640797	0.061863	-0.050221
H118	H	-0.749960	-0.008588	0.050395
H119	H	-0.754477	-0.004094	-0.050228
C120	C	-1.071134	-0.031626	0.332481
C121	C	-1.024444	-0.078271	0.391508
H122	H	-1.103821	0.001007	0.363292
H123	H	-1.038184	0.000358	0.297079
H124	H	-1.103072	-0.064613	0.297047
H125	H	-0.992501	-0.045285	0.426937
H126	H	-1.057398	-0.110258	0.426925
C127	C	-1.100916	-0.001849	0.667712
C128	C	-1.059516	-0.043220	0.608683
H129	H	-1.136339	0.033563	0.636901
H130	H	-1.129699	-0.037993	0.703116
H131	H	-1.064784	0.026950	0.703142
H132	H	-1.095647	-0.072024	0.573257
H133	H	-1.030730	-0.007070	0.573264
H134	H	-1.037278	-0.065473	0.786369
