data_functionalizedCrystal
_audit_creation_method	'MofGen! by Chris Wilmer'
_symmetry_space_group_name_H-M	'P1'
_symmetry_Int_Tables_number	1
_symmetry_cell_setting	triclinic
loop_
_symmetry_equiv_pos_as_xyz
  x,y,z
_cell_length_a	18.101395
_cell_length_b	18.101398
_cell_length_c	18.215399
_cell_angle_alpha	90.027113
_cell_angle_beta	89.973154
_cell_angle_gamma	89.976925
loop_
_atom_site_label
_atom_site_type_symbol
_atom_site_fract_x
_atom_site_fract_y
_atom_site_fract_z
Zn1	Zn	-0.294993	-1.132123	-0.416276
Zn2	Zn	-0.418840	-1.132018	-0.293213
Zn3	Zn	-0.295000	-1.008281	-0.293207
Zn4	Zn	-0.418780	-1.008232	-0.416221
O5	O	-0.356903	-1.070163	-0.354729
O6	O	-0.311444	-1.235742	-0.399977
O7	O	-0.402440	-1.115581	-0.190228
O8	O	-0.191366	-1.024773	-0.309552
O9	O	-0.402434	-1.235665	-0.309563
O10	O	-0.191361	-1.115759	-0.399971
O11	O	-0.311455	-1.024672	-0.190223
O12	O	-0.311397	-0.904642	-0.309499
O13	O	-0.402331	-1.024690	-0.519213
O14	O	-0.402337	-0.904606	-0.399878
O15	O	-0.311385	-1.115712	-0.519253
O16	O	-0.522465	-1.115533	-0.309510
O17	O	-0.522421	-1.024588	-0.399884
C18	C	-0.356862	-0.877753	-0.354682
C19	C	-0.356862	-0.795439	-0.354680
C20	C	-0.549314	-1.070064	-0.354708
C21	C	-0.631628	-1.070090	-0.354723
C22	C	-0.356891	-0.496348	-0.354728
C23	C	-0.299389	-0.527671	-0.298143
C24	C	-0.299549	-0.613289	-0.297906
C25	C	-0.356876	-0.644730	-0.354704
C26	C	-0.434886	-0.613612	-0.333514
C27	C	-0.434561	-0.527967	-0.333116
C28	C	-0.337063	-0.527963	-0.432638
C29	C	-0.335331	-0.613614	-0.432216
C30	C	-0.356872	-0.728590	-0.354692
C31	C	-0.356900	-0.412488	-0.354739
C32	C	-0.930719	-1.070252	-0.354763
C33	C	-0.899396	-1.013165	-0.411764
C34	C	-0.813778	-1.012894	-0.411586
C35	C	-0.782336	-1.070172	-0.354744
C36	C	-0.813484	-1.049042	-0.277180
C37	C	-0.899129	-1.048674	-0.277521
C38	C	-0.899073	-1.148594	-0.374642
C39	C	-0.813422	-1.148133	-0.376343
C40	C	-0.698477	-1.070127	-0.354728
C41	C	-1.014578	-1.070295	-0.354773
C42	C	-0.163741	-1.070283	-0.354767
C43	C	-0.081427	-1.070334	-0.354783
C44	C	-0.356851	-1.070207	-0.546682
C45	C	-0.356828	-1.070225	-0.628481
C46	C	-0.356930	-0.263325	-0.354766
C47	C	-0.356905	-0.345639	-0.354752
C48	C	-0.309409	-1.117648	-0.893561
C49	C	-0.309429	-1.117639	-0.816702
C50	C	-0.404140	-1.022863	-0.816650
C51	C	-0.404123	-1.022876	-0.893507
C52	C	-0.356753	-1.070267	-0.931961
C53	C	-0.356790	-1.070246	-0.778245
C54	C	-0.356812	-1.070236	-0.694911
C55	C	-0.356732	-1.070278	-1.015300
C56	C	-0.356902	-1.070163	-0.163523
C57	C	-0.356716	-1.070288	-0.081725
H58	H	-0.241363	-0.507101	-0.311277
O59	O	-0.927607	-1.174115	-0.448289
H60	H	-0.964667	-1.131240	-0.471547
O61	O	-0.785151	-0.973987	-0.254474
H62	H	-0.807552	-0.959663	-0.199547
H63	H	-0.312349	-0.506121	-0.240749
O64	O	-0.926592	-1.101361	-0.219351
H65	H	-0.960619	-1.070638	-0.178844
H66	H	-0.793062	-1.164067	-0.433426
H67	H	-0.792016	-1.192916	-0.337853
O68	O	-0.927972	-0.936710	-0.394548
H69	H	-0.880693	-0.899365	-0.383288
O70	O	-0.455191	-0.971767	-0.934927
H71	H	-0.447226	-0.979745	-0.994831
H72	H	-0.442706	-0.984278	-0.785332
O73	O	-0.316907	-0.640372	-0.221431
H74	H	-0.367969	-0.674275	-0.222765
O75	O	-0.258364	-1.168741	-0.775282
H76	H	-0.225422	-1.201692	-0.814936
O77	O	-0.925668	-0.972816	-0.255219
H78	H	-0.959833	-0.977303	-0.204803
H79	H	-0.792716	-1.026113	-0.469099
H80	H	-0.241701	-0.634330	-0.311188
H81	H	-0.270837	-1.156236	-0.924868
O82	O	-0.456824	-0.501449	-0.257672
H83	H	-0.467717	-0.549797	-0.221814
O84	O	-0.926075	-1.204901	-0.319701
H85	H	-0.907152	-1.189099	-0.263912
O86	O	-0.493230	-0.500504	-0.385324
H87	H	-0.481213	-0.521083	-0.441485
O88	O	-0.493169	-0.640584	-0.386392
H89	H	-0.467091	-0.676544	-0.428435
O90	O	-0.386768	-0.641964	-0.491059
H91	H	-0.370007	-0.618956	-0.545024
O92	O	-0.457555	-0.641980	-0.258889
H93	H	-0.512801	-0.619602	-0.244519
O94	O	-0.263018	-0.499399	-0.458160
H95	H	-0.239522	-0.462345	-0.415594
H96	H	-0.378945	-0.507706	-0.474799
O97	O	-0.259291	-0.640560	-0.453392
H98	H	-0.236931	-0.675971	-0.408904
H99	H	-0.919946	-1.026253	-0.469463
H100	H	-0.793119	-1.089314	-0.233550
O101	O	-0.786712	-0.935979	-0.394124
H102	H	-0.807364	-0.896894	-0.436333
