data_functionalizedCrystal
_audit_creation_method	'MofGen! by Chris Wilmer'
_symmetry_space_group_name_H-M	'P1'
_symmetry_Int_Tables_number	1
_symmetry_cell_setting	triclinic
loop_
_symmetry_equiv_pos_as_xyz
  x,y,z
_cell_length_a	10.968094
_cell_length_b	10.654550
_cell_length_c	9.130313
_cell_angle_alpha	90.000110
_cell_angle_beta	102.127196
_cell_angle_gamma	95.400776
loop_
_atom_site_label
_atom_site_type_symbol
_atom_site_fract_x
_atom_site_fract_y
_atom_site_fract_z
O1	O	1.657163	-0.176119	0.296429
O2	O	1.294023	-0.192985	0.204779
O3	O	1.483942	-0.001812	0.252717
O4	O	1.467244	-0.367293	0.248491
O5	O	1.483940	-0.001817	0.496315
O6	O	1.294021	-0.192991	0.448378
O7	O	1.657161	-0.176124	0.540027
Cu8	Cu	1.475591	-0.184558	0.516445
Cu9	Cu	1.475593	-0.184552	0.228362
O10	O	1.467241	-0.367298	0.492090
C11	C	1.247523	-0.191762	0.314843
C12	C	1.108972	-0.188093	0.279876
C13	C	0.903994	-0.182654	0.354327
C14	C	1.047193	-0.186456	0.390482
C15	C	1.482715	0.044983	0.374205
C16	C	1.479047	0.184426	0.373274
C17	C	1.703661	-0.177348	0.429960
C18	C	1.842212	-0.181017	0.464918
C19	C	1.468469	-0.414093	0.370599
C20	C	1.472137	-0.553536	0.371520
N21	N	1.475598	-0.184562	0.719069
C22	C	1.590868	0.263930	0.401500
C23	C	1.587414	0.394951	0.400618
C24	C	1.360307	0.366950	0.343287
C25	C	1.363763	0.235932	0.344159
C26	C	1.721987	0.280098	0.434605
C27	C	1.718533	0.411118	0.433723
N28	N	1.475596	-0.184538	0.025740
C29	C	1.559716	-0.099939	0.816953
C30	C	1.559712	-0.099924	0.970289
C31	C	1.391469	-0.269165	0.927843
C32	C	1.391467	-0.269173	0.774508
C33	C	1.656854	-0.002232	0.841462
C34	C	1.656850	-0.002217	0.994798
H35	H	1.100309	-0.187862	0.511938
H36	H	1.752744	-0.023720	1.060616
H37	H	1.322961	-0.338069	0.694808
C38	C	1.235110	0.422804	0.311374
C39	C	1.167465	0.382509	0.168954
C40	C	1.052134	0.433947	0.139496
H41	H	1.188863	0.395620	0.384549
H42	H	1.249013	0.512226	0.314800
H43	H	1.153558	0.293106	0.165541
H44	H	1.213674	0.409692	0.095749
H45	H	1.066037	0.523369	0.142922
H46	H	1.005898	0.406759	0.212679
H47	H	1.006227	0.406624	0.042858
C48	C	1.777773	-0.042961	0.808831
C49	C	1.857877	-0.069947	0.943514
C50	C	1.969283	-0.107457	0.913513
H51	H	1.759545	-0.116133	0.745696
H52	H	1.817251	0.023091	0.760273
H53	H	1.818407	-0.135994	0.992049
H54	H	1.876140	0.003207	1.006667
H55	H	2.008761	-0.041405	0.864955
H56	H	1.951042	-0.180626	0.850376
H57	H	2.023651	-0.125761	1.004890
C58	C	1.790343	0.241196	0.315809
C59	C	1.828703	0.348384	0.242270
C60	C	1.891657	0.312594	0.132815
H61	H	1.861615	0.200464	0.361925
H62	H	1.735738	0.184952	0.245307
H63	H	1.883305	0.404607	0.312760
H64	H	1.757454	0.389129	0.196122
H65	H	1.837052	0.256350	0.062313
H66	H	1.962924	0.271861	0.178944
H67	H	1.917682	0.385313	0.082896
H68	H	1.763739	0.244475	0.550324
C69	C	0.833077	-0.181031	0.192405
C70	C	0.745244	-0.286924	0.162571
C71	C	0.679907	-0.285481	0.013417
H72	H	0.791063	-0.106655	0.176213
H73	H	0.890358	-0.182620	0.127651
H74	H	0.687972	-0.285325	0.227305
H75	H	0.787225	-0.361317	0.178730
H76	H	0.737187	-0.287069	-0.051338
H77	H	0.637900	-0.211101	-0.002762
H78	H	0.620312	-0.357333	-0.006849
C79	C	1.784386	0.466572	0.586400
C80	C	1.828121	0.369509	0.680671
C81	C	1.888771	0.420543	0.821326
H82	H	1.853059	0.524556	0.575610
H83	H	1.727172	0.509034	0.628670
H84	H	1.885331	0.327068	0.638410
H85	H	1.759472	0.311518	0.691505
H86	H	1.831557	0.463005	0.863596
H87	H	1.957439	0.478527	0.810521
H88	H	1.918442	0.354694	0.885310
H89	H	1.055859	-0.186682	0.158419
C90	C	0.913244	-0.182967	0.626763
C91	C	1.041150	-0.186391	0.630446
C92	C	1.106618	-0.188204	0.779514
H93	H	0.900997	-0.109318	0.678374
H94	H	0.883149	-0.255546	0.673769
H95	H	1.071236	-0.113820	0.583462
H96	H	1.053435	-0.260036	0.578866
H97	H	1.076522	-0.260783	0.826520
H98	H	1.094361	-0.114553	0.831113
H99	H	1.193407	-0.190539	0.782033
H100	H	1.272706	0.171203	0.321155
C101	C	1.299932	-0.360881	0.987913
C102	C	1.177141	-0.339358	0.919647
C103	C	1.092783	-0.423812	0.974958
H104	H	1.314030	-0.444884	0.966418
H105	H	1.311893	-0.348746	1.093245
H106	H	1.165185	-0.351503	0.814339
H107	H	1.163004	-0.255371	0.941136
H108	H	1.104744	-0.411678	1.080289
H109	H	1.106892	-0.507810	0.953459
H110	H	1.009460	-0.409213	0.928658
C111	C	1.616506	0.119543	1.047752
C112	C	1.589761	0.200185	0.926528
C113	C	1.552627	0.312371	0.975263
H114	H	1.543802	0.101282	1.087958
H115	H	1.682181	0.159216	1.122826
H116	H	1.524092	0.160520	0.851481
H117	H	1.662448	0.218482	0.886308
H118	H	1.618301	0.352044	1.050337
H119	H	1.479925	0.294097	1.015470
H120	H	1.534486	0.367105	0.893025
H121	H	1.758159	0.456770	0.338545
H122	H	1.635548	0.094297	0.794468
