data_functionalizedCrystal
_audit_creation_method	'MofGen! by Chris Wilmer'
_symmetry_space_group_name_H-M	'P1'
_symmetry_Int_Tables_number	1
_symmetry_cell_setting	triclinic
loop_
_symmetry_equiv_pos_as_xyz
  x,y,z
_cell_length_a	16.109301
_cell_length_b	14.853559
_cell_length_c	14.586319
_cell_angle_alpha	89.998399
_cell_angle_beta	89.999213
_cell_angle_gamma	83.546467
loop_
_atom_site_label
_atom_site_type_symbol
_atom_site_fract_x
_atom_site_fract_y
_atom_site_fract_z
O1	O	1.103290	0.115881	-0.076178
O2	O	1.603290	0.615881	0.423822
O3	O	0.861248	0.130302	-0.076192
O4	O	1.361248	0.630302	0.423808
O5	O	0.988738	-0.008149	-0.076184
O6	O	1.488738	0.491851	0.423816
O7	O	0.975800	0.254333	-0.076186
O8	O	1.475800	0.754333	0.423814
O9	O	0.988729	-0.008151	0.076297
O10	O	1.488729	0.491849	0.576297
O11	O	0.861239	0.130300	0.076289
O12	O	1.361239	0.630300	0.576289
O13	O	1.103281	0.115879	0.076303
O14	O	1.603281	0.615879	0.576303
Cu15	Cu	0.982260	0.123090	0.090219
Cu16	Cu	1.482260	0.623090	0.590219
Cu17	Cu	0.982270	0.123092	-0.090108
Cu18	Cu	1.482270	0.623092	0.409892
O19	O	0.975791	0.254331	0.076295
O20	O	1.475791	0.754331	0.576295
C21	C	0.830268	0.129717	0.000047
C22	C	1.330268	0.629717	0.500047
C23	C	0.737970	0.127966	0.000041
C24	C	1.237970	0.627966	0.500041
C25	C	0.515805	0.206048	0.000051
C26	C	1.015805	0.706048	0.500051
C27	C	0.429083	0.204395	0.000057
C28	C	0.929083	0.704395	0.500057
C29	C	0.448731	0.040127	0.000055
C30	C	0.948731	0.540127	0.500055
C31	C	0.535452	0.041781	0.000055
C32	C	1.035452	0.541781	0.500055
C33	C	0.568987	0.124744	0.000049
C34	C	1.068987	0.624744	0.500049
C35	C	0.395543	0.121438	0.000054
C36	C	0.895543	0.621438	0.500054
C37	C	0.301514	0.119645	0.000061
C38	C	0.801514	0.619645	0.500061
C39	C	0.663021	0.126537	0.000044
C40	C	1.163021	0.626537	0.500044
C41	C	0.988149	-0.041738	0.000055
C42	C	1.488149	0.458262	0.500055
C43	C	0.986396	-0.141819	0.000050
C44	C	1.486396	0.358181	0.500050
C45	C	0.978964	-0.564981	-0.083068
C46	C	1.478964	-0.064981	0.416932
C47	C	0.978955	-0.564978	0.083172
C48	C	1.478955	-0.064978	0.583172
C49	C	0.980608	-0.470947	0.083173
C50	C	1.480608	0.029053	0.583173
C51	C	0.981439	-0.423929	0.000052
C52	C	1.481439	0.076071	0.500052
C53	C	0.980616	-0.470941	-0.083070
C54	C	1.480616	0.029059	0.416930
C55	C	0.981423	-0.423927	0.166294
C56	C	1.481423	0.076073	0.666294
C57	C	0.983076	-0.329890	0.166298
C58	C	1.483076	0.170110	0.666298
C59	C	0.983913	-0.282871	0.083176
C60	C	1.483913	0.217129	0.583176
C61	C	0.983091	-0.329889	0.000051
C62	C	1.483091	0.170111	0.500051
C63	C	0.983921	-0.282871	-0.083070
C64	C	1.483921	0.217129	0.416930
C65	C	0.983105	-0.329889	-0.166197
C66	C	1.483105	0.170111	0.333803
C67	C	0.981452	-0.423922	-0.166192
C68	C	1.481452	0.076078	0.333808
C69	C	0.985565	-0.188838	0.083171
C70	C	1.485565	0.311162	0.583171
C71	C	0.985573	-0.188832	-0.083072
C72	C	1.485573	0.311168	0.416928
C73	C	1.134262	0.116464	0.000062
C74	C	1.634262	0.616464	0.500062
C75	C	1.226559	0.118216	0.000062
C76	C	1.726559	0.618216	0.500062
C77	C	0.976381	0.287920	0.000054
C78	C	1.476381	0.787920	0.500054
C79	C	0.978134	0.388001	0.000053
C80	C	1.478134	0.888001	0.500053
N81	N	0.982258	0.123087	0.217050
N82	N	1.482258	0.623087	0.717050
N83	N	0.982278	0.123087	-0.216939
N84	N	1.482278	0.623087	0.283061
C85	C	1.038730	0.061801	0.452061
C86	C	1.538730	0.561801	0.952061
C87	C	1.038732	0.061799	0.548042
C88	C	1.538732	0.561799	1.048042
C89	C	0.925801	0.184376	0.548044
C90	C	1.425801	0.684376	1.048044
C91	C	0.925795	0.184373	0.452064
C92	C	1.425795	0.684373	0.952064
C93	C	0.982264	0.123087	0.404075
C94	C	1.482264	0.623087	0.904075
C95	C	0.982272	0.123087	0.596036
C96	C	1.482272	0.623087	1.096036
C97	C	0.982274	0.123086	0.700103
C98	C	1.482274	0.623086	1.200103
C99	C	0.982261	0.123087	0.300001
C100	C	1.482261	0.623087	0.800001
H101	H	0.986253	-0.150556	-0.150760
H102	H	1.486253	0.349444	0.349240
H103	H	1.084710	0.011894	0.587109
H104	H	1.584710	0.511894	1.087109
H105	H	0.578755	-0.024431	0.000056
H106	H	1.078755	0.475569	0.500056
H107	H	0.978273	-0.603265	0.150846
H108	H	1.478273	-0.103265	0.650846
H109	H	0.983775	-0.291593	-0.233874
H110	H	1.483775	0.208407	0.266126
C111	C	0.978910	-0.568068	-0.240000
C112	C	1.478910	-0.068068	0.260000
C113	C	0.980544	-0.475604	-0.257558
C114	C	1.480544	0.024396	0.242442
H115	H	0.978342	-0.599973	-0.296406
H116	H	1.478342	-0.099973	0.203594
H117	H	1.027080	-0.590366	-0.205854
H118	H	1.527080	-0.090366	0.294146
H119	H	0.930191	-0.576571	-0.205845
H120	H	1.430191	-0.076571	0.294155
H121	H	1.029267	-0.467100	-0.291707
H122	H	1.529267	0.032900	0.208293
H123	H	0.932369	-0.453298	-0.291719
H124	H	1.432369	0.046702	0.208281
C125	C	0.875672	0.238815	0.695176
C126	C	1.375672	0.738815	1.195176
C127	C	0.863740	0.251748	0.600797
C128	C	1.363740	0.751748	1.100797
H129	H	0.837361	0.280415	0.727740
H130	H	1.337361	0.780415	1.227740
H131	H	0.866572	0.178652	0.710907
H132	H	1.366572	0.678652	1.210907
H133	H	0.931172	0.248622	0.710887
H134	H	1.431172	0.748622	1.210887
H135	H	0.808241	0.241934	0.585084
H136	H	1.308241	0.741934	1.085084
H137	H	0.872833	0.311925	0.585059
H138	H	1.372833	0.811925	1.085059
H139	H	1.084709	0.011897	0.412990
H140	H	1.584709	0.511897	0.912990
C141	C	0.812666	0.203905	0.344134
C142	C	1.312666	0.703905	0.844134
C143	C	0.863725	0.251745	0.399310
C144	C	1.363725	0.751745	0.899310
H145	H	0.774346	0.245496	0.311571
H146	H	1.274346	0.745496	0.811571
H147	H	0.846293	0.167410	0.301824
H148	H	1.346293	0.667410	0.801824
H149	H	0.782722	0.166376	0.381593
H150	H	1.282722	0.666376	0.881593
H151	H	0.893675	0.289270	0.361851
H152	H	1.393675	0.789270	0.861851
H153	H	0.830095	0.288256	0.441625
H154	H	1.330095	0.788256	0.941625
C155	C	0.982915	-0.339345	0.330624
C156	C	1.482915	0.160655	0.830624
C157	C	0.983989	-0.278216	0.257667
C158	C	1.483989	0.221784	0.757667
H159	H	0.983488	-0.307442	0.387030
H160	H	1.483488	0.192558	0.887030
H161	H	0.933825	-0.369121	0.327170
H162	H	1.433825	0.130879	0.827170
H163	H	1.030715	-0.382922	0.327155
H164	H	1.530715	0.117078	0.827155
H165	H	0.936186	-0.234643	0.261132
H166	H	1.436186	0.265357	0.761132
H167	H	1.033085	-0.248425	0.261123
H168	H	1.533085	0.251575	0.761123
C169	C	0.978939	-0.568081	0.240100
C170	C	1.478939	-0.068081	0.740100
C171	C	0.980540	-0.475613	0.257656
C172	C	1.480540	0.024387	0.757656
H173	H	0.978408	-0.599993	0.296507
H174	H	1.478408	-0.099993	0.796507
H175	H	0.930221	-0.576607	0.205970
H176	H	1.430221	-0.076607	0.705970
H177	H	1.027111	-0.590356	0.205930
H178	H	1.527111	-0.090356	0.705930
H179	H	0.932363	-0.453337	0.291821
H180	H	1.432363	0.046663	0.791821
H181	H	1.029262	-0.467082	0.291800
H182	H	1.529262	0.032918	0.791800
C183	C	0.915989	-0.072924	0.179585
C184	C	1.415989	0.427076	0.679585
C185	C	0.986456	-0.137149	0.174530
C186	C	1.486456	0.362851	0.674530
H187	H	0.916538	-0.041017	0.235991
H188	H	1.416538	0.458983	0.735991
H189	H	0.916733	-0.031475	0.130084
H190	H	1.416733	0.468525	0.630084
H191	H	0.866907	-0.102728	0.176123
H192	H	1.366907	0.397272	0.676123
H193	H	1.035539	-0.107344	0.177985
H194	H	1.535539	0.392656	0.677985
H195	H	0.985719	-0.178603	0.224045
H196	H	1.485719	0.321397	0.724045
H197	H	0.543106	0.273602	0.000053
H198	H	1.043106	0.773602	0.500053
H199	H	0.385786	0.270602	0.000061
H200	H	0.885786	0.770602	0.500061
H201	H	0.421416	-0.027418	0.000066
H202	H	0.921416	0.472582	0.500066
H203	H	0.978303	-0.603267	-0.150747
H204	H	1.478303	-0.103267	0.349253
