data_functionalizedCrystal
_audit_creation_method	'MofGen! by Chris Wilmer'
_symmetry_space_group_name_H-M	'P1'
_symmetry_Int_Tables_number	1
_symmetry_cell_setting	triclinic
loop_
_symmetry_equiv_pos_as_xyz
  x,y,z
_cell_length_a	23.532357
_cell_length_b	15.995300
_cell_length_c	22.010155
_cell_angle_alpha	89.982707
_cell_angle_beta	89.989917
_cell_angle_gamma	83.150049
loop_
_atom_site_label
_atom_site_type_symbol
_atom_site_fract_x
_atom_site_fract_y
_atom_site_fract_z
O1	O	0.073272	1.110397	-0.050555
O2	O	0.573272	1.610397	0.449445
O3	O	0.082367	0.866538	-0.050552
O4	O	0.582367	1.366538	0.449448
O5	O	-0.005087	0.995843	-0.050541
O6	O	0.494913	1.495843	0.449459
O7	O	0.160725	0.981092	-0.050566
O8	O	0.660725	1.481092	0.449434
O9	O	-0.005087	0.995804	0.050509
O10	O	0.494913	1.495804	0.550509
O11	O	0.082367	0.866499	0.050498
O12	O	0.582367	1.366499	0.550498
O13	O	0.073271	1.110358	0.050495
O14	O	0.573271	1.610358	0.550495
Cu15	Cu	0.077819	0.988425	0.059723
Cu16	Cu	0.577819	1.488425	0.559723
Cu17	Cu	0.077819	0.988471	-0.059780
Cu18	Cu	0.577819	1.488471	0.440220
O19	O	0.160725	0.981053	0.050484
O20	O	0.660725	1.481053	0.550484
C21	C	-0.026305	0.995454	-0.000014
C22	C	0.473695	1.495454	0.499986
C23	C	-0.089528	0.994345	-0.000008
C24	C	0.410472	1.494345	0.499992
C25	C	0.081996	0.835326	-0.000026
C26	C	0.581996	1.335326	0.499974
C27	C	0.080884	0.742383	-0.000025
C28	C	0.580884	1.242383	0.499975
C29	C	-0.481565	0.987402	-0.055124
C30	C	0.018435	1.487402	0.444876
C31	C	-0.540968	0.986348	-0.055127
C32	C	-0.040968	1.486348	0.444873
O33	O	-0.571687	0.985792	-0.101973
O34	O	-0.071687	1.485792	0.398027
N35	N	-0.570682	0.985804	-0.000045
N36	N	-0.070682	1.485804	0.499955
C37	C	-0.540988	0.986306	0.055044
C38	C	-0.040988	1.486306	0.555044
O39	O	-0.571716	0.985745	0.101895
O40	O	-0.071716	1.485745	0.601895
C41	C	-0.481585	0.987354	0.055046
C42	C	0.018415	1.487354	0.555046
C43	C	-0.451875	0.987907	-0.000039
C44	C	0.048125	1.487907	0.499961
C45	C	-0.451855	0.987954	-0.110205
C46	C	0.048145	1.487954	0.389795
C47	C	-0.392456	0.989010	-0.110201
C48	C	0.107544	1.489010	0.389799
C49	C	-0.362767	0.989514	-0.055116
C50	C	0.137233	1.489514	0.444884
C51	C	-0.392476	0.988963	-0.000035
C52	C	0.107524	1.488963	0.499965
C53	C	-0.451891	0.987850	0.110135
C54	C	0.048109	1.487850	0.610135
C55	C	-0.392484	0.988898	0.110133
C56	C	0.107516	1.488898	0.610133
C57	C	-0.362775	0.989450	0.055047
C58	C	0.137225	1.489450	0.555047
C59	C	-0.303388	0.990523	0.055053
C60	C	0.196612	1.490523	0.555053
N61	N	-0.273674	0.991067	-0.000029
N62	N	0.226326	1.491067	0.499971
C63	C	-0.303364	0.990563	-0.055113
C64	C	0.196636	1.490563	0.444887
C65	C	-0.665737	0.984102	0.055033
C66	C	-0.165737	1.484102	0.555033
C67	C	-0.725140	0.983060	0.055031
C68	C	-0.225140	1.483060	0.555031
C69	C	-0.725116	0.983100	-0.055140
C70	C	-0.225116	1.483100	0.444860
C71	C	-0.665713	0.984149	-0.055137
C72	C	-0.165713	1.484149	0.444863
C73	C	-0.636024	0.984646	-0.000048
C74	C	-0.136024	1.484646	0.499952
C75	C	-0.178621	0.992781	-0.055102
C76	C	0.321379	1.492781	0.444898
C77	C	-0.119217	0.993841	-0.055093
C78	C	0.380783	1.493841	0.444907
C79	C	-0.119246	0.993796	0.055078
C80	C	0.380754	1.493796	0.555078
C81	C	-0.178645	0.992741	0.055069
C82	C	0.321355	1.492741	0.555069
C83	C	-0.208331	0.992230	-0.000025
C84	C	0.291669	1.492230	0.499975
O85	O	-0.272631	0.991076	0.101875
O86	O	0.227369	1.491076	0.601875
O87	O	-0.272628	0.991112	-0.101957
O88	O	0.227372	1.491112	0.398043
C89	C	0.078830	0.572218	-0.000029
C90	C	0.578830	1.072218	0.499971
C91	C	0.141099	0.524217	-0.000037
C92	C	0.641099	1.024217	0.499963
C93	C	0.139963	0.427539	-0.000268
C94	C	0.639963	0.927539	0.499732
C95	C	0.076808	0.404678	-0.000033
C96	C	0.576808	0.904678	0.499967
C97	C	0.045915	0.446098	-0.057619
C98	C	0.545915	0.946098	0.442381
C99	C	0.047490	0.542718	-0.057666
C100	C	0.547490	1.042718	0.442334
C101	C	0.046568	0.542961	0.057251
C102	C	0.546568	1.042961	0.557251
C103	C	0.046574	0.446016	0.058007
C104	C	0.546574	0.946016	0.558007
C105	C	0.075663	0.309993	-0.000037
C106	C	0.575663	0.809993	0.499963
C107	C	0.079974	0.666903	-0.000029
C108	C	0.579974	1.166903	0.499971
C109	C	0.181943	0.981442	-0.000044
C110	C	0.681943	1.481442	0.499956
C111	C	0.245166	0.982551	-0.000054
C112	C	0.745166	1.482551	0.499946
C113	C	0.073642	1.141570	-0.000032
C114	C	0.573642	1.641570	0.499968
C115	C	0.074755	1.234513	-0.000037
C116	C	0.574755	1.734513	0.499963
N117	N	0.077819	0.988399	0.143776
N118	N	0.577819	1.488399	0.643776
N119	N	0.077815	0.988504	-0.143833
N120	N	0.577815	1.488504	0.356167
C121	C	0.112369	1.038957	0.563549
C122	C	0.612369	1.538957	1.063549
C123	C	0.112367	1.038967	0.627157
C124	C	0.612367	1.538967	1.127157
O125	O	0.141739	1.081924	0.660043
O126	O	0.641739	1.581924	1.160043
N127	N	0.077813	0.988487	0.658983
N128	N	0.577813	1.488487	1.158983
C129	C	0.043253	0.938000	0.627198
C130	C	0.543253	1.438000	1.127198
O131	O	0.013861	0.895065	0.660110
O132	O	0.513861	1.395065	1.160110
C133	C	0.043252	0.937996	0.563592
C134	C	0.543252	1.437996	1.063592
C135	C	0.077813	0.988473	0.531769
C136	C	0.577813	1.488473	1.031769
C137	C	0.146926	1.089431	0.531727
C138	C	0.646926	1.589431	1.031727
C139	C	0.146928	1.089420	0.468123
C140	C	0.646928	1.589420	0.968123
C141	C	0.112373	1.038935	0.436343
C142	C	0.612373	1.538935	0.936343
C143	C	0.077815	0.988461	0.468166
C144	C	0.577815	1.488461	0.968166
C145	C	0.008689	0.887514	0.531808
C146	C	0.508689	1.387514	1.031808
C147	C	0.008691	0.887514	0.468197
C148	C	0.508691	1.387514	0.968197
C149	C	0.043252	0.937991	0.436375
C150	C	0.543252	1.437991	0.936375
C151	C	0.043261	0.937965	0.372782
C152	C	0.543261	1.437965	0.872782
N153	N	0.077816	0.988445	0.340956
N154	N	0.577816	1.488445	0.840956
C155	C	0.112371	1.038930	0.372737
C156	C	0.612371	1.538930	0.872737
C157	C	0.043257	0.938015	0.760776
C158	C	0.543257	1.438015	1.260776
C159	C	0.043261	0.938015	0.824381
C160	C	0.543261	1.438015	1.324381
C161	C	0.112375	1.038983	0.824336
C162	C	0.612375	1.538983	1.324336
C163	C	0.112374	1.038979	0.760729
C164	C	0.612374	1.538979	1.260729
C165	C	0.077812	0.988496	0.728950
C166	C	0.577812	1.488496	1.228950
C167	C	0.112373	1.038902	0.239165
C168	C	0.612373	1.538902	0.739165
C169	C	0.112374	1.038884	0.175556
C170	C	0.612374	1.538884	0.675556
C171	C	0.043259	0.937919	0.175608
C172	C	0.543259	1.437919	0.675608
C173	C	0.043260	0.937934	0.239211
C174	C	0.543260	1.437934	0.739211
C175	C	0.077819	0.988432	0.270988
C176	C	0.577819	1.488432	0.770988
O177	O	0.013903	0.895033	0.339855
O178	O	0.513903	1.395033	0.839855
O179	O	0.141753	1.081867	0.339818
O180	O	0.641753	1.581867	0.839818
H181	H	-0.202785	0.992362	-0.099965
H182	H	0.297215	1.492362	0.400035
O183	O	0.174251	0.548413	0.054649
O184	O	0.674251	1.048413	0.554649
H185	H	0.152040	0.532050	0.096732
H186	H	0.652040	1.032050	0.596732
H187	H	-0.095062	0.994210	0.099926
H188	H	0.404938	1.494210	0.599926
O189	O	-0.014417	0.426220	0.062851
O190	O	0.485583	0.926220	0.562851
H191	H	-0.034478	0.456324	0.104277
H192	H	0.465522	0.956324	0.604277
O193	O	-0.028615	0.833100	0.433925
O194	O	0.471385	1.333100	0.933925
H195	H	-0.022825	0.841588	0.384348
H196	H	0.477175	1.341588	0.884348
H197	H	0.140521	1.079988	0.149649
H198	H	0.640521	1.579988	0.649649
O199	O	0.173749	0.549925	-0.054670
O200	O	0.673749	1.049925	0.445330
H201	H	0.212095	0.578238	-0.039269
H202	H	0.712095	1.078238	0.460731
H203	H	0.164238	0.398852	0.041003
H204	H	0.664238	0.898852	0.541003
H205	H	0.140514	1.080023	0.265031
H206	H	0.640514	1.580023	0.765031
H207	H	0.015115	0.896898	0.734905
H208	H	0.515115	1.396898	1.234905
O209	O	0.005974	0.883471	0.141342
O210	O	0.505974	1.383471	0.641342
H211	H	-0.039534	0.902105	0.153573
H212	H	0.460466	1.402105	0.653573
O213	O	-0.633674	0.984731	-0.114552
O214	O	-0.133674	1.484731	0.385448
H215	H	-0.611697	1.042288	-0.117195
H216	H	-0.111697	1.542288	0.382805
H217	H	0.015125	0.896821	0.265122
H218	H	0.515125	1.396821	0.765122
H219	H	-0.095031	0.994292	-0.099952
H220	H	0.404969	1.494292	0.400048
O221	O	0.171998	0.390425	-0.055274
O222	O	0.671998	0.890425	0.444726
H223	H	0.142699	0.357943	-0.084040
H224	H	0.642699	0.857943	0.415960
O225	O	-0.483869	0.987410	-0.169625
O226	O	0.016131	1.487410	0.330375
H227	H	-0.530168	0.986583	-0.160385
H228	H	-0.030168	1.486583	0.339615
H229	H	-0.749300	0.982687	-0.099993
H230	H	-0.249300	1.482687	0.400007
O231	O	-0.210687	0.992162	0.114486
O232	O	0.289313	1.492162	0.614486
H233	H	-0.242835	1.048762	0.117121
H234	H	0.257165	1.548762	0.617121
O235	O	0.005981	0.883565	0.858690
O236	O	0.505981	1.383565	1.358690
H237	H	0.033262	0.838318	0.887675
H238	H	0.533262	1.338318	1.387675
O239	O	0.184202	1.143866	0.433803
O240	O	0.684202	1.643866	0.933803
H241	H	0.208224	1.178974	0.466596
H242	H	0.708224	1.678974	0.966596
O243	O	-0.757182	0.982471	0.114444
O244	O	-0.257182	1.482471	0.614444
H245	H	-0.726551	0.982994	0.152745
H246	H	-0.226551	1.482994	0.652745
H247	H	0.069756	0.560863	-0.100883
H248	H	0.569756	1.060863	0.399117
O249	O	-0.013073	0.585999	-0.060920
O250	O	0.486927	1.085999	0.439080
H251	H	-0.043356	0.537890	-0.062458
H252	H	0.456644	1.037890	0.437542
O253	O	-0.633718	0.984661	0.114454
O254	O	-0.133718	1.484661	0.614454
H255	H	-0.664364	0.984118	0.152750
H256	H	-0.164364	1.484118	0.652750
O257	O	0.073982	0.408315	-0.114614
O258	O	0.573982	0.908315	0.385386
H259	H	0.090526	0.458611	-0.141829
H260	H	0.590526	0.958611	0.358171
O261	O	0.184203	1.143882	0.566000
O262	O	0.684203	1.643882	1.066000
H263	H	0.208232	1.178968	0.533175
H264	H	0.708232	1.678968	1.033175
O265	O	0.073723	0.569847	0.115090
O266	O	0.573723	1.069847	0.615090
H267	H	0.110521	0.604367	0.103653
H268	H	0.610521	1.104367	0.603653
O269	O	0.149646	1.093425	0.726407
O270	O	0.649646	1.593425	1.226407
H271	H	0.173671	1.128531	0.759198
H272	H	0.673671	1.628531	1.259198
O273	O	-0.028616	0.833097	0.566108
O274	O	0.471384	1.333097	1.066108
H275	H	-0.016266	0.766064	0.553911
H276	H	0.483734	1.266064	1.053911
O277	O	-0.360413	0.989583	-0.169614
O278	O	0.139587	1.489583	0.330386
H279	H	-0.391045	0.989042	-0.207913
H280	H	0.108955	1.489042	0.292087
H281	H	-0.476071	0.987401	0.154991
H282	H	0.023929	1.487401	0.654991
H283	H	0.140513	1.080090	0.850223
H284	H	0.640513	1.580090	1.350223
H285	H	-0.000490	0.432398	-0.059592
H286	H	0.499510	0.932398	0.440408
O287	O	-0.360462	0.989445	0.169551
O288	O	0.139538	1.489445	0.669551
H289	H	-0.391105	0.988893	0.207850
H290	H	0.108895	1.488893	0.707850
H291	H	0.069134	0.418467	0.100610
H292	H	0.569134	0.918467	0.600610
O293	O	-0.014242	0.585589	0.058008
O294	O	0.485758	1.085589	0.558008
H295	H	-0.021480	0.627415	0.017808
H296	H	0.478520	1.127415	0.517808
