data_functionalizedCrystal
_audit_creation_method	'MofGen! by Chris Wilmer'
_symmetry_space_group_name_H-M	'P1'
_symmetry_Int_Tables_number	1
_symmetry_cell_setting	triclinic
loop_
_symmetry_equiv_pos_as_xyz
  x,y,z
_cell_length_a	10.654545
_cell_length_b	10.654551
_cell_length_c	9.130313
_cell_angle_alpha	89.998309
_cell_angle_beta	89.996934
_cell_angle_gamma	84.484220
loop_
_atom_site_label
_atom_site_type_symbol
_atom_site_fract_x
_atom_site_fract_y
_atom_site_fract_z
O1	O	1.667843	0.176372	-0.121775
O2	O	1.302364	0.193184	-0.121780
O3	O	1.493506	0.002038	-0.121778
O4	O	1.476701	0.367517	-0.121777
O5	O	1.493493	0.002033	0.121821
O6	O	1.302351	0.193178	0.121819
O7	O	1.667830	0.176366	0.121824
Cu8	Cu	1.485089	0.184771	0.144064
Cu9	Cu	1.485105	0.184778	-0.144020
O10	O	1.476688	0.367511	0.121822
C11	C	1.255560	0.191948	0.000019
C12	C	1.116116	0.188258	0.000016
C13	C	1.050604	0.186518	0.132803
C14	C	0.919585	0.183030	0.132803
C15	C	0.919600	0.183028	-0.132782
C16	C	1.050618	0.186507	-0.132780
C17	C	1.492265	-0.044762	0.000018
C18	C	1.488573	-0.184206	0.000008
C19	C	1.486848	-0.249714	-0.132775
C20	C	1.483368	-0.380735	-0.132768
C21	C	1.483343	-0.380726	0.132817
C22	C	1.486814	-0.249707	0.132808
C23	C	1.488607	-0.184213	-0.265575
C24	C	1.486883	-0.249722	-0.398369
C25	C	1.483403	-0.380742	-0.398362
C26	C	1.481646	-0.446253	-0.265562
C27	C	1.714635	0.177602	0.000022
C28	C	1.854078	0.181292	0.000015
C29	C	1.477929	0.414312	0.000023
C30	C	1.481622	0.553755	0.000023
N31	N	1.485088	0.184766	0.346687
N32	N	1.485117	0.184774	-0.346642
C33	C	1.569754	0.100163	0.423339
C34	C	1.569766	0.100163	0.576676
C35	C	1.400441	0.269381	0.576694
C36	C	1.400424	0.269374	0.423360
H37	H	0.866251	0.181614	0.240931
H38	H	1.491444	-0.077530	-0.265595
C39	C	0.718762	0.177709	-0.250711
C40	C	0.847597	0.181120	-0.278747
H41	H	0.674314	0.176542	-0.340828
H42	H	0.706236	0.104033	-0.196162
H43	H	0.688357	0.250252	-0.196147
H44	H	0.878004	0.108572	-0.333301
H45	H	0.860131	0.254803	-0.333319
C46	C	1.037481	0.186170	-0.395311
C47	C	1.122638	0.188425	-0.278751
H48	H	1.081946	0.187359	-0.485421
H49	H	0.995326	0.111709	-0.389792
H50	H	0.977430	0.257928	-0.389782
H51	H	1.182683	0.116662	-0.284274
H52	H	1.164813	0.262894	-0.284274
H53	H	1.638708	0.031270	0.639083
C54	C	1.233056	0.436630	0.561309
C55	C	1.307382	0.362380	0.660977
H56	H	1.175600	0.494039	0.613343
H57	H	1.285712	0.482295	0.501493
H58	H	1.187433	0.383910	0.501514
H59	H	1.353013	0.415099	0.720765
H60	H	1.254720	0.316712	0.720819
H61	H	1.103929	0.187944	0.240935
C62	C	1.595732	-0.222559	-0.624747
C63	C	1.488801	-0.177709	-0.544334
H64	H	1.596905	-0.178103	-0.714863
H65	H	1.669395	-0.210025	-0.570189
H66	H	1.593400	-0.309963	-0.643745
H67	H	1.491137	-0.090306	-0.525326
H68	H	1.415118	-0.190232	-0.598904
C69	C	1.374582	-0.407893	-0.624743
C70	C	1.481502	-0.452750	-0.544325
H71	H	1.373419	-0.452343	-0.714860
H72	H	1.300911	-0.420428	-0.570190
H73	H	1.376919	-0.320488	-0.643738
H74	H	1.479161	-0.540154	-0.525320
H75	H	1.555192	-0.440226	-0.598890
H76	H	1.478794	-0.552937	-0.265567
H77	H	1.638691	0.031269	0.360915
H78	H	1.481914	-0.434076	0.240936
H79	H	1.488192	-0.196365	0.240932
H80	H	1.331472	0.338268	0.360945
