data_functionalizedCrystal
_audit_creation_method	'MofGen! by Chris Wilmer'
_symmetry_space_group_name_H-M	'P1'
_symmetry_Int_Tables_number	1
_symmetry_cell_setting	triclinic
loop_
_symmetry_equiv_pos_as_xyz
  x,y,z
_cell_length_a	8.597187
_cell_length_b	15.944493
_cell_length_c	7.681481
_cell_angle_alpha	84.264607
_cell_angle_beta	88.166928
_cell_angle_gamma	84.410370
loop_
_atom_site_label
_atom_site_type_symbol
_atom_site_fract_x
_atom_site_fract_y
_atom_site_fract_z
O1	O	2.036291	0.149733	-0.455326
O2	O	1.586265	0.155698	-0.387054
O3	O	1.823612	0.030640	-0.423076
O4	O	1.798944	0.274790	-0.419304
O5	O	1.852826	0.015212	-0.134652
O6	O	1.615479	0.140269	-0.098630
O7	O	2.065504	0.134304	-0.166902
Zn8	Zn	1.845130	0.134837	-0.086972
Zn9	Zn	1.806640	0.155165	-0.466983
O10	O	1.828157	0.259362	-0.130880
C11	C	1.543285	0.146483	-0.234106
C12	C	1.371694	0.142002	-0.208076
C13	C	1.837210	-0.008385	-0.278718
C14	C	1.834185	-0.101682	-0.278281
C15	C	1.973897	-0.335149	-0.299443
C16	C	1.884153	-0.379347	-0.430221
C17	C	1.828585	-0.272496	-0.277410
C18	C	1.912922	-0.394535	-0.145852
C19	C	1.823188	-0.437496	-0.276563
C20	C	1.738869	-0.315459	-0.408311
C21	C	1.767672	-0.330650	-0.123818
C22	C	1.677818	-0.374816	-0.254614
C23	C	1.831698	-0.177444	-0.277901
C24	C	1.820062	-0.532545	-0.276084
C25	C	2.108484	0.143519	-0.319853
C26	C	2.280074	0.148001	-0.345895
C27	C	1.814559	0.298387	-0.275241
C28	C	1.817583	0.391685	-0.275689
N29	N	1.871409	0.120964	0.172374
N30	N	1.780372	0.169032	-0.726331
H31	H	2.099049	-0.317457	-0.318575
H32	H	1.332913	0.156564	-0.483800
H33	H	1.964357	0.071904	0.233473
O34	O	1.511891	-0.398032	-0.229512
H35	H	1.463133	-0.377552	-0.103360
H36	H	1.933342	-0.400854	-0.559758
O37	O	1.301648	0.131005	-0.025394
H38	H	1.173303	0.129270	-0.032933
O39	O	1.641496	-0.270103	-0.555432
H40	H	1.644593	-0.200710	-0.554678
O41	O	1.657261	0.234022	0.192770
H42	H	1.540233	0.219545	0.245851
H43	H	1.718536	-0.309128	0.005715
H44	H	1.986495	-0.428888	-0.034949
