data_functionalizedCrystal
_audit_creation_method	'MofGen! by Chris Wilmer'
_symmetry_space_group_name_H-M	'P1'
_symmetry_Int_Tables_number	1
_symmetry_cell_setting	triclinic
loop_
_symmetry_equiv_pos_as_xyz
  x,y,z
_cell_length_a	19.288867
_cell_length_b	23.532357
_cell_length_c	18.366186
_cell_angle_alpha	89.988209
_cell_angle_beta	89.992441
_cell_angle_gamma	82.982680
loop_
_atom_site_label
_atom_site_type_symbol
_atom_site_fract_x
_atom_site_fract_y
_atom_site_fract_z
O1	O	0.921117	0.071052	-0.060533
O2	O	1.421117	0.571052	0.439467
O3	O	0.718825	0.080635	-0.060541
O4	O	1.218825	0.580635	0.439459
O5	O	0.826089	-0.007077	-0.060522
O6	O	1.326089	0.492923	0.439478
O7	O	0.813853	0.158765	-0.060552
O8	O	1.313853	0.658765	0.439448
O9	O	0.826071	-0.007081	0.060578
O10	O	1.326071	0.492919	0.560578
O11	O	0.718807	0.080631	0.060558
O12	O	1.218807	0.580631	0.560558
O13	O	0.921099	0.071048	0.060566
O14	O	1.421099	0.571048	0.560566
Zn15	Zn	0.819950	0.075839	0.079789
Zn16	Zn	1.319950	0.575839	0.579789
Zn17	Zn	0.819974	0.075844	-0.079764
Zn18	Zn	1.319974	0.575844	0.420236
O19	O	0.813835	0.158761	0.060547
O20	O	1.313835	0.658761	0.560547
C21	C	0.692941	0.080325	0.000008
C22	C	1.192941	0.580325	0.500008
C23	C	0.615840	0.079398	0.000005
C24	C	1.115840	0.579398	0.500005
C25	C	0.060307	0.072729	-0.065996
C26	C	0.560307	0.572729	0.434004
C27	C	0.132751	0.073596	-0.065999
C28	C	0.632751	0.573596	0.434001
C29	C	0.168969	0.074030	0.000012
C30	C	0.668969	0.574030	0.500012
C31	C	0.132738	0.073582	0.066031
C32	C	0.632738	0.573582	0.566031
C33	C	0.060295	0.072710	0.066032
C34	C	0.560295	0.572710	0.566032
C35	C	0.278174	0.108767	0.050578
C36	C	0.778174	0.608767	0.550578
C37	C	0.350614	0.109643	0.050575
C38	C	0.850614	0.609643	0.550575
C39	C	0.392405	0.076719	0.000011
C40	C	0.892405	0.576719	0.500011
C41	C	0.361746	0.042925	-0.050560
C42	C	0.861746	0.542925	0.449440
C43	C	0.289304	0.042053	-0.050559
C44	C	0.789304	0.542053	0.449441
C45	C	0.247520	0.074976	0.000018
C46	C	0.747520	0.574976	0.500018
C47	C	0.507181	0.078102	-0.066006
C48	C	1.007181	0.578102	0.433994
C49	C	0.579628	0.078966	-0.066006
C50	C	1.079628	0.578966	0.433994
C51	C	0.579612	0.078957	0.066025
C52	C	1.079612	0.578957	0.566025
C53	C	0.507167	0.078088	0.066023
C54	C	1.007167	0.578088	0.566023
C55	C	0.470956	0.077664	0.000006
C56	C	0.970956	0.577664	0.500006
C57	C	0.825774	-0.028297	0.000030
C58	C	1.325774	0.471703	0.500030
C59	C	0.824854	-0.091517	0.000037
C60	C	1.324854	0.408483	0.500037
C61	C	0.819087	-0.483538	-0.066014
C62	C	1.319087	0.016462	0.433986
C63	C	0.818212	-0.542939	-0.066018
C64	C	1.318212	-0.042939	0.433982
O65	O	0.817745	-0.573655	-0.122158
O66	O	1.317745	-0.073655	0.377842
N67	N	0.817768	-0.572654	-0.000008
N68	N	1.317768	-0.072654	0.499992
C69	C	0.818193	-0.542963	0.066011
C70	C	1.318193	-0.042963	0.566011
O71	O	0.817734	-0.573692	0.122158
O72	O	1.317734	-0.073692	0.622158
C73	C	0.819062	-0.483562	0.066015
C74	C	1.319062	0.016438	0.566015
C75	C	0.819513	-0.453852	-0.000000
C76	C	1.319513	0.046148	0.500000
C77	C	0.819537	-0.453827	-0.132023
C78	C	1.319537	0.046173	0.367977
C79	C	0.820413	-0.394430	-0.132019
C80	C	1.320413	0.105570	0.367981
C81	C	0.820839	-0.364744	-0.066005
C82	C	1.320839	0.135256	0.433995
C83	C	0.820389	-0.394455	0.000004
C84	C	1.320389	0.105545	0.500004
C85	C	0.819481	-0.453872	0.132033
C86	C	1.319481	0.046128	0.632033
C87	C	0.820351	-0.394467	0.132030
C88	C	1.320351	0.105533	0.632030
C89	C	0.820801	-0.364757	0.066016
C90	C	1.320801	0.135243	0.566016
C91	C	0.821691	-0.305371	0.066023
C92	C	1.321691	0.194629	0.566023
N93	N	0.822135	-0.275657	0.000012
N94	N	1.322135	0.224343	0.500012
C95	C	0.821709	-0.305343	-0.066002
C96	C	1.321709	0.194657	0.433998
C97	C	0.816365	-0.667708	0.065999
C98	C	1.316365	-0.167708	0.565999
C99	C	0.815500	-0.727109	0.065996
C100	C	1.315500	-0.227109	0.565996
C101	C	0.815518	-0.727081	-0.066033
C102	C	1.315518	-0.227081	0.433967
C103	C	0.816388	-0.667680	-0.066030
C104	C	1.316388	-0.167680	0.433970
C105	C	0.816808	-0.637994	-0.000011
C106	C	1.316808	-0.137994	0.499989
C107	C	0.823549	-0.180605	-0.065987
C108	C	1.323549	0.319395	0.434013
C109	C	0.824428	-0.121203	-0.065977
C110	C	1.324428	0.378797	0.434023
C111	C	0.824406	-0.121236	0.066052
C112	C	1.324406	0.378764	0.566052
C113	C	0.823531	-0.180633	0.066042
C114	C	1.323531	0.319367	0.566042
C115	C	0.823100	-0.210316	0.000017
C116	C	1.323100	0.289684	0.500017
O117	O	0.822156	-0.274618	0.122134
O118	O	1.322156	0.225382	0.622134
O119	O	0.822158	-0.274606	-0.122139
O120	O	1.322158	0.225394	0.377861
C121	C	0.946984	0.071359	0.000016
C122	C	1.446984	0.571359	0.500016
C123	C	1.024084	0.072285	0.000014
C124	C	1.524084	0.572285	0.500014
C125	C	0.814150	0.179980	-0.000006
C126	C	1.314150	0.679980	0.499994
C127	C	0.815070	0.243200	-0.000018
C128	C	1.315070	0.743200	0.499982
N129	N	0.819939	0.075835	0.188681
N130	N	1.319939	0.575835	0.688681
N131	N	0.819991	0.075844	-0.188655
N132	N	1.319991	0.575844	0.311345
C133	C	0.867451	0.037015	0.226790
C134	C	1.367451	0.537015	0.726790
C135	C	0.867455	0.037012	0.303017
C136	C	1.367455	0.537012	0.803017
C137	C	0.819954	0.075839	0.341133
C138	C	1.319954	0.575839	0.841133
C139	C	0.772433	0.114662	0.303015
C140	C	1.272433	0.614662	0.803015
C141	C	0.772426	0.114660	0.226789
C142	C	1.272426	0.614660	0.726789
C143	C	0.810485	0.127732	0.461884
C144	C	1.310485	0.627732	0.961884
C145	C	0.810497	0.127735	0.538109
C146	C	1.310497	0.627735	1.038109
C147	C	0.819974	0.075846	0.576241
C148	C	1.319974	0.575846	1.076241
C149	C	0.829453	0.023953	0.538139
C150	C	1.329453	0.523953	1.038139
C151	C	0.829445	0.023950	0.461912
C152	C	1.329445	0.523950	0.961912
C153	C	0.819957	0.075846	0.423788
C154	C	1.319957	0.575846	0.923788
C155	C	0.867493	0.037020	0.697005
C156	C	1.367493	0.537020	1.197005
C157	C	0.867493	0.037017	0.773234
C158	C	1.367493	0.537017	1.273234
C159	C	0.772474	0.114672	0.773230
C160	C	1.272474	0.614672	1.273230
C161	C	0.772472	0.114671	0.697003
C162	C	1.272472	0.614671	1.197003
C163	C	0.819985	0.075845	0.658894
C164	C	1.319985	0.575845	1.158894
H165	H	0.609099	0.079308	0.119773
H166	H	1.109099	0.579308	0.619773
H167	H	0.837161	-0.018303	0.430892
H168	H	1.337161	0.481697	0.930892
N169	N	0.723911	0.154331	0.341935
N170	N	1.223911	0.654331	0.841935
N171	N	0.681492	0.188991	0.307896
N172	N	1.181492	0.688991	0.807896
H173	H	0.647219	0.217007	0.335381
H174	H	1.147219	0.717007	0.835381
N175	N	0.723885	0.154318	0.187869
N176	N	1.223885	0.654318	0.687869
N177	N	0.681471	0.188980	0.221905
N178	N	1.181471	0.688980	0.721905
H179	H	0.647188	0.216990	0.194417
H180	H	1.147188	0.716990	0.694417
N181	N	0.023278	0.072269	0.133456
N182	N	0.523278	0.572269	0.633456
N183	N	-0.041403	0.071497	0.133447
N184	N	0.458597	0.571497	0.633447
H185	H	-0.067550	0.071189	0.181066
H186	H	0.432450	0.571189	0.681066
H187	H	0.820777	-0.370245	-0.185775
H188	H	1.320777	0.129755	0.314225
N189	N	0.820766	-0.364143	0.199468
N190	N	1.320766	0.135857	0.699468
N191	N	0.771689	-0.365406	0.243660
N192	N	1.271689	0.134594	0.743660
H193	H	0.771982	-0.343990	0.291287
H194	H	1.271982	0.156010	0.791287
H195	H	0.733796	0.146284	0.804264
H196	H	1.233796	0.646284	1.304264
N197	N	0.235478	0.142399	0.102226
N198	N	0.735478	0.642399	0.602226
N199	N	0.170799	0.141614	0.102222
N200	N	0.670799	0.641614	0.602222
H201	H	0.140645	0.165363	0.138699
H202	H	0.640645	0.665363	0.638699
N203	N	0.815039	-0.757462	0.133422
N204	N	1.315039	-0.257462	0.633422
N205	N	0.814254	-0.810497	0.133419
N206	N	1.314254	-0.310497	0.633419
H207	H	0.813924	-0.831933	0.181041
H208	H	1.313924	-0.331933	0.681041
N209	N	0.819097	-0.484136	-0.199467
N210	N	1.319097	0.015864	0.300533
N211	N	0.819497	-0.457590	-0.258393
N212	N	1.319497	0.042410	0.241607
H213	H	0.819190	-0.478991	-0.306030
H214	H	1.319190	0.021009	0.193970
N215	N	0.023329	0.072298	-0.133436
N216	N	0.523329	0.572298	0.366564
N217	N	0.055686	0.072696	-0.192370
N218	N	0.555686	0.572696	0.307630
H219	H	0.029570	0.072391	-0.240001
H220	H	0.529570	0.572391	0.259999
N221	N	0.823106	-0.210911	-0.133436
N222	N	1.323106	0.289089	0.366564
N223	N	0.823508	-0.184367	-0.192363
N224	N	1.323508	0.315633	0.307637
H225	H	0.823198	-0.205770	-0.239999
H226	H	1.323198	0.294230	0.260001
N227	N	0.815064	-0.757412	-0.133465
N228	N	1.315064	-0.257412	0.366535
N229	N	0.766196	-0.745397	-0.177665
N230	N	1.266196	-0.245397	0.322335
H231	H	0.765874	-0.766821	-0.225285
H232	H	1.265874	-0.266821	0.274715
N233	N	0.915966	-0.002650	0.658023
N234	N	1.415966	0.497350	1.158023
N235	N	0.894106	-0.037922	0.615504
N236	N	1.394106	0.462078	1.115504
H237	H	0.928322	-0.065941	0.587955
H238	H	1.428322	0.434059	1.087955
N239	N	0.816829	-0.637332	-0.133462
N240	N	1.316829	-0.137332	0.366538
N241	N	0.768344	-0.598810	-0.148197
N242	N	1.268344	-0.098810	0.351803
H243	H	0.768653	-0.577380	-0.195824
H244	H	1.268653	-0.077380	0.304176
H245	H	0.816709	-0.643542	0.119762
H246	H	1.316709	-0.143542	0.619762
H247	H	0.162231	0.073934	0.119777
H248	H	0.662231	0.573934	0.619777
N249	N	0.819027	-0.484203	0.199473
N250	N	1.319027	0.015797	0.699473
N251	N	0.819405	-0.457678	0.258402
N252	N	1.319405	0.042322	0.758402
H253	H	0.819085	-0.479098	0.306037
H254	H	1.319085	0.020902	0.806037
N255	N	0.800820	0.180733	0.577040
N256	N	1.300820	0.680733	1.077040
N257	N	0.847127	0.193428	0.619561
N258	N	1.347127	0.693428	1.119561
H259	H	0.840292	0.230859	0.647058
H260	H	1.340292	0.730859	1.147058
H261	H	0.823170	-0.204826	0.119797
H262	H	1.323170	0.295174	0.619797
N263	N	0.258000	0.007524	-0.102208
N264	N	0.758000	0.507524	0.397792
N265	N	0.274940	-0.045465	-0.103245
N266	N	0.774940	0.454535	0.396755
H267	H	0.252833	-0.069854	-0.139721
H268	H	0.752833	0.430146	0.360279
H269	H	0.802756	0.169988	0.430843
H270	H	1.302756	0.669988	0.930843
N271	N	0.824848	-0.090898	0.133474
N272	N	1.324848	0.409102	0.633474
N273	N	0.825628	-0.037862	0.133460
N274	N	1.325628	0.462138	0.633460
H275	H	0.825936	-0.016433	0.181077
H276	H	1.325936	0.483567	0.681077
N277	N	0.916045	-0.002599	0.187876
N278	N	1.416045	0.497401	0.687876
N279	N	0.958503	-0.037226	0.221917
N280	N	1.458503	0.462774	0.721917
H281	H	0.992845	-0.065187	0.194433
H282	H	1.492845	0.434813	0.694433
N283	N	0.915983	-0.002646	0.341960
N284	N	1.415983	0.497354	0.841960
N285	N	0.915418	-0.055289	0.333475
N286	N	1.415418	0.444711	0.833475
H287	H	0.949690	-0.083298	0.360978
H288	H	1.449690	0.416702	0.860978
N289	N	0.169766	0.074043	-0.133428
N290	N	0.669766	0.574043	0.366572
N291	N	0.168378	0.033815	-0.177630
N292	N	0.668378	0.533815	0.322370
H293	H	0.194519	0.034130	-0.225252
H294	H	0.694519	0.534130	0.274748
N295	N	0.404435	0.009293	-0.102209
N296	N	0.904435	0.509293	0.397791
N297	N	0.469116	0.010071	-0.102200
N298	N	0.969116	0.510071	0.397800
H299	H	0.499268	-0.013681	-0.138675
H300	H	0.999268	0.486319	0.361325
H301	H	0.837170	-0.018300	0.569184
H302	H	1.337170	0.481700	1.069184
H303	H	0.477697	0.077755	-0.119762
H304	H	0.977697	0.577755	0.380238
N305	N	0.616621	0.079413	-0.133445
N306	N	1.116621	0.579413	0.366555
N307	N	0.584278	0.079032	-0.192379
N308	N	1.084278	0.579032	0.307621
H309	H	0.610405	0.079347	-0.240010
H310	H	1.110405	0.579347	0.259990
H311	H	0.906181	0.005402	0.804263
H312	H	1.406181	0.505402	1.304263
N313	N	0.723944	0.154338	0.658084
N314	N	1.223944	0.654338	1.158084
N315	N	0.724520	0.206979	0.666584
N316	N	1.224520	0.706979	1.166584
H317	H	0.690243	0.234996	0.639099
H318	H	1.190243	0.734996	1.139099
N319	N	0.470174	0.077649	0.133461
N320	N	0.970174	0.577649	0.633461
N321	N	0.471576	0.117881	0.177653
N322	N	0.971576	0.617881	0.677653
H323	H	0.445451	0.117570	0.225285
H324	H	0.945451	0.617570	0.725285
N325	N	0.381915	0.144178	0.102219
N326	N	0.881915	0.644178	0.602219
N327	N	0.344596	0.173574	0.147360
N328	N	0.844596	0.673574	0.647360
H329	H	0.366699	0.197969	0.183832
H330	H	0.866699	0.697969	0.683832
H331	H	0.824796	-0.097016	-0.119736
H332	H	1.324796	0.402984	0.380264
