data_functionalizedCrystal
_audit_creation_method	'MofGen! by Chris Wilmer'
_symmetry_space_group_name_H-M	'P1'
_symmetry_Int_Tables_number	1
_symmetry_cell_setting	triclinic
loop_
_symmetry_equiv_pos_as_xyz
  x,y,z
_cell_length_a	15.944545
_cell_length_b	15.021413
_cell_length_c	10.654554
_cell_angle_alpha	89.995453
_cell_angle_beta	83.991458
_cell_angle_gamma	90.004532
loop_
_atom_site_label
_atom_site_type_symbol
_atom_site_fract_x
_atom_site_fract_y
_atom_site_fract_z
O1	O	1.115471	0.073973	0.161912
O2	O	0.871036	0.073988	0.181889
O3	O	0.998872	0.073975	-0.010912
O4	O	0.987636	0.073986	0.354712
O5	O	0.998851	-0.074089	-0.010884
O6	O	0.871016	-0.074076	0.181916
O7	O	1.115451	-0.074091	0.161939
Zn8	Zn	0.993230	-0.097592	0.171932
Zn9	Zn	0.993257	0.097489	0.171896
O10	O	0.987615	-0.074078	0.354739
C11	C	0.839727	-0.000043	0.181074
C12	C	0.746467	-0.000037	0.178592
N13	N	0.993218	-0.230730	0.171956
C14	C	0.475098	-0.000050	0.051669
C15	C	0.526024	-0.073054	0.112875
C16	C	0.410772	-0.000053	0.169740
C17	C	0.526025	0.072926	0.112879
C18	C	0.575710	-0.000044	0.174083
C19	C	0.460470	-0.073117	0.230915
C20	C	0.460467	0.072929	0.230902
C21	C	0.511361	-0.000093	0.292194
C22	C	0.315755	-0.000059	0.167235
C23	C	0.670724	-0.000044	0.176598
C24	C	0.934098	-0.470407	0.261065
C25	C	1.010139	-0.529745	0.285443
C26	C	0.993239	-0.412336	0.171925
C27	C	0.917218	-0.529740	0.147575
C28	C	0.993253	-0.587761	0.171897
C29	C	1.069320	-0.470368	0.196359
C30	C	0.976348	-0.470358	0.058442
C31	C	1.052445	-0.529669	0.082771
C32	C	0.993230	-0.311279	0.171944
C33	C	0.993271	-0.688816	0.171877
C34	C	1.146760	-0.000058	0.162753
C35	C	1.240020	-0.000058	0.165235
C36	C	0.998036	-0.000056	-0.057685
C37	C	0.995565	-0.000054	-0.197096
N38	N	0.993276	0.230627	0.171862
C39	C	1.068514	-0.000046	-0.408551
C40	C	1.070836	-0.000056	-0.277560
C41	C	0.917967	-0.000051	-0.247630
C42	C	0.915646	-0.000048	-0.378619
C43	C	1.156772	-0.000045	-0.425830
C44	C	1.159094	-0.000055	-0.294838
C45	C	0.988451	-0.000045	0.401513
C46	C	0.990922	-0.000041	0.540924
H47	H	0.458855	-0.000124	-0.050015
C48	C	1.120087	-0.564611	-0.019081
H49	H	1.174038	-0.544171	-0.001583
H50	H	1.108543	-0.543377	-0.099480
H51	H	1.119421	-0.627850	-0.018994
H52	H	0.962026	-0.444252	-0.037486
C53	C	1.156195	-0.435292	0.224334
H54	H	1.155650	-0.372050	0.224220
H55	H	1.198233	-0.456056	0.161382
H56	H	1.168288	-0.456122	0.304685
C57	C	0.830365	-0.564972	0.119754
H58	H	0.836603	-0.599761	0.044896
H59	H	0.793862	-0.516231	0.108892
H60	H	0.807054	-0.600676	0.188317
H61	H	0.852463	-0.000052	-0.419750
C62	C	1.029452	-0.564999	0.415065
H63	H	0.987374	-0.544716	0.478320
H64	H	1.083054	-0.543801	0.432974
H65	H	1.029820	-0.628235	0.413873
C66	C	0.421756	0.156306	0.298194
H67	H	0.383288	0.138776	0.367960
H68	H	0.392797	0.190084	0.240894
H69	H	0.465307	0.191497	0.327260
C70	C	0.835171	-0.000050	-0.159124
H71	H	0.847665	-0.000048	-0.073874
H72	H	0.803376	-0.051679	-0.174439
H73	H	0.803396	0.051594	-0.174446
C74	C	1.197051	-0.086419	-0.247177
H75	H	1.197354	-0.083483	-0.158155
H76	H	1.253155	-0.093253	-0.285697
H77	H	1.164042	-0.135805	-0.268255
H78	H	1.190022	-0.062007	-0.468006
C79	C	1.193031	0.086205	-0.488021
H80	H	1.210758	0.124625	-0.425067
H81	H	1.150913	0.115032	-0.530082
H82	H	1.239874	0.072134	-0.547282
H83	H	1.193616	0.061907	-0.265926
H84	H	0.554658	-0.134776	0.063021
H85	H	0.884135	-0.444387	0.336509
H86	H	0.431941	-0.134902	0.280754
H87	H	0.527443	-0.000133	0.393957
C88	C	0.564706	0.156300	0.045484
H89	H	0.552527	0.156203	-0.039914
H90	H	0.624065	0.155994	0.048202
H91	H	0.541373	0.208143	0.086570
