data_functionalizedCrystal
_audit_creation_method	'MofGen! by Chris Wilmer'
_symmetry_space_group_name_H-M	'P1'
_symmetry_Int_Tables_number	1
_symmetry_cell_setting	triclinic
loop_
_symmetry_equiv_pos_as_xyz
  x,y,z
_cell_length_a	18.266242
_cell_length_b	16.109301
_cell_length_c	16.109301
_cell_angle_alpha	83.461481
_cell_angle_beta	89.992231
_cell_angle_gamma	89.993683
loop_
_atom_site_label
_atom_site_type_symbol
_atom_site_fract_x
_atom_site_fract_y
_atom_site_fract_z
O1	O	0.060837	-1.103137	-0.106868
O2	O	0.394170	-0.769804	0.226465
O3	O	0.727504	-0.436471	0.559798
O4	O	0.060849	-0.861075	-0.120168
O5	O	0.394182	-0.527742	0.213166
O6	O	0.727516	-0.194409	0.546499
O7	O	0.060835	-0.988756	0.007513
O8	O	0.394169	-0.655423	0.340846
O9	O	0.727502	-0.322089	0.674180
O10	O	0.060851	-0.975457	-0.234549
O11	O	0.394184	-0.642123	0.098784
O12	O	0.727517	-0.308790	0.432118
O13	O	-0.060927	-0.988734	0.007519
O14	O	0.272407	-0.655401	0.340853
O15	O	0.605740	-0.322068	0.674186
O16	O	-0.060913	-0.861054	-0.120161
O17	O	0.272420	-0.527720	0.213172
O18	O	0.605754	-0.194387	0.546505
O19	O	-0.060925	-1.103116	-0.106862
O20	O	0.272408	-0.769782	0.226471
O21	O	0.605742	-0.436449	0.559805
Zn22	Zn	-0.080251	-0.982081	-0.113510
Zn23	Zn	0.253082	-0.648748	0.219823
Zn24	Zn	0.586415	-0.315414	0.553156
Zn25	Zn	0.080175	-0.982110	-0.113519
Zn26	Zn	0.413509	-0.648776	0.219814
Zn27	Zn	0.746842	-0.315443	0.553148
O28	O	-0.060911	-0.975435	-0.234543
O29	O	0.272422	-0.642102	0.098791
O30	O	0.605755	-0.308768	0.432124
C31	C	-0.000031	-0.830090	-0.119626
C32	C	0.333303	-0.496756	0.213708
C33	C	0.666636	-0.163423	0.547041
C34	C	-0.000026	-0.737794	-0.118011
C35	C	0.333307	-0.404461	0.215323
C36	C	0.666640	-0.071128	0.548656
N37	N	-0.189738	-0.982068	-0.113504
N38	N	0.143595	-0.648734	0.219829
N39	N	0.476928	-0.315401	0.553163
C40	C	-0.000046	-0.988206	0.038491
C41	C	0.333287	-0.654873	0.371824
C42	C	0.666621	-0.321540	0.705158
C43	C	-0.000047	-0.986591	0.130786
C44	C	0.333286	-0.653258	0.464120
C45	C	0.666620	-0.319925	0.797453
C46	C	-0.228053	-1.038623	-0.056995
C47	C	0.105280	-0.705290	0.276339
C48	C	0.438613	-0.371957	0.609672
C49	C	-0.304698	-1.038629	-0.056991
C50	C	0.028635	-0.705295	0.276342
C51	C	0.361969	-0.371962	0.609676
C52	C	-0.343025	-0.982086	-0.113511
C53	C	-0.009692	-0.648753	0.219823
C54	C	0.323641	-0.315420	0.553156
C55	C	-0.304701	-0.925520	-0.170024
C56	C	0.028632	-0.592187	0.163309
C57	C	0.361966	-0.258853	0.496642
C58	C	-0.228058	-0.925511	-0.170021
C59	C	0.105276	-0.592177	0.163312
C60	C	0.438609	-0.258844	0.496646
N61	N	-0.463353	-0.971484	-0.187080
N62	N	-0.130019	-0.638151	0.146253
N63	N	0.203314	-0.304817	0.479586
N64	N	-0.536161	-0.971498	-0.187081
N65	N	-0.202827	-0.638164	0.146253
N66	N	0.130506	-0.304831	0.479586
C67	C	-0.573948	-0.982110	-0.113523
C68	C	-0.240614	-0.648776	0.219811
C69	C	0.092719	-0.315443	0.553144
N70	N	-0.536176	-0.992723	-0.039962
N71	N	-0.202843	-0.659390	0.293372
N72	N	0.130491	-0.326057	0.626705
N73	N	-0.463361	-0.992714	-0.039962
N74	N	-0.130028	-0.659381	0.293371
N75	N	0.203305	-0.326047	0.626705
C76	C	-0.426132	-0.982090	-0.113520
C77	C	-0.092799	-0.648756	0.219813
C78	C	0.240535	-0.315423	0.553147
C79	C	-0.695370	-1.038674	-0.057005
C80	C	-0.362036	-0.705341	0.276329
C81	C	-0.028703	-0.372007	0.609662
C82	C	-0.772016	-1.038673	-0.057000
C83	C	-0.438683	-0.705340	0.276334
C84	C	-0.105349	-0.372007	0.609667
C85	C	-0.772017	-0.925569	-0.170040
C86	C	-0.438684	-0.592236	0.163293
C87	C	-0.105351	-0.258902	0.496627
C88	C	-0.695373	-0.925565	-0.170038
C89	C	-0.362039	-0.592232	0.163295
C90	C	-0.028706	-0.258899	0.496629
C91	C	-0.657053	-0.982122	-0.113521
C92	C	-0.323720	-0.648789	0.219812
C93	C	0.009613	-0.315456	0.553146
N94	N	0.189662	-0.982130	-0.113519
N95	N	0.522996	-0.648796	0.219814
N96	N	0.856329	-0.315463	0.553148
C97	C	-0.000044	-1.134101	-0.107404
C98	C	0.333290	-0.800768	0.225929
C99	C	0.666623	-0.467435	0.559263
C100	C	-0.000043	-1.226397	-0.109019
C101	C	0.333290	-0.893063	0.224314
C102	C	0.666623	-0.559730	0.557648
C103	C	-0.000030	-0.515522	-0.190018
C104	C	0.333303	-0.182188	0.143315
C105	C	0.666636	0.151145	0.476648
C106	C	-0.000035	-0.428801	-0.188494
C107	C	0.333298	-0.095468	0.144839
C108	C	0.666632	0.237865	0.478172
C109	C	-0.000042	-0.448676	-0.037006
C110	C	0.333292	-0.115342	0.296328
C111	C	0.666625	0.217991	0.629661
C112	C	-0.000042	-0.535394	-0.038530
C113	C	0.333291	-0.202061	0.294803
C114	C	0.666625	0.131272	0.628136
C115	C	-0.000033	-0.568815	-0.115039
C116	C	0.333301	-0.235482	0.218294
C117	C	0.666634	0.097852	0.551627
C118	C	-0.000037	-0.395376	-0.111990
C119	C	0.333296	-0.062042	0.221343
C120	C	0.666630	0.271291	0.554676
C121	C	-0.000042	-0.301350	-0.110337
C122	C	0.333291	0.031984	0.222996
C123	C	0.666624	0.365317	0.556329
C124	C	-0.000029	-0.662847	-0.116693
C125	C	0.333305	-0.329514	0.216641
C126	C	0.666638	0.003820	0.549974
C127	C	-0.000028	-0.975984	-0.265521
C128	C	0.333305	-0.642651	0.067813
C129	C	0.666638	-0.309318	0.401146
C130	C	-0.000023	-0.977600	-0.357816
C131	C	0.333311	-0.644266	-0.024483
C132	C	0.666644	-0.310933	0.308851
C133	C	-0.000039	-1.058599	0.353059
C134	C	0.333294	-0.725266	0.686392
C135	C	0.666628	-0.391932	1.019725
C136	C	-0.000033	-1.057075	0.439779
C137	C	0.333300	-0.723742	0.773112
C138	C	0.666634	-0.390408	1.106446
C139	C	-0.000028	-0.905586	0.419905
C140	C	0.333305	-0.572253	0.753238
C141	C	0.666638	-0.238919	1.086571
C142	C	-0.000029	-0.907111	0.333186
C143	C	0.333304	-0.573778	0.666519
C144	C	0.666637	-0.240444	0.999853
C145	C	-0.000038	-0.983620	0.299766
C146	C	0.333295	-0.650287	0.633099
C147	C	0.666628	-0.316953	0.966432
C148	C	-0.000031	-0.980571	0.473205
C149	C	0.333302	-0.647238	0.806538
C150	C	0.666635	-0.313904	1.139871
C151	C	-0.000025	-0.978918	0.567231
C152	C	0.333309	-0.645585	0.900564
C153	C	0.666642	-0.312251	1.233897
C154	C	-0.000044	-0.985273	0.205734
C155	C	0.333290	-0.651940	0.539067
C156	C	0.666623	-0.318607	0.872400
H157	H	-0.196856	-1.084673	-0.010974
H158	H	0.136477	-0.751340	0.322360
H159	H	0.469811	-0.418007	0.655693
H160	H	-0.335900	-1.084684	-0.010973
H161	H	-0.002567	-0.751351	0.322361
H162	H	0.330767	-0.418018	0.655694
Cl163	Cl	-0.179887	-0.854408	-0.241068
Cl164	Cl	0.153446	-0.521074	0.092266
Cl165	Cl	0.486780	-0.187741	0.425599
H166	H	-0.000028	-0.542730	-0.252317
H167	H	0.333305	-0.209396	0.081017
H168	H	0.666639	0.123937	0.414350
H169	H	-0.000032	-1.118130	0.483168
H170	H	0.333301	-0.784797	0.816501
H171	H	0.666635	-0.451464	1.149834
H172	H	-0.000026	-0.846050	0.289792
H173	H	0.333307	-0.512717	0.623126
H174	H	0.666640	-0.179384	0.956459
Cl175	Cl	-0.000033	-0.361807	-0.282758
Cl176	Cl	0.333301	-0.028474	0.050575
Cl177	Cl	0.666634	0.304859	0.383908
H178	H	-0.000022	-0.843295	0.447127
H179	H	0.333311	-0.509962	0.780460
H180	H	0.666644	-0.176628	1.113793
H181	H	-0.335911	-0.879481	-0.216042
H182	H	-0.002577	-0.546148	0.117291
H183	H	0.330756	-0.212814	0.450625
H184	H	-0.803213	-1.084725	-0.010979
H185	H	-0.469879	-0.751392	0.322355
H186	H	-0.136546	-0.418059	0.655688
H187	H	-0.000054	-0.421454	0.025285
H188	H	0.333280	-0.088121	0.358619
H189	H	0.666613	0.245213	0.691952
Cl190	Cl	-0.820195	-0.854481	-0.241087
Cl191	Cl	-0.486861	-0.521148	0.092246
Cl192	Cl	-0.153528	-0.187814	0.425579
H193	H	-0.664169	-1.084724	-0.010983
H194	H	-0.330836	-0.751390	0.322351
H195	H	0.002498	-0.418057	0.655684
H196	H	-0.664174	-0.879516	-0.216056
H197	H	-0.330841	-0.546183	0.117277
H198	H	0.002492	-0.212849	0.450610
H199	H	-0.000046	-0.578788	0.022530
H200	H	0.333287	-0.245455	0.355864
H201	H	0.666620	0.087878	0.689197
H202	H	-0.000045	-1.120897	0.325851
H203	H	0.333288	-0.787564	0.659184
H204	H	0.666622	-0.454231	0.992518
