data_functionalizedCrystal
_audit_creation_method	'MofGen! by Chris Wilmer'
_symmetry_space_group_name_H-M	'P1'
_symmetry_Int_Tables_number	1
_symmetry_cell_setting	triclinic
loop_
_symmetry_equiv_pos_as_xyz
  x,y,z
_cell_length_a	12.759401
_cell_length_b	29.839131
_cell_length_c	12.759393
_cell_angle_alpha	90.044470
_cell_angle_beta	90.020938
_cell_angle_gamma	90.036753
loop_
_atom_site_label
_atom_site_type_symbol
_atom_site_fract_x
_atom_site_fract_y
_atom_site_fract_z
Zn1	Zn	1.606117	-0.178813	0.593918
Zn2	Zn	2.106117	0.321187	1.093918
Zn3	Zn	1.605945	-0.253950	0.418195
Zn4	Zn	2.105945	0.246050	0.918195
Zn5	Zn	1.430415	-0.178837	0.418253
Zn6	Zn	1.930415	0.321163	0.918253
Zn7	Zn	1.430344	-0.253919	0.593833
Zn8	Zn	1.930344	0.246081	1.093833
O9	O	1.518205	-0.216380	0.506050
O10	O	2.018205	0.283620	1.006050
O11	O	1.753115	-0.188784	0.570620
O12	O	2.253115	0.311216	1.070620
O13	O	1.582618	-0.244010	0.271182
O14	O	2.082618	0.255990	0.771182
O15	O	1.453824	-0.115967	0.441616
O16	O	1.953824	0.384033	0.941616
O17	O	1.752988	-0.243986	0.441517
O18	O	2.252988	0.256014	0.941517
O19	O	1.582911	-0.115949	0.570676
O20	O	2.082911	0.384051	1.070676
O21	O	1.453657	-0.188824	0.271224
O22	O	1.953657	0.311176	0.771224
O23	O	1.283385	-0.188794	0.441533
O24	O	1.783385	0.311206	0.941533
O25	O	1.453703	-0.243933	0.740865
O26	O	1.953703	0.256067	1.240865
O27	O	1.283333	-0.243956	0.570530
O28	O	1.783333	0.256044	1.070530
O29	O	1.582842	-0.188753	0.740928
O30	O	2.082842	0.311247	1.240928
O31	O	1.582549	-0.316813	0.441434
O32	O	2.082549	0.183187	0.941434
O33	O	1.453536	-0.316790	0.570474
O34	O	1.953536	0.183210	1.070474
C35	C	1.245238	-0.216375	0.506029
C36	C	1.745238	0.283625	1.006029
C37	C	1.128461	-0.216383	0.506045
C38	C	1.628461	0.283617	1.006045
C39	C	1.073599	-0.245150	0.573108
C40	C	1.573599	0.254850	1.073108
C41	C	0.963875	-0.245151	0.573129
C42	C	1.463875	0.254849	1.073129
C43	C	0.963884	-0.187618	0.439014
C44	C	1.463884	0.312382	0.939014
C45	C	1.073606	-0.187615	0.439000
C46	C	1.573606	0.312385	0.939000
C47	C	1.518045	-0.333103	0.505961
C48	C	2.018045	0.166897	1.005961
C49	C	1.518072	-0.383037	0.505958
C50	C	2.018072	0.116963	1.005958
C51	C	1.585406	-0.692636	0.573347
C52	C	2.085406	-0.192636	1.073347
C53	C	1.585520	-0.880309	0.573410
C54	C	2.085520	-0.380309	1.073410
O55	O	1.642613	-0.904537	0.630641
O56	O	2.142613	-0.404537	1.130641
N57	N	1.518384	-0.903822	0.506166
N58	N	2.018384	-0.403822	1.006166
C59	C	1.451209	-0.880414	0.438907
C60	C	1.951209	-0.380414	0.938907
O61	O	1.394100	-0.904719	0.381721
O62	O	1.894100	-0.404719	0.881721
C63	C	1.451090	-0.692741	0.438850
C64	C	1.951090	-0.192741	0.938850
C65	C	1.518239	-0.669231	0.506091
C66	C	2.018239	-0.169231	1.006091
C67	C	1.652548	-0.669126	0.640583
C68	C	2.152548	-0.169126	1.140583
C69	C	1.652523	-0.622211	0.640563
C70	C	2.152523	-0.122211	1.140563
C71	C	1.585356	-0.598805	0.573306
C72	C	2.085356	-0.098805	1.073306
C73	C	1.518214	-0.622316	0.506070
C74	C	2.018214	-0.122316	1.006070
C75	C	1.383911	-0.669334	0.371596
C76	C	1.883911	-0.169334	0.871596
C77	C	1.383885	-0.622413	0.371590
C78	C	1.883885	-0.122413	0.871590
C79	C	1.451034	-0.598903	0.438831
C80	C	1.951034	-0.098903	0.938831
C81	C	1.451021	-0.551995	0.438793
C82	C	1.951021	-0.051995	0.938793
N83	N	1.518158	-0.528482	0.506037
N84	N	2.018158	-0.028482	1.006037
C85	C	1.585325	-0.551888	0.573293
C86	C	2.085325	-0.051888	1.073293
C87	C	1.451277	-0.978944	0.438940
C88	C	1.951277	-0.478944	0.938940
C89	C	1.451308	-1.025862	0.438953
C90	C	1.951308	-0.525862	0.938953
C91	C	1.585618	-1.025755	0.573458
C92	C	2.085618	-0.525755	1.073458
C93	C	1.585592	-0.978836	0.573439
C94	C	2.085592	-0.478836	1.073439
C95	C	1.518414	-0.955432	0.506184
C96	C	2.018414	-0.455432	1.006184
C97	C	1.585268	-0.453362	0.573245
C98	C	2.085268	0.046638	1.073245
C99	C	1.585240	-0.406442	0.573215
C100	C	2.085240	0.093558	1.073215
C101	C	1.450926	-0.406554	0.438714
C102	C	1.950926	0.093446	0.938714
C103	C	1.450958	-0.453469	0.438739
C104	C	1.950958	0.046531	0.938739
C105	C	1.518132	-0.476872	0.506013
C106	C	2.018132	0.023128	1.006013
O107	O	1.393950	-0.527739	0.381601
O108	O	1.893950	-0.027739	0.881601
O109	O	1.642409	-0.527574	0.630487
O110	O	2.142409	-0.027574	1.130487
C111	C	1.585431	-0.739552	0.573368
C112	C	2.085431	-0.239552	1.073368
C113	C	1.518289	-0.763062	0.506132
C114	C	2.018289	-0.263062	1.006132
C115	C	1.451122	-0.739657	0.438875
C116	C	1.951122	-0.239657	0.938875
C117	C	1.518320	-0.809980	0.506144
C118	C	2.018320	-0.309980	1.006144
C119	C	1.585487	-0.833385	0.573401
C120	C	2.085487	-0.333385	1.073401
C121	C	1.652624	-0.809872	0.640645
C122	C	2.152624	-0.309872	1.140645
C123	C	1.652599	-0.762957	0.640624
C124	C	2.152599	-0.262957	1.140624
C125	C	1.383985	-0.763170	0.371631
C126	C	1.883985	-0.263170	0.871631
C127	C	1.384017	-0.810085	0.371656
C128	C	1.884017	-0.310085	0.871656
C129	C	1.451184	-0.833490	0.438913
C130	C	1.951184	-0.333490	0.938913
C131	C	1.792238	-0.216386	0.506071
C132	C	2.292238	0.283614	1.006071
C133	C	1.909015	-0.216388	0.506081
C134	C	2.409015	0.283612	1.006081
C135	C	1.518284	-0.216337	0.780083
C136	C	2.018284	0.283663	1.280083
C137	C	1.518317	-0.216318	0.896860
C138	C	2.018317	0.283682	1.396860
C139	C	1.518395	-0.099202	0.506162
C140	C	2.018395	0.400798	1.006162
C141	C	1.518475	-0.049267	0.506209
C142	C	2.018475	0.450733	1.006209
C143	C	1.518187	-0.216391	0.233082
C144	C	2.018187	0.283609	0.733082
C145	C	1.518357	-0.216282	0.116306
C146	C	2.018357	0.283718	0.616306
C147	C	1.585565	-0.187582	0.951756
C148	C	2.085565	0.312418	1.451756
C149	C	1.585583	-0.187562	1.061481
C150	C	2.085583	0.312438	1.561481
C151	C	1.451102	-0.245020	1.061402
C152	C	1.951102	0.254980	1.561402
C153	C	1.451080	-0.245037	0.951680
C154	C	1.951080	0.254963	1.451680
H155	H	1.639960	-0.472411	0.628033
H156	H	2.139960	0.027589	1.128033
N157	N	1.378896	-1.051214	0.366412
N158	N	1.878896	-0.551214	0.866412
H159	H	1.303817	-1.043070	0.382661
H160	H	1.803817	-0.543070	0.882661
H161	H	1.389188	-1.084481	0.376648
H162	H	1.889188	-0.584481	0.876648
H163	H	1.640341	-0.164161	1.106172
H164	H	2.140341	0.335839	1.606172
N165	N	1.378569	-0.275987	1.120530
N166	N	1.878569	0.224013	1.620530
H167	H	1.388782	-0.271615	1.198369
H168	H	1.888782	0.228385	1.698369
H169	H	1.394845	-0.308079	1.101330
H170	H	1.894845	0.191921	1.601330
N171	N	1.725047	-0.835123	0.713207
N172	N	2.225047	-0.335123	1.213207
H173	H	1.767577	-0.813113	0.755813
H174	H	2.267577	-0.313113	1.255813
H175	H	1.773703	-0.854593	0.670505
H176	H	2.273703	-0.354593	1.170505
H177	H	1.396242	-0.387490	0.383951
H178	H	1.896242	0.112510	0.883951
H179	H	1.396311	-0.268438	0.906982
H180	H	1.896311	0.231562	1.406982
N181	N	0.904712	-0.156604	0.366681
N182	N	1.404712	0.343396	0.866681
H183	H	0.859222	-0.135808	0.409464
H184	H	1.359222	0.364192	0.909464
H185	H	0.859213	-0.174880	0.317940
H186	H	1.359213	0.325120	0.817940
H187	H	1.118276	-0.164187	0.384389
H188	H	1.618276	0.335813	0.884389
N189	N	1.132767	-0.276176	0.645418
N190	N	1.632767	0.223824	1.145418
H191	H	1.081358	-0.294399	0.687906
H192	H	1.581358	0.205601	1.187906
H193	H	1.178341	-0.257913	0.694117
H194	H	1.678341	0.242087	1.194117
N195	N	1.725021	-0.737603	0.713150
N196	N	2.225021	-0.237603	1.213150
H197	H	1.767568	-0.759555	0.755756
H198	H	2.267568	-0.259555	1.255756
H199	H	1.682221	-0.718134	0.761731
H200	H	2.182221	-0.218134	1.261731
N201	N	0.904702	-0.276180	0.645456
N202	N	1.404702	0.223820	1.145456
H203	H	0.956105	-0.294404	0.687922
H204	H	1.456105	0.205596	1.187922
H205	H	0.859129	-0.296948	0.602593
H206	H	1.359129	0.203052	1.102593
N207	N	1.378549	-0.478830	0.366206
N208	N	1.878549	0.021170	0.866206
H209	H	1.335999	-0.456882	0.323593
H210	H	1.835999	0.043118	0.823593
H211	H	1.329912	-0.498295	0.408938
H212	H	1.829912	0.001705	0.908938
H213	H	1.707198	-0.603071	0.695319
H214	H	2.207198	-0.103071	1.195319
N215	N	1.657668	-0.381085	0.645740
N216	N	2.157668	0.118915	1.145740
H217	H	1.700217	-0.403034	0.688351
H218	H	2.200217	0.096966	1.188351
H219	H	1.614867	-0.361614	0.694316
H220	H	2.114867	0.138386	1.194316
H221	H	1.640269	-0.959697	0.628193
H222	H	2.140269	-0.459697	1.128193
N223	N	1.724972	-0.694366	0.713158
N224	N	2.224972	-0.194366	1.213158
H225	H	1.767486	-0.672346	0.755751
H226	H	2.267486	-0.172346	1.255751
H227	H	1.773642	-0.713834	0.670468
H228	H	2.273642	-0.213834	1.170468
H229	H	1.329288	-0.744117	0.316864
H230	H	1.829288	-0.244117	0.816864
N231	N	1.658066	-1.051003	0.645999
N232	N	2.158066	-0.551003	1.145999
H233	H	1.647890	-1.084292	0.635798
H234	H	2.147890	-0.584292	1.135798
H235	H	1.641661	-1.042781	0.721016
H236	H	2.141661	-0.542781	1.221016
N237	N	1.378822	-0.953704	0.366390
N238	N	1.878822	-0.453704	0.866390
H239	H	1.336306	-0.975723	0.323796
H240	H	1.836306	-0.475723	0.823796
H241	H	1.421604	-0.934241	0.317801
H242	H	1.921604	-0.434241	0.817801
H243	H	1.329232	-0.688468	0.316841
H244	H	1.829232	-0.188468	0.816841
H245	H	1.329178	-0.603359	0.316823
H246	H	1.829178	-0.103359	0.816823
N247	N	1.311595	-0.835440	0.299119
N248	N	1.811595	-0.335440	0.799119
H249	H	1.269044	-0.813489	0.256515
H250	H	1.769044	-0.313489	0.756515
H251	H	1.262960	-0.854906	0.341851
H252	H	1.762960	-0.354906	0.841851
N253	N	1.658080	-0.156608	0.892627
N254	N	2.158080	0.343392	1.392627
H255	H	1.700682	-0.138400	0.944057
H256	H	2.200682	0.361600	1.444057
H257	H	1.615340	-0.135823	0.847114
H258	H	2.115340	0.364177	1.347114
