data_functionalizedCrystal
_audit_creation_method	'MofGen! by Chris Wilmer'
_symmetry_space_group_name_H-M	'P1'
_symmetry_Int_Tables_number	1
_symmetry_cell_setting	triclinic
loop_
_symmetry_equiv_pos_as_xyz
  x,y,z
_cell_length_a	12.594516
_cell_length_b	18.101398
_cell_length_c	12.594510
_cell_angle_alpha	89.972199
_cell_angle_beta	90.031906
_cell_angle_gamma	89.988680
loop_
_atom_site_label
_atom_site_type_symbol
_atom_site_fract_x
_atom_site_fract_y
_atom_site_fract_z
Zn1	Zn	-0.423784	-1.132224	0.602017
Zn2	Zn	-0.601812	-1.132145	0.424045
Zn3	Zn	-0.423834	-1.008375	0.424031
Zn4	Zn	-0.601707	-1.008366	0.601960
O5	O	-0.512784	-1.070278	0.513013
O6	O	-0.447424	-1.235846	0.578439
O7	O	-0.578268	-1.115697	0.275097
O8	O	-0.274881	-1.024841	0.447659
O9	O	-0.578220	-1.235788	0.447684
O10	O	-0.274845	-1.115832	0.578425
O11	O	-0.447508	-1.024764	0.275087
O12	O	-0.447405	-0.904741	0.447603
O13	O	-0.578040	-1.024825	0.750913
O14	O	-0.578088	-0.904734	0.578327
O15	O	-0.447321	-1.115823	0.750956
O16	O	-0.750744	-1.115688	0.447628
O17	O	-0.750666	-1.024749	0.578341
C18	C	-0.512741	-0.877867	0.512958
C19	C	-0.512748	-0.795553	0.512959
C20	C	-0.789325	-1.070229	0.513003
C21	C	-0.907631	-1.070276	0.513034
C22	C	-0.512663	-1.070332	0.790634
C23	C	-0.512612	-1.070355	0.908940
C24	C	-0.976880	-1.020809	0.584079
C25	C	-1.047753	-1.002764	0.486953
C26	C	-1.047557	-1.088389	0.610176
C27	C	-0.976945	-1.052195	0.415857
C28	C	-0.976743	-1.137852	0.539145
C29	C	-1.047584	-1.119832	0.441953
C30	C	-0.235163	-1.070346	0.513047
C31	C	-0.116858	-1.070376	0.513061
C32	C	-0.512828	-1.263439	0.513070
C33	C	-0.512847	-1.345754	0.513094
C34	C	-0.512815	-0.496462	0.513049
C35	C	-0.430182	-0.527767	0.431202
C36	C	-0.430403	-0.613385	0.430853
C37	C	-0.512781	-0.644844	0.513004
C38	C	-0.624908	-0.613746	0.482367
C39	C	-0.624448	-0.528100	0.481798
C40	C	-0.484296	-0.528076	0.625725
C41	C	-0.481799	-0.613726	0.625110
C42	C	-0.512768	-0.728704	0.512981
C43	C	-0.512834	-0.412602	0.513069
C44	C	-0.512828	-1.070266	0.236472
C45	C	-0.512580	-1.070386	0.118167
C46	C	-0.441493	-1.119867	1.048980
C47	C	-0.538616	-1.137948	0.978165
C48	C	-0.415500	-1.052307	0.978183
C49	C	-0.609753	-1.088503	1.048910
C50	C	-0.486572	-1.002830	1.048935
C51	C	-0.583762	-1.020886	0.978152
H52	H	-0.945835	-0.978902	0.644072
H53	H	-1.078968	-0.945663	0.464891
H54	H	-0.464525	-0.945729	1.080047
F55	F	-0.717112	-1.108561	1.089344
F56	F	-0.362997	-1.174616	1.089630
F57	F	-0.554734	-0.641717	0.709090
H58	H	-0.946056	-1.036849	0.333694
F59	F	-0.373955	-0.640308	0.655316
F60	F	-1.087906	-1.174568	0.363352
H61	H	-0.945531	-1.194940	0.561255
F62	F	-1.088103	-1.108360	0.717538
H63	H	-0.544482	-0.507833	0.686708
H64	H	-0.403955	-0.506491	0.653582
H65	H	-0.560632	-1.195065	0.947075
H66	H	-0.347257	-0.634411	0.450055
H67	H	-0.333388	-1.037029	0.947112
F68	F	-0.707651	-0.501031	0.556313
H69	H	-0.346781	-0.507182	0.450193
H70	H	-0.448823	-0.506217	0.348196
H71	H	-0.648632	-0.508089	0.399427
F72	F	-0.455043	-0.640122	0.321721
F73	F	-0.707540	-0.640373	0.557853
F74	F	-0.657067	-0.641735	0.375864
F75	F	-0.662443	-0.966173	0.937761
