data_functionalizedCrystal
_audit_creation_method	'MofGen! by Chris Wilmer'
_symmetry_space_group_name_H-M	'P1'
_symmetry_Int_Tables_number	1
_symmetry_cell_setting	triclinic
loop_
_symmetry_equiv_pos_as_xyz
  x,y,z
_cell_length_a	16.959455
_cell_length_b	12.594516
_cell_length_c	16.959447
_cell_angle_alpha	89.974772
_cell_angle_beta	89.983056
_cell_angle_gamma	90.013000
loop_
_atom_site_label
_atom_site_type_symbol
_atom_site_fract_x
_atom_site_fract_y
_atom_site_fract_z
Zn1	Zn	1.208426	-0.423807	-0.446937
Zn2	Zn	1.208352	-0.601814	-0.314771
Zn3	Zn	1.076249	-0.423841	-0.314775
Zn4	Zn	1.076229	-0.601734	-0.446909
O5	O	1.142314	-0.512799	-0.380848
O6	O	1.319027	-0.447439	-0.429415
O7	O	1.190806	-0.578253	-0.204160
O8	O	1.093822	-0.274890	-0.332320
O9	O	1.318973	-0.578220	-0.332313
O10	O	1.190932	-0.274866	-0.429419
O11	O	1.093750	-0.447497	-0.204163
O12	O	0.965635	-0.447419	-0.332293
O13	O	1.093788	-0.578084	-0.557524
O14	O	0.965620	-0.578117	-0.429371
O15	O	1.190913	-0.447362	-0.557544
O16	O	1.190786	-0.750749	-0.332286
O17	O	1.093716	-0.750691	-0.429367
C18	C	0.936948	-0.512764	-0.380830
C19	C	0.849091	-0.512775	-0.380841
C20	C	0.477599	-0.444689	-0.330405
C21	C	0.477632	-0.580997	-0.431336
C22	C	0.560178	-0.580981	-0.431332
C23	C	0.601438	-0.512820	-0.380862
C24	C	0.560152	-0.444674	-0.330396
C25	C	0.601470	-0.649134	-0.481790
C26	C	0.684021	-0.649122	-0.481787
C27	C	0.725283	-0.580955	-0.431320
C28	C	0.683992	-0.512805	-0.380854
C29	C	0.725252	-0.444643	-0.330384
C30	C	0.683962	-0.376487	-0.279920
C31	C	0.601414	-0.376506	-0.279930
C32	C	0.807831	-0.580936	-0.431311
C33	C	0.807805	-0.444628	-0.330376
C34	C	1.142262	-0.789340	-0.380840
C35	C	1.142312	-0.907645	-0.380863
C36	C	1.089511	-0.976905	-0.433629
C37	C	1.070255	-1.047768	-0.361503
C38	C	1.161639	-1.047582	-0.453001
C39	C	1.123019	-0.976950	-0.308699
C40	C	1.214437	-0.976758	-0.400246
C41	C	1.195209	-1.047588	-0.328071
C42	C	1.348482	-0.512835	-0.380866
C43	C	1.436339	-0.512850	-0.380874
C44	C	1.142356	-0.512711	-0.587016
C45	C	1.142374	-0.512673	-0.674873
C46	C	1.142387	-0.235178	-0.380873
C47	C	1.142419	-0.116873	-0.380884
C48	C	1.091911	-0.444482	-1.046356
C49	C	1.192976	-0.580640	-1.046341
C50	C	1.192963	-0.580665	-0.963795
C51	C	1.142422	-0.512598	-0.922526
C52	C	1.091895	-0.444507	-0.963803
C53	C	1.243483	-0.648762	-0.922512
C54	C	1.243471	-0.648791	-0.839961
C55	C	1.192933	-0.580718	-0.798690
C56	C	1.142405	-0.512623	-0.839972
C57	C	1.091864	-0.444557	-0.798703
C58	C	1.041339	-0.376455	-0.839984
C59	C	1.041357	-0.376434	-0.922532
C60	C	1.192915	-0.580739	-0.716142
C61	C	1.091847	-0.444582	-0.716150
C62	C	1.142317	-0.512810	-0.175482
C63	C	1.142452	-0.512548	-0.087625
H64	H	0.567789	-0.321019	-0.238845
H65	H	1.009311	-1.078982	-0.345126
C66	C	1.298440	-0.722490	-0.967365
C67	C	1.349143	-0.662223	-1.014758
C68	C	1.399784	-0.730108	-1.056086
H69	H	1.268278	-0.768859	-0.999621
H70	H	1.328573	-0.763041	-0.930989
H71	H	1.319013	-0.621690	-1.051130
H72	H	1.379322	-0.615856	-0.982521
H73	H	1.429918	-0.770659	-1.019710
H74	H	1.369616	-0.776474	-1.088338
H75	H	1.434197	-0.689227	-1.088242
C76	C	0.852517	-0.654964	-0.486180
C77	C	0.798715	-0.714646	-0.530391
C78	C	0.839850	-0.782844	-0.580956
H79	H	0.884710	-0.701375	-0.455970
H80	H	0.884716	-0.614323	-0.520713
H81	H	0.766530	-0.755284	-0.495862
H82	H	0.766520	-0.668264	-0.560616
H83	H	0.872048	-0.742202	-0.615489
H84	H	0.872042	-0.829247	-0.550740
H85	H	0.803352	-0.823339	-0.610964
C86	C	1.101157	-0.935553	-0.227407
C87	C	1.101303	-0.824391	-0.228359
C88	C	1.081154	-0.786217	-0.153492
H89	H	1.138435	-0.960206	-0.189834
H90	H	1.050099	-0.960399	-0.213554
H91	H	1.152353	-0.799554	-0.242202
H92	H	1.064024	-0.799709	-0.265915
H93	H	1.030096	-0.811064	-0.139639
H94	H	1.118434	-0.810878	-0.115926
H95	H	1.081243	-0.710791	-0.154130
C96	C	0.986333	-0.302692	-0.795213
C97	C	0.908123	-0.325863	-0.815267
C98	C	0.857430	-0.257948	-0.774029
H99	H	0.997817	-0.231133	-0.808711
H100	H	0.993507	-0.312480	-0.740132
H101	H	0.900952	-0.316066	-0.870336
H102	H	0.896614	-0.397409	-0.801767
H103	H	0.864604	-0.267735	-0.718947
H104	H	0.868921	-0.186393	-0.787530
H105	H	0.804359	-0.273666	-0.787624
H106	H	0.444033	-0.636497	-0.472422
H107	H	1.044778	-0.945869	-0.478186
C108	C	1.254796	-1.088933	-0.268587
C109	C	1.254679	-1.200091	-0.269697
C110	C	1.309561	-1.238218	-0.214917
H111	H	1.241045	-1.064732	-0.217357
H112	H	1.305863	-1.063606	-0.281914
H113	H	1.203623	-1.225408	-0.256365
H114	H	1.268438	-1.224321	-0.320914
H115	H	1.360629	-1.212891	-0.228244
H116	H	1.295806	-1.214010	-0.163691
H117	H	1.309495	-1.313642	-0.215668
H118	H	0.717632	-0.704618	-0.522877
C119	C	1.295724	-0.935338	-0.422183
C120	C	1.346214	-1.021118	-0.436556
C121	C	1.421098	-0.983002	-0.456786
H122	H	1.316061	-0.893873	-0.380065
H123	H	1.291935	-0.892770	-0.468287
H124	H	1.350005	-1.063668	-0.390457
H125	H	1.325902	-1.062591	-0.478677
H126	H	1.417309	-0.940434	-0.502891
H127	H	1.441428	-0.941537	-0.414666
H128	H	1.455363	-1.041197	-0.466548
C129	C	0.556532	-0.723020	-0.536551
C130	C	0.475403	-0.708420	-0.525773
C131	C	0.433978	-0.776457	-0.576215
H132	H	0.569952	-0.794557	-0.524941
H133	H	0.570038	-0.707522	-0.589696
H134	H	0.461903	-0.723925	-0.472641
H135	H	0.461960	-0.636897	-0.537389
H136	H	0.447483	-0.760959	-0.629360
H137	H	0.447404	-0.847990	-0.564601
H138	H	0.378928	-0.766553	-0.568915
C139	C	1.183276	-1.088807	-0.534403
C140	C	1.127754	-1.052970	-0.589389
C141	C	1.147659	-1.090908	-0.664387
H142	H	1.183617	-1.164223	-0.533818
H143	H	1.234100	-1.063417	-0.548569
H144	H	1.076943	-1.078365	-0.575227
H145	H	1.127404	-0.977559	-0.589999
H146	H	1.198482	-1.065518	-0.678553
H147	H	1.148000	-1.166323	-0.663793
H148	H	1.109995	-1.066590	-0.701705
C149	C	1.298418	-0.722756	-0.795288
C150	C	1.342695	-0.782340	-0.849099
C151	C	1.393330	-0.850474	-0.807975
H152	H	1.268255	-0.769232	-0.763068
H153	H	1.332905	-0.682074	-0.763117
H154	H	1.308212	-0.823020	-0.881257
H155	H	1.372874	-0.735893	-0.881321
H156	H	1.427818	-0.809792	-0.775804
H157	H	1.363162	-0.896942	-0.775756
H158	H	1.423384	-0.890903	-0.844480
C159	C	1.036839	-0.370811	-0.671387
C160	C	0.958631	-0.393984	-0.691446
C161	C	0.907936	-0.326060	-0.650219
H162	H	1.048325	-0.299256	-0.684892
H163	H	1.044008	-0.380589	-0.616304
H164	H	0.951465	-0.384197	-0.746517
H165	H	0.947120	-0.465527	-0.677940
H166	H	0.915104	-0.335837	-0.595136
H167	H	0.919429	-0.254508	-0.663726
H168	H	0.854865	-0.341779	-0.663818
H169	H	1.050777	-0.389033	-1.079971
C170	C	0.986533	-0.302620	-0.967494
C171	C	0.997351	-0.317192	-1.048619
C172	C	0.946854	-0.249226	-1.090065
H173	H	0.998068	-0.231067	-0.954077
H174	H	0.933400	-0.318201	-0.954004
H175	H	1.050472	-0.301604	-1.062104
H176	H	0.985810	-0.388731	-1.062060
H177	H	0.893721	-0.264806	-1.076575
H178	H	0.958393	-0.177677	-1.076641
H179	H	0.954181	-0.259110	-1.145112
C180	C	1.247939	-0.654364	-1.091188
C181	C	1.298637	-0.594094	-1.138585
C182	C	1.349288	-0.661974	-1.179906
H183	H	1.217784	-0.700745	-1.123442
H184	H	1.278076	-0.694903	-1.054808
H185	H	1.268504	-0.553573	-1.174961
H186	H	1.328810	-0.547716	-1.106352
H187	H	1.379425	-0.702514	-1.143526
H188	H	1.319126	-0.708352	-1.212155
H189	H	1.383697	-0.621091	-1.212064
H190	H	1.234057	-0.636179	-0.682535
H191	H	0.841393	-0.389116	-0.289281
H192	H	0.443977	-0.389195	-0.289321
C193	C	0.728906	-0.302527	-0.225211
C194	C	0.810035	-0.317095	-0.236020
C195	C	0.851464	-0.248975	-0.185644
H196	H	0.715451	-0.317946	-0.172051
H197	H	0.715440	-0.231008	-0.236878
H198	H	0.823495	-0.388597	-0.224347
H199	H	0.823513	-0.301669	-0.289169
H200	H	0.837998	-0.177456	-0.197311
H201	H	0.838003	-0.264399	-0.132487
H202	H	0.906514	-0.258843	-0.192976
