data_functionalizedCrystal
_audit_creation_method	'MofGen! by Chris Wilmer'
_symmetry_space_group_name_H-M	'P1'
_symmetry_Int_Tables_number	1
_symmetry_cell_setting	triclinic
loop_
_symmetry_equiv_pos_as_xyz
  x,y,z
_cell_length_a	19.805407
_cell_length_b	21.295417
_cell_length_c	19.805399
_cell_angle_alpha	90.029796
_cell_angle_beta	90.019573
_cell_angle_gamma	90.029702
loop_
_atom_site_label
_atom_site_type_symbol
_atom_site_fract_x
_atom_site_fract_y
_atom_site_fract_z
Zn1	Zn	1.034720	-0.250624	0.382709
Zn2	Zn	1.534720	0.249376	0.882709
Zn3	Zn	1.034629	-0.355893	0.269517
Zn4	Zn	1.534629	0.144107	0.769517
Zn5	Zn	0.921535	-0.250641	0.269534
Zn6	Zn	1.421535	0.249359	0.769534
Zn7	Zn	0.921492	-0.355859	0.382663
Zn8	Zn	1.421492	0.144141	0.882663
O9	O	0.978094	-0.303254	0.326106
O10	O	1.478094	0.196746	0.826106
O11	O	1.129425	-0.264595	0.367706
O12	O	1.629425	0.235405	0.867706
O13	O	1.019606	-0.341952	0.174802
O14	O	1.519606	0.158048	0.674802
O15	O	0.936605	-0.162549	0.284573
O16	O	1.436605	0.337451	0.784573
O17	O	1.129357	-0.341935	0.284544
O18	O	1.629357	0.158065	0.784544
O19	O	1.019762	-0.162537	0.367723
O20	O	1.519762	0.337463	0.867723
O21	O	0.936517	-0.264624	0.174815
O22	O	1.436517	0.235376	0.674815
O23	O	0.826813	-0.264592	0.284529
O24	O	1.326813	0.235408	0.784529
O25	O	0.936532	-0.341878	0.477386
O26	O	1.436532	0.158122	0.977386
O27	O	0.826781	-0.341895	0.367644
O28	O	1.326781	0.158105	0.867644
O29	O	1.019721	-0.264562	0.477420
O30	O	1.519721	0.235438	0.977420
O31	O	1.019564	-0.443977	0.284499
O32	O	1.519564	0.056023	0.784499
O33	O	0.936443	-0.443953	0.367628
O34	O	1.436443	0.056047	0.867628
C35	C	0.802238	-0.303242	0.326084
C36	C	1.302238	0.196758	0.826084
C37	C	0.727006	-0.303252	0.326091
C38	C	1.227006	0.196748	0.826091
C39	C	0.978008	-0.466806	0.326071
C40	C	1.478008	0.033194	0.826071
C41	C	0.978033	-0.536774	0.326079
C42	C	1.478033	-0.036774	0.826079
C43	C	0.691663	-0.343564	0.369299
C44	C	1.191663	0.156436	0.869299
C45	C	0.620975	-0.343566	0.369308
C46	C	1.120975	0.156434	0.869308
C47	C	0.585630	-0.303257	0.326106
C48	C	1.085630	0.196743	0.826106
C49	C	0.620978	-0.262940	0.282895
C50	C	1.120978	0.237060	0.782895
C51	C	0.691665	-0.262936	0.282890
C52	C	1.191665	0.237064	0.782890
C53	C	0.335905	-0.262954	0.282918
C54	C	0.835905	0.237046	0.782918
C55	C	0.265213	-0.262962	0.282925
C56	C	0.765213	0.237038	0.782925
C57	C	0.265214	-0.343583	0.369336
C58	C	0.765214	0.156417	0.869336
C59	C	0.335901	-0.343579	0.369331
C60	C	0.835901	0.156421	0.869331
C61	C	0.371243	-0.303261	0.326123
C62	C	0.871243	0.196739	0.826123
C63	C	0.447891	-0.303259	0.326114
C64	C	0.947891	0.196741	0.826114
C65	C	0.508983	-0.303261	0.326111
C66	C	1.008983	0.196739	0.826111
C67	C	1.021308	-0.569577	0.369406
C68	C	1.521308	-0.069577	0.869406
C69	C	1.021331	-0.635319	0.369423
C70	C	1.521331	-0.135319	0.869423
C71	C	0.978087	-0.668256	0.326101
C72	C	1.478087	-0.168256	0.826101
C73	C	0.934804	-0.635446	0.282771
C74	C	1.434804	-0.135446	0.782771
C75	C	0.934777	-0.569704	0.282760
C76	C	1.434777	-0.069704	0.782760
N77	N	0.972976	-0.771518	0.266865
N78	N	1.472976	-0.271518	0.766865
N79	N	0.973006	-0.833969	0.266877
N80	N	1.473006	-0.333969	0.766877
C81	C	0.978167	-0.866331	0.326131
C82	C	1.478167	-0.366331	0.826131
N83	N	0.983309	-0.833882	0.385374
N84	N	1.483309	-0.333882	0.885374
N85	N	0.983283	-0.771425	0.385362
N86	N	1.483283	-0.271425	0.885362
C87	C	0.978112	-0.739542	0.326108
C88	C	1.478112	-0.239542	0.826108
C89	C	1.021470	-0.970419	0.369480
C90	C	1.521470	-0.470419	0.869480
C91	C	1.021489	-1.036163	0.369498
C92	C	1.521489	-0.536163	0.869498
C93	C	0.934965	-1.036288	0.282840
C94	C	1.434965	-0.536288	0.782840
C95	C	0.934942	-0.970546	0.282828
C96	C	1.434942	-0.470546	0.782828
C97	C	0.978198	-0.937615	0.326147
C98	C	1.478198	-0.437615	0.826147
C99	C	1.154637	-0.303267	0.326128
C100	C	1.654637	0.196733	0.826128
C101	C	1.229869	-0.303272	0.326138
C102	C	1.729869	0.196728	0.826138
C103	C	0.978132	-0.303214	0.502649
C104	C	1.478132	0.196786	1.002649
C105	C	0.978148	-0.303198	0.577881
C106	C	1.478148	0.196802	1.077881
C107	C	0.978199	-0.139064	0.326155
C108	C	1.478199	0.360936	0.826155
C109	C	0.978244	-0.069096	0.326176
C110	C	1.478244	0.430904	0.826176
C111	C	0.978095	-0.303248	0.150250
C112	C	1.478095	0.196752	0.650250
C113	C	0.978210	-0.303088	0.075018
C114	C	1.478210	0.196912	0.575018
C115	C	1.021465	-0.262937	0.613243
C116	C	1.521465	0.237063	1.113243
C117	C	1.021472	-0.262919	0.683932
C118	C	1.521472	0.237081	1.183932
C119	C	0.978165	-0.303165	0.719256
C120	C	1.478165	0.196835	1.219256
C121	C	0.934843	-0.343427	0.683888
C122	C	1.434843	0.156573	1.183888
C123	C	0.934833	-0.343441	0.613201
C124	C	1.434833	0.156559	1.113201
C125	C	0.934881	-0.343368	0.968962
C126	C	1.434881	0.156632	1.468962
C127	C	0.934896	-0.343352	1.039654
C128	C	1.434896	0.156648	1.539654
C129	C	1.021520	-0.262846	1.039692
C130	C	1.521520	0.237154	1.539692
C131	C	1.021510	-0.262860	0.969005
C132	C	1.521510	0.237140	1.469005
C133	C	0.978186	-0.303120	0.933644
C134	C	1.478186	0.196880	1.433644
C135	C	0.978178	-0.303138	0.856995
C136	C	1.478178	0.196862	1.356995
C137	C	0.978176	-0.303150	0.795903
C138	C	1.478176	0.196850	1.295903
H139	H	0.720435	-0.376390	0.404477
H140	H	1.220435	0.123610	0.904477
H141	H	0.899536	-0.542996	0.247478
H142	H	1.399536	-0.042996	0.747478
Cl143	Cl	1.075915	-0.212343	0.568843
Cl144	Cl	1.575915	0.287657	1.068843
Cl145	Cl	0.880373	-0.394055	0.568745
Cl146	Cl	1.380373	0.105945	1.068745
Cl147	Cl	1.075889	-1.077402	0.423979
Cl148	Cl	1.575889	-0.577402	0.923979
H149	H	1.056747	-0.230136	0.712721
H150	H	1.556747	0.269864	1.212721
H151	H	0.236437	-0.230134	0.247744
H152	H	0.736437	0.269866	0.747744
H153	H	0.899614	-0.376159	0.940179
H154	H	1.399614	0.123841	1.440179
H155	H	0.899707	-0.943836	0.247544
H156	H	1.399707	-0.443836	0.747544
H157	H	1.056565	-0.662032	0.404713
H158	H	1.556565	-0.162032	0.904713
H159	H	1.056778	-0.230090	0.940248
H160	H	1.556778	0.269910	1.440248
Cl161	Cl	1.075983	-0.212230	1.084151
Cl162	Cl	1.575983	0.287770	1.584151
Cl163	Cl	0.880598	-1.077689	0.228379
Cl164	Cl	1.380598	-0.577689	0.728379
Cl165	Cl	0.880397	-0.394020	0.728296
Cl166	Cl	1.380397	0.105980	1.228296
Cl167	Cl	0.880447	-0.393950	1.084061
Cl168	Cl	1.380447	0.106050	1.584061
H169	H	0.236430	-0.376410	0.404521
H170	H	0.736430	0.123590	0.904521
Cl171	Cl	0.576545	-0.212262	0.228588
Cl172	Cl	1.076545	0.287738	0.728588
Cl173	Cl	0.380330	-0.394257	0.423642
Cl174	Cl	0.880330	0.105743	0.923642
H175	H	0.592201	-0.376392	0.404492
H176	H	1.092201	0.123608	0.904492
Cl177	Cl	1.075844	-0.929018	0.423940
Cl178	Cl	1.575844	-0.429018	0.923940
Cl179	Cl	0.880436	-0.676851	0.228313
Cl180	Cl	1.380436	-0.176851	0.728313
Cl181	Cl	0.380325	-0.212266	0.228602
Cl182	Cl	0.880325	0.287734	0.728602
Cl183	Cl	0.736097	-0.212254	0.228570
Cl184	Cl	1.236097	0.287746	0.728570
Cl185	Cl	1.075682	-0.528182	0.423869
Cl186	Cl	1.575682	-0.028182	0.923869
