data_functionalizedCrystal
_audit_creation_method	'MofGen! by Chris Wilmer'
_symmetry_space_group_name_H-M	'P1'
_symmetry_Int_Tables_number	1
_symmetry_cell_setting	triclinic
loop_
_symmetry_equiv_pos_as_xyz
  x,y,z
_cell_length_a	19.121063
_cell_length_b	14.908618
_cell_length_c	14.908308
_cell_angle_alpha	89.826377
_cell_angle_beta	95.554627
_cell_angle_gamma	90.697640
loop_
_atom_site_label
_atom_site_type_symbol
_atom_site_fract_x
_atom_site_fract_y
_atom_site_fract_z
Zn1	Zn	-0.366448	-1.324068	-0.606430
Zn2	Zn	-0.477506	-1.326216	-0.461772
Zn3	Zn	-0.352958	-1.183165	-0.446731
Zn4	Zn	-0.476668	-1.167292	-0.603376
O5	O	-0.418395	-1.250185	-0.529577
O6	O	-0.387176	-1.449832	-0.594813
O7	O	-0.455690	-1.314781	-0.333680
O8	O	-0.256496	-1.207600	-0.462899
O9	O	-0.468770	-1.451409	-0.488533
O10	O	-0.266407	-1.311121	-0.580229
O11	O	-0.364185	-1.209683	-0.322630
O12	O	-0.363373	-1.055581	-0.459938
O13	O	-0.467342	-1.180547	-0.729878
O14	O	-0.454262	-1.043919	-0.575024
O15	O	-0.386363	-1.295730	-0.732121
O16	O	-0.575646	-1.299390	-0.485572
O17	O	-0.575031	-1.182630	-0.589608
C18	C	-0.407263	-1.017215	-0.515518
C19	C	-0.402518	-0.917547	-0.509526
C20	C	-0.600816	-1.239544	-0.538912
C21	C	-0.678861	-1.235072	-0.542941
C22	C	-0.488379	-0.718167	-0.617958
C23	C	-0.483923	-0.624519	-0.612331
C24	C	-0.389149	-0.636603	-0.492650
C25	C	-0.393604	-0.730250	-0.498277
C26	C	-0.443222	-0.771029	-0.560932
C27	C	-0.447680	-0.864678	-0.566554
C28	C	-0.352903	-0.876760	-0.446879
C29	C	-0.348448	-0.783113	-0.441252
C30	C	-0.715829	-1.293803	-0.490718
C31	C	-0.789161	-1.289602	-0.494512
C32	C	-0.825525	-1.226665	-0.550525
C33	C	-0.788552	-1.167930	-0.602754
C34	C	-0.715222	-1.172136	-0.598964
C35	C	-1.046921	-1.210926	-0.564681
C36	C	-1.120257	-1.206722	-0.568466
C37	C	-1.120861	-1.328396	-0.460224
C38	C	-1.047528	-1.332593	-0.456435
C39	C	-1.010563	-1.273862	-0.508667
C40	C	-0.900482	-1.222367	-0.554403
C41	C	-0.935607	-1.278164	-0.504794
C42	C	-0.235264	-1.260892	-0.520227
C43	C	-0.157224	-1.265454	-0.516243
C44	C	-0.428264	-1.236129	-0.764609
C45	C	-0.432470	-1.230138	-0.864765
C46	C	-0.429565	-0.484066	-0.543685
C47	C	-0.434311	-0.583734	-0.549678
C48	C	-0.356033	-1.338820	-1.055307
C49	C	-0.359982	-1.333195	-1.149413
C50	C	-0.444313	-1.213259	-1.147084
C51	C	-0.440364	-1.218884	-1.052978
C52	C	-0.396223	-1.281668	-1.007093
C53	C	-0.392278	-1.287297	-0.912986
C54	C	-0.476605	-1.167357	-0.910659
C55	C	-0.480554	-1.161732	-1.004765
C56	C	-0.408516	-1.264242	-0.295461
C57	C	-0.404121	-1.270417	-0.195305
H58	H	-0.488082	-0.897878	-0.617570
N59	N	-0.519962	-1.105714	-0.858659
H60	H	-0.510765	-1.118805	-0.792080
H61	H	-0.506669	-1.041327	-0.870683
N62	N	-0.308441	-1.406543	-1.005805
H63	H	-0.258293	-1.394582	-1.018766
H64	H	-0.312105	-1.401395	-0.938893
H65	H	-0.685124	-1.124312	-0.641491
H66	H	-1.016830	-1.163103	-0.607209
N67	N	-0.491918	-1.145535	-1.196563
H68	H	-0.477259	-1.083090	-1.175751
H69	H	-0.488306	-1.150706	-1.263485
N70	N	-0.528145	-1.094001	-1.054255
H71	H	-0.524545	-1.099103	-1.121187
H72	H	-0.578269	-1.106000	-1.041220
H73	H	-1.150966	-1.376212	-0.417701
H74	H	-0.316134	-0.919811	-0.400442
H75	H	-0.528782	-0.751369	-0.668969
H76	H	-1.149863	-1.155481	-0.614095
N77	N	-0.335639	-0.592627	-0.425066
H78	H	-0.344550	-0.612141	-0.362200
H79	H	-0.286880	-0.611022	-0.437647
N80	N	-0.532628	-0.567502	-0.673835
H81	H	-0.564735	-0.607548	-0.714377
H82	H	-0.561686	-0.528951	-0.636412
N83	N	-0.294949	-0.739122	-0.373663
H84	H	-0.262142	-0.699963	-0.406336
H85	H	-0.319901	-0.701156	-0.331001
N86	N	-0.676610	-1.361684	-0.430300
H87	H	-0.711159	-1.398254	-0.397795
H88	H	-0.649667	-1.402701	-0.467942
N89	N	-0.827766	-1.100045	-0.663171
H90	H	-0.861648	-1.132206	-0.708725
H91	H	-0.854663	-1.058982	-0.625519
N92	N	-0.829034	-1.352948	-0.438186
H93	H	-0.794870	-1.393452	-0.402123
H94	H	-0.856005	-1.317227	-0.395833
N95	N	-1.008310	-1.400487	-0.396035
H96	H	-1.042857	-1.437063	-0.363532
H97	H	-0.981373	-1.441498	-0.433691
N98	N	-0.896385	-1.346042	-0.444383
H99	H	-0.905807	-1.335283	-0.379812
H100	H	-0.912762	-1.408501	-0.463023
H101	H	-0.930097	-1.171121	-0.600008
N102	N	-0.316640	-1.394846	-1.201414
H103	H	-0.325839	-1.381758	-1.267993
H104	H	-0.265139	-1.384802	-1.181561
N105	N	-0.344677	-1.355015	-0.863490
H106	H	-0.294532	-1.343041	-0.876457
H107	H	-0.348338	-1.349874	-0.796577
