data_functionalizedCrystal
_audit_creation_method	'MofGen! by Chris Wilmer'
_symmetry_space_group_name_H-M	'P1'
_symmetry_Int_Tables_number	1
_symmetry_cell_setting	triclinic
loop_
_symmetry_equiv_pos_as_xyz
  x,y,z
_cell_length_a	12.759401
_cell_length_b	19.076808
_cell_length_c	12.759393
_cell_angle_alpha	87.664746
_cell_angle_beta	89.978838
_cell_angle_gamma	92.325175
loop_
_atom_site_label
_atom_site_type_symbol
_atom_site_fract_x
_atom_site_fract_y
_atom_site_fract_z
Zn1	Zn	1.589376	-0.280144	-0.577214
Zn2	Zn	2.089376	0.219856	-0.077214
Zn3	Zn	1.582177	-0.397868	-0.394456
Zn4	Zn	2.082177	0.102132	0.105544
Zn5	Zn	1.413676	-0.280184	-0.401542
Zn6	Zn	1.913676	0.219816	0.098458
Zn7	Zn	1.406577	-0.397817	-0.570092
Zn8	Zn	1.906577	0.102183	-0.070092
O9	O	1.497951	-0.339003	-0.485826
O10	O	1.997951	0.160997	0.014174
O11	O	1.735442	-0.295765	-0.552985
O12	O	2.235442	0.204235	-0.052985
O13	O	1.559783	-0.382295	-0.248373
O14	O	2.059783	0.117705	0.251627
O15	O	1.442966	-0.181682	-0.430791
O16	O	1.942966	0.318318	0.069209
O17	O	1.730153	-0.382256	-0.418714
O18	O	2.230153	0.117744	0.081286
O19	O	1.572053	-0.181653	-0.559856
O20	O	2.072053	0.318347	-0.059856
O21	O	1.435986	-0.295833	-0.253579
O22	O	1.935986	0.204167	0.246421
O23	O	1.265713	-0.295784	-0.423886
O24	O	1.765713	0.204216	0.076114
O25	O	1.430867	-0.382169	-0.718060
O26	O	1.930867	0.117831	-0.218060
O27	O	1.260498	-0.382208	-0.547719
O28	O	1.760498	0.117792	-0.047719
O29	O	1.565169	-0.295716	-0.723292
O30	O	2.065169	0.204284	-0.223292
O31	O	1.552900	-0.496358	-0.411809
O32	O	2.052900	0.003642	0.088191
O33	O	1.423887	-0.496321	-0.540848
O34	O	1.923887	0.003679	-0.040848
C35	C	1.224985	-0.338995	-0.485800
C36	C	1.724985	0.161005	0.014200
C37	C	1.108207	-0.339009	-0.485812
C38	C	1.608207	0.160991	0.014188
C39	C	0.940928	-0.384078	-0.550218
C40	C	1.440928	0.115922	-0.050218
C41	C	1.050652	-0.384077	-0.550189
C42	C	1.550652	0.115923	-0.050189
C43	C	1.056032	-0.293945	-0.421452
C44	C	1.556032	0.206055	0.078548
C45	C	0.946310	-0.293950	-0.421476
C46	C	1.446310	0.206050	0.078524
C47	C	0.937823	-0.436113	-0.624547
C48	C	1.437823	0.063887	-0.124547
C49	C	1.047547	-0.436112	-0.624518
C50	C	1.547547	0.063888	-0.124518
C51	C	1.486870	-0.521878	-0.474810
C52	C	1.986870	-0.021878	0.025190
C53	C	1.482226	-0.600113	-0.470132
C54	C	1.982226	-0.100113	0.029868
C55	C	1.547202	-0.636792	-0.535186
C56	C	2.047202	-0.136792	-0.035186
C57	C	1.542834	-0.710302	-0.530792
C58	C	2.042834	-0.210302	-0.030792
C59	C	1.473494	-0.747132	-0.461339
C60	C	1.973494	-0.247132	0.038661
C61	C	1.408511	-0.710447	-0.396282
C62	C	1.908511	-0.210447	0.103718
C63	C	1.412875	-0.636939	-0.400682
C64	C	1.912875	-0.136939	0.099318
C65	C	1.453237	-0.966987	-0.440974
C66	C	1.953237	-0.466987	0.059026
C67	C	1.448881	-1.040500	-0.436578
C68	C	1.948881	-0.540500	0.063422
C69	C	1.583203	-1.040350	-0.571089
C70	C	2.083203	-0.540350	-0.071089
C71	C	1.587565	-0.966840	-0.575478
C72	C	2.087565	-0.466840	-0.075478
C73	C	1.522578	-0.930162	-0.510426
C74	C	2.022578	-0.430162	-0.010426
N75	N	1.469030	-0.822270	-0.456844
N76	N	1.969030	-0.322270	0.043156
N77	N	1.527038	-0.855025	-0.514926
N78	N	2.027038	-0.355025	-0.014926
C79	C	1.771984	-0.339012	-0.485853
C80	C	2.271984	0.160988	0.014147
C81	C	1.888761	-0.339015	-0.485865
C82	C	2.388761	0.160985	0.014135
C83	C	1.498029	-0.338932	-0.759864
C84	C	1.998029	0.161068	-0.259864
C85	C	1.498062	-0.338902	-0.876642
C86	C	1.998062	0.161098	-0.376642
C87	C	1.509104	-0.155414	-0.496909
C88	C	2.009104	0.344586	0.003091
C89	C	1.513857	-0.077179	-0.501631
C90	C	2.013857	0.422821	-0.001631
C91	C	1.568003	-0.293881	-0.934231
C92	C	2.068003	0.206119	-0.434231
C93	C	1.568029	-0.293856	-1.043956
C94	C	2.068029	0.206144	-0.543956
C95	C	1.428172	-0.383878	-1.038495
C96	C	1.928172	0.116122	-0.538495
C97	C	1.428141	-0.383899	-0.928772
C98	C	1.928141	0.116101	-0.428772
C99	C	1.648752	-0.241910	-0.937384
C100	C	2.148752	0.258090	-0.437384
C101	C	1.648779	-0.241885	-1.047110
C102	C	2.148779	0.258115	-0.547110
C103	C	1.497937	-0.339023	-0.212858
C104	C	1.997937	0.160977	0.287142
C105	C	1.498120	-0.338855	-0.096092
C106	C	1.998120	0.161145	0.403908
H107	H	0.904733	-0.490612	-0.599349
H108	H	1.404733	0.009388	-0.099349
H109	H	1.078423	-0.487874	-0.592122
H110	H	1.578423	0.012126	-0.092122
O111	O	1.352654	-0.432420	-0.866656
O112	O	1.852654	0.067580	-0.366656
H113	H	1.304032	-0.463697	-0.921342
H114	H	1.804032	0.036303	-0.421342
H115	H	1.371242	-0.420511	-1.080953
H116	H	1.871242	0.079489	-0.580953
H117	H	1.400324	-0.937129	-0.388004
H118	H	1.900324	-0.437129	0.111996
O119	O	0.894355	-0.410331	-0.728553
O120	O	1.394355	0.089669	-0.228553
H121	H	0.848263	-0.363154	-0.716852
H122	H	1.348263	0.136846	-0.216852
O123	O	1.749552	-0.267779	-0.890740
O124	O	2.249552	0.232221	-0.390740
H125	H	1.760837	-0.322327	-0.914348
H126	H	2.260837	0.177673	-0.414348
O127	O	1.088238	-0.416841	-0.733490
O128	O	1.588238	0.083159	-0.233490
H129	H	1.056880	-0.455755	-0.789010
H130	H	1.556880	0.044245	-0.289010
O131	O	1.622000	-0.597069	-0.610087
O132	O	2.122000	-0.097069	-0.110087
H133	H	1.666443	-0.634927	-0.654588
H134	H	2.166443	-0.134927	-0.154588
O135	O	1.612915	-0.749866	-0.600955
O136	O	2.112915	-0.249866	-0.100955
H137	H	1.661874	-0.711906	-0.649980
H138	H	2.161874	-0.211906	-0.149980
H139	H	1.630268	-0.187400	-0.910904
H140	H	2.130268	0.312600	-0.410904
H141	H	1.622785	-0.190092	-1.084270
H142	H	2.122785	0.309908	-0.584270
H143	H	1.729270	-0.256483	-1.076014
H144	H	2.229270	0.243517	-0.576014
H145	H	1.102902	-0.257254	-0.369028
H146	H	1.602902	0.242746	0.130972
H147	H	0.903839	-0.257264	-0.369061
H148	H	1.403839	0.242736	0.130939
H149	H	1.392411	-1.070485	-0.380019
H150	H	1.892411	-0.570485	0.119981
O151	O	1.653284	-1.079913	-0.641254
O152	O	2.153284	-0.579913	-0.141254
H153	H	1.702237	-1.041953	-0.690283
H154	H	2.202237	-0.541953	-0.190283
O155	O	1.662386	-0.927116	-0.650354
O156	O	2.162386	-0.427116	-0.150354
H157	H	1.706844	-0.964971	-0.694846
H158	H	2.206844	-0.464971	-0.194846
H159	H	1.352049	-0.740440	-0.339736
H160	H	1.852049	-0.240440	0.160264
O161	O	1.342803	-0.597372	-0.330509
O162	O	1.842803	-0.097372	0.169491
H163	H	1.293862	-0.635330	-0.281465
H164	H	1.793862	-0.135330	0.218535
