data_functionalizedCrystal
_audit_creation_method	'MofGen! by Chris Wilmer'
_symmetry_space_group_name_H-M	'P1'
_symmetry_Int_Tables_number	1
_symmetry_cell_setting	triclinic
loop_
_symmetry_equiv_pos_as_xyz
  x,y,z
_cell_length_a	10.686285
_cell_length_b	12.759401
_cell_length_c	12.759393
_cell_angle_alpha	90.022017
_cell_angle_beta	85.603657
_cell_angle_gamma	94.367583
loop_
_atom_site_label
_atom_site_type_symbol
_atom_site_fract_x
_atom_site_fract_y
_atom_site_fract_z
Zn1	Zn	-0.502268	-1.638398	-0.562048
Zn2	Zn	-0.713305	-1.651793	-0.372916
Zn3	Zn	-0.502330	-1.462702	-0.386375
Zn4	Zn	-0.713216	-1.476185	-0.548554
O5	O	-0.607780	-1.557270	-0.467473
O6	O	-0.530274	-1.787196	-0.536974
O7	O	-0.685382	-1.626673	-0.227676
O8	O	-0.325746	-1.474760	-0.420958
O9	O	-0.685321	-1.797038	-0.398020
O10	O	-0.325700	-1.603843	-0.550024
O11	O	-0.530380	-1.487748	-0.237564
O12	O	-0.530294	-1.317469	-0.407873
O13	O	-0.685171	-1.497740	-0.697370
O14	O	-0.685231	-1.327375	-0.527026
O15	O	-0.530188	-1.616917	-0.707283
O16	O	-0.889869	-1.639747	-0.384936
O17	O	-0.889804	-1.510729	-0.513976
C18	C	-0.607761	-1.284301	-0.467446
C19	C	-0.607783	-1.167526	-0.467458
C20	C	-0.935621	-1.578183	-0.446554
C21	C	-1.075873	-1.587226	-0.437640
C22	C	-0.688580	-1.117857	-0.529386
C23	C	-0.688584	-1.008133	-0.529403
C24	C	-0.526988	-0.997756	-0.405556
C25	C	-0.526979	-1.107477	-0.405545
C26	C	-0.278659	-1.536303	-0.488497
C27	C	-0.138407	-1.527368	-0.497456
C28	C	-0.607662	-1.557338	-0.741514
C29	C	-0.607612	-1.557368	-0.858294
C30	C	-0.607797	-0.831304	-0.467494
C31	C	-0.607794	-0.948080	-0.467487
C32	C	-0.688228	-1.629727	-1.017749
C33	C	-0.688288	-1.629706	-0.908021
C34	C	-0.526881	-1.485040	-0.918301
C35	C	-0.526829	-1.485058	-1.028026
C36	C	-0.607806	-1.557256	-0.194504
C37	C	-0.607501	-1.557407	-0.077748
H38	H	-0.754373	-1.166745	-0.579802
H39	H	-1.084649	-1.469203	-0.555489
Cl40	Cl	-1.158874	-1.677023	-0.348023
Cl41	Cl	-0.790160	-0.945698	-0.607261
Cl42	Cl	-0.789648	-1.720678	-1.080252
H43	H	-0.754024	-1.688596	-0.859175
H44	H	-0.461199	-1.426137	-0.877804
Cl45	Cl	-0.425353	-1.394118	-1.103457
H46	H	-0.461202	-0.948852	-0.355148
H47	H	-0.461176	-1.147918	-0.355116
