data_functionalizedCrystal
_audit_creation_method	'MofGen! by Chris Wilmer'
_symmetry_space_group_name_H-M	'P1'
_symmetry_Int_Tables_number	1
_symmetry_cell_setting	triclinic
loop_
_symmetry_equiv_pos_as_xyz
  x,y,z
_cell_length_a	21.295417
_cell_length_b	19.077267
_cell_length_c	19.076919
_cell_angle_alpha	85.333063
_cell_angle_beta	92.266620
_cell_angle_gamma	92.268319
loop_
_atom_site_label
_atom_site_type_symbol
_atom_site_fract_x
_atom_site_fract_y
_atom_site_fract_z
Zn1	Zn	-0.301557	-1.061619	-0.355285
Zn2	Zn	-0.402757	-1.066262	-0.237396
Zn3	Zn	-0.293441	-0.948477	-0.242149
Zn4	Zn	-0.402721	-0.943693	-0.359974
O5	O	-0.350119	-1.005013	-0.298701
O6	O	-0.318392	-1.160881	-0.335695
O7	O	-0.384875	-1.054583	-0.139379
O8	O	-0.206432	-0.963545	-0.257184
O9	O	-0.392744	-1.164292	-0.249083
O10	O	-0.212394	-1.046669	-0.340304
O11	O	-0.304561	-0.968047	-0.142871
O12	O	-0.304526	-0.849197	-0.261730
O13	O	-0.392683	-0.955391	-0.457999
O14	O	-0.384813	-0.845682	-0.348296
O15	O	-0.318358	-1.042031	-0.454554
O16	O	-0.490838	-1.049944	-0.253629
O17	O	-0.490812	-0.959893	-0.343687
C18	C	-0.343786	-0.821862	-0.306038
C19	C	-0.341092	-0.743508	-0.309194
C20	C	-0.378470	-0.708473	-0.265514
C21	C	-0.375939	-0.634852	-0.268489
C22	C	-0.336028	-0.596266	-0.315139
C23	C	-0.298649	-0.631306	-0.358823
C24	C	-0.301183	-0.704926	-0.355852
C25	C	-0.324308	-0.375894	-0.328871
C26	C	-0.321775	-0.302268	-0.331838
C27	C	-0.399067	-0.305819	-0.241504
C28	C	-0.401595	-0.379441	-0.238534
C29	C	-0.364218	-0.414474	-0.282220
N30	N	-0.333439	-0.521013	-0.318179
N31	N	-0.366811	-0.489726	-0.279184
C32	C	-0.513666	-1.004922	-0.298666
C33	C	-0.583635	-1.004947	-0.298672
C34	C	-0.616498	-1.051874	-0.251823
C35	C	-0.682242	-1.051907	-0.251838
C36	C	-0.715120	-1.004999	-0.298694
C37	C	-0.682250	-0.958068	-0.345551
C38	C	-0.616508	-0.958042	-0.345540
N39	N	-0.816443	-0.943117	-0.306538
N40	N	-0.878896	-0.943144	-0.306544
C41	C	-0.913199	-1.005077	-0.298731
N42	N	-0.882690	-1.066983	-0.290897
N43	N	-0.820232	-1.066956	-0.290887
C44	C	-0.786407	-1.005023	-0.298711
C45	C	-1.017349	-1.052043	-0.251896
C46	C	-1.083095	-1.052077	-0.251915
C47	C	-1.083101	-0.958232	-0.345625
C48	C	-1.017357	-0.958205	-0.345609
C49	C	-0.984485	-1.005109	-0.298741
C50	C	-0.185934	-1.005123	-0.298751
C51	C	-0.115969	-1.005169	-0.298772
C52	C	-0.356421	-0.997659	-0.482570
C53	C	-0.359107	-0.994526	-0.560924
C54	C	-0.356469	-0.188880	-0.291326
C55	C	-0.359152	-0.267234	-0.288159
C56	C	-0.321674	-1.038160	-0.595943
C57	C	-0.324194	-1.035207	-0.669565
C58	C	-0.364152	-0.988623	-0.708167
C59	C	-0.401587	-0.944984	-0.673144
C60	C	-0.399063	-0.947934	-0.599523
C61	C	-0.375849	-0.974960	-0.928542
C62	C	-0.378372	-0.972015	-1.002168
C63	C	-0.300978	-1.062237	-0.998584
C64	C	-0.298460	-1.065186	-0.924962
C65	C	-0.335892	-1.021544	-0.889945
N66	N	-0.366732	-0.985605	-0.783421
N67	N	-0.333310	-1.024559	-0.814693
C68	C	-0.343797	-1.012378	-0.115546
C69	C	-0.340939	-1.015649	-0.037187
H70	H	-0.289269	-0.270854	-0.369824
N71	N	-0.442357	-0.418861	-0.190880
N72	N	-0.420019	-0.461733	-0.144348
H73	H	-0.448806	-0.489574	-0.110689
H74	H	-0.709004	-1.090123	-0.213688
H75	H	-1.109850	-1.090295	-0.213767
H76	H	-0.429497	-0.277287	-0.205938
N77	N	-0.582938	-0.910111	-0.393405
N78	N	-0.592637	-0.912140	-0.458272
H79	H	-0.568927	-0.878288	-0.492078
H80	H	-0.429539	-0.912395	-0.571012
N81	N	-0.983758	-1.099965	-0.204045
N82	N	-0.925060	-1.099938	-0.204043
H83	H	-0.901336	-1.133785	-0.170251
H84	H	-0.293874	-0.404409	-0.364445
N85	N	-1.116688	-0.910325	-0.393488
N86	N	-1.175386	-0.910355	-0.393494
H87	H	-1.199110	-0.876521	-0.427300
N88	N	-0.983795	-0.910263	-0.393468
N89	N	-1.013156	-0.868386	-0.435304
H90	H	-0.989453	-0.834526	-0.469108
H91	H	-0.265924	-1.103121	-0.893537
H92	H	-0.289138	-1.076096	-0.564518
N93	N	-0.285953	-1.079783	-0.705324
N94	N	-0.250282	-1.121376	-0.670850
H95	H	-0.223272	-1.152861	-0.696104
N96	N	-0.414079	-0.930374	-0.892785
N97	N	-0.407933	-0.865002	-0.903619
H98	H	-0.434935	-0.833509	-0.878365
H99	H	-0.270502	-1.097766	-1.027103
N100	N	-0.414114	-0.599050	-0.223877
N101	N	-0.453694	-0.556967	-0.250251
H102	H	-0.480656	-0.531679	-0.218743
N103	N	-0.442395	-0.897397	-0.712583
N104	N	-0.444645	-0.894769	-0.778315
H105	H	-0.473467	-0.861161	-0.806170
H106	H	-0.266155	-0.599883	-0.396810
H107	H	-0.270746	-0.733450	-0.391420
H108	H	-0.410912	-0.934078	-1.033596
N109	N	-0.582929	-1.099780	-0.203936
N110	N	-0.587924	-1.097750	-0.139074
H111	H	-0.564218	-1.131583	-0.105250
N112	N	-0.419236	-0.747874	-0.217851
N113	N	-0.452605	-0.716580	-0.178855
H114	H	-0.481398	-0.744404	-0.145191
H115	H	-0.709024	-0.919877	-0.383703
