data_functionalizedCrystal
_audit_creation_method	'MofGen! by Chris Wilmer'
_symmetry_space_group_name_H-M	'P1'
_symmetry_Int_Tables_number	1
_symmetry_cell_setting	triclinic
loop_
_symmetry_equiv_pos_as_xyz
  x,y,z
_cell_length_a	6.394989
_cell_length_b	10.654550
_cell_length_c	9.730223
_cell_angle_alpha	90.000043
_cell_angle_beta	90.001437
_cell_angle_gamma	85.491321
loop_
_atom_site_label
_atom_site_type_symbol
_atom_site_fract_x
_atom_site_fract_y
_atom_site_fract_z
O1	O	-0.293441	-1.670947	-0.114177
O2	O	-0.321399	-1.305765	-0.114202
O3	O	-0.003431	-1.493539	-0.114190
O4	O	-0.611409	-1.483172	-0.114189
O5	O	-0.003422	-1.493527	0.114390
O6	O	-0.321390	-1.305752	0.114378
O7	O	-0.293433	-1.670934	0.114403
Zn8	Zn	-0.307410	-1.488341	0.150682
Zn9	Zn	-0.307421	-1.488358	-0.150482
O10	O	-0.611400	-1.483160	0.114391
C11	C	-0.319341	-1.258939	0.000085
C12	C	-0.313200	-1.119430	0.000075
C13	C	-0.295490	-1.717760	0.000113
C14	C	-0.301631	-1.857269	0.000113
N15	N	-0.307401	-1.488339	0.356219
C16	C	0.074425	-1.491483	0.000094
C17	C	0.310750	-1.485219	0.000093
N18	N	-0.307414	-1.488369	-0.356018
C19	C	-0.500414	-1.041927	0.000080
C20	C	-0.494631	-0.910845	0.000104
C21	C	-0.114403	-0.934782	0.000113
C22	C	-0.120188	-1.065861	0.000099
C23	C	-0.166665	-1.571516	0.428150
C24	C	-0.166665	-1.571528	0.572033
C25	C	-0.448157	-1.405184	0.572041
C26	C	-0.448144	-1.405166	0.428161
H27	H	-0.657577	-1.085539	0.000071
H28	H	-0.052060	-1.639238	0.369578
C29	C	-0.011864	-1.663027	0.651151
H30	H	0.071943	-1.712561	0.587694
H31	H	0.075811	-1.616483	0.707290
H32	H	-0.087853	-1.716508	0.707266
H33	H	-0.562749	-1.337428	0.369590
C34	C	-0.700561	-0.825592	0.000102
H35	H	-0.669481	-0.739852	0.000127
H36	H	-0.779618	-0.842148	-0.079615
H37	H	-0.779623	-0.842168	0.079816
C38	C	0.085752	-1.151125	0.000093
H39	H	0.054658	-1.236863	0.000096
H40	H	0.164821	-1.134559	-0.079613
H41	H	0.164807	-1.134569	0.079819
C42	C	-0.602981	-1.313714	0.651181
H43	H	-0.582850	-1.325645	0.747174
H44	H	-0.578999	-1.229522	0.627620
H45	H	-0.742632	-1.329564	0.627586
H46	H	0.042741	-0.891149	0.000141
