data_functionalizedCrystal
_audit_creation_method	'MofGen! by Chris Wilmer'
_symmetry_space_group_name_H-M	'P1'
_symmetry_Int_Tables_number	1
_symmetry_cell_setting	triclinic
loop_
_symmetry_equiv_pos_as_xyz
  x,y,z
_cell_length_a	10.654562
_cell_length_b	10.654550
_cell_length_c	9.130313
_cell_angle_alpha	89.999890
_cell_angle_beta	89.996930
_cell_angle_gamma	84.487503
loop_
_atom_site_label
_atom_site_type_symbol
_atom_site_fract_x
_atom_site_fract_y
_atom_site_fract_z
O1	O	1.667825	0.176469	-0.121892
O2	O	1.302348	0.193259	-0.121873
O3	O	1.493490	0.002125	-0.121877
O4	O	1.476683	0.367603	-0.121887
O5	O	1.493487	0.002130	0.121721
O6	O	1.302346	0.193264	0.121726
O7	O	1.667822	0.176474	0.121707
Cu8	Cu	1.485084	0.184869	0.143959
Cu9	Cu	1.485087	0.184863	-0.144125
O10	O	1.476681	0.367608	0.121711
C11	C	1.255549	0.192025	-0.000071
C12	C	1.116107	0.188327	-0.000064
C13	C	1.050575	0.186605	0.132710
C14	C	0.919553	0.183140	0.132686
C15	C	0.919605	0.183125	-0.132899
C16	C	1.050626	0.186580	-0.132873
C17	C	1.050543	0.186619	0.286044
C18	C	0.919521	0.183154	0.286019
C19	C	1.492254	-0.044671	-0.000080
C20	C	1.488563	-0.184114	-0.000085
C21	C	1.601103	-0.263595	-0.000086
C22	C	1.597627	-0.394615	-0.000096
C23	C	1.369059	-0.366662	-0.000097
C24	C	1.372537	-0.235644	-0.000098
C25	C	1.733066	-0.279734	-0.000079
C26	C	1.729589	-0.410755	-0.000089
C27	C	1.714621	0.177708	-0.000098
C28	C	1.854064	0.181406	-0.000115
C29	C	1.477916	0.414403	-0.000090
C30	C	1.481608	0.553847	-0.000094
N31	N	1.485091	0.184873	0.346582
N32	N	1.485089	0.184850	-0.346748
C33	C	1.569750	0.100268	0.423232
C34	C	1.569747	0.100253	0.576568
C35	C	1.400421	0.269459	0.576592
C36	C	1.400419	0.269467	0.423258
C37	C	1.667513	0.002582	0.423219
C38	C	1.667510	0.002567	0.576556
H39	H	0.866275	0.181703	-0.241027
H40	H	1.769471	-0.456398	-0.105270
H41	H	1.646070	-0.093952	0.381603
C42	C	1.276378	-0.022393	-0.000133
C43	C	1.248830	-0.148276	-0.000124
H44	H	1.200002	0.031542	-0.000161
H45	H	1.323878	-0.006664	0.084819
H46	H	1.323922	-0.006683	-0.085079
H47	H	1.201293	-0.163988	0.084828
H48	H	1.201309	-0.164011	-0.085084
H49	H	1.274594	-0.408635	-0.000109
H50	H	1.331472	0.338348	0.360850
C51	C	1.328531	0.486185	0.623820
C52	C	1.307352	0.362446	0.660873
H53	H	1.271065	0.543590	0.675843
H54	H	1.412450	0.500605	0.648961
H55	H	1.316418	0.498283	0.521526
H56	H	1.319474	0.350345	0.763166
H57	H	1.223413	0.348021	0.635741
C58	C	1.077851	0.295386	-0.359253
C59	C	1.122662	0.188460	-0.278823
H60	H	1.122329	0.296546	-0.449356
H61	H	0.990459	0.293071	-0.378268
H62	H	1.090395	0.369061	-0.304689
H63	H	1.110109	0.114785	-0.333383
H64	H	1.210074	0.190764	-0.259812
C65	C	1.871450	0.070978	0.473207
C66	C	1.790607	0.043869	0.358995
H67	H	1.947443	0.096461	0.433553
H68	H	1.831791	0.137010	0.531758
H69	H	1.889957	-0.002163	0.531754
H70	H	1.772092	0.117013	0.300453
H71	H	1.830273	-0.022168	0.300419
C72	C	0.775213	0.370128	0.269452
C73	C	0.856907	0.300161	0.365680
H74	H	0.736521	0.442306	0.318698
H75	H	0.821572	0.396041	0.187798
H76	H	0.712130	0.319490	0.236619
H77	H	0.919996	0.350797	0.398504
H78	H	0.810546	0.274250	0.447360
C79	C	1.841501	-0.347086	-0.221172
C80	C	1.802731	-0.240087	-0.137697
H81	H	1.884500	-0.322605	-0.306134
H82	H	1.896459	-0.403346	-0.164538
H83	H	1.769830	-0.387861	-0.249477
H84	H	1.874403	-0.199317	-0.109383
H85	H	1.747770	-0.183806	-0.194343
C86	C	1.898448	-0.552619	0.095782
C87	C	1.796681	-0.467141	0.137534
H88	H	1.939862	-0.587423	0.180746
H89	H	1.868471	-0.618300	0.039139
H90	H	1.956039	-0.510095	0.039163
H91	H	1.739085	-0.509667	0.194144
H92	H	1.826657	-0.401449	0.194201
H93	H	1.775086	-0.244103	0.105100
C94	C	1.599353	-0.201471	0.526542
C95	C	1.626375	-0.120599	0.640764
H96	H	1.573978	-0.277512	0.566186
H97	H	1.533267	-0.161884	0.468019
H98	H	1.672497	-0.219878	0.467969
H99	H	1.553227	-0.102184	0.699331
H100	H	1.692466	-0.160193	0.699312
H101	H	1.096802	0.099826	0.344929
H102	H	1.764021	0.024090	0.618167
H103	H	1.080117	0.278215	0.333618
H104	H	0.889932	0.091561	0.333601
