data_functionalizedCrystal
_audit_creation_method	'MofGen! by Chris Wilmer'
_symmetry_space_group_name_H-M	'P1'
_symmetry_Int_Tables_number	1
_symmetry_cell_setting	triclinic
loop_
_symmetry_equiv_pos_as_xyz
  x,y,z
_cell_length_a	19.902436
_cell_length_b	20.875641
_cell_length_c	20.875641
_cell_angle_alpha	89.846015
_cell_angle_beta	57.592218
_cell_angle_gamma	57.585360
loop_
_atom_site_label
_atom_site_type_symbol
_atom_site_fract_x
_atom_site_fract_y
_atom_site_fract_z
Zr1	Zr	0.691206	-0.063117	0.639085
O2	O	0.848382	-0.173664	0.528552
O3	O	0.545815	-0.029219	0.672968
O4	O	0.697099	-0.168353	0.667669
O5	O	0.688340	0.075210	0.538033
O6	O	0.688341	-0.164174	0.777408
O7	O	0.697098	-0.034531	0.533851
O8	O	0.417721	0.084711	0.786887
O9	O	0.958959	-0.173675	0.528554
O10	O	0.594715	-0.011655	0.769318
O11	O	0.594715	0.067125	0.690541
O12	O	0.772832	-0.096687	0.684302
O13	O	0.772832	-0.017908	0.605526
Zr14	Zr	0.663269	0.118571	0.820777
Zr15	Zr	0.677238	-0.056452	0.814107
Zr16	Zr	0.677237	0.111906	0.645755
Zr17	Zr	0.867563	-0.063134	0.639088
Zr18	Zr	0.486912	0.118588	0.820774
O19	O	0.808660	0.084674	0.786894
O20	O	0.828522	-0.164187	0.777411
O21	O	0.828521	0.075196	0.538036
O22	O	0.506093	0.229119	0.931310
O23	O	0.525954	-0.019742	0.921826
O24	O	0.525954	0.219641	0.682451
O25	O	0.666135	-0.019756	0.921829
O26	O	0.657377	0.223807	0.792193
O27	O	0.666134	0.219628	0.682454
O28	O	0.657377	0.089985	0.926011
O29	O	0.947857	-0.168377	0.667673
O30	O	0.406618	0.223831	0.792189
O31	O	0.395516	0.229129	0.931308
O32	O	0.406619	0.090009	0.926006
O33	O	0.947856	-0.034555	0.533855
O34	O	0.936754	-0.029257	0.672974
O35	O	0.581643	0.152141	0.775560
O36	O	0.581643	0.073362	0.854336
O37	O	0.759760	-0.011670	0.769321
O38	O	0.759760	0.067109	0.690544
C39	C	0.456641	0.027748	0.729927
C40	C	0.381772	0.027755	0.729926
C41	C	0.694709	0.019390	0.511005
C42	C	0.700639	0.016560	0.436704
C43	C	0.659765	0.246655	0.738274
C44	C	0.653835	0.320957	0.741105
C45	C	0.109765	0.027717	0.729933
C46	C	0.137963	0.077672	0.680498
C47	C	0.216121	0.077448	0.680212
C48	C	0.244710	0.027737	0.729929
C49	C	0.290384	-0.062697	0.688860
C50	C	0.212555	-0.062438	0.688484
C51	C	0.065235	0.067483	0.820434
C52	C	0.142153	0.069290	0.820373
C53	C	0.320979	0.027743	0.729928
C54	C	0.033502	0.027705	0.729931
C55	C	0.897834	0.027706	0.729935
C56	C	0.972703	0.027699	0.729936
C57	C	0.694710	-0.191201	0.721588
C58	C	0.700640	-0.265503	0.718757
C59	C	0.744022	0.311480	0.698060
C60	C	0.738445	0.381297	0.700717
C61	C	0.642679	0.460591	0.746425
C62	C	0.552486	0.470066	0.789471
C63	C	0.558064	0.400249	0.786809
C64	C	0.616025	0.674156	0.759141
C65	C	0.610453	0.743974	0.761802
C66	C	0.796413	0.655200	0.673046
C67	C	0.801983	0.585387	0.670392
C68	C	0.711790	0.594867	0.713435
N69	N	0.636976	0.531956	0.749144
N70	N	0.717495	0.523502	0.710711
C71	C	0.610452	0.059613	0.446172
C72	C	0.616030	0.056952	0.376355
C73	C	0.711796	0.011234	0.297071
C74	C	0.801989	-0.031820	0.287604
C75	C	0.796410	-0.029154	0.357421
C76	C	0.738451	-0.001494	0.083508
C77	C	0.744023	-0.004159	0.013690
C78	C	0.558063	0.084615	0.102446
C79	C	0.552493	0.087273	0.172259
C80	C	0.642686	0.044223	0.162787
N81	N	0.717499	0.008511	0.225705
N82	N	0.636981	0.046951	0.234152
C83	C	0.659766	0.036064	0.948857
C84	C	0.653836	0.038894	1.023158
C85	C	0.439169	0.036085	0.948853
C86	C	0.358371	0.038922	1.023153
C87	C	0.439169	0.246676	0.738270
C88	C	0.358370	0.320985	0.741100
C89	C	0.421697	0.255013	0.957196
C90	C	0.334969	0.332152	1.034327
C91	C	0.932778	-0.199559	0.502666
C92	C	1.019506	-0.276698	0.425535
C93	C	0.915306	0.019369	0.511009
C94	C	0.996104	0.016532	0.436709
C95	C	0.915307	-0.191222	0.721592
C96	C	0.996105	-0.265531	0.718762
C97	C	0.327251	-0.004131	1.013666
C98	C	0.251344	-0.001482	1.083472
C99	C	0.206553	0.044225	1.162763
C100	C	0.237680	0.087279	1.172249
C101	C	0.313591	0.084625	1.102444
C102	C	0.313602	0.400267	0.786808
C103	C	0.237693	0.470094	0.789465
C104	C	0.206548	0.460639	0.746417
C105	C	0.251324	0.381349	0.700704
C106	C	0.327237	0.311523	0.698043
C107	C	0.294240	0.327255	1.111677
C108	C	0.212759	0.399729	1.184157
C109	C	0.172004	0.477098	1.179285
C110	C	0.212741	0.481993	1.101927
C111	C	0.294225	0.409520	1.029449
C112	C	1.060244	-0.271801	0.348185
C113	C	1.141746	-0.344275	0.275705
C114	C	1.182505	-0.421644	0.280577
C115	C	1.141764	-0.426539	0.357935
C116	C	1.060268	-0.354066	0.430413
C117	C	1.027232	0.059578	0.446196
C118	C	1.103160	0.056910	0.376389
C119	C	1.147953	0.011200	0.297097
C120	C	1.116823	-0.031851	0.287612
C121	C	1.040902	-0.029187	0.357418
C122	C	1.027225	-0.256049	0.761818
C123	C	1.103132	-0.325863	0.759175
C124	C	1.147924	-0.405158	0.713470
C125	C	1.116797	-0.414639	0.670412
C126	C	1.040886	-0.344825	0.673061
H127	H	0.182228	0.143946	0.707982
H128	H	0.822011	-0.041392	-0.050869
H129	H	1.027063	-0.208810	0.344203
H130	H	1.128492	0.091971	0.384129
F131	F	0.085280	0.554224	1.256430
F132	F	1.136250	-0.315756	0.805002
F133	F	-0.033696	0.153410	0.864781
H134	H	1.174960	-0.489541	0.361892
F135	F	0.520033	0.684256	0.804952
H136	H	1.209735	-0.461998	0.711320
H137	H	1.153278	-0.479210	0.633200
H138	H	0.105929	0.135928	0.851019
H139	H	0.338917	0.119689	1.110180
H140	H	0.822005	0.246919	0.660843
F141	F	0.508524	0.108268	0.530549
F142	F	0.125761	0.047043	1.237049
H143	H	1.174904	-0.340273	0.212725
F144	F	1.269240	-0.498770	0.203432
F145	F	0.834437	0.371205	0.654878
H146	H	0.327376	0.413518	0.966471
F147	F	0.169355	0.564342	1.096755
F148	F	1.007782	-0.354930	0.627224
F149	F	0.044177	0.164807	0.716640
F150	F	0.834443	-0.047314	0.073417
H151	H	0.201200	0.124493	1.236817
F152	F	1.016915	-0.359290	0.512732
H153	H	0.157148	0.036992	0.860615
H154	H	0.990765	0.096805	0.510753
H155	H	0.144734	0.517503	0.748591
H156	H	1.209772	0.009038	0.240264
H157	H	0.171133	0.050179	0.614199
H158	H	0.542590	0.092012	0.384071
F159	F	0.218166	0.371299	0.654893
F160	F	1.007777	-0.075001	0.347308
F161	F	0.309868	0.041207	0.593037
H162	H	0.201245	0.534649	0.826692
F163	F	0.374871	0.227147	0.649396
H164	H	0.327411	0.264264	1.115659
F165	F	0.450566	0.135933	0.256637
H166	H	0.990766	-0.191489	0.799036
F167	F	0.462080	0.130432	0.112519
H168	H	0.249655	-0.094053	0.621798
F169	F	0.903910	-0.080472	0.203222
H170	H	0.197066	-0.101885	0.721958
H171	H	0.311652	-0.101693	0.722971
H172	H	1.153306	-0.069067	0.223044
F173	F	0.169416	0.394502	1.266478
H174	H	0.363721	-0.041361	0.949108
F175	F	0.387796	-0.104253	0.602506
H176	H	0.474512	0.534633	0.826683
H177	H	0.879965	0.520826	0.633173
F178	F	0.040501	0.020212	0.868864
H179	H	0.869843	0.647491	0.638002
H180	H	0.532465	0.808540	0.799022
H181	H	0.869849	-0.064202	0.349707
F182	F	0.462075	0.410338	0.832621
F183	F	0.218228	-0.047306	1.073359
F184	F	0.346732	0.410349	0.832632
