data_functionalizedCrystal
_audit_creation_method	'MofGen! by Chris Wilmer'
_symmetry_space_group_name_H-M	'P1'
_symmetry_Int_Tables_number	1
_symmetry_cell_setting	triclinic
loop_
_symmetry_equiv_pos_as_xyz
  x,y,z
_cell_length_a	17.640280
_cell_length_b	13.032831
_cell_length_c	17.638773
_cell_angle_alpha	73.303292
_cell_angle_beta	87.825548
_cell_angle_gamma	70.377065
loop_
_atom_site_label
_atom_site_type_symbol
_atom_site_fract_x
_atom_site_fract_y
_atom_site_fract_z
Zn1	Zn	0.599452	-1.893581	0.507456
Zn2	Zn	0.699152	-1.879067	0.353755
Zn3	Zn	0.548618	-1.666848	0.363816
Zn4	Zn	0.709139	-1.738218	0.470368
O5	O	0.639090	-1.794428	0.423849
O6	O	0.629773	-2.045490	0.498379
O7	O	0.653730	-1.814973	0.246172
O8	O	0.446459	-1.673130	0.402602
O9	O	0.703021	-2.034827	0.385455
O10	O	0.483806	-1.839710	0.508134
O11	O	0.543133	-1.659057	0.253564
O12	O	0.552817	-1.522481	0.366639
O13	O	0.720043	-1.794769	0.584205
O14	O	0.670751	-1.574916	0.444923
O15	O	0.639456	-1.908914	0.611454
O16	O	0.809380	-1.884177	0.349492
O17	O	0.816717	-1.780696	0.435167
C18	C	0.607352	-1.508811	0.402849
C19	C	0.593797	-1.386633	0.393880
C20	C	0.841293	-1.838642	0.387232
C21	C	0.927814	-1.857665	0.371601
C22	C	0.436105	-1.750078	0.460627
C23	C	0.349605	-1.731179	0.476300
C24	C	1.231506	-1.650451	0.542914
C25	C	1.312799	-1.668321	0.528201
C26	C	1.305127	-1.776197	0.439094
C27	C	1.223832	-1.758341	0.453802
C28	C	1.187028	-1.695466	0.505712
C29	C	1.179354	-1.803355	0.416601
C30	C	1.098065	-1.785496	0.431305
C31	C	1.061254	-1.722621	0.483210
C32	C	1.105739	-1.677606	0.520416
C33	C	1.216158	-1.866223	0.364687
C34	C	1.171680	-1.911238	0.327485
C35	C	1.090391	-1.893385	0.342193
C36	C	1.053580	-1.830510	0.394099
C37	C	1.045907	-1.938400	0.304988
C38	C	0.964618	-1.920540	0.319692
C39	C	0.972292	-1.812651	0.408803
C40	C	0.686534	-1.861422	0.626860
C41	C	0.706752	-1.889970	0.713372
C42	C	0.670953	-2.081161	0.444931
C43	C	0.684531	-2.203350	0.453916
C44	C	0.646165	-1.358127	0.428530
C45	C	0.632157	-1.231850	0.419261
C46	C	0.591782	-1.727747	0.221642
C47	C	0.571369	-1.699363	0.135186
C48	C	0.792823	-2.011379	0.831459
C49	C	0.773819	-1.984543	0.750169
C50	C	0.658659	-1.822198	0.757858
C51	C	0.677651	-1.849023	0.839151
C52	C	0.744734	-1.943614	0.875945
C53	C	0.629562	-1.781259	0.883638
C54	C	0.648555	-1.808079	0.964923
C55	C	0.715637	-1.902663	1.001722
C56	C	0.763728	-1.970434	0.957231
C57	C	0.562482	-1.686664	0.846841
C58	C	0.514393	-1.618899	0.891327
C59	C	0.533383	-1.645723	0.972615
C60	C	0.600465	-1.740308	1.009415
C61	C	0.485292	-1.577952	1.017107
C62	C	0.504286	-1.604772	1.098392
C63	C	0.619458	-1.767128	1.090700
H64	H	0.942327	-1.761462	0.451079
H65	H	1.201541	-1.599262	0.585190
H66	H	1.282350	-1.880766	0.352719
H67	H	1.349015	-1.631676	0.558509
H68	H	0.430678	-1.500930	0.987136
H69	H	0.538591	-1.317552	0.357356
H70	H	0.604041	-1.745180	0.727889
O71	O	0.541994	-1.657741	0.759169
H72	H	0.480753	-1.660053	0.750010
H73	H	0.465125	-1.549594	1.134615
O74	O	0.757660	-1.294846	0.502309
H75	H	0.793885	-1.254753	0.526285
H76	H	0.995061	-1.708071	0.495175
H77	H	0.459776	-1.541881	0.861358
H78	H	1.075774	-1.626417	0.562692
H79	H	0.818349	-2.047467	0.987192
O80	O	1.211385	-1.979088	0.271522
H81	H	1.275387	-1.983963	0.267557
H82	H	0.674079	-1.844161	1.120661
H83	H	1.335103	-1.827385	0.396827
H84	H	0.731100	-1.924498	1.067910
H85	H	1.075883	-1.989583	0.262717
H86	H	0.928403	-1.957195	0.289397
H87	H	0.701367	-1.427208	0.465060
H88	H	0.576946	-1.162771	0.382735
O89	O	0.865180	-2.113402	0.871151
H90	H	0.857780	-2.191619	0.864311
O91	O	0.825685	-2.057642	0.702184
H92	H	0.875517	-2.127925	0.741430
