data_functionalizedCrystal
_audit_creation_method	'MofGen! by Chris Wilmer'
_symmetry_space_group_name_H-M	'P1'
_symmetry_Int_Tables_number	1
_symmetry_cell_setting	triclinic
loop_
_symmetry_equiv_pos_as_xyz
  x,y,z
_cell_length_a	23.532361
_cell_length_b	11.026607
_cell_length_c	10.065875
_cell_angle_alpha	79.268236
_cell_angle_beta	81.314548
_cell_angle_gamma	84.292158
loop_
_atom_site_label
_atom_site_type_symbol
_atom_site_fract_x
_atom_site_fract_y
_atom_site_fract_z
O1	O	0.777210	-0.128958	-0.113350
O2	O	0.613590	-0.150300	-0.113382
O3	O	0.681839	0.036855	-0.113363
O4	O	0.708961	-0.316113	-0.113368
O5	O	0.668840	0.001025	0.113622
O6	O	0.600591	-0.186130	0.113604
O7	O	0.764211	-0.164789	0.113636
Zn8	Zn	0.680337	-0.181148	0.149658
Zn9	Zn	0.697464	-0.133940	-0.149404
O10	O	0.695962	-0.351944	0.113617
C11	C	0.585818	-0.167680	0.000107
C12	C	0.522431	-0.166070	0.000095
C13	C	0.255533	-0.139511	-0.123627
C14	C	0.315093	-0.141032	-0.123630
O15	O	0.351924	-0.125166	-0.228855
N16	N	0.337794	-0.161331	0.000100
C17	C	0.300930	-0.180099	0.123842
O18	O	0.325708	-0.197504	0.229083
C19	C	0.241371	-0.178569	0.123844
C20	C	0.218675	-0.158281	0.000105
C21	C	0.232836	-0.119222	-0.247355
C22	C	0.173281	-0.117704	-0.247351
C23	C	0.136422	-0.136474	-0.123619
C24	C	0.159119	-0.156762	0.000109
C25	C	0.204508	-0.197328	0.247584
C26	C	0.144946	-0.195795	0.247575
C27	C	0.122249	-0.175507	0.123837
C28	C	0.062704	-0.174014	0.123845
N29	N	0.040004	-0.153714	0.000115
C30	C	0.076863	-0.134944	-0.123617
C31	C	0.426009	-0.183308	0.123828
C32	C	0.485567	-0.184847	0.123828
C33	C	0.499726	-0.145777	-0.123645
C34	C	0.440167	-0.144247	-0.123643
C35	C	0.403308	-0.163008	0.000098
C36	C	-0.048209	-0.131758	-0.123600
C37	C	-0.107771	-0.130246	-0.123585
C38	C	-0.121925	-0.169310	0.123887
C39	C	-0.062368	-0.170828	0.123873
C40	C	-0.025512	-0.152046	0.000119
O41	O	0.025839	-0.189865	0.229016
O42	O	0.052076	-0.117526	-0.228841
C43	C	0.670336	0.064089	0.000127
C44	C	0.655421	0.198620	0.000119
C45	C	0.791983	-0.147408	0.000144
C46	C	0.855370	-0.149016	0.000147
C47	C	0.707465	-0.379177	0.000124
C48	C	0.722380	-0.513706	0.000123
N49	N	0.668652	-0.213366	0.353761
C50	C	0.696605	0.272935	0.000125
C51	C	0.681190	0.411980	0.000117
N52	N	0.709153	-0.101713	-0.353507
C53	C	0.693394	-0.145142	0.421546
C54	C	0.684406	-0.169947	0.578711
H55	H	-0.018207	-0.116466	-0.224372
H56	H	0.721229	-0.068365	0.363230
H57	H	0.656565	-0.246720	0.637025
N58	N	-0.132253	-0.108357	-0.257046
H59	H	-0.115707	-0.175217	-0.311147
H60	H	-0.121872	-0.024908	-0.311025
H61	H	0.736989	-0.024931	0.588180
H62	H	0.769060	0.447004	0.000030
N63	N	0.148804	-0.095804	-0.380812
H64	H	0.181198	-0.084139	-0.459185
H65	H	0.121322	-0.019174	-0.386195
H66	H	0.262842	-0.103933	-0.348118
H67	H	0.421692	-0.127726	-0.224401
N68	N	0.631777	-0.315063	0.430993
H69	H	0.591379	-0.297907	0.406207
H70	H	0.630629	-0.318317	0.532294
N71	N	0.539487	-0.125530	-0.257104
H72	H	0.580660	-0.129575	-0.238319
H73	H	0.529088	-0.041591	-0.311133
H74	H	0.396002	-0.198602	0.224599
N75	N	0.510045	-0.206758	0.257287
H76	H	0.477653	-0.218419	0.335664
H77	H	0.531364	-0.133101	0.262691
H78	H	0.634517	0.451289	0.000099
H79	H	0.608751	0.237935	0.000101
N80	N	0.758427	0.220875	0.000153
H81	H	0.760675	0.128924	0.000164
H82	H	0.773150	0.236225	0.084311
N83	N	0.228978	-0.219217	0.381046
H84	H	0.196583	-0.230868	0.459417
H85	H	0.250297	-0.145559	0.386444
H86	H	0.114938	-0.211084	0.348342
H87	H	-0.043887	-0.187372	0.224630
H88	H	-0.151946	-0.184596	0.224626
