data_functionalizedCrystal
_audit_creation_method	'MofGen! by Chris Wilmer'
_symmetry_space_group_name_H-M	'P1'
_symmetry_Int_Tables_number	1
_symmetry_cell_setting	triclinic
loop_
_symmetry_equiv_pos_as_xyz
  x,y,z
_cell_length_a	10.489716
_cell_length_b	11.804365
_cell_length_c	13.339070
_cell_angle_alpha	74.887832
_cell_angle_beta	79.920785
_cell_angle_gamma	78.030793
loop_
_atom_site_label
_atom_site_type_symbol
_atom_site_fract_x
_atom_site_fract_y
_atom_site_fract_z
O1	O	1.761603	-0.099013	-0.122683
O2	O	1.395011	-0.099017	-0.136139
O3	O	1.536233	-0.099012	0.018155
O4	O	1.620380	-0.099018	-0.276978
O5	O	1.499040	0.099043	-0.022423
O6	O	1.357818	0.099038	-0.176718
O7	O	1.724410	0.099042	-0.163261
Cu8	Cu	1.537718	0.117124	-0.173695
Cu9	Cu	1.581703	-0.117099	-0.125706
O10	O	1.583187	0.099037	-0.317556
C11	C	1.328536	0.000010	-0.155417
C12	C	1.185870	0.000008	-0.152392
N13	N	1.506790	0.281863	-0.207447
N14	N	1.612638	-0.281838	-0.091946
C15	C	1.120590	0.000003	-0.247010
C16	C	1.007787	0.097661	-0.217020
C17	C	1.044456	-0.097605	-0.176990
C18	C	1.074931	0.097746	-0.122458
C19	C	1.111626	-0.097608	-0.082424
C20	C	0.998845	0.000074	-0.052370
C21	C	1.790885	0.000012	-0.143983
C22	C	1.933553	0.000006	-0.147007
C23	C	1.503423	0.000014	0.035658
C24	C	1.461056	0.000008	0.148267
C25	C	1.686899	0.655818	-0.010875
C26	C	1.710293	0.531157	0.014663
C27	C	1.659419	0.468828	-0.040862
C28	C	1.585148	0.531171	-0.121930
C29	C	1.561760	0.655844	-0.147476
C30	C	1.534280	0.468854	-0.177463
C31	C	1.460009	0.531197	-0.258531
C32	C	1.436625	0.655858	-0.284072
C33	C	1.487499	0.718187	-0.228547
C34	C	1.557667	0.344180	-0.151917
C35	C	1.432528	0.344206	-0.288518
C36	C	1.409135	0.468867	-0.314056
C37	C	1.615998	0.000008	-0.335058
C38	C	1.658367	0.000006	-0.447665
C39	C	1.790488	0.000013	0.510682
C40	C	1.830297	0.000024	0.404880
C41	C	1.737990	0.000020	0.340721
C42	C	1.605868	0.000005	0.382376
C43	C	1.566053	0.000002	0.488186
C44	C	1.513555	0.000010	0.318226
C45	C	1.381432	-0.000006	0.359880
C46	C	1.341624	-0.000009	0.465681
C47	C	1.433931	-0.000004	0.529839
C48	C	1.553370	0.000012	0.212415
C49	C	1.328934	0.000002	0.189919
C50	C	1.289125	-0.000010	0.295722
H51	H	1.173419	0.000093	-0.329332
Cl52	Cl	1.022377	-0.225057	-0.212572
H53	H	1.618139	0.293432	-0.085912
H54	H	1.937871	0.000038	0.370972
Cl55	Cl	1.175524	-0.000011	0.518040
Cl56	Cl	1.383917	-0.000161	0.662883
Cl57	Cl	1.803657	0.452786	0.116570
Cl58	Cl	0.917561	0.000163	0.074772
H59	H	0.962475	0.180220	-0.273878
H60	H	1.678469	0.367323	-0.020065
Cl61	Cl	1.906510	0.000040	0.591336
Cl62	Cl	1.315769	0.547254	-0.415968
Cl63	Cl	1.750862	0.734176	0.058912
Cl64	Cl	1.123033	-0.000031	0.348100
H65	H	1.253769	0.000004	0.137680
H66	H	1.089061	0.180390	-0.099471
H67	H	1.468447	0.819697	-0.249336
Cl68	Cl	1.343274	0.734234	-0.385996
Cl69	Cl	1.368575	0.265857	-0.358329
H70	H	1.660944	0.000025	0.178511
H71	H	1.156963	-0.180171	-0.025596
Cl72	Cl	1.788040	0.000028	0.207712
