data_functionalizedCrystal
_audit_creation_method	'MofGen! by Chris Wilmer'
_symmetry_space_group_name_H-M	'P1'
_symmetry_Int_Tables_number	1
_symmetry_cell_setting	triclinic
loop_
_symmetry_equiv_pos_as_xyz
  x,y,z
_cell_length_a	16.959455
_cell_length_b	16.625545
_cell_length_c	16.625539
_cell_angle_alpha	89.971893
_cell_angle_beta	89.974486
_cell_angle_gamma	90.022578
loop_
_atom_site_label
_atom_site_type_symbol
_atom_site_fract_x
_atom_site_fract_y
_atom_site_fract_z
Zn1	Zn	1.208394	-0.321064	-0.456017
Zn2	Zn	1.208292	-0.455907	-0.321184
Zn3	Zn	1.076210	-0.321085	-0.321186
Zn4	Zn	1.076174	-0.455852	-0.455963
O5	O	1.142268	-0.388477	-0.388587
O6	O	1.318991	-0.338966	-0.438153
O7	O	1.190743	-0.438055	-0.208352
O8	O	1.093803	-0.208250	-0.339094
O9	O	1.318916	-0.438035	-0.339092
O10	O	1.190917	-0.208235	-0.438154
O11	O	1.093704	-0.339002	-0.208353
O12	O	0.965595	-0.338948	-0.339042
O13	O	1.093741	-0.437940	-0.568802
O14	O	0.965568	-0.437960	-0.438062
O15	O	1.190882	-0.338912	-0.568842
O16	O	1.190708	-0.568732	-0.339040
O17	O	1.093642	-0.568691	-0.438061
C18	C	0.936901	-0.388451	-0.388547
C19	C	0.849045	-0.388459	-0.388549
C20	C	0.477519	-0.440011	-0.336980
C21	C	0.477619	-0.337010	-0.440293
C22	C	0.560165	-0.336997	-0.440273
C23	C	0.601392	-0.388492	-0.388607
C24	C	0.560073	-0.440001	-0.336961
C25	C	0.601490	-0.285495	-0.491924
C26	C	0.684041	-0.285480	-0.491908
C27	C	0.725269	-0.336972	-0.440237
C28	C	0.683945	-0.388482	-0.388588
C29	C	0.725172	-0.439978	-0.336922
C30	C	0.683850	-0.491485	-0.285268
C31	C	0.601302	-0.491493	-0.285290
C32	C	0.807818	-0.336964	-0.440215
C33	C	0.807726	-0.439968	-0.336902
C34	C	1.142182	-0.597968	-0.388562
C35	C	1.142217	-0.687589	-0.388578
C36	C	1.142248	-0.760372	-0.388594
C37	C	1.142294	-0.851680	-0.388612
C38	C	1.142335	-0.924456	-0.388622
C39	C	1.142380	-1.015771	-0.388639
C40	C	1.348436	-0.388504	-0.388629
C41	C	1.436292	-0.388516	-0.388646
C42	C	1.142319	-0.388417	-0.598896
C43	C	1.142341	-0.388391	-0.688518
C44	C	1.142375	-0.178168	-0.388631
C45	C	1.142421	-0.088547	-0.388649
C46	C	1.142377	-0.388301	-1.016693
C47	C	1.142365	-0.388329	-0.925385
C48	C	1.142359	-0.388347	-0.852608
C49	C	1.142346	-0.388373	-0.761294
C50	C	1.142262	-0.388479	-0.179097
C51	C	1.142393	-0.388277	-0.089476
H52	H	0.444047	-0.295089	-0.482361
O53	O	0.847995	-0.287054	-0.490470
C54	C	0.895784	-0.333024	-0.542436
H55	H	0.870893	-0.396538	-0.547307
H56	H	0.958328	-0.335760	-0.517483
C57	C	0.927694	-0.215736	-0.620347
C58	C	0.897119	-0.293743	-0.626335
H59	H	0.928521	-0.191505	-0.672099
H60	H	0.895500	-0.184764	-0.585335
H61	H	0.979811	-0.218026	-0.599550
H62	H	0.845000	-0.291451	-0.647122
H63	H	0.929304	-0.324714	-0.661352
O64	O	0.561198	-0.541443	-0.235008
C65	C	0.581329	-0.523737	-0.154670
H66	H	0.604033	-0.459314	-0.150700
H67	H	0.629220	-0.566933	-0.133506
C68	C	0.480071	-0.612194	-0.105742
C69	C	0.507950	-0.533066	-0.100865
H70	H	0.434809	-0.617952	-0.072551
H71	H	0.466510	-0.624126	-0.159867
H72	H	0.519987	-0.648182	-0.088107
H73	H	0.468038	-0.497081	-0.118509
H74	H	0.521503	-0.521128	-0.046741
O75	O	0.437420	-0.489959	-0.286692
C76	C	0.457564	-0.472248	-0.206359
H77	H	0.480270	-0.407825	-0.202396
H78	H	0.505457	-0.515444	-0.185200
C79	C	0.356311	-0.560700	-0.157409
C80	C	0.384193	-0.481573	-0.152541
H81	H	0.311054	-0.566455	-0.124210
H82	H	0.342742	-0.572635	-0.211531
H83	H	0.396229	-0.596687	-0.139779
H84	H	0.344279	-0.445587	-0.170181
H85	H	0.397755	-0.469632	-0.098420
O86	O	0.847736	-0.490108	-0.286799
C87	C	0.827534	-0.570493	-0.304268
H88	H	0.804880	-0.574648	-0.368680
H89	H	0.779585	-0.591517	-0.261011
C90	C	0.928666	-0.619185	-0.215665
C91	C	0.900848	-0.624289	-0.294778
H92	H	0.973888	-0.652370	-0.209807
H93	H	0.942275	-0.565028	-0.203892
H94	H	0.888701	-0.636703	-0.179626
H95	H	0.940809	-0.606761	-0.330814
H96	H	0.887248	-0.678445	-0.306556
O97	O	0.723867	-0.541623	-0.235169
C98	C	0.703670	-0.622010	-0.252637
H99	H	0.681008	-0.626166	-0.317045
H100	H	0.655728	-0.643039	-0.209373
C101	C	0.804818	-0.670694	-0.164048
C102	C	0.776990	-0.675799	-0.243158
H103	H	0.850043	-0.703875	-0.158198
H104	H	0.818424	-0.616536	-0.152277
H105	H	0.764859	-0.688217	-0.128005
H106	H	0.816945	-0.658267	-0.279200
H107	H	0.763393	-0.729956	-0.254935
O108	O	0.561354	-0.235589	-0.542148
C109	C	0.513636	-0.281571	-0.594162
H110	H	0.501240	-0.342641	-0.565617
H111	H	0.545479	-0.290501	-0.653896
C112	C	0.450464	-0.162232	-0.643905
C113	C	0.435234	-0.237237	-0.608843
H114	H	0.402103	-0.134884	-0.652965
H115	H	0.482614	-0.131253	-0.608865
H116	H	0.477001	-0.169684	-0.693680
H117	H	0.408706	-0.229784	-0.559065
H118	H	0.403077	-0.268214	-0.643875
O119	O	0.724055	-0.235368	-0.542102
C120	C	0.669964	-0.189935	-0.587721
H121	H	0.611097	-0.187115	-0.554717
H122	H	0.661223	-0.219538	-0.648911
C123	C	0.774508	-0.107591	-0.640016
C124	C	0.702208	-0.104122	-0.599476
H125	H	0.794398	-0.054659	-0.647271
H126	H	0.810951	-0.138202	-0.609284
H127	H	0.767213	-0.132264	-0.691003
H128	H	0.709505	-0.079459	-0.548487
H129	H	0.665767	-0.073505	-0.630200
