data_functionalizedCrystal
_audit_creation_method	'MofGen! by Chris Wilmer'
_symmetry_space_group_name_H-M	'P1'
_symmetry_Int_Tables_number	1
_symmetry_cell_setting	triclinic
loop_
_symmetry_equiv_pos_as_xyz
  x,y,z
_cell_length_a	14.908742
_cell_length_b	14.908178
_cell_length_c	13.032268
_cell_angle_alpha	86.549870
_cell_angle_beta	79.154565
_cell_angle_gamma	90.210560
loop_
_atom_site_label
_atom_site_type_symbol
_atom_site_fract_x
_atom_site_fract_y
_atom_site_fract_z
Zn1	Zn	1.299450	-0.485780	0.471308
Zn2	Zn	1.311996	-0.617182	0.286936
Zn3	Zn	1.168077	-0.460238	0.307093
Zn4	Zn	1.140265	-0.627552	0.472433
O5	O	1.229947	-0.547688	0.384443
O6	O	1.427964	-0.509560	0.437944
O7	O	1.309794	-0.581334	0.143254
O8	O	1.191893	-0.338613	0.336840
O9	O	1.437182	-0.606101	0.302487
O10	O	1.288412	-0.357379	0.457489
O11	O	1.204058	-0.466028	0.158063
O12	O	1.037538	-0.476084	0.337932
O13	O	1.144492	-0.623775	0.618640
O14	O	1.017105	-0.599008	0.459407
O15	O	1.261444	-0.519616	0.617813
O16	O	1.282826	-0.743571	0.303578
O17	O	1.156657	-0.751190	0.439862
C18	C	0.994430	-0.535900	0.400980
C19	C	0.893671	-0.530881	0.408078
C20	C	0.746837	-0.473655	0.488697
C21	C	0.841509	-0.478364	0.482034
C22	C	0.851155	-0.578696	0.340782
C23	C	0.756483	-0.573988	0.347446
C24	C	0.704327	-0.521464	0.421405
C25	C	0.609655	-0.516751	0.428062
C26	C	0.619302	-0.617088	0.286817
C27	C	0.713974	-0.621797	0.280153
C28	C	1.218107	-0.779798	0.369676
C29	C	1.213120	-0.879104	0.363389
C30	C	1.304152	-1.085110	0.477354
C31	C	1.299469	-1.178417	0.471449
C32	C	1.199068	-1.159027	0.345681
C33	C	1.203751	-1.065720	0.351585
C34	C	1.256295	-1.028765	0.417423
C35	C	1.260982	-0.935456	0.423321
C36	C	1.160577	-0.916068	0.297559
C37	C	1.155895	-1.009375	0.291655
C38	C	1.466383	-0.559523	0.367841
C39	C	1.567139	-0.564566	0.360767
C40	C	1.198466	-0.575701	0.657236
C41	C	1.185051	-0.587639	0.773484
C42	C	1.241856	-0.314675	0.399287
C43	C	1.246930	-0.215379	0.405613
C44	C	1.261361	-0.519722	0.112711
C45	C	1.274964	-0.507542	-0.003534
C46	C	1.236936	-0.541425	0.824902
C47	C	1.223072	-0.553762	0.945051
H48	H	0.876116	-0.439433	0.536830
F49	F	1.143131	-1.198373	0.275640
H50	H	1.329648	-0.458834	0.951544
H51	H	1.113112	-1.039476	0.238054
F52	F	0.554148	-0.460849	0.506772
H53	H	0.704372	-0.430879	0.548908
H54	H	1.291617	-0.492723	0.779974
F55	F	1.113568	-0.651288	0.832205
F56	F	0.906676	-0.634599	0.262085
F57	F	0.769491	-0.677695	0.201448
H58	H	1.121612	-0.870180	0.248756
F59	F	0.574055	-0.667969	0.215190
F60	F	1.151586	-0.617415	1.003768
H61	H	1.303769	-0.905369	0.476926
H62	H	1.346942	-1.055021	0.530953
F63	F	1.350402	-1.238381	0.535238
