data_functionalizedCrystal
_audit_creation_method	'MofGen! by Chris Wilmer'
_symmetry_space_group_name_H-M	'P1'
_symmetry_Int_Tables_number	1
_symmetry_cell_setting	triclinic
loop_
_symmetry_equiv_pos_as_xyz
  x,y,z
_cell_length_a	14.519709
_cell_length_b	14.519709
_cell_length_c	16.053802
_cell_angle_alpha	92.569364
_cell_angle_beta	87.419624
_cell_angle_gamma	83.680145
loop_
_atom_site_label
_atom_site_type_symbol
_atom_site_fract_x
_atom_site_fract_y
_atom_site_fract_z
O1	O	1.227746	0.117021	-0.069322
O2	O	1.561079	0.450354	0.264011
O3	O	1.894412	0.783687	0.597345
O4	O	0.959270	0.131256	-0.069348
O5	O	1.292604	0.464589	0.263986
O6	O	1.625937	0.797923	0.597319
O7	O	1.100626	-0.010100	-0.069327
O8	O	1.433959	0.323234	0.264007
O9	O	1.767292	0.656567	0.597340
O10	O	1.086390	0.258376	-0.069343
O11	O	1.419723	0.591710	0.263990
O12	O	1.753057	0.925043	0.597324
O13	O	1.092845	-0.002351	0.069531
O14	O	1.426178	0.330982	0.402864
O15	O	1.759512	0.664315	0.736198
O16	O	0.951490	0.139004	0.069510
O17	O	1.284823	0.472338	0.402843
O18	O	1.618156	0.805671	0.736177
O19	O	1.219965	0.124769	0.069536
O20	O	1.553298	0.458103	0.402869
O21	O	1.886632	0.791436	0.736202
Zn22	Zn	1.084492	0.133117	0.091570
Zn23	Zn	1.417825	0.466450	0.424903
Zn24	Zn	1.751159	0.799784	0.758236
Zn25	Zn	1.094743	0.122908	-0.091381
Zn26	Zn	1.428077	0.456241	0.241952
Zn27	Zn	1.761410	0.789575	0.575285
O28	O	1.078610	0.266125	0.069515
O29	O	1.411943	0.599458	0.402848
O30	O	1.745276	0.932791	0.736181
C31	C	0.921020	0.134466	0.000078
C32	C	1.254354	0.467800	0.333411
C33	C	1.587687	0.801133	0.666745
C34	C	0.818640	0.132478	0.000068
C35	C	1.151973	0.465811	0.333402
C36	C	1.485306	0.799144	0.666735
C37	C	0.443742	0.125160	0.000107
C38	C	0.777075	0.458494	0.333440
C39	C	1.110408	0.791827	0.666773
C40	C	0.548050	0.127192	0.000096
C41	C	0.881384	0.460526	0.333429
C42	C	1.214717	0.793859	0.666763
C43	C	0.631187	0.128819	0.000087
C44	C	0.964521	0.462152	0.333420
C45	C	1.297854	0.795485	0.666753
C46	C	0.735502	0.130851	0.000077
C47	C	1.068836	0.464185	0.333411
C48	C	1.402169	0.797518	0.666744
C49	C	1.096072	-0.040585	0.000102
C50	C	1.429405	0.292748	0.333436
C51	C	1.762739	0.626081	0.666769
C52	C	1.094084	-0.142966	0.000103
C53	C	1.427417	0.190367	0.333436
C54	C	1.760750	0.523700	0.666769
C55	C	1.086766	-0.517864	0.000080
C56	C	1.420099	-0.184530	0.333414
C57	C	1.753432	0.148803	0.666747
C58	C	1.088798	-0.413555	0.000087
C59	C	1.422131	-0.080222	0.333420
C60	C	1.755464	0.253111	0.666753
C61	C	1.090424	-0.330418	0.000092
C62	C	1.423758	0.002915	0.333426
C63	C	1.757091	0.336248	0.666759
C64	C	1.092457	-0.226103	0.000097
C65	C	1.425790	0.107230	0.333430
C66	C	1.759124	0.440563	0.666764
C67	C	1.258215	0.121559	0.000108
C68	C	1.591548	0.454892	0.333442
C69	C	1.924882	0.788225	0.666775
C70	C	1.360596	0.123547	0.000112
C71	C	1.693929	0.456880	0.333446
C72	C	2.027263	0.790214	0.666779
C73	C	1.083163	0.296610	0.000084
C74	C	1.416497	0.629944	0.333417
C75	C	1.749830	0.963277	0.666751
C76	C	1.085152	0.398991	0.000078
C77	C	1.418485	0.732324	0.333412
C78	C	1.751819	1.065658	0.666745
N79	N	1.077502	0.140084	0.216429
N80	N	1.410836	0.473417	0.549762
N81	N	1.744169	0.806750	0.883096
N82	N	1.101740	0.115934	-0.216241
N83	N	1.435074	0.449267	0.117093
N84	N	1.768407	0.782601	0.450426
C85	C	1.137671	0.079958	0.260132
C86	C	1.471005	0.413292	0.593465
C87	C	1.804338	0.746625	0.926798
C88	C	1.132791	0.084840	0.347538
C89	C	1.466124	0.418174	0.680871
C90	C	1.799457	0.751507	1.014204
C91	C	1.067745	0.149853	0.391239
C92	C	1.401078	0.483186	0.724573
C93	C	1.734412	0.816520	1.057906
C94	C	1.007570	0.209981	0.347530
C95	C	1.340903	0.543315	0.680864
C96	C	1.674236	0.876648	1.014197
C97	C	1.012446	0.205094	0.260126
C98	C	1.345780	0.538427	0.593459
C99	C	1.679113	0.871761	0.926793
C100	C	1.046442	0.171175	0.652646
C101	C	1.379775	0.504508	0.985979
C102	C	1.713108	0.837842	1.319312
C103	C	1.041571	0.176059	0.740056
C104	C	1.374904	0.509393	1.073390
C105	C	1.708238	0.842726	1.406723
C106	C	1.166792	0.050917	0.740058
C107	C	1.500125	0.384250	1.073391
C108	C	1.833459	0.717583	1.406724
C109	C	1.171667	0.046039	0.652652
C110	C	1.505000	0.379372	0.985985
C111	C	1.838333	0.712706	1.319318
C112	C	1.111488	0.106164	0.608950
C113	C	1.444822	0.439497	0.942284
C114	C	1.778155	0.772831	1.275617
N115	N	1.062756	0.154847	0.480582
N116	N	1.396090	0.488180	0.813916
N117	N	1.729423	0.821514	1.147249
N118	N	1.116473	0.101165	0.519609
N119	N	1.449806	0.434498	0.852942
N120	N	1.783140	0.767832	1.186276
H121	H	1.190643	0.027022	0.224556
H122	H	1.523976	0.360355	0.557889
H123	H	1.857309	0.693689	0.891222
H124	H	0.997443	0.220133	0.617071
H125	H	1.330777	0.553466	0.950404
H126	H	1.664110	0.886799	1.283738
C127	C	1.198960	0.018675	0.395607
C128	C	1.532293	0.352008	0.728940
C129	C	1.865627	0.685342	1.062274
N130	N	1.248793	-0.031173	0.431812
N131	N	1.582126	0.302161	0.765146
N132	N	1.915460	0.635494	1.098479
H133	H	1.224632	-0.006899	0.617072
H134	H	1.557966	0.326434	0.950405
H135	H	1.891299	0.659767	1.283738
C136	C	0.970010	0.247579	0.788126
C137	C	1.303343	0.580912	1.121460
C138	C	1.636676	0.914246	1.454793
N139	N	0.916113	0.301445	0.824333
N140	N	1.249446	0.634778	1.157666
N141	N	1.582780	0.968112	1.490999
H142	H	0.963449	0.254054	0.224544
H143	H	1.296783	0.587387	0.557877
H144	H	1.630116	0.920720	0.891210
C145	C	1.232976	-0.015223	0.788136
C146	C	1.566310	0.318110	1.121470
C147	C	1.899643	0.651443	1.454803
N148	N	1.282826	-0.065046	0.824349
N149	N	1.616159	0.268287	1.157683
N150	N	1.949492	0.601620	1.491016
C151	C	0.936009	0.281488	0.395605
C152	C	1.269343	0.614821	0.728939
C153	C	1.602676	0.948154	1.062272
N154	N	0.882108	0.335347	0.431814
N155	N	1.215442	0.668681	0.765148
N156	N	1.548775	1.002014	1.098481
