data_functionalizedCrystal
_audit_creation_method	'MofGen! by Chris Wilmer'
_symmetry_space_group_name_H-M	'P1'
_symmetry_Int_Tables_number	1
_symmetry_cell_setting	triclinic
loop_
_symmetry_equiv_pos_as_xyz
  x,y,z
_cell_length_a	16.959455
_cell_length_b	16.959454
_cell_length_c	16.959434
_cell_angle_alpha	89.913723
_cell_angle_beta	89.940565
_cell_angle_gamma	90.017022
loop_
_atom_site_label
_atom_site_type_symbol
_atom_site_fract_x
_atom_site_fract_y
_atom_site_fract_z
Zn1	Zn	1.208736	-0.314266	-0.446929
Zn2	Zn	1.542069	0.019068	-0.113596
Zn3	Zn	1.875402	0.352401	0.219737
Zn4	Zn	1.208554	-0.446596	-0.314759
Zn5	Zn	1.541888	-0.113262	0.018575
Zn6	Zn	1.875221	0.220071	0.351908
Zn7	Zn	1.076460	-0.314428	-0.314767
Zn8	Zn	1.409793	0.018905	0.018567
Zn9	Zn	1.743127	0.352239	0.351900
Zn10	Zn	1.076529	-0.446399	-0.446898
Zn11	Zn	1.409862	-0.113066	-0.113564
Zn12	Zn	1.743196	0.220267	0.219769
O13	O	1.142570	-0.380422	-0.380838
O14	O	1.475903	-0.047089	-0.047505
O15	O	1.809236	0.286245	0.285829
O16	O	1.319323	-0.331834	-0.429407
O17	O	1.652656	0.001499	-0.096073
O18	O	1.985989	0.334833	0.237260
O19	O	1.190927	-0.429213	-0.204149
O20	O	1.524260	-0.095880	0.129185
O21	O	1.857594	0.237453	0.462518
O22	O	1.094054	-0.203796	-0.332315
O23	O	1.427387	0.129538	0.001019
O24	O	1.760721	0.462871	0.334352
O25	O	1.319189	-0.429056	-0.332302
O26	O	1.652522	-0.095723	0.001032
O27	O	1.985856	0.237611	0.334365
O28	O	1.191236	-0.203676	-0.429414
O29	O	1.524570	0.129657	-0.096081
O30	O	1.857903	0.462990	0.237252
O31	O	1.093878	-0.332110	-0.204154
O32	O	1.427211	0.001223	0.129179
O33	O	1.760545	0.334556	0.462512
O34	O	0.965858	-0.331920	-0.332284
O35	O	1.299192	0.001413	0.001049
O36	O	1.632525	0.334747	0.334383
O37	O	1.094171	-0.428721	-0.557513
O38	O	1.427505	-0.095388	-0.224180
O39	O	1.760838	0.237945	0.109154
O40	O	0.965909	-0.428879	-0.429360
O41	O	1.299242	-0.095545	-0.096027
O42	O	1.632576	0.237788	0.237306
O43	O	1.191303	-0.331643	-0.557536
O44	O	1.524636	0.001690	-0.224203
O45	O	1.857970	0.335023	0.109130
O46	O	1.190994	-0.557180	-0.332271
O47	O	1.524327	-0.223847	0.001063
O48	O	1.857660	0.109486	0.334396
O49	O	1.093995	-0.557036	-0.429353
O50	O	1.427328	-0.223703	-0.096019
O51	O	1.760662	0.109631	0.237314
C52	C	0.937203	-0.380396	-0.380820
C53	C	1.270537	-0.047063	-0.047487
C54	C	1.603870	0.286271	0.285847
C55	C	0.849347	-0.380404	-0.380831
C56	C	1.182680	-0.047071	-0.047498
C57	C	1.516014	0.286263	0.285836
C58	C	1.142504	-0.585788	-0.380825
C59	C	1.475837	-0.252455	-0.047491
C60	C	1.809170	0.080878	0.285842
C61	C	1.142548	-0.673645	-0.380845
C62	C	1.475881	-0.340312	-0.047512
C63	C	1.809214	-0.006978	0.285821
C64	C	0.477821	-0.329894	-0.330396
C65	C	0.811154	0.003439	0.002937
C66	C	1.144487	0.336772	0.336271
C67	C	0.477922	-0.431015	-0.431325
C68	C	0.811255	-0.097682	-0.097992
C69	C	1.144589	0.235652	0.235341
C70	C	0.560468	-0.431004	-0.431321
C71	C	0.893801	-0.097670	-0.097987
C72	C	1.227135	0.235663	0.235346
C73	C	0.601694	-0.380438	-0.380852
C74	C	0.935027	-0.047104	-0.047519
C75	C	1.268361	0.286229	0.285815
C76	C	0.560374	-0.329883	-0.330388
C77	C	0.893708	0.003450	0.002945
C78	C	1.227041	0.336784	0.336279
C79	C	0.601794	-0.481563	-0.481778
C80	C	0.935127	-0.148230	-0.148444
C81	C	1.268460	0.185104	0.184889
C82	C	0.684345	-0.481554	-0.481774
C83	C	1.017678	-0.148221	-0.148441
C84	C	1.351011	0.185112	0.184892
C85	C	0.725572	-0.430984	-0.431309
C86	C	1.058906	-0.097650	-0.097976
C87	C	1.392239	0.235683	0.235358
C88	C	0.684247	-0.380426	-0.380844
C89	C	1.017581	-0.047093	-0.047511
C90	C	1.350914	0.286240	0.285823
C91	C	0.725474	-0.329860	-0.330375
C92	C	1.058807	0.003473	0.002958
C93	C	1.392140	0.336806	0.336291
C94	C	0.684150	-0.279299	-0.279913
C95	C	1.017484	0.054035	0.053420
C96	C	1.350817	0.387368	0.386753
C97	C	0.601602	-0.279312	-0.279923
C98	C	0.934935	0.054021	0.053411
C99	C	1.268268	0.387354	0.386744
C100	C	0.808121	-0.430970	-0.431300
C101	C	1.141454	-0.097637	-0.097966
C102	C	1.474787	0.235697	0.235367
C103	C	0.808027	-0.329849	-0.330367
C104	C	1.141360	0.003484	0.002966
C105	C	1.474694	0.336817	0.336300
C106	C	1.092136	-1.045075	-0.431383
C107	C	1.425469	-0.711742	-0.098050
C108	C	1.758803	-0.378409	0.235283
C109	C	1.193224	-1.045166	-0.330374
C110	C	1.526557	-0.711832	0.002960
C111	C	1.859890	-0.378499	0.336293
C112	C	1.193196	-0.962620	-0.330366
C113	C	1.526529	-0.629286	0.002967
C114	C	1.859863	-0.295953	0.336300
C115	C	1.142637	-0.921298	-0.380867
C116	C	1.475970	-0.587965	-0.047534
C117	C	1.809304	-0.254631	0.285799
C118	C	1.092105	-0.962522	-0.431376
C119	C	1.425439	-0.629189	-0.098043
C120	C	1.758772	-0.295855	0.235291
C121	C	1.243721	-0.921390	-0.279853
C122	C	1.577055	-0.588056	0.053480
C123	C	1.910388	-0.254723	0.386814
C124	C	1.243695	-0.838839	-0.279843
C125	C	1.577028	-0.505505	0.053490
C126	C	1.910362	-0.172172	0.386824
C127	C	1.193139	-0.797515	-0.330349
C128	C	1.526472	-0.464182	0.002984
C129	C	1.859806	-0.130849	0.336318
C130	C	1.142606	-0.838744	-0.380860
C131	C	1.475939	-0.505411	-0.047527
C132	C	1.809273	-0.172078	0.285807
C133	C	1.092047	-0.797422	-0.431361
C134	C	1.425380	-0.464089	-0.098028
C135	C	1.758713	-0.130756	0.235305
C136	C	1.041517	-0.838650	-0.481877
C137	C	1.374850	-0.505317	-0.148544
C138	C	1.708184	-0.171983	0.184790
C139	C	1.041549	-0.921198	-0.481882
C140	C	1.374883	-0.587865	-0.148548
C141	C	1.708216	-0.254532	0.184785
C142	C	1.193107	-0.714967	-0.330344
C143	C	1.526440	-0.381634	0.002989
C144	C	1.859773	-0.048300	0.336322
C145	C	1.092016	-0.714869	-0.431354
C146	C	1.425349	-0.381536	-0.098020
C147	C	1.758683	-0.048202	0.235313
C148	C	1.348738	-0.380449	-0.380857
C149	C	1.682071	-0.047116	-0.047523
C150	C	2.015405	0.286218	0.285810
C151	C	1.436595	-0.380460	-0.380865
C152	C	1.769928	-0.047127	-0.047531
C153	C	2.103261	0.286206	0.285802
C154	C	1.142765	-0.380142	-0.587007
C155	C	1.476098	-0.046809	-0.253674
C156	C	1.809432	0.286524	0.079660
C157	C	1.142848	-0.380023	-0.674864
C158	C	1.476182	-0.046690	-0.341530
C159	C	1.809515	0.286643	-0.008197
C160	C	1.142658	-0.174254	-0.380869
C161	C	1.475991	0.159079	-0.047536
C162	C	1.809324	0.492413	0.285798
C163	C	1.142695	-0.086397	-0.380882
C164	C	1.476029	0.246936	-0.047549
C165	C	1.809362	0.580269	0.285785
C166	C	1.142421	-0.380644	-0.175471
C167	C	1.475754	-0.047310	0.157862
C168	C	1.809087	0.286023	0.491195
C169	C	1.142491	-0.380540	-0.087615
C170	C	1.475824	-0.047207	0.245718
C171	C	1.809157	0.286126	0.579052
C172	C	1.193707	-0.430264	0.283903
C173	C	1.527041	-0.096931	0.617237
C174	C	1.860374	0.236402	0.950570
C175	C	1.091918	-0.329887	0.283816
C176	C	1.425251	0.003446	0.617149
C177	C	1.758584	0.336780	0.950482
C178	C	1.091846	-0.329988	0.201270
C179	C	1.425180	0.003345	0.534603
C180	C	1.758513	0.336678	0.867937
C181	C	1.142705	-0.380229	0.160037
C182	C	1.476039	-0.046896	0.493371
C183	C	1.809372	0.286437	0.826704
C184	C	1.193636	-0.430369	0.201350
C185	C	1.526969	-0.097036	0.534683
C186	C	1.860302	0.236298	0.868017
C187	C	1.040911	-0.279855	0.159951
C188	C	1.374244	0.053478	0.493284
C189	C	1.707578	0.386811	0.826618
C190	C	1.040837	-0.279955	0.077400
C191	C	1.374170	0.053378	0.410734
C192	C	1.707504	0.386711	0.744067
C193	C	1.091700	-0.330193	0.036166
C194	C	1.425034	0.003140	0.369499
C195	C	1.758367	0.336474	0.702833
C196	C	1.142634	-0.380334	0.077484
C197	C	1.475967	-0.047001	0.410817
C198	C	1.809300	0.286333	0.744151
C199	C	1.193493	-0.430575	0.036251
C200	C	1.526826	-0.097242	0.369584
C201	C	1.860159	0.236092	0.702918
C202	C	1.244430	-0.480713	0.077568
C203	C	1.577764	-0.147379	0.410901
C204	C	1.911097	0.185954	0.744234
C205	C	1.244499	-0.480607	0.160116
C206	C	1.577833	-0.147273	0.493449
C207	C	1.911166	0.186060	0.826782
C208	C	1.091632	-0.330299	-0.046382
C209	C	1.424965	0.003034	0.286951
C210	C	1.758298	0.336367	0.620284
C211	C	1.193421	-0.430680	-0.046302
C212	C	1.526755	-0.097347	0.287031
C213	C	1.860088	0.235987	0.620364
H214	H	0.841588	-0.288667	-0.289274
H215	H	1.174921	0.044666	0.044060
H216	H	1.508254	0.378000	0.377393
F217	F	1.247029	-1.089145	-0.276629
F218	F	1.580362	-0.755812	0.056704
F219	F	1.913695	-0.422479	0.390037
F220	F	0.434044	-0.484842	-0.485020
F221	F	0.767378	-0.151508	-0.151687
F222	F	1.100711	0.181825	0.181646
H223	H	0.568221	-0.522737	-0.522861
H224	H	0.901555	-0.189403	-0.189528
H225	H	1.234888	0.143930	0.143806
H226	H	0.841763	-0.472139	-0.472382
H227	H	1.175096	-0.138806	-0.139049
H228	H	1.508429	0.194528	0.194284
F229	F	0.986811	-0.226365	0.203837
F230	F	1.320145	0.106969	0.537171
F231	F	1.653478	0.440302	0.870504
F232	F	1.037805	-0.276408	0.327700
F233	F	1.371138	0.056925	0.661034
F234	F	1.704472	0.390259	0.994367
F235	F	0.986615	-0.226606	0.033436
F236	F	1.319948	0.106727	0.366769
F237	F	1.653281	0.440060	0.700102
H238	H	1.285837	-0.521622	0.043985
H239	H	1.619171	-0.188288	0.377318
H240	H	1.952504	0.145045	0.710652
F241	F	0.728036	-0.225489	-0.226198
F242	F	1.061369	0.107845	0.107135
F243	F	1.394702	0.441178	0.440468
F244	F	1.037429	-0.276938	-0.090350
F245	F	1.370763	0.056396	0.242983
F246	F	1.704096	0.389729	0.576316
F247	F	0.987776	-0.965081	-0.535638
F248	F	1.321109	-0.631747	-0.202305
F249	F	1.654443	-0.298414	0.131029
H250	H	0.567949	-0.238149	-0.238839
H251	H	0.901282	0.095185	0.094495
H252	H	1.234616	0.428518	0.427828
H253	H	1.284878	-0.955040	-0.238732
H254	H	1.618211	-0.621707	0.094601
H255	H	1.951545	-0.288373	0.427935
F256	F	1.297477	-0.794969	-0.226086
F257	F	1.630811	-0.461635	0.107248
F258	F	1.964144	-0.128302	0.440581
H259	H	1.050998	-1.078646	-0.472514
H260	H	1.384332	-0.745313	-0.139181
H261	H	1.717665	-0.411980	0.194153
F262	F	1.246873	-0.671093	-0.276578
F263	F	1.580206	-0.337760	0.056755
F264	F	1.913539	-0.004427	0.390088
F265	F	1.298707	-0.533960	0.204093
F266	F	1.632041	-0.200627	0.537426
F267	F	1.965374	0.132706	0.870759
H268	H	1.234841	-0.471590	-0.079868
H269	H	1.568174	-0.138256	0.253465
H270	H	1.901507	0.195077	0.586799
F271	F	0.433842	-0.276082	-0.276697
F272	F	0.767175	0.057252	0.056636
F273	F	1.100509	0.390585	0.389969
H274	H	1.235182	-0.471083	0.317547
H275	H	1.568515	-0.137749	0.650880
H276	H	1.901848	0.195584	0.984214
H277	H	0.717983	-0.522725	-0.522864
H278	H	1.051317	-0.189391	-0.189531
H279	H	1.384650	0.143942	0.143803
H280	H	1.000348	-0.804996	-0.522992
H281	H	1.333681	-0.471663	-0.189659
H282	H	1.667014	-0.138330	0.143675
F283	F	1.038206	-0.670898	-0.485109
F284	F	1.371540	-0.337564	-0.151776
F285	F	1.704873	-0.004231	0.181557
