data_functionalizedCrystal
_audit_creation_method	'MofGen! by Chris Wilmer'
_symmetry_space_group_name_H-M	'P1'
_symmetry_Int_Tables_number	1
_symmetry_cell_setting	triclinic
loop_
_symmetry_equiv_pos_as_xyz
  x,y,z
_cell_length_a	16.992701
_cell_length_b	18.266242
_cell_length_c	16.992695
_cell_angle_alpha	90.005094
_cell_angle_beta	90.667696
_cell_angle_gamma	90.008992
loop_
_atom_site_label
_atom_site_type_symbol
_atom_site_fract_x
_atom_site_fract_y
_atom_site_fract_z
O1	O	1.050855	0.060888	0.166907
O2	O	0.822455	0.060888	0.165078
O3	O	0.935740	0.060882	0.051793
O4	O	0.937571	0.060894	0.280193
O5	O	0.935719	-0.060880	0.051788
O6	O	0.822434	-0.060874	0.165073
O7	O	1.050834	-0.060874	0.166902
Zn8	Zn	0.936631	-0.080206	0.165987
Zn9	Zn	0.936659	0.080220	0.165993
O10	O	0.937550	-0.060868	0.280188
C11	C	0.793085	0.000007	0.162720
C12	C	0.705600	0.000007	0.155692
N13	N	0.936618	-0.189693	0.165983
C14	C	0.213682	0.000007	0.108471
C15	C	0.295882	0.000003	0.115080
C16	C	0.332089	0.000010	0.189508
C17	C	0.286091	0.000014	0.257331
C18	C	0.203892	0.000013	0.250720
C19	C	0.577403	0.000010	0.216905
C20	C	0.659608	0.000013	0.223510
C21	C	0.669394	0.000001	0.081258
C22	C	0.587192	0.000004	0.074655
C23	C	0.541202	0.000004	0.142477
N24	N	0.416111	0.000008	0.196266
N25	N	0.457181	0.000001	0.135719
C26	C	0.987346	-0.227994	0.216749
C27	C	0.987359	-0.304638	0.216747
C28	C	0.936630	-0.342980	0.165988
C29	C	0.885898	-0.304671	0.115212
C30	C	0.885892	-0.228027	0.115209
N31	N	0.867548	-0.463333	0.159519
N32	N	0.867555	-0.536141	0.159526
C33	C	0.936646	-0.573903	0.165992
N34	N	1.005729	-0.536106	0.172466
N35	N	1.005721	-0.463291	0.172463
C36	C	0.936631	-0.426087	0.165985
C37	C	0.987392	-0.695310	0.216760
C38	C	0.987406	-0.771956	0.216753
C39	C	0.885938	-0.771987	0.115221
C40	C	0.885931	-0.695342	0.115224
C41	C	0.936657	-0.657008	0.165997
C42	C	1.080205	0.000008	0.169260
C43	C	1.167689	0.000013	0.176288
C44	C	0.933373	0.000001	0.022430
C45	C	0.926345	0.000001	-0.065055
N46	N	0.936677	0.189707	0.165992
C47	C	0.994163	0.000001	-0.111046
C48	C	0.987554	0.000008	-0.193247
C49	C	0.913126	0.000010	-0.229454
C50	C	0.845303	0.000013	-0.183457
C51	C	0.851913	0.000011	-0.101258
C52	C	0.885732	0.000020	-0.474768
C53	C	0.879127	0.000020	-0.556974
C54	C	1.021378	0.000015	-0.566758
C55	C	1.027981	0.000009	-0.484557
C56	C	0.960158	0.000016	-0.438566
N57	N	0.906369	0.000015	-0.313476
N58	N	0.966916	0.000017	-0.354546
C59	C	0.939916	0.000014	0.309550
C60	C	0.946945	0.000019	0.397035
H61	H	0.184208	0.000006	0.047863
H62	H	1.088588	0.000007	-0.455083
H63	H	0.844594	-0.335893	0.073883
H64	H	1.028669	-0.335829	0.258089
O65	O	0.714036	0.000125	0.015357
C66	C	0.747528	0.063170	-0.104228
C67	C	0.696937	0.063131	-0.029615
H68	H	0.733710	0.114097	-0.140617
H69	H	0.812510	0.063219	-0.086767
H70	H	0.733779	0.012185	-0.140565
H71	H	0.710619	0.114108	0.006756
H72	H	0.631970	0.063044	-0.047130
O73	O	0.532771	0.000146	0.282810
C74	C	0.499315	0.063220	0.402394
C75	C	0.549895	0.063164	0.327774
H76	H	0.513153	0.114157	0.438776
H77	H	0.434331	0.063262	0.384941
H78	H	0.513054	0.012245	0.438734
H79	H	0.536224	0.114130	0.291399
H80	H	0.614865	0.063084	0.345281
O81	O	0.836528	-0.658171	0.066000
C82	C	0.702113	-0.634805	0.026856
C83	C	0.757975	-0.676929	0.082668
H84	H	0.638593	-0.649966	0.040301
H85	H	0.710746	-0.573430	0.035571
H86	H	0.715656	-0.649871	-0.036668
H87	H	0.744467	-0.661924	0.146213
H88	H	0.749332	-0.738293	0.073885
H89	H	0.818516	0.000010	-0.586451
O90	O	0.321171	0.000118	0.329673
C91	C	0.338002	0.063235	0.453256
C92	C	0.298211	0.063197	0.371360
H93	H	0.319467	0.114237	0.486977
H94	H	0.319401	0.012315	0.487085
H95	H	0.404650	0.063202	0.446312
H96	H	0.231558	0.063256	0.378232
H97	H	0.316875	0.114112	0.337560
H98	H	0.844581	-0.196844	0.073868
H99	H	0.333326	-0.000005	0.059856
H100	H	0.689085	0.000008	0.284121
O101	O	0.551991	0.000127	0.002370
C102	C	0.464849	0.063185	-0.087633
C103	C	0.504675	0.063140	-0.005752
H104	H	0.426573	0.114118	-0.094220
H105	H	0.511813	0.063228	-0.135000
H106	H	0.426634	0.012206	-0.094275
H107	H	0.542886	0.114110	0.000967
H108	H	0.457672	0.063058	0.041574
O109	O	1.036701	-0.190871	0.266087
C110	C	1.137309	-0.198932	0.366824
C111	C	1.081467	-0.241067	0.310978
H112	H	1.173505	-0.239497	0.403144
H113	H	1.178414	-0.163068	0.330893
H114	H	1.101302	-0.163031	0.407817
H115	H	1.117410	-0.277008	0.269973
H116	H	1.040360	-0.276885	0.346958
H117	H	0.830505	0.000026	-0.437333
O118	O	1.036745	-0.658181	0.266098
C119	C	1.137354	-0.666237	0.366834
C120	C	1.081516	-0.708374	0.310986
H121	H	1.173554	-0.706801	0.403152
H122	H	1.178454	-0.630367	0.330905
H123	H	1.101343	-0.630341	0.407830
H124	H	1.117464	-0.744310	0.269978
H125	H	1.040414	-0.744199	0.346963
H126	H	1.028721	-0.803139	0.258091
O127	O	1.066523	0.000032	-0.076004
C128	C	1.206918	-0.000005	-0.094394
C129	C	1.125017	-0.000028	-0.134177
H130	H	1.254232	-0.000069	-0.141409
H131	H	1.213628	0.050964	-0.056176
H132	H	1.213522	-0.050950	-0.056136
H133	H	1.118357	0.050883	-0.172474
H134	H	1.118344	-0.051031	-0.172348
H135	H	0.844634	-0.803204	0.073891
H136	H	0.166446	0.000015	0.305945
O137	O	1.053411	0.000137	-0.237953
C138	C	1.128504	0.063203	-0.336454
C139	C	1.053893	0.063153	-0.285860
H140	H	1.128910	0.114138	-0.375211
H141	H	1.182860	0.063244	-0.296489
H142	H	1.128952	0.012226	-0.375157
H143	H	1.053369	0.114121	-0.247151
H144	H	0.999571	0.063073	-0.325870
O145	O	0.773064	-0.000017	-0.218753
C146	C	0.699836	0.000026	-0.341045
C147	C	0.781697	0.000046	-0.301178
H148	H	0.706788	0.000093	-0.407692
H149	H	0.666038	-0.050942	-0.322532
H150	H	0.666076	0.050972	-0.322418
H151	H	0.815523	-0.050865	-0.319785
H152	H	0.815435	0.051048	-0.319691
H153	H	1.076596	0.000011	-0.604212
H154	H	0.796688	0.000012	-0.063812
