data_functionalizedCrystal
_audit_creation_method	'MofGen! by Chris Wilmer'
_symmetry_space_group_name_H-M	'P1'
_symmetry_Int_Tables_number	1
_symmetry_cell_setting	triclinic
loop_
_symmetry_equiv_pos_as_xyz
  x,y,z
_cell_length_a	10.868271
_cell_length_b	16.992694
_cell_length_c	16.992695
_cell_angle_alpha	90.668223
_cell_angle_beta	89.994605
_cell_angle_gamma	90.001396
loop_
_atom_site_label
_atom_site_type_symbol
_atom_site_fract_x
_atom_site_fract_y
_atom_site_fract_z
O1	O	0.102169	-1.050850	-0.166917
O2	O	0.102205	-0.822450	-0.165086
O3	O	0.102178	-0.935735	-0.051801
O4	O	0.102197	-0.937566	-0.280201
O5	O	-0.102467	-0.935725	-0.051796
O6	O	-0.102439	-0.822440	-0.165081
O7	O	-0.102475	-1.050840	-0.166912
Zn8	Zn	-0.134949	-0.936639	-0.165995
Zn9	Zn	0.134679	-0.936652	-0.166002
O10	O	-0.102448	-0.937556	-0.280196
C11	C	-0.000112	-0.793085	-0.162727
C12	C	-0.000099	-0.705600	-0.155699
N13	N	-0.318963	-0.936635	-0.165990
C14	C	-0.000144	-0.933374	-0.022439
C15	C	-0.000143	-0.926345	0.065046
C16	C	-0.569969	-0.936648	-0.166000
C17	C	-0.430292	-0.936638	-0.165997
N18	N	0.318693	-0.936661	-0.166001
C19	C	-0.000155	-1.080205	-0.169270
C20	C	-0.000161	-1.167690	-0.176299
C21	C	-0.000094	-0.659610	-0.223517
C22	C	-0.000112	-0.577409	-0.216908
C23	C	-0.000125	-0.541201	-0.142480
C24	C	-0.000133	-0.587198	-0.074657
C25	C	-0.000125	-0.669397	-0.081267
C26	C	-0.000160	-0.295886	-0.115086
C27	C	-0.000165	-0.213681	-0.108481
C28	C	-0.000146	-0.203898	-0.250732
C29	C	-0.000130	-0.286099	-0.257335
C30	C	-0.000144	-0.332089	-0.189512
N31	N	-0.000139	-0.457178	-0.135723
N32	N	-0.000139	-0.416110	-0.196270
C33	C	-0.000123	-0.939917	-0.309559
C34	C	-0.000117	-0.946945	-0.397044
C35	C	-0.000155	-0.994163	0.111037
C36	C	-0.000142	-0.987554	0.193238
C37	C	-0.000126	-0.913127	0.229446
C38	C	-0.000110	-0.845303	0.183449
C39	C	-0.000114	-0.851913	0.101250
C40	C	-0.000105	-0.885732	0.474760
C41	C	-0.000105	-0.879127	0.556966
C42	C	-0.000134	-1.021379	0.566749
C43	C	-0.000145	-1.027982	0.484547
C44	C	-0.000123	-0.960159	0.438558
N45	N	-0.000117	-0.906369	0.313468
N46	N	-0.000123	-0.966917	0.354537
H47	H	-0.000082	-0.689084	-0.284124
H48	H	-0.000158	-1.088589	0.455073
C49	C	0.000179	-0.798296	0.596240
C50	C	0.105496	-0.757013	0.573309
C51	C	0.105806	-0.682559	0.609482
H52	H	-0.071091	-0.770047	0.580793
H53	H	0.000241	-0.804046	0.651786
H54	H	0.105422	-0.751259	0.517775
H55	H	0.176782	-0.785238	0.588756
H56	H	0.105868	-0.688309	0.665029
H57	H	0.034532	-0.654317	0.594033
H58	H	0.177267	-0.654541	0.593935
C59	C	-0.000042	-0.527612	-0.290633
C60	C	0.000011	-0.576915	-0.357228
C61	C	0.000089	-0.531071	-0.425160
H62	H	-0.071392	-0.495338	-0.291125
H63	H	0.071345	-0.495351	-0.291055
H64	H	-0.071369	-0.609163	-0.356806
H65	H	0.071356	-0.609189	-0.356762
H66	H	0.071476	-0.498809	-0.425582
H67	H	-0.071263	-0.498799	-0.425644
H68	H	0.000136	-0.564516	-0.470353
C69	C	-0.000332	-0.154063	-0.324432
C70	C	-0.105595	-0.171128	-0.368956
C71	C	-0.105805	-0.125243	-0.436861
H72	H	-0.000403	-0.099902	-0.309950
H73	H	0.070999	-0.165535	-0.354784
H74	H	-0.176908	-0.159650	-0.338609
H75	H	-0.105547	-0.225280	-0.383458
H76	H	-0.034473	-0.136715	-0.467213
H77	H	-0.105872	-0.071085	-0.422371
H78	H	-0.177218	-0.136821	-0.467082
C79	C	-0.000105	-1.075043	0.071876
C80	C	-0.000076	-1.133019	0.129751
C81	C	-0.000007	-1.207536	0.093709
H82	H	-0.071450	-1.080690	0.040023
H83	H	0.071287	-1.080621	0.040030
H84	H	-0.071461	-1.127444	0.161585
H85	H	0.071264	-1.127398	0.161608
H86	H	0.071385	-1.213114	0.061863
H87	H	-0.071354	-1.213175	0.061857
H88	H	0.000024	-1.246882	0.132972
H89	H	-0.000154	-1.042779	0.230680
H90	H	-0.000150	-1.076596	0.604202
C91	C	0.000164	-0.812122	0.424799
C92	C	0.105467	-0.811749	0.377333
C93	C	0.105765	-0.743943	0.331304
H94	H	-0.071115	-0.811663	0.392463
H95	H	0.000236	-0.766833	0.458116
H96	H	0.105384	-0.857027	0.344020
H97	H	0.176763	-0.812196	0.409648
H98	H	0.105837	-0.698654	0.364621
H99	H	0.034482	-0.743490	0.298973
H100	H	0.177217	-0.743678	0.299099
C101	C	0.000083	-0.325289	-0.338201
C102	C	0.105359	-0.302306	-0.379498
C103	C	0.105599	-0.338377	-0.454001
H104	H	0.000156	-0.380837	-0.332551
H105	H	-0.071240	-0.309787	-0.366383
H106	H	0.176663	-0.317813	-0.351323
H107	H	0.105308	-0.246764	-0.385170
H108	H	0.034276	-0.322875	-0.482184
H109	H	0.105669	-0.393924	-0.448344
H110	H	0.177021	-0.322783	-0.482033
H111	H	-0.000090	-0.784703	0.212936
C112	C	0.000090	-0.778216	0.051409
C113	C	0.105369	-0.733697	0.068460
C114	C	0.105597	-0.665795	0.022571
H115	H	0.000152	-0.792701	-0.002750
H116	H	-0.071231	-0.747859	0.062887
H117	H	0.176671	-0.764048	0.056978
H118	H	0.105328	-0.719191	0.122612
H119	H	0.034277	-0.635438	0.034048
H120	H	0.105657	-0.680288	-0.031586
H121	H	0.177022	-0.635577	0.034139
C122	C	-0.000108	-0.345675	-0.041357
C123	C	-0.000086	-0.296368	0.025234
C124	C	-0.000022	-0.342209	0.093170
H125	H	-0.071453	-0.377956	-0.040865
H126	H	0.071285	-0.377929	-0.040933
H127	H	-0.071471	-0.264128	0.024810
H128	H	0.071254	-0.264087	0.024768
H129	H	0.071371	-0.374463	0.093594
H130	H	-0.071368	-0.374488	0.093654
H131	H	0.000004	-0.308761	0.138360
C132	C	-0.000398	-0.547933	0.006173
C133	C	-0.105701	-0.570868	0.047471
C134	C	-0.105990	-0.534708	0.121931
H135	H	0.070881	-0.563387	0.034407
H136	H	-0.000465	-0.492385	0.000433
H137	H	-0.105624	-0.626403	0.053214
H138	H	-0.176997	-0.555413	0.019260
H139	H	-0.106056	-0.479160	0.116191
H140	H	-0.034706	-0.550164	0.150158
H141	H	-0.177442	-0.550258	0.149958
H142	H	-0.000175	-0.184203	-0.047870
H143	H	-0.000128	-0.706842	-0.026042
