data_functionalizedCrystal
_audit_creation_method	'MofGen! by Chris Wilmer'
_symmetry_space_group_name_H-M	'P1'
_symmetry_Int_Tables_number	1
_symmetry_cell_setting	triclinic
loop_
_symmetry_equiv_pos_as_xyz
  x,y,z
_cell_length_a	10.723023
_cell_length_b	23.532407
_cell_length_c	9.198806
_cell_angle_alpha	89.988338
_cell_angle_beta	89.996513
_cell_angle_gamma	83.658147
loop_
_atom_site_label
_atom_site_type_symbol
_atom_site_fract_x
_atom_site_fract_y
_atom_site_fract_z
O1	O	1.654700	0.079869	-0.120908
O2	O	1.291310	0.087514	-0.120917
O3	O	1.483963	0.000831	-0.120871
O4	O	1.462047	0.166552	-0.120953
O5	O	1.483948	0.000831	0.120914
O6	O	1.291294	0.087514	0.120868
O7	O	1.654685	0.079868	0.120877
Cu8	Cu	1.472988	0.083691	0.142950
Cu9	Cu	1.473006	0.083692	-0.142989
O10	O	1.462032	0.166552	0.120832
C11	C	1.244820	0.086958	-0.000025
C12	C	1.106317	0.085293	-0.000026
C13	C	0.901434	0.082831	-0.125277
C14	C	1.044584	0.084552	-0.125278
C15	C	1.483397	-0.020389	0.000029
C16	C	1.481719	-0.083617	0.000050
C17	C	1.360791	-0.350569	-0.000043
C18	C	1.362350	-0.291158	-0.000032
O19	O	1.266419	-0.255036	-0.000080
N20	N	1.476882	-0.267789	-0.000012
C21	C	1.589863	-0.303834	-0.000019
O22	O	1.687425	-0.278501	-0.000002
C23	C	1.588303	-0.363243	-0.000040
C24	C	1.473764	-0.386609	-0.000045
C25	C	1.246261	-0.373935	-0.000050
C26	C	1.244703	-0.433341	-0.000058
C27	C	1.357675	-0.469381	-0.000060
C28	C	1.472206	-0.446015	-0.000054
C29	C	1.701283	-0.399286	-0.000057
C30	C	1.699713	-0.458699	-0.000080
C31	C	1.585173	-0.482065	-0.000085
C32	C	1.583620	-0.541461	-0.000064
N33	N	1.469087	-0.564830	-0.000084
C34	C	1.356115	-0.528791	-0.000082
C35	C	1.593131	-0.179070	0.000024
C36	C	1.594692	-0.119662	0.000056
C37	C	1.367178	-0.106991	0.000040
C38	C	1.365618	-0.166400	0.000019
C39	C	1.478599	-0.202439	0.000005
C40	C	1.352851	-0.653548	-0.000098
C41	C	1.351303	-0.712961	-0.000101
C42	C	1.578816	-0.725627	-0.000093
C43	C	1.580365	-0.666220	-0.000083
C44	C	1.467373	-0.630182	-0.000090
O45	O	1.679500	-0.577618	-0.000022
O46	O	1.258569	-0.554131	-0.000117
C47	C	1.701175	0.080425	-0.000018
C48	C	1.839677	0.082089	-0.000026
C49	C	1.462598	0.187772	-0.000071
C50	C	1.464276	0.251000	-0.000103
N51	N	1.472985	0.083691	0.344064
N52	N	1.473020	0.083688	-0.344103
C53	C	1.553879	0.047134	0.416280
C54	C	1.553899	0.047132	0.583692
H55	H	1.053215	0.084659	0.107211
O56	O	1.645567	0.005665	0.334002
H57	H	1.706020	0.029821	0.264614
H58	H	0.892784	0.082725	0.107205
H59	H	1.258027	-0.731981	-0.000098
O60	O	1.114929	0.085389	-0.267326
H61	H	1.162637	0.124845	-0.273565
H62	H	1.403763	0.114989	0.593803
H63	H	1.260842	-0.624213	-0.000105
H64	H	1.151433	-0.452360	-0.000075
H65	H	1.154260	-0.344597	-0.000053
O66	O	0.831108	0.081988	-0.267330
H67	H	0.729707	0.080774	-0.245037
O68	O	1.242082	-0.191601	0.000000
H69	H	1.163794	-0.156554	-0.000002
O70	O	1.718235	-0.094466	0.000060
H71	H	1.772483	-0.108924	0.098599
O72	O	1.645652	0.005673	0.665932
H73	H	1.593246	-0.022129	0.735297
O74	O	1.245322	-0.068114	0.000025
H75	H	1.265660	-0.022879	0.000023
H76	H	1.685139	-0.208411	0.000023
H77	H	1.794553	-0.380273	-0.000054
O78	O	1.381266	0.125157	0.426308
H79	H	1.320817	0.100998	0.495694
H80	H	1.791718	-0.488040	-0.000099
H81	H	1.673633	-0.647195	-0.000058
O82	O	1.700664	-0.764503	-0.000091
H83	H	1.680326	-0.809738	-0.000113
