data_functionalizedCrystal
_audit_creation_method	'MofGen! by Chris Wilmer'
_symmetry_space_group_name_H-M	'P1'
_symmetry_Int_Tables_number	1
_symmetry_cell_setting	triclinic
loop_
_symmetry_equiv_pos_as_xyz
  x,y,z
_cell_length_a	18.050591
_cell_length_b	14.908520
_cell_length_c	14.908694
_cell_angle_alpha	83.255478
_cell_angle_beta	86.678552
_cell_angle_gamma	86.682549
loop_
_atom_site_label
_atom_site_type_symbol
_atom_site_fract_x
_atom_site_fract_y
_atom_site_fract_z
Zn1	Zn	1.142128	0.389966	-0.532703
Zn2	Zn	1.475461	0.723300	-0.199370
Zn3	Zn	1.808795	1.056633	0.133964
Zn4	Zn	1.128492	0.532611	-0.390070
Zn5	Zn	1.461825	0.865945	-0.056737
Zn6	Zn	1.795159	1.199278	0.276596
Zn7	Zn	1.011163	0.381259	-0.381344
Zn8	Zn	1.344497	0.714592	-0.048011
Zn9	Zn	1.677830	1.047925	0.285322
Zn10	Zn	1.011132	0.541274	-0.541368
Zn11	Zn	1.344465	0.874607	-0.208034
Zn12	Zn	1.677798	1.207940	0.125299
O13	O	1.073229	0.461278	-0.461371
O14	O	1.406562	0.794611	-0.128038
O15	O	1.739895	1.127944	0.205295
O16	O	1.244244	0.408908	-0.513808
O17	O	1.577577	0.742241	-0.180475
O18	O	1.910911	1.075574	0.152858
O19	O	1.107234	0.505265	-0.262250
O20	O	1.440568	0.838598	0.071083
O21	O	1.773901	1.171931	0.404417
O22	O	1.034256	0.255750	-0.394144
O23	O	1.367589	0.589083	-0.060811
O24	O	1.700923	0.922416	0.272522
O25	O	1.234226	0.513708	-0.409016
O26	O	1.567559	0.847041	-0.075683
O27	O	1.900892	1.180375	0.257650
O28	O	1.130475	0.262147	-0.505347
O29	O	1.463809	0.595480	-0.172014
O30	O	1.797142	0.928814	0.161320
O31	O	1.021034	0.394067	-0.255839
O32	O	1.354367	0.727400	0.077494
O33	O	1.687700	1.060733	0.410828
O34	O	0.907234	0.402466	-0.402546
O35	O	1.240568	0.735799	-0.069213
O36	O	1.573901	1.069133	0.264121
O37	O	1.034202	0.528472	-0.666881
O38	O	1.367535	0.861805	-0.333548
O39	O	1.700869	1.195139	-0.000214
O40	O	0.907211	0.520028	-0.520115
O41	O	1.240544	0.853362	-0.186781
O42	O	1.573878	1.186695	0.146552
O43	O	1.130445	0.417307	-0.660515
O44	O	1.463778	0.750640	-0.327182
O45	O	1.797111	1.083974	0.006151
O46	O	1.107204	0.660425	-0.417418
O47	O	1.440537	0.993758	-0.084085
O48	O	1.773870	1.327091	0.249248
O49	O	1.020980	0.666789	-0.528576
O50	O	1.354313	1.000122	-0.195242
O51	O	1.687646	1.333455	0.138091
C52	C	1.062630	0.696450	-0.474904
C53	C	1.395963	1.029784	-0.141570
C54	C	1.729296	1.363117	0.191763
C55	C	1.058165	0.797060	-0.480723
C56	C	1.391498	1.130393	-0.147390
C57	C	1.724831	1.463727	0.185943
C58	C	0.880276	0.461243	-0.461324
C59	C	1.213609	0.794576	-0.127991
C60	C	1.546943	1.127910	0.205342
C61	C	0.797730	0.461251	-0.461327
C62	C	1.131063	0.794585	-0.127993
C63	C	1.464397	1.127918	0.205340
C64	C	1.083841	0.474827	-0.697459
C65	C	1.417174	0.808160	-0.364125
C66	C	1.750508	1.141494	-0.030792
C67	C	1.088363	0.480601	-0.798065
C68	C	1.421696	0.813934	-0.464732
C69	C	1.755030	1.147268	-0.131398
C70	C	0.548905	0.397267	-0.397532
C71	C	0.882238	0.730600	-0.064199
C72	C	1.215571	1.063933	0.269134
C73	C	0.603024	0.379984	-0.478867
C74	C	0.936357	0.713317	-0.145534
C75	C	1.269690	1.046651	0.187799
C76	C	0.500611	0.461302	-0.461404
C77	C	0.833944	0.794635	-0.128070
C78	C	1.167277	1.127969	0.205263
C79	C	0.593575	0.478517	-0.380033
C80	C	0.926908	0.811851	-0.046700
C81	C	1.260242	1.145184	0.286633
C82	C	0.646595	0.461275	-0.461361
C83	C	0.979929	0.794608	-0.128028
C84	C	1.313262	1.127941	0.205305
C85	C	0.553646	0.443979	-0.542780
C86	C	0.886980	0.777312	-0.209447
C87	C	1.220313	1.110646	0.123887
C88	C	0.544189	0.542548	-0.443892
C89	C	0.877523	0.875881	-0.110559
C90	C	1.210856	1.209214	0.222774
C91	C	0.598287	0.525300	-0.525286
C92	C	0.931620	0.858633	-0.191953
C93	C	1.264954	1.191966	0.141381
C94	C	0.416513	0.461315	-0.461427
C95	C	0.749846	0.794649	-0.128093
C96	C	1.083180	1.127982	0.205240
C97	C	0.730692	0.461262	-0.461348
C98	C	1.064025	0.794595	-0.128014
C99	C	1.397358	1.127929	0.205319
C100	C	1.266935	0.461313	-0.461419
C101	C	1.600268	0.794646	-0.128086
C102	C	1.933602	1.127980	0.205247
C103	C	1.349481	0.461328	-0.461440
C104	C	1.682814	0.794661	-0.128106
C105	C	2.016148	1.127995	0.205227
C106	C	1.083890	0.225187	-0.447806
C107	C	1.417224	0.558521	-0.114473
C108	C	1.750557	0.891854	0.218861
C109	C	1.088434	0.124580	-0.442025
C110	C	1.421767	0.457913	-0.108692
C111	C	1.755100	0.791247	0.224642
C112	C	1.139661	0.979434	-0.376004
C113	C	1.472995	1.312767	-0.042670
C114	C	1.806328	1.646100	0.290663
C115	C	1.135468	1.073965	-0.381469
C116	C	1.468802	1.407299	-0.048135
C117	C	1.802135	1.740632	0.285198
C118	C	1.045590	1.080657	-0.497122
C119	C	1.378924	1.413990	-0.163789
C120	C	1.712257	1.747324	0.169544
C121	C	1.049783	0.986125	-0.491657
C122	C	1.383116	1.319459	-0.158324
C123	C	1.716450	1.652792	0.175009
C124	C	1.096819	0.935517	-0.431095
C125	C	1.430153	1.268850	-0.097762
C126	C	1.763486	1.602183	0.235572
C127	C	1.101008	0.840983	-0.425626
C128	C	1.434341	1.174317	-0.092293
C129	C	1.767675	1.507650	0.241041
C130	C	1.011134	0.847677	-0.541284
C131	C	1.344468	1.181010	-0.207950
C132	C	1.677801	1.514343	0.125383
C133	C	1.006941	0.942208	-0.546749
C134	C	1.340275	1.275542	-0.213415
C135	C	1.673608	1.608875	0.119918
C136	C	1.007083	0.375663	-0.980441
C137	C	1.340416	0.708996	-0.647108
C138	C	1.673749	1.042330	-0.313774
C139	C	1.011329	0.381085	-1.074969
C140	C	1.344663	0.714418	-0.741636
C141	C	1.677996	1.047752	-0.408303
C142	C	1.101099	0.496872	-1.081652
C143	C	1.434432	0.830205	-0.748319
C144	C	1.767765	1.163538	-0.414986
C145	C	1.096852	0.491449	-0.987124
C146	C	1.430185	0.824783	-0.653791
C147	C	1.763519	1.158116	-0.320457
C148	C	1.049843	0.430842	-0.936521
C149	C	1.383177	0.764175	-0.603188
C150	C	1.716510	1.097509	-0.269855
C151	C	1.045601	0.425416	-0.841991
C152	C	1.378934	0.758749	-0.508658
C153	C	1.712268	1.092083	-0.175324
C154	C	1.135366	0.541206	-0.848676
C155	C	1.468699	0.874540	-0.515342
C156	C	1.802033	1.207873	-0.182009
C157	C	1.139613	0.546629	-0.943204
C158	C	1.472946	0.879962	-0.609871
C159	C	1.806279	1.213295	-0.276538
C160	C	1.062703	0.447715	-0.226199
C161	C	1.396037	0.781049	0.107135
C162	C	1.729370	1.114382	0.440468
C163	C	1.058337	0.441686	-0.125578
C164	C	1.391670	0.775020	0.207755
C165	C	1.725003	1.108353	0.541088
H166	H	0.527230	0.343091	-0.343597
H167	H	0.860563	0.676424	-0.010264
H168	H	1.193896	1.009757	0.323069
H169	H	0.536045	0.429326	-0.611591
H170	H	0.869378	0.762659	-0.278258
H171	H	1.202712	1.095993	0.055076
H172	H	0.628699	0.311262	-0.493678
H173	H	0.962033	0.644596	-0.160344
H174	H	1.295366	0.977929	0.172989
H175	H	0.976509	0.336152	-1.110725
H176	H	1.309843	0.669486	-0.777392
H177	H	1.643176	1.002819	-0.444058
F178	F	1.151064	0.787123	-0.361168
F179	F	1.484398	1.120456	-0.027834
F180	F	1.817731	1.453790	0.305499
F181	F	0.956887	0.996079	-0.611203
F182	F	1.290221	1.329412	-0.277869
F183	F	1.623554	1.662746	0.055464
F184	F	1.180879	0.599935	-0.801927
F185	F	1.514213	0.933268	-0.468593
F186	F	1.847546	1.266601	-0.135260
H187	H	0.611273	0.493090	-0.311237
H188	H	0.944606	0.826423	0.022096
H189	H	1.277939	1.159756	0.355429
F190	F	0.510588	0.632340	-0.424514
F191	F	0.843921	0.965673	-0.091181
F192	F	1.177254	1.299006	0.242152
F193	F	0.965527	0.800930	-0.599910
F194	F	1.298861	1.134264	-0.266577
F195	F	1.632194	1.467597	0.066757
F196	F	1.189710	0.925570	-0.311538
F197	F	1.523043	1.258903	0.021795
F198	F	1.856377	1.592236	0.355128
F199	F	0.626451	0.596072	-0.595936
F200	F	0.959784	0.929406	-0.262603
F201	F	1.293117	1.262739	0.070730
F202	F	1.151115	0.561380	-1.135522
F203	F	1.484448	0.894713	-0.802189
F204	F	1.817782	1.228047	-0.468856
H205	H	1.007301	1.121879	-0.546435
H206	H	1.340634	1.455212	-0.213102
H207	H	1.673967	1.788545	0.120232
F208	F	1.181068	1.120702	-0.322835
F209	F	1.514402	1.454035	0.010498
F210	F	1.847735	1.787368	0.343832
F211	F	0.995573	0.360911	-0.788137
F212	F	1.328906	0.694244	-0.454804
F213	F	1.662240	1.027577	-0.121470
H214	H	0.968813	0.326306	-0.939239
H215	H	1.302147	0.659639	-0.605906
H216	H	1.635480	0.992972	-0.272572
H217	H	1.177883	0.595976	-0.984418
H218	H	1.511216	0.929310	-0.651084
H219	H	1.844550	1.262643	-0.317751
