data_functionalizedCrystal
_audit_creation_method	'MofGen! by Chris Wilmer'
_symmetry_space_group_name_H-M	'P1'
_symmetry_Int_Tables_number	1
_symmetry_cell_setting	triclinic
loop_
_symmetry_equiv_pos_as_xyz
  x,y,z
_cell_length_a	6.817900
_cell_length_b	11.168129
_cell_length_c	10.773894
_cell_angle_alpha	95.441129
_cell_angle_beta	96.645922
_cell_angle_gamma	108.508637
loop_
_atom_site_label
_atom_site_type_symbol
_atom_site_fract_x
_atom_site_fract_y
_atom_site_fract_z
V1	V	-3.973865	-0.170065	-0.388955
O2	O	-3.936042	0.012947	-0.381539
O3	O	-3.951080	-0.341802	-0.386305
O4	O	-3.890836	-0.165354	-0.558586
O5	O	-3.996704	-0.164722	-0.208066
V6	V	-4.458661	-0.148422	-0.367318
O7	O	-4.232331	-0.217540	-0.436417
O8	O	-4.650393	-0.100947	-0.319855
O9	O	-4.258240	0.023315	-0.369967
O10	O	-4.613882	-0.331433	-0.374733
O11	O	-4.553220	-0.153764	-0.548207
O12	O	-4.318484	-0.153133	-0.197686
C13	C	-3.803433	-0.383733	-0.380172
C14	C	-3.865860	-0.524116	-0.379137
C15	C	-3.874844	-0.570863	-0.270109
C16	C	-3.939364	-0.715957	-0.269036
C17	C	-3.726584	-0.158654	-0.599932
C18	C	-3.740151	-0.155939	-0.738607
C19	C	-3.918928	-0.160645	-0.806470
C20	C	-3.932954	-0.157838	-0.949797
C21	C	-4.069231	0.065240	-0.376097
C22	C	-3.986041	0.205622	-0.377140
C23	C	-4.146080	-0.159836	-0.156334
C24	C	-4.111751	-0.162545	-0.017658
H25	H	-3.834780	-0.503468	-0.177561
H26	H	-3.947149	-0.756218	-0.175692
F27	F	-3.975841	-0.741766	-0.499157
F28	F	-4.298249	-0.170506	-0.954916
F29	F	-4.105421	-0.168630	-0.743724
H30	H	-3.597474	-0.149824	-0.786616
H31	H	-3.790264	-0.151723	-0.997801
H32	H	-3.905941	-0.591512	-0.471685
