data_functionalizedCrystal
_audit_creation_method	'MofGen! by Chris Wilmer'
_symmetry_space_group_name_H-M	'P1'
_symmetry_Int_Tables_number	1
_symmetry_cell_setting	triclinic
loop_
_symmetry_equiv_pos_as_xyz
  x,y,z
_cell_length_a	6.817900
_cell_length_b	15.185311
_cell_length_c	10.992410
_cell_angle_alpha	93.518482
_cell_angle_beta	108.764651
_cell_angle_gamma	104.261569
loop_
_atom_site_label
_atom_site_type_symbol
_atom_site_fract_x
_atom_site_fract_y
_atom_site_fract_z
V1	V	-4.091258	-0.125756	-0.400970
O2	O	-4.073481	0.006043	-0.392949
O3	O	-4.046242	-0.249352	-0.398601
O4	O	-4.069204	-0.123821	-0.575677
O5	O	-4.050360	-0.120357	-0.214647
V6	V	-4.571034	-0.109991	-0.378639
O7	O	-4.360737	-0.160337	-0.449955
O8	O	-4.751753	-0.075410	-0.329654
O9	O	-4.392844	0.013606	-0.381008
O10	O	-4.706208	-0.241789	-0.386660
O11	O	-4.729329	-0.115390	-0.564962
O12	O	-4.369882	-0.111925	-0.203932
C13	C	-3.891213	-0.279482	-0.392371
C14	C	-3.935869	-0.380524	-0.391599
C15	C	-4.066368	-0.794784	-0.270670
C16	C	-4.183241	-0.820728	-0.506076
C17	C	-4.141255	-0.725793	-0.506794
C18	C	-4.061826	-0.665348	-0.389449
C19	C	-4.024383	-0.699839	-0.271385
C20	C	-4.178714	-0.691295	-0.624857
C21	C	-4.136731	-0.596354	-0.625580
C22	C	-4.057286	-0.535908	-0.508233
C23	C	-4.019841	-0.570404	-0.390165
C24	C	-3.940412	-0.509959	-0.272820
C25	C	-3.902951	-0.544454	-0.154749
C26	C	-3.944938	-0.639393	-0.154038
C27	C	-4.015298	-0.440968	-0.508944
C28	C	-3.898426	-0.415015	-0.273535
C29	C	-3.920503	-0.119354	-0.618248
C30	C	-3.983777	-0.118590	-0.761074
C31	C	-3.852172	-0.111631	-0.956176
C32	C	-3.786408	-0.112802	-0.807697
C33	C	-4.165409	-0.208209	-0.838447
C34	C	-4.229867	-0.207417	-0.987011
C35	C	-4.139358	-0.033882	-0.948459
C36	C	-4.068727	-0.033457	-0.799445
C37	C	-4.211214	0.043731	-0.387234
C38	C	-4.145797	0.144772	-0.388015
C39	C	-4.181924	-0.116395	-0.161354
C40	C	-4.097888	-0.117155	-0.018527
H41	H	-3.833736	-0.365806	-0.177976
C42	C	-4.177911	-0.558417	-0.755448
H43	H	-4.231214	-0.608014	-0.825230
H44	H	-4.281169	-0.524871	-0.764739
H45	H	-4.046723	-0.518971	-0.756503
H46	H	-3.937593	0.032839	-0.746888
C47	C	-4.193273	-0.292589	-1.049786
H48	H	-4.232276	-0.292859	-1.140954
H49	H	-4.045379	-0.290787	-1.013829
H50	H	-4.279626	-0.346672	-1.033313
H51	H	-3.838286	-0.495228	-0.059207
H52	H	-4.035863	-0.822873	-0.174540
H53	H	-4.045835	-0.412888	-0.605076
H54	H	-4.410445	-0.215210	-1.029665
C55	C	-4.017127	0.058055	-0.975672
H56	H	-3.939650	0.046511	-1.030027
H57	H	-4.117304	0.089929	-1.017843
H58	H	-3.918964	0.094436	-0.895926
H59	H	-4.108092	-0.271417	-0.813031
C60	C	-3.903757	-0.677339	-0.024177
H61	H	-3.940162	-0.742539	-0.040562
H62	H	-3.755652	-0.653498	0.028184
H63	H	-3.990100	-0.659405	0.019952
C64	C	-4.270613	-0.887213	-0.635144
H65	H	-4.290246	-0.948695	-0.617808
H66	H	-4.404955	-0.879939	-0.687737
H67	H	-4.170509	-0.874032	-0.679508
H68	H	-4.243410	-0.740515	-0.720393
C69	C	-3.709852	-0.023988	-0.981362
H70	H	-3.799003	0.010020	-1.030135
H71	H	-3.616269	0.012573	-0.900715
H72	H	-3.626505	-0.040492	-1.028807
C73	C	-3.601750	-0.025759	-0.735371
H74	H	-3.566336	0.010635	-0.796679
H75	H	-3.646277	0.008692	-0.679463
H76	H	-3.478680	-0.042910	-0.685370
C77	C	-3.803695	-0.192459	-1.021239
H78	H	-3.932553	-0.229559	-1.086233
H79	H	-3.699180	-0.169311	-1.059947
H80	H	-3.749481	-0.228387	-0.957672
C81	C	-3.694190	-0.194754	-0.774411
H82	H	-3.696840	-0.227465	-0.851688
H83	H	-3.549664	-0.172835	-0.715520
H84	H	-3.779214	-0.234536	-0.735508
H85	H	-4.314419	-0.215681	-0.809666
H86	H	-4.211032	-0.032405	-0.766930
C87	C	-4.380334	-0.038274	-1.003647
H88	H	-4.455371	-0.090569	-1.069069
H89	H	-4.438615	-0.042787	-0.935797
H90	H	-4.395681	0.015820	-1.040151
