data_functionalizedCrystal
_audit_creation_method	'MofGen! by Chris Wilmer'
_symmetry_space_group_name_H-M	'P1'
_symmetry_Int_Tables_number	1
_symmetry_cell_setting	triclinic
loop_
_symmetry_equiv_pos_as_xyz
  x,y,z
_cell_length_a	9.065215
_cell_length_b	16.109301
_cell_length_c	7.540329
_cell_angle_alpha	89.994987
_cell_angle_beta	89.997574
_cell_angle_gamma	84.238089
loop_
_atom_site_label
_atom_site_type_symbol
_atom_site_fract_x
_atom_site_fract_y
_atom_site_fract_z
O1	O	1.957452	0.121894	-0.147469
O2	O	2.290785	0.455227	0.185865
O3	O	2.624118	0.788560	0.519198
O4	O	1.527924	0.131895	-0.147477
O5	O	1.861258	0.465229	0.185856
O6	O	2.194591	0.798562	0.519190
O7	O	1.754487	0.005954	-0.147455
O8	O	2.087821	0.339287	0.185879
O9	O	2.421154	0.672621	0.519212
O10	O	1.730888	0.247835	-0.147491
O11	O	2.064222	0.581168	0.185842
O12	O	2.397555	0.914502	0.519176
O13	O	1.754474	0.005952	0.147511
O14	O	2.087807	0.339286	0.480844
O15	O	2.421141	0.672619	0.814177
O16	O	1.527911	0.131894	0.147488
O17	O	1.861244	0.465227	0.480821
O18	O	2.194577	0.798560	0.814155
O19	O	1.957438	0.121892	0.147497
O20	O	2.290771	0.455225	0.480830
O21	O	2.624105	0.788559	0.814163
Cu22	Cu	1.742673	0.126893	0.174425
Cu23	Cu	2.076006	0.460226	0.507758
Cu24	Cu	2.409340	0.793559	0.841092
Cu25	Cu	1.742689	0.126895	-0.174405
Cu26	Cu	2.076022	0.460228	0.158928
Cu27	Cu	2.409356	0.793561	0.492261
O28	O	1.730875	0.247833	0.147474
O29	O	2.064208	0.581167	0.480807
O30	O	2.397542	0.914500	0.814141
C31	C	1.472954	0.130934	0.000005
C32	C	1.806287	0.464267	0.333338
C33	C	2.139621	0.797601	0.666671
C34	C	1.309180	0.128061	0.000002
C35	C	1.642514	0.461395	0.333335
C36	C	1.975847	0.794728	0.666669
C37	C	1.753525	-0.025029	0.000029
C38	C	2.086858	0.308304	0.333362
C39	C	2.420191	0.641638	0.666696
C40	C	1.750659	-0.117346	0.000031
C41	C	2.083992	0.215987	0.333365
C42	C	2.417325	0.549320	0.666698
C43	C	1.878433	-0.338638	0.000006
C44	C	2.211766	-0.005304	0.333339
C45	C	2.545100	0.328029	0.666672
C46	C	1.875729	-0.425379	-0.000009
C47	C	2.209062	-0.092046	0.333324
C48	C	2.542395	0.241288	0.666658
C49	C	1.606919	-0.407568	-0.000007
C50	C	1.940252	-0.074235	0.333326
C51	C	2.273586	0.259098	0.666659
C52	C	1.609625	-0.320829	-0.000005
C53	C	1.942958	0.012505	0.333328
C54	C	2.276292	0.345838	0.666661
C55	C	1.745386	-0.286366	0.000010
C56	C	2.078720	0.046967	0.333344
C57	C	2.412053	0.380301	0.666677
C58	C	1.739976	-0.459847	-0.000006
C59	C	2.073309	-0.126513	0.333327
C60	C	2.406643	0.206820	0.666660
C61	C	1.737043	-0.553895	-0.000022
C62	C	2.070376	-0.220562	0.333311
C63	C	2.403709	0.112771	0.666644
C64	C	1.748320	-0.192311	0.000023
C65	C	2.081654	0.141022	0.333356
C66	C	2.414987	0.474355	0.666689
C67	C	2.012408	0.122853	0.000011
C68	C	2.345742	0.456187	0.333344
C69	C	2.679075	0.789520	0.666678
C70	C	2.176182	0.125726	0.000002
C71	C	2.509515	0.459059	0.333335
C72	C	2.842849	0.792393	0.666669
C73	C	1.731838	0.278816	-0.000013
C74	C	2.065171	0.612150	0.333320
C75	C	2.398504	0.945483	0.666653
C76	C	1.734703	0.371134	-0.000028
C77	C	2.068037	0.704467	0.333306
C78	C	2.401370	1.037800	0.666639
N79	N	1.742673	0.126891	0.419773
N80	N	2.076006	0.460224	0.753107
N81	N	2.409339	0.793558	1.086440
N82	N	1.742701	0.126890	-0.419754
N83	N	2.076035	0.460223	-0.086421
N84	N	2.409368	0.793557	0.246913
H85	H	1.988978	-0.310581	0.000015
H86	H	2.322312	0.022752	0.333348
H87	H	2.655645	0.356085	0.666681
H88	H	1.984069	-0.467936	-0.000016
H89	H	2.317402	-0.134602	0.333317
H90	H	2.650736	0.198731	0.666650
H91	H	1.496387	-0.435639	-0.000016
H92	H	1.829720	-0.102305	0.333317
H93	H	2.163053	0.231028	0.666650
H94	H	1.501276	-0.278267	-0.000007
H95	H	1.834609	0.055067	0.333326
H96	H	2.167942	0.388400	0.666660
