data_functionalizedCrystal
_audit_creation_method	'MofGen! by Chris Wilmer'
_symmetry_space_group_name_H-M	'P1'
_symmetry_Int_Tables_number	1
_symmetry_cell_setting	triclinic
loop_
_symmetry_equiv_pos_as_xyz
  x,y,z
_cell_length_a	19.188925
_cell_length_b	19.188930
_cell_length_c	8.140239
_cell_angle_alpha	90.008252
_cell_angle_beta	90.002413
_cell_angle_gamma	83.143665
loop_
_atom_site_label
_atom_site_type_symbol
_atom_site_fract_x
_atom_site_fract_y
_atom_site_fract_z
O1	O	0.926144	0.087148	0.136667
O2	O	1.176144	0.337148	0.386667
O3	O	1.426144	0.587148	0.636667
O4	O	1.676144	0.837148	0.886667
O5	O	0.722832	0.098886	0.136665
O6	O	0.972832	0.348886	0.386665
O7	O	1.222832	0.598886	0.636665
O8	O	1.472832	0.848886	0.886665
O9	O	0.830356	-0.008638	0.136634
O10	O	1.080356	0.241362	0.386634
O11	O	1.330356	0.491362	0.636634
O12	O	1.580356	0.741362	0.886634
O13	O	0.818621	0.194673	0.136698
O14	O	1.068621	0.444673	0.386698
O15	O	1.318621	0.694673	0.636698
O16	O	1.568621	0.944673	0.886698
O17	O	0.830352	-0.008639	-0.136593
O18	O	1.080352	0.241361	0.113407
O19	O	1.330352	0.491361	0.363407
O20	O	1.580352	0.741361	0.613407
O21	O	0.722829	0.098886	-0.136562
O22	O	0.972829	0.348886	0.113438
O23	O	1.222829	0.598886	0.363438
O24	O	1.472829	0.848886	0.613438
O25	O	0.926141	0.087147	-0.136560
O26	O	1.176141	0.337147	0.113440
O27	O	1.426141	0.587147	0.363440
O28	O	1.676141	0.837147	0.613440
Zn29	Zn	0.824484	0.093016	-0.179942
Zn30	Zn	1.074484	0.343016	0.070058
Zn31	Zn	1.324484	0.593016	0.320058
Zn32	Zn	1.574484	0.843016	0.570058
Zn33	Zn	0.824489	0.093017	0.180047
Zn34	Zn	1.074489	0.343017	0.430047
Zn35	Zn	1.324489	0.593017	0.680047
Zn36	Zn	1.574489	0.843017	0.930047
O37	O	0.818618	0.194672	-0.136529
O38	O	1.068618	0.444672	0.113471
O39	O	1.318618	0.694672	0.363471
O40	O	1.568618	0.944672	0.613471
C41	C	0.696820	0.098507	0.000051
C42	C	0.946820	0.348507	0.250051
C43	C	1.196820	0.598507	0.500051
C44	C	1.446820	0.848507	0.750051
C45	C	0.619315	0.097367	0.000049
C46	C	0.869315	0.347367	0.250049
C47	C	1.119315	0.597367	0.500049
C48	C	1.369315	0.847367	0.750049
C49	C	0.057545	0.152831	0.000070
C50	C	0.307545	0.402831	0.250070
C51	C	0.557545	0.652831	0.500070
C52	C	0.807545	0.902831	0.750070
C53	C	0.130368	0.153908	0.000079
C54	C	0.380368	0.403908	0.250079
C55	C	0.630368	0.653908	0.500079
C56	C	0.880368	0.903908	0.750079
C57	C	0.175302	0.090816	0.000056
C58	C	0.425302	0.340816	0.250056
C59	C	0.675302	0.590816	0.500056
C60	C	0.925302	0.840816	0.750056
C61	C	0.147408	0.026642	0.000067
C62	C	0.397408	0.276642	0.250067
C63	C	0.647408	0.526642	0.500067
C64	C	0.897408	0.776642	0.750067
C65	C	0.074586	0.025568	0.000074
C66	C	0.324586	0.275568	0.250074
C67	C	0.574586	0.525568	0.500074
C68	C	0.824586	0.775568	0.750074
N69	N	0.295978	0.045139	-0.092966
N70	N	0.545978	0.295139	0.157034
N71	N	0.795978	0.545139	0.407034
N72	N	1.045978	0.795139	0.657034
N73	N	0.365156	0.046165	-0.092977
N74	N	0.615156	0.296165	0.157023
N75	N	0.865156	0.546165	0.407023
N76	N	1.115156	0.796165	0.657023
C77	C	0.394712	0.094050	0.000038
C78	C	0.644712	0.344050	0.250038
C79	C	0.894712	0.594050	0.500038
C80	C	1.144712	0.844050	0.750038
N81	N	0.352475	0.140882	0.093043
N82	N	0.602475	0.390882	0.343043
N83	N	0.852475	0.640882	0.593043
N84	N	1.102475	0.890882	0.843043
N85	N	0.283291	0.139859	0.093046
N86	N	0.533291	0.389859	0.343046
N87	N	0.783291	0.639859	0.593046
N88	N	1.033291	0.889859	0.843046
C89	C	0.254267	0.091974	0.000050
C90	C	0.504267	0.341974	0.250050
C91	C	0.754267	0.591974	0.500050
C92	C	1.004267	0.841974	0.750050
C93	C	0.501561	0.159386	0.000049
C94	C	0.751561	0.409386	0.250049
C95	C	1.001561	0.659386	0.500049
C96	C	1.251561	0.909386	0.750049
C97	C	0.574385	0.160460	0.000069
C98	C	0.824385	0.410460	0.250069
C99	C	1.074385	0.660460	0.500069
C100	C	1.324385	0.910460	0.750069
C101	C	0.591425	0.033193	0.000040
C102	C	0.841425	0.283193	0.250040
C103	C	1.091425	0.533193	0.500040
C104	C	1.341425	0.783193	0.750040
C105	C	0.518601	0.032121	0.000037
C106	C	0.768601	0.282121	0.250037
C107	C	1.018601	0.532121	0.500037
C108	C	1.268601	0.782121	0.750037
C109	C	0.473673	0.095220	0.000034
C110	C	0.723673	0.345220	0.250034
C111	C	0.973673	0.595220	0.500034
C112	C	1.223673	0.845220	0.750034
C113	C	0.829974	-0.034650	0.000016
C114	C	1.079974	0.215350	0.250016
C115	C	1.329974	0.465350	0.500016
C116	C	1.579974	0.715350	0.750016
C117	C	0.828833	-0.112154	0.000002
C118	C	1.078833	0.137846	0.250002
C119	C	1.328833	0.387846	0.500002
C120	C	1.578833	0.637846	0.750002
C121	C	0.891924	-0.157079	-0.000006
C122	C	1.141924	0.092921	0.249994
C123	C	1.391924	0.342921	0.499994
C124	C	1.641924	0.592921	0.749994
C125	C	0.890852	-0.229903	0.000021
C126	C	1.140852	0.020097	0.250021
C127	C	1.390852	0.270097	0.500021
C128	C	1.640852	0.520097	0.750021
C129	C	0.826686	-0.257799	0.000021
C130	C	1.076686	-0.007799	0.250021
C131	C	1.326686	0.242201	0.500021
C132	C	1.576686	0.492201	0.750021
C133	C	0.763587	-0.212864	0.000038
C134	C	1.013587	0.037136	0.250038
C135	C	1.263587	0.287136	0.500038
C136	C	1.513587	0.537136	0.750038
C137	C	0.764660	-0.140041	0.000028
C138	C	1.014660	0.109959	0.250028
C139	C	1.264660	0.359959	0.500028
C140	C	1.514660	0.609959	0.750028
N141	N	0.777638	-0.365803	-0.092964
N142	N	1.027638	-0.115803	0.157036
N143	N	1.277638	0.134197	0.407036
N144	N	1.527638	0.384197	0.657036
N145	N	0.776622	-0.434981	-0.092958
N146	N	1.026622	-0.184981	0.157042
N147	N	1.276622	0.065019	0.407042
N148	N	1.526622	0.315019	0.657042
C149	C	0.823448	-0.477207	0.000055
C150	C	1.073448	-0.227207	0.250055
C151	C	1.323448	0.022793	0.500055
C152	C	1.573448	0.272793	0.750055
N153	N	0.871338	-0.447642	0.093040
N154	N	1.121338	-0.197642	0.343040
N155	N	1.371338	0.052358	0.593040
N156	N	1.621338	0.302358	0.843040
N157	N	0.872356	-0.378458	0.093027
N158	N	1.122356	-0.128458	0.343027
N159	N	1.372356	0.121542	0.593027
N160	N	1.622356	0.371542	0.843027
C161	C	0.825515	-0.336761	0.000033
C162	C	1.075515	-0.086761	0.250033
C163	C	1.325515	0.163239	0.500033
C164	C	1.575515	0.413239	0.750033
C165	C	0.885381	-0.601097	0.000078
C166	C	1.135381	-0.351097	0.250078
C167	C	1.385381	-0.101097	0.500078
C168	C	1.635381	0.148903	0.750078
C169	C	0.884307	-0.673922	0.000115
C170	C	1.134307	-0.423922	0.250115
C171	C	1.384307	-0.173922	0.500115
C172	C	1.634307	0.076078	0.750115
C173	C	0.757040	-0.656880	0.000115
C174	C	1.007040	-0.406880	0.250115
C175	C	1.257040	-0.156880	0.500115
C176	C	1.507040	0.093120	0.750115
C177	C	0.758116	-0.584057	0.000095
C178	C	1.008116	-0.334057	0.250095
C179	C	1.258116	-0.084057	0.500095
C180	C	1.508116	0.165943	0.750095
C181	C	0.822289	-0.556170	0.000069
C182	C	1.072289	-0.306170	0.250069
C183	C	1.322289	-0.056170	0.500069
C184	C	1.572289	0.193830	0.750069
C185	C	0.952154	0.087527	0.000058
C186	C	1.202154	0.337527	0.250058
C187	C	1.452154	0.587527	0.500058
C188	C	1.702154	0.837527	0.750058
C189	C	1.029658	0.088666	0.000071
C190	C	1.279658	0.338666	0.250071
C191	C	1.529658	0.588666	0.500071
C192	C	1.779658	0.838666	0.750071
C193	C	0.819000	0.220684	0.000093
C194	C	1.069000	0.470684	0.250093
C195	C	1.319000	0.720684	0.500093
C196	C	1.569000	0.970684	0.750093
C197	C	0.820140	0.298188	0.000118
C198	C	1.070140	0.548188	0.250118
C199	C	1.320140	0.798188	0.500118
C200	C	1.570140	1.048188	0.750118
N201	N	0.824486	0.093015	-0.425624
N202	N	1.074486	0.343015	-0.175624
N203	N	1.324486	0.593015	0.074376
N204	N	1.574486	0.843015	0.324376
N205	N	0.824492	0.093013	0.425729
N206	N	1.074492	0.343013	0.675729
N207	N	1.324492	0.593013	0.925729
N208	N	1.574492	0.843013	1.175729
H209	H	0.464978	0.210765	0.000050
H210	H	0.714978	0.460765	0.250050
H211	H	0.964978	0.710765	0.500050
H212	H	1.214978	0.960765	0.750050
H213	H	0.597088	0.212713	0.000082
H214	H	0.847088	0.462713	0.250082
H215	H	1.097088	0.712713	0.500082
H216	H	1.347088	0.962713	0.750082
H217	H	0.704794	-0.679592	0.000124
H218	H	0.954794	-0.429592	0.250124
H219	H	1.204794	-0.179592	0.500124
H220	H	1.454794	0.070408	0.750124
H221	H	0.495896	-0.020129	0.000028
H222	H	0.745896	0.229871	0.250028
H223	H	0.995896	0.479871	0.500028
H224	H	1.245896	0.729871	0.750028
H225	H	0.942230	-0.266488	0.000021
H226	H	1.192230	-0.016488	0.250021
H227	H	1.442230	0.233512	0.500021
H228	H	1.692230	0.483512	0.750021
Cl229	Cl	0.647907	-0.046124	0.000036
Cl230	Cl	0.897907	0.203876	0.250036
Cl231	Cl	1.147907	0.453876	0.500036
Cl232	Cl	1.397907	0.703876	0.750036
Cl233	Cl	0.001068	0.232156	0.000089
Cl234	Cl	0.251068	0.482156	0.250089
Cl235	Cl	0.501068	0.732156	0.500089
Cl236	Cl	0.751068	0.982156	0.750089
H237	H	0.153078	0.206160	0.000063
H238	H	0.403078	0.456160	0.250063
H239	H	0.653078	0.706160	0.500063
H240	H	0.903078	0.956160	0.750063
Cl241	Cl	0.203896	-0.052674	0.000045
Cl242	Cl	0.453896	0.197326	0.250045
Cl243	Cl	0.703896	0.447326	0.500045
Cl244	Cl	0.953896	0.697326	0.750045
H245	H	0.051883	-0.026685	0.000075
H246	H	0.301883	0.223315	0.250075
H247	H	0.551883	0.473315	0.500075
H248	H	0.801883	0.723315	0.750075
Cl249	Cl	0.972598	-0.122025	0.000008
Cl250	Cl	1.222598	0.127975	0.250008
Cl251	Cl	1.472598	0.377975	0.500008
Cl252	Cl	1.722598	0.627975	0.750008
Cl253	Cl	0.682921	-0.247931	0.000052
Cl254	Cl	0.932921	0.002069	0.250052
Cl255	Cl	1.182921	0.252069	0.500052
Cl256	Cl	1.432921	0.502069	0.750052
H257	H	0.935686	-0.710500	0.000118
H258	H	1.185686	-0.460500	0.250118
H259	H	1.435686	-0.210500	0.500118
H260	H	1.685686	0.039500	0.750118
Cl261	Cl	0.966054	-0.566035	0.000036
Cl262	Cl	1.216054	-0.316035	0.250036
Cl263	Cl	1.466054	-0.066035	0.500036
Cl264	Cl	1.716054	0.183965	0.750036
Cl265	Cl	0.678797	-0.527576	0.000097
Cl266	Cl	0.928797	-0.277576	0.250097
Cl267	Cl	1.178797	-0.027576	0.500097
Cl268	Cl	1.428797	0.222424	0.750097
H269	H	0.713282	-0.103462	0.000033
H270	H	0.963282	0.146538	0.250033
H271	H	1.213282	0.396538	0.500033
H272	H	1.463282	0.646538	0.750033
