data_functionalizedCrystal
_audit_creation_method	'MofGen! by Chris Wilmer'
_symmetry_space_group_name_H-M	'P1'
_symmetry_Int_Tables_number	1
_symmetry_cell_setting	triclinic
loop_
_symmetry_equiv_pos_as_xyz
  x,y,z
_cell_length_a	11.792241
_cell_length_b	12.996460
_cell_length_c	11.792254
_cell_angle_alpha	90.006311
_cell_angle_beta	84.196007
_cell_angle_gamma	90.001369
loop_
_atom_site_label
_atom_site_type_symbol
_atom_site_fract_x
_atom_site_fract_y
_atom_site_fract_z
O1	O	1.506917	0.085467	0.155569
O2	O	1.840251	0.418801	0.488902
O3	O	2.173584	0.752134	0.822236
O4	O	1.176577	0.085491	0.171602
O5	O	1.509910	0.418825	0.504935
O6	O	1.843244	0.752158	0.838269
O7	O	1.349756	0.085472	-0.001584
O8	O	1.683089	0.418805	0.331749
O9	O	2.016423	0.752138	0.665083
O10	O	1.333738	0.085487	0.328755
O11	O	1.667072	0.418821	0.662088
O12	O	2.000405	0.752154	0.995422
O13	O	1.349738	-0.085662	-0.001594
O14	O	1.683071	0.247671	0.331739
O15	O	2.016405	0.581004	0.665073
O16	O	1.176559	-0.085642	0.171592
O17	O	1.509892	0.247691	0.504925
O18	O	1.843226	0.581024	0.838259
O19	O	1.506899	-0.085666	0.155559
O20	O	1.840232	0.247667	0.488893
O21	O	2.173566	0.581000	0.822226
Cu22	Cu	1.341727	-0.101280	0.163575
Cu23	Cu	1.675061	0.232053	0.496908
Cu24	Cu	2.008394	0.565386	0.830242
Cu25	Cu	1.341749	0.101105	0.163586
Cu26	Cu	1.675082	0.434439	0.496920
Cu27	Cu	2.008416	0.767772	0.830253
O28	O	1.333720	-0.085647	0.328745
O29	O	1.667053	0.247687	0.662079
O30	O	2.000387	0.581020	0.995412
C31	C	1.134277	-0.000072	0.170590
C32	C	1.467610	0.333261	0.503923
C33	C	1.800944	0.666594	0.837257
C34	C	1.008263	-0.000063	0.167576
C35	C	1.341596	0.333270	0.500909
C36	C	1.674930	0.666603	0.834242
N37	N	1.341720	-0.243627	0.163566
N38	N	1.675054	0.089706	0.496899
N39	N	2.008387	0.423039	0.830233
C40	C	0.777551	-0.000093	0.162033
C41	C	1.110884	0.333240	0.495366
C42	C	1.444217	0.666573	0.828699
C43	C	0.905936	-0.000077	0.165112
C44	C	1.239269	0.333256	0.498446
C45	C	1.572603	0.666590	0.831779
C46	C	1.341747	-0.663442	0.163588
C47	C	1.675081	-0.330108	0.496921
C48	C	2.008414	0.003225	0.830254
C49	C	1.341736	-0.546637	0.163585
C50	C	1.675070	-0.213303	0.496919
C51	C	2.008403	0.120030	0.830252
C52	C	1.341734	-0.453538	0.163578
C53	C	1.675068	-0.120205	0.496911
C54	C	2.008401	0.213128	0.830244
C55	C	1.341723	-0.336726	0.163574
C56	C	1.675056	-0.003392	0.496907
C57	C	2.008389	0.329941	0.830240
C58	C	1.549199	-0.000100	0.156571
C59	C	1.882533	0.333233	0.489905
C60	C	2.215866	0.666566	0.823238
C61	C	1.675213	-0.000102	0.159586
C62	C	2.008546	0.333231	0.492919
C63	C	2.341880	0.666564	0.826252
C64	C	1.348738	-0.000095	-0.043880
C65	C	1.682071	0.333238	0.289454
C66	C	2.015405	0.666572	0.622787
C67	C	1.345718	-0.000094	-0.169893
C68	C	1.679051	0.333240	0.163441
C69	C	2.012385	0.666573	0.496774
N70	N	1.341765	0.243452	0.163586
N71	N	1.675098	0.576786	0.496920
N72	N	2.008431	0.910119	0.830253
C73	C	1.343264	-0.000090	-0.272229
C74	C	1.676597	0.333243	0.061104
C75	C	2.009931	0.666577	0.394437
C76	C	1.340196	-0.000080	-0.400616
C77	C	1.673529	0.333253	-0.067283
C78	C	2.006862	0.666586	0.266051
C79	C	1.334738	-0.000078	0.371041
C80	C	1.668071	0.333256	0.704374
C81	C	2.001405	0.666589	1.037708
C82	C	1.337758	-0.000072	0.497054
C83	C	1.671092	0.333261	0.830387
C84	C	2.004425	0.666595	1.163721
