data_functionalizedCrystal
_audit_creation_method	'MofGen! by Chris Wilmer'
_symmetry_space_group_name_H-M	'P1'
_symmetry_Int_Tables_number	1
_symmetry_cell_setting	triclinic
loop_
_symmetry_equiv_pos_as_xyz
  x,y,z
_cell_length_a	14.971486
_cell_length_b	14.971486
_cell_length_c	14.048226
_cell_angle_alpha	90.006640
_cell_angle_beta	90.001501
_cell_angle_gamma	83.614129
loop_
_atom_site_label
_atom_site_type_symbol
_atom_site_fract_x
_atom_site_fract_y
_atom_site_fract_z
O1	O	-1.186947	-0.116565	-0.079052
O2	O	-0.926547	-0.130523	-0.079078
O3	O	-1.063726	0.006656	-0.079057
O4	O	-1.049768	-0.253744	-0.079072
O5	O	-1.063710	0.006664	0.079264
O6	O	-0.926530	-0.130515	0.079244
O7	O	-1.186930	-0.116556	0.079270
Zn8	Zn	-1.056728	-0.123535	0.104394
Zn9	Zn	-1.056750	-0.123545	-0.104202
O10	O	-1.049751	-0.253736	0.079249
C11	C	-0.893214	-0.129895	0.000080
C12	C	-0.793917	-0.128024	0.000070
C13	C	-1.063094	0.039985	0.000103
C14	C	-1.061223	0.139282	0.000102
C15	C	-1.220263	-0.117185	0.000110
C16	C	-1.319561	-0.119056	0.000114
C17	C	-0.736692	-0.208614	0.000067
C18	C	-0.643392	-0.206850	0.000081
C19	C	-0.607320	-0.124497	0.000092
C20	C	-0.664552	-0.043902	0.000098
C21	C	-0.757850	-0.045666	0.000090
C22	C	-0.470090	-0.040231	0.000111
C23	C	-0.376786	-0.038466	0.000117
C24	C	-0.355632	-0.201415	0.000102
C25	C	-0.448930	-0.203179	0.000094
C26	C	-0.506156	-0.122584	0.000099
C27	C	-1.050384	-0.287065	0.000087
C28	C	-1.052254	-0.386362	0.000082
N29	N	-1.056719	-0.123527	0.246754
C30	C	-1.141812	0.196507	0.000111
C31	C	-1.140049	0.289807	0.000101
C32	C	-1.057696	0.325879	0.000089
C33	C	-0.977101	0.268646	0.000078
C34	C	-0.978865	0.175349	0.000081
C35	C	-0.973430	0.463109	0.000074
C36	C	-0.971665	0.556413	0.000073
C37	C	-1.134614	0.577567	0.000094
C38	C	-1.136378	0.484269	0.000097
C39	C	-1.055782	0.427043	0.000088
N40	N	-1.056765	-0.123546	-0.246562
C41	C	-1.117482	-0.062809	0.296581
C42	C	-1.117488	-0.062808	0.396239
C43	C	-1.056735	-0.123531	0.446068
C44	C	-0.995966	-0.184252	0.396234
C45	C	-0.995957	-0.184247	0.296578
C46	C	-0.995992	-0.184258	0.603948
C47	C	-0.996003	-0.184264	0.703611
C48	C	-1.117523	-0.062819	0.703609
C49	C	-1.117514	-0.062815	0.603953
C50	C	-1.056746	-0.123537	0.554126
H51	H	-0.766054	-0.275675	0.000057
H52	H	-0.946506	-0.233702	0.563382
H53	H	-1.166957	-0.013365	0.256017
H54	H	-1.203437	0.454903	0.000114
H55	H	-0.347419	0.028593	0.000127
H56	H	-1.167002	-0.013377	0.744184
Cl57	Cl	-0.283691	-0.302736	0.000099
Cl58	Cl	-1.193875	0.013525	0.458881
H59	H	-0.596802	-0.272474	0.000077
H60	H	-1.166987	-0.013375	0.563383
H61	H	-0.946531	-0.233710	0.744176
H62	H	-0.907800	0.416517	0.000064
Cl63	Cl	-0.919586	-0.260586	0.458873
Cl64	Cl	-0.919563	-0.260579	0.233939
Cl65	Cl	-0.877548	0.103407	0.000066
Cl66	Cl	-0.494276	-0.306711	0.000070
Cl67	Cl	-0.542030	0.061092	0.000119
H68	H	-1.208874	0.167145	0.000126
H69	H	-0.635175	0.023152	0.000120
H70	H	-0.804443	0.019958	0.000093
H71	H	-1.205673	0.336396	0.000110
H72	H	-1.200238	0.624165	0.000099
Cl73	Cl	-0.868134	0.601760	0.000059
Cl74	Cl	-0.873570	0.313995	0.000051
