data_functionalizedCrystal
_audit_creation_method	'MofGen! by Chris Wilmer'
_symmetry_space_group_name_H-M	'P1'
_symmetry_Int_Tables_number	1
_symmetry_cell_setting	triclinic
loop_
_symmetry_equiv_pos_as_xyz
  x,y,z
_cell_length_a	13.897449
_cell_length_b	16.625548
_cell_length_c	13.897447
_cell_angle_alpha	90.009284
_cell_angle_beta	90.020810
_cell_angle_gamma	90.007099
loop_
_atom_site_label
_atom_site_type_symbol
_atom_site_fract_x
_atom_site_fract_y
_atom_site_fract_z
Zn1	Zn	1.474560	0.455896	-0.384142
Zn2	Zn	1.974560	0.955896	0.115858
Zn3	Zn	1.474488	0.321068	-0.545407
Zn4	Zn	1.974488	0.821068	-0.045407
Zn5	Zn	1.313288	0.321079	-0.384132
Zn6	Zn	1.813288	0.821079	0.115868
Zn7	Zn	1.313226	0.455860	-0.545400
Zn8	Zn	1.813226	0.955860	-0.045400
O9	O	1.393891	0.388476	-0.464770
O10	O	1.893891	0.888476	0.035230
O11	O	1.609532	0.438021	-0.405542
O12	O	2.109532	0.938021	0.094458
O13	O	1.453100	0.208237	-0.524012
O14	O	1.953100	0.708237	-0.024012
O15	O	1.334737	0.338983	-0.249151
O16	O	1.834737	0.838983	0.250849
O17	O	1.609479	0.338963	-0.524022
O18	O	2.109479	0.838963	-0.024022
O19	O	1.453224	0.438032	-0.249159
O20	O	1.953224	0.938032	0.250841
O21	O	1.334667	0.208245	-0.405524
O22	O	1.834667	0.708245	0.094476
O23	O	1.178298	0.338948	-0.405517
O24	O	1.678298	0.838948	0.094483
O25	O	1.334632	0.568698	-0.524011
O26	O	1.834632	1.068698	-0.024011
O27	O	1.178253	0.437971	-0.524000
O28	O	1.678253	0.937971	-0.024000
O29	O	1.453164	0.568724	-0.405535
O30	O	1.953164	1.068724	0.094465
O31	O	1.453040	0.338929	-0.680388
O32	O	1.953040	0.838929	-0.180388
O33	O	1.334561	0.437960	-0.680383
O34	O	1.834561	0.937960	-0.180383
C35	C	1.143276	0.388458	-0.464757
C36	C	1.643276	0.888458	0.035243
C37	C	1.036062	0.388469	-0.464775
C38	C	1.536062	0.888469	0.035225
C39	C	0.839767	0.388490	-0.464779
C40	C	1.339767	0.888490	0.035221
C41	C	0.949000	0.388476	-0.464774
C42	C	1.449000	0.888476	0.035226
C43	C	1.393899	0.598785	-0.464773
C44	C	1.893899	1.098785	0.035227
C45	C	1.393903	0.688406	-0.464774
C46	C	1.893903	1.188406	0.035226
C47	C	1.393863	1.016582	-0.464783
C48	C	1.893863	1.516582	0.035217
C49	C	1.393871	0.925273	-0.464783
C50	C	1.893871	1.425273	0.035217
C51	C	1.393883	0.852497	-0.464779
C52	C	1.893883	1.352497	0.035221
C53	C	1.393891	0.761182	-0.464778
C54	C	1.893891	1.261182	0.035222
C55	C	1.645483	0.388495	-0.464784
C56	C	2.145483	0.888495	0.035216
C57	C	1.752697	0.388503	-0.464790
C58	C	2.252697	0.888503	0.035210
C59	C	1.393873	1.178985	-0.464787
C60	C	1.893873	1.678985	0.035213
C61	C	1.393863	1.089364	-0.464780
C62	C	1.893863	1.589364	0.035220
C63	C	1.393812	0.388457	-0.715385
C64	C	1.893812	0.888457	-0.215385
C65	C	1.393867	0.388476	-0.822599
C66	C	1.893867	0.888476	-0.322599
C67	C	1.393913	0.388495	-0.909668
C68	C	1.893913	0.888495	-0.409668
C69	C	1.393981	0.388515	-1.018901
C70	C	1.893981	0.888515	-0.518901
C71	C	1.393996	0.388512	-0.213177
C72	C	1.893996	0.888512	0.286823
C73	C	1.394040	0.388528	-0.105963
C74	C	1.894040	0.888528	0.394037
