data_functionalizedCrystal
_audit_creation_method	'MofGen! by Chris Wilmer'
_symmetry_space_group_name_H-M	'P1'
_symmetry_Int_Tables_number	1
_symmetry_cell_setting	triclinic
loop_
_symmetry_equiv_pos_as_xyz
  x,y,z
_cell_length_a	10.489741
_cell_length_b	10.489741
_cell_length_c	12.996460
_cell_angle_alpha	89.994152
_cell_angle_beta	89.997126
_cell_angle_gamma	84.539174
loop_
_atom_site_label
_atom_site_type_symbol
_atom_site_fract_x
_atom_site_fract_y
_atom_site_fract_z
O1	O	1.694055	0.179970	-0.085503
O2	O	1.322860	0.196863	-0.085519
O3	O	1.516904	0.002819	-0.085504
O4	O	1.500011	0.374015	-0.085517
O5	O	1.516884	0.002808	0.085630
O6	O	1.322839	0.196852	0.085615
O7	O	1.694035	0.179959	0.085631
Cu8	Cu	1.508435	0.188405	0.101249
Cu9	Cu	1.508459	0.188418	-0.101136
O10	O	1.499991	0.374004	0.085617
C11	C	1.275318	0.195582	0.000046
C12	C	1.133688	0.191765	0.000040
C13	C	1.065548	0.068300	0.000054
C14	C	0.973432	0.126629	-0.084323
C15	C	0.973445	0.126647	0.084401
C16	C	1.043437	0.250144	-0.084407
C17	C	1.043460	0.250146	0.084393
C18	C	0.951371	0.308564	-0.000005
C19	C	1.515618	-0.044718	0.000062
C20	C	1.511801	-0.186348	0.000060
C21	C	1.388336	-0.254488	0.000047
C22	C	1.446650	-0.346616	0.084428
C23	C	1.446699	-0.346580	-0.084297
C24	C	1.570165	-0.276610	0.084510
C25	C	1.570197	-0.276565	-0.084290
C26	C	1.628600	-0.368665	0.000111
C27	C	1.741577	0.181241	0.000064
C28	C	1.883206	0.185058	0.000063
C29	C	1.501277	0.421541	0.000048
C30	C	1.505094	0.563170	0.000043
N31	N	1.508428	0.188395	0.243596
N32	N	1.508477	0.188418	-0.243484
C33	C	1.508458	0.188419	0.663411
C34	C	1.508446	0.188417	0.546605
C35	C	1.508443	0.188408	0.453507
C36	C	1.508430	0.188404	0.336695
H37	H	1.074274	0.302349	-0.155823
H38	H	1.286824	-0.204837	0.000128
H39	H	0.901947	0.410168	-0.000055
Cl40	Cl	0.925607	0.045955	0.194539
H41	H	0.942426	0.074393	-0.155656
Cl42	Cl	1.365985	-0.394504	0.194561
H43	H	1.074498	0.302339	0.155730
Cl44	Cl	1.785465	-0.444978	0.000186
H45	H	1.622352	-0.245783	0.155927
H46	H	1.622402	-0.245515	-0.155627
H47	H	1.394451	-0.377539	-0.155641
H48	H	1.115238	-0.033196	-0.000048
