data_functionalizedCrystal
_audit_creation_method	'MofGen! by Chris Wilmer'
_symmetry_space_group_name_H-M	'P1'
_symmetry_Int_Tables_number	1
_symmetry_cell_setting	triclinic
loop_
_symmetry_equiv_pos_as_xyz
  x,y,z
_cell_length_a	10.654541
_cell_length_b	10.723023
_cell_length_c	9.798715
_cell_angle_alpha	89.996058
_cell_angle_beta	90.003156
_cell_angle_gamma	95.524262
loop_
_atom_site_label
_atom_site_type_symbol
_atom_site_fract_x
_atom_site_fract_y
_atom_site_fract_z
O1	O	0.176143	-1.657212	0.113506
O2	O	0.193005	-1.294062	0.113506
O3	O	0.001833	-1.483988	0.113498
O4	O	0.367315	-1.467286	0.113514
O5	O	0.001831	-1.483975	-0.113484
O6	O	0.193003	-1.294049	-0.113477
O7	O	0.176141	-1.657199	-0.113476
Zn8	Zn	0.184572	-1.475622	-0.149514
Zn9	Zn	0.184574	-1.475639	0.149544
O10	O	0.367313	-1.467273	-0.113468
C11	C	0.191777	-1.247555	0.000014
C12	C	0.188106	-1.109001	0.000014
C13	C	0.182675	-0.904025	-0.117567
C14	C	0.186469	-1.047229	-0.117569
C15	C	-0.044966	-1.482756	0.000007
C16	C	-0.184409	-1.479089	0.000010
C17	C	-0.212414	-1.706197	-0.000007
C18	C	-0.291926	-1.818023	-0.000018
C19	C	-0.422943	-1.814569	-0.000014
C20	C	-0.474451	-1.699278	0.000006
C21	C	-0.394939	-1.587452	0.000017
C22	C	-0.263920	-1.590917	0.000008
C23	C	-0.366934	-1.360346	0.000043
C24	C	-0.235916	-1.363797	0.000029
C25	C	-0.418442	-1.245054	0.000063
C26	C	-0.338930	-1.133225	0.000064
C27	C	-0.207905	-1.136684	0.000058
C28	C	-0.156405	-1.251971	0.000040
C29	C	0.414112	-1.468505	0.000025
C30	C	0.553555	-1.472172	0.000032
N31	N	0.184570	-1.475619	-0.353614
C32	C	0.177369	-0.703705	0.000016
C33	C	0.181040	-0.842260	0.000016
C34	C	0.104128	-1.555561	-0.578549
C35	C	0.104130	-1.555544	-0.421386
N36	N	0.184566	-1.475652	0.353644
H37	H	0.182455	-0.895398	0.100682
H38	H	0.187870	-1.100346	-0.218237
F39	F	-0.072975	-1.709881	-0.000038
H40	H	0.035259	-1.623953	-0.363076
F41	F	0.274589	-1.386217	-0.570160
F42	F	0.180845	-0.834574	-0.249150
F43	F	0.014116	-1.645009	-0.654742
F44	F	-0.237099	-1.940719	-0.000032
H45	H	-0.487682	-1.905628	-0.000012
H46	H	-0.380879	-1.039364	0.000089
F47	F	0.274583	-1.386185	-0.429819
H48	H	0.186697	-1.055893	0.100686
F49	F	-0.613892	-1.695608	0.000085
H50	H	-0.143173	-1.045621	0.000073
F51	F	-0.557883	-1.241382	0.000137
F52	F	-0.016966	-1.255661	0.000025
