data_functionalizedCrystal
_audit_creation_method	'MofGen! by Chris Wilmer'
_symmetry_space_group_name_H-M	'P1'
_symmetry_Int_Tables_number	1
_symmetry_cell_setting	triclinic
loop_
_symmetry_equiv_pos_as_xyz
  x,y,z
_cell_length_a	12.759395
_cell_length_b	17.077402
_cell_length_c	17.077396
_cell_angle_alpha	90.029784
_cell_angle_beta	90.019641
_cell_angle_gamma	90.021136
loop_
_atom_site_label
_atom_site_type_symbol
_atom_site_fract_x
_atom_site_fract_y
_atom_site_fract_z
Zn1	Zn	-1.606175	0.312545	-0.443839
Zn2	Zn	-1.606050	0.443820	-0.312570
Zn3	Zn	-1.430483	0.312568	-0.312586
Zn4	Zn	-1.430440	0.443768	-0.443793
O5	O	-1.518287	0.378175	-0.378197
O6	O	-1.753179	0.329970	-0.426438
O7	O	-1.582727	0.426440	-0.202725
O8	O	-1.453859	0.202718	-0.330023
O9	O	-1.753088	0.426417	-0.329995
O10	O	-1.582939	0.202701	-0.426454
O11	O	-1.453738	0.330010	-0.202737
O12	O	-1.283456	0.329960	-0.329979
O13	O	-1.453786	0.426330	-0.553646
O14	O	-1.283425	0.426353	-0.426376
O15	O	-1.582897	0.329921	-0.553679
O16	O	-1.582685	0.553660	-0.329950
O17	O	-1.453665	0.553622	-0.426360
C18	C	-1.245320	0.378154	-0.378175
C19	C	-1.128543	0.378164	-0.378184
C20	C	-0.909203	0.277906	-0.478792
C21	C	-0.964117	0.227765	-0.529078
C22	C	-1.073838	0.227756	-0.529068
C23	C	-1.128649	0.277893	-0.478767
C24	C	-1.073735	0.328033	-0.428481
C25	C	-0.964011	0.328036	-0.428495
C26	C	-1.073629	0.428304	-0.327898
C27	C	-0.963907	0.428311	-0.327903
C28	C	-1.128439	0.478442	-0.277597
C29	C	-1.073526	0.528579	-0.227306
C30	C	-0.963797	0.528586	-0.227318
C31	C	-0.908994	0.478451	-0.277617
C32	C	-0.792320	0.378189	-0.378213
C33	C	-0.909097	0.378174	-0.378204
C34	C	-1.518186	0.582123	-0.378165
C35	C	-1.518238	0.669373	-0.378178
C36	C	-1.518351	0.378117	-0.582941
C37	C	-1.518378	0.378093	-0.670191
C38	C	-1.518417	0.173431	-0.378245
C39	C	-1.518473	0.086181	-0.378266
C40	C	-1.585488	0.710356	-0.328032
C41	C	-1.585539	0.792337	-0.328052
C42	C	-1.518335	0.833332	-0.378215
C43	C	-1.451083	0.792343	-0.428367
C44	C	-1.451037	0.710364	-0.428350
C45	C	-1.451180	0.963213	-0.428397
C46	C	-1.451224	1.045197	-0.428412
C47	C	-1.585682	1.045186	-0.328098
C48	C	-1.585636	0.963207	-0.328082
C49	C	-1.518382	0.922223	-0.378233
C50	C	-1.585608	0.327888	-0.711200
C51	C	-1.585621	0.327862	-0.793180
C52	C	-1.518408	0.378045	-0.834150
C53	C	-1.451169	0.428252	-0.793136
C54	C	-1.451152	0.428273	-0.711157
C55	C	-1.451212	0.428205	-0.964006
C56	C	-1.451230	0.428184	-1.045991
C57	C	-1.585681	0.327793	-1.046030
C58	C	-1.585663	0.327815	-0.964051
C59	C	-1.518426	0.378023	-0.923042
C60	C	-1.518284	0.378176	-0.174249
C61	C	-1.518461	0.377980	-0.087000
H62	H	-0.819653	0.478443	-0.277623
N63	N	-1.246781	0.478455	-0.277570
H64	H	-1.273178	0.532327	-0.291896
H65	H	-1.273197	0.439055	-0.317046
H66	H	-1.640401	0.286956	-0.930695
N67	N	-1.658176	0.273621	-1.090258
H68	H	-1.700752	0.241834	-1.051864
H69	H	-1.706786	0.305558	-1.124279
H70	H	-1.118549	0.186928	-0.570016
H71	H	-1.118161	0.569401	-0.186359
H72	H	-1.640446	1.078559	-0.287266
N73	N	-0.904582	0.582667	-0.173074
H74	H	-0.859050	0.550723	-0.136757
H75	H	-0.859123	0.619081	-0.204964
N76	N	-1.378738	0.482309	-1.090183
H77	H	-1.336135	0.514115	-1.051766
H78	H	-1.330154	0.450338	-1.124201
N79	N	-1.658125	0.918988	-0.273983
H80	H	-1.615440	0.885025	-0.237570
H81	H	-1.700725	0.957440	-0.242271
N82	N	-0.790861	0.277916	-0.478799
H83	H	-0.764408	0.263420	-0.424977
H84	H	-0.764554	0.238554	-0.518326
N85	N	-1.658113	0.273698	-0.837412
H86	H	-1.700688	0.241909	-0.799019
H87	H	-1.706724	0.305631	-0.871435
N88	N	-1.378688	0.482352	-0.919772
H89	H	-1.336113	0.514142	-0.958165
H90	H	-1.421425	0.518691	-0.885755
H91	H	-1.396439	0.469109	-0.826500
H92	H	-1.640208	0.676983	-0.287180
H93	H	-1.396278	0.676996	-0.469185
H94	H	-1.640300	0.825702	-0.287217
N95	N	-1.378628	0.482420	-0.666930
H96	H	-1.394907	0.538506	-0.681182
H97	H	-1.388840	0.474753	-0.608793
N98	N	-0.905002	0.173693	-0.583332
H99	H	-0.827161	0.181303	-0.575710
H100	H	-0.924195	0.117614	-0.571214
H101	H	-1.217990	0.277888	-0.478770
H102	H	-1.396520	1.078574	-0.469274
N103	N	-1.378648	0.919006	-0.482490
H104	H	-1.336079	0.957415	-0.514270
H105	H	-1.330035	0.885044	-0.450496
H106	H	-1.396369	0.825728	-0.469214
H107	H	-1.640345	0.287026	-0.677848
