data_functionalizedCrystal
_audit_creation_method	'MofGen! by Chris Wilmer'
_symmetry_space_group_name_H-M	'P1'
_symmetry_Int_Tables_number	1
_symmetry_cell_setting	triclinic
loop_
_symmetry_equiv_pos_as_xyz
  x,y,z
_cell_length_a	15.995350
_cell_length_b	16.992695
_cell_length_c	15.455313
_cell_angle_alpha	87.152573
_cell_angle_beta	92.677661
_cell_angle_gamma	87.080299
loop_
_atom_site_label
_atom_site_type_symbol
_atom_site_fract_x
_atom_site_fract_y
_atom_site_fract_z
O1	O	-1.121185	-0.097643	-0.072058
O2	O	-0.878246	-0.110122	-0.072076
O3	O	-0.998742	0.010260	-0.072060
O4	O	-1.000690	-0.218025	-0.072073
O5	O	-0.991849	0.003404	0.072201
O6	O	-0.871354	-0.116978	0.072186
O7	O	-1.114293	-0.104498	0.072204
Cu8	Cu	-0.992194	-0.111364	0.085367
Cu9	Cu	-1.000345	-0.103256	-0.085239
O10	O	-0.993798	-0.224880	0.072188
C11	C	-0.843571	-0.113034	0.000053
C12	C	-0.750517	-0.111487	0.000046
C13	C	-0.992790	0.036045	0.000071
C14	C	-0.985313	0.123089	0.000070
C15	C	-1.148968	-0.101586	0.000073
C16	C	-1.242022	-0.103133	0.000074
C17	C	-0.412397	-0.105933	0.000065
C18	C	-0.454079	-0.020213	0.000391
C19	C	-0.550888	-0.021745	0.000060
C20	C	-0.580142	-0.108688	0.000056
C21	C	-0.545821	-0.147060	-0.082323
C22	C	-0.449044	-0.144903	-0.082386
C23	C	-0.440986	-0.154471	0.081666
C24	C	-0.537878	-0.154502	0.082748
C25	C	-0.674945	-0.110249	0.000048
C26	C	-0.317595	-0.104373	0.000066
C27	C	-0.999750	-0.250665	0.000056
C28	C	-1.007226	-0.337709	0.000051
N29	N	-0.986467	-0.117066	0.205362
C30	C	-1.057449	0.173329	0.000076
C31	C	-1.050419	0.255116	0.000067
C32	C	-0.971254	0.286661	0.000058
C33	C	-0.899114	0.236415	0.000050
C34	C	-0.906144	0.154629	0.000052
C35	C	-0.942116	0.530259	0.000044
C36	C	-0.935091	0.612051	0.000044
C37	C	-1.086398	0.630747	0.000060
C38	C	-1.093421	0.548959	0.000068
C39	C	-1.021281	0.498720	0.000055
N40	N	-0.964067	0.370260	0.000052
N41	N	-1.028469	0.415123	0.000055
N42	N	-1.006078	-0.097548	-0.205234
C43	C	-1.037678	-0.065942	0.250762
C44	C	-1.033355	-0.070262	0.341570
C45	C	-0.977825	-0.125709	0.386975
C46	C	-0.926609	-0.176835	0.341567
C47	C	-0.930928	-0.172511	0.250762
C48	C	-0.959181	-0.144351	0.658554
C49	C	-0.954867	-0.148672	0.749366
C50	C	-1.061613	-0.042097	0.749362
C51	C	-1.065931	-0.037781	0.658554
C52	C	-1.014711	-0.088905	0.613155
N53	N	-0.973407	-0.130127	0.479794
N54	N	-1.019126	-0.084482	0.520337
H55	H	-0.574272	0.008689	0.059113
C56	C	-1.098763	-0.004948	0.200822
C57	C	-1.155090	0.051290	0.250767
C58	C	-1.216174	0.112288	0.200830
C59	C	-1.220932	0.117048	0.100947
C60	C	-1.164604	0.060808	0.050996
C61	C	-1.103519	-0.000190	0.100934
H62	H	-1.151569	0.047768	0.324711
H63	H	-1.257872	0.153921	0.237807
H64	H	-1.266150	0.162203	0.063980
H65	H	-1.168124	0.064330	-0.022948
H66	H	-1.061821	-0.041822	0.063956
C67	C	-0.848001	0.646746	0.000017
C68	C	-0.825957	0.703954	-0.074904
C69	C	-0.738871	0.738647	-0.074935
C70	C	-0.673829	0.716131	-0.000045
C71	C	-0.695871	0.658919	0.074882
C72	C	-0.782957	0.624227	0.074913
H73	H	-0.874107	0.720625	-0.130347
H74	H	-0.722554	0.780999	-0.130401
H75	H	-0.609363	0.741813	-0.000068
H76	H	-0.647722	0.642249	0.130325
H77	H	-0.799274	0.581875	0.130379
H78	H	-0.435009	0.016691	-0.058356
H79	H	-0.431614	-0.111139	-0.143964
C80	C	-0.826794	0.099362	0.000048
C81	C	-0.807239	0.037007	0.074956
C82	C	-0.727886	-0.018258	0.074946
C83	C	-0.668088	-0.011169	0.000030
C84	C	-0.687641	0.051188	-0.074884
C85	C	-0.766994	0.106454	-0.074874
H86	H	-0.851506	0.031757	0.130418
H87	H	-0.713412	-0.064420	0.130403
H88	H	-0.609346	-0.052080	0.000023
H89	H	-0.643374	0.056438	-0.130346
H90	H	-0.781468	0.152615	-0.130331
H91	H	-1.157885	0.523282	0.000075
C92	C	-0.411397	-0.229690	-0.087455
C93	C	-0.358063	-0.251358	-0.164076
C94	C	-0.320418	-0.336141	-0.169154
C95	C	-0.336108	-0.399256	-0.097611
C96	C	-0.389445	-0.377590	-0.020984
C97	C	-0.427090	-0.292807	-0.015907
H98	H	-0.346446	-0.204635	-0.217042
H99	H	-0.280934	-0.352179	-0.225878
H100	H	-0.308242	-0.462018	-0.101369
H101	H	-0.401062	-0.424313	0.031981
H102	H	-0.466574	-0.276769	0.040817
H103	H	-0.564366	-0.210789	-0.085390
H104	H	-0.575159	-0.114776	-0.143629
H105	H	-0.415591	-0.129409	0.144107
H106	H	-0.889225	-0.214141	0.213797
C107	C	-1.127010	0.023213	0.608606
C108	C	-1.183345	0.079456	0.658537
C109	C	-1.244426	0.140448	0.608586
C110	C	-1.249172	0.145197	0.508703
C111	C	-1.192836	0.088953	0.458766
C112	C	-1.131755	0.027961	0.508718
H113	H	-1.179833	0.075941	0.732481
H114	H	-1.286130	0.182083	0.645553
H115	H	-1.294388	0.190347	0.471726
H116	H	-1.196347	0.092467	0.384822
H117	H	-1.090050	-0.013675	0.471751
H118	H	-0.560217	-0.126529	0.143692
C119	C	-0.403757	-0.239901	0.082421
C120	C	-0.347693	-0.265532	0.009393
C121	C	-0.310461	-0.350957	0.010140
C122	C	-0.329293	-0.410752	0.083915
C123	C	-0.385359	-0.385122	0.156949
C124	C	-0.422591	-0.299696	0.156202
H125	H	-0.333751	-0.221267	-0.045225
H126	H	-0.268957	-0.369930	-0.043924
H127	H	-0.301731	-0.473989	0.084468
H128	H	-0.399302	-0.429386	0.211567
H129	H	-0.464095	-0.280724	0.210267
H130	H	-1.103313	-0.000474	0.786334
C131	C	-1.129772	0.310377	0.000077
C132	C	-1.189565	0.303290	0.074998
C133	C	-1.268922	0.358550	0.075006
C134	C	-1.288487	0.420897	0.000092
C135	C	-1.228692	0.427986	-0.074835
C136	C	-1.149335	0.372727	-0.074843
H137	H	-1.175083	0.257135	0.130459
H138	H	-1.313186	0.353301	0.130472
H139	H	-1.347232	0.461803	0.000098
H140	H	-1.243174	0.474141	-0.130296
H141	H	-1.105071	0.377975	-0.130309
C142	C	-0.862760	0.475007	0.000045
C143	C	-0.802953	0.482100	-0.074863
C144	C	-0.723591	0.426844	-0.074857
C145	C	-0.704036	0.364495	0.000057
C146	C	-0.763845	0.357400	0.074971
C147	C	-0.843207	0.412655	0.074965
H148	H	-0.817427	0.528256	-0.130324
H149	H	-0.679316	0.432097	-0.130314
H150	H	-0.645288	0.323592	0.000061
H151	H	-0.749371	0.311243	0.130431
H152	H	-0.887481	0.407402	0.130421
C153	C	-0.865524	-0.237829	0.391508
C154	C	-0.860811	-0.242629	0.491391
C155	C	-0.799726	-0.303628	0.541328
C156	C	-0.743355	-0.359826	0.491383
C157	C	-0.748066	-0.355028	0.391495
C158	C	-0.809150	-0.294030	0.341557
H159	H	-0.902542	-0.201026	0.528368
H160	H	-0.796240	-0.307179	0.615272
H161	H	-0.698136	-0.404980	0.528350
H162	H	-0.706334	-0.396631	0.354517
H163	H	-0.812637	-0.290478	0.267613
H164	H	-0.430441	0.011249	0.059469
H165	H	-0.579333	0.014531	-0.059092
H166	H	-0.557248	-0.218140	0.087721
H167	H	-1.121913	0.147652	0.000088
H168	H	-1.145130	0.671660	0.000070
H169	H	-0.834656	0.262105	0.000037
H170	H	-1.075055	-0.028632	0.378535
H171	H	-0.909646	-0.193827	0.786330
H172	H	-0.917477	-0.185979	0.621597
