data_functionalizedCrystal
_audit_creation_method	'MofGen! by Chris Wilmer'
_symmetry_space_group_name_H-M	'P1'
_symmetry_Int_Tables_number	1
_symmetry_cell_setting	triclinic
loop_
_symmetry_equiv_pos_as_xyz
  x,y,z
_cell_length_a	19.805407
_cell_length_b	12.645330
_cell_length_c	19.805399
_cell_angle_alpha	89.978279
_cell_angle_beta	89.982197
_cell_angle_gamma	90.015008
loop_
_atom_site_label
_atom_site_type_symbol
_atom_site_fract_x
_atom_site_fract_y
_atom_site_fract_z
Zn1	Zn	1.034777	-0.422140	-0.382715
Zn2	Zn	1.534777	0.077860	0.117285
Zn3	Zn	1.034709	-0.599418	-0.269539
Zn4	Zn	1.534709	-0.099418	0.230461
Zn5	Zn	0.921591	-0.422161	-0.269543
Zn6	Zn	1.421591	0.077839	0.230457
Zn7	Zn	0.921572	-0.599353	-0.382689
Zn8	Zn	1.421572	-0.099353	0.117311
O9	O	0.978162	-0.510768	-0.326121
O10	O	1.478162	-0.010768	0.173879
O11	O	1.129484	-0.445674	-0.367711
O12	O	1.629484	0.054326	0.132289
O13	O	1.019683	-0.575940	-0.174823
O14	O	1.519683	-0.075940	0.325177
O15	O	0.936642	-0.273811	-0.284569
O16	O	1.436642	0.226189	0.215431
O17	O	1.129434	-0.575920	-0.284561
O18	O	1.629434	-0.075920	0.215439
O19	O	1.019799	-0.273795	-0.367716
O20	O	1.519799	0.226205	0.132284
O21	O	0.936576	-0.445710	-0.174826
O22	O	1.436576	0.054290	0.325174
O23	O	0.826872	-0.445647	-0.284543
O24	O	1.326872	0.054353	0.215457
O25	O	0.936609	-0.575810	-0.477409
O26	O	1.436609	-0.075810	0.022591
O27	O	0.826858	-0.575830	-0.367671
O28	O	1.326858	-0.075830	0.132329
O29	O	1.019780	-0.445612	-0.477428
O30	O	1.519780	0.054388	0.022572
O31	O	1.019664	-0.747757	-0.284535
O32	O	1.519664	-0.247757	0.215465
O33	O	0.936543	-0.747709	-0.367666
O34	O	1.436543	-0.247709	0.132334
C35	C	0.802306	-0.510735	-0.326105
C36	C	1.302306	-0.010735	0.173895
C37	C	0.727074	-0.510746	-0.326114
C38	C	1.227074	-0.010746	0.173886
C39	C	0.691757	-0.443047	-0.369476
C40	C	1.191757	0.056953	0.130524
C41	C	0.621068	-0.443053	-0.369479
C42	C	1.121068	0.056947	0.130521
C43	C	0.585699	-0.510763	-0.326122
C44	C	1.085699	-0.010763	0.173878
C45	C	0.621021	-0.578465	-0.282755
C46	C	1.121021	-0.078465	0.217245
C47	C	0.691708	-0.578454	-0.282750
C48	C	1.191708	-0.078454	0.217250
C49	C	0.335948	-0.578513	-0.282776
C50	C	0.835948	-0.078513	0.217224
C51	C	0.265256	-0.578522	-0.282786
C52	C	0.765256	-0.078522	0.217214
C53	C	0.265308	-0.443112	-0.369505
C54	C	0.765308	0.056888	0.130495
C55	C	0.335995	-0.443100	-0.369500
C56	C	0.835995	0.056900	0.130500
C57	C	0.371311	-0.510798	-0.326130
C58	C	0.871311	-0.010798	0.173870
C59	C	0.447960	-0.510790	-0.326127
C60	C	0.947960	-0.010790	0.173873
C61	C	0.509051	-0.510778	-0.326128
C62	C	1.009051	-0.010778	0.173872
C63	C	0.978113	-0.786198	-0.326112
C64	C	1.478113	-0.286198	0.173888
C65	C	0.978154	-0.904028	-0.326131
C66	C	1.478154	-0.404028	0.173869
C67	C	0.926078	-1.071606	-0.378590
C68	C	1.426078	-0.571606	0.121410
C69	C	0.925811	-0.949047	-0.378421
C70	C	1.425811	-0.449047	0.121579
C71	C	0.958847	-0.948614	-0.254799
C72	C	1.458847	-0.448614	0.245201
C73	C	0.958529	-1.071213	-0.255117
C74	C	1.458529	-0.571213	0.244883
C75	C	1.049854	-1.071124	-0.344425
C76	C	1.549854	-0.571124	0.155575
C77	C	1.049415	-0.948517	-0.345985
C78	C	1.549415	-0.448517	0.154015
C79	C	1.154705	-0.510802	-0.326138
C80	C	1.654705	-0.010802	0.173862
C81	C	1.229937	-0.510817	-0.326146
C82	C	1.729937	-0.010817	0.173854
C83	C	0.978200	-0.510701	-0.502664
C84	C	1.478200	-0.010701	-0.002664
C85	C	0.978216	-0.510673	-0.577896
C86	C	1.478216	-0.010673	-0.077896
C87	C	0.978230	-0.234263	-0.326146
C88	C	1.478230	0.265737	0.173854
C89	C	0.978259	-0.116433	-0.326156
C90	C	1.478259	0.383567	0.173844
C91	C	1.021524	-0.442875	-0.613252
C92	C	1.521524	0.057125	-0.113252
C93	C	1.021531	-0.442845	-0.683940
C94	C	1.521531	0.057155	-0.183940
C95	C	0.978233	-0.510617	-0.719272
C96	C	1.478233	-0.010617	-0.219272
C97	C	0.934920	-0.578418	-0.683912
C98	C	1.434920	-0.078418	-0.183912
C99	C	0.934910	-0.578443	-0.613224
C100	C	1.434910	-0.078443	-0.113224
C101	C	0.934958	-0.578319	-0.968985
C102	C	1.434958	-0.078319	-0.468985
C103	C	0.934973	-0.578291	-1.039677
C104	C	1.434973	-0.078291	-0.539677
C105	C	1.021579	-0.442721	-1.039701
C106	C	1.521579	0.057279	-0.539701
C107	C	1.021570	-0.442746	-0.969014
C108	C	1.521570	0.057254	-0.469014
C109	C	0.978254	-0.510542	-0.933659
C110	C	1.478254	-0.010542	-0.433659
C111	C	0.978247	-0.510573	-0.857011
C112	C	1.478247	-0.010573	-0.357011
C113	C	0.978244	-0.510592	-0.795919
C114	C	1.478244	-0.010592	-0.295919
C115	C	0.978163	-0.510758	-0.150266
C116	C	1.478163	-0.010758	0.349734
C117	C	0.978278	-0.510488	-0.075034
C118	C	1.478278	-0.010488	0.424966
H119	H	0.236545	-0.387986	-0.404816
H120	H	0.736545	0.112014	0.095184
C121	C	0.374787	-0.652987	-0.235071
C122	C	0.874787	-0.152987	0.264929
N123	N	0.404042	-0.709085	-0.199138
N124	N	0.904042	-0.209085	0.300862
H125	H	1.090340	-0.917867	-0.310576
H126	H	1.590340	-0.417867	0.189424
H127	H	0.872734	-0.919807	-0.366318
H128	H	1.372734	-0.419807	0.133682
C129	C	0.582222	-0.368582	-0.417183
C130	C	1.082222	0.131418	0.082817
N131	N	0.552964	-0.312487	-0.453116
N132	N	1.052964	0.187513	0.046884
H133	H	0.906193	-1.099899	-0.239641
H134	H	1.406193	-0.599899	0.260359
C135	C	0.374898	-0.368610	-0.417193
C136	C	0.874898	0.131390	0.082807
N137	N	0.404198	-0.312497	-0.453114
N138	N	0.904198	0.187503	0.046886
C139	C	1.007639	-1.111280	-0.200534
C140	C	1.507639	-0.611280	0.299466
N141	N	1.044623	-1.141454	-0.159419
N142	N	1.544623	-0.641454	0.340581
C143	C	0.887285	-0.652959	-0.722779
C144	C	1.387285	-0.152959	-0.222779
N145	N	0.851405	-0.709104	-0.752054
N146	N	1.351405	-0.209104	-0.252054
H147	H	0.899638	-0.633640	-0.584439
H148	H	1.399638	-0.133640	-0.084439
C149	C	0.887308	-0.652894	-0.930105
C150	C	1.387308	-0.152894	-0.430105
N151	N	0.851415	-0.709065	-0.900818
N152	N	1.351415	-0.209065	-0.400818
H153	H	0.720550	-0.387912	-0.404784
H154	H	1.220550	0.112088	0.095216
C155	C	0.226350	-0.653003	-0.235082
C156	C	0.726350	-0.153003	0.264918
N157	N	0.197047	-0.709099	-0.199153
N158	N	0.697047	-0.209099	0.300847
C159	C	0.582112	-0.652946	-0.235061
C160	C	1.082112	-0.152946	0.264939
N161	N	0.552806	-0.709050	-0.199139
N162	N	1.052806	-0.209050	0.300861
C163	C	0.854818	-1.113330	-0.362443
C164	C	1.354818	-0.613330	0.137557
N165	N	0.801145	-1.144754	-0.350277
N166	N	1.301145	-0.644754	0.149723
H167	H	0.720463	-0.633580	-0.247439
H168	H	1.220463	-0.133580	0.252561
C169	C	0.888877	-0.907265	-0.233515
C170	C	1.388877	-0.407265	0.266485
N171	N	0.836172	-0.876123	-0.217488
N172	N	1.336172	-0.376123	0.282512
C173	C	0.942127	-0.908315	-0.449877
C174	C	1.442127	-0.408315	0.050123
N175	N	0.954413	-0.877640	-0.503701
N176	N	1.454413	-0.377640	-0.003701
H177	H	0.995649	-0.919455	-0.214664
H178	H	1.495649	-0.419455	0.285336
C179	C	1.073645	-1.112793	-0.413503
C180	C	1.573645	-0.612793	0.086497
N181	N	1.091557	-1.144178	-0.465536
N182	N	1.591557	-0.644178	0.034464
C183	C	1.069101	-0.909099	-0.416891
C184	C	1.569101	-0.409099	0.083109
N185	N	1.083932	-0.879389	-0.470293
N186	N	1.583932	-0.379389	0.029707
H187	H	1.056785	-0.387690	-0.584490
H188	H	1.556785	0.112310	-0.084490
C189	C	0.942240	-1.111356	-0.450280
C190	C	1.442240	-0.611356	0.049720
N191	N	0.954413	-1.141305	-0.504279
N192	N	1.454413	-0.641305	-0.004279
H193	H	1.088731	-1.100112	-0.306235
H194	H	1.588731	-0.600112	0.193765
H195	H	1.056799	-0.387640	-0.712723
H196	H	1.556799	0.112360	-0.212723
H197	H	1.056830	-0.387562	-0.940250
H198	H	1.556830	0.112438	-0.440250
C199	C	1.069219	-0.368130	-1.078597
C200	C	1.569219	0.131870	-0.578597
N201	N	1.105100	-0.311949	-1.107892
N202	N	1.605100	0.188051	-0.607892
H203	H	0.899712	-0.633482	-1.068442
H204	H	1.399712	-0.133482	-0.568442
