data_functionalizedCrystal
_audit_creation_method	'MofGen! by Chris Wilmer'
_symmetry_space_group_name_H-M	'P1'
_symmetry_Int_Tables_number	1
_symmetry_cell_setting	triclinic
loop_
_symmetry_equiv_pos_as_xyz
  x,y,z
_cell_length_a	23.532407
_cell_length_b	23.532407
_cell_length_c	22.010155
_cell_angle_alpha	90.000423
_cell_angle_beta	90.001992
_cell_angle_gamma	82.848674
loop_
_atom_site_label
_atom_site_type_symbol
_atom_site_fract_x
_atom_site_fract_y
_atom_site_fract_z
O1	O	-0.755264	-0.069127	-0.050440
O2	O	-0.255264	0.430873	0.449560
O3	O	-0.589400	-0.079130	-0.050462
O4	O	-0.089400	0.420870	0.449538
O5	O	-0.677334	0.008803	-0.050439
O6	O	-0.177334	0.508803	0.449561
O7	O	-0.667330	-0.157060	-0.050463
O8	O	-0.167330	0.342940	0.449537
O9	O	-0.677318	0.008790	0.050611
O10	O	-0.177318	0.508790	0.550611
O11	O	-0.589384	-0.079143	0.050588
O12	O	-0.089384	0.420857	0.550588
O13	O	-0.755248	-0.069140	0.050610
O14	O	-0.255248	0.430860	0.550610
Cu15	Cu	-0.672315	-0.074143	0.059826
Cu16	Cu	-0.172315	0.425857	0.559826
Cu17	Cu	-0.672333	-0.074127	-0.059678
Cu18	Cu	-0.172333	0.425873	0.440322
O19	O	-0.667314	-0.157073	0.050587
O20	O	-0.167314	0.342927	0.550587
C21	C	-0.568176	-0.078882	0.000060
C22	C	-0.068176	0.421118	0.500060
C23	C	-0.504959	-0.078116	0.000052
C24	C	-0.004959	0.421884	0.500052
C25	C	-0.677071	0.030013	0.000087
C26	C	-0.177071	0.530013	0.500087
C27	C	-0.676305	0.093230	0.000092
C28	C	-0.176305	0.593230	0.500092
N29	N	-0.672305	-0.074153	0.143878
N30	N	-0.172305	0.425847	0.643878
C31	C	-0.105856	-0.125350	0.000065
C32	C	0.394144	0.374650	0.500065
C33	C	-0.046456	-0.124638	0.000068
C34	C	0.453544	0.375362	0.500068
O35	O	-0.009711	-0.168424	0.000083
O36	O	0.490289	0.331576	0.500083
N37	N	-0.023830	-0.072362	0.000074
N38	N	0.476170	0.427638	0.500074
C39	C	-0.060607	-0.020794	0.000083
C40	C	0.439393	0.479206	0.500083
O41	O	-0.035908	0.023737	0.000089
O42	O	0.464092	0.523737	0.500089
C43	C	-0.120006	-0.021506	0.000085
C44	C	0.379994	0.478494	0.500085
C45	C	-0.142629	-0.073785	0.000073
C46	C	0.357371	0.426215	0.500073
C47	C	-0.128479	-0.177625	0.000054
C48	C	0.371521	0.322375	0.500054
C49	C	-0.187876	-0.178336	0.000050
C50	C	0.312124	0.321664	0.500050
C51	C	-0.224649	-0.126772	0.000058
C52	C	0.275351	0.373228	0.500058
C53	C	-0.202025	-0.074496	0.000069
C54	C	0.297975	0.425504	0.500069
C55	C	-0.156783	0.030062	0.000099
C56	C	0.343217	0.530062	0.500099
C57	C	-0.216185	0.029345	0.000101
C58	C	0.283815	0.529345	0.500101
C59	C	-0.238808	-0.022934	0.000089
C60	C	0.261192	0.477066	0.500089
C61	C	-0.298194	-0.023643	0.000073
C62	C	0.201806	0.476357	0.500073
N63	N	-0.320820	-0.075920	0.000067
N64	N	0.179180	0.424080	0.500067
C65	C	-0.284048	-0.127484	0.000059
C66	C	0.215952	0.372516	0.500059
C67	C	0.064135	-0.019302	0.000081
C68	C	0.564135	0.480698	0.500081
C69	C	0.123533	-0.018589	0.000075
C70	C	0.623533	0.481411	0.500075
C71	C	0.137680	-0.122434	0.000060
C72	C	0.637680	0.377566	0.500060
C73	C	0.078281	-0.123146	0.000062
C74	C	0.578281	0.376854	0.500062
C75	C	0.041509	-0.071578	0.000075
C76	C	0.541509	0.428422	0.500075
C77	C	-0.408784	-0.128974	0.000051
C78	C	0.091216	0.371026	0.500051
C79	C	-0.468186	-0.129680	0.000045
C80	C	0.031814	0.370320	0.500045
C81	C	-0.482329	-0.025836	0.000062
C82	C	0.017671	0.474164	0.500062
C83	C	-0.422932	-0.025129	0.000065
C84	C	0.077068	0.474871	0.500065
C85	C	-0.386160	-0.076702	0.000062
C86	C	0.113840	0.423298	0.500062
O87	O	-0.334974	0.020119	0.000060
O88	O	0.165026	0.520119	0.500060
O89	O	-0.308755	-0.172007	0.000062
O90	O	0.191245	0.327993	0.500062
C91	C	0.223528	-0.069388	0.000081
C92	C	0.723528	0.430612	0.500081
C93	C	0.160311	-0.070154	0.000070
C94	C	0.660311	0.429846	0.500070
C95	C	-0.667577	-0.178283	0.000059
C96	C	-0.167577	0.321717	0.500059
C97	C	-0.668343	-0.241500	0.000051
C98	C	-0.168343	0.258500	0.500051
C99	C	-0.723539	0.492333	0.000065
C100	C	-0.223539	0.992333	0.500065
C101	C	-0.722827	0.551733	0.000060
C102	C	-0.222827	1.051733	0.500060
O103	O	-0.766613	0.588478	0.000043
O104	O	-0.266613	1.088478	0.500043
N105	N	-0.670551	0.574359	0.000054
N106	N	-0.170551	1.074359	0.500054
C107	C	-0.618983	0.537582	0.000046
C108	C	-0.118983	1.037582	0.500046
O109	O	-0.574452	0.562281	0.000039
O110	O	-0.074452	1.062281	0.500039
C111	C	-0.619695	0.478183	0.000046
C112	C	-0.119695	0.978183	0.500046
C113	C	-0.671974	0.455560	0.000059
C114	C	-0.171974	0.955560	0.500059
C115	C	-0.775814	0.469710	0.000077
C116	C	-0.275814	0.969710	0.500077
C117	C	-0.776525	0.410313	0.000083
C118	C	-0.276525	0.910313	0.500083
C119	C	-0.724961	0.373541	0.000076
C120	C	-0.224961	0.873541	0.500076
C121	C	-0.672685	0.396164	0.000064
C122	C	-0.172685	0.896164	0.500064
C123	C	-0.568127	0.441406	0.000034
C124	C	-0.068127	0.941406	0.500034
C125	C	-0.568844	0.382004	0.000034
C126	C	-0.068844	0.882004	0.500034
C127	C	-0.621123	0.359381	0.000046
C128	C	-0.121123	0.859381	0.500046
C129	C	-0.621832	0.299995	0.000064
C130	C	-0.121832	0.799995	0.500064
N131	N	-0.674109	0.277369	0.000071
N132	N	-0.174109	0.777369	0.500071
C133	C	-0.725673	0.314141	0.000077
C134	C	-0.225673	0.814141	0.500077
C135	C	-0.617491	0.662324	0.000044
C136	C	-0.117491	1.162324	0.500044
C137	C	-0.616778	0.721722	0.000048
C138	C	-0.116778	1.221722	0.500048
C139	C	-0.720623	0.735869	0.000061
C140	C	-0.220623	1.235869	0.500061
C141	C	-0.721335	0.676470	0.000061
C142	C	-0.221335	1.176470	0.500061
C143	C	-0.669767	0.639698	0.000050
C144	C	-0.169767	1.139698	0.500050
C145	C	-0.727163	0.189405	0.000090
C146	C	-0.227163	0.689405	0.500090
C147	C	-0.727869	0.130003	0.000098
C148	C	-0.227869	0.630003	0.500098
C149	C	-0.624025	0.115860	0.000081
C150	C	-0.124025	0.615860	0.500081
C151	C	-0.623318	0.175257	0.000076
C152	C	-0.123318	0.675257	0.500076
C153	C	-0.674891	0.212029	0.000078
C154	C	-0.174891	0.712029	0.500078
O155	O	-0.578070	0.263215	0.000078
O156	O	-0.078070	0.763215	0.500078
O157	O	-0.770196	0.289434	0.000075
O158	O	-0.270196	0.789434	0.500075
N159	N	-0.672347	-0.074112	-0.143730
N160	N	-0.172347	0.425888	0.356270
C161	C	-0.711273	-0.035196	0.563668
C162	C	-0.211273	0.464804	1.063668
C163	C	-0.711275	-0.035192	0.627275
C164	C	-0.211275	0.464808	1.127275
O165	O	-0.744384	-0.002076	0.660175
O166	O	-0.244384	0.497924	1.160175
N167	N	-0.672333	-0.074115	0.659085
N168	N	-0.172333	0.425885	1.159085
C169	C	-0.633382	-0.113041	0.627284
C170	C	-0.133382	0.386959	1.127284
O171	O	-0.600259	-0.146148	0.660182
O172	O	-0.100259	0.353852	1.160182
C173	C	-0.633377	-0.113042	0.563678
C174	C	-0.133377	0.386958	1.063678
C175	C	-0.672326	-0.074120	0.531871
C176	C	-0.172326	0.425880	1.031871
C177	C	-0.750217	0.003723	0.531861
C178	C	-0.250217	0.503723	1.031861
C179	C	-0.750215	0.003719	0.468258
C180	C	-0.250215	0.503719	0.968258
C181	C	-0.711268	-0.035205	0.436461
C182	C	-0.211268	0.464795	0.936461
C183	C	-0.672324	-0.074125	0.468268
C184	C	-0.172324	0.425875	0.968268
C185	C	-0.594424	-0.151965	0.531878
C186	C	-0.094424	0.348035	1.031878
C187	C	-0.594422	-0.151962	0.468268
C188	C	-0.094422	0.348038	0.968268
C189	C	-0.633370	-0.113040	0.436461
C190	C	-0.133370	0.386960	0.936461
C191	C	-0.633374	-0.113054	0.372868
C192	C	-0.133374	0.386946	0.872868
N193	N	-0.672317	-0.074130	0.341058
N194	N	-0.172317	0.425870	0.841058
C195	C	-0.711263	-0.035206	0.372855
C196	C	-0.211263	0.464794	0.872855
C197	C	-0.633395	-0.113036	0.760862
C198	C	-0.133395	0.386964	1.260862
C199	C	-0.633402	-0.113039	0.824468
C200	C	-0.133402	0.386961	1.324468
C201	C	-0.711294	-0.035188	0.824454
C202	C	-0.211294	0.464812	1.324454
C203	C	-0.711290	-0.035189	0.760848
C204	C	-0.211290	0.464811	1.260848
C205	C	-0.672337	-0.074113	0.729052
C206	C	-0.172337	0.425887	1.229052
C207	C	-0.711256	-0.035219	0.239284
C208	C	-0.211256	0.464781	0.739284
C209	C	-0.711252	-0.035229	0.175675
C210	C	-0.211252	0.464771	0.675675
C211	C	-0.633358	-0.113077	0.175694
C212	C	-0.133358	0.386923	0.675694
C213	C	-0.633364	-0.113070	0.239297
C214	C	-0.133364	0.386930	0.739297
C215	C	-0.672315	-0.074136	0.271090
C216	C	-0.172315	0.425864	0.771090
O217	O	-0.600282	-0.146151	0.339928
O218	O	-0.100282	0.353849	0.839928
O219	O	-0.744376	-0.002100	0.339950
O220	O	-0.244376	0.497900	0.839950
H221	H	-0.486602	-0.172254	0.000034
H222	H	0.013398	0.327746	0.500034
H223	H	-0.378851	-0.170970	0.000050
H224	H	0.121149	0.329030	0.500050
H225	H	-0.762610	0.765821	0.000064
H226	H	-0.262610	1.265821	0.500064
H227	H	-0.582043	0.085909	0.000079
H228	H	-0.082043	0.585909	0.500079
H229	H	-0.525555	0.459814	0.000020
H230	H	-0.025555	0.959814	0.500020
H231	H	0.167632	-0.164421	0.000057
H232	H	0.667632	0.335579	0.500057
H233	H	-0.819097	0.391900	0.000090
H234	H	-0.319097	0.891900	0.500090
H235	H	0.034198	0.022693	0.000085
H236	H	0.534198	0.522693	0.500085
H237	H	-0.817806	0.499645	0.000080
H238	H	-0.317806	0.999645	0.500080
H239	H	-0.742971	-0.003534	0.149780
H240	H	-0.242971	0.496466	0.649780
H241	H	-0.138375	0.072634	0.000109
H242	H	0.361625	0.572634	0.500109
H243	H	-0.246123	0.071339	0.000112
H244	H	0.253877	0.571339	0.500112
H245	H	-0.404512	0.017441	0.000066
H246	H	0.095488	0.517441	0.500066
H247	H	-0.763906	0.658056	0.000071
H248	H	-0.263906	1.158056	0.500071
H249	H	-0.601654	-0.144769	0.265195
H250	H	-0.101654	0.355231	0.765195
H251	H	-0.512280	0.016146	0.000066
H252	H	-0.012280	0.516146	0.500066
H253	H	-0.574207	0.740136	0.000048
H254	H	-0.074207	1.240136	0.500048
H255	H	-0.575496	0.632387	0.000040
H256	H	-0.075496	1.132387	0.500040
H257	H	-0.098544	-0.219617	0.000050
H258	H	0.401456	0.280383	0.500050
H259	H	-0.742973	-0.003515	0.265163
H260	H	-0.242973	0.496485	0.765163
H261	H	-0.770443	0.111587	0.000110
H262	H	-0.270443	0.611587	0.500110
H263	H	-0.601650	-0.144771	0.149795
H264	H	-0.101650	0.355229	0.649795
H265	H	-0.526850	0.352066	0.000023
H266	H	-0.026850	0.852066	0.500023
H267	H	-0.206289	-0.220908	0.000040
H268	H	0.293711	0.279092	0.500040
H269	H	0.141947	0.023982	0.000075
H270	H	0.641947	0.523982	0.500075
H271	H	0.059867	-0.165717	0.000056
H272	H	0.559867	0.334283	0.500056
H273	H	-0.769159	0.219338	0.000089
H274	H	-0.269159	0.719338	0.500089
H275	H	-0.580748	0.193677	0.000083
H276	H	-0.080748	0.693677	0.500083
H277	H	-0.781933	0.035423	0.557744
H278	H	-0.281933	0.535423	1.057744
H279	H	-0.743004	-0.003495	0.734954
H280	H	-0.243004	0.496505	1.234954
H281	H	-0.781929	0.035414	0.442364
H282	H	-0.281929	0.535414	0.942364
H283	H	-0.743007	-0.003493	0.850354
H284	H	-0.243007	0.496507	1.350354
H285	H	-0.601692	-0.144738	0.850360
H286	H	-0.101692	0.355262	1.350360
H287	H	-0.601676	-0.144737	0.734978
H288	H	-0.101676	0.355263	1.234978
H289	H	-0.562708	-0.183658	0.557767
H290	H	-0.062708	0.316342	1.057767
H291	H	-0.562700	-0.183658	0.442383
H292	H	-0.062700	0.316342	0.942383
