data_functionalizedCrystal
_audit_creation_method	'MofGen! by Chris Wilmer'
_symmetry_space_group_name_H-M	'P1'
_symmetry_Int_Tables_number	1
_symmetry_cell_setting	triclinic
loop_
_symmetry_equiv_pos_as_xyz
  x,y,z
_cell_length_a	11.169416
_cell_length_b	11.169417
_cell_length_c	11.169409
_cell_angle_alpha	90.021683
_cell_angle_beta	89.970483
_cell_angle_gamma	89.996824
loop_
_atom_site_label
_atom_site_type_symbol
_atom_site_fract_x
_atom_site_fract_y
_atom_site_fract_z
Zn1	Zn	-0.477744	-1.835013	-0.678626
Zn2	Zn	-0.678484	-1.834924	-0.477953
Zn3	Zn	-0.477810	-1.634299	-0.477954
Zn4	Zn	-0.678380	-1.634328	-0.678591
O5	O	-0.578105	-1.734641	-0.578281
O6	O	-0.504389	-2.002951	-0.652020
O7	O	-0.651936	-1.808261	-0.310003
O8	O	-0.309852	-1.660950	-0.504588
O9	O	-0.651872	-2.002885	-0.504586
O10	O	-0.309803	-1.808413	-0.652021
O11	O	-0.504502	-1.660863	-0.310004
O12	O	-0.504400	-1.466353	-0.504554
O13	O	-0.651694	-1.660999	-0.846545
O14	O	-0.651758	-1.466374	-0.651962
O15	O	-0.504287	-1.808441	-0.846571
O16	O	-0.846420	-1.808289	-0.504553
O17	O	-0.846343	-1.660912	-0.651961
C18	C	-0.578076	-1.422816	-0.578255
C19	C	-0.578092	-1.289416	-0.578273
C20	C	-0.889929	-1.734627	-0.578279
C21	C	-1.023329	-1.734730	-0.578318
C22	C	-0.265062	-1.734688	-0.578309
C23	C	-0.131662	-1.734708	-0.578321
C24	C	-0.577971	-1.734733	-0.891323
C25	C	-0.577915	-1.734772	-1.024723
C26	C	-0.578124	-1.047683	-0.578298
C27	C	-0.578107	-1.181083	-0.578280
C28	C	-0.578151	-1.734618	-0.266456
C29	C	-0.577869	-1.734812	-0.133057
