data_functionalizedCrystal
_audit_creation_method	'MofGen! by Chris Wilmer'
_symmetry_space_group_name_H-M	'P1'
_symmetry_Int_Tables_number	1
_symmetry_cell_setting	triclinic
loop_
_symmetry_equiv_pos_as_xyz
  x,y,z
_cell_length_a	23.532407
_cell_length_b	23.532407
_cell_length_c	22.610064
_cell_angle_alpha	90.005928
_cell_angle_beta	90.004154
_cell_angle_gamma	97.151323
loop_
_atom_site_label
_atom_site_type_symbol
_atom_site_fract_x
_atom_site_fract_y
_atom_site_fract_z
O1	O	0.755259	-0.069122	0.049224
O2	O	0.589395	-0.079125	0.049218
O3	O	0.677329	0.008808	0.049210
O4	O	0.667325	-0.157056	0.049232
O5	O	0.677323	0.008785	-0.049159
O6	O	0.589389	-0.079148	-0.049151
O7	O	0.755253	-0.069145	-0.049146
Zn8	Zn	0.672320	-0.074150	-0.064766
Zn9	Zn	0.672328	-0.074120	0.064839
O10	O	0.667319	-0.157078	-0.049138
C11	C	0.568176	-0.078882	0.000033
C12	C	0.504959	-0.078116	0.000030
C13	C	0.677071	0.030013	0.000024
C14	C	0.676305	0.093230	0.000020
N15	N	0.672319	-0.074170	-0.153219
C16	C	0.776472	-0.069388	0.000041
C17	C	0.839689	-0.070154	0.000048
C18	C	1.238792	-0.022921	0.000021
C19	C	1.298192	-0.023632	0.000018
O20	O	1.334937	0.020154	-0.000008
N21	N	1.320818	-0.075908	0.000027
C22	C	1.284041	-0.127477	0.000032
O23	O	1.308740	-0.172007	0.000038
C24	C	1.224642	-0.126765	0.000030
C25	C	1.202019	-0.074485	0.000028
C26	C	1.216169	0.029355	0.000018
C27	C	1.156772	0.030066	0.000022
C28	C	1.120000	-0.021498	0.000028
C29	C	1.142623	-0.073774	0.000031
C30	C	1.187865	-0.178332	0.000031
C31	C	1.128463	-0.177616	0.000029
C32	C	1.105840	-0.125336	0.000026
C33	C	1.046454	-0.124627	0.000042
N34	N	1.023828	-0.072350	0.000033
C35	C	1.060601	-0.020786	0.000027
C36	C	1.408783	-0.128968	0.000034
C37	C	1.468181	-0.129681	0.000040
C38	C	1.482329	-0.025836	0.000026
C39	C	1.422929	-0.025124	0.000024
C40	C	1.386157	-0.076692	0.000026
C41	C	0.935864	-0.019296	0.000035
C42	C	0.876462	-0.018590	0.000041
C43	C	0.862320	-0.122434	0.000052
C44	C	0.921716	-0.123141	0.000049
C45	C	0.958488	-0.071568	0.000038
O46	O	1.009675	-0.168390	0.000066
O47	O	1.035893	0.023737	0.000012
C48	C	0.667577	-0.178283	0.000050
C49	C	0.668343	-0.241500	0.000058
C50	C	0.723539	0.492333	0.000054
C51	C	0.722827	0.551733	0.000058
O52	O	0.766613	0.588478	0.000081
N53	N	0.670551	0.574359	0.000056
C54	C	0.618983	0.537582	0.000055
O55	O	0.574452	0.562281	0.000055
C56	C	0.619695	0.478183	0.000055
C57	C	0.671974	0.455560	0.000051
C58	C	0.775814	0.469710	0.000050
C59	C	0.776525	0.410313	0.000045
C60	C	0.724961	0.373540	0.000042
C61	C	0.672685	0.396164	0.000046
C62	C	0.568127	0.441406	0.000059
C63	C	0.568844	0.382004	0.000059
C64	C	0.621123	0.359381	0.000055
C65	C	0.621832	0.299995	0.000038
N66	N	0.674109	0.277369	0.000040
C67	C	0.725673	0.314141	0.000042
C68	C	0.617491	0.662324	0.000057
C69	C	0.616778	0.721722	0.000053
C70	C	0.720623	0.735869	0.000057
C71	C	0.721335	0.676470	0.000056
C72	C	0.669767	0.639698	0.000059
C73	C	0.727163	0.189405	0.000030
C74	C	0.727869	0.130003	0.000022
C75	C	0.624025	0.115860	0.000021
C76	C	0.623318	0.175257	0.000026
C77	C	0.674891	0.212029	0.000033
O78	O	0.578070	0.263215	0.000017
O79	O	0.770196	0.289434	0.000051
C80	C	0.633369	-0.113059	-0.438063
C81	C	0.633368	-0.113065	-0.376143
O82	O	0.600234	-0.146156	-0.344122
N83	N	0.672315	-0.074147	-0.345171
C84	C	0.711262	-0.035217	-0.376122
O85	O	0.744389	-0.002114	-0.344092
C86	C	0.711260	-0.035209	-0.438041
C87	C	0.672315	-0.074134	-0.469010
C88	C	0.594426	-0.151980	-0.469033
C89	C	0.594429	-0.151975	-0.530948
C90	C	0.633374	-0.113050	-0.561895
C91	C	0.672317	-0.074129	-0.530925
C92	C	0.750205	0.003723	-0.468990
C93	C	0.750199	0.003728	-0.530913
C94	C	0.711254	-0.035197	-0.561883
C95	C	0.711265	-0.035198	-0.623788
N96	N	0.672318	-0.074116	-0.654760
C97	C	0.633373	-0.113042	-0.623813
C98	C	0.711262	-0.035235	-0.246088
C99	C	0.711266	-0.035245	-0.184171
C100	C	0.633371	-0.113093	-0.184197
C101	C	0.633370	-0.113085	-0.246115
C102	C	0.672315	-0.074154	-0.277061
C103	C	0.633381	-0.113029	-0.753841
C104	C	0.633388	-0.113022	-0.815762
C105	C	0.711281	-0.035172	-0.815731
C106	C	0.711276	-0.035181	-0.753815
C107	C	0.672321	-0.074111	-0.722872
O108	O	0.744380	-0.002122	-0.655849
O109	O	0.600246	-0.146134	-0.655851
N110	N	0.672334	-0.074096	0.153292
H111	H	0.965797	0.022700	0.000026
H112	H	0.742992	-0.003481	-0.840937
O113	O	0.513220	0.342345	0.000059
H114	H	0.522493	0.297239	0.000059
O115	O	0.566933	0.199664	0.000018
H116	H	0.564128	0.226391	0.040113
O117	O	1.369126	-0.184594	0.000045
H118	H	1.341725	-0.186771	-0.040051
H119	H	0.582043	0.085909	0.000017
H120	H	0.601674	-0.144721	-0.840975
H121	H	0.781913	0.035433	-0.556106
O122	O	0.792205	0.045712	-0.435596
H123	H	0.819275	0.072783	-0.467527
H124	H	0.817806	0.499645	0.000054
O125	O	1.521997	0.029782	0.000007
H126	H	1.549409	0.031951	0.040095
H127	H	1.206274	-0.220904	0.000036
O128	O	0.852060	0.037799	0.000030
H129	H	0.887614	0.073534	0.000017
O130	O	0.753271	0.006801	-0.720396
H131	H	0.797631	-0.000217	-0.732265
H132	H	0.742986	-0.003555	-0.158960
O133	O	1.088801	-0.233237	0.000026
H134	H	1.061400	-0.235391	0.040118
O135	O	0.822649	-0.178047	0.000050
H136	H	0.795245	-0.180198	0.040139
O137	O	1.132375	0.086453	0.000004
H138	H	1.167932	0.122184	-0.000010
H139	H	1.486595	-0.172252	0.000051
H140	H	1.246104	0.071347	0.000010
O141	O	0.777721	0.652071	0.000063
H142	H	0.813454	0.687626	0.000070
H143	H	0.601660	-0.144729	-0.728654
O144	O	0.552440	-0.193976	-0.564348
H145	H	0.525367	-0.221044	-0.532418
H146	H	1.404515	0.017447	0.000022
H147	H	0.742980	-0.003534	-0.271281
O148	O	0.946123	-0.179526	0.000054
H149	H	0.910570	-0.215262	0.000057
H150	H	0.770444	0.111587	0.000017
H151	H	0.769159	0.219337	0.000037
H152	H	0.819097	0.391900	0.000044
O153	O	0.561865	0.622668	0.000046
H154	H	0.559696	0.595271	0.040140
H155	H	0.601657	-0.144781	-0.271327
H156	H	0.762610	0.765821	0.000061
O157	O	0.560392	0.746121	0.000049
H158	H	0.524659	0.710565	0.000050
H159	H	0.525555	0.459814	0.000066
O160	O	0.552421	-0.193972	-0.435659
H161	H	0.525349	-0.221033	-0.467606
H162	H	0.601659	-0.144788	-0.158989
