data_functionalizedCrystal
_audit_creation_method	'MofGen! by Chris Wilmer'
_symmetry_space_group_name_H-M	'P1'
_symmetry_Int_Tables_number	1
_symmetry_cell_setting	triclinic
loop_
_symmetry_equiv_pos_as_xyz
  x,y,z
_cell_length_a	17.699104
_cell_length_b	10.723024
_cell_length_c	16.776229
_cell_angle_alpha	90.000530
_cell_angle_beta	89.991985
_cell_angle_gamma	83.879693
loop_
_atom_site_label
_atom_site_type_symbol
_atom_site_fract_x
_atom_site_fract_y
_atom_site_fract_z
O1	O	1.005065	0.157910	-0.066302
O2	O	0.784818	0.178413	-0.066300
O3	O	0.900022	-0.013501	-0.066298
O4	O	0.889862	0.349824	-0.066304
O5	O	0.900005	-0.013491	0.066278
O6	O	0.784802	0.178423	0.066276
O7	O	1.005048	0.157920	0.066274
Zn8	Zn	0.894922	0.168173	0.087325
Zn9	Zn	0.894945	0.168160	-0.087351
O10	O	0.889845	0.349834	0.066272
C11	C	0.756609	0.177679	-0.000012
C12	C	0.672577	0.175461	-0.000011
C13	C	0.148338	0.275607	-0.000021
C14	C	0.227295	0.277682	-0.000023
C15	C	0.275202	0.165022	-0.000021
C16	C	0.244148	0.050277	-0.000025
C17	C	0.165193	0.048203	-0.000028
C18	C	0.562567	0.058641	-0.000012
C19	C	0.641527	0.060725	-0.000006
C20	C	0.624669	0.288121	-0.000007
C21	C	0.545714	0.286046	-0.000010
C22	C	0.514667	0.171303	-0.000018
C23	C	0.429053	0.169054	-0.000017
C24	C	0.360815	0.167270	-0.000016
C25	C	0.899274	-0.059983	-0.000011
C26	C	0.897062	-0.198500	-0.000014
C27	C	0.961524	-0.274580	-0.000016
C28	C	0.959239	-0.417744	-0.000018
C29	C	1.033258	0.158654	-0.000016
C30	C	1.117290	0.160871	-0.000022
C31	C	0.890593	0.396316	-0.000017
C32	C	0.892805	0.534833	-0.000019
N33	N	0.894913	0.168181	0.206536
N34	N	0.894960	0.168141	-0.206562
C35	C	0.945979	0.083193	0.751701
C36	C	0.945975	0.083201	0.668249
C37	C	0.894949	0.168154	0.626535
C38	C	0.843928	0.253112	0.668278
C39	C	0.843935	0.253108	0.751729
C40	C	0.843895	0.253130	0.331731
C41	C	0.843890	0.253125	0.248274
C42	C	0.945935	0.083224	0.248251
C43	C	0.945943	0.083220	0.331702
C44	C	0.894925	0.168182	0.373437
C45	C	0.894930	0.168173	0.463926
C46	C	0.894939	0.168158	0.536048
H47	H	0.649956	0.381550	-0.000004
F48	F	1.031372	-0.503186	-0.000015
H49	H	0.802392	0.322283	0.785710
F50	F	1.000249	-0.007202	0.376094
F51	F	1.035873	-0.221188	-0.000021
F52	F	0.820669	-0.379733	-0.000011
H53	H	0.802336	0.322309	0.214312
H54	H	0.840182	-0.239354	-0.000018
F55	F	1.000286	-0.007234	0.796089
F56	F	1.000276	-0.007209	0.623830
H57	H	0.987479	0.014047	0.214262
H58	H	0.680532	-0.031023	-0.000007
F59	F	0.494731	0.405955	-0.000010
F60	F	0.789597	0.343548	0.376142
F61	F	0.789624	0.343532	0.623882
H62	H	0.109337	0.367349	-0.000016
F63	F	0.132150	-0.073914	-0.000030
H64	H	0.537299	-0.034789	-0.000017
F65	F	0.295137	-0.069625	-0.000026
F66	F	0.260335	0.399800	-0.000025
