data_functionalizedCrystal
_audit_creation_method	'MofGen! by Chris Wilmer'
_symmetry_space_group_name_H-M	'P1'
_symmetry_Int_Tables_number	1
_symmetry_cell_setting	triclinic
loop_
_symmetry_equiv_pos_as_xyz
  x,y,z
_cell_length_a	12.827892
_cell_length_b	10.685972
_cell_length_c	10.686551
_cell_angle_alpha	98.409768
_cell_angle_beta	85.594922
_cell_angle_gamma	85.619715
loop_
_atom_site_label
_atom_site_type_symbol
_atom_site_fract_x
_atom_site_fract_y
_atom_site_fract_z
Zn1	Zn	-0.234280	-1.995790	-0.866755
Zn2	Zn	-0.423593	-1.979366	-0.654494
Zn3	Zn	-0.263359	-1.767216	-0.638214
Zn4	Zn	-0.423487	-1.783489	-0.850400
O5	O	-0.336180	-1.881465	-0.752466
O6	O	-0.247268	-2.171245	-0.852256
O7	O	-0.414552	-1.937540	-0.474702
O8	O	-0.113260	-1.797600	-0.668562
O9	O	-0.386355	-2.159178	-0.696309
O10	O	-0.091895	-1.965532	-0.836470
O11	O	-0.296829	-1.781674	-0.462742
O12	O	-0.296726	-1.591741	-0.652703
O13	O	-0.386174	-1.825335	-1.030201
O14	O	-0.414370	-1.603696	-0.808595
O15	O	-0.247164	-1.981311	-1.042218
O16	O	-0.569821	-1.953319	-0.680450
O17	O	-0.569743	-1.809409	-0.824381
C18	C	-0.358693	-1.551660	-0.727109
C19	C	-0.368347	-1.410570	-0.716291
C20	C	-0.607697	-1.881384	-0.752437
C21	C	-0.723842	-1.881469	-0.752476
C22	C	-0.775619	-1.952778	-0.681347
C23	C	-0.895661	-1.952867	-0.681386
C24	C	-0.063598	-1.881583	-0.752525
C25	C	0.052560	-1.881634	-0.752550
C26	C	-0.313413	-1.906970	-1.083555
C27	C	-0.303712	-1.917839	-1.224646
C28	C	-0.313573	-1.212557	-0.777917
C29	C	-0.303923	-1.353648	-0.788747
C30	C	-0.358777	-1.856132	-0.422670
C31	C	-0.368168	-1.845509	-0.281599
H32	H	-0.241375	-1.412852	-0.859054
H33	H	-0.430893	-1.351359	-0.645971
H34	H	-0.731078	-2.013769	-0.620427
H35	H	-0.902922	-1.820574	-0.813444
C36	C	-0.219126	-2.012736	-1.304598
N37	N	-0.155415	-2.084209	-1.364819
C38	C	-0.955812	-2.035344	-0.599112
N39	N	-1.001120	-2.097468	-0.537141
H40	H	-0.768384	-1.820490	-0.813407
C41	C	-0.452746	-1.750613	-1.201652
N42	N	-0.516450	-1.679134	-1.141428
