data_functionalizedCrystal
_audit_creation_method	'MofGen! by Chris Wilmer'
_symmetry_space_group_name_H-M	'P1'
_symmetry_Int_Tables_number	1
_symmetry_cell_setting	triclinic
loop_
_symmetry_equiv_pos_as_xyz
  x,y,z
_cell_length_a	16.120530
_cell_length_b	16.120484
_cell_length_c	16.120297
_cell_angle_alpha	95.614431
_cell_angle_beta	90.128140
_cell_angle_gamma	90.167327
loop_
_atom_site_label
_atom_site_type_symbol
_atom_site_fract_x
_atom_site_fract_y
_atom_site_fract_z
Zn1	Zn	1.224987	-0.422264	-0.554813
Zn2	Zn	1.474987	-0.172264	-0.304813
Zn3	Zn	1.724987	0.077736	-0.054813
Zn4	Zn	1.974987	0.327736	0.195187
Zn5	Zn	1.224883	-0.554948	-0.422118
Zn6	Zn	1.474883	-0.304948	-0.172118
Zn7	Zn	1.724883	-0.054948	0.077882
Zn8	Zn	1.974883	0.195052	0.327882
Zn9	Zn	1.093726	-0.408180	-0.408056
Zn10	Zn	1.343726	-0.158180	-0.158056
Zn11	Zn	1.593726	0.091820	0.091944
Zn12	Zn	1.843726	0.341820	0.341944
Zn13	Zn	1.078880	-0.554181	-0.554051
Zn14	Zn	1.328880	-0.304181	-0.304051
Zn15	Zn	1.578880	-0.054181	-0.054051
Zn16	Zn	1.828880	0.195819	0.195949
O17	O	1.155619	-0.484893	-0.484760
O18	O	1.405619	-0.234893	-0.234760
O19	O	1.655619	0.015107	0.015240
O20	O	1.905619	0.265107	0.265240
O21	O	1.341009	-0.446081	-0.543415
O22	O	1.591009	-0.196081	-0.293415
O23	O	1.841009	0.053919	-0.043415
O24	O	2.091009	0.303919	0.206585
O25	O	1.213654	-0.529906	-0.303620
O26	O	1.463654	-0.279906	-0.053620
O27	O	1.713654	-0.029906	0.196380
O28	O	1.963654	0.220094	0.446380
O29	O	1.117395	-0.293418	-0.421958
O30	O	1.367395	-0.043418	-0.171958
O31	O	1.617395	0.206582	0.078042
O32	O	1.867395	0.456582	0.328042
O33	O	1.340932	-0.543563	-0.445925
O34	O	1.590932	-0.293563	-0.195925
O35	O	1.840932	-0.043563	0.054075
O36	O	2.090932	0.206437	0.304075
O37	O	1.213832	-0.303765	-0.529780
O38	O	1.463832	-0.053765	-0.279780
O39	O	1.713832	0.196235	-0.029780
O40	O	1.963832	0.446235	0.220220
O41	O	1.117294	-0.422076	-0.293289
O42	O	1.367294	-0.172076	-0.043289
O43	O	1.617294	0.077924	0.206711
O44	O	1.867294	0.327924	0.456711
O45	O	0.975721	-0.421332	-0.421218
O46	O	1.225721	-0.171332	-0.171218
O47	O	1.475721	0.078668	0.078782
O48	O	1.725721	0.328668	0.328782
O49	O	1.092092	-0.542255	-0.670785
O50	O	1.342092	-0.292255	-0.420785
O51	O	1.592092	-0.042255	-0.170785
O52	O	1.842092	0.207745	0.079215
O53	O	0.964814	-0.528598	-0.528480
O54	O	1.214814	-0.278598	-0.278480
O55	O	1.464814	-0.028598	-0.028480
O56	O	1.714814	0.221402	0.221520
O57	O	1.199436	-0.445336	-0.671345
O58	O	1.449436	-0.195336	-0.421345
O59	O	1.699436	0.054664	-0.171345
O60	O	1.949436	0.304664	0.078655
O61	O	1.199258	-0.671477	-0.445185
O62	O	1.449258	-0.421477	-0.195185
O63	O	1.699258	-0.171477	0.054815
O64	O	1.949258	0.078523	0.304815
O65	O	1.091990	-0.670913	-0.542116
O66	O	1.341990	-0.420913	-0.292116
O67	O	1.591990	-0.170913	-0.042116
O68	O	1.841990	0.079087	0.207884
C69	C	0.940181	-0.473354	-0.473241
C70	C	1.190181	-0.223354	-0.223241
C71	C	1.440181	0.026646	0.026759
C72	C	1.690181	0.276646	0.276759
C73	C	0.848013	-0.468438	-0.468334
C74	C	1.098013	-0.218438	-0.218334
C75	C	1.348013	0.031562	0.031666
C76	C	1.598013	0.281562	0.281666
C77	C	0.679262	-0.459445	-0.459381
C78	C	0.929262	-0.209445	-0.209381
C79	C	1.179262	0.040555	0.040619
C80	C	1.429262	0.290555	0.290619
C81	C	0.632810	-0.510407	-0.510202
C82	C	0.882810	-0.260407	-0.260202
C83	C	1.132810	-0.010407	-0.010202
C84	C	1.382810	0.239593	0.239798
C85	C	0.538911	-0.505403	-0.505220
C86	C	0.788911	-0.255403	-0.255220
C87	C	1.038911	-0.005403	-0.005220
C88	C	1.288911	0.244597	0.244780
C89	C	0.773169	-0.464448	-0.464361
C90	C	1.023169	-0.214448	-0.214361
C91	C	1.273169	0.035552	0.035639
C92	C	1.523169	0.285552	0.285639
C93	C	1.144023	-0.701438	-0.495113
C94	C	1.394023	-0.451438	-0.245113
C95	C	1.644023	-0.201438	0.004887
C96	C	1.894023	0.048562	0.254887
C97	C	1.139137	-0.794083	-0.499574
C98	C	1.389137	-0.544083	-0.249574
C99	C	1.639137	-0.294083	0.000426
C100	C	1.889137	-0.044083	0.250426
C101	C	1.130220	-0.963706	-0.507736
C102	C	1.380220	-0.713706	-0.257736
C103	C	1.630220	-0.463706	-0.007736
C104	C	1.880220	-0.213706	0.242264
C105	C	1.181166	-1.005249	-0.461804
C106	C	1.431166	-0.755249	-0.211804
C107	C	1.681166	-0.505249	0.038196
C108	C	1.931166	-0.255249	0.288196
C109	C	1.176204	-1.099633	-0.466346
C110	C	1.426204	-0.849633	-0.216346
C111	C	1.676204	-0.599633	0.033654
C112	C	1.926204	-0.349633	0.283654
C113	C	1.135180	-0.869313	-0.503196
C114	C	1.385180	-0.619313	-0.253196
C115	C	1.635180	-0.369313	-0.003196
C116	C	1.885180	-0.119313	0.246804
C117	C	1.371899	-0.496479	-0.496324
C118	C	1.621899	-0.246479	-0.246324
C119	C	1.871899	0.003521	0.003676
C120	C	2.121899	0.253521	0.253676
C121	C	1.464064	-0.501416	-0.501252
C122	C	1.714064	-0.251416	-0.251252
C123	C	1.964064	-0.001416	-0.001252
C124	C	2.214064	0.248584	0.248748
C125	C	1.144119	-0.495281	-0.702152
C126	C	1.394119	-0.245281	-0.452152
C127	C	1.644119	0.004719	-0.202152
C128	C	1.894119	0.254719	0.047848
C129	C	1.139219	-0.499708	-0.794791
C130	C	1.389219	-0.249708	-0.544791
C131	C	1.639219	0.000292	-0.294791
C132	C	1.889219	0.250292	-0.044791
C133	C	1.167282	-0.267505	-0.474385
C134	C	1.417282	-0.017505	-0.224385
C135	C	1.667282	0.232495	0.025615
C136	C	1.917282	0.482495	0.275615
C137	C	1.172251	-0.174867	-0.469964
C138	C	1.422251	0.075133	-0.219964
C139	C	1.672251	0.325133	0.030036
C140	C	1.922251	0.575133	0.280036
C141	C	1.130243	-0.507770	-0.964403
C142	C	1.380243	-0.257770	-0.714403
C143	C	1.630243	-0.007770	-0.464403
C144	C	1.880243	0.242230	-0.214403
C145	C	1.181172	-0.461776	-1.005965
C146	C	1.431172	-0.211776	-0.755965
C147	C	1.681172	0.038224	-0.505965
C148	C	1.931172	0.288224	-0.255965
C149	C	1.176177	-0.466262	-1.100342
C150	C	1.426177	-0.216262	-0.850342
C151	C	1.676177	0.033738	-0.600342
C152	C	1.926177	0.283738	-0.350342
C153	C	1.135236	-0.503285	-0.870017
C154	C	1.385236	-0.253285	-0.620017
C155	C	1.635236	-0.003285	-0.370017
C156	C	1.885236	0.246715	-0.120017
C157	C	1.167125	-0.474489	-0.268213
C158	C	1.417125	-0.224489	-0.018213
C159	C	1.667125	0.025511	0.231787
C160	C	1.917125	0.275511	0.481787
C161	C	1.172198	-0.469836	-0.175571
C162	C	1.422198	-0.219836	0.074429
C163	C	1.672198	0.030164	0.324429
C164	C	1.922198	0.280164	0.574429
H165	H	1.228508	-0.969931	-0.419069
H166	H	1.478508	-0.719931	-0.169069
H167	H	1.728508	-0.469931	0.080931
H168	H	1.978508	-0.219931	0.330931
O169	O	1.073762	-1.005958	-0.558640
O170	O	1.323762	-0.755958	-0.308640
O171	O	1.573762	-0.505958	-0.058640
O172	O	1.823762	-0.255958	0.191360
C173	C	1.081326	-1.092154	-0.551902
C174	C	1.331326	-0.842154	-0.301902
C175	C	1.581326	-0.592154	-0.051902
C176	C	1.831326	-0.342154	0.198098
H177	H	1.111338	-1.102322	-0.489616
H178	H	1.361338	-0.852322	-0.239616
H179	H	1.611338	-0.602322	0.010384
H180	H	1.861338	-0.352322	0.260384
H181	H	1.017204	-1.122315	-0.555739
H182	H	1.267204	-0.872315	-0.305739
H183	H	1.517204	-0.622315	-0.055739
H184	H	1.767204	-0.372315	0.194261
H185	H	1.121551	-1.121527	-0.604899
H186	H	1.371551	-0.871527	-0.354899
H187	H	1.621551	-0.621527	-0.104899
H188	H	1.871551	-0.371527	0.145101
O189	O	1.237632	-0.410841	-0.963735
O190	O	1.487632	-0.160841	-0.713735
O191	O	1.737632	0.089159	-0.463735
O192	O	1.987632	0.339159	-0.213735
C193	C	1.230097	-0.417626	-0.877538
C194	C	1.480097	-0.167626	-0.627538
C195	C	1.730097	0.082374	-0.377538
C196	C	1.980097	0.332374	-0.127538
H197	H	1.200113	-0.479947	-0.867371
H198	H	1.450113	-0.229947	-0.617371
H199	H	1.700113	0.020053	-0.367371
H200	H	1.950113	0.270053	-0.117371
H201	H	1.294227	-0.413739	-0.847434
H202	H	1.544227	-0.163739	-0.597434
H203	H	1.794227	0.086261	-0.347434
H204	H	2.044227	0.336261	-0.097434
H205	H	1.189861	-0.364679	-0.848107
H206	H	1.439861	-0.114679	-0.598107
H207	H	1.689861	0.135321	-0.348107
H208	H	1.939861	0.385321	-0.098107
H209	H	1.082894	-0.550512	-0.999698
H210	H	1.332894	-0.300512	-0.749698
H211	H	1.582894	-0.050512	-0.499698
H212	H	1.832894	0.199488	-0.249698
O213	O	0.669624	-0.566921	-0.566497
O214	O	0.919624	-0.316921	-0.316497
O215	O	1.169624	-0.066921	-0.066497
O216	O	1.419624	0.183079	0.183503
C217	C	0.756542	-0.559392	-0.559010
C218	C	1.006542	-0.309392	-0.309010
C219	C	1.256542	-0.059392	-0.059010
C220	C	1.506542	0.190608	0.190990
H221	H	0.773118	-0.529532	-0.494034
H222	H	1.023118	-0.279532	-0.244034
H223	H	1.273118	-0.029532	0.005966
H224	H	1.523118	0.220468	0.255966
H225	H	0.785900	-0.623820	-0.569258
H226	H	1.035900	-0.373820	-0.319258
H227	H	1.285900	-0.123820	-0.069258
H228	H	1.535900	0.126180	0.180742
H229	H	0.780893	-0.518739	-0.607683
H230	H	1.030893	-0.268739	-0.357683
H231	H	1.280893	-0.018739	-0.107683
H232	H	1.530893	0.231261	0.142317
O233	O	0.642448	-0.402989	-0.403036
O234	O	0.892448	-0.152989	-0.153036
O235	O	1.142448	0.097011	0.096964
O236	O	1.392448	0.347011	0.346964
C237	C	0.555532	-0.410495	-0.410556
C238	C	0.805532	-0.160495	-0.160556
C239	C	1.055532	0.089505	0.089444
C240	C	1.305532	0.339505	0.339444
H241	H	0.538935	-0.475545	-0.440222
H242	H	0.788935	-0.225545	-0.190222
H243	H	1.038935	0.024455	0.059778
H244	H	1.288935	0.274455	0.309778
H245	H	0.526127	-0.400046	-0.346146
H246	H	0.776127	-0.150046	-0.096146
H247	H	1.026127	0.099954	0.153854
H248	H	1.276127	0.349954	0.403854
H249	H	0.531249	-0.361967	-0.451381
H250	H	0.781249	-0.111967	-0.201381
H251	H	1.031249	0.138033	0.048619
H252	H	1.281249	0.388033	0.298619
