data_functionalizedCrystal
_audit_creation_method	'MofGen! by Chris Wilmer'
_symmetry_space_group_name_H-M	'P1'
_symmetry_Int_Tables_number	1
_symmetry_cell_setting	triclinic
loop_
_symmetry_equiv_pos_as_xyz
  x,y,z
_cell_length_a	14.044191
_cell_length_b	14.044220
_cell_length_c	10.268362
_cell_angle_alpha	89.993803
_cell_angle_beta	89.997935
_cell_angle_gamma	93.190327
loop_
_atom_site_label
_atom_site_type_symbol
_atom_site_fract_x
_atom_site_fract_y
_atom_site_fract_z
O1	O	1.277173	0.230201	-0.108243
O2	O	1.527173	0.480201	0.141757
O3	O	1.777173	0.730201	0.391757
O4	O	2.027173	0.980201	0.641757
O5	O	1.000500	0.221888	-0.108259
O6	O	1.250500	0.471888	0.141741
O7	O	1.500500	0.721888	0.391741
O8	O	1.750500	0.971888	0.641741
O9	O	1.134684	0.087708	-0.108239
O10	O	1.384684	0.337708	0.141761
O11	O	1.634684	0.587708	0.391761
O12	O	1.884684	0.837708	0.641761
O13	O	1.142989	0.364380	-0.108264
O14	O	1.392989	0.614380	0.141736
O15	O	1.642989	0.864380	0.391736
O16	O	1.892989	1.114380	0.641736
O17	O	1.134670	0.087701	0.108362
O18	O	1.384670	0.337701	0.358362
O19	O	1.634670	0.587701	0.608362
O20	O	1.884670	0.837701	0.858362
O21	O	1.000487	0.221881	0.108341
O22	O	1.250487	0.471881	0.358341
O23	O	1.500487	0.721881	0.608341
O24	O	1.750487	0.971881	0.858341
O25	O	1.277159	0.230194	0.108358
O26	O	1.527159	0.480194	0.358358
O27	O	1.777159	0.730194	0.608358
O28	O	2.027159	0.980194	0.858358
Cu29	Cu	1.138822	0.226037	0.128127
Cu30	Cu	1.388822	0.476037	0.378127
Cu31	Cu	1.638822	0.726037	0.628127
Cu32	Cu	1.888822	0.976037	0.878127
Cu33	Cu	1.138838	0.226045	-0.128029
Cu34	Cu	1.388838	0.476045	0.121971
Cu35	Cu	1.638838	0.726045	0.371971
Cu36	Cu	1.888838	0.976045	0.621971
O37	O	1.142976	0.364373	0.108337
O38	O	1.392976	0.614373	0.358337
O39	O	1.642976	0.864373	0.608337
O40	O	1.892976	1.114373	0.858337
C41	C	0.964872	0.218248	0.000039
C42	C	1.214872	0.468248	0.250039
C43	C	1.464872	0.718248	0.500039
C44	C	1.714872	0.968248	0.750039
C45	C	0.858728	0.207401	0.000033
C46	C	1.108728	0.457401	0.250033
C47	C	1.358728	0.707401	0.500033
C48	C	1.608728	0.957401	0.750033
C49	C	0.613270	0.264501	0.000041
C50	C	0.863270	0.514501	0.250041
C51	C	1.113270	0.764501	0.500041
C52	C	1.363270	1.014501	0.750041
C53	C	0.664395	0.187585	0.000046
C54	C	0.914395	0.437585	0.250046
C55	C	1.164395	0.687585	0.500046
C56	C	1.414395	0.937585	0.750046
C57	C	0.772532	0.198613	0.000039
C58	C	1.022532	0.448613	0.250039
C59	C	1.272532	0.698613	0.500039
C60	C	1.522532	0.948613	0.750039
C61	C	0.505123	0.253474	0.000048
C62	C	0.755123	0.503474	0.250048
C63	C	1.005123	0.753474	0.500048
C64	C	1.255123	1.003474	0.750048
C65	C	1.131041	0.052083	0.000062
C66	C	1.381041	0.302083	0.250062
C67	C	1.631041	0.552083	0.500062
C68	C	1.881041	0.802083	0.750062
C69	C	1.120197	-0.054060	0.000063
C70	C	1.370197	0.195940	0.250063
C71	C	1.620197	0.445940	0.500063
C72	C	1.870197	0.695940	0.750063
C73	C	1.100370	-0.248398	0.000043
C74	C	1.350370	0.001602	0.250043
C75	C	1.600370	0.251602	0.500043
C76	C	1.850370	0.501602	0.750043
C77	C	1.177285	-0.299526	0.000044
C78	C	1.427285	-0.049526	0.250044
C79	C	1.677285	0.200474	0.500044
C80	C	1.927285	0.450474	0.750044
C81	C	1.166253	-0.407663	0.000033
C82	C	1.416253	-0.157663	0.250033
C83	C	1.666253	0.092337	0.500033
C84	C	1.916253	0.342337	0.750033
C85	C	1.111400	-0.140252	0.000054
C86	C	1.361400	0.109748	0.250054
C87	C	1.611400	0.359748	0.500054
C88	C	1.861400	0.609748	0.750054
C89	C	1.312788	0.233834	0.000056
C90	C	1.562788	0.483834	0.250056
C91	C	1.812788	0.733834	0.500056
C92	C	2.062788	0.983834	0.750056
C93	C	1.418931	0.244681	0.000054
C94	C	1.668931	0.494681	0.250054
C95	C	1.918931	0.744681	0.500054
C96	C	2.168931	0.994681	0.750054
C97	C	1.146618	0.399998	0.000033
C98	C	1.396618	0.649998	0.250033
C99	C	1.646618	0.899998	0.500033
C100	C	1.896618	1.149998	0.750033
C101	C	1.157463	0.506142	0.000024
C102	C	1.407463	0.756142	0.250024
C103	C	1.657463	1.006142	0.500024
C104	C	1.907463	1.256142	0.750024
N105	N	1.138818	0.226031	0.308293
N106	N	1.388818	0.476031	0.558293
N107	N	1.638818	0.726031	0.808293
N108	N	1.888818	0.976031	1.058293
N109	N	1.138849	0.226044	-0.308194
N110	N	1.388849	0.476044	-0.058194
N111	N	1.638849	0.726044	0.191806
N112	N	1.888849	0.976044	0.441806
C113	C	1.138833	0.226043	0.573963
C114	C	1.388833	0.476043	0.823963
C115	C	1.638833	0.726043	1.073963
C116	C	1.888833	0.976043	1.323963
C117	C	1.138822	0.226039	0.426125
C118	C	1.388822	0.476039	0.676125
C119	C	1.638822	0.726039	0.926125
C120	C	1.888822	0.976039	1.176125
H121	H	0.650711	0.338628	0.000030
H122	H	0.900711	0.588628	0.250030
H123	H	1.150711	0.838628	0.500030
H124	H	1.400711	1.088628	0.750030
N125	N	1.275485	-0.249938	0.000082
N126	N	1.525485	0.000062	0.250082
N127	N	1.775485	0.250062	0.500082
N128	N	2.025485	0.500062	0.750082
H129	H	1.325280	-0.299128	0.000087
H130	H	1.575280	-0.049128	0.250087
H131	H	1.825280	0.200872	0.500087
H132	H	2.075280	0.450872	0.750087
H133	H	1.283412	-0.208711	-0.080205
H134	H	1.533412	0.041289	0.169795
H135	H	1.783412	0.291289	0.419795
H136	H	2.033412	0.541289	0.669795
N137	N	1.002176	-0.297983	0.000036
N138	N	1.252176	-0.047983	0.250036
N139	N	1.502176	0.202017	0.500036
N140	N	1.752176	0.452017	0.750036
H141	H	1.008116	-0.369323	0.000033
H142	H	1.258116	-0.119323	0.250033
H143	H	1.508116	0.130677	0.500033
H144	H	1.758116	0.380677	0.750033
H145	H	0.966364	-0.278862	0.080337
H146	H	1.216364	-0.028862	0.330337
H147	H	1.466364	0.221138	0.580337
H148	H	1.716364	0.471138	0.830337
H149	H	0.626952	0.113452	-0.000039
H150	H	0.876952	0.363452	0.249961
H151	H	1.126952	0.613452	0.499961
H152	H	1.376952	0.863452	0.749961
