data_functionalizedCrystal
_audit_creation_method	'MofGen! by Chris Wilmer'
_symmetry_space_group_name_H-M	'P1'
_symmetry_Int_Tables_number	1
_symmetry_cell_setting	triclinic
loop_
_symmetry_equiv_pos_as_xyz
  x,y,z
_cell_length_a	13.262390
_cell_length_b	14.519731
_cell_length_c	11.804365
_cell_angle_alpha	101.852944
_cell_angle_beta	62.657606
_cell_angle_gamma	84.075143
loop_
_atom_site_label
_atom_site_type_symbol
_atom_site_fract_x
_atom_site_fract_y
_atom_site_fract_z
O1	O	1.519304	0.013557	-0.591105
O2	O	2.019304	0.513557	-0.091105
O3	O	1.191011	0.046968	-0.484780
O4	O	1.691011	0.546968	0.015220
O5	O	1.363847	-0.104480	-0.540746
O6	O	1.863847	0.395520	-0.040746
O7	O	1.346468	0.165005	-0.535139
O8	O	1.846468	0.665005	-0.035139
O9	O	1.318346	-0.064647	-0.327956
O10	O	1.818346	0.435353	0.172044
O11	O	1.145510	0.086801	-0.271990
O12	O	1.645510	0.586801	0.228010
O13	O	1.473803	0.053390	-0.378316
O14	O	1.973803	0.553390	0.121684
Cu15	Cu	1.305502	0.073733	-0.305723
Cu16	Cu	1.805502	0.573733	0.194277
Cu17	Cu	1.359312	0.026626	-0.557372
Cu18	Cu	1.859312	0.526626	-0.057372
O19	O	1.300967	0.204838	-0.322349
O20	O	1.800967	0.704838	0.177651
C21	C	1.126245	0.068676	-0.364777
C22	C	1.626245	0.568676	0.135223
C23	C	1.001053	0.074000	-0.324230
C24	C	1.501053	0.574000	0.175770
C25	C	0.747381	0.002140	-0.673922
C26	C	1.247381	0.502140	-0.173922
C27	C	0.865006	-0.002868	-0.712020
C28	C	1.365006	0.497132	-0.212020
C29	C	0.899024	0.016349	-0.615076
C30	C	1.399024	0.516349	-0.115076
C31	C	0.815404	0.040573	-0.480027
C32	C	1.315404	0.540573	0.019973
C33	C	0.697769	0.045574	-0.441926
C34	C	1.197769	0.545574	0.058074
C35	C	0.849412	0.059783	-0.383079
C36	C	1.349412	0.559783	0.116921
C37	C	0.765792	0.084007	-0.248031
C38	C	1.265792	0.584007	0.251969
C39	C	0.648169	0.089007	-0.209936
C40	C	1.148169	0.589007	0.290064
C41	C	0.614151	0.069791	-0.306880
C42	C	1.114151	0.569791	0.193120
C43	C	0.967048	0.054783	-0.421181
C44	C	1.467048	0.554783	0.078819
C45	C	0.917436	0.098217	-0.189185
C46	C	1.417436	0.598217	0.310815
C47	C	0.799810	0.103224	-0.151087
C48	C	1.299810	0.603224	0.348913
C49	C	1.340281	-0.118875	-0.434087
C50	C	1.840281	0.381125	0.065913
C51	C	1.337841	-0.221113	-0.433296
C52	C	1.837841	0.278887	0.066704
C53	C	1.335858	-0.304142	-0.432656
C54	C	1.835858	0.195858	0.067344
C55	C	1.333382	-0.408307	-0.431863
C56	C	1.833382	0.091693	0.068137
C57	C	1.331417	-0.491333	-0.431235
C58	C	1.831417	0.008667	0.068765
C59	C	1.328941	-0.595505	-0.430440
C60	C	1.828941	-0.095505	0.069560
C61	C	1.538569	0.031682	-0.498321
C62	C	2.038569	0.531682	0.001679
C63	C	1.663763	0.026357	-0.538876
C64	C	2.163763	0.526357	-0.038876
C65	C	1.324533	0.219233	-0.429011
C66	C	1.824533	0.719233	0.070989
C67	C	1.326976	0.321469	-0.429811
C68	C	1.826976	0.821469	0.070189
N69	N	1.267663	0.106864	-0.128730
N70	N	1.767663	0.606864	0.371270
N71	N	1.397160	-0.006514	-0.734368
N72	N	1.897160	0.493486	-0.234368
C73	C	1.488025	-0.086093	0.173863
C74	C	1.988025	0.413907	0.673863
C75	C	1.516649	-0.111160	0.039932
C76	C	2.016649	0.388840	0.539932
C77	C	1.454405	-0.056657	-0.002240
C78	C	1.954405	0.443343	0.497760
C79	C	1.363532	0.022920	0.089532
C80	C	1.863532	0.522920	0.589532
C81	C	1.334911	0.047995	0.223473
C82	C	1.834911	0.547995	0.723473
C83	C	1.301291	0.077431	0.047370
C84	C	1.801291	0.577431	0.547370
C85	C	1.210418	0.157007	0.139142
C86	C	1.710418	0.657007	0.639142
C87	C	1.181802	0.182077	0.273070
C88	C	1.681802	0.682077	0.773070
C89	C	1.244046	0.127574	0.315242
C90	C	1.744046	0.627574	0.815242
C91	C	1.329911	0.052356	-0.086571
C92	C	1.829911	0.552356	0.413429
C93	C	1.176798	0.186443	-0.036961
C94	C	1.676798	0.686443	0.463039
C95	C	1.148174	0.211511	0.096970
C96	C	1.648174	0.711511	0.596970
H97	H	0.994801	0.012272	-0.646103
H98	H	1.494801	0.512272	-0.146103
H99	H	1.107817	0.246879	0.347790
H100	H	1.607817	0.746879	0.847790
H101	H	1.035120	0.035061	-0.531138
H102	H	1.535120	0.535061	-0.031138
H103	H	1.590637	-0.175950	-0.034784
H104	H	2.090637	0.324050	0.465216
H105	H	1.074183	0.276304	0.171706
H106	H	1.574183	0.776304	0.671706
F107	F	0.953991	-0.028651	-0.855742
F108	F	1.453991	0.471349	-0.355742
H109	H	0.731711	0.122947	-0.041128
H110	H	1.231711	0.622947	0.458872
F111	F	1.554269	-0.144085	0.218749
F112	F	2.054269	0.355915	0.718749
H113	H	1.220738	0.147981	0.424300
H114	H	1.720738	0.647981	0.924300
H115	H	1.126114	0.230827	-0.071296
H116	H	1.626114	0.730827	0.428704
H117	H	0.719672	-0.013513	-0.752839
H118	H	1.219672	0.486487	-0.252839
H119	H	0.518372	0.073869	-0.275867
H120	H	1.018372	0.573869	0.224133
H121	H	0.580089	0.108715	-0.099971
H122	H	1.080089	0.608715	0.400029
H123	H	0.945131	0.113863	-0.110244
H124	H	1.445131	0.613863	0.389756
H125	H	1.403900	-0.012435	-0.161281
H126	H	1.903900	0.487565	0.338719
F127	F	1.484869	-0.083339	-0.144782
F128	F	1.984869	0.416661	0.355218
