data_functionalizedCrystal
_audit_creation_method	'MofGen! by Chris Wilmer'
_symmetry_space_group_name_H-M	'P1'
_symmetry_Int_Tables_number	1
_symmetry_cell_setting	triclinic
loop_
_symmetry_equiv_pos_as_xyz
  x,y,z
_cell_length_a	12.594517
_cell_length_b	21.295417
_cell_length_c	12.594509
_cell_angle_alpha	89.963755
_cell_angle_beta	89.978673
_cell_angle_gamma	90.030306
loop_
_atom_site_label
_atom_site_type_symbol
_atom_site_fract_x
_atom_site_fract_y
_atom_site_fract_z
Zn1	Zn	1.627160	-0.250594	-0.601801
Zn2	Zn	1.627006	-0.355872	-0.423797
Zn3	Zn	1.449164	-0.250621	-0.423830
Zn4	Zn	1.449101	-0.355829	-0.601727
O5	O	1.538108	-0.303229	-0.512789
O6	O	1.776085	-0.264566	-0.578205
O7	O	1.603377	-0.341940	-0.274856
O8	O	1.472866	-0.162528	-0.447482
O9	O	1.775972	-0.341914	-0.447427
O10	O	1.603639	-0.162508	-0.578237
O11	O	1.472717	-0.264612	-0.274879
O12	O	1.300210	-0.264570	-0.447411
O13	O	1.472759	-0.341839	-0.750683
O14	O	1.300164	-0.341865	-0.578112
O15	O	1.603578	-0.264524	-0.750737
O16	O	1.603316	-0.443956	-0.447356
O17	O	1.472610	-0.443924	-0.578080
C18	C	1.261567	-0.303216	-0.512757
C19	C	1.143261	-0.303226	-0.512769
C20	C	1.074002	-0.261127	-0.441817
C21	C	1.003167	-0.318547	-0.415623
C22	C	1.003298	-0.245834	-0.538981
C23	C	1.073984	-0.360676	-0.486525
C24	C	1.074121	-0.287924	-0.609928
C25	C	1.003318	-0.345384	-0.583771
C26	C	1.537968	-0.466780	-0.512730
C27	C	1.538006	-0.536748	-0.512740
C28	C	1.606125	-0.569611	-0.444742
C29	C	1.606175	-0.635353	-0.444766
C30	C	1.538087	-0.668231	-0.512777
C31	C	1.469963	-0.635361	-0.580789
C32	C	1.469923	-0.569619	-0.580770
N33	N	1.444976	-0.771496	-0.520881
N34	N	1.445018	-0.833948	-0.520892
C35	C	1.538206	-0.866306	-0.512838
N36	N	1.631353	-0.833853	-0.504752
N37	N	1.631311	-0.771396	-0.504735
C38	C	1.538123	-0.739516	-0.512805
C39	C	1.606385	-0.970454	-0.444862
C40	C	1.606436	-1.036197	-0.444893
C41	C	1.470215	-1.036203	-0.580910
C42	C	1.470173	-0.970461	-0.580885
C43	C	1.538256	-0.937590	-0.512855
C44	C	1.815729	-0.303242	-0.512821
C45	C	1.934034	-0.303247	-0.512835
C46	C	1.538179	-0.303174	-0.790410
C47	C	1.538209	-0.303150	-0.908715
C48	C	1.538277	-0.139038	-0.512871
C49	C	1.538349	-0.069070	-0.512906
C50	C	1.467079	-0.345178	-0.977939
C51	C	1.564193	-0.360559	-1.048726
C52	C	1.441171	-0.287731	-1.048728
C53	C	1.635374	-0.318561	-0.977944
C54	C	1.512287	-0.245707	-0.977939
C55	C	1.609468	-0.261066	-1.048694
C56	C	1.538098	-0.303238	-0.236248
C57	C	1.538274	-0.303084	-0.117943
H58	H	0.972192	-0.197296	-0.561087
H59	H	1.586154	-0.409109	-1.079819
O60	O	1.404042	-0.938604	-0.647077
C61	C	1.427268	-0.954593	-0.753189
H62	H	1.468215	-1.002302	-0.755449
H63	H	1.350424	-0.956862	-0.800841
H64	H	1.481944	-0.917546	-0.789081
H65	H	1.359080	-0.274717	-1.079821
O66	O	1.403969	-0.667364	-0.646906
C67	C	1.464554	-0.705317	-0.715732
H68	H	1.545242	-0.715141	-0.678268
H69	H	1.421219	-0.751563	-0.729968
H70	H	1.476192	-0.679939	-0.794615
H71	H	1.717489	-0.331630	-0.946982
O72	O	1.672372	-0.938489	-0.378677
C73	C	1.611788	-0.900517	-0.309879
H74	H	1.527976	-0.920380	-0.303229
H75	H	1.650332	-0.899788	-0.228004
H76	H	1.608065	-0.850679	-0.342770
H77	H	1.406974	-0.380775	-0.946873
H78	H	1.104905	-0.409235	-0.464291
H79	H	1.669717	-0.225496	-1.079565
H80	H	1.661649	-0.662115	-0.389393
H81	H	1.414451	-0.542862	-0.636144
O82	O	1.672646	-1.068025	-0.378736
C83	C	1.732743	-1.024911	-0.318710
H84	H	1.689116	-0.978074	-0.314972
H85	H	1.744149	-1.043941	-0.234865
H86	H	1.813557	-1.017855	-0.357753
H87	H	1.105039	-0.225561	-0.381741
O88	O	1.672317	-0.537611	-0.378816
C89	C	1.741025	-0.499532	-0.439469
H90	H	1.703437	-0.489666	-0.520095
H91	H	1.755285	-0.453314	-0.396117
H92	H	1.819912	-0.524821	-0.451241
H93	H	1.414781	-1.062971	-0.636291
H94	H	1.490297	-0.197170	-0.946822
H95	H	0.972477	-0.381035	-0.643801
O96	O	0.966028	-0.333901	-0.317574
C97	C	1.002056	-0.289398	-0.242968
H98	H	1.021977	-0.243590	-0.285433
H99	H	0.937247	-0.280535	-0.181574
H100	H	1.076073	-0.308082	-0.201568
H101	H	1.105311	-0.274950	-0.692040
