data_functionalizedCrystal
_audit_creation_method	'MofGen! by Chris Wilmer'
_symmetry_space_group_name_H-M	'P1'
_symmetry_Int_Tables_number	1
_symmetry_cell_setting	triclinic
loop_
_symmetry_equiv_pos_as_xyz
  x,y,z
_cell_length_a	14.971486
_cell_length_b	15.072220
_cell_length_c	14.971494
_cell_angle_alpha	89.999404
_cell_angle_beta	83.615843
_cell_angle_gamma	90.007545
loop_
_atom_site_label
_atom_site_type_symbol
_atom_site_fract_x
_atom_site_fract_y
_atom_site_fract_z
O1	O	1.186959	0.073677	0.116556
O2	O	0.926559	0.073701	0.130515
O3	O	1.063735	0.073686	-0.006664
O4	O	1.049784	0.073692	0.253735
O5	O	1.063701	-0.073879	-0.006656
O6	O	0.926526	-0.073864	0.130523
O7	O	1.186925	-0.073888	0.116564
Zn8	Zn	1.056720	-0.097305	0.123544
Zn9	Zn	1.056765	0.097118	0.123534
O10	O	1.049750	-0.073874	0.253743
C11	C	0.893218	-0.000079	0.129895
C12	C	0.793921	-0.000070	0.128024
N13	N	1.056696	-0.229994	0.123551
C14	C	0.736698	-0.000069	0.208613
C15	C	0.643398	-0.000082	0.206850
C16	C	0.607323	-0.000090	0.124497
C17	C	0.664554	-0.000093	0.043902
C18	C	0.757851	-0.000086	0.045666
C19	C	0.470091	-0.000105	0.040231
C20	C	0.376787	-0.000110	0.038466
C21	C	0.355638	-0.000102	0.201415
C22	C	0.448936	-0.000095	0.203179
C23	C	0.506159	-0.000096	0.122583
C24	C	1.056763	-0.589196	0.123531
C25	C	0.983116	-0.551581	0.196686
C26	C	0.983285	-0.448755	0.196954
C27	C	1.056729	-0.410992	0.123541
C28	C	1.150080	-0.448291	0.144025
C29	C	1.149667	-0.551149	0.144545
C30	C	1.037891	-0.551296	0.029676
C31	C	1.035750	-0.448432	0.030299
C32	C	1.056716	-0.310278	0.123545
C33	C	1.056782	-0.689909	0.123529
C34	C	1.220267	-0.000107	0.117184
C35	C	1.319564	-0.000110	0.119055
C36	C	1.063093	-0.000095	-0.039985
C37	C	1.061219	-0.000091	-0.139281
N38	N	1.056796	0.229807	0.123521
C39	C	1.060359	0.080348	-0.185930
C40	C	1.058593	0.080350	-0.279229
C41	C	1.057693	-0.000089	-0.325879
C42	C	1.058550	-0.080534	-0.279223
C43	C	1.060310	-0.080534	-0.185925
C44	C	1.054884	-0.080528	-0.473686
C45	C	1.053126	-0.080528	-0.566991
C46	C	1.053167	0.080356	-0.566991
C47	C	1.054927	0.080356	-0.473692
C48	C	1.055786	-0.000090	-0.427043
C49	C	1.050392	-0.000091	0.287064
C50	C	1.052266	-0.000089	0.386360
H51	H	0.766062	-0.000063	0.275674
H52	H	1.057811	-0.146029	-0.317211
O53	O	0.949659	-0.585679	0.003621
H54	H	0.894303	-0.565066	0.054931
O55	O	1.057651	0.167121	-0.329523
H56	H	1.117757	0.170982	-0.379948
O57	O	1.061241	-0.167297	-0.135611
H58	H	1.062607	-0.153784	-0.062897
H59	H	0.913899	-0.423538	0.184734
H60	H	1.055564	-0.146035	-0.435705
O61	O	0.337879	-0.000135	-0.050358
H62	H	0.263390	-0.000132	-0.038041
H63	H	1.061097	0.145851	-0.147956
H64	H	1.055666	0.145856	-0.435714
O65	O	1.052231	0.167126	-0.617295
H66	H	1.050843	0.153616	-0.690007
O67	O	1.052141	-0.167283	-0.617310
H68	H	1.053017	-0.223222	-0.569197
O69	O	0.531816	-0.000102	-0.046695
H70	H	0.491059	-0.000098	-0.104257
O71	O	0.581678	-0.000086	0.293771
H72	H	0.594509	0.060067	0.333169
O73	O	0.487851	-0.000098	0.291999
H74	H	0.432388	-0.000112	0.347746
O75	O	0.625651	-0.000108	-0.044925
H76	H	0.583661	0.060037	-0.049638
H77	H	0.804442	-0.000086	-0.019958
H78	H	0.309041	-0.000105	0.267038
H79	H	0.913506	-0.576336	0.184666
H80	H	0.995012	-0.577419	0.265940
H81	H	0.995347	-0.424141	0.266600
O82	O	1.172611	-0.414165	0.233665
H83	H	1.238761	-0.440993	0.247396
O84	O	0.944785	-0.416146	0.009714
H85	H	0.952632	-0.377185	-0.053585
H86	H	1.166282	-0.575131	0.212996
H87	H	1.206187	-0.576030	0.093368
H88	H	1.206196	-0.423828	0.092164
H89	H	1.085899	-0.422729	-0.026697
H90	H	1.091597	-0.575620	-0.024765
