data_functionalizedCrystal
_audit_creation_method	'MofGen! by Chris Wilmer'
_symmetry_space_group_name_H-M	'P1'
_symmetry_Int_Tables_number	1
_symmetry_cell_setting	triclinic
loop_
_symmetry_equiv_pos_as_xyz
  x,y,z
_cell_length_a	19.188905
_cell_length_b	19.188930
_cell_length_c	13.101039
_cell_angle_alpha	86.654199
_cell_angle_beta	93.352982
_cell_angle_gamma	83.139668
loop_
_atom_site_label
_atom_site_type_symbol
_atom_site_fract_x
_atom_site_fract_y
_atom_site_fract_z
O1	O	0.930017	0.083211	0.085395
O2	O	0.726702	0.094965	0.085362
O3	O	0.834226	-0.012568	0.085359
O4	O	0.822493	0.190743	0.085397
O5	O	0.826511	-0.004840	-0.085070
O6	O	0.718987	0.102693	-0.085068
O7	O	0.922302	0.090939	-0.085035
Zn8	Zn	0.819420	0.098043	-0.112111
Zn9	Zn	0.829584	0.087861	0.112438
O10	O	0.814778	0.198471	-0.085032
C11	C	0.696833	0.098451	0.000142
C12	C	0.619327	0.097318	0.000129
C13	C	0.587140	0.092561	0.093032
C14	C	0.514317	0.091487	0.093045
C15	C	0.473685	0.095157	0.000148
C16	C	0.505879	0.099919	-0.092768
C17	C	0.578700	0.100999	-0.092778
N18	N	0.361535	0.056864	-0.068993
N19	N	0.292359	0.055835	-0.068978
C20	C	0.254279	0.091903	0.000172
N21	N	0.287992	0.129029	0.069322
N22	N	0.357175	0.130054	0.069309
C23	C	0.394722	0.093986	0.000149
C24	C	0.143130	0.085983	0.093096
C25	C	0.070305	0.084914	0.093105
C26	C	0.061869	0.093338	-0.092710
C27	C	0.134692	0.094414	-0.092716
C28	C	0.175319	0.090733	0.000190
C29	C	0.829988	-0.034715	0.000141
C30	C	0.828847	-0.112219	0.000132
C31	C	0.891939	-0.157148	0.000138
C32	C	0.890868	-0.229973	0.000154
C33	C	0.826700	-0.257863	0.000144
C34	C	0.763601	-0.212924	0.000145
C35	C	0.764674	-0.140101	0.000139
N36	N	0.775027	-0.363233	-0.057864
N37	N	0.774011	-0.432412	-0.057861
C38	C	0.823463	-0.477272	0.000164
N39	N	0.873979	-0.450342	0.058173
N40	N	0.874996	-0.381157	0.058165
C41	C	0.825530	-0.336826	0.000151
C42	C	0.885398	-0.601168	0.000189
C43	C	0.884325	-0.673993	0.000212
C44	C	0.757055	-0.656942	0.000192
C45	C	0.758131	-0.584118	0.000180
C46	C	0.822304	-0.556236	0.000173
C47	C	0.952171	0.087452	0.000187
C48	C	1.029677	0.088585	0.000207
C49	C	0.819016	0.220618	0.000188
C50	C	0.820157	0.298121	0.000204
N51	N	0.812488	0.104991	-0.265359
C52	C	0.803056	0.114451	-0.474402
C53	C	0.845950	0.071449	-0.525278
C54	C	0.840703	0.076712	-0.641596
C55	C	0.808303	0.109188	-0.358073
N56	N	0.836522	0.080906	0.265686
H57	H	0.604905	0.104874	-0.168434
H58	H	0.944194	-0.134451	0.000136
C59	C	0.900889	0.016376	-0.466119
H60	H	0.927110	-0.009915	-0.513338
H61	H	0.931779	0.039502	-0.424250
H62	H	0.877666	-0.014444	-0.424278
C63	C	0.187820	0.081947	0.195286
H64	H	0.158217	0.078971	0.250620
H65	H	0.221860	0.041487	0.199144
H66	H	0.210946	0.122905	0.199145
H67	H	0.762396	0.155218	-0.518198
H68	H	0.935704	-0.710576	0.000222
C69	C	0.478901	0.086250	0.195240
H70	H	0.429712	0.086138	0.181937
H71	H	0.498025	0.043988	0.233400
H72	H	0.487109	0.125405	0.233424
C73	C	0.693017	-0.243597	0.000138
H74	H	0.655594	-0.206406	0.000143
H75	H	0.687258	-0.268964	-0.059292
H76	H	0.692648	-0.274337	0.059581
C77	C	0.631824	0.088521	0.195225
H78	H	0.602220	0.085541	0.250557
H79	H	0.665866	0.048064	0.199079
H80	H	0.654947	0.129481	0.199090
C81	C	0.461180	0.104008	-0.194951
H82	H	0.413199	0.102693	-0.181640
H83	H	0.465943	0.146637	-0.233068
H84	H	0.476814	0.065224	-0.233182
H85	H	0.044100	0.081044	0.168761
C86	C	0.955983	-0.570490	0.000195
H87	H	0.947586	-0.520684	0.000177
H88	H	0.984643	-0.588611	0.059634
H89	H	0.979261	-0.583242	-0.059239
C90	C	0.017152	0.097606	-0.194895
H91	H	-0.030837	0.096348	-0.181584
H92	H	0.021983	0.140280	-0.232846
H93	H	0.032704	0.058881	-0.233290
C94	C	0.170103	0.099639	-0.194909
H95	H	0.219291	0.099761	-0.181611
H96	H	0.161892	0.060487	-0.233089
H97	H	0.150979	0.141904	-0.233071
C98	C	0.960271	-0.279404	0.000153
H99	H	0.998642	-0.252368	0.000142
H100	H	0.965192	-0.310857	0.059585
H101	H	0.959798	-0.305474	-0.059288
H102	H	0.713295	-0.103519	0.000134
C103	C	0.686471	-0.687610	0.000185
H104	H	0.649048	-0.650418	0.000185
H105	H	0.680714	-0.712979	-0.059242
H106	H	0.686100	-0.718348	0.059630
C107	C	0.688728	-0.534693	0.000156
H108	H	0.650358	-0.561731	0.000144
H109	H	0.689189	-0.508615	0.059583
H110	H	0.683814	-0.503246	-0.059289
