data_functionalizedCrystal
_audit_creation_method	'MofGen! by Chris Wilmer'
_symmetry_space_group_name_H-M	'P1'
_symmetry_Int_Tables_number	1
_symmetry_cell_setting	triclinic
loop_
_symmetry_equiv_pos_as_xyz
  x,y,z
_cell_length_a	19.188929
_cell_length_b	17.699097
_cell_length_c	16.776229
_cell_angle_alpha	89.989262
_cell_angle_beta	90.028440
_cell_angle_gamma	96.783395
loop_
_atom_site_label
_atom_site_type_symbol
_atom_site_fract_x
_atom_site_fract_y
_atom_site_fract_z
O1	O	-0.088338	1.003956	-0.066393
O2	O	0.411662	1.503956	0.433607
O3	O	-0.099816	0.783564	-0.066385
O4	O	0.400184	1.283564	0.433615
O5	O	0.007571	0.900120	-0.066340
O6	O	0.507571	1.400120	0.433660
O7	O	-0.195725	0.887400	-0.066438
O8	O	0.304275	1.387400	0.433562
O9	O	0.007578	0.900104	0.066237
O10	O	0.507578	1.400104	0.566237
O11	O	-0.099809	0.783548	0.066192
O12	O	0.400191	1.283548	0.566192
O13	O	-0.088332	1.003940	0.066184
O14	O	0.411668	1.503940	0.566184
Zn15	Zn	-0.094070	0.893742	0.087237
Zn16	Zn	0.405930	1.393742	0.587237
Zn17	Zn	-0.094078	0.893762	-0.087438
Zn18	Zn	0.405922	1.393762	0.412562
O19	O	-0.195719	0.887384	0.066139
O20	O	0.304281	1.387384	0.566139
C21	C	-0.099400	0.755360	-0.000095
C22	C	0.400600	1.255360	0.499905
C23	C	-0.098161	0.671344	-0.000089
C24	C	0.401839	1.171344	0.499911
C25	C	-0.090573	0.155644	-0.072385
C26	C	0.409427	0.655644	0.427615
C27	C	-0.091732	0.234587	-0.072382
C28	C	0.408268	0.734587	0.427618
C29	C	-0.092309	0.274043	-0.000111
C30	C	0.407691	0.774043	0.499889
C31	C	-0.091720	0.234554	0.072160
C32	C	0.408280	0.734554	0.572160
C33	C	-0.090556	0.155614	0.072156
C34	C	0.409444	0.655614	0.572156
C35	C	-0.096413	0.552912	0.072179
C36	C	0.403587	1.052912	0.572179
C37	C	-0.097579	0.631858	0.072178
C38	C	0.402421	1.131858	0.572178
C39	C	-0.097589	0.631885	-0.072359
C40	C	0.402411	1.131885	0.427641
C41	C	-0.096425	0.552944	-0.072363
C42	C	0.403575	1.052944	0.427637
C43	C	-0.095833	0.513463	-0.000092
C44	C	0.404167	1.013463	0.499908
C45	C	-0.094575	0.427865	-0.000096
C46	C	0.405425	0.927865	0.499904
C47	C	-0.093572	0.359639	-0.000106
C48	C	0.406428	0.859639	0.499894
C49	C	-0.221734	0.887804	-0.000162
C50	C	0.278266	1.387804	0.499838
C51	C	-0.299240	0.889041	-0.000200
C52	C	0.200760	1.389041	0.499800
C53	C	-0.344084	0.820649	-0.000182
C54	C	0.155916	1.320649	0.499818
C55	C	-0.416909	0.821811	-0.000164
C56	C	0.083091	1.321811	0.499836
C57	C	-0.444887	0.891368	-0.000148
C58	C	0.055113	1.391368	0.499852
C59	C	-0.400033	0.959768	-0.000171
C60	C	0.099967	1.459768	0.499829
C61	C	-0.327209	0.958604	-0.000197
C62	C	0.172791	1.458604	0.499803
N63	N	-0.552915	0.944530	0.045019
N64	N	-0.052915	1.444530	0.545019
N65	N	-0.622095	0.945631	0.045045
N66	N	-0.122095	1.445631	0.545045
C67	C	-0.664299	0.894878	-0.000072
C68	C	-0.164299	1.394878	0.499928
N69	N	-0.634712	0.842971	-0.045206
N70	N	-0.134712	1.342971	0.454794
N71	N	-0.565526	0.841868	-0.045229
N72	N	-0.065526	1.341868	0.454771
C73	C	-0.523851	0.892637	-0.000121
C74	C	-0.023851	1.392637	0.499879
C75	C	-0.788110	0.827742	-0.000035
C76	C	-0.288110	1.327742	0.499965
C77	C	-0.860936	0.828906	-0.000022
C78	C	-0.360936	1.328906	0.499978
C79	C	-0.844058	0.966865	-0.000022
C80	C	-0.344058	1.466865	0.499978
C81	C	-0.771233	0.965699	-0.000043
C82	C	-0.271233	1.465699	0.499957
C83	C	-0.743264	0.896135	-0.000046
C84	C	-0.243264	1.396135	0.499954
C85	C	0.033586	0.899700	-0.000041
C86	C	0.533586	1.399700	0.499959
C87	C	0.111092	0.898464	-0.000008
C88	C	0.611092	1.398464	0.499992
C89	C	-0.088748	1.032144	-0.000108
C90	C	0.411252	1.532144	0.499892
C91	C	-0.089987	1.116160	-0.000119
C92	C	0.410013	1.616160	0.499881
N93	N	-0.094063	0.893734	0.206448
N94	N	0.405937	1.393734	0.706448
N95	N	-0.094079	0.893777	-0.206649
N96	N	0.405921	1.393777	0.293351
C97	C	-0.046532	0.945360	0.248185
C98	C	0.453468	1.445360	0.748185
C99	C	-0.046531	0.945364	0.331638
C100	C	0.453469	1.445364	0.831638
C101	C	-0.094066	0.893745	0.373351
C102	C	0.405934	1.393745	0.873351
C103	C	-0.141600	0.842113	0.331608
C104	C	0.358400	1.342113	0.831608
C105	C	-0.141596	0.842106	0.248158
C106	C	0.358404	1.342106	0.748158
C107	C	-0.141613	0.842140	0.668155
C108	C	0.358387	1.342140	1.168155
C109	C	-0.141615	0.842153	0.751612
C110	C	0.358385	1.342153	1.251612
C111	C	-0.046548	0.945399	0.751635
C112	C	0.453452	1.445399	1.251635
C113	C	-0.046545	0.945392	0.668185
C114	C	0.453455	1.445392	1.168185
C115	C	-0.094076	0.893757	0.626449
C116	C	0.405924	1.393757	1.126449
C117	C	-0.094075	0.893752	0.535961
C118	C	0.405925	1.393752	1.035961
C119	C	-0.094071	0.893753	0.463838
C120	C	0.405929	1.393753	0.963838
H121	H	-0.095959	0.520822	-0.131213
H122	H	0.404041	1.020822	0.368787
H123	H	-0.422817	1.016402	-0.000173
H124	H	0.077183	1.516402	0.499827
N125	N	-0.722864	1.039468	-0.000048
N126	N	-0.222864	1.539468	0.499952
H127	H	-0.692241	1.042050	0.049088
H128	H	-0.192241	1.542050	0.549088
H129	H	-0.692352	1.042025	-0.049237
H130	H	-0.192352	1.542025	0.450763
N131	N	0.004734	1.001041	0.203197
N132	N	0.504734	1.501041	0.703197
H133	H	0.034846	1.033745	0.242304
H134	H	0.534846	1.533745	0.742304
H135	H	0.035571	0.972169	0.168600
H136	H	0.535571	1.472169	0.668600
N137	N	-0.098204	0.674418	0.150130
N138	N	0.401796	1.174418	0.650130
H139	H	-0.097651	0.637429	0.195914
H140	H	0.402349	1.137429	0.695914
H141	H	-0.055423	0.713452	0.153295
H142	H	0.444577	1.213452	0.653295
N143	N	-0.092344	0.277104	0.150113
N144	N	0.407656	0.777104	0.650113
H145	H	-0.049565	0.316137	0.153359
H146	H	0.450435	0.816137	0.653359
H147	H	-0.136121	0.303526	0.153268
H148	H	0.363879	0.803526	0.653268
N149	N	-0.098225	0.674469	-0.150312
N150	N	0.401775	1.174469	0.349688
H151	H	-0.099047	0.730465	-0.139347
H152	H	0.400953	1.230465	0.360653
H153	H	-0.054759	0.666952	-0.181853
H154	H	0.445241	1.166952	0.318147
H155	H	-0.095920	0.520778	0.131027
H156	H	0.404080	1.020778	0.631027
N157	N	-0.089951	0.113085	-0.150332
N158	N	0.410049	0.613085	0.349668
H159	H	-0.133418	0.120553	-0.181950
H160	H	0.366582	0.620553	0.318050
H161	H	-0.046861	0.133129	-0.181841
H162	H	0.453139	0.633129	0.318159
N163	N	0.004729	1.001056	0.376652
N164	N	0.504729	1.501056	0.876652
H165	H	-0.002482	0.993228	0.435847
H166	H	0.497518	1.493228	0.935847
H167	H	0.054253	0.992485	0.362097
H168	H	0.554253	1.492485	0.862097
N169	N	0.004720	1.001090	0.796653
N170	N	0.504720	1.501090	1.296653
H171	H	0.035606	0.972283	0.831303
H172	H	0.535606	1.472283	1.331303
H173	H	0.034781	1.033778	0.757513
H174	H	0.534781	1.533778	1.257513
H175	H	-0.290696	1.014299	-0.000213
H176	H	0.209304	1.514299	0.499787
N177	N	0.004721	1.001070	0.623193
N178	N	0.504721	1.501070	1.123193
H179	H	0.034834	1.033776	0.662297
H180	H	0.534834	1.533776	1.162297
H181	H	0.035557	0.972195	0.588597
H182	H	0.535557	1.472195	1.088597
H183	H	-0.090086	0.123466	0.131003
H184	H	0.409914	0.623466	0.631003
N185	N	-0.909311	0.755140	-0.000004
N186	N	-0.409311	1.255140	0.499996
H187	H	-0.900358	0.724783	-0.049151
H188	H	-0.400358	1.224783	0.450849
H189	H	-0.900273	0.724840	0.049174
H190	H	-0.400273	1.224840	0.549174
H191	H	-0.866836	1.023500	-0.000067
H192	H	-0.366836	1.523500	0.499933
N193	N	-0.192882	0.786471	0.796606
N194	N	0.307118	1.286471	1.296606
H195	H	-0.222990	0.753756	0.757505
H196	H	0.277010	1.253756	1.257505
H197	H	-0.166181	0.753115	0.831257
H198	H	0.333819	1.253115	1.331257
H199	H	-0.180316	0.800099	0.634181
H200	H	0.319684	1.300099	1.134181
H201	H	-0.180301	0.800080	0.365576
H202	H	0.319699	1.300080	0.865576
N203	N	-0.465287	0.748042	-0.000113
N204	N	0.034713	1.248042	0.499887
H205	H	-0.515664	0.759337	-0.000088
H206	H	-0.015664	1.259337	0.499912
H207	H	-0.456290	0.717703	-0.049255
H208	H	0.043710	1.217703	0.450745
H209	H	-0.765336	0.771098	-0.000033
H210	H	-0.265336	1.271098	0.499967
N211	N	-0.192862	0.786418	0.203143
N212	N	0.307138	1.286418	0.703143
H213	H	-0.242409	0.794965	0.217629
H214	H	0.257591	1.294965	0.717629
H215	H	-0.185586	0.794270	0.143962
H216	H	0.314414	1.294270	0.643962
N217	N	-0.092356	0.277175	-0.150326
N218	N	0.407644	0.777175	0.349674
H219	H	-0.091816	0.240200	-0.196109
H220	H	0.408184	0.740200	0.303891
H221	H	-0.136101	0.303656	-0.153496
H222	H	0.363899	0.803656	0.346504
N223	N	-0.313917	0.745623	-0.000177
N224	N	0.186083	1.245623	0.499823
H225	H	-0.353381	0.702473	-0.000160
H226	H	0.146619	1.202473	0.499840
H227	H	-0.284102	0.742132	-0.049333
H228	H	0.215898	1.242132	0.450667
