data_functionalizedCrystal
_audit_creation_method	'MofGen! by Chris Wilmer'
_symmetry_space_group_name_H-M	'P1'
_symmetry_Int_Tables_number	1
_symmetry_cell_setting	triclinic
loop_
_symmetry_equiv_pos_as_xyz
  x,y,z
_cell_length_a	18.760490
_cell_length_b	14.809374
_cell_length_c	14.809374
_cell_angle_alpha	60.797835
_cell_angle_beta	90.015660
_cell_angle_gamma	67.450817
loop_
_atom_site_label
_atom_site_type_symbol
_atom_site_fract_x
_atom_site_fract_y
_atom_site_fract_z
Zr1	Zr	0.787211	0.955633	-0.203611
O2	O	0.699908	1.113506	-0.350777
O3	O	0.801614	0.777874	-0.145533
O4	O	0.830767	0.927038	-0.332071
O5	O	0.661819	0.993833	-0.031842
O6	O	0.948050	0.927102	-0.332062
O7	O	0.670755	0.964342	-0.164240
O8	O	0.895901	0.660276	0.001620
O9	O	0.713968	1.260659	-0.365524
O10	O	0.910217	0.858402	-0.136419
O11	O	0.816020	0.880363	-0.037620
O12	O	0.850344	1.055983	-0.257244
O13	O	0.756147	1.077944	-0.158444
Zr14	Zr	0.960011	1.002770	0.007562
Zr15	Zr	0.974264	0.955735	-0.203597
Zr16	Zr	0.772958	1.002667	0.007547
Zr17	Zr	0.809634	1.190326	-0.227131
Zr18	Zr	0.937588	0.768077	0.031081
O19	O	0.945608	1.180529	-0.050516
O20	O	0.965874	1.113652	-0.350756
O21	O	0.679642	1.180383	-0.050537
O22	O	1.047314	0.844897	0.154728
O23	O	1.067580	0.778020	-0.145512
O24	O	0.781348	0.844751	0.154707
O25	O	1.085403	0.964570	-0.164207
O26	O	0.916455	1.031365	0.136021
O27	O	0.799172	1.031301	0.136012
O28	O	1.076467	0.994061	-0.031810
O29	O	0.862650	1.260741	-0.365512
O30	O	0.884572	0.697662	0.169463
O31	O	1.033254	0.697743	0.169475
O32	O	1.044583	0.660357	0.001632
O33	O	0.702639	1.298046	-0.197681
O34	O	0.851321	1.298127	-0.197670
O35	O	0.896878	0.902419	0.061194
O36	O	0.991075	0.880459	-0.037606
O37	O	0.931202	1.078040	-0.158430
O38	O	0.837005	1.100001	-0.059630
C39	C	0.845563	0.685636	-0.068606
C40	C	0.836043	0.586003	-0.058621
C41	C	0.639636	0.979073	-0.098043
C42	C	0.560227	0.979030	-0.098049
C43	C	0.878527	0.530689	-0.103181
C44	C	0.868689	0.427713	-0.092863
C45	C	0.229185	0.963091	-0.170947
C46	C	0.219455	0.995586	-0.025063
C47	C	0.294096	0.995519	-0.025073
C48	C	0.336286	0.979237	-0.098020
C49	C	0.303835	0.963020	-0.170957
C50	C	0.326556	1.011723	0.047871
C51	C	0.401203	1.011656	0.047865
C52	C	0.443392	0.995382	-0.025089
C53	C	0.410936	0.979166	-0.098030
C54	C	0.453126	0.962884	-0.170977
C55	C	0.420669	0.946676	-0.243924
C56	C	0.346024	0.946746	-0.243911
C57	C	0.518037	0.995312	-0.025102
C58	C	0.527776	0.962813	-0.170987
C59	C	1.107586	0.979330	-0.098006
C60	C	1.186995	0.979373	-0.098000
C61	C	0.891439	0.920368	-0.362152
C62	C	0.897490	0.900401	-0.451794
C63	C	0.901659	1.272767	-0.127444
C64	C	0.911179	1.372400	-0.137429
C65	C	0.870486	0.989513	-0.551697
C66	C	0.876739	0.968878	-0.644348
C67	C	0.855783	1.038034	0.166102
C68	C	0.849732	1.058002	0.255745
C69	C	1.079538	0.685764	-0.068587
C70	C	1.149427	0.586175	-0.058596
C71	C	0.827735	0.744469	0.195521
C72	C	0.812164	0.664803	0.295148
C73	C	1.061710	0.744597	0.195540
C74	C	1.125549	0.664975	0.295173
C75	C	0.685512	1.213805	-0.391589
C76	C	0.621673	1.293428	-0.491223
C77	C	0.667684	1.272638	-0.127462
C78	C	0.597795	1.372228	-0.137453
C79	C	0.919487	1.213934	-0.391571
C80	C	0.935058	1.293600	-0.491198
C81	C	1.140042	0.527891	-0.105493
C82	C	1.205706	0.434324	-0.096127
C83	C	1.280754	0.399038	-0.039857
C84	C	1.290139	0.457331	0.007041
C85	C	1.224476	0.550901	-0.002333
C86	C	0.847059	0.638906	0.393523
C87	C	0.832427	0.564067	0.487140
C88	C	0.782904	0.515118	0.482380
C89	C	0.748005	0.541022	0.383995
C90	C	0.762633	0.615867	0.290380
C91	C	1.204706	0.616120	0.290389
C92	C	1.264698	0.541318	0.383996
C93	C	1.245531	0.515365	0.482386
C94	C	1.166367	0.564229	0.487166
C95	C	1.106377	0.639036	0.393560
C96	C	0.542517	1.342294	-0.486440
C97	C	0.482528	1.417126	-0.580050
C98	C	0.501695	1.443083	-0.678440
C99	C	0.580859	1.394214	-0.683220
C100	C	0.640848	1.319390	-0.589612
C101	C	0.607182	1.430520	-0.090566
C102	C	0.541521	1.524107	-0.099959
C103	C	0.466474	1.559396	-0.156232
C104	C	0.457089	1.501099	-0.203125
C105	C	0.522749	1.407519	-0.193738
C106	C	0.984584	1.342525	-0.486404
C107	C	0.999229	1.417369	-0.580005
C108	C	0.964342	1.443293	-0.678399
C109	C	0.914813	1.394358	-0.683190
C110	C	0.900174	1.319509	-0.589590
H111	H	0.922186	0.559563	-0.148965
H112	H	1.329153	0.501538	0.380085
H113	H	0.734219	0.636940	0.210284
H114	H	0.859842	1.279681	-0.593508
H115	H	1.041924	0.678805	0.397470
Br116	Br	0.377370	1.686402	-0.168960
Br117	Br	1.391995	0.409426	0.083407
Br118	Br	1.192951	0.355229	-0.159777
H119	H	0.887384	0.678754	0.397418
Br120	Br	0.803488	1.210637	-0.772511
Br121	Br	0.795928	0.379583	-0.016528
Br122	Br	0.554276	1.603203	-0.036308
H123	H	1.012996	1.321432	-0.406296
H124	H	1.150772	0.543087	0.567288
Br125	Br	0.420271	1.544633	-0.805471
Br126	Br	0.162204	1.017667	0.073944
H127	H	0.954840	0.401271	-0.183216
H128	H	1.220326	0.637238	0.210285
Br129	Br	0.355232	1.549003	-0.279489
H130	H	0.860851	0.542986	0.567239
H131	H	0.596457	1.415358	-0.763341
Br132	Br	0.509994	1.328414	-0.257373
H133	H	0.925240	0.808833	-0.434857
Br134	Br	0.763059	0.413545	0.609441
H135	H	0.526895	1.321164	-0.406334
H136	H	0.792390	0.557120	-0.012830
Br137	Br	1.066444	1.483770	-0.573478
Br138	Br	0.748273	1.253072	-0.596121
Br139	Br	0.709024	1.382654	-0.014193
H140	H	0.562121	0.949560	-0.230394
H141	H	1.078942	0.556616	-0.151326
Br142	Br	0.984218	1.544879	-0.805420
Br143	Br	1.237227	0.629986	0.061328
Br144	Br	0.867466	1.429562	-0.816735
Br145	Br	1.326957	0.413837	0.609415
H146	H	0.455031	0.933411	-0.303314
H147	H	0.319593	0.933549	-0.303300
H148	H	0.707683	0.501158	0.380136
H149	H	0.904492	0.877303	-0.627403
H150	H	0.202756	0.949899	-0.230343
H151	H	0.544462	1.008501	0.034295
H152	H	0.427624	1.024855	0.107261
Br153	Br	0.269306	1.033805	0.146877
Br154	Br	1.369860	0.272046	-0.027146
Br155	Br	0.824244	1.142140	-0.579941
H156	H	0.418073	1.456904	-0.576136
