data_functionalizedCrystal
_audit_creation_method	'MofGen! by Chris Wilmer'
_symmetry_space_group_name_H-M	'P1'
_symmetry_Int_Tables_number	1
_symmetry_cell_setting	triclinic
loop_
_symmetry_equiv_pos_as_xyz
  x,y,z
_cell_length_a	13.262402
_cell_length_b	15.944493
_cell_length_c	12.376457
_cell_angle_alpha	101.280268
_cell_angle_beta	94.181204
_cell_angle_gamma	83.974489
loop_
_atom_site_label
_atom_site_type_symbol
_atom_site_fract_x
_atom_site_fract_y
_atom_site_fract_z
O1	O	1.325469	0.166635	0.313572
O2	O	1.038768	0.163899	0.225415
O3	O	1.189979	0.043429	0.271901
O4	O	1.174258	0.287106	0.267086
O5	O	1.152190	0.073503	0.448296
O6	O	1.000979	0.193974	0.401810
O7	O	1.287679	0.196710	0.489966
Zn8	Zn	1.138329	0.200117	0.473894
Zn9	Zn	1.188118	0.160492	0.241487
O10	O	1.136468	0.317180	0.443480
C11	C	0.983186	0.176323	0.302331
C12	C	0.873870	0.168525	0.268717
C13	C	0.843112	0.148466	0.156769
C14	C	0.740402	0.141147	0.125188
C15	C	0.668442	0.153880	0.205552
C16	C	0.699200	0.173934	0.317503
C17	C	0.801919	0.181259	0.349086
C18	C	0.627249	0.186674	0.397869
C19	C	0.658008	0.206727	0.509820
C20	C	0.760717	0.214052	0.541398
C21	C	0.832677	0.201318	0.461034
C22	C	0.524530	0.179348	0.366286
C23	C	0.483337	0.212142	0.558603
C24	C	0.586047	0.219461	0.590184
C25	C	1.170443	0.027134	0.359896
C26	C	1.168520	-0.066225	0.359291
C27	C	1.257521	-0.296985	0.386679
C28	C	1.228156	-0.365076	0.284949
C29	C	1.164948	-0.237144	0.358206
C30	C	1.190877	-0.335402	0.458854
C31	C	1.161505	-0.402243	0.357166
C32	C	1.135624	-0.304017	0.256412
C33	C	1.098342	-0.274325	0.430399
C34	C	1.068913	-0.342390	0.328627
C35	C	1.166935	-0.142034	0.358806
C36	C	1.159512	-0.497352	0.356556
C37	C	1.343262	0.184286	0.413048
C38	C	1.452579	0.192083	0.446655
C39	C	1.156005	0.333474	0.355483
C40	C	1.157930	0.426832	0.356081
N41	N	1.104357	0.227159	0.632509
N42	N	1.222099	0.133444	0.082875
C43	C	1.300960	0.070653	1.047935
C44	C	1.324731	0.051725	0.936903
C45	C	1.269640	0.095582	0.860799
C46	C	1.190772	0.158370	0.895738
C47	C	1.167003	0.177304	1.006782
C48	C	1.135683	0.202233	0.819646
C49	C	1.056816	0.265021	0.854585
C50	C	1.033050	0.283952	0.965618
C51	C	1.088142	0.240095	1.041722
C52	C	1.159452	0.183299	0.708602
C53	C	1.025496	0.289950	0.667449
C54	C	1.001724	0.308878	0.778481
H55	H	0.785755	0.230388	0.632555
H56	H	0.980637	0.325664	0.605485
H57	H	1.283003	-0.404363	0.223441
C58	C	1.389628	-0.096227	0.920880
C59	C	1.411365	-0.017400	0.898702
H60	H	1.443099	-0.138937	0.897350
H61	H	1.383232	-0.091075	0.997894
H62	H	1.327819	-0.112133	0.882419
H63	H	1.473170	-0.001491	0.937170
H64	H	1.417773	-0.022551	0.821674
H65	H	1.288998	0.080168	0.770393
C66	C	1.295616	-0.021150	1.179385
C67	C	1.361506	0.022452	1.131590
H68	H	1.333000	-0.050912	1.231028
H69	H	1.245257	0.018958	1.216074
H70	H	1.263917	-0.061077	1.123466
H71	H	1.393199	0.062384	1.187509
H72	H	1.411882	-0.017661	1.094901
H73	H	1.112320	-0.289939	0.170792
H74	H	0.989121	-0.362344	0.304041
C75	C	1.224569	0.035337	0.692280
C76	C	1.246122	0.114257	0.670244
H77	H	1.278073	-0.007297	0.668607
H78	H	1.218274	0.040375	0.769293
H79	H	1.162749	0.019404	0.653868
H80	H	1.307939	0.130193	0.708663
H81	H	1.252429	0.109220	0.593217
H82	H	1.043527	-0.235020	0.491920
C83	C	1.321149	-0.331868	0.604516
C84	C	1.222405	-0.354563	0.574348
H85	H	1.340614	-0.343693	0.675818
H86	H	1.366588	-0.364172	0.552668
H87	H	1.323204	-0.272342	0.605539
H88	H	1.220352	-0.414091	0.573317
H89	H	1.176954	-0.322261	0.626211
H90	H	1.068785	0.255503	1.132133
H91	H	0.968839	0.335084	0.994066
C92	C	0.688751	0.175181	0.740664
C93	C	0.619867	0.241509	0.713237
H94	H	0.709634	0.188798	0.816630
H95	H	0.657049	0.123123	0.726666
H96	H	0.746296	0.168652	0.697308
H97	H	0.562319	0.248035	0.756588
H98	H	0.651569	0.293583	0.727247
C99	C	0.840983	0.340798	0.862188
C100	C	0.915039	0.377897	0.816900
H101	H	0.787472	0.383410	0.885913
H102	H	0.814843	0.296451	0.807986
H103	H	0.870409	0.317386	0.923393
H104	H	0.885615	0.401304	0.755690
H105	H	0.941181	0.422259	0.871107
C106	C	0.516953	0.220684	0.189244
C107	C	0.490729	0.157302	0.243236
H108	H	0.496091	0.207068	0.113272
H109	H	0.484134	0.274741	0.221264
H110	H	0.588424	0.223218	0.196566
H111	H	0.419256	0.154773	0.235921
H112	H	0.523545	0.103230	0.211205
C113	C	0.791446	0.109456	-0.061729
C114	C	0.706596	0.119093	0.002140
H115	H	0.770574	0.095832	-0.137697
H116	H	0.823131	0.161523	-0.047728
H117	H	0.838169	0.064465	-0.043087
H118	H	0.659876	0.164089	-0.016497
H119	H	0.674895	0.067020	-0.011868
H120	H	0.584812	0.147920	0.179832
H121	H	0.916315	0.207270	0.486742
C122	C	1.018857	0.145138	0.119809
C123	C	0.922210	0.134471	0.068443
H124	H	1.067688	0.136493	0.065273
H125	H	1.019700	0.201601	0.162175
H126	H	1.034732	0.104541	0.166802
H127	H	0.906331	0.175073	0.021456
H128	H	0.921364	0.077999	0.026058
C129	C	0.307601	0.215456	0.595589
C130	C	0.404249	0.226130	0.646950
H131	H	0.258774	0.224085	0.650128
H132	H	0.291715	0.256050	0.548608
H133	H	0.306766	0.158986	0.553212
H134	H	0.405086	0.282602	0.689321
H135	H	0.420139	0.185534	0.693950
H136	H	1.337280	-0.276896	0.411111
