data_functionalizedCrystal
_audit_creation_method	'MofGen! by Chris Wilmer'
_symmetry_space_group_name_H-M	'P1'
_symmetry_Int_Tables_number	1
_symmetry_cell_setting	triclinic
loop_
_symmetry_equiv_pos_as_xyz
  x,y,z
_cell_length_a	15.538191
_cell_length_b	15.944551
_cell_length_c	14.750779
_cell_angle_alpha	77.355667
_cell_angle_beta	97.572172
_cell_angle_gamma	65.385416
loop_
_atom_site_label
_atom_site_type_symbol
_atom_site_fract_x
_atom_site_fract_y
_atom_site_fract_z
O1	O	1.229446	-0.248345	-0.079831
O2	O	0.955193	-0.151359	-0.079833
O3	O	1.099811	-0.324413	-0.079824
O4	O	1.084828	-0.075291	-0.079841
O5	O	1.140693	-0.373329	0.079829
O6	O	0.996075	-0.200275	0.079820
O7	O	1.270328	-0.297261	0.079821
Zn8	Zn	1.139692	-0.256535	0.105169
Zn9	Zn	1.085829	-0.192085	-0.105181
O10	O	1.125710	-0.124207	0.079812
C11	C	0.940539	-0.165670	-0.000007
C12	C	0.835967	-0.135444	-0.000007
C13	C	0.548159	-0.435726	-0.000001
C14	C	0.449895	-0.407303	-0.000004
C15	C	0.427459	-0.247430	-0.000015
C16	C	0.525725	-0.275842	-0.000007
C17	C	0.586068	-0.369990	-0.000002
C18	C	0.563633	-0.210106	-0.000008
C19	C	0.661889	-0.238514	-0.000005
C20	C	0.722237	-0.332657	-0.000003
C21	C	0.684324	-0.398398	0.000001
C22	C	0.503287	-0.115955	-0.000020
C23	C	0.541195	-0.050219	-0.000021
C24	C	0.639455	-0.078629	-0.000012
C25	C	0.699803	-0.172773	-0.000009
C26	C	0.677369	-0.012888	-0.000015
C27	C	0.775625	-0.041296	-0.000013
C28	C	0.798059	-0.201180	-0.000006
C29	C	1.119630	-0.379976	0.000003
C30	C	1.117766	-0.472653	0.000004
C31	C	1.023667	-0.658813	-0.000010
C32	C	1.087519	-0.757273	0.078709
C33	C	1.114392	-0.642349	-0.000004
C34	C	1.047235	-0.709035	-0.078697
C35	C	1.111125	-0.806262	-0.000015
C36	C	1.178285	-0.739608	0.078780
C37	C	1.137970	-0.691338	-0.078696
C38	C	1.201893	-0.789807	0.000042
C39	C	1.116272	-0.547921	0.000004
C40	C	1.109254	-0.900693	-0.000016
C41	C	1.284982	-0.282950	-0.000007
C42	C	1.389552	-0.313173	-0.000013
C43	C	1.105890	-0.068644	-0.000017
C44	C	1.107753	0.024036	-0.000024
N45	N	1.176460	-0.300522	0.248727
N46	N	1.049069	-0.148107	-0.248739
C47	C	0.946383	-0.025293	0.600530
C48	C	0.972154	-0.056113	0.701031
C49	C	1.100240	-0.209318	0.701002
C50	C	1.074477	-0.178513	0.600499
C51	C	0.997548	-0.086499	0.550271
C52	C	1.125641	-0.239719	0.550240
C53	C	1.099883	-0.208913	0.449746
C54	C	1.022960	-0.116902	0.399511
C55	C	0.971790	-0.055693	0.449777
C56	C	1.202574	-0.331730	0.600470
C57	C	1.253739	-0.392936	0.550211
C58	C	1.227976	-0.362133	0.449715
C59	C	1.151053	-0.270122	0.399480
C60	C	1.279146	-0.423342	0.399449
C61	C	1.253388	-0.392536	0.298955
C62	C	1.125295	-0.239316	0.298986
H63	H	0.733460	-0.475065	0.000011
H64	H	1.001991	-0.091820	0.317682
N65	N	0.859699	-0.297349	-0.000015
N66	N	0.899795	-0.310417	-0.067313
H67	H	0.943327	-0.378333	-0.067322
H68	H	1.277274	-0.845962	0.000087
N69	N	1.228864	-0.363206	0.703123
N70	N	1.167585	-0.368717	0.747981
H71	H	1.186149	-0.390952	0.820480
H72	H	1.316377	-0.467853	0.591118
H73	H	1.341788	-0.498257	0.440358
H74	H	1.233685	-0.751722	0.145404
N75	N	0.893213	0.038296	0.398447
N76	N	0.870230	0.065786	0.308721
H77	H	0.814738	0.132163	0.272466
N78	N	0.365831	-0.151258	-0.000027
N79	N	0.352070	-0.080283	-0.067323
H80	H	0.308549	-0.012359	-0.067330
N81	N	0.822606	-0.361669	0.000012
N82	N	0.878683	-0.359278	0.067311
H83	H	0.949569	-0.379767	0.067324
N84	N	0.609799	-0.531909	0.000027
N85	N	0.575948	-0.590602	0.000043
H86	H	0.619480	-0.658529	0.000066
N87	N	0.977719	-0.693993	-0.162183
N88	N	0.965684	-0.763433	-0.175908
H89	H	0.916585	-0.752809	-0.234867
N90	N	1.178826	-0.303295	0.752327
N91	N	1.201823	-0.330787	0.842053
H92	H	1.257327	-0.397159	0.878302
N93	N	0.867804	0.068704	0.549228
N94	N	0.871968	0.142513	0.560449
H95	H	0.816475	0.208896	0.524216
H96	H	1.159267	-0.662508	-0.145250
H97	H	0.628221	0.063771	-0.000029
H98	H	1.066188	-0.786071	0.145259
N99	N	0.919872	0.006423	0.752355
N100	N	0.851188	0.088571	0.707493
H101	H	0.814262	0.132737	0.743739
N102	N	0.929223	-0.588259	0.000090
N103	N	0.891598	-0.604051	0.067577
H104	H	0.824899	-0.554224	0.067652
N105	N	0.479571	0.045946	-0.000012
N106	N	0.513436	0.104627	-0.000004
H107	H	0.469917	0.172545	0.000006
N108	N	1.305542	-0.455134	0.247625
N109	N	1.374142	-0.537332	0.292482
H110	H	1.410935	-0.581570	0.256231
H111	H	0.423281	-0.092828	-0.000025
N112	N	1.046715	-0.145320	0.247684
N113	N	1.050879	-0.071511	0.258905
H114	H	0.995386	-0.005128	0.222672
H115	H	0.419035	-0.460840	-0.000005
H116	H	0.806492	0.012231	-0.000004
