data_functionalizedCrystal
_audit_creation_method	'MofGen! by Chris Wilmer'
_symmetry_space_group_name_H-M	'P1'
_symmetry_Int_Tables_number	1
_symmetry_cell_setting	triclinic
loop_
_symmetry_equiv_pos_as_xyz
  x,y,z
_cell_length_a	10.654550
_cell_length_b	10.654551
_cell_length_c	9.730223
_cell_angle_alpha	89.998425
_cell_angle_beta	89.999957
_cell_angle_gamma	84.485146
loop_
_atom_site_label
_atom_site_type_symbol
_atom_site_fract_x
_atom_site_fract_y
_atom_site_fract_z
O1	O	1.667840	0.176399	-0.114178
O2	O	1.302361	0.193205	-0.114202
O3	O	1.493503	0.002062	-0.114190
O4	O	1.476698	0.367541	-0.114190
O5	O	1.493490	0.002057	0.114390
O6	O	1.302349	0.193199	0.114378
O7	O	1.667827	0.176393	0.114402
Zn8	Zn	1.485086	0.184795	0.150682
Zn9	Zn	1.485102	0.184802	-0.150482
O10	O	1.476686	0.367535	0.114390
C11	C	1.255557	0.191968	0.000084
C12	C	1.116114	0.188276	0.000075
C13	C	1.492263	-0.044738	0.000097
C14	C	1.488570	-0.184181	0.000087
C15	C	1.036629	0.300818	0.000079
C16	C	0.905608	0.297341	0.000103
C17	C	0.933570	0.068772	0.000113
C18	C	1.064588	0.072249	0.000099
C19	C	1.486845	-0.249690	-0.124510
C20	C	1.483364	-0.380711	-0.124503
C21	C	1.483340	-0.380702	0.124707
C22	C	1.486812	-0.249683	0.124699
C23	C	1.488603	-0.184189	-0.249122
C24	C	1.486879	-0.249698	-0.373729
C25	C	1.483399	-0.380719	-0.373723
C26	C	1.481642	-0.446230	-0.249110
C27	C	1.714631	0.177630	0.000112
C28	C	1.854075	0.181322	0.000113
C29	C	1.477926	0.414336	0.000100
C30	C	1.481619	0.553779	0.000101
N31	N	1.485084	0.184790	0.356218
N32	N	1.485114	0.184798	-0.356018
C33	C	1.569751	0.100188	0.428150
C34	C	1.569763	0.100189	0.572032
C35	C	1.400439	0.269404	0.572040
C36	C	1.400421	0.269396	0.428160
H37	H	0.840895	0.388984	0.000109
C38	C	1.661426	0.008201	0.349901
C39	C	1.593807	-0.069281	0.267335
C40	C	1.678202	-0.154056	0.195240
H41	H	1.711853	-0.042305	0.413224
H42	H	1.714106	0.053767	0.293655
H43	H	1.541149	-0.114843	0.323575
H44	H	1.543385	-0.018811	0.203985
H45	H	1.730882	-0.108490	0.138995
H46	H	1.728624	-0.204552	0.258574
H47	H	1.632335	-0.206629	0.139201
C48	C	1.308326	0.361115	0.650084
C49	C	1.184737	0.339569	0.615136
C50	C	1.099850	0.424019	0.687015
H51	H	1.322511	0.445117	0.626554
H52	H	1.320380	0.348996	0.746089
H53	H	1.172688	0.351698	0.519153
H54	H	1.170512	0.255583	0.638670
H55	H	1.111904	0.411900	0.783020
H56	H	1.114047	0.508017	0.663479
H57	H	1.015986	0.409404	0.663323
H58	H	1.331469	0.338290	0.369590
H59	H	1.478790	-0.552913	-0.249115
H60	H	1.488190	-0.196341	0.226157
C61	C	1.092330	0.426911	0.000137
C62	C	0.994671	0.524724	0.000184
C63	C	1.045930	0.640901	0.000260
H64	H	1.142834	0.433202	-0.079558
H65	H	1.142831	0.433084	0.079874
H66	H	0.944191	0.518553	-0.079546
H67	H	0.944159	0.518475	0.079872
H68	H	1.096431	0.647075	0.079997
H69	H	1.096433	0.647179	-0.079436
H70	H	0.979677	0.707281	0.000305
C71	C	1.150836	-0.049987	-0.000191
C72	C	1.127419	-0.119769	-0.117803
C73	C	1.206856	-0.232365	-0.118120
H74	H	1.135189	-0.097664	0.079430
H75	H	1.236263	-0.031349	-0.000273
H76	H	1.042012	-0.138410	-0.117709
H77	H	1.143074	-0.072131	-0.197443
H78	H	1.292283	-0.213727	-0.118202
H79	H	1.191203	-0.280031	-0.038494
H80	H	1.190987	-0.279721	-0.197924
H81	H	0.891602	-0.025693	0.000141
C82	C	1.488567	-0.178401	-0.508921
C83	C	1.382715	-0.089976	-0.516190
C84	C	1.384225	-0.024270	-0.640707
H85	H	1.486970	-0.236039	-0.583234
H86	H	1.562993	-0.136152	-0.514131
H87	H	1.308309	-0.132224	-0.510994
H88	H	1.384290	-0.032312	-0.441907
H89	H	1.458651	0.017980	-0.645916
H90	H	1.382631	-0.081917	-0.715009
H91	H	1.312413	0.035742	-0.645650
H92	H	1.491440	-0.077506	-0.249141
C93	C	1.661832	0.008282	0.649881
C94	C	1.735987	-0.065788	0.556076
C95	C	1.820827	-0.150459	0.627738
H96	H	1.616359	-0.044541	0.706023
H97	H	1.714573	0.053921	0.705969
H98	H	1.683252	-0.111424	0.500011
H99	H	1.781487	-0.012999	0.499931
H100	H	1.873568	-0.104820	0.683826
H101	H	1.775344	-0.203274	0.683878
H102	H	1.871159	-0.200718	0.564103
C103	C	1.481713	-0.452028	-0.508902
C104	C	1.587559	-0.540463	-0.516150
C105	C	1.586045	-0.606185	-0.640653
H106	H	1.483317	-0.394400	-0.583226
H107	H	1.407283	-0.494271	-0.514103
H108	H	1.661969	-0.498222	-0.510963
H109	H	1.585976	-0.598117	-0.441855
H110	H	1.511615	-0.648428	-0.645854
H111	H	1.587646	-0.548547	-0.714968
H112	H	1.657853	-0.666203	-0.645582
H113	H	1.481911	-0.434052	0.226161
