data_functionalizedCrystal
_audit_creation_method	'MofGen! by Chris Wilmer'
_symmetry_space_group_name_H-M	'P1'
_symmetry_Int_Tables_number	1
_symmetry_cell_setting	triclinic
loop_
_symmetry_equiv_pos_as_xyz
  x,y,z
_cell_length_a	13.033293
_cell_length_b	16.625539
_cell_length_c	13.032721
_cell_angle_alpha	82.846360
_cell_angle_beta	74.815879
_cell_angle_gamma	82.790144
loop_
_atom_site_label
_atom_site_type_symbol
_atom_site_fract_x
_atom_site_fract_y
_atom_site_fract_z
Zn1	Zn	1.570217	-0.631280	0.216821
Zn2	Zn	1.547533	-0.511623	0.394466
Zn3	Zn	1.392579	-0.481235	0.239396
Zn4	Zn	1.369996	-0.631187	0.416927
O5	O	1.470081	-0.563831	0.316903
O6	O	1.715850	-0.628163	0.221539
O7	O	1.526936	-0.394760	0.373943
O8	O	1.435087	-0.488460	0.087759
O9	O	1.699185	-0.540252	0.352054
O10	O	1.565598	-0.598697	0.071174
O11	O	1.413091	-0.372434	0.260013
O12	O	1.240941	-0.488370	0.281793
O13	O	1.396598	-0.744031	0.390336
O14	O	1.224350	-0.598539	0.412225
O15	O	1.543700	-0.744099	0.243319
O16	O	1.505038	-0.540162	0.546088
O17	O	1.374603	-0.628005	0.562590
C18	C	1.194104	-0.540147	0.351897
C19	C	1.076036	-0.530037	0.366893
C20	C	1.031631	-0.569110	0.309103
C21	C	0.909602	-0.558661	0.324601
C22	C	1.470161	-0.774139	0.316815
C23	C	1.470194	-0.863760	0.316777
C24	C	1.470258	-1.191930	0.316652
C25	C	1.470237	-1.100623	0.316691
C26	C	1.470227	-1.027848	0.316715
C27	C	1.470205	-0.936535	0.316752
C28	C	1.747136	-0.587608	0.281773
C29	C	1.865201	-0.597740	0.266802
C30	C	1.434937	-0.587391	0.592877
C31	C	1.419999	-0.597505	0.710927
C32	C	1.470073	-0.354340	0.316906
C33	C	1.470284	-0.264712	0.316618
C34	C	1.505392	-0.540199	0.039847
C35	C	1.520439	-0.530129	-0.078217
C36	C	1.477934	-0.558593	0.755351
C37	C	1.462497	-0.569046	0.877362
H38	H	0.917521	-0.638926	0.205843
H39	H	1.358975	-0.638562	0.763222
H40	H	1.538967	-0.517544	0.703057
C41	C	1.380047	-0.624509	0.947996
H42	H	1.380482	-0.624255	1.020735
H43	H	1.397834	-0.678477	0.927842
H44	H	1.310950	-0.604999	0.938998
C45	C	1.005360	-0.474398	0.449236
H46	H	0.932613	-0.474679	0.448857
H47	H	1.025441	-0.420445	0.431326
H48	H	1.014412	-0.493756	0.518338
H49	H	0.857281	-0.517469	0.385552
C50	C	1.102302	-0.624754	0.226763
H51	H	1.058619	-0.647910	0.192511
H52	H	1.140424	-0.666990	0.261993
H53	H	1.151452	-0.593685	0.174971
C54	C	1.602867	-0.474647	0.851154
H55	H	1.602417	-0.474886	0.778416
H56	H	1.671969	-0.494132	0.860143
H57	H	1.585045	-0.420680	0.871323
