data_functionalizedCrystal
_audit_creation_method	'MofGen! by Chris Wilmer'
_symmetry_space_group_name_H-M	'P1'
_symmetry_Int_Tables_number	1
_symmetry_cell_setting	triclinic
loop_
_symmetry_equiv_pos_as_xyz
  x,y,z
_cell_length_a	13.897449
_cell_length_b	13.897448
_cell_length_c	13.897441
_cell_angle_alpha	90.028012
_cell_angle_beta	89.979267
_cell_angle_gamma	89.979152
loop_
_atom_site_label
_atom_site_type_symbol
_atom_site_fract_x
_atom_site_fract_y
_atom_site_fract_z
Zn1	Zn	1.474690	0.383951	-0.545399
Zn2	Zn	1.474579	0.545273	-0.384107
Zn3	Zn	1.313379	0.383997	-0.384117
Zn4	Zn	1.313356	0.545210	-0.545360
O5	O	1.394001	0.464608	-0.464746
O6	O	1.609657	0.405358	-0.524015
O7	O	1.453159	0.523925	-0.249127
O8	O	1.334834	0.249009	-0.405532
O9	O	1.609575	0.523881	-0.405515
O10	O	1.453348	0.248976	-0.524024
O11	O	1.334726	0.405436	-0.249134
O12	O	1.178394	0.405375	-0.405494
O13	O	1.334794	0.523773	-0.680347
O14	O	1.178377	0.523817	-0.523958
O15	O	1.453325	0.405297	-0.680375
O16	O	1.453136	0.680246	-0.405477
O17	O	1.334686	0.680200	-0.523949
C18	C	1.143387	0.464595	-0.464724
C19	C	1.036173	0.464613	-0.464737
C20	C	1.393922	0.715222	-0.464729
C21	C	1.393977	0.822436	-0.464754
C22	C	1.394069	0.464522	-0.716339
C23	C	1.394098	0.464486	-0.823553
C24	C	0.839878	0.464616	-0.464762
C25	C	0.949110	0.464611	-0.464746
C26	C	1.645594	0.464621	-0.464768
C27	C	1.752808	0.464627	-0.464778
C28	C	1.394072	1.018731	-0.464824
C29	C	1.394016	0.909499	-0.464788
C30	C	1.394098	1.213015	-0.464795
C31	C	1.394118	1.105801	-0.464845
C32	C	1.394125	0.464421	-1.019848
C33	C	1.394107	0.464460	-0.910615
C34	C	1.393988	0.464623	-0.214131
C35	C	1.394146	0.464388	-0.106918
