data_functionalizedCrystal
_audit_creation_method	'MofGen! by Chris Wilmer'
_symmetry_space_group_name_H-M	'P1'
_symmetry_Int_Tables_number	1
_symmetry_cell_setting	triclinic
loop_
_symmetry_equiv_pos_as_xyz
  x,y,z
_cell_length_a	18.215407
_cell_length_b	14.908178
_cell_length_c	18.215399
_cell_angle_alpha	86.674032
_cell_angle_beta	89.983115
_cell_angle_gamma	93.311467
loop_
_atom_site_label
_atom_site_type_symbol
_atom_site_fract_x
_atom_site_fract_y
_atom_site_fract_z
Zn1	Zn	1.108194	-0.359253	-0.399149
Zn2	Zn	1.608194	0.140747	0.100851
Zn3	Zn	1.101016	-0.510134	-0.268977
Zn4	Zn	1.601016	-0.010134	0.231023
Zn5	Zn	0.985126	-0.359276	-0.276101
Zn6	Zn	1.485126	0.140724	0.223899
Zn7	Zn	0.978008	-0.510075	-0.392010
Zn8	Zn	1.478008	-0.010075	0.107990
O9	O	1.043086	-0.434684	-0.334059
O10	O	1.543086	0.065316	0.165941
O11	O	1.210225	-0.379283	-0.381888
O12	O	1.710225	0.120717	0.118112
O13	O	1.085618	-0.490157	-0.166936
O14	O	1.585618	0.009843	0.333064
O15	O	1.007434	-0.233018	-0.298392
O16	O	1.507434	0.266982	0.201608
O17	O	1.204951	-0.490135	-0.286251
O18	O	1.704951	0.009865	0.213749
O19	O	1.097851	-0.233002	-0.388795
O20	O	1.597851	0.266998	0.111205
O21	O	1.000474	-0.379322	-0.172170
O22	O	1.500474	0.120678	0.327830
O23	O	0.881198	-0.379264	-0.291470
O24	O	1.381198	0.120736	0.208530
O25	O	0.995302	-0.490034	-0.495943
O26	O	1.495302	0.009966	0.004057
O27	O	0.875968	-0.490056	-0.376628
O28	O	1.375968	0.009944	0.123372
O29	O	1.090949	-0.379226	-0.501188
O30	O	1.590949	0.120774	-0.001188
O31	O	1.078715	-0.636380	-0.279329
O32	O	1.578715	-0.136380	0.220671
O33	O	0.988342	-0.636337	-0.369721
O34	O	1.488342	-0.136337	0.130279
C35	C	0.851881	-0.434657	-0.334048
C36	C	1.351881	0.065343	0.165952
C37	C	0.770081	-0.434667	-0.334059
C38	C	1.270081	0.065333	0.165941
C39	C	0.584627	-0.377065	-0.383926
C40	C	1.084627	0.122935	0.116074
C41	C	0.507768	-0.377073	-0.383928
C42	C	1.007768	0.122927	0.116072
C43	C	0.502296	-0.492329	-0.284205
C44	C	1.002296	0.007671	0.215795
C45	C	0.579153	-0.492316	-0.284200
C46	C	1.079153	0.007684	0.215800
C47	C	0.620317	-0.434685	-0.334064
C48	C	1.120317	0.065315	0.165936
C49	C	0.466600	-0.434706	-0.334072
C50	C	0.966600	0.065294	0.165928
C51	C	0.383266	-0.434715	-0.334073
C52	C	0.883266	0.065285	0.165927
C53	C	0.703657	-0.434675	-0.334062
C54	C	1.203657	0.065325	0.165938
C55	C	1.031997	-0.669095	-0.322994
C56	C	1.531997	-0.169095	0.177006
C57	C	1.027321	-0.769377	-0.318284
C58	C	1.527321	-0.269377	0.181716
C59	C	1.112614	-0.957650	-0.403673
C60	C	1.612614	-0.457650	0.096327
C61	C	1.108222	-1.051873	-0.399250
C62	C	1.608222	-0.551873	0.100750
C63	C	1.014144	-1.052050	-0.305021
C64	C	1.514144	-0.552050	0.194979
C65	C	1.018535	-0.957826	-0.309444
C66	C	1.518535	-0.457826	0.190556
C67	C	1.067772	-0.910629	-0.358770
C68	C	1.567772	-0.410629	0.141230
C69	C	1.072167	-0.816404	-0.363188
C70	C	1.572167	-0.316404	0.136812
C71	C	0.978085	-0.816582	-0.268964
C72	C	1.478085	-0.316582	0.231036
C73	C	0.973694	-0.910805	-0.264541
C74	C	1.473694	-0.410805	0.235459
C75	C	1.235037	-0.434713	-0.334071
C76	C	1.735037	0.065287	0.165929
C77	C	1.316836	-0.434725	-0.334077
C78	C	1.816836	0.065275	0.165923
C79	C	1.043132	-0.434620	-0.526015
C80	C	1.543132	0.065380	-0.026015
C81	C	1.043152	-0.434593	-0.607816
C82	C	1.543152	0.065407	-0.107816
C83	C	1.054238	-0.199358	-0.345185
C84	C	1.554238	0.300642	0.154815
C85	C	1.058990	-0.099077	-0.349925
C86	C	1.558990	0.400923	0.150075
C87	C	1.092986	-0.376818	-0.875609
C88	C	1.592986	0.123182	-0.375609
C89	C	1.092976	-0.376842	-0.798749
C90	C	1.592976	0.123158	-0.298749
C91	C	0.993383	-0.492238	-0.793277
C92	C	1.493383	0.007762	-0.293277
C93	C	0.993397	-0.492218	-0.870135
C94	C	1.493397	0.007782	-0.370135
C95	C	1.043198	-0.434502	-0.911300
C96	C	1.543198	0.065498	-0.411300
C97	C	1.043174	-0.434547	-0.757581
C98	C	1.543174	0.065453	-0.257581
C99	C	1.043163	-0.434574	-0.674246
C100	C	1.543163	0.065426	-0.174246
C101	C	1.043210	-0.434476	-0.994640
C102	C	1.543210	0.065524	-0.494640
C103	C	1.043085	-0.434683	-0.142853
C104	C	1.543085	0.065317	0.357147
C105	C	1.043220	-0.434456	-0.061065
C106	C	1.543220	0.065544	0.438935
H107	H	0.478712	-0.330151	-0.424530
H108	H	0.978712	0.169849	0.075470
H109	H	0.608213	-0.539239	-0.243592
H110	H	1.108213	-0.039239	0.256408
N111	N	1.165712	-0.906741	-0.456876
N112	N	1.665712	-0.406741	0.043124
H113	H	1.161688	-0.839915	-0.452865
H114	H	1.661688	-0.339915	0.047135
H115	H	1.217515	-0.923163	-0.444700
H116	H	1.717515	-0.423163	0.055300
N117	N	0.457898	-0.554483	-0.230422
N118	N	0.957898	-0.054483	0.269578
H119	H	0.403792	-0.545750	-0.237991
H120	H	0.903792	-0.045750	0.262009
H121	H	0.468295	-0.618935	-0.238746
H122	H	0.968295	-0.118935	0.261254
H123	H	0.974054	-1.090493	-0.264865
H124	H	1.474054	-0.590493	0.235135
N125	N	0.629023	-0.314909	-0.437708
N126	N	1.129023	0.185091	0.062292
H127	H	0.683129	-0.323647	-0.430145
H128	H	1.183129	0.176353	0.069855
H129	H	0.614935	-0.329044	-0.489579
H130	H	1.114935	0.170956	0.010421
H131	H	0.952837	-0.539227	-0.759752
H132	H	1.452837	-0.039227	-0.259752
H133	H	0.933605	-0.949246	-0.224383
H134	H	1.433605	-0.449246	0.275617
N135	N	0.939686	-0.554429	-0.908634
N136	N	1.439686	-0.054429	-0.408634
H137	H	0.947253	-0.545657	-0.963570
H138	H	1.447253	-0.045657	-0.463570
H139	H	0.948083	-0.618871	-0.892155
H140	H	1.448083	-0.118871	-0.392155
N141	N	1.125267	-0.765489	-0.416387
N142	N	1.625267	-0.265489	0.083613
H143	H	1.177095	-0.781842	-0.404244
H144	H	1.677095	-0.281842	0.095756
H145	H	1.112973	-0.781873	-0.468169
H146	H	1.612973	-0.281873	0.031831
H147	H	1.133536	-0.329821	-0.909123
H148	H	1.633536	0.170179	-0.409123
H149	H	1.144733	-1.090154	-0.435818
H150	H	1.644733	-0.590154	0.064182
H151	H	0.941575	-0.778287	-0.232399
H152	H	1.441575	-0.278287	0.267601
N153	N	1.146679	-0.314629	-0.760253
N154	N	1.646679	0.185371	-0.260253
H155	H	1.178227	-0.278067	-0.797996
H156	H	1.678227	0.221933	-0.297996
H157	H	1.118694	-0.272884	-0.730333
H158	H	1.618694	0.227116	-0.230333
