data_functionalizedCrystal
_audit_creation_method	'MofGen! by Chris Wilmer'
_symmetry_space_group_name_H-M	'P1'
_symmetry_Int_Tables_number	1
_symmetry_cell_setting	triclinic
loop_
_symmetry_equiv_pos_as_xyz
  x,y,z
_cell_length_a	19.288864
_cell_length_b	9.065218
_cell_length_c	17.766277
_cell_angle_alpha	89.995554
_cell_angle_beta	89.976791
_cell_angle_gamma	84.076066
loop_
_atom_site_label
_atom_site_type_symbol
_atom_site_fract_x
_atom_site_fract_y
_atom_site_fract_z
O1	O	0.922782	0.184032	-0.062833
O2	O	0.720714	0.208857	-0.062781
O3	O	0.825925	-0.018344	-0.062807
O4	O	0.817571	0.411233	-0.062808
O5	O	0.825906	-0.018356	0.062382
O6	O	0.720695	0.208846	0.062407
O7	O	0.922763	0.184020	0.062355
Cu8	Cu	0.821727	0.196432	0.073812
Cu9	Cu	0.821750	0.196445	-0.074238
O10	O	0.817552	0.411222	0.062381
C11	C	0.694822	0.208053	-0.000180
C12	C	0.617700	0.205655	-0.000161
C13	C	0.825112	-0.073309	-0.000213
C14	C	0.822712	-0.237067	-0.000216
C15	C	0.574039	0.338966	-0.000173
C16	C	0.501574	0.336713	-0.000181
C17	C	0.472774	0.201142	-0.000192
C18	C	0.516445	0.067812	-0.000176
C19	C	0.588908	0.070069	-0.000160
C20	C	0.363691	0.094571	-0.044077
C21	C	0.291229	0.092320	-0.044097
C22	C	0.249274	0.194176	-0.000238
C23	C	0.279789	0.298308	0.043632
C24	C	0.352252	0.300565	0.043648
C25	C	0.394201	0.198680	-0.000209
C26	C	0.127038	0.325054	-0.000258
C27	C	0.054572	0.322796	-0.000262
C28	C	0.069445	0.053891	-0.000264
C29	C	0.141909	0.056153	-0.000253
C30	C	0.170701	0.191739	-0.000253
C31	C	0.948655	0.184825	-0.000247
C32	C	1.025777	0.187223	-0.000272
C33	C	0.818365	0.466186	-0.000214
C34	C	0.820765	0.629945	-0.000216
N35	N	0.821717	0.196421	0.177942
N36	N	0.821766	0.196444	-0.178368
C37	C	0.868320	0.095866	0.217318
C38	C	0.868324	0.095859	0.296120
C39	C	0.821732	0.196433	0.335543
C40	C	0.775120	0.296996	0.296158
C41	C	0.775113	0.296991	0.217358
C42	C	0.813476	0.330849	0.460382
C43	C	0.813489	0.330856	0.539181
C44	C	0.821750	0.196451	0.578589
C45	C	0.830014	0.062032	0.539189
C46	C	0.830007	0.062026	0.460389
C47	C	0.821734	0.196450	0.420989
C48	C	0.868360	0.095879	0.703411
C49	C	0.868359	0.095871	0.782214
C50	C	0.775159	0.297021	0.782251
C51	C	0.775156	0.297017	0.703449
C52	C	0.821761	0.196448	0.664034
H53	H	0.466018	0.445275	-0.000189
N54	N	0.724901	0.405491	0.824761
H55	H	0.675503	0.388753	0.811073
H56	H	0.732036	0.390175	0.880642
H57	H	0.377094	0.385348	0.079371
N58	N	0.234541	0.408159	0.090945
H59	H	0.247886	0.394802	0.145674
H60	H	0.241431	0.512304	0.074515
H61	H	0.492991	-0.042571	-0.000196
H62	H	0.150482	0.435456	-0.000247
N63	N	0.635998	-0.073731	-0.000153
H64	H	0.666418	-0.078785	-0.046556
H65	H	0.666326	-0.078708	0.046290
H66	H	0.019024	0.431359	-0.000267
H67	H	0.906266	0.013973	0.185229
H68	H	0.836734	-0.047423	0.428313
N69	N	0.918588	-0.012605	0.338602
H70	H	0.948109	-0.076317	0.301676
H71	H	0.949645	0.043722	0.371276
H72	H	0.836741	-0.047414	0.571274
H73	H	0.266390	0.007536	-0.079822
H74	H	0.045997	-0.056494	-0.000320
H75	H	0.177459	-0.052404	-0.000247
H76	H	0.906306	0.013985	0.671318
H77	H	0.397845	0.011625	-0.079796
N78	N	0.918638	-0.012567	0.824688
H79	H	0.948164	-0.076260	0.787758
H80	H	0.949688	0.043790	0.857355
H81	H	0.737210	0.378905	0.671387
N82	N	0.804572	0.475827	0.581674
H83	H	0.799325	0.560971	0.544754
H84	H	0.761608	0.479126	0.614390
N85	N	0.804566	0.475823	0.417881
H86	H	0.799340	0.560974	0.454795
H87	H	0.846812	0.484199	0.385164
N88	N	0.724862	0.405467	0.338673
H89	H	0.731939	0.390215	0.394568
H90	H	0.733537	0.510080	0.324887
N91	N	0.724852	0.405469	0.174885
H92	H	0.731920	0.390208	0.118984
H93	H	0.675476	0.388694	0.188683
H94	H	0.597476	0.449370	-0.000175
