data_functionalizedCrystal
_audit_creation_method	'MofGen! by Chris Wilmer'
_symmetry_space_group_name_H-M	'P1'
_symmetry_Int_Tables_number	1
_symmetry_cell_setting	triclinic
loop_
_symmetry_equiv_pos_as_xyz
  x,y,z
_cell_length_a	11.026660
_cell_length_b	14.044190
_cell_length_c	10.065875
_cell_angle_alpha	99.589132
_cell_angle_beta	79.302288
_cell_angle_gamma	100.888306
loop_
_atom_site_label
_atom_site_type_symbol
_atom_site_fract_x
_atom_site_fract_y
_atom_site_fract_z
O1	O	1.670502	0.393269	-0.113557
O2	O	1.312211	0.347224	-0.113551
O3	O	1.485970	0.231346	-0.113527
O4	O	1.496743	0.509147	-0.113581
O5	O	1.452849	0.253556	0.113457
O6	O	1.279090	0.369434	0.113433
O7	O	1.637381	0.415479	0.113427
Zn8	Zn	1.452976	0.395983	0.149468
Zn9	Zn	1.496615	0.366720	-0.149593
O10	O	1.463622	0.531357	0.113403
C11	C	1.249520	0.349834	-0.000058
C12	C	1.112064	0.324511	-0.000055
C13	C	0.903764	0.368269	-0.000067
C14	C	1.045832	0.394443	-0.000069
C15	C	1.464699	0.206333	-0.000031
C16	C	1.450650	0.098712	-0.000019
C17	C	1.524603	-0.138963	-0.000074
C18	C	1.424995	-0.098329	-0.000063
C19	C	1.439273	0.011315	-0.000038
C20	C	1.510327	-0.248616	-0.000098
C21	C	1.700072	0.412868	-0.000070
C22	C	1.837529	0.438190	-0.000082
C23	C	1.484893	0.556369	-0.000096
C24	C	1.498943	0.663990	-0.000117
N25	N	1.423203	0.415954	0.353570
N26	N	1.526397	0.346742	-0.353694
C27	C	1.486248	0.373662	0.421357
C28	C	1.463344	0.389041	0.578522
H29	H	0.855291	0.289030	-0.000032
H30	H	1.094296	0.473689	-0.000076
Br31	Br	1.684602	-0.059703	-0.000058
Br32	Br	1.264985	-0.177586	-0.000066
H33	H	1.557174	0.326062	0.363043
Br34	Br	1.345101	0.468366	0.675702
Br35	Br	1.644945	0.267684	0.549130
Br36	Br	1.304965	0.495275	0.450755
H37	H	0.885998	0.517431	-0.000089
Br38	Br	1.031297	0.192429	-0.000013
