data_functionalizedCrystal
_audit_creation_method	'MofGen! by Chris Wilmer'
_symmetry_space_group_name_H-M	'P1'
_symmetry_Int_Tables_number	1
_symmetry_cell_setting	triclinic
loop_
_symmetry_equiv_pos_as_xyz
  x,y,z
_cell_length_a	13.032831
_cell_length_b	12.759394
_cell_length_c	13.032268
_cell_angle_alpha	82.850556
_cell_angle_beta	89.113023
_cell_angle_gamma	82.819699
loop_
_atom_site_label
_atom_site_type_symbol
_atom_site_fract_x
_atom_site_fract_y
_atom_site_fract_z
Zn1	Zn	1.498516	-0.709531	0.780836
Zn2	Zn	1.520266	-0.866066	0.608856
Zn3	Zn	1.348372	-0.665642	0.587076
Zn4	Zn	1.326514	-0.860386	0.758981
O5	O	1.423417	-0.775406	0.683937
O6	O	1.645323	-0.751041	0.776283
O7	O	1.515714	-0.823489	0.462050
O8	O	1.368334	-0.524452	0.612811
O9	O	1.661303	-0.866047	0.649930
O10	O	1.478644	-0.556698	0.755165
O11	O	1.389424	-0.676238	0.446049
O12	O	1.201551	-0.670730	0.591619
O13	O	1.331080	-0.856365	0.905797
O14	O	1.185492	-0.813807	0.717916
O15	O	1.457449	-0.745533	0.921853
O16	O	1.494519	-1.012324	0.628738
O17	O	1.352170	-1.008150	0.739035
C18	C	1.156204	-0.736890	0.650033
C19	C	1.041886	-0.720441	0.635554
C20	C	0.983013	-0.783991	0.691494
C21	C	0.864859	-0.766992	0.676530
C22	C	1.423358	-1.048362	0.683904
C23	C	1.423423	-1.165151	0.683937
C24	C	1.571737	-1.169469	0.569196
C25	C	1.645919	-1.226494	0.511841
C26	C	1.645976	-1.336227	0.511877
C27	C	1.571844	-1.388938	0.569276
C28	C	1.497662	-1.331913	0.626631
C29	C	1.497612	-1.222177	0.626586
C30	C	1.349354	-1.327597	0.741376
C31	C	1.349291	-1.217862	0.741336
C32	C	1.275223	-1.380309	0.798775
C33	C	1.201034	-1.323282	0.856125
C34	C	1.200980	-1.213542	0.856086
C35	C	1.275109	-1.160838	0.798690
C36	C	1.691673	-0.814073	0.717974
C37	C	1.805988	-0.830551	0.732478
C38	C	1.389400	-0.805211	0.952184
C39	C	1.374904	-0.817912	1.066495
C40	C	1.423501	-0.501391	0.683996
C41	C	1.423537	-0.384622	0.684021
C42	C	1.457360	-0.745650	0.416741
C43	C	1.472056	-0.732682	0.302456
C44	C	1.430966	-0.768737	1.125403
C45	C	1.415986	-0.781863	1.243550
H46	H	0.827794	-0.699990	0.617559
N47	N	1.032100	-0.872739	0.769608
H48	H	1.070641	-0.841795	0.822947
H49	H	1.081920	-0.923038	0.733248
H50	H	1.275278	-1.469661	0.798805
H51	H	0.843051	-0.897544	0.791460
N52	N	1.120964	-1.152033	0.917940
H53	H	1.156653	-1.117759	0.970911
H54	H	1.074037	-1.202137	0.954237
N55	N	0.992798	-0.631703	0.557430
H56	H	0.915351	-0.632142	0.557810
H57	H	1.020827	-0.642461	0.486310
N58	N	1.571663	-1.051111	0.569143
H59	H	1.629876	-1.026371	0.524077
H60	H	1.581521	-1.035260	0.642118
H61	H	1.315810	-0.869722	1.103529
H62	H	1.531142	-0.680853	1.265427
N63	N	1.509249	-0.700105	1.076369
H64	H	1.580374	-0.729082	1.104342
H65	H	1.490868	-0.624816	1.093015
N66	N	1.725864	-1.169637	0.449926
H67	H	1.772865	-1.222414	0.413599
H68	H	1.768096	-1.135553	0.497838
N69	N	1.725989	-1.397742	0.450025
H70	H	1.772945	-1.347704	0.413660
H71	H	1.690218	-1.432010	0.397111
N72	N	1.275051	-1.042482	0.798639
H73	H	1.343175	-1.028252	0.826531
H74	H	1.216765	-1.014428	0.843666
H75	H	1.356887	-0.833677	1.280578
N76	N	1.571904	-1.507294	0.569328
H77	H	1.640052	-1.545925	0.597246
H78	H	1.561972	-1.523134	0.496362
N79	N	1.121090	-1.380133	0.918033
H80	H	1.132387	-1.458302	0.909358
H81	H	1.049675	-1.348663	0.892645
