data_functionalizedCrystal
_audit_creation_method	'MofGen! by Chris Wilmer'
_symmetry_space_group_name_H-M	'P1'
_symmetry_Int_Tables_number	1
_symmetry_cell_setting	triclinic
loop_
_symmetry_equiv_pos_as_xyz
  x,y,z
_cell_length_a	27.732048
_cell_length_b	10.967926
_cell_length_c	9.482900
_cell_angle_alpha	92.549900
_cell_angle_beta	99.251554
_cell_angle_gamma	83.701151
loop_
_atom_site_label
_atom_site_type_symbol
_atom_site_fract_x
_atom_site_fract_y
_atom_site_fract_z
O1	O	0.085293	1.608630	0.282097
O2	O	0.086352	1.259397	0.194600
O3	O	0.015666	1.444856	0.241092
O4	O	0.155979	1.423172	0.235604
O5	O	0.030084	1.407184	0.473441
O6	O	0.100771	1.221725	0.426948
O7	O	0.099711	1.570958	0.514445
Cu8	Cu	0.101557	1.392902	0.491912
Cu9	Cu	0.084506	1.437454	0.217133
O10	O	0.170397	1.385500	0.467953
C11	C	0.092395	1.195896	0.299584
C12	C	0.088913	1.062807	0.266240
C13	C	0.094830	0.983956	0.371738
C14	C	0.091232	0.846401	0.337279
C15	C	0.004859	1.425564	0.357156
C16	C	-0.048826	1.424191	0.356824
C17	C	-0.385423	1.525167	0.382048
C18	C	-0.587196	1.520082	0.380754
O19	O	-0.616424	1.612417	0.403824
N20	N	-0.608740	1.410110	0.353203
C21	C	-0.579838	1.301403	0.325964
O22	O	-0.602793	1.207751	0.302486
C23	C	-0.378067	1.306490	0.327249
C24	C	-0.356525	1.416467	0.354816
C25	C	-0.363881	1.635135	0.409612
C26	C	-0.313440	1.636404	0.409942
C27	C	-0.284542	1.527704	0.382710
C28	C	-0.306084	1.417736	0.355147
C29	C	-0.349166	1.197786	0.300000
C30	C	-0.298721	1.199068	0.300320
C31	C	-0.277179	1.309045	0.327887
C32	C	-0.226745	1.310305	0.328245
N33	N	-0.205201	1.420277	0.355796
C34	C	-0.234099	1.528977	0.383029
C35	C	-0.685771	1.298740	0.325295
C36	C	-0.736213	1.297467	0.324976
C37	C	-0.743568	1.516147	0.379763
C38	C	-0.693124	1.517417	0.380092
C39	C	-0.664227	1.408712	0.352846
C40	C	-0.128170	1.531632	0.383723
C41	C	-0.077724	1.532891	0.384057
C42	C	-0.070374	1.314212	0.329262
C43	C	-0.120815	1.312952	0.328935
C44	C	-0.149713	1.421673	0.356163
O45	O	-0.197489	1.218023	0.305172
O46	O	-0.211137	1.622620	0.406472
C47	C	-0.435864	1.523898	0.381717
C48	C	-0.457406	1.413930	0.354154
C49	C	-0.428508	1.305230	0.326922
C50	C	-0.507849	1.412657	0.353835
C51	C	-0.536747	1.521357	0.381068
C52	C	-0.515203	1.631329	0.408619
C53	C	-0.464762	1.632598	0.408950
C54	C	-0.450052	1.195258	0.299370
C55	C	-0.500493	1.193998	0.299043
C56	C	-0.529391	1.302698	0.326276
C57	C	0.181205	1.404792	0.351886
C58	C	0.234888	1.406167	0.352208
C59	C	0.093668	1.634460	0.409458
C60	C	0.097149	1.767551	0.442792
N61	N	0.113550	1.361576	0.685179
N62	N	0.072509	1.468789	0.023868
C63	C	0.088041	1.428205	0.774082
C64	C	0.098023	1.402150	0.934967
H65	H	0.104878	0.801873	0.558632
H66	H	0.127253	1.325807	0.977953
C67	C	-0.574548	1.094923	0.274191
C68	C	-0.524168	1.073100	0.268738
H69	H	-0.589162	1.020288	0.255481
H70	H	-0.589345	1.152773	0.204377
H71	H	-0.579302	1.126491	0.366426
H72	H	-0.519414	1.041541	0.176499
H73	H	-0.509367	1.015230	0.338556
H74	H	0.043276	1.545124	0.980880
H75	H	0.142778	1.285238	0.728172
C76	C	0.117380	0.931564	0.080641
C77	C	0.078480	1.016479	0.109865
H78	H	0.110939	0.902973	-0.015904
H79	H	0.120621	0.864279	0.142356
H80	H	0.146961	0.969861	0.095630
H81	H	0.048899	0.978179	0.094886
H82	H	0.075234	1.083776	0.048131
H83	H	0.058809	1.504535	0.731089
H84	H	-0.060187	1.622450	0.406510
H85	H	0.102557	1.018286	0.487570
H86	H	-0.151693	1.620164	0.405889
H87	H	-0.275195	1.110545	0.278130
C88	C	0.119698	0.715164	0.151672
C89	C	0.080798	0.800080	0.180896
H90	H	0.113257	0.686574	0.055127
H91	H	0.122939	0.647879	0.213387
H92	H	0.149279	0.753462	0.166661
H93	H	0.051217	0.761779	0.165916
H94	H	0.077552	0.867376	0.119162
C95	C	-0.404907	1.741553	0.560548
C96	C	-0.441089	1.753491	0.439242
H97	H	-0.390297	1.816196	0.579249
H98	H	-0.380474	1.677017	0.544371
H99	H	-0.419414	1.723369	0.640297
H100	H	-0.426581	1.771666	0.359490
H101	H	-0.465525	1.818047	0.455410
C102	C	-0.325793	1.852427	0.464048
C103	C	-0.289767	1.757298	0.440227
H104	H	-0.311181	1.927066	0.482734
H105	H	-0.340289	1.834243	0.543804
H106	H	-0.350339	1.860497	0.381749
H107	H	-0.265223	1.749221	0.522531
H108	H	-0.275264	1.775486	0.360463
H109	H	-0.387406	1.723657	0.431784
H110	H	-0.675588	1.606970	0.402538
C111	C	-0.811969	1.660925	0.291713
C112	C	-0.775339	1.635639	0.409681
H113	H	-0.831583	1.734695	0.310172
H114	H	-0.832012	1.595246	0.275279
H115	H	-0.797154	1.670002	0.209686
H116	H	-0.790155	1.626553	0.491706
H117	H	-0.755294	1.701334	0.426132
C118	C	-0.723865	1.081445	0.270842
C119	C	-0.759888	1.176575	0.294685
H120	H	-0.738481	1.006813	0.252126
H121	H	-0.699322	1.073354	0.353129
H122	H	-0.709367	1.099646	0.191083
H123	H	-0.774384	1.158379	0.374451
H124	H	-0.784439	1.184665	0.212389
C125	C	-0.336811	0.981774	0.245838
C126	C	-0.372837	1.076896	0.269684
H127	H	-0.351425	0.907140	0.227110
H128	H	-0.312269	0.973681	0.328127
H129	H	-0.322312	0.999986	0.166084
H130	H	-0.387334	1.058688	0.349445
H131	H	-0.397387	1.084988	0.187386
C132	C	-0.108477	1.096927	0.274798
C133	C	-0.144497	1.192066	0.298631
H134	H	-0.123097	1.022301	0.256069
H135	H	-0.083938	1.088825	0.357094
H136	H	-0.093973	1.115126	0.195050
H137	H	-0.158999	1.173871	0.378387
H138	H	-0.169045	1.200167	0.216327
H139	H	-0.662247	1.210213	0.303107
H140	H	-0.046836	1.225711	0.307095
C141	C	-0.595799	1.726461	0.432423
C142	C	-0.546976	1.750816	0.438544
H143	H	-0.615416	1.800226	0.450881
H144	H	-0.597527	1.668203	0.502141
H145	H	-0.607567	1.694454	0.340084
H146	H	-0.535206	1.782815	0.530887
H147	H	-0.545245	1.809094	0.368823
H148	H	-0.426527	1.106740	0.277191
