data_functionalizedCrystal
_audit_creation_method	'MofGen! by Chris Wilmer'
_symmetry_space_group_name_H-M	'P1'
_symmetry_Int_Tables_number	1
_symmetry_cell_setting	triclinic
loop_
_symmetry_equiv_pos_as_xyz
  x,y,z
_cell_length_a	10.967926
_cell_length_b	11.026607
_cell_length_c	10.065875
_cell_angle_alpha	100.732634
_cell_angle_beta	93.120479
_cell_angle_gamma	96.380568
loop_
_atom_site_label
_atom_site_type_symbol
_atom_site_fract_x
_atom_site_fract_y
_atom_site_fract_z
O1	O	1.659143	0.213710	0.276735
O2	O	2.159143	0.713710	0.776735
O3	O	1.309856	0.217209	0.194583
O4	O	1.809856	0.717209	0.694583
O5	O	1.455550	0.037496	0.228852
O6	O	1.955550	0.537496	0.728852
O7	O	1.513448	0.393423	0.242466
O8	O	2.013448	0.893423	0.742466
O9	O	1.427800	0.071909	0.449314
O10	O	1.927800	0.571909	0.949314
O11	O	1.282105	0.251622	0.415044
O12	O	1.782105	0.751622	0.915044
O13	O	1.631392	0.248123	0.497197
O14	O	2.131392	0.748123	0.997197
Zn15	Zn	1.452342	0.255336	0.491123
Zn16	Zn	1.952342	0.755336	0.991123
Zn17	Zn	1.488905	0.209996	0.200656
Zn18	Zn	1.988905	0.709996	0.700656
O19	O	1.485697	0.427836	0.462927
O20	O	1.985697	0.927836	0.962927
C21	C	1.250569	0.231561	0.294133
C22	C	1.750569	0.731561	0.794133
C23	C	1.115255	0.223040	0.262306
C24	C	1.615255	0.723040	0.762306
C25	C	1.040551	0.237068	0.362323
C26	C	1.540551	0.737068	0.862323
C27	C	0.900696	0.228261	0.329431
C28	C	1.400696	0.728261	0.829431
C29	C	1.430994	0.009008	0.336568
C30	C	1.930994	0.509008	0.836568
C31	C	1.399155	-0.127149	0.329072
C32	C	1.899155	0.372851	0.829072
C33	C	1.690679	0.233771	0.397644
C34	C	2.190679	0.733771	0.897644
C35	C	1.825994	0.242291	0.429462
C36	C	2.325994	0.742291	0.929462
N37	N	1.427398	0.286280	0.689362
N38	N	1.927398	0.786280	1.189362
C39	C	1.510254	0.456324	0.355208
C40	C	2.010254	0.956324	0.855208
C41	C	1.542094	0.592480	0.362696
C42	C	2.042094	1.092480	0.862696
C43	C	1.454178	0.662304	0.342017
C44	C	1.954178	1.162304	0.842017
C45	C	1.487084	0.803028	0.349754
C46	C	1.987084	1.303028	0.849754
N47	N	1.513857	0.179043	0.002420
N48	N	2.013857	0.679043	0.502420
C49	C	1.480217	0.220754	0.769564
C50	C	1.980217	0.720754	1.269564
C51	C	1.461031	0.244579	0.922219
C52	C	1.961031	0.744579	1.422219
H53	H	1.075672	0.204507	0.152328
H54	H	1.575672	0.704507	0.652328
H55	H	1.354548	0.617900	0.318577
H56	H	1.854548	1.117900	0.818577
C57	C	1.621684	0.862996	0.381418
C58	C	2.121684	1.362996	0.881418
H59	H	1.626143	0.949713	0.382476
H60	H	2.126143	1.449713	0.882476
H61	H	1.670654	0.826143	0.313784
H62	H	2.170654	1.326143	0.813784
H63	H	1.651285	0.850146	0.467550
H64	H	2.151285	1.350146	0.967550
H65	H	1.080133	0.255590	0.472300
H66	H	1.580133	0.755590	0.972300
H67	H	0.865569	0.260817	0.539448
H68	H	1.365569	0.760817	1.039448
H69	H	1.401596	0.318316	0.966560
H70	H	1.901596	0.818316	1.466560
H71	H	0.861120	0.209727	0.219446
H72	H	1.361120	0.709727	0.719446
C73	C	1.264554	0.812887	0.297413
C74	C	1.764554	1.312887	0.797413
H75	H	1.260090	0.726172	0.296373
H76	H	1.760090	1.226172	0.796373
H77	H	1.234943	0.825743	0.211295
H78	H	1.734943	1.325743	0.711295
H79	H	1.215591	0.849742	0.365065
H80	H	1.715591	1.349742	0.865065
C81	C	1.676688	0.652453	0.394357
C82	C	2.176688	1.152453	0.894357
H83	H	1.681146	0.739170	0.395415
H84	H	2.181146	1.239170	0.895415
H85	H	1.725658	0.615600	0.326724
H86	H	2.225658	1.115600	0.826724
H87	H	1.706289	0.639602	0.480490
H88	H	2.206289	1.139602	0.980490
C89	C	1.594139	0.079421	0.942535
C90	C	2.094139	0.579421	1.442535
H91	H	1.624781	0.041395	1.012650
H92	H	2.124781	0.541395	1.512650
H93	H	1.661100	0.117263	0.902525
H94	H	2.161100	0.617263	1.402525
H95	H	1.546050	0.018126	0.875497
H96	H	2.046050	0.518126	1.375497
H97	H	1.539637	0.147012	0.725216
H98	H	2.039637	0.647012	1.225216
C99	C	1.347121	0.385895	0.749262
C100	C	1.847121	0.885895	1.249262
H101	H	1.344764	0.388846	0.844007
H102	H	1.844764	0.888846	1.344007
H103	H	1.266020	0.365587	0.706855
H104	H	1.766020	0.865587	1.206855
H105	H	1.381072	0.464722	0.733894
H106	H	1.881072	0.964722	1.233894
