data_functionalizedCrystal
_audit_creation_method	'MofGen! by Chris Wilmer'
_symmetry_space_group_name_H-M	'P1'
_symmetry_Int_Tables_number	1
_symmetry_cell_setting	triclinic
loop_
_symmetry_equiv_pos_as_xyz
  x,y,z
_cell_length_a	14.044220
_cell_length_b	11.026607
_cell_length_c	12.503572
_cell_angle_alpha	85.701682
_cell_angle_beta	93.835250
_cell_angle_gamma	100.887447
loop_
_atom_site_label
_atom_site_type_symbol
_atom_site_fract_x
_atom_site_fract_y
_atom_site_fract_z
O1	O	-1.312909	-0.291527	-0.089196
O2	O	-1.062909	-0.041527	0.160804
O3	O	-0.812909	0.208473	0.410804
O4	O	-0.562909	0.458473	0.660804
O5	O	-1.035106	-0.280770	-0.089224
O6	O	-0.785106	-0.030770	0.160776
O7	O	-0.535106	0.219230	0.410776
O8	O	-0.285106	0.469230	0.660776
O9	O	-1.150983	-0.107003	-0.089208
O10	O	-0.900983	0.142997	0.160792
O11	O	-0.650983	0.392997	0.410792
O12	O	-0.400983	0.642997	0.660792
O13	O	-1.197032	-0.465294	-0.089211
O14	O	-0.947032	-0.215294	0.160789
O15	O	-0.697032	0.034706	0.410789
O16	O	-0.447032	0.284706	0.660789
O17	O	-1.142273	-0.120095	0.089433
O18	O	-0.892273	0.129905	0.339433
O19	O	-0.642273	0.379905	0.589433
O20	O	-0.392273	0.629905	0.839433
O21	O	-1.026395	-0.293861	0.089417
O22	O	-0.776395	-0.043861	0.339417
O23	O	-0.526395	0.206139	0.589417
O24	O	-0.276395	0.456139	0.839417
O25	O	-1.304198	-0.304619	0.089445
O26	O	-1.054198	-0.054619	0.339445
O27	O	-0.804198	0.195381	0.589445
O28	O	-0.554198	0.445381	0.839445
Cu29	Cu	-1.164501	-0.300436	0.105742
Cu30	Cu	-0.914501	-0.050436	0.355742
Cu31	Cu	-0.664501	0.199564	0.605742
Cu32	Cu	-0.414501	0.449564	0.855742
Cu33	Cu	-1.174803	-0.284953	-0.105521
Cu34	Cu	-0.924803	-0.034953	0.144479
Cu35	Cu	-0.674803	0.215047	0.394479
Cu36	Cu	-0.424803	0.465047	0.644479
O37	O	-1.188321	-0.478386	0.089429
O38	O	-0.938321	-0.228386	0.339429
O39	O	-0.688321	0.021614	0.589429
O40	O	-0.438321	0.271614	0.839429
C41	C	-0.994633	-0.282607	0.000093
C42	C	-0.744633	-0.032607	0.250093
C43	C	-0.494633	0.217393	0.500093
C44	C	-0.244633	0.467393	0.750093
C45	C	-0.887011	-0.268562	0.000082
C46	C	-0.637011	-0.018562	0.250082
C47	C	-0.387011	0.231438	0.500082
C48	C	-0.137011	0.481438	0.750082
C49	C	-1.138133	-0.067419	0.000110
C50	C	-0.888133	0.182581	0.250110
C51	C	-0.638133	0.432581	0.500110
C52	C	-0.388133	0.682581	0.750110
C53	C	-1.112809	0.070037	0.000104
C54	C	-0.862809	0.320037	0.250104
C55	C	-0.612809	0.570037	0.500104
C56	C	-0.362809	0.820037	0.750104
C57	C	-1.344671	-0.302782	0.000126
C58	C	-1.094671	-0.052782	0.250126
C59	C	-0.844671	0.197218	0.500126
C60	C	-0.594671	0.447218	0.750126
C61	C	-1.452293	-0.316826	0.000129
C62	C	-1.202293	-0.066826	0.250129
C63	C	-0.952293	0.183174	0.500129
C64	C	-0.702293	0.433174	0.750129
C65	C	-0.689968	-0.242889	0.000104
C66	C	-0.439968	0.007111	0.250104
C67	C	-0.189968	0.257111	0.500104
C68	C	0.060032	0.507111	0.750104
C69	C	-0.649330	-0.342494	0.000108
C70	C	-0.399330	-0.092494	0.250108
C71	C	-0.149330	0.157506	0.500108
C72	C	0.100670	0.407506	0.750108
C73	C	-0.539689	-0.328209	0.000120
C74	C	-0.289689	-0.078209	0.250120
C75	C	-0.039689	0.171791	0.500120
C76	C	0.210311	0.421791	0.750120
C77	C	-0.799619	-0.257172	0.000092
C78	C	-0.549619	-0.007172	0.250092
C79	C	-0.299619	0.242828	0.500092
C80	C	-0.049619	0.492828	0.750092
C81	C	-1.201172	-0.517970	0.000109
C82	C	-0.951172	-0.267970	0.250109
C83	C	-0.701172	-0.017970	0.500109
C84	C	-0.451172	0.232030	0.750109
C85	C	-1.226496	-0.655425	0.000108
C86	C	-0.976496	-0.405425	0.250108
C87	C	-0.726496	-0.155425	0.500108
C88	C	-0.476496	0.094575	0.750108
N89	N	-1.157263	-0.311325	0.254334
N90	N	-0.907263	-0.061325	0.504334
N91	N	-0.657263	0.188675	0.754334
N92	N	-0.407263	0.438675	1.004334
C93	C	-1.182733	0.136273	0.000109
C94	C	-0.932733	0.386273	0.250109
C95	C	-0.682733	0.636273	0.500109
C96	C	-0.432733	0.886273	0.750109
C97	C	-1.156561	0.278341	0.000103
C98	C	-0.906561	0.528341	0.250103
C99	C	-0.656561	0.778341	0.500103
C100	C	-0.406561	1.028341	0.750103
N101	N	-1.182047	-0.274054	-0.254112
N102	N	-0.932047	-0.024054	-0.004112
N103	N	-0.682047	0.225946	0.245888
N104	N	-0.432047	0.475946	0.495888
C105	C	-1.146617	-0.327355	0.473447
C106	C	-0.896617	-0.077355	0.723447
C107	C	-0.646617	0.172645	0.973447
C108	C	-0.396617	0.422645	1.223447
C109	C	-1.192691	-0.258029	0.526781
C110	C	-0.942691	-0.008029	0.776781
C111	C	-0.692691	0.241971	1.026781
C112	C	-0.442691	0.491971	1.276781
C113	C	-1.186767	-0.266948	0.648703
C114	C	-0.936767	-0.016948	0.898703
C115	C	-0.686767	0.233052	1.148703
C116	C	-0.436767	0.483052	1.398703
C117	C	-1.152539	-0.318437	0.351514
C118	C	-0.902539	-0.068437	0.601514
C119	C	-0.652539	0.181563	0.851514
C120	C	-0.402539	0.431563	1.101514
H121	H	-0.696883	-0.438496	0.000102
H122	H	-0.446883	-0.188496	0.250102
H123	H	-0.196883	0.061504	0.500102
H124	H	0.053117	0.311504	0.750102
C125	C	-1.333555	0.279108	0.000120
C126	C	-1.083555	0.529108	0.250120
C127	C	-0.833555	0.779108	0.500120
C128	C	-0.583555	1.029108	0.750120
N129	N	-1.414190	0.229798	0.000130
N130	N	-1.164190	0.479798	0.250130
N131	N	-0.914190	0.729798	0.500130
N132	N	-0.664190	0.979798	0.750130
H133	H	-1.102726	-0.393402	0.519349
H134	H	-0.852726	-0.143402	0.769349
H135	H	-0.602726	0.106598	1.019349
H136	H	-0.352726	0.356598	1.269349
C137	C	-1.005756	0.135511	0.000095
C138	C	-0.755756	0.385511	0.250095
C139	C	-0.505756	0.635511	0.500095
C140	C	-0.255756	0.885511	0.750095
N141	N	-0.925121	0.184824	0.000091
N142	N	-0.675121	0.434824	0.250091
N143	N	-0.425121	0.684824	0.500091
N144	N	-0.175121	0.934824	0.750091
H145	H	-1.236587	-0.191979	0.480874
H146	H	-0.986587	0.058021	0.730874
H147	H	-0.736587	0.308021	0.980874
H148	H	-0.486587	0.558021	1.230874
H149	H	-1.261973	0.087803	0.000124
H150	H	-1.011973	0.337803	0.250124
H151	H	-0.761973	0.587803	0.500124
H152	H	-0.511973	0.837803	0.750124
H153	H	-0.642418	-0.146894	0.000111
H154	H	-0.392418	0.103106	0.250111
H155	H	-0.142418	0.353106	0.500111
H156	H	0.107582	0.603106	0.750111
H157	H	-1.077316	0.326806	0.000088
H158	H	-0.827316	0.576806	0.250088
H159	H	-0.577316	0.826806	0.500088
H160	H	-0.327316	1.076806	0.750088
