data_functionalizedCrystal
_audit_creation_method	'MofGen! by Chris Wilmer'
_symmetry_space_group_name_H-M	'P1'
_symmetry_Int_Tables_number	1
_symmetry_cell_setting	triclinic
loop_
_symmetry_equiv_pos_as_xyz
  x,y,z
_cell_length_a	13.635800
_cell_length_b	11.102244
_cell_length_c	17.982968
_cell_angle_alpha	85.767805
_cell_angle_beta	102.451960
_cell_angle_gamma	71.395130
loop_
_atom_site_label
_atom_site_type_symbol
_atom_site_fract_x
_atom_site_fract_y
_atom_site_fract_z
V1	V	2.020683	-0.177029	0.237546
O2	O	2.000870	0.007282	0.233027
O3	O	2.009309	-0.349840	0.235920
O4	O	1.993775	-0.174843	0.341150
O5	O	2.016512	-0.168927	0.127068
V6	V	2.261186	-0.154920	0.224333
O7	O	2.154073	-0.225527	0.266532
O8	O	2.352895	-0.106421	0.195347
O9	O	2.160958	0.017892	0.225959
O10	O	2.339698	-0.339231	0.228853
O11	O	2.324056	-0.163022	0.334811
O12	O	2.176492	-0.157105	0.120730
V13	V	2.520683	-0.177029	0.237546
O14	O	2.500870	0.007282	0.233027
O15	O	2.509309	-0.349840	0.235920
O16	O	2.493775	-0.174843	0.341150
O17	O	2.516512	-0.168927	0.127068
V18	V	2.761186	-0.154920	0.224333
O19	O	2.654073	-0.225527	0.266532
O20	O	2.852895	-0.106421	0.195347
O21	O	2.660958	0.017892	0.225959
O22	O	2.839698	-0.339231	0.228853
O23	O	2.824056	-0.163022	0.334811
O24	O	2.676492	-0.157105	0.120730
C25	C	1.935017	-0.391951	0.232172
C26	C	1.966343	-0.533230	0.231533
C27	C	1.961276	-0.581114	0.161465
C28	C	1.990716	-0.713863	0.160873
C29	C	2.030283	-0.750835	0.300423
C30	C	2.000851	-0.618088	0.301014
C31	C	1.926768	-0.496256	0.091984
C32	C	1.921698	-0.544138	0.021910
C33	C	1.951138	-0.676887	0.021318
C34	C	1.985647	-0.761755	0.090800
C35	C	1.915201	-0.168724	0.366402
C36	C	1.933927	-0.168080	0.451098
C37	C	2.066921	0.059996	0.229705
C38	C	2.025215	0.201274	0.230349
C39	C	2.086737	-0.163229	0.095473
C40	C	2.057630	-0.163866	0.010776
C41	C	2.435017	-0.391951	0.232172
C42	C	2.466343	-0.533230	0.231533
C43	C	2.415201	-0.168724	0.366402
C44	C	2.433927	-0.168080	0.451098
C45	C	2.034157	-0.174146	0.494770
C46	C	2.051746	-0.173541	0.574350
C47	C	1.969106	-0.166878	0.610259
C48	C	1.868866	-0.160808	0.566581
C49	C	1.851277	-0.161404	0.487001
C50	C	1.939801	-0.158401	0.887518
C51	C	1.957400	-0.157809	0.967104
C52	C	2.140271	-0.170538	0.974867
C53	C	2.122681	-0.171134	0.895287
C54	C	2.022442	-0.165057	0.851616
C55	C	2.003371	-0.165711	0.765325
C56	C	1.988178	-0.166233	0.696549
C57	C	2.566921	0.059996	0.229705
C58	C	2.525215	0.201274	0.230349
C59	C	2.586737	-0.163229	0.095473
C60	C	2.557630	-0.163866	0.010776
C61	C	2.534161	-0.174134	0.494756
C62	C	2.551766	-0.173513	0.574335
C63	C	2.469138	-0.166847	0.610257
C64	C	2.368894	-0.160789	0.566593
C65	C	2.351289	-0.161401	0.487014
C66	C	2.458026	-0.170518	-0.025126
C67	C	2.430658	-0.171101	-0.104708
C68	C	2.502898	-0.165042	-0.148386
C69	C	2.602509	-0.158386	-0.112479
C70	C	2.629873	-0.157794	-0.032899
C71	C	2.572502	-0.606096	0.235033
C72	C	2.601931	-0.738844	0.234439
C73	C	2.419031	-0.725848	0.226841
C74	C	2.389605	-0.593104	0.227440
C75	C	2.649240	-0.546222	0.239125
C76	C	2.755406	-0.619088	0.242625
C77	C	2.784835	-0.751836	0.242031
C78	C	2.708099	-0.811719	0.237937
H79	H	1.902788	-0.388162	0.092457
H80	H	2.732072	-0.919814	0.237461
H81	H	2.399191	-0.175451	0.010427
H82	H	2.009624	-0.869847	0.090313
O83	O	2.323218	-0.178284	-0.143417
H84	H	2.278061	-0.091784	-0.187608
H85	H	1.893608	-0.475032	-0.034658
H86	H	2.871281	-0.811163	0.244888
O87	O	2.737312	-0.150634	0.005819
H88	H	2.725338	-0.062990	0.033755
O89	O	2.617498	-0.403048	0.239777
H90	H	2.688692	-0.373655	0.243220
O91	O	2.243171	-0.154879	0.439939
H92	H	2.209464	-0.067782	0.395363
O93	O	2.838173	-0.554513	0.247040
H94	H	2.799875	-0.449963	0.246858
O95	O	2.006441	-0.566334	0.376558
H96	H	1.925655	-0.501793	0.377372
O97	O	1.831695	-0.151859	0.840421
H98	H	1.812528	-0.235768	0.861964
O99	O	2.336265	-0.790425	0.222423
H100	H	2.374561	-0.894971	0.222588
O101	O	1.945673	-0.728529	-0.054258
H102	H	1.971946	-0.835093	-0.043000
H103	H	2.480609	-0.165541	-0.213184
H104	H	2.101457	-0.179580	0.465540
O105	O	2.659887	-0.180047	0.621422
H106	H	2.714383	-0.184804	0.583071
O107	O	2.680423	-0.151855	-0.159592
H108	H	2.700625	-0.238897	-0.187895
O109	O	2.067499	-0.842370	0.375357
H110	H	2.066087	-0.786771	0.424181
O111	O	2.275103	-0.514497	0.223660
H112	H	2.226681	-0.578426	0.220701
H113	H	2.601455	-0.179565	0.465519
H114	H	2.133360	-0.178473	0.609904
O115	O	2.211808	-0.178301	0.856553
H116	H	2.284458	-0.182400	0.900290
H117	H	1.801578	-0.155375	0.595823
O118	O	2.248386	-0.177069	1.021966
H119	H	2.246736	-0.175518	1.083335
H120	H	1.890098	-0.152380	0.996338
H121	H	1.769652	-0.156433	0.451441
H122	H	2.301624	-0.155362	0.595853
O123	O	2.488137	-0.166208	0.696092
H124	H	2.571727	-0.171556	0.720411
