data_functionalizedCrystal
_audit_creation_method	'MofGen! by Chris Wilmer'
_symmetry_space_group_name_H-M	'P1'
_symmetry_Int_Tables_number	1
_symmetry_cell_setting	triclinic
loop_
_symmetry_equiv_pos_as_xyz
  x,y,z
_cell_length_a	12.759387
_cell_length_b	13.032831
_cell_length_c	13.032721
_cell_angle_alpha	90.902885
_cell_angle_beta	82.851191
_cell_angle_gamma	97.194792
loop_
_atom_site_label
_atom_site_type_symbol
_atom_site_fract_x
_atom_site_fract_y
_atom_site_fract_z
Zn1	Zn	-0.865598	-1.520311	0.609333
Zn2	Zn	-0.709064	-1.498341	0.781319
Zn3	Zn	-0.665221	-1.348314	0.587511
Zn4	Zn	-0.859989	-1.326459	0.759380
O5	O	-0.774968	-1.423356	0.684386
O6	O	-0.865529	-1.661312	0.650461
O7	O	-0.556227	-1.478391	0.755659
O8	O	-0.675800	-1.389470	0.446501
O9	O	-0.750524	-1.645170	0.776819
O10	O	-0.823016	-1.515836	0.462534
O11	O	-0.524015	-1.368166	0.613269
O12	O	-0.670361	-1.201500	0.591996
O13	O	-1.007754	-1.352223	0.739427
O14	O	-0.813456	-1.185443	0.718267
O15	O	-1.011875	-1.494645	0.629188
O16	O	-0.745085	-1.457200	0.922313
O17	O	-0.855969	-1.330919	0.906195
C18	C	-0.736543	-1.156156	0.650384
C19	C	-0.720133	-1.041843	0.635862
C20	C	-0.804703	-1.389331	0.951571
C21	C	-0.817473	-1.374870	1.065886
C22	C	-1.049001	-1.423447	0.684295
C23	C	-1.165778	-1.423485	0.684256
C24	C	-1.170091	-1.571798	0.569474
C25	C	-1.227109	-1.645970	0.512069
C26	C	-1.336830	-1.646000	0.512035
C27	C	-1.389535	-1.571847	0.569409
C28	C	-1.332517	-1.497675	0.626814
C29	C	-1.222795	-1.497655	0.626844
C30	C	-1.328203	-1.349360	0.741589
C31	C	-1.218483	-1.349333	0.741630
C32	C	-1.380908	-1.275207	0.798963
C33	C	-1.323891	-1.201038	0.856375
C34	C	-1.214164	-1.201012	0.856407
C35	C	-1.161465	-1.275160	0.799035
C36	C	-0.502001	-1.423335	0.684410
C37	C	-0.385221	-1.423532	0.684184
C38	C	-0.813543	-1.691600	0.718522
C39	C	-0.829982	-1.805909	0.733068
C40	C	-0.783533	-0.982950	0.691965
C41	C	-0.766573	-0.864801	0.676958
C42	C	-0.745143	-1.457542	0.416161
C43	C	-0.732434	-1.472110	0.301860
C44	C	-0.768358	-1.430959	1.124798
C45	C	-0.781555	-1.416013	1.242949
H46	H	-1.080753	-1.571789	0.569507
Br47	Br	-1.538440	-1.571878	0.569347
H48	H	-0.716544	-1.490048	1.087768
H49	H	-0.869296	-1.315789	1.102919
H50	H	-1.383253	-1.706392	0.465284
H51	H	-0.850370	-1.019998	0.751103
H52	H	-0.699738	-0.827759	0.617807
H53	H	-0.896827	-0.842952	0.792209
H54	H	-0.653302	-1.004796	0.576716
H55	H	-0.680616	-1.531203	1.264833
H56	H	-1.184184	-1.706342	0.465355
Br57	Br	-1.529816	-1.275244	0.798915
Br58	Br	-1.395421	-1.100406	0.934221
Br59	Br	-1.012559	-1.275137	0.799083
Br60	Br	-1.136789	-1.100335	0.934309
H61	H	-0.833382	-1.356928	1.279978
