data_functionalizedCrystal
_audit_creation_method	'MofGen! by Chris Wilmer'
_symmetry_space_group_name_H-M	'P1'
_symmetry_Int_Tables_number	1
_symmetry_cell_setting	triclinic
loop_
_symmetry_equiv_pos_as_xyz
  x,y,z
_cell_length_a	14.044209
_cell_length_b	10.540539
_cell_length_c	13.101039
_cell_angle_alpha	86.610474
_cell_angle_beta	86.334262
_cell_angle_gamma	91.143278
loop_
_atom_site_label
_atom_site_type_symbol
_atom_site_fract_x
_atom_site_fract_y
_atom_site_fract_z
O1	O	-0.128498	1.705793	-0.085173
O2	O	-0.141093	1.337655	-0.085186
O3	O	0.003226	1.516199	-0.085165
O4	O	-0.272816	1.527249	-0.085194
O5	O	-0.007146	1.503390	0.085263
O6	O	-0.151465	1.324846	0.085242
O7	O	-0.138870	1.692985	0.085255
Zn8	Zn	-0.146814	1.506882	0.112308
Zn9	Zn	-0.133148	1.523758	-0.112239
O10	O	-0.283188	1.514441	0.085234
C11	C	-0.145334	1.283852	0.000026
C12	C	-0.142508	1.142619	0.000022
C13	C	0.033387	1.504957	0.000050
C14	C	0.138711	1.490528	0.000054
C15	C	-0.034243	0.948214	0.000431
C16	C	-0.037084	1.095152	0.000036
C17	C	-0.187319	1.093389	-0.097303
C18	C	-0.183717	0.946486	-0.097373
C19	C	-0.197657	0.931649	0.096436
C20	C	-0.198705	1.078633	0.097711
C21	C	0.331551	1.464150	0.000045
C22	C	0.388492	1.566493	0.000047
C23	C	0.495795	1.551816	0.000042
C24	C	0.224238	1.478825	0.000050
C25	C	0.686650	1.525685	0.000025
C26	C	0.581327	1.540121	0.000038
C27	C	-0.134628	1.746788	0.000040
C28	C	-0.137454	1.888022	0.000038
N29	N	-0.156140	1.495374	0.265555
N30	N	-0.123815	1.535275	-0.265486
C31	C	-0.168837	1.479718	0.474596
C32	C	-0.111121	1.550927	0.525480
C33	C	-0.118186	1.542216	0.641797
C34	C	-0.161773	1.488428	0.358268
H35	H	-0.001409	1.128487	0.069803
Cl36	Cl	-0.306500	1.140442	-0.102932
H37	H	-0.056405	1.618434	0.481686
Cl38	Cl	0.339338	1.718789	0.000062
H39	H	0.003158	0.910173	0.070228
Cl40	Cl	-0.253315	1.375503	0.542205
H41	H	0.011453	0.919031	-0.068969
H42	H	0.007371	1.138085	-0.069843
H43	H	-0.141792	0.919952	-0.170116
Cl44	Cl	-0.300357	0.884766	-0.104208
H45	H	0.363389	1.365516	0.000040
Cl46	Cl	-0.151909	0.869069	0.210333
Cl47	Cl	-0.126102	1.162038	-0.209122
H48	H	-0.275924	1.110188	0.103579
Cl49	Cl	-0.148151	1.127568	0.208874
H50	H	-0.273844	0.892071	0.097085
