data_functionalizedCrystal
_audit_creation_method	'MofGen! by Chris Wilmer'
_symmetry_space_group_name_H-M	'P1'
_symmetry_Int_Tables_number	1
_symmetry_cell_setting	triclinic
loop_
_symmetry_equiv_pos_as_xyz
  x,y,z
_cell_length_a	6.817900
_cell_length_b	15.301126
_cell_length_c	11.102291
_cell_angle_alpha	93.598251
_cell_angle_beta	108.605752
_cell_angle_gamma	104.177575
loop_
_atom_site_label
_atom_site_type_symbol
_atom_site_fract_x
_atom_site_fract_y
_atom_site_fract_z
V1	V	-4.088958	-0.124770	-0.396645
O2	O	-4.071654	0.005984	-0.388697
O3	O	-4.043544	-0.247387	-0.394315
O4	O	-4.066089	-0.122856	-0.569462
O5	O	-4.048953	-0.119409	-0.212338
V6	V	-4.568891	-0.109130	-0.374554
O7	O	-4.358092	-0.159078	-0.445104
O8	O	-4.749954	-0.074821	-0.326096
O9	O	-4.391098	0.013487	-0.376885
O10	O	-4.703592	-0.239884	-0.382502
O11	O	-4.726293	-0.114491	-0.558861
O12	O	-4.368553	-0.111044	-0.201738
C13	C	-3.888445	-0.277278	-0.388156
C14	C	-3.932771	-0.377519	-0.387403
C15	C	-4.136772	-0.429205	-0.393402
C16	C	-4.178412	-0.523393	-0.392702
C17	C	-4.016045	-0.565891	-0.385992
C18	C	-3.812030	-0.514199	-0.379996
C19	C	-3.770397	-0.420014	-0.380706
C20	C	-3.898818	-0.710509	-0.378514
C21	C	-3.940452	-0.804700	-0.377802
C22	C	-4.306834	-0.813888	-0.390510
C23	C	-4.265200	-0.719704	-0.391220
C24	C	-4.061186	-0.668017	-0.385221
C25	C	-3.917203	-0.118425	-0.611572
C26	C	-3.979808	-0.117672	-0.752852
C27	C	-4.192413	-0.121815	-0.825713
C28	C	-4.251216	-0.121089	-0.958457
C29	C	-3.884789	-0.112080	-0.945468
C30	C	-3.825986	-0.112800	-0.812725
C31	C	-4.403969	-0.127020	-0.833214
C32	C	-4.462772	-0.126294	-0.965958
C33	C	-4.209539	0.043373	-0.383040
C34	C	-4.144452	0.143613	-0.383802
C35	C	-4.180781	-0.115477	-0.159621
C36	C	-4.097414	-0.116227	-0.018339
H37	H	-4.397413	-0.685103	-0.396675
Cl38	Cl	-3.513933	-0.355037	-0.373171
H39	H	-4.594669	-0.191494	-1.019007
H40	H	-4.344527	-0.565472	-0.397589
Cl41	Cl	-3.558700	-0.107584	-0.721131
H42	H	-3.808255	-0.839304	-0.372377
H43	H	-3.759561	-0.108112	-0.994232
Cl44	Cl	-4.451114	-0.032527	-0.760198
Cl45	Cl	-3.642342	-0.645534	-0.370979
H46	H	-3.679835	-0.548809	-0.374541
Cl47	Cl	-4.532462	-0.230838	-0.795755
Cl48	Cl	-4.536969	-0.027452	-1.010596
H49	H	-4.268989	-0.394609	-0.398853
H50	H	-4.472942	-0.855974	-0.395375
