data_functionalizedCrystal
_audit_creation_method	'MofGen! by Chris Wilmer'
_symmetry_space_group_name_H-M	'P1'
_symmetry_Int_Tables_number	1
_symmetry_cell_setting	triclinic
loop_
_symmetry_equiv_pos_as_xyz
  x,y,z
_cell_length_a	12.811445
_cell_length_b	10.654550
_cell_length_c	11.892095
_cell_angle_alpha	93.928097
_cell_angle_beta	80.666316
_cell_angle_gamma	84.264360
loop_
_atom_site_label
_atom_site_type_symbol
_atom_site_fract_x
_atom_site_fract_y
_atom_site_fract_z
O1	O	1.410793	0.148905	-0.238616
O2	O	1.103111	0.169971	-0.207079
O3	O	1.264026	-0.023399	-0.223568
O4	O	1.249878	0.342275	-0.222127
O5	O	1.250609	-0.007301	-0.034186
O6	O	1.089694	0.186069	-0.017696
O7	O	1.397376	0.165003	-0.049234
Zn8	Zn	1.241405	0.178092	-0.003397
Zn9	Zn	1.259082	0.156882	-0.252916
O10	O	1.236461	0.358373	-0.032744
C11	C	1.057005	0.177332	-0.108349
C12	C	0.939613	0.175265	-0.096317
C13	C	0.733645	0.153854	-0.280191
C14	C	0.623345	0.151913	-0.268891
C15	C	0.608711	0.169450	-0.062415
C16	C	0.719011	0.171391	-0.073716
C17	C	0.781474	0.163591	-0.182608
C18	C	0.891777	0.165524	-0.193908
C19	C	0.877140	0.183070	0.012567
C20	C	0.766840	0.181128	0.023868
C21	C	1.256279	-0.062133	-0.128772
C22	C	1.253171	-0.201534	-0.128457
C23	C	1.347915	-0.282331	-0.138165
C24	C	1.344989	-0.413312	-0.137873
C25	C	1.152566	-0.382685	-0.118160
C26	C	1.155494	-0.251708	-0.118460
C27	C	1.445592	-0.232158	-0.148163
C28	C	1.540344	-0.312956	-0.157870
C29	C	1.537418	-0.443937	-0.157578
C30	C	1.439740	-0.494120	-0.147578
C31	C	1.443482	0.157642	-0.147966
C32	C	1.560875	0.159708	-0.160006
C33	C	1.244209	0.397107	-0.127543
C34	C	1.247317	0.536507	-0.127865
N35	N	1.229348	0.192566	0.166893
N36	N	1.271147	0.142398	-0.423206
C37	C	1.355043	0.041606	0.390661
C38	C	1.346623	0.051733	0.509865
C39	C	1.204084	0.222939	0.524510
C40	C	1.212504	0.212813	0.405305
C41	C	1.287987	0.122145	0.338384
C42	C	1.296411	0.112025	0.219177
C43	C	1.153868	0.283225	0.233824
C44	C	1.145448	0.293351	0.353029
H45	H	0.916093	0.190996	0.092027
H46	H	1.447986	-0.125508	-0.148398
Cl47	Cl	1.050558	0.407326	0.437166
H48	H	1.099270	0.348808	0.191248
H49	H	0.784505	0.147497	-0.368856
H50	H	1.073041	-0.423555	-0.110017
Cl51	Cl	1.109187	0.336903	0.608651
H52	H	0.557833	0.175811	0.026240
Cl53	Cl	0.970302	0.155715	-0.330798
H54	H	1.078344	-0.185920	-0.110554
Cl55	Cl	0.563220	0.139675	-0.391573
H56	H	0.715966	0.187483	0.112525
Cl57	Cl	1.663133	-0.249872	-0.170455
H58	H	1.614570	-0.509722	-0.165494
H59	H	1.437366	-0.600775	-0.147354
H60	H	1.401225	-0.013851	0.552425
H61	H	1.357875	0.038202	0.164690
H62	H	1.416511	-0.032211	0.336172
