data_functionalizedCrystal
_audit_creation_method	'MofGen! by Chris Wilmer'
_symmetry_space_group_name_H-M	'P1'
_symmetry_Int_Tables_number	1
_symmetry_cell_setting	triclinic
loop_
_symmetry_equiv_pos_as_xyz
  x,y,z
_cell_length_a	13.897449
_cell_length_b	18.101395
_cell_length_c	13.897441
_cell_angle_alpha	90.029726
_cell_angle_beta	90.018596
_cell_angle_gamma	90.032384
loop_
_atom_site_label
_atom_site_type_symbol
_atom_site_fract_x
_atom_site_fract_y
_atom_site_fract_z
Zn1	Zn	1.474592	-0.294788	0.545380
Zn2	Zn	1.724592	-0.044788	0.795380
Zn3	Zn	1.974592	0.205212	1.045380
Zn4	Zn	2.224592	0.455212	1.295380
Zn5	Zn	1.474455	-0.418641	0.384082
Zn6	Zn	1.724455	-0.168641	0.634082
Zn7	Zn	1.974455	0.081359	0.884082
Zn8	Zn	2.224455	0.331359	1.134082
Zn9	Zn	1.313288	-0.294821	0.384099
Zn10	Zn	1.563288	-0.044821	0.634099
Zn11	Zn	1.813288	0.205179	0.884099
Zn12	Zn	2.063288	0.455179	1.134099
Zn13	Zn	1.313225	-0.418595	0.545334
Zn14	Zn	1.563225	-0.168595	0.795334
Zn15	Zn	1.813225	0.081405	1.045334
Zn16	Zn	2.063225	0.331405	1.295334
O17	O	1.393890	-0.356711	0.464724
O18	O	1.643890	-0.106711	0.714724
O19	O	1.893890	0.143289	0.964724
O20	O	2.143890	0.393289	1.214724
O21	O	1.609556	-0.311223	0.523996
O22	O	1.859556	-0.061223	0.773996
O23	O	2.109556	0.188777	1.023996
O24	O	2.359556	0.438777	1.273996
O25	O	1.453044	-0.402250	0.249102
O26	O	1.703044	-0.152250	0.499102
O27	O	1.953044	0.097750	0.749102
O28	O	2.203044	0.347750	0.999102
O29	O	1.334769	-0.191184	0.405520
O30	O	1.584769	0.058816	0.655520
O31	O	1.834769	0.308816	0.905520
O32	O	2.084769	0.558816	1.155520
O33	O	1.609455	-0.402218	0.405490
O34	O	1.859455	-0.152218	0.655490
O35	O	2.109455	0.097782	0.905490
O36	O	2.359455	0.347782	1.155490
O37	O	1.453279	-0.191159	0.524013
O38	O	1.703279	0.058841	0.774013
O39	O	1.953279	0.308841	1.024013
O40	O	2.203279	0.558841	1.274013
O41	O	1.334635	-0.311279	0.249115
O42	O	1.584635	-0.061279	0.499115
O43	O	1.834635	0.188721	0.749115
O44	O	2.084635	0.438721	0.999115
O45	O	1.178298	-0.311234	0.405475
O46	O	1.428298	-0.061234	0.655475
O47	O	1.678298	0.188766	0.905475
O48	O	1.928298	0.438766	1.155475
O49	O	1.334663	-0.402138	0.680322
O50	O	1.584663	-0.152138	0.930322
O51	O	1.834663	0.097862	1.180322
O52	O	2.084663	0.347862	1.430322
O53	O	1.178252	-0.402170	0.523934
O54	O	1.428252	-0.152170	0.773934
O55	O	1.678252	0.097830	1.023934
O56	O	1.928252	0.347830	1.273934
O57	O	1.453218	-0.311178	0.680356
O58	O	1.703218	-0.061178	0.930356
O59	O	1.953218	0.188822	1.180356
O60	O	2.203218	0.438822	1.430356
O61	O	1.452984	-0.522268	0.405445
O62	O	1.702984	-0.272268	0.655445
O63	O	1.952984	-0.022268	0.905445
O64	O	2.202984	0.227732	1.155445
O65	O	1.334529	-0.522234	0.523917
O66	O	1.584529	-0.272234	0.773917
O67	O	1.834529	-0.022234	1.023917
O68	O	2.084529	0.227766	1.273917
C69	C	1.143276	-0.356701	0.464702
C70	C	1.393276	-0.106701	0.714702
C71	C	1.643276	0.143299	0.964702
C72	C	1.893276	0.393299	1.214702
C73	C	1.036062	-0.356715	0.464715
C74	C	1.286062	-0.106715	0.714715
C75	C	1.536062	0.143285	0.964715
C76	C	1.786062	0.393285	1.214715
C77	C	1.393761	-0.549122	0.464695
C78	C	1.643761	-0.299122	0.714695
C79	C	1.893761	-0.049122	0.964695
C80	C	2.143761	0.200878	1.214695
C81	C	1.393794	-0.631436	0.464716
C82	C	1.643794	-0.381436	0.714716
C83	C	1.893794	-0.131436	0.964716
C84	C	2.143794	0.118564	1.214716
C85	C	0.839767	-0.356718	0.464741
C86	C	1.089767	-0.106718	0.714741
C87	C	1.339767	0.143282	0.964741
C88	C	1.589767	0.393282	1.214741
C89	C	0.948999	-0.356714	0.464724
C90	C	1.198999	-0.106714	0.714724
C91	C	1.448999	0.143286	0.964724
C92	C	1.698999	0.393286	1.214724
C93	C	1.394006	-0.930527	0.464767
C94	C	1.644006	-0.680527	0.714767
C95	C	1.894006	-0.430527	0.964767
C96	C	2.144006	-0.180527	1.214767
C97	C	1.319650	-0.899211	0.539492
C98	C	1.569650	-0.649211	0.789492
C99	C	1.819650	-0.399211	1.039492
C100	C	2.069650	-0.149211	1.289492
C101	C	1.319297	-0.813593	0.539258
C102	C	1.569297	-0.563593	0.789258
C103	C	1.819297	-0.313593	1.039258
C104	C	2.069297	-0.063593	1.289258
C105	C	1.393901	-0.782144	0.464743
C106	C	1.643901	-0.532144	0.714743
C107	C	1.893901	-0.282144	0.964743
C108	C	2.143901	-0.032144	1.214743
C109	C	1.366379	-0.813299	0.363084
C110	C	1.616379	-0.563299	0.613084
C111	C	1.866379	-0.313299	0.863084
C112	C	2.116379	-0.063299	1.113084
C113	C	1.365899	-0.898945	0.363531
C114	C	1.615899	-0.648945	0.613531
C115	C	1.865899	-0.398945	0.863531
C116	C	2.115899	-0.148945	1.113531
C117	C	1.496046	-0.898868	0.490807
C118	C	1.746046	-0.648868	0.740807
C119	C	1.996046	-0.398868	0.990807
C120	C	2.246046	-0.148868	1.240807
C121	C	1.495446	-0.813217	0.493037
C122	C	1.745446	-0.563217	0.743037
C123	C	1.995446	-0.313217	0.993037
C124	C	2.245446	-0.063217	1.243037
C125	C	1.393843	-0.698285	0.464722
C126	C	1.643843	-0.448285	0.714722
C127	C	1.893843	-0.198285	0.964722
C128	C	2.143843	0.051715	1.214722
C129	C	1.394061	-1.014386	0.464781
C130	C	1.644061	-0.764386	0.714781
C131	C	1.894061	-0.514386	0.964781
C132	C	2.144061	-0.264386	1.214781
C133	C	1.645483	-0.356722	0.464746
C134	C	1.895483	-0.106722	0.714746
C135	C	2.145483	0.143278	0.964746
C136	C	2.395483	0.393278	1.214746
C137	C	1.752697	-0.356726	0.464756
C138	C	2.002697	-0.106726	0.714756
C139	C	2.252697	0.143274	0.964756
C140	C	2.502697	0.393274	1.214756
C141	C	1.393949	-0.356649	0.716317
C142	C	1.643949	-0.106649	0.966317
C143	C	1.893949	0.143351	1.216317
C144	C	2.143949	0.393351	1.466317
C145	C	1.393974	-0.356623	0.823531
C146	C	1.643974	-0.106623	1.073531
C147	C	1.893974	0.143377	1.323531
C148	C	2.143974	0.393377	1.573531
C149	C	1.394046	-0.163549	0.464773
C150	C	1.644046	0.086451	0.714773
C151	C	1.894046	0.336451	0.964773
C152	C	2.144046	0.586451	1.214773
C153	C	1.394112	-0.081235	0.464795
C154	C	1.644112	0.168765	0.714795
C155	C	1.894112	0.418765	0.964795
C156	C	2.144112	0.668765	1.214795
C157	C	1.393887	-0.356720	0.214109
C158	C	1.643887	-0.106720	0.464109
C159	C	1.893887	0.143280	0.714109
C160	C	2.143887	0.393280	0.964109
C161	C	1.394048	-0.356538	0.106896
C162	C	1.644048	-0.106538	0.356896
C163	C	1.894048	0.143462	0.606896
C164	C	2.144048	0.393462	0.856896
C165	C	1.393994	-0.356602	0.910601
C166	C	1.643994	-0.106602	1.160601
C167	C	1.893994	0.143398	1.410601
C168	C	2.143994	0.393398	1.660601
C169	C	1.394022	-0.356568	1.019833
C170	C	1.644022	-0.106568	1.269833
C171	C	1.894022	0.143432	1.519833
C172	C	2.144022	0.393432	1.769833
H173	H	1.336516	-0.792526	0.614637
H174	H	1.586516	-0.542526	0.864637
H175	H	1.836516	-0.292526	1.114637
H176	H	2.086516	-0.042526	1.364637
F177	F	1.341929	-0.926066	0.638339
F178	F	1.591929	-0.676066	0.888339
F179	F	1.841929	-0.426066	1.138339
F180	F	2.091929	-0.176066	1.388339
H181	H	1.291308	-0.918990	0.341472
H182	H	1.541308	-0.668990	0.591472
H183	H	1.791308	-0.418990	0.841472
H184	H	2.041308	-0.168990	1.091472
H185	H	1.551443	-0.919119	0.436383
H186	H	1.801443	-0.669119	0.686383
H187	H	2.051443	-0.419119	0.936383
H188	H	2.301443	-0.169119	1.186383
F189	F	1.221393	-0.927441	0.517247
F190	F	1.471393	-0.677441	0.767247
F191	F	1.721393	-0.427441	1.017247
F192	F	1.971393	-0.177441	1.267247
H193	H	1.243662	-0.793172	0.522009
H194	H	1.493662	-0.543172	0.772009
H195	H	1.743662	-0.293172	1.022009
H196	H	1.993662	-0.043172	1.272009
H197	H	1.553775	-0.791805	0.442578
H198	H	1.803775	-0.541805	0.692578
H199	H	2.053775	-0.291805	0.942578
H200	H	2.303775	-0.041805	1.192578
F201	F	1.269914	-0.785355	0.333734
F202	F	1.519914	-0.535355	0.583734
F203	F	1.769914	-0.285355	0.833734
F204	F	2.019914	-0.035355	1.083734
F205	F	1.433607	-0.926027	0.288273
F206	F	1.683607	-0.676027	0.538273
F207	F	1.933607	-0.426027	0.788273
F208	F	2.183607	-0.176027	1.038273
H209	H	1.521138	-0.920413	0.563673
H210	H	1.771138	-0.670413	0.813673
H211	H	2.021138	-0.420413	1.063673
H212	H	2.271138	-0.170413	1.313673
F213	F	1.434937	-0.786677	0.288325
F214	F	1.684937	-0.536677	0.538325
F215	F	1.934937	-0.286677	0.788325
F216	F	2.184937	-0.036677	1.038325
F217	F	1.522576	-0.786598	0.590826
F218	F	1.772576	-0.536598	0.840826
F219	F	2.022576	-0.286598	1.090826
F220	F	2.272576	-0.036598	1.340826
