data_functionalizedCrystal
_audit_creation_method	'MofGen! by Chris Wilmer'
_symmetry_space_group_name_H-M	'P1'
_symmetry_Int_Tables_number	1
_symmetry_cell_setting	triclinic
loop_
_symmetry_equiv_pos_as_xyz
  x,y,z
_cell_length_a	10.654543
_cell_length_b	8.140239
_cell_length_c	10.654550
_cell_angle_alpha	90.003375
_cell_angle_beta	95.516448
_cell_angle_gamma	90.001936
loop_
_atom_site_label
_atom_site_type_symbol
_atom_site_fract_x
_atom_site_fract_y
_atom_site_fract_z
O1	O	-1.667843	0.136436	0.176357
O2	O	-1.334510	0.469770	0.509690
O3	O	-1.001176	0.803103	0.843023
O4	O	-1.302364	0.136478	0.193172
O5	O	-0.969030	0.469812	0.526505
O6	O	-0.635697	0.803145	0.859838
O7	O	-1.493506	0.136446	0.002025
O8	O	-1.160173	0.469779	0.335358
O9	O	-0.826840	0.803113	0.668691
O10	O	-1.476700	0.136469	0.367504
O11	O	-1.143367	0.469802	0.700837
O12	O	-0.810034	0.803135	1.034170
O13	O	-1.493496	-0.136781	0.002023
O14	O	-1.160162	0.196552	0.335356
O15	O	-0.826829	0.529886	0.668689
O16	O	-1.302353	-0.136749	0.193169
O17	O	-0.969020	0.196585	0.526503
O18	O	-0.635686	0.529918	0.859836
O19	O	-1.667832	-0.136791	0.176355
O20	O	-1.334499	0.196543	0.509688
O21	O	-1.001166	0.529876	0.843021
Zn22	Zn	-1.485091	-0.180150	0.184762
Zn23	Zn	-1.151758	0.153183	0.518095
Zn24	Zn	-0.818424	0.486516	0.851428
Zn25	Zn	-1.485105	0.179838	0.184765
Zn26	Zn	-1.151772	0.513171	0.518098
Zn27	Zn	-0.818438	0.846505	0.851431
O28	O	-1.476690	-0.136759	0.367501
O29	O	-1.143356	0.196575	0.700835
O30	O	-0.810023	0.529908	1.034168
C31	C	-1.255560	-0.000130	0.191938
C32	C	-0.922227	0.333203	0.525271
C33	C	-0.588893	0.666537	0.858604
C34	C	-1.116116	-0.000114	0.188249
C35	C	-0.782783	0.333219	0.521582
C36	C	-0.449450	0.666553	0.854916
C37	C	-1.036631	-0.000110	0.300793
C38	C	-0.703297	0.333224	0.634126
C39	C	-0.369964	0.666557	0.967459
C40	C	-0.905609	-0.000134	0.297319
C41	C	-0.572276	0.333199	0.630653
C42	C	-0.238943	0.666533	0.963986
C43	C	-0.933573	-0.000161	0.068749
C44	C	-0.600239	0.333172	0.402083
C45	C	-0.266906	0.666506	0.735416
C46	C	-1.064591	-0.000148	0.072224
C47	C	-0.731258	0.333185	0.405557
C48	C	-0.397925	0.666518	0.738890
N49	N	-1.485091	-0.425833	0.184759
N50	N	-1.151757	-0.092500	0.518092
N51	N	-0.818424	0.240834	0.851426
C52	C	-0.714635	-0.000171	0.177595
C53	C	-0.381302	0.333163	0.510928
C54	C	-0.047968	0.666496	0.844261
C55	C	-0.854077	-0.000152	0.181301
C56	C	-0.520743	0.333182	0.514635
C57	C	-0.187410	0.666515	0.847968
C58	C	-1.492267	-0.000167	-0.044774
C59	C	-1.158934	0.333167	0.288559
C60	C	-0.825600	0.666500	0.621892
C61	C	-1.488575	-0.000164	-0.184217
C62	C	-1.155242	0.333170	0.149116
C63	C	-0.821908	0.666503	0.482449
N64	N	-1.485115	0.425521	0.184757
N65	N	-1.151782	0.758854	0.518091
N66	N	-0.818449	1.092187	0.851424
C67	C	-1.601117	-0.000176	-0.263706
C68	C	-1.267784	0.333157	0.069628
C69	C	-0.934450	0.666491	0.402961
C70	C	-1.597641	-0.000155	-0.394726
C71	C	-1.264307	0.333178	-0.061393
C72	C	-0.930974	0.666511	0.271940
C73	C	-1.369070	-0.000117	-0.366758
C74	C	-1.035737	0.333216	-0.033424
C75	C	-0.702404	0.666549	0.299909
C76	C	-1.372548	-0.000126	-0.235740
C77	C	-1.039215	0.333207	0.097594
C78	C	-0.705882	0.666541	0.430927
C79	C	-1.477929	-0.000142	0.414300
C80	C	-1.144596	0.333191	0.747634
C81	C	-0.811262	0.666524	1.080967
C82	C	-1.481621	-0.000134	0.553744
C83	C	-1.148288	0.333199	0.887077
C84	C	-0.814954	0.666532	1.220410
H85	H	-1.129313	-0.000157	-0.019428
H86	H	-0.795979	0.333177	0.313905
H87	H	-0.462646	0.666510	0.647238
H88	H	-1.274605	-0.000090	-0.408724
H89	H	-0.941272	0.333243	-0.075390
H90	H	-0.607938	0.666577	0.257943
H91	H	-0.840896	-0.000134	0.388964
H92	H	-0.507563	0.333200	0.722297
H93	H	-0.174230	0.666533	1.055630
H94	H	-1.078578	-0.000094	0.395268
H95	H	-0.745244	0.333239	0.728601
H96	H	-0.411911	0.666573	1.061934
H97	H	-0.891604	-0.000199	-0.025715
H98	H	-0.558271	0.333135	0.307618
H99	H	-0.224938	0.666468	0.640952
H100	H	-1.689284	-0.000162	-0.459441
H101	H	-1.355950	0.333171	-0.126108
H102	H	-1.022617	0.666505	0.207225
H103	H	-1.695593	-0.000203	-0.221761
H104	H	-1.362260	0.333130	0.111572
H105	H	-1.028927	0.666464	0.444906
H106	H	-1.280897	-0.000111	-0.171016
H107	H	-0.947564	0.333222	0.162317
H108	H	-0.614231	0.666556	0.495650
