data_functionalizedCrystal
_audit_creation_method	'MofGen! by Chris Wilmer'
_symmetry_space_group_name_H-M	'P1'
_symmetry_Int_Tables_number	1
_symmetry_cell_setting	triclinic
loop_
_symmetry_equiv_pos_as_xyz
  x,y,z
_cell_length_a	6.817900
_cell_length_b	12.000032
_cell_length_c	11.452834
_cell_angle_alpha	78.615776
_cell_angle_beta	108.697278
_cell_angle_gamma	119.142083
loop_
_atom_site_label
_atom_site_type_symbol
_atom_site_fract_x
_atom_site_fract_y
_atom_site_fract_z
V1	V	-4.098659	-0.091945	-0.381719
O2	O	-3.995216	0.091334	-0.372340
O3	O	-4.135846	-0.265902	-0.381140
O4	O	-4.042306	-0.052393	-0.547273
O5	O	-4.089404	-0.123654	-0.205057
V6	V	-4.572227	-0.074528	-0.360342
O7	O	-4.381754	-0.130148	-0.428611
O8	O	-4.739330	-0.036325	-0.313450
O9	O	-4.311833	0.099429	-0.360921
O10	O	-4.793067	-0.257807	-0.369721
O11	O	-4.698879	-0.042819	-0.537004
O12	O	-4.405374	-0.114080	-0.194788
C13	C	-4.001926	-0.309501	-0.375643
C14	C	-4.113564	-0.451469	-0.376273
C15	C	-3.987453	-0.509877	-0.370707
C16	C	-4.102834	-0.656607	-0.371359
C17	C	-3.882603	-0.037148	-0.587560
C18	C	-3.918378	-0.005961	-0.722914
C19	C	-4.026636	-0.099345	-0.801079
C20	C	-4.063613	-0.067114	-0.940975
C21	C	-4.109100	0.143021	-0.366415
C22	C	-3.976699	0.284989	-0.365792
C23	C	-4.228421	-0.129331	-0.154495
C24	C	-4.171882	-0.160511	-0.019139
H25	H	-4.296226	-0.715227	-0.376594
C26	C	-4.113452	-0.237836	-0.752452
C27	C	-4.220294	-0.317737	-0.851669
C28	C	-4.300080	-0.445320	-0.806919
H29	H	-3.985821	-0.250633	-0.699694
H30	H	-4.222776	-0.257391	-0.707564
H31	H	-4.110979	-0.298190	-0.896537
H32	H	-4.347952	-0.304981	-0.904436
H33	H	-4.409403	-0.464875	-0.762031
H34	H	-4.172436	-0.458103	-0.754161
H35	H	-4.372599	-0.499549	-0.874230
C36	C	-3.831355	0.132386	-0.772005
C37	C	-3.885264	0.136851	-0.901000
C38	C	-3.805103	0.264278	-0.946260
H39	H	-3.904206	0.170952	-0.747655
H40	H	-3.667532	0.177229	-0.739566
H41	H	-4.049054	0.092027	-0.933426
H42	H	-3.812415	0.098311	-0.925383
H43	H	-3.641281	0.309120	-0.913821
H44	H	-3.877961	0.302833	-0.921902
H45	H	-3.841650	0.267325	-1.033786
H46	H	-3.783301	-0.656394	-0.360541
C47	C	-4.371417	-0.529844	-0.383318
C48	C	-4.434609	-0.659796	-0.382600
C49	C	-4.672131	-0.732029	-0.389100
H50	H	-4.401990	-0.514534	-0.314299
H51	H	-4.459110	-0.506013	-0.457254
H52	H	-4.346944	-0.683618	-0.308672
H53	H	-4.404094	-0.675145	-0.451614
H54	H	-4.759824	-0.708198	-0.463036
H55	H	-4.702681	-0.716708	-0.320080
H56	H	-4.715041	-0.820208	-0.388625
H57	H	-3.794063	-0.451254	-0.365453
H58	H	-3.998308	0.036702	-0.977619
H59	H	-4.237205	-0.264329	-0.982498
