data_functionalizedCrystal
_audit_creation_method	'MofGen! by Chris Wilmer'
_symmetry_space_group_name_H-M	'P1'
_symmetry_Int_Tables_number	1
_symmetry_cell_setting	triclinic
loop_
_symmetry_equiv_pos_as_xyz
  x,y,z
_cell_length_a	17.699083
_cell_length_b	17.699083
_cell_length_c	16.776229
_cell_angle_alpha	90.013676
_cell_angle_beta	89.998886
_cell_angle_gamma	96.716984
loop_
_atom_site_label
_atom_site_type_symbol
_atom_site_fract_x
_atom_site_fract_y
_atom_site_fract_z
O1	O	1.004078	-0.095713	-0.066189
O2	O	1.504078	0.404287	0.433811
O3	O	0.783700	-0.108165	-0.066217
O4	O	1.283700	0.391835	0.433783
O5	O	0.900116	0.008250	-0.066182
O6	O	1.400116	0.508250	0.433818
O7	O	0.887663	-0.212128	-0.066223
O8	O	1.387663	0.287872	0.433777
O9	O	0.900100	0.008257	0.066394
O10	O	1.400100	0.508257	0.566394
O11	O	0.783685	-0.108158	0.066360
O12	O	1.283685	0.391842	0.566360
O13	O	1.004063	-0.095706	0.066388
O14	O	1.504063	0.404294	0.566388
Zn15	Zn	0.893871	-0.101931	0.087423
Zn16	Zn	1.393871	0.398069	0.587423
Zn17	Zn	0.893892	-0.101940	-0.087252
Zn18	Zn	1.393892	0.398060	0.412748
O19	O	0.887648	-0.212121	0.066354
O20	O	1.387648	0.287879	0.566354
C21	C	0.755495	-0.107716	0.000068
C22	C	1.255495	0.392284	0.500068
C23	C	0.671477	-0.106377	0.000059
C24	C	1.171477	0.393623	0.500059
C25	C	0.899662	0.036451	0.000109
C26	C	1.399662	0.536451	0.500109
C27	C	0.898323	0.120469	0.000119
C28	C	1.398323	0.620469	0.500119
C29	C	0.622856	-0.174711	0.000046
C30	C	1.122856	0.325289	0.500046
C31	C	0.543913	-0.173448	0.000057
C32	C	1.043913	0.326552	0.500057
C33	C	0.513592	-0.103852	0.000074
C34	C	1.013592	0.396148	0.500074
C35	C	0.562219	-0.035513	0.000089
C36	C	1.062219	0.464487	0.500089
C37	C	0.641161	-0.036776	0.000084
C38	C	1.141161	0.463224	0.500084
C39	C	0.243856	-0.030418	0.000109
C40	C	0.743856	0.469582	0.500109
C41	C	0.164908	-0.029160	0.000112
C42	C	0.664908	0.470840	0.500112
C43	C	0.146608	-0.167090	0.000083
C44	C	0.646608	0.332910	0.500083
C45	C	0.225550	-0.168353	0.000078
C46	C	0.725550	0.331647	0.500078
C47	C	0.274170	-0.100015	0.000097
C48	C	0.774170	0.399985	0.500097
C49	C	0.359769	-0.101384	0.000087
C50	C	0.859769	0.398616	0.500087
C51	C	0.427995	-0.102481	0.000078
C52	C	0.927995	0.397519	0.500078
C53	C	1.032268	-0.096156	0.000101
C54	C	1.532268	0.403844	0.500101
C55	C	1.116286	-0.097494	0.000105
C56	C	1.616286	0.402506	0.500105
N57	N	0.893863	-0.101924	0.206634
N58	N	1.393863	0.398076	0.706634
C59	C	0.966656	0.169090	0.000133
C60	C	1.466656	0.669090	0.500133
C61	C	0.965394	0.248033	0.000135
C62	C	1.465394	0.748033	0.500135
C63	C	0.895798	0.278354	0.000128
C64	C	1.395798	0.778354	0.500128
C65	C	0.827459	0.229727	0.000111
C66	C	1.327459	0.729727	0.500111
C67	C	0.828722	0.150785	0.000103
C68	C	1.328722	0.650785	0.500103
C69	C	0.822364	0.548090	0.000139
C70	C	1.322364	1.048090	0.500139
C71	C	0.821106	0.627038	0.000149
C72	C	1.321106	1.127038	0.500149
C73	C	0.959036	0.645338	0.000171
C74	C	1.459036	1.145338	0.500171
C75	C	0.960299	0.566396	0.000164
C76	C	1.460299	1.066396	0.500164
C77	C	0.891961	0.517776	0.000143
C78	C	1.391961	1.017776	0.500143
C79	C	0.893330	0.432177	0.000139
C80	C	1.393330	0.932177	0.500139
C81	C	0.894427	0.363951	0.000137
C82	C	1.394427	0.863951	0.500137
C83	C	0.888102	0.759678	0.000089
C84	C	1.388102	1.259678	0.500089
C85	C	0.889440	0.675660	0.000158
C86	C	1.389440	1.175660	0.500158
N87	N	0.893906	-0.101941	-0.206463
N88	N	1.393906	0.398059	0.293537
C89	C	0.945428	-0.050396	0.248367
C90	C	1.445428	0.449604	0.748367
C91	C	0.945432	-0.050396	0.331819
C92	C	1.445432	0.449604	0.831819
C93	C	0.893875	-0.101927	0.373537
C94	C	1.393875	0.398073	0.873537
C95	C	0.842305	-0.153457	0.331799
C96	C	1.342305	0.346543	0.831799
C97	C	0.842297	-0.153454	0.248349
C98	C	1.342297	0.346546	0.748349
C99	C	0.842332	-0.153472	0.668346
C100	C	1.342332	0.346528	1.168346
C101	C	0.842345	-0.153473	0.751803
C102	C	1.342345	0.346527	1.251803
C103	C	0.945466	-0.050414	0.751817
C104	C	1.445466	0.449586	1.251817
C105	C	0.945459	-0.050411	0.668366
C106	C	1.445459	0.449589	1.168366
C107	C	0.893887	-0.101938	0.626635
C108	C	1.393887	0.398062	1.126635
C109	C	0.893882	-0.101937	0.536147
C110	C	1.393882	0.398063	1.036147
C111	C	0.893882	-0.101932	0.464024
C112	C	1.393882	0.398068	0.964024
H113	H	0.647537	-0.231384	0.000032
H114	H	1.147537	0.268616	0.500032
O115	O	0.688472	0.029553	-0.000014
O116	O	1.188472	0.529553	0.499986
C117	C	0.734668	0.032955	-0.068687
C118	C	1.234668	0.532955	0.431313
H119	H	0.738546	-0.027114	-0.091592
H120	H	1.238546	0.472886	0.408408
H121	H	0.794055	0.061255	-0.053240
H122	H	1.294055	0.561255	0.446760
H123	H	0.708761	0.067475	-0.116758
H124	H	1.208761	0.567475	0.383242
H125	H	0.764429	0.651721	0.000145
H126	H	1.264429	1.151721	0.500145
O127	O	0.290971	0.036033	0.000089
O128	O	0.790971	0.536033	0.500089
C129	C	0.247278	0.097728	0.000123
C130	C	0.747278	0.597728	0.500123
H131	H	0.188324	0.078405	-0.024981
H132	H	0.688324	0.578405	0.475019
H133	H	0.276485	0.145599	-0.038356
H134	H	0.776485	0.645599	0.461644
H135	H	0.241693	0.119068	0.063732
H136	H	0.741693	0.619068	0.563732
H137	H	0.537526	0.021154	0.000114
H138	H	1.037526	0.521154	0.500114
O139	O	0.759834	0.259143	-0.000040
O140	O	1.259834	0.759143	0.499960
C141	C	0.718188	0.234263	-0.068702
C142	C	1.218188	0.734263	0.431298
H143	H	0.758895	0.217911	-0.116689
H144	H	1.258895	0.717911	0.383311
H145	H	0.686079	0.282025	-0.091749
H146	H	1.186079	0.782025	0.408251
H147	H	0.675915	0.182736	-0.053191
H148	H	1.175915	0.682736	0.446809
O149	O	0.756034	0.500788	0.000230
O150	O	1.256034	1.000788	0.500230
C151	C	0.752619	0.454595	0.068895
C152	C	1.252619	0.954595	0.568895
H153	H	0.812684	0.450717	0.091794
H154	H	1.312684	0.950717	0.591794
H155	H	0.724320	0.395208	0.053439
H156	H	1.224320	0.895208	0.553439
H157	H	0.718092	0.480506	0.116974
H158	H	1.218092	0.980506	0.616974
O159	O	1.027924	0.536980	0.000029
O160	O	1.527924	1.036980	0.500029
C161	C	1.069586	0.561845	-0.068617
C162	C	1.569586	1.061845	0.431383
H163	H	1.028890	0.578186	-0.116610
H164	H	1.528890	1.078186	0.383390
H165	H	1.101701	0.514079	-0.091667
H166	H	1.601701	1.014079	0.408333
H167	H	1.111855	0.613376	-0.053084
H168	H	1.611855	1.113376	0.446916
O169	O	0.762392	0.103476	0.000197
O170	O	1.262392	0.603476	0.500197
C171	C	0.758976	0.057284	0.068862
C172	C	1.258976	0.557284	0.568862
H173	H	0.819040	0.053406	0.091764
H174	H	1.319040	0.553406	0.591764
H175	H	0.730677	-0.002103	0.053407
H176	H	1.230677	0.497897	0.553407
H177	H	0.724447	0.083195	0.116940
H178	H	1.224447	0.583195	0.616940
H179	H	0.800308	-0.195412	0.214371
H180	H	1.300308	0.304588	0.714371
H181	H	0.987414	-0.008437	0.214405
H182	H	1.487414	0.491563	0.714405
H183	H	0.987419	-0.008438	0.365797
H184	H	1.487419	0.491562	0.865797
H185	H	0.800358	-0.195437	0.785769
H186	H	1.300358	0.304563	1.285769
H187	H	0.504328	-0.229092	0.000046
H188	H	1.004328	0.270908	0.500046
O189	O	0.995570	-0.000280	0.627965
O190	O	1.495570	0.499720	1.127965
C191	C	1.041096	0.045190	0.682695
C192	C	1.541096	0.545190	1.182695
H193	H	1.010076	0.046003	0.742187
H194	H	1.510076	0.546003	1.242187
H195	H	1.052752	0.105650	0.658600
H196	H	1.552752	0.605650	1.158600
H197	H	1.097273	0.020686	0.691554
H198	H	1.597273	0.520686	1.191554
O199	O	0.995487	-0.000382	0.792479
O200	O	1.495487	0.499618	1.292479
C201	C	0.984453	-0.011441	0.875081
C202	C	1.484453	0.488559	1.375081
H203	H	0.924229	-0.039802	0.886480
H204	H	1.424229	0.460198	1.386480
H205	H	0.992988	0.045889	0.906809
H206	H	1.492988	0.545889	1.406809
H207	H	1.027218	-0.049351	0.898747
H208	H	1.527218	0.450649	1.398747
H209	H	0.800342	-0.195428	0.634376
H210	H	1.300342	0.304572	1.134376
H211	H	0.800322	-0.195412	0.365771
H212	H	1.300322	0.304588	0.865771
H213	H	0.250232	-0.225025	0.000060
H214	H	0.750232	0.274975	0.500060
O215	O	1.034330	0.139765	0.000103
O216	O	1.534330	0.639765	0.500103
C217	C	1.094371	0.199612	0.000134
C218	C	1.594371	0.699612	0.500134
H219	H	1.073253	0.253197	-0.024961
H220	H	1.573253	0.753197	0.475039
H221	H	1.142974	0.183201	-0.038355
H222	H	1.642974	0.683201	0.461645
H223	H	1.115438	0.210829	0.063740
H224	H	1.615438	0.710829	0.563740
H225	H	1.014680	0.684934	0.000185
H226	H	1.514680	1.184934	0.500185
O227	O	0.099300	-0.233426	-0.000034
O228	O	0.599300	0.266574	0.499966
C229	C	0.053098	-0.236834	-0.068703
C230	C	0.553098	0.263166	0.431297
H231	H	0.049214	-0.176766	-0.091578
H232	H	0.549214	0.323234	0.408422
H233	H	-0.006286	-0.265137	-0.053263
H234	H	0.493714	0.234863	0.446737
H235	H	0.079004	-0.271353	-0.116795
H236	H	0.579004	0.228647	0.383205
O237	O	0.135418	0.038431	-0.000007
O238	O	0.635418	0.538431	0.499993
C239	C	0.090287	0.043280	-0.068658
C240	C	0.590287	0.543280	0.431342
H241	H	0.108887	0.003767	-0.116661
H242	H	0.608887	0.503767	0.383339
H243	H	0.097482	0.104293	-0.091687
H244	H	0.597482	0.604293	0.408313
H245	H	0.028000	0.025703	-0.053139
H246	H	0.528000	0.525703	0.446861
H247	H	1.021038	0.287618	0.000149
H248	H	1.521038	0.787618	0.500149
