data_functionalizedCrystal
_audit_creation_method	'MofGen! by Chris Wilmer'
_symmetry_space_group_name_H-M	'P1'
_symmetry_Int_Tables_number	1
_symmetry_cell_setting	triclinic
loop_
_symmetry_equiv_pos_as_xyz
  x,y,z
_cell_length_a	14.519731
_cell_length_b	15.995350
_cell_length_c	13.596369
_cell_angle_alpha	89.996243
_cell_angle_beta	90.006433
_cell_angle_gamma	96.409386
loop_
_atom_site_label
_atom_site_type_symbol
_atom_site_fract_x
_atom_site_fract_y
_atom_site_fract_z
O1	O	-1.223657	0.109845	-0.081812
O2	O	-0.723657	0.609845	0.418188
O3	O	-0.955159	0.122752	-0.081808
O4	O	-0.455159	0.622752	0.418192
O5	O	-1.096748	-0.005578	-0.081809
O6	O	-0.596748	0.494422	0.418191
O7	O	-1.082068	0.238174	-0.081810
O8	O	-0.582068	0.738174	0.418190
O9	O	-1.096733	-0.005585	0.081774
O10	O	-0.596733	0.494415	0.581774
O11	O	-0.955145	0.122745	0.081775
O12	O	-0.455145	0.622745	0.581775
O13	O	-1.223643	0.109838	0.081771
O14	O	-0.723643	0.609838	0.581771
Zn15	Zn	-1.089392	0.116290	0.107746
Zn16	Zn	-0.589392	0.616290	0.607746
Zn17	Zn	-1.089410	0.116299	-0.107782
Zn18	Zn	-0.589410	0.616299	0.392218
O19	O	-1.082054	0.238168	0.081773
O20	O	-0.582054	0.738168	0.581773
C21	C	-0.920794	0.122144	-0.000016
C22	C	-0.420794	0.622144	0.499984
C23	C	-0.818417	0.120331	-0.000014
C24	C	-0.318417	0.620331	0.499986
C25	C	-0.735275	0.118859	-0.000017
C26	C	-0.235275	0.618859	0.499983
C27	C	-0.630970	0.117019	-0.000015
C28	C	-0.130970	0.617019	0.499985
C29	C	-0.547834	0.115559	-0.000013
C30	C	-0.047834	0.615559	0.499987
C31	C	-0.443521	0.113719	-0.000013
C32	C	0.056479	0.613719	0.499987
C33	C	-1.096134	-0.036777	-0.000019
C34	C	-0.596134	0.463223	0.499981
C35	C	-1.094314	-0.129730	-0.000025
C36	C	-0.594314	0.370270	0.499975
C37	C	-1.087781	-0.467488	-0.000021
C38	C	-0.587781	0.032512	0.499979
C39	C	-0.986944	-0.420212	-0.000387
C40	C	-0.486944	0.079788	0.499613
C41	C	-0.988764	-0.323519	-0.000018
C42	C	-0.488764	0.176481	0.499982
C43	C	-1.091021	-0.299922	-0.000024
C44	C	-0.591021	0.200078	0.499976
C45	C	-1.140750	-0.340926	0.093388
C46	C	-0.640750	0.159074	0.593388
C47	C	-1.138216	-0.437565	0.093466
C48	C	-0.638216	0.062435	0.593466
C49	C	-1.140316	-0.437913	-0.092558
C50	C	-0.640316	0.062087	0.407442
C51	C	-1.140292	-0.340967	-0.093793
C52	C	-0.640292	0.159033	0.406207
C53	C	-1.092858	-0.205222	-0.000022
C54	C	-0.592858	0.294778	0.499978
C55	C	-1.085947	-0.562189	-0.000017
C56	C	-0.585947	-0.062189	0.499983
C57	C	-0.258008	0.110446	-0.000018
C58	C	0.241992	0.610446	0.499982
C59	C	-0.360385	0.112258	-0.000012
C60	C	0.139615	0.612258	0.499988
C61	C	-1.082668	0.269367	-0.000019
C62	C	-0.582668	0.769367	0.499981
C63	C	-1.084488	0.362320	-0.000020
C64	C	-0.584488	0.862320	0.499980
N65	N	-1.089386	0.116284	0.254837
N66	N	-0.589386	0.616284	0.754837
N67	N	-1.089423	0.116299	-0.254874
N68	N	-0.589423	0.616299	0.245126
C69	C	-1.089409	0.116300	0.656128
C70	C	-0.589409	0.616300	1.156128
C71	C	-1.089400	0.116299	0.544477
C72	C	-0.589400	0.616299	1.044477
C73	C	-1.089398	0.116293	0.455486
C74	C	-0.589398	0.616293	0.955486
C75	C	-1.089388	0.116290	0.343828
C76	C	-0.589388	0.616290	0.843828
H77	H	-0.949673	-0.295155	-0.066979
H78	H	-0.449673	0.204845	0.433021
H79	H	-1.215875	-0.326682	0.096858
H80	H	-0.715875	0.173318	0.596858
H81	H	-1.106199	-0.312601	0.162905
H82	H	-0.606199	0.187399	0.662905
Br83	Br	-0.923147	-0.277174	0.111777
Br84	Br	-0.423147	0.222826	0.611777
Br85	Br	-0.919863	-0.453378	0.110303
Br86	Br	-0.419863	0.046622	0.610303
Br87	Br	-1.085368	-0.472215	-0.210565
Br88	Br	-0.585368	0.027785	0.289435
Br89	Br	-1.077755	-0.468173	0.209852
Br90	Br	-0.577755	0.031827	0.709852
Br91	Br	-1.080202	-0.295101	-0.208990
Br92	Br	-0.580202	0.204899	0.291010
H93	H	-1.214662	-0.469557	-0.093190
H94	H	-0.714662	0.030443	0.406810
Br95	Br	-0.919772	-0.451195	-0.112039
Br96	Br	-0.419772	0.048805	0.387961
Br97	Br	-1.261604	-0.491126	0.100536
Br98	Br	-0.761604	0.008874	0.600536
H99	H	-1.214863	-0.325488	-0.099437
H100	H	-0.714863	0.174512	0.400563
