data_functionalizedCrystal
_audit_creation_method	'MofGen! by Chris Wilmer'
_symmetry_space_group_name_H-M	'P1'
_symmetry_Int_Tables_number	1
_symmetry_cell_setting	triclinic
loop_
_symmetry_equiv_pos_as_xyz
  x,y,z
_cell_length_a	16.120530
_cell_length_b	12.827892
_cell_length_c	12.827885
_cell_angle_alpha	89.970214
_cell_angle_beta	92.918515
_cell_angle_gamma	92.888896
loop_
_atom_site_label
_atom_site_type_symbol
_atom_site_fract_x
_atom_site_fract_y
_atom_site_fract_z
Zn1	Zn	1.274617	0.497098	0.671825
Zn2	Zn	1.274533	0.671870	0.497080
Zn3	Zn	1.135195	0.488277	0.488241
Zn4	Zn	1.135183	0.662925	0.662927
O5	O	1.204882	0.580043	0.580018
O6	O	1.391273	0.527718	0.656068
O7	O	1.256019	0.647568	0.349669
O8	O	1.153730	0.343213	0.512619
O9	O	1.391211	0.656122	0.527683
O10	O	1.256163	0.349695	0.647497
O11	O	1.153648	0.512683	0.343176
O12	O	1.018527	0.504008	0.503991
O13	O	1.153710	0.640876	0.810345
O14	O	1.018518	0.632321	0.632332
O15	O	1.256151	0.519044	0.816883
O16	O	1.256007	0.816917	0.519055
O17	O	1.153628	0.810345	0.640902
C18	C	0.988272	0.566238	0.566237
C19	C	0.895605	0.560357	0.560366
C20	C	1.204830	0.851549	0.579997
C21	C	1.204884	0.967706	0.580027
C22	C	1.204939	0.579946	0.852592
C23	C	1.204963	0.579905	0.968747
C24	C	0.725942	0.549596	0.549657
C25	C	0.684662	0.610566	0.610456
C26	C	0.590256	0.604579	0.604497
C27	C	0.820357	0.555582	0.555614
C28	C	1.422338	0.593902	0.593854
C29	C	1.515005	0.599808	0.599750
C30	C	1.204957	0.307477	0.580064
C31	C	1.204989	0.191326	0.580084
C32	C	1.255605	1.022712	0.519808
C33	C	1.255661	1.142766	0.519838
C34	C	1.204873	0.580067	0.308508
C35	C	1.205011	0.579824	0.192364
C36	C	1.255660	0.519606	1.023767
C37	C	1.255686	0.519562	1.143819
H38	H	0.720223	0.667260	0.666985
H39	H	1.299041	0.468011	0.981993
C40	C	0.678639	0.474077	0.474118
C41	C	0.699711	0.498010	0.371990
C42	C	0.656149	0.428461	0.302376
H43	H	0.620557	0.479988	0.479940
H44	H	0.692890	0.404746	0.490342
H45	H	0.685454	0.567324	0.355771
H46	H	0.757785	0.492092	0.366134
H47	H	0.670400	0.359130	0.318600
H48	H	0.598069	0.434378	0.308208
H49	H	0.670446	0.444684	0.233077
C50	C	1.313470	0.450754	1.207066
C51	C	1.301986	0.464361	1.313564
C52	C	1.355194	0.400978	1.371859
H53	H	1.369526	0.469539	1.192920
H54	H	1.301284	0.379732	1.188524
H55	H	1.314177	0.535367	1.332099
H56	H	1.245941	0.445568	1.327741
H57	H	1.343009	0.329956	1.353317
H58	H	1.411247	0.419769	1.357705
H59	H	1.347405	0.410194	1.444124
H60	H	1.298990	0.980928	0.468232
C61	C	1.147269	0.648735	1.129177
C62	C	1.194491	0.718672	1.069492
C63	C	1.141329	0.782159	1.011252
H64	H	1.115459	0.686637	1.175083
H65	H	1.110991	0.606453	1.084234
H66	H	1.230754	0.760948	1.114431
H67	H	1.226299	0.680799	1.023567
H68	H	1.105051	0.739878	0.966308
H69	H	1.109522	0.820054	1.057165
H70	H	1.173361	0.829612	0.970742
C71	C	1.313715	1.205671	0.451160
C72	C	1.396191	1.184297	0.479218
C73	C	1.449700	1.242208	0.415965
H74	H	1.306185	1.278008	0.460246
H75	H	1.301604	1.187099	0.380126
H76	H	1.408298	1.202875	0.550235
H77	H	1.403747	1.111971	0.470127
H78	H	1.437589	1.223636	0.344931
H79	H	1.442163	1.314542	0.425056
H80	H	1.505665	1.227707	0.434987
C81	C	1.147222	1.128236	0.648975
C82	C	1.194416	1.068496	0.718950
C83	C	1.141232	1.010367	0.782437
H84	H	1.110907	1.083330	0.606726
H85	H	1.115453	1.174243	0.686840
H86	H	1.226171	1.022494	0.681089
H87	H	1.230729	1.113377	0.761222
H88	H	1.109463	1.056374	0.820302
H89	H	1.104920	0.965467	0.740180
H90	H	1.173245	0.969834	0.829929
H91	H	1.161506	1.009492	0.631610
H92	H	1.161574	0.631488	1.010520
