data_functionalizedCrystal
_audit_creation_method	'MofGen! by Chris Wilmer'
_symmetry_space_group_name_H-M	'P1'
_symmetry_Int_Tables_number	1
_symmetry_cell_setting	triclinic
loop_
_symmetry_equiv_pos_as_xyz
  x,y,z
_cell_length_a	27.732048
_cell_length_b	14.853567
_cell_length_c	13.930277
_cell_angle_alpha	89.996364
_cell_angle_beta	90.000326
_cell_angle_gamma	96.861207
loop_
_atom_site_label
_atom_site_type_symbol
_atom_site_fract_x
_atom_site_fract_y
_atom_site_fract_z
O1	O	0.063100	-1.195342	0.079776
O2	O	0.563100	-0.695342	0.579776
O3	O	0.070618	-0.932761	0.079793
O4	O	0.570618	-0.432761	0.579793
O5	O	-0.003500	-1.072207	0.079766
O6	O	0.496500	-0.572207	0.579766
O7	O	0.137217	-1.055896	0.079803
O8	O	0.637217	-0.555896	0.579803
O9	O	-0.003488	-1.072186	-0.079896
O10	O	0.496512	-0.572186	0.420104
O11	O	0.070629	-0.932740	-0.079869
O12	O	0.570629	-0.432740	0.420131
O13	O	0.063111	-1.195322	-0.079886
O14	O	0.563111	-0.695322	0.420114
Zn15	Zn	0.066872	-1.064028	-0.105227
Zn16	Zn	0.566872	-0.564028	0.394773
Zn17	Zn	0.066857	-1.064055	0.105134
Zn18	Zn	0.566857	-0.564055	0.605134
O19	O	0.137229	-1.055876	-0.079859
O20	O	0.637229	-0.555876	0.420141
C21	C	0.070283	-0.899167	-0.000036
C22	C	0.570283	-0.399167	0.499964
C23	C	0.069262	-0.799100	-0.000030
C24	C	0.569262	-0.299100	0.499970
C25	C	-0.021503	-1.071854	-0.000068
C26	C	0.478497	-0.571854	0.499932
C27	C	-0.075162	-1.070823	-0.000076
C28	C	0.424838	-0.570823	0.499924
C29	C	0.063446	-1.228915	-0.000055
C30	C	0.563446	-0.728915	0.499945
C31	C	0.064467	-1.328982	-0.000055
C32	C	0.564467	-0.828982	0.499945
C33	C	-0.413622	-1.146736	-0.000032
C34	C	0.086378	-0.646736	0.499968
C35	C	-0.615300	-1.142911	-0.000018
C36	C	-0.115300	-0.642911	0.499982
O37	O	-0.646231	-1.212328	0.000019
O38	O	-0.146231	-0.712328	0.500019
N39	N	-0.634810	-1.060225	-0.000013
N40	N	-0.134810	-0.560225	0.499987
C41	C	-0.603898	-0.978490	-0.000006
C42	C	-0.103898	-0.478490	0.499994
O43	O	-0.625120	-0.908073	0.000008
O44	O	-0.125120	-0.408073	0.500008
C45	C	-0.402221	-0.982316	-0.000013
C46	C	0.097779	-0.482316	0.499987
C47	C	-0.382714	-1.065007	-0.000027
C48	C	0.117286	-0.565007	0.499973
C49	C	-0.394114	-1.229421	-0.000045
C50	C	0.105886	-0.729421	0.499955
C51	C	-0.343698	-1.230376	-0.000054
C52	C	0.156302	-0.730376	0.499946
C53	C	-0.312790	-1.148647	-0.000049
C54	C	0.187210	-0.648647	0.499951
C55	C	-0.332298	-1.065963	-0.000036
C56	C	0.167702	-0.565963	0.499964
C57	C	-0.371310	-0.900582	0.000002
C58	C	0.128690	-0.400582	0.500002
C59	C	-0.320888	-0.901546	0.000003
C60	C	0.179112	-0.401546	0.500003
C61	C	-0.301381	-0.984237	-0.000012
C62	C	0.198619	-0.484237	0.499988
C63	C	-0.250973	-0.985189	-0.000040
C64	C	0.249027	-0.485189	0.499960
N65	N	-0.231462	-1.067875	-0.000044
N66	N	0.268538	-0.567875	0.499956
C67	C	-0.262371	-1.149604	-0.000049
C68	C	0.237629	-0.649604	0.499951
C69	C	-0.709781	-0.976487	-0.000004
C70	C	-0.209781	-0.476487	0.499996
C71	C	-0.760200	-0.975530	-0.000004
C72	C	-0.260200	-0.475530	0.499996
C73	C	-0.771599	-1.139952	-0.000015
C74	C	-0.271599	-0.639952	0.499985
C75	C	-0.721179	-1.140908	-0.000021
C76	C	-0.221179	-0.640908	0.499979
C77	C	-0.690271	-1.059173	-0.000009
C78	C	-0.190271	-0.559173	0.499991
C79	C	-0.156492	-1.151604	-0.000068
C80	C	0.343508	-0.651604	0.499932
C81	C	-0.106071	-1.152552	-0.000081
C82	C	0.393929	-0.652552	0.499919
C83	C	-0.094677	-0.988131	-0.000065
C84	C	0.405323	-0.488131	0.499935
C85	C	-0.145094	-0.987183	-0.000057
C86	C	0.354906	-0.487183	0.499943
C87	C	-0.176001	-1.068926	-0.000056
C88	C	0.323999	-0.568926	0.499944
O89	O	-0.220013	-0.915809	-0.000066
O90	O	0.279987	-0.415809	0.499934
O91	O	-0.241139	-1.220011	-0.000042
O92	O	0.258861	-0.720011	0.499958
C93	C	-0.464039	-1.145781	-0.000023
C94	C	0.035961	-0.645781	0.499977
C95	C	-0.483547	-1.063097	-0.000010
C96	C	0.016453	-0.563097	0.499990
C97	C	-0.452638	-0.981367	-0.000005
C98	C	0.047362	-0.481367	0.499995
C99	C	-0.533966	-1.062140	-0.000010
C100	C	-0.033966	-0.562140	0.499990
C101	C	-0.564874	-1.143869	-0.000014
C102	C	-0.064874	-0.643869	0.499986
C103	C	-0.545364	-1.226555	-0.000019
C104	C	-0.045364	-0.726555	0.499981
C105	C	-0.494947	-1.227510	-0.000028
C106	C	0.005053	-0.727510	0.499972
C107	C	-0.472149	-0.898682	-0.000000
C108	C	0.027851	-0.398682	0.500000
C109	C	-0.522566	-0.897733	0.000007
C110	C	-0.022566	-0.397733	0.500007
C111	C	-0.553474	-0.979462	0.000003
C112	C	-0.053474	-0.479462	0.500003
C113	C	0.155232	-1.056228	-0.000023
C114	C	0.655232	-0.556228	0.499977
C115	C	0.208891	-1.057259	-0.000009
C116	C	0.708891	-0.557259	0.499991
N117	N	0.066882	-1.064016	-0.248793
N118	N	0.566882	-0.564016	0.251207
C119	C	0.020920	-0.387353	-0.000064
C120	C	0.520920	0.112647	0.499936
C121	C	0.108973	-0.364639	-0.000040
C122	C	0.608973	0.135361	0.499960
C123	C	0.109933	-0.458657	-0.000036
C124	C	0.609933	0.041343	0.499964
C125	C	0.066385	-0.517028	-0.000045
C126	C	0.566385	-0.017028	0.499955
C127	C	0.021878	-0.481380	-0.000058
C128	C	0.521878	0.018620	0.499942
C129	C	0.154439	-0.494313	-0.000014
C130	C	0.654439	0.005687	0.499986
C131	C	0.155401	-0.588336	-0.000010
C132	C	0.655401	-0.088336	0.499990
C133	C	0.111853	-0.646708	-0.000026
C134	C	0.611853	-0.146708	0.499974
C135	C	0.067344	-0.611055	-0.000039
C136	C	0.567344	-0.111055	0.499961
C137	C	0.023796	-0.669425	-0.000048
C138	C	0.523796	-0.169425	0.499952
C139	C	-0.020713	-0.633774	-0.000069
C140	C	0.479287	-0.133774	0.499931
C141	C	-0.021670	-0.539752	-0.000074
C142	C	0.478330	-0.039752	0.499926
C143	C	0.112809	-0.740730	-0.000021
C144	C	0.612809	-0.240730	0.499979
C145	C	0.024755	-0.763452	-0.000042
C146	C	0.524755	-0.263452	0.499958
C147	C	0.096218	-1.118333	-0.701048
C148	C	0.596218	-0.618333	-0.201048
C149	C	0.037476	-1.009805	-0.701046
C150	C	0.537476	-0.509805	-0.201046
C151	C	0.037484	-1.009791	-0.600551
C152	C	0.537484	-0.509791	-0.100551
C153	C	0.066859	-1.064050	-0.550299
C154	C	0.566859	-0.564050	-0.050299
C155	C	0.096226	-1.118323	-0.600543
C156	C	0.596226	-0.618323	-0.100543
C157	C	0.008114	-0.955526	-0.550299
C158	C	0.508114	-0.455526	-0.050299
C159	C	0.008120	-0.955511	-0.449797
C160	C	0.508120	-0.455511	0.050203
C161	C	0.037498	-1.009766	-0.399544
C162	C	0.537498	-0.509766	0.100456
C163	C	0.066866	-1.064040	-0.449794
C164	C	0.566866	-0.564040	0.050206
C165	C	0.096241	-1.118299	-0.399542
C166	C	0.596241	-0.618299	0.100458
C167	C	0.125613	-1.172569	-0.449791
C168	C	0.625613	-0.672569	0.050209
C169	C	0.125603	-1.172578	-0.550290
C170	C	0.625603	-0.672578	-0.050290
C171	C	0.037507	-1.009757	-0.299045
C172	C	0.537507	-0.509757	0.200955
C173	C	0.096249	-1.118289	-0.299037
C174	C	0.596249	-0.618289	0.200963
N175	N	0.066843	-1.064074	0.248700
N176	N	0.566843	-0.564074	0.748700
H177	H	-0.090191	-1.219892	-0.000095
H178	H	0.409809	-0.719892	0.499905
H179	H	0.149527	-1.216751	-0.408863
H180	H	0.649527	-0.716751	0.091137
H181	H	-0.181651	-1.218168	-0.000063
H182	H	0.318349	-0.718168	0.499937
H183	H	0.149515	-1.216763	-0.591211
H184	H	0.649515	-0.716763	-0.091211
H185	H	0.149048	-0.769753	-0.000006
H186	H	0.649048	-0.269753	0.499994
H187	H	0.144427	-0.317109	-0.000024
H188	H	0.644427	0.182891	0.499976
H189	H	-0.295725	-0.834986	0.000014
H190	H	0.204275	-0.334986	0.500014
H191	H	-0.015319	-0.358321	-0.000085
H192	H	0.484681	0.141679	0.499915
H193	H	0.189893	-0.446781	0.000003
H194	H	0.689893	0.053219	0.500003
H195	H	0.120133	-1.162516	-0.741965
H196	H	0.620133	-0.662516	-0.241965
H197	H	0.191643	-0.617355	0.000007
H198	H	0.691643	-0.117355	0.500007
H199	H	-0.705300	-1.208242	-0.000032
H200	H	-0.205300	-0.708242	0.499968
H201	H	-0.538443	-0.830391	0.000011
H202	H	-0.038443	-0.330391	0.500011
H203	H	0.013557	-0.965636	-0.741967
H204	H	0.513557	-0.465636	-0.241967
H205	H	0.120172	-1.162469	-0.258129
H206	H	0.620172	-0.662469	0.241871
H207	H	-0.160977	-0.919849	-0.000072
H208	H	0.339023	-0.419849	0.499928
H209	H	-0.015806	-0.911359	-0.591222
H210	H	0.484194	-0.411359	-0.091222
H211	H	-0.015796	-0.911320	-0.408894
H212	H	0.484204	-0.411320	0.091106
H213	H	-0.387184	-0.833246	0.000019
H214	H	0.112816	-0.333246	0.500019
H215	H	-0.069502	-0.921590	-0.000065
H216	H	0.430498	-0.421590	0.499935
H217	H	-0.796773	-1.206499	-0.000019
H218	H	-0.296773	-0.706499	0.499981
H219	H	-0.776078	-0.908195	-0.000009
H220	H	-0.276078	-0.408195	0.499991
H221	H	0.013592	-0.965574	-0.258137
H222	H	0.513592	-0.465574	0.241863
H223	H	-0.327820	-1.297712	-0.000061
H224	H	0.172180	-0.797712	0.499939
H225	H	-0.479069	-1.294846	-0.000039
H226	H	0.020931	-0.794846	0.499961
H227	H	-0.419276	-1.295978	-0.000045
H228	H	0.080724	-0.795978	0.499955
H229	H	-0.056169	-0.681311	-0.000070
H230	H	0.443831	-0.181311	0.499930
H231	H	-0.684620	-0.909925	0.000006
H232	H	-0.184620	-0.409925	0.500006
H233	H	-0.570538	-1.293101	-0.000027
H234	H	-0.070538	-0.793101	0.499973
H235	H	-0.446987	-0.832126	0.000006
H236	H	0.053013	-0.332126	0.500006
H237	H	-0.057907	-0.510716	-0.000113
H238	H	0.442093	-0.010716	0.499887
H239	H	-0.010707	-0.810972	-0.000053
H240	H	0.489293	-0.310972	0.499947
