data_functionalizedCrystal
_audit_creation_method	'MofGen! by Chris Wilmer'
_symmetry_space_group_name_H-M	'P1'
_symmetry_Int_Tables_number	1
_symmetry_cell_setting	triclinic
loop_
_symmetry_equiv_pos_as_xyz
  x,y,z
_cell_length_a	11.026607
_cell_length_b	19.288835
_cell_length_c	9.482900
_cell_angle_alpha	80.736046
_cell_angle_beta	78.599815
_cell_angle_gamma	84.145012
loop_
_atom_site_label
_atom_site_type_symbol
_atom_site_fract_x
_atom_site_fract_y
_atom_site_fract_z
O1	O	0.132006	-0.948990	0.121185
O2	O	0.152460	-0.749315	0.121126
O3	O	-0.034325	-0.832603	0.121145
O4	O	0.318791	-0.865702	0.121166
O5	O	0.003767	-0.815705	-0.120651
O6	O	0.190552	-0.732417	-0.120671
O7	O	0.170098	-0.932091	-0.120611
Cu8	Cu	0.183803	-0.830711	-0.142719
Cu9	Cu	0.138755	-0.850696	0.143234
O10	O	0.356883	-0.848803	-0.120631
C11	C	0.170856	-0.714906	0.000220
C12	C	0.168903	-0.637551	0.000197
C13	C	0.147199	-0.610440	0.132002
C14	C	0.145345	-0.537759	0.132017
C15	C	0.165171	-0.492191	0.000218
C16	C	0.186885	-0.519310	-0.131604
C17	C	0.188751	-0.591990	-0.131615
C18	C	0.107095	-0.366423	-0.100746
C19	C	0.105221	-0.293744	-0.100730
C20	C	0.159423	-0.268020	0.000246
C21	C	0.215480	-0.314984	0.101229
C22	C	0.217346	-0.387665	0.101218
C23	C	0.163151	-0.413380	0.000215
C24	C	0.135709	-0.162100	0.132075
C25	C	0.133863	-0.089418	0.132084
C26	C	0.175392	-0.070969	-0.131540
C27	C	0.177250	-0.143651	-0.131546
C28	C	0.157401	-0.189212	0.000266
C29	C	-0.060455	-0.818048	0.000247
C30	C	-0.195066	-0.799847	0.000247
C31	C	-0.269159	-0.850106	0.000264
C32	C	-0.408286	-0.831295	0.000264
C33	C	0.383013	-0.863359	0.000271
C34	C	0.517622	-0.881561	0.000281
C35	C	0.151712	0.033500	0.000286
C36	C	0.153692	-0.043854	0.000285
N37	N	0.215487	-0.816660	-0.343842
C38	C	0.148094	-0.846546	-0.416034
C39	C	0.174465	-0.834861	-0.583455
N40	N	0.107062	-0.864751	0.344357
H41	H	0.203031	-0.482203	-0.238916
H42	H	0.070868	-0.880779	-0.353898
H43	H	-0.442836	-0.938528	0.000407
O44	O	0.276777	-0.789514	-0.665729
H45	H	0.236959	-0.744506	-0.735120
O46	O	0.048622	-0.394167	-0.209653
H47	H	0.009310	-0.349303	-0.279850
O48	O	0.277819	-0.438321	0.210108
H49	H	0.315209	-0.408229	0.280322
O50	O	0.044772	-0.243091	-0.209646
H51	H	0.007421	-0.273187	-0.279884
O52	O	0.273997	-0.287259	0.210117
H53	H	0.227528	-0.307559	0.321893
H54	H	-0.234634	-0.742892	0.000239
H55	H	0.029832	-0.898987	-0.593511
H56	H	0.206427	-0.614062	-0.238950
O57	O	-0.216767	-0.925553	0.000285
H58	H	-0.115711	-0.928487	0.000273
H59	H	0.194916	-0.165724	-0.238876
H60	H	0.292703	-0.782420	-0.405980
O61	O	-0.460670	-0.755843	0.000232
H62	H	-0.561723	-0.752907	0.000221
O63	O	0.125808	-0.659584	0.274163
H64	H	0.110415	-0.628517	0.365819
H65	H	0.127672	-0.515681	0.239352
H66	H	0.116196	-0.067347	0.239420
O67	O	0.114313	-0.211254	0.274228
H68	H	0.186641	-0.205872	0.337435
O69	O	0.197007	-0.021843	-0.273702
H70	H	0.192141	0.033248	-0.251553
