data_functionalizedCrystal
_audit_creation_method	'MofGen! by Chris Wilmer'
_symmetry_space_group_name_H-M	'P1'
_symmetry_Int_Tables_number	1
_symmetry_cell_setting	triclinic
loop_
_symmetry_equiv_pos_as_xyz
  x,y,z
_cell_length_a	13.897448
_cell_length_b	13.897449
_cell_length_c	19.076919
_cell_angle_alpha	87.717932
_cell_angle_beta	87.727045
_cell_angle_gamma	90.018972
loop_
_atom_site_label
_atom_site_type_symbol
_atom_site_fract_x
_atom_site_fract_y
_atom_site_fract_z
Zn1	Zn	-0.405914	1.452747	0.397937
Zn2	Zn	0.094086	1.952747	0.897937
Zn3	Zn	-0.560740	1.459134	0.280245
Zn4	Zn	-0.060740	1.959134	0.780245
Zn5	Zn	-0.399465	1.297929	0.280258
Zn6	Zn	0.100535	1.797929	0.780258
Zn7	Zn	-0.567170	1.291420	0.397903
Zn8	Zn	-0.067170	1.791420	0.897903
O9	O	-0.483322	1.375308	0.339086
O10	O	0.016678	1.875308	0.839086
O11	O	-0.426460	1.588575	0.382333
O12	O	0.073540	2.088575	0.882333
O13	O	-0.533957	1.443148	0.181758
O14	O	-0.033957	1.943148	0.681758
O15	O	-0.265340	1.318517	0.295887
O16	O	0.234660	1.818517	0.795887
O17	O	-0.540210	1.593268	0.295866
O18	O	-0.040210	2.093268	0.795866
O19	O	-0.270078	1.432261	0.382345
O20	O	0.229922	1.932261	0.882345
O21	O	-0.415468	1.324710	0.181767
O22	O	0.084532	1.824710	0.681767
O23	O	-0.421704	1.162084	0.295855
O24	O	0.078296	1.662084	0.795855
O25	O	-0.551169	1.307423	0.496397
O26	O	-0.051169	1.807423	0.996397
O27	O	-0.544916	1.157302	0.382288
O28	O	-0.044916	1.657302	0.882288
O29	O	-0.432695	1.425949	0.496421
O30	O	0.067305	1.925949	0.996421
O31	O	-0.696574	1.436836	0.295834
O32	O	-0.196574	1.936836	0.795834
O33	O	-0.701298	1.313617	0.382276
O34	O	-0.201298	1.813617	0.882276
C35	C	-0.483309	1.124694	0.339070
C36	C	0.016691	1.624694	0.839070
C37	C	-0.483327	1.017480	0.339079
C38	C	0.016673	1.517480	0.839079
C39	C	-0.733936	1.375238	0.339065
C40	C	-0.233936	1.875238	0.839065
C41	C	-0.841150	1.375296	0.339080
C42	C	-0.341150	1.875296	0.839080
C43	C	-0.483331	0.821183	0.339098
C44	C	0.016669	1.321183	0.839098
C45	C	-0.483326	0.930417	0.339086
C46	C	0.016674	1.430417	0.839086
C47	C	-1.037448	1.375394	0.339124
C48	C	-0.537448	1.875394	0.839124
C49	C	-0.928214	1.375337	0.339102
C50	C	-0.428214	1.875337	0.839102
C51	C	-0.231731	1.375403	0.339121
C52	C	0.268269	1.875403	0.839121
C53	C	-0.124518	1.375443	0.339137
C54	C	0.375482	1.875443	0.839137
C55	C	-0.493369	1.365248	0.522660
C56	C	0.006631	1.865248	1.022660
C57	C	-0.497650	1.360961	0.600889
C58	C	0.002350	1.860961	1.100889
C59	C	-0.483337	1.626900	0.339102
C60	C	0.016663	2.126900	0.839102
C61	C	-0.483343	1.734113	0.339109
C62	C	0.016657	2.234113	0.839109
C63	C	-0.473245	1.385384	0.156225
C64	C	0.026755	1.885384	0.656225
C65	C	-0.468692	1.389858	0.077997
C66	C	0.031308	1.889858	0.577997
C67	C	-0.437981	1.420654	0.637655
C68	C	0.062019	1.920654	1.137655
C69	C	-0.442000	1.416614	0.711159
C70	C	0.058000	1.916614	1.211159
C71	C	-0.505693	1.352885	0.747895
C72	C	-0.005693	1.852885	1.247895
C73	C	-0.565365	1.293185	0.711124
C74	C	-0.065365	1.793185	1.211124
C75	C	-0.561341	1.297221	0.637622
C76	C	-0.061341	1.797221	1.137622
C77	C	-0.524339	1.334194	0.967723
C78	C	-0.024339	1.834194	1.467723
C79	C	-0.528362	1.330165	1.041231
C80	C	-0.028362	1.830165	1.541231
C81	C	-0.404994	1.453592	1.041260
C82	C	0.095006	1.953592	1.541260
C83	C	-0.400980	1.457626	0.967756
C84	C	0.099020	1.957626	1.467756
C85	C	-0.460648	1.397923	0.930992
C86	C	0.039352	1.897923	1.430992
N87	N	-0.509805	1.348756	0.823028
N88	N	-0.009805	1.848756	1.323028
N89	N	-0.456530	1.402048	0.855860
N90	N	0.043470	1.902048	1.355860
H91	H	-0.393413	1.465225	0.741090
H92	H	0.106587	1.965225	1.241090
O93	O	-0.619171	1.239136	0.601878
O94	O	-0.119171	1.739136	1.101878
C95	C	-0.561929	1.179203	0.559348
C96	C	-0.061929	1.679203	1.059348
H97	H	-0.487169	1.172057	0.581506
H98	H	0.012831	1.672057	1.081506
H99	H	-0.596768	1.105004	0.558505
H100	H	-0.096768	1.605004	1.058505
H101	H	-0.555563	1.212081	0.503645
H102	H	-0.055563	1.712081	1.003645
H103	H	-0.572940	1.285593	0.937798
H104	H	-0.072940	1.785593	1.437798
H105	H	-0.349116	1.509524	0.937850
H106	H	0.150884	2.009524	1.437850
H107	H	-0.617222	1.241292	0.741041
H108	H	-0.117222	1.741292	1.241041
H109	H	-0.580231	1.278266	1.071140
H110	H	-0.080231	1.778266	1.571140
H111	H	-0.386117	1.472552	0.607749
H112	H	0.113883	1.972552	1.107749
O113	O	-0.347067	1.511481	1.077083
O114	O	0.152933	2.011481	1.577083
C115	C	-0.364290	1.494274	1.149836
C116	C	0.135710	1.994274	1.649836
H117	H	-0.396429	1.419273	1.159863
H118	H	0.103571	1.919273	1.659863
H119	H	-0.293567	1.499308	1.177781
H120	H	0.206433	1.999308	1.677781
H121	H	-0.416798	1.550327	1.170694
H122	H	0.083202	2.050327	1.670694
