data_functionalizedCrystal
_audit_creation_method	'MofGen! by Chris Wilmer'
_symmetry_space_group_name_H-M	'P1'
_symmetry_Int_Tables_number	1
_symmetry_cell_setting	triclinic
loop_
_symmetry_equiv_pos_as_xyz
  x,y,z
_cell_length_a	12.477989
_cell_length_b	12.970454
_cell_length_c	12.970454
_cell_angle_alpha	59.999776
_cell_angle_beta	89.999838
_cell_angle_gamma	64.369314
loop_
_atom_site_label
_atom_site_type_symbol
_atom_site_fract_x
_atom_site_fract_y
_atom_site_fract_z
Zr1	Zr	0.973043	1.250762	-0.196424
O2	O	0.811765	1.445590	-0.350919
O3	O	1.022484	1.041882	-0.149063
O4	O	1.022486	1.256972	-0.364154
O5	O	0.811762	1.230501	0.033839
O6	O	1.188706	1.277854	-0.374595
O7	O	0.811763	1.230501	-0.135828
O8	O	1.188703	0.893097	0.010164
O9	O	0.811765	1.615258	-0.350920
O10	O	1.167618	1.148585	-0.136656
O11	O	1.043569	1.133002	-0.002244
O12	O	1.043571	1.386242	-0.255486
O13	O	0.919522	1.370659	-0.121074
Zr14	Zr	1.238144	1.284067	0.057522
Zr15	Zr	1.238146	1.284066	-0.213076
Zr16	Zr	0.973042	1.250763	0.074174
Zr17	Zr	0.973044	1.521361	-0.196426
Zr18	Zr	1.238144	1.013467	0.057524
O19	O	1.188703	1.492946	0.010161
O20	O	1.188706	1.492945	-0.374596
O21	O	0.811762	1.445592	0.033837
O22	O	1.399423	1.089238	0.212017
O23	O	1.399425	1.089236	-0.172740
O24	O	1.022481	1.041884	0.235694
O25	O	1.399425	1.304327	-0.172741
O26	O	1.188702	1.277857	0.225252
O27	O	1.022481	1.256975	0.235692
O28	O	1.399424	1.304328	-0.003074
O29	O	1.022486	1.641730	-0.364156
O30	O	1.188702	0.893098	0.225254
O31	O	1.399423	0.919571	0.212018
O32	O	1.399424	0.919570	-0.003072
O33	O	0.811763	1.615259	-0.135830
O34	O	1.022484	1.641731	-0.149066
O35	O	1.167617	1.148586	0.116584
O36	O	1.291666	1.164170	-0.017828
O37	O	1.167618	1.401827	-0.136658
O38	O	1.043569	1.386243	-0.002246
C39	C	1.105594	0.928935	-0.069449
C40	C	1.105594	0.814058	-0.069449
C41	C	0.773991	1.225756	-0.048622
C42	C	0.661448	1.211617	-0.041553
C43	C	1.437196	1.309073	-0.090280
C44	C	1.549739	1.323211	-0.097349
C45	C	1.105596	1.267413	-0.407929
C46	C	1.105597	1.267412	-0.522805
C47	C	1.105594	1.605894	-0.069453
C48	C	1.105594	1.720770	-0.069453
C49	C	1.105591	1.267416	0.269027
C50	C	1.105591	1.267416	0.383903
C51	C	1.437196	0.970594	-0.090278
C52	C	1.549739	0.869855	-0.097347
C53	C	1.105591	0.928937	0.269028
C54	C	1.105591	0.814060	0.383905
C55	C	1.437194	0.970595	0.248199
C56	C	1.549736	0.869857	0.356007
C57	C	0.773994	1.564234	-0.387102
C58	C	0.661451	1.664971	-0.494909
C59	C	0.773991	1.564235	-0.048624
C60	C	0.661448	1.664973	-0.041555
C61	C	1.105596	1.605892	-0.407930
C62	C	1.105597	1.720768	-0.522807
C63	C	1.537839	0.814413	-0.162705
C64	C	1.643575	0.719772	-0.169371
C65	C	1.761210	0.680569	-0.110671
C66	C	1.773107	0.736022	-0.045311
C67	C	1.667373	0.830668	-0.038653
C68	C	1.667351	0.830686	0.336472
C69	C	1.773106	0.736048	0.437758
C70	C	1.761244	0.680577	0.558578
C71	C	1.643617	0.719757	0.578111
C72	C	1.537864	0.814401	0.476826
C73	C	0.543837	1.704156	-0.475374
C74	C	0.438082	1.798827	-0.576660
C75	C	0.449943	1.854304	-0.697480
C76	C	0.567570	1.815117	-0.717013
C77	C	0.673323	1.720454	-0.615728
C78	C	0.673349	1.720427	0.023791
C79	C	0.567613	1.815098	0.030428
C80	C	0.449978	1.854305	-0.028276
C81	C	0.438080	1.798847	-0.093631
C82	C	0.543815	1.704186	-0.100274
H83	H	0.540199	1.429568	-0.150535
H84	H	1.442064	0.846331	-0.210522
Br85	Br	0.677358	1.034332	0.047080
H86	H	1.633863	0.674632	-0.222593
Br87	Br	0.527704	1.628881	-0.311416
H88	H	1.868900	0.704088	0.002479
H89	H	1.677079	0.875798	0.014576
Br90	Br	1.904696	0.552117	-0.119719
Br91	Br	1.904780	0.552132	0.696024
H92	H	1.677032	0.875838	0.238103
H93	H	0.769123	1.688512	0.071604
H94	H	1.633977	0.674579	0.676495
H95	H	1.868873	0.704157	0.421832
Br96	Br	0.306492	1.982777	-0.019248
Br97	Br	1.378248	0.867544	0.503360
H98	H	0.342315	1.830716	-0.560732
Br99	Br	0.278423	1.852067	-0.173290
Br100	Br	0.306408	1.982775	-0.834926
Br101	Br	0.832939	1.667280	-0.642263
Br102	Br	0.527642	1.628930	-0.188960
H103	H	0.577214	1.860298	-0.815396
H104	H	0.577324	1.860237	0.083651
