data_functionalizedCrystal
_audit_creation_method	'MofGen! by Chris Wilmer'
_symmetry_space_group_name_H-M	'P1'
_symmetry_Int_Tables_number	1
_symmetry_cell_setting	triclinic
loop_
_symmetry_equiv_pos_as_xyz
  x,y,z
_cell_length_a	14.853558
_cell_length_b	13.339070
_cell_length_c	11.804365
_cell_angle_alpha	105.112168
_cell_angle_beta	101.863374
_cell_angle_gamma	80.369736
loop_
_atom_site_label
_atom_site_type_symbol
_atom_site_fract_x
_atom_site_fract_y
_atom_site_fract_z
O1	O	1.242364	-0.111678	0.098987
O2	O	0.983826	-0.127425	0.098997
O3	O	1.083423	0.027752	0.098989
O4	O	1.142767	-0.266855	0.098994
O5	O	1.057193	-0.013059	-0.099065
O6	O	0.957596	-0.168236	-0.099058
O7	O	1.216134	-0.152489	-0.099067
Cu8	Cu	1.084470	-0.164089	-0.117146
Cu9	Cu	1.115490	-0.115825	0.117076
O10	O	1.116537	-0.307666	-0.099060
C11	C	1.060284	0.045050	-0.000036
C12	C	1.030404	0.157394	-0.000030
C13	C	0.936945	-0.147118	-0.000029
C14	C	0.836330	-0.144984	-0.000025
C15	C	1.263015	-0.132795	-0.000039
C16	C	1.363631	-0.134928	-0.000034
C17	C	1.425195	-0.113681	0.107930
C18	C	1.396611	-0.158187	-0.107996
C19	C	1.491145	-0.160197	-0.107996
C20	C	1.552709	-0.138950	-0.000032
C21	C	1.519739	-0.115693	0.107933
C22	C	1.524124	-0.183463	-0.215959
C23	C	1.618664	-0.185475	-0.215964
C24	C	1.680228	-0.164221	-0.107998
C25	C	1.647253	-0.140962	-0.000028
C26	C	1.708816	-0.119715	0.107936
C27	C	1.675842	-0.096449	0.215907
C28	C	1.581303	-0.094439	0.215899
C29	C	1.774767	-0.166231	-0.107990
C30	C	1.803360	-0.121727	0.107939
C31	C	1.139677	-0.324963	-0.000032
C32	C	1.169557	-0.437306	-0.000030
N33	N	1.062658	-0.198034	-0.281885
C34	C	1.262735	0.521867	-0.000039
C35	C	1.290810	0.416313	-0.000051
C36	C	1.225711	0.351578	-0.000045
C37	C	1.132532	0.392407	-0.000028
C38	C	1.104453	0.497969	-0.000025
C39	C	1.067429	0.327681	-0.000032
C40	C	0.974250	0.368510	-0.000015
C41	C	0.946176	0.474062	-0.000011
C42	C	1.011275	0.538797	-0.000017
C43	C	1.095508	0.222119	-0.000035
C44	C	0.937226	0.198221	-0.000021
C45	C	0.909151	0.303775	-0.000009
C46	C	1.189680	-0.000337	-0.655843
C47	C	1.206178	0.025347	-0.531183
C48	C	1.170299	-0.030496	-0.468852
C49	C	1.117920	-0.112028	-0.531194
C50	C	1.101426	-0.137720	-0.655867
C51	C	1.082045	-0.167879	-0.468876
C52	C	1.029666	-0.249410	-0.531218
C53	C	1.013174	-0.275097	-0.655879
C54	C	1.049053	-0.219254	-0.718209
C55	C	1.098539	-0.142187	-0.344203
C56	C	1.010286	-0.279569	-0.344227
C57	C	0.993787	-0.305253	-0.468888
N58	N	1.137307	-0.081872	0.281815
H59	H	1.853480	-0.104422	0.195859
H60	H	0.884216	0.145512	-0.000022
H61	H	1.725980	-0.079157	0.303811
H62	H	0.988421	0.624749	-0.000002
Cl63	Cl	1.234789	0.069849	-0.734202
Cl64	Cl	1.164384	-0.039693	-0.265846
H65	H	1.398342	-0.094734	0.195837
H66	H	1.554446	-0.075496	0.303803
Cl67	Cl	1.319218	-0.184907	-0.243715
H68	H	1.171375	0.188887	-0.000049
Cl69	Cl	0.829034	0.525383	-0.000006
H70	H	1.248826	0.091728	-0.480428
H71	H	1.473994	-0.200768	-0.303858
Cl72	Cl	0.792015	0.355116	0.000015
Cl73	Cl	1.261009	0.218882	-0.000054
Cl74	Cl	1.660109	-0.214720	-0.351695
H75	H	1.315727	0.574580	-0.000053
Cl76	Cl	1.816219	-0.195485	-0.243713
H77	H	1.366676	0.383078	-0.000067
H78	H	1.183735	-0.009580	-0.367348
Cl79	Cl	1.028307	-0.251540	-0.874932
H80	H	0.970533	-0.341493	-0.706638
Cl81	Cl	0.927941	-0.407749	-0.547273
H82	H	0.981072	-0.325044	-0.293479
