data_functionalizedCrystal
_audit_creation_method	'MofGen! by Chris Wilmer'
_symmetry_space_group_name_H-M	'P1'
_symmetry_Int_Tables_number	1
_symmetry_cell_setting	triclinic
loop_
_symmetry_equiv_pos_as_xyz
  x,y,z
_cell_length_a	6.817900
_cell_length_b	15.300912
_cell_length_c	17.110486
_cell_angle_alpha	96.161319
_cell_angle_beta	99.060439
_cell_angle_gamma	104.173621
loop_
_atom_site_label
_atom_site_type_symbol
_atom_site_fract_x
_atom_site_fract_y
_atom_site_fract_z
V1	V	-3.980308	-0.124489	-0.246960
O2	O	-3.965202	0.006259	-0.242012
O3	O	-3.935513	-0.247107	-0.245508
O4	O	-3.910110	-0.122453	-0.354559
O5	O	-3.990780	-0.119259	-0.132206
V6	V	-4.466294	-0.108865	-0.233205
O7	O	-4.236165	-0.158763	-0.277131
O8	O	-4.660634	-0.074591	-0.203034
O9	O	-4.287883	0.013753	-0.234657
O10	O	-4.598797	-0.239613	-0.238153
O11	O	-4.573218	-0.114096	-0.347959
O12	O	-4.313285	-0.110901	-0.125606
C13	C	-3.782096	-0.277003	-0.241674
C14	C	-3.826612	-0.377244	-0.241204
C15	C	-4.199881	-0.813607	-0.243140
C16	C	-4.158036	-0.719418	-0.243576
C17	C	-3.955674	-0.667742	-0.239841
C18	C	-3.795145	-0.710257	-0.235662
C19	C	-3.836989	-0.804443	-0.235221
C20	C	-3.707942	-0.513945	-0.236585
C21	C	-3.666094	-0.419753	-0.237028
C22	C	-4.028989	-0.428920	-0.244940
C23	C	-4.070833	-0.523106	-0.244498
C24	C	-3.910300	-0.565615	-0.240321
C25	C	-3.749691	-0.117993	-0.380778
C26	C	-3.773604	-0.117140	-0.468742
C27	C	-3.966258	-0.121239	-0.514108
C28	C	-3.988714	-0.120436	-0.596760
C29	C	-3.818518	-0.115541	-0.634045
C30	C	-3.625848	-0.111439	-0.588673
C31	C	-3.603391	-0.112235	-0.506022
C32	C	-3.877245	-0.112907	-0.883395
C33	C	-3.899719	-0.112114	-0.966052
C34	C	-4.262584	-0.121110	-0.974133
C35	C	-4.240112	-0.121911	-0.891481
C36	C	-4.047443	-0.117804	-0.846115
C37	C	-3.841469	-0.114724	-0.718528
C38	C	-4.024491	-0.118615	-0.761632
C39	C	-4.104642	0.043644	-0.238489
C40	C	-4.039363	0.143884	-0.238964
C41	C	-4.137047	-0.115364	-0.099383
C42	C	-4.092373	-0.116213	-0.011418
H43	H	-4.104857	-0.125231	-0.483757
H44	H	-4.145587	-0.123769	-0.633692
C45	C	-3.531345	-0.560703	-0.231992
N46	N	-3.398338	-0.595923	-0.228539
C47	C	-3.665316	-0.108409	-0.833506
N48	N	-3.505683	-0.105027	-0.795928
C49	C	-4.474504	-0.125616	-1.024040
N50	N	-4.634128	-0.129005	-1.061630
H51	H	-3.630373	-0.668174	-0.232616
H52	H	-4.288751	-0.684812	-0.246980
H53	H	-3.702901	-0.110741	-0.748896
C54	C	-4.205574	-0.382158	-0.249530
N55	N	-4.338571	-0.346932	-0.252989
C56	C	-4.422493	-0.870442	-0.247248
N57	N	-4.590168	-0.913247	-0.250339
H58	H	-3.446503	-0.108874	-0.469082
C59	C	-3.438584	-0.105958	-0.629676
N60	N	-3.297517	-0.101799	-0.660555
H61	H	-3.761113	-0.108124	-0.996407
H62	H	-3.501318	-0.377681	-0.233990
H63	H	-4.235613	-0.565180	-0.247545
H64	H	-4.163061	-0.122598	-0.731271
H65	H	-3.706279	-0.839054	-0.231827
H66	H	-4.378708	-0.125896	-0.861129
