data_functionalizedCrystal
_audit_creation_method	'MofGen! by Chris Wilmer'
_symmetry_space_group_name_H-M	'P1'
_symmetry_Int_Tables_number	1
_symmetry_cell_setting	triclinic
loop_
_symmetry_equiv_pos_as_xyz
  x,y,z
_cell_length_a	14.908571
_cell_length_b	16.959454
_cell_length_c	14.908308
_cell_angle_alpha	86.730321
_cell_angle_beta	89.824947
_cell_angle_gamma	86.716421
loop_
_atom_site_label
_atom_site_type_symbol
_atom_site_fract_x
_atom_site_fract_y
_atom_site_fract_z
Zn1	Zn	1.345297	-0.412496	0.587603
Zn2	Zn	1.845297	0.087504	1.087603
Zn3	Zn	1.353878	-0.537521	0.437249
Zn4	Zn	1.853878	-0.037521	0.937249
Zn5	Zn	1.203612	-0.397314	0.428600
Zn6	Zn	1.703612	0.102686	0.928600
Zn7	Zn	1.194906	-0.536582	0.578901
Zn8	Zn	1.694906	-0.036582	1.078901
O9	O	1.274423	-0.470978	0.508088
O10	O	1.774423	0.029022	1.008088
O11	O	1.472261	-0.435828	0.574920
O12	O	1.972261	0.064172	1.074920
O13	O	1.341180	-0.512961	0.310277
O14	O	1.841180	-0.012961	0.810277
O15	O	1.222460	-0.288721	0.449714
O16	O	1.722460	0.211279	0.949714
O17	O	1.478566	-0.527683	0.464456
O18	O	1.978566	-0.027683	0.964456
O19	O	1.326555	-0.299875	0.566532
O20	O	1.826555	0.200125	1.066532
O21	O	1.230780	-0.409952	0.303922
O22	O	1.730780	0.090048	0.803922
O23	O	1.076631	-0.409042	0.441276
O24	O	1.576631	0.090958	0.941276
O25	O	1.207621	-0.526082	0.705880
O26	O	1.707621	-0.026082	1.205880
O27	O	1.070235	-0.511361	0.551701
O28	O	1.570235	-0.011361	1.051701
O29	O	1.318113	-0.434917	0.712273
O30	O	1.818113	0.065083	1.212273
O31	O	1.332737	-0.648003	0.456018
O32	O	1.832737	-0.148003	0.956018
O33	O	1.215941	-0.647313	0.560089
O34	O	1.715941	-0.147313	1.060089
C35	C	1.040808	-0.458452	0.494606
C36	C	1.540808	0.041548	0.994606
C37	C	0.940865	-0.453114	0.488860
C38	C	1.440865	0.046886	0.988860
C39	C	0.746458	-0.549777	0.592894
C40	C	1.246458	-0.049777	1.092894
C41	C	0.652552	-0.544763	0.587498
C42	C	1.152552	-0.044763	1.087498
C43	C	0.659146	-0.438070	0.472677
C44	C	1.159146	0.061930	0.972677
C45	C	0.753052	-0.443084	0.478073
C46	C	1.253052	0.056916	0.978073
C47	C	0.796704	-0.498940	0.538183
C48	C	1.296704	0.001060	1.038183
C49	C	0.890612	-0.503956	0.543574
C50	C	1.390612	-0.003956	1.043574
C51	C	0.897204	-0.397260	0.428758
C52	C	1.397204	0.102740	0.928758
C53	C	0.803298	-0.392247	0.423362
C54	C	1.303298	0.107753	0.923362
C55	C	1.274349	-0.676340	0.508068
C56	C	1.774349	-0.176340	1.008068
C57	C	1.274398	-0.764200	0.508095
C58	C	1.774398	-0.264200	1.008095
C59	C	1.213691	-1.135352	0.562276
C60	C	1.713691	-0.635352	1.062276
C61	C	1.335401	-1.136020	0.454006
C62	C	1.835401	-0.636020	0.954006
C63	C	1.335370	-1.053472	0.453996
C64	C	1.835370	-0.553472	0.953996
C65	C	1.274498	-1.011860	0.508126
C66	C	1.774498	-0.511860	1.008126
C67	C	1.213657	-1.052796	0.562266
C68	C	1.713657	-0.552796	1.062266
C69	C	1.396203	-1.012529	0.399850
C70	C	1.896203	-0.512529	0.899850
C71	C	1.396174	-0.929976	0.399837
C72	C	1.896174	-0.429976	0.899837
C73	C	1.335306	-0.888363	0.453972
C74	C	1.835306	-0.388363	0.953972
C75	C	1.274463	-0.929304	0.508115
C76	C	1.774463	-0.429304	1.008115
C77	C	1.213591	-0.887692	0.562245
C78	C	1.713591	-0.387692	1.062245
C79	C	1.152752	-0.928632	0.616394
C80	C	1.652752	-0.428632	1.116394
C81	C	1.152788	-1.011183	0.616402
C82	C	1.652788	-0.511183	1.116402
C83	C	1.335269	-0.805812	0.453965
C84	C	1.835269	-0.305812	0.953965
C85	C	1.213557	-0.805136	0.562235
C86	C	1.713557	-0.305136	1.062235
C87	C	1.508951	-0.483554	0.521623
C88	C	2.008951	0.016446	1.021623
C89	C	1.608893	-0.488913	0.527391
C90	C	2.108893	0.011087	1.027391
C91	C	1.260938	-0.482089	0.742614
C92	C	1.760938	0.017911	1.242614
C93	C	1.255192	-0.486823	0.842555
C94	C	1.755192	0.013177	1.342555
C95	C	1.274521	-0.264817	0.508129
C96	C	1.774521	0.235183	1.008129
C97	C	1.274563	-0.176963	0.508146
C98	C	1.774563	0.323037	1.008146
C99	C	1.287908	-0.459857	0.274478
C100	C	1.787908	0.040143	0.774478
C101	C	1.293828	-0.454909	0.174547
C102	C	1.793828	0.045091	0.674547
C103	C	1.359446	-0.400771	1.037013
C104	C	1.859446	0.099229	1.537013
C105	C	1.354049	-0.405217	1.130917
C106	C	1.854049	0.094783	1.630917
C107	C	1.238998	-0.500156	1.124267
C108	C	1.738998	-0.000156	1.624267
C109	C	1.244395	-0.495710	1.030364
C110	C	1.744395	0.004290	1.530364
C111	C	1.304622	-0.446017	0.986740
C112	C	1.804622	0.053983	1.486740
C113	C	1.310022	-0.441576	0.892835
C114	C	1.810022	0.058424	1.392835
C115	C	1.194967	-0.536510	0.886187
C116	C	1.694967	-0.036510	1.386187
C117	C	1.189570	-0.540956	0.980090
C118	C	1.689570	-0.040956	1.480090
H119	H	0.938125	-0.355866	0.384206
H120	H	1.438125	0.144134	0.884206
Br121	Br	1.478746	-0.874422	0.326359
Br122	Br	1.978746	-0.374422	0.826359
H123	H	0.782000	-0.595261	0.641833
H124	H	1.282000	-0.095261	1.141833
H125	H	0.767743	-0.346769	0.374425
H126	H	1.267743	0.153231	0.874425
H127	H	1.398691	-0.368371	1.171846
H128	H	1.898691	0.131629	1.671846
H129	H	0.611645	-0.586159	0.632051
H130	H	1.111645	-0.086159	1.132051
Br131	Br	1.107835	-0.608391	1.039301
Br132	Br	1.607835	-0.108391	1.539301
Br133	Br	1.441192	-0.333345	0.977806
Br134	Br	1.941192	0.166655	1.477806
H135	H	1.384955	-1.169904	0.409930
H136	H	1.884955	-0.669904	0.909930
H137	H	0.623587	-0.392590	0.423745
H138	H	1.123587	0.107410	0.923745
Br139	Br	1.131134	-1.190910	0.635767
Br140	Br	1.631134	-0.690910	1.135767
H141	H	1.445756	-1.046415	0.355773
H142	H	1.945756	-0.546415	0.855773
H143	H	0.926152	-0.549438	0.592516
H144	H	1.426152	-0.049438	1.092516
H145	H	1.163990	-0.771261	0.606318
H146	H	1.663990	-0.271261	1.106318
Br147	Br	1.070137	-0.872149	0.689846
Br148	Br	1.570137	-0.372149	1.189846
Br149	Br	1.070229	-1.066748	0.689882
Br150	Br	1.570229	-0.566748	1.189882
H151	H	1.384800	-0.772482	0.409873
H152	H	1.884800	-0.272482	0.909873
Br153	Br	1.391761	-0.374140	0.833632
Br154	Br	1.891761	0.125860	1.333632
H155	H	1.189964	-0.540614	1.159802
H156	H	1.689964	-0.040614	1.659802
Br157	Br	1.120571	-0.597932	0.817955
Br158	Br	1.620571	-0.097932	1.317955
