data_functionalizedCrystal
_audit_creation_method	'MofGen! by Chris Wilmer'
_symmetry_space_group_name_H-M	'P1'
_symmetry_Int_Tables_number	1
_symmetry_cell_setting	triclinic
loop_
_symmetry_equiv_pos_as_xyz
  x,y,z
_cell_length_a	13.339070
_cell_length_b	10.654550
_cell_length_c	9.130313
_cell_angle_alpha	89.996249
_cell_angle_beta	90.003238
_cell_angle_gamma	79.942888
loop_
_atom_site_label
_atom_site_type_symbol
_atom_site_fract_x
_atom_site_fract_y
_atom_site_fract_z
O1	O	1.346708	-0.631120	0.121851
O2	O	1.051600	-0.548281	0.121843
O3	O	1.205939	-0.409252	0.121838
O4	O	1.192369	-0.770149	0.121856
O5	O	1.205931	-0.409246	-0.121761
O6	O	1.051591	-0.548275	-0.121756
O7	O	1.346700	-0.631113	-0.121748
Cu8	Cu	1.199145	-0.589693	-0.143994
Cu9	Cu	1.199155	-0.589701	0.144089
O10	O	1.192360	-0.770142	-0.121743
C11	C	1.013808	-0.534285	0.000042
C12	C	0.901214	-0.492575	0.000039
N13	N	1.199145	-0.589690	-0.346617
C14	C	1.204938	-0.362115	0.000039
C15	C	1.201957	-0.221665	0.000041
C16	C	0.538696	-0.816889	0.000078
C17	C	0.644484	-0.856082	0.000086
C18	C	0.708672	-0.765208	0.000074
C19	C	0.667061	-0.635136	0.000054
C20	C	0.561263	-0.595939	0.000058
C21	C	0.731238	-0.544259	0.000054
C22	C	0.689628	-0.414186	0.000034
C23	C	0.583840	-0.374996	0.000037
C24	C	0.519653	-0.465870	0.000049
C25	C	0.837036	-0.583455	0.000050
C26	C	0.859603	-0.362505	0.000030
C27	C	0.753816	-0.323313	0.000022
C28	C	1.384491	-0.645110	0.000056
C29	C	1.497086	-0.686819	0.000069
C30	C	1.193361	-0.817280	0.000059
C31	C	1.196342	-0.957730	0.000066
C32	C	1.292830	-0.172863	0.000045
C33	C	1.290023	-0.040894	0.000062
C34	C	1.105463	-0.006540	0.000068
C35	C	1.108271	-0.138506	0.000060
C36	C	1.267514	-0.528169	-0.576618
C37	C	1.267508	-0.528169	-0.423281
C38	C	1.130790	-0.651226	-0.423298
C39	C	1.130802	-0.651234	-0.576632
N40	N	1.199163	-0.589698	0.346712
H41	H	0.870905	-0.689361	0.000060
H42	H	0.794808	-0.797127	0.000083
H43	H	0.549965	-0.269083	0.000038
Cl44	Cl	1.404268	0.020451	0.000069
H45	H	1.034267	-0.178239	0.000062
Cl46	Cl	0.696787	-1.019593	0.000116
H47	H	1.075131	-0.701326	-0.360869
H48	H	0.433511	-0.433965	0.000042
H49	H	1.323179	-0.478065	-0.639027
H50	H	1.075141	-0.701344	-0.639061
H51	H	1.323167	-0.478068	-0.360860
H52	H	0.719921	-0.217405	0.000019
Cl53	Cl	1.410607	-0.277400	0.000024
Cl54	Cl	0.987692	0.098010	0.000091
Cl55	Cl	0.940289	-0.248256	0.000026
H56	H	0.486426	-0.890864	0.000101
