data_functionalizedCrystal
_audit_creation_method	'MofGen! by Chris Wilmer'
_symmetry_space_group_name_H-M	'P1'
_symmetry_Int_Tables_number	1
_symmetry_cell_setting	triclinic
loop_
_symmetry_equiv_pos_as_xyz
  x,y,z
_cell_length_a	16.109301
_cell_length_b	10.868271
_cell_length_c	16.109301
_cell_angle_alpha	90.006558
_cell_angle_beta	83.461481
_cell_angle_gamma	90.001598
loop_
_atom_site_label
_atom_site_type_symbol
_atom_site_fract_x
_atom_site_fract_y
_atom_site_fract_z
O1	O	1.103132	0.102248	0.106868
O2	O	1.603132	0.602248	0.606868
O3	O	0.861070	0.102268	0.120167
O4	O	1.361070	0.602268	0.620167
O5	O	0.988750	0.102245	-0.007514
O6	O	1.488750	0.602245	0.492486
O7	O	0.975451	0.102271	0.234548
O8	O	1.475451	0.602271	0.734548
O9	O	0.988740	-0.102399	-0.007519
O10	O	1.488740	0.397601	0.492481
O11	O	0.861059	-0.102376	0.120162
O12	O	1.361059	0.397624	0.620162
O13	O	1.103121	-0.102396	0.106863
O14	O	1.603121	0.397604	0.606863
Zn15	Zn	0.982088	-0.134878	0.113512
Zn16	Zn	1.482088	0.365122	0.613512
Zn17	Zn	0.982102	0.134750	0.113518
Zn18	Zn	1.482102	0.634750	0.613518
O19	O	0.975440	-0.102373	0.234543
O20	O	1.475440	0.397627	0.734543
C21	C	0.830090	-0.000051	0.119626
C22	C	1.330090	0.499949	0.619626
C23	C	0.737794	-0.000044	0.118011
C24	C	1.237794	0.499956	0.618011
N25	N	0.982085	-0.318892	0.113507
N26	N	1.482085	0.181108	0.613507
C27	C	0.515522	-0.000051	0.190018
C28	C	1.015522	0.499949	0.690018
C29	C	0.428801	-0.000059	0.188494
C30	C	0.928801	0.499941	0.688494
C31	C	0.448676	-0.000070	0.037006
C32	C	0.948676	0.499930	0.537006
C33	C	0.535394	-0.000071	0.038530
C34	C	1.035394	0.499929	0.538530
C35	C	0.568815	-0.000055	0.115039
C36	C	1.068815	0.499945	0.615039
C37	C	0.395376	-0.000062	0.111990
C38	C	0.895376	0.499938	0.611990
C39	C	0.301350	-0.000071	0.110337
C40	C	0.801350	0.499929	0.610337
C41	C	0.662847	-0.000048	0.116693
C42	C	1.162847	0.499952	0.616693
C43	C	0.982098	-0.569898	0.113516
C44	C	1.482098	-0.069898	0.613516
C45	C	0.982088	-0.430221	0.113513
C46	C	1.482088	0.069779	0.613513
C47	C	1.134101	-0.000074	0.107404
C48	C	1.634101	0.499926	0.607404
C49	C	1.226397	-0.000073	0.109019
C50	C	1.726397	0.499927	0.609019
C51	C	0.988206	-0.000078	-0.038491
C52	C	1.488206	0.499922	0.461509
C53	C	0.986591	-0.000079	-0.130786
C54	C	1.486591	0.499921	0.369214
N55	N	0.982112	0.318764	0.113516
N56	N	1.482112	0.818764	0.613516
C57	C	1.058599	-0.000066	-0.353059
C58	C	1.558599	0.499934	0.146941
C59	C	1.057075	-0.000055	-0.439779
C60	C	1.557075	0.499945	0.060221
C61	C	0.905586	-0.000048	-0.419905
C62	C	1.405586	0.499952	0.080095
C63	C	0.907111	-0.000049	-0.333186
C64	C	1.407111	0.499951	0.166814
C65	C	0.983620	-0.000064	-0.299766
C66	C	1.483620	0.499936	0.200234
C67	C	0.980571	-0.000053	-0.473205
C68	C	1.480571	0.499947	0.026795
C69	C	0.978918	-0.000042	-0.567231
C70	C	1.478918	0.499958	-0.067231
C71	C	0.985273	-0.000073	-0.205734
C72	C	1.485273	0.499927	0.294266
C73	C	0.975984	-0.000048	0.265521
C74	C	1.475984	0.499952	0.765521
C75	C	0.977600	-0.000038	0.357816
C76	C	1.477600	0.499962	0.857816
H77	H	0.542730	-0.000047	0.252317
H78	H	1.042730	0.499953	0.752317
C79	C	0.824630	-0.000051	-0.274560
C80	C	1.324630	0.499949	0.225440
H81	H	0.778846	-0.000060	-0.306882
H82	H	1.278846	0.499940	0.193118
H83	H	0.822079	0.071312	-0.240311
H84	H	1.322079	0.571312	0.259689
H85	H	0.822078	-0.071426	-0.240325
H86	H	1.322078	0.428574	0.259675
H87	H	0.385413	-0.000058	0.249550
H88	H	0.885413	0.499942	0.749550
H89	H	0.843295	-0.000038	-0.447127
H90	H	1.343295	0.499962	0.052873
H91	H	0.421454	-0.000090	-0.025285
H92	H	0.921454	0.499910	0.474715
H93	H	0.578788	-0.000078	-0.022530
H94	H	1.078788	0.499922	0.477470
H95	H	1.118130	-0.000054	-0.483168
H96	H	1.618130	0.499946	0.016832
H97	H	1.120897	-0.000075	-0.325851
H98	H	1.620897	0.499925	0.174149
