data_functionalizedCrystal
_audit_creation_method	'MofGen! by Chris Wilmer'
_symmetry_space_group_name_H-M	'P1'
_symmetry_Int_Tables_number	1
_symmetry_cell_setting	triclinic
loop_
_symmetry_equiv_pos_as_xyz
  x,y,z
_cell_length_a	16.109301
_cell_length_b	10.540539
_cell_length_c	15.186229
_cell_angle_alpha	89.998389
_cell_angle_beta	89.999362
_cell_angle_gamma	83.993486
loop_
_atom_site_label
_atom_site_type_symbol
_atom_site_fract_x
_atom_site_fract_y
_atom_site_fract_z
O1	O	1.104128	0.163159	-0.073169
O2	O	0.862191	0.183464	-0.073182
O3	O	0.988679	-0.011474	-0.073174
O4	O	0.977640	0.358096	-0.073177
O5	O	0.988671	-0.011477	0.073283
O6	O	0.862182	0.183461	0.073275
O7	O	1.104120	0.163156	0.073289
Zn8	Zn	0.983150	0.173308	0.096535
Zn9	Zn	0.983161	0.173312	-0.096429
O10	O	0.977631	0.358094	0.073280
C11	C	0.831206	0.182640	0.000045
C12	C	0.738896	0.180174	0.000039
C13	C	0.517296	0.290112	0.000049
C14	C	0.430561	0.287785	0.000054
C15	C	0.449021	0.056499	0.000053
C16	C	0.535754	0.058827	0.000053
C17	C	0.569889	0.175637	0.000047
C18	C	0.396421	0.170982	0.000052
C19	C	0.302380	0.168459	0.000058
C20	C	0.663936	0.178162	0.000042
C21	C	0.987847	-0.058767	0.000053
C22	C	0.985370	-0.199679	0.000048
C23	C	0.890460	-0.381753	-0.000286
C24	C	0.892971	-0.235171	0.000044
C25	C	1.029832	-0.261972	0.083685
C26	C	1.026678	-0.408472	0.083755
C27	C	1.028567	-0.409014	-0.082794
C28	C	1.029418	-0.262044	-0.083900
C29	C	1.135104	0.163980	0.000060
C30	C	1.227414	0.166446	0.000059
C31	C	0.978463	0.405386	0.000052
C32	C	0.980940	0.546299	0.000051
N33	N	0.983148	0.173305	0.228228
N34	N	0.983169	0.173305	-0.228121
C35	C	1.039177	0.087015	0.453954
C36	C	1.039179	0.087012	0.546144
C37	C	0.927134	0.259598	0.546146
C38	C	0.927128	0.259594	0.453958
C39	C	0.983154	0.173304	0.407864
C40	C	0.983163	0.173305	0.592242
C41	C	0.983165	0.173303	0.692198
C42	C	0.983151	0.173305	0.307902
H43	H	0.421218	-0.038605	0.000063
H44	H	0.578578	-0.034398	0.000054
C45	C	0.865514	0.354524	0.596849
C46	C	0.865562	0.354609	0.698252
C47	C	0.803942	0.449542	0.748952
C48	C	0.742274	0.544389	0.698249
C49	C	0.742224	0.544307	0.596840
C50	C	0.803844	0.449375	0.546140
H51	H	0.911215	0.284394	0.735791
H52	H	0.803980	0.449601	0.824022
H53	H	0.696659	0.614663	0.735780
H54	H	0.696571	0.614522	0.559301
H55	H	0.803806	0.449315	0.471070
H56	H	1.084795	0.016751	0.416427
H57	H	0.857986	-0.192068	-0.059910
H58	H	0.545085	0.385227	0.000050
H59	H	0.853964	-0.409832	-0.060263
H60	H	0.854106	-0.411444	0.059352
H61	H	0.881504	0.329861	0.416429
H62	H	0.857734	-0.192914	0.060094
H63	H	0.387743	0.381003	0.000058
H64	H	0.993812	-0.436204	0.146272
C65	C	1.120430	-0.230636	-0.090726
C66	C	1.148945	-0.158311	-0.171535
C67	C	1.239961	-0.126908	-0.178356
C68	C	1.302461	-0.167831	-0.104367
C69	C	1.273947	-0.240160	-0.023552
C70	C	1.182931	-0.271563	-0.016732
H71	H	1.102677	-0.128014	-0.226311
H72	H	1.261068	-0.073365	-0.238180
H73	H	1.369837	-0.144585	-0.109416
H74	H	1.320215	-0.270457	0.031224
H75	H	1.161824	-0.325106	0.043093
H76	H	1.093130	-0.457388	0.087553
C77	C	1.121492	-0.233047	0.087916
C78	C	1.177519	-0.284813	0.164769
C79	C	1.269175	-0.255870	0.169006
C80	C	1.304805	-0.175160	0.096390
C81	C	1.248777	-0.123389	0.019531
C82	C	1.157121	-0.152333	0.015294
H83	H	1.151144	-0.344564	0.218529
H84	H	1.310650	-0.294195	0.225902
H85	H	1.372654	-0.153734	0.099526
H86	H	1.275151	-0.063638	-0.034229
H87	H	1.115646	-0.114008	-0.041602
C88	C	0.988098	-0.203848	0.167767
C89	C	0.913736	-0.099943	0.160711
C90	C	0.871996	-0.041821	0.244790
C91	C	0.904618	-0.087603	0.335925
C92	C	0.978984	-0.191513	0.342985
C93	C	1.020724	-0.249635	0.258905
H94	H	0.889583	-0.066048	0.093244
H95	H	0.816945	0.035100	0.239564
H96	H	0.873719	-0.044578	0.398166
H97	H	1.003136	-0.225409	0.410451
H98	H	1.075774	-0.326556	0.264132
H99	H	0.998666	-0.440139	-0.146185
C100	C	0.985537	-0.206114	-0.167492
C101	C	0.910062	-0.104293	-0.159603
C102	C	0.866180	-0.048353	-0.243193
C103	C	0.897772	-0.094233	-0.334674
C104	C	0.973250	-0.196059	-0.342567
C105	C	1.017133	-0.252000	-0.258977
H106	H	0.886673	-0.070325	-0.091880
H107	H	0.810306	0.027026	-0.237350
H108	H	0.865288	-0.052823	-0.396553
H109	H	0.996640	-0.230027	-0.410290
H110	H	1.073007	-0.327378	-0.264820
C111	C	1.118729	-0.474089	-0.083553
C112	C	1.149028	-0.567317	-0.009405
C113	C	1.239187	-0.632394	-0.010153
C114	C	1.299047	-0.604242	-0.085048
C115	C	1.268749	-0.511010	-0.159201
C116	C	1.178590	-0.445933	-0.158454
H117	H	1.104716	-0.588161	0.046042
H118	H	1.261616	-0.701411	0.044741
H119	H	1.365788	-0.652416	-0.085602
H120	H	1.313061	-0.490166	-0.214649
H121	H	1.156162	-0.376916	-0.213347
H122	H	1.084796	0.016747	0.583668
