data_functionalizedCrystal
_audit_creation_method	'MofGen! by Chris Wilmer'
_symmetry_space_group_name_H-M	'P1'
_symmetry_Int_Tables_number	1
_symmetry_cell_setting	triclinic
loop_
_symmetry_equiv_pos_as_xyz
  x,y,z
_cell_length_a	16.120484
_cell_length_b	16.120542
_cell_length_c	12.759393
_cell_angle_alpha	92.919150
_cell_angle_beta	92.862621
_cell_angle_gamma	89.836765
loop_
_atom_site_label
_atom_site_type_symbol
_atom_site_fract_x
_atom_site_fract_y
_atom_site_fract_z
Zn1	Zn	-0.395636	-1.254485	-0.699406
Zn2	Zn	-0.534710	-1.247325	-0.532138
Zn3	Zn	-0.388609	-1.115421	-0.514407
Zn4	Zn	-0.527578	-1.108337	-0.698440
O5	O	-0.461633	-1.181392	-0.611098
O6	O	-0.420009	-1.369901	-0.685042
O7	O	-0.515373	-1.229797	-0.382765
O8	O	-0.273179	-1.139830	-0.531932
O9	O	-0.522187	-1.364641	-0.562151
O10	O	-0.278341	-1.241999	-0.667849
O11	O	-0.408034	-1.132887	-0.369739
O12	O	-0.401118	-0.998116	-0.530995
O13	O	-0.510032	-1.127755	-0.845588
O14	O	-0.503218	-0.992911	-0.666203
O15	O	-0.413094	-1.235129	-0.846298
O16	O	-0.650126	-1.222927	-0.561214
O17	O	-0.644886	-1.120813	-0.683395
C18	C	-0.450633	-0.965341	-0.596571
C19	C	-0.445947	-0.872913	-0.590382
C20	C	-0.485916	-0.659944	-0.643140
C21	C	-0.437399	-0.703689	-0.579083
C22	C	-0.442156	-0.797854	-0.585372
C23	C	-0.481160	-0.565771	-0.636852
C24	C	-0.677679	-1.170347	-0.624148
C25	C	-0.770108	-1.165698	-0.629772
C26	C	-0.939337	-1.157215	-0.640060
C27	C	-0.983096	-1.205719	-0.582162
C28	C	-1.077261	-1.200999	-0.587887
C29	C	-0.845163	-1.161934	-0.634337
C30	C	-0.244745	-1.192503	-0.598021
C31	C	-0.152321	-1.197238	-0.592448
C32	C	-0.461551	-1.181450	-0.885130
C33	C	-0.461516	-1.181475	-1.001906
C34	C	-0.472673	-0.398287	-0.625667
C35	C	-0.477366	-0.490715	-0.631837
C36	C	-0.405616	-1.131038	-1.049992
C37	C	-0.405592	-1.131064	-1.159716
C38	C	-0.517372	-1.231973	-1.173259
C39	C	-0.517399	-1.231941	-1.063537
C40	C	-0.349733	-1.080572	-0.988361
C41	C	-0.293827	-1.030131	-1.036446
C42	C	-0.293804	-1.030157	-1.146171
C43	C	-0.349686	-1.080624	-1.207809
C44	C	-0.461657	-1.181385	-0.338131
C45	C	-0.461466	-1.181533	-0.221352
H46	H	-0.392289	-0.670421	-0.519518
C47	C	-0.938170	-1.266601	-0.509381
N48	N	-0.904327	-1.312453	-0.454560
C49	C	-0.984263	-1.096322	-0.712817
N50	N	-1.018111	-1.050454	-0.767611
C51	C	-0.546862	-0.704886	-0.723594
N52	N	-0.592770	-0.738745	-0.784187
H53	H	-0.349744	-1.080546	-0.899017
H54	H	-0.248335	-0.989037	-0.986253
H55	H	-0.248288	-0.989080	-1.185319
C56	C	-0.578898	-1.287420	-1.010639
N57	N	-0.625224	-1.329203	-0.970796
C58	C	-0.349658	-1.080649	-1.328510
N59	N	-0.349633	-1.080670	-1.419420
H60	H	-0.562867	-1.273063	-1.223454
