data_functionalizedCrystal
_audit_creation_method	'MofGen! by Chris Wilmer'
_symmetry_space_group_name_H-M	'P1'
_symmetry_Int_Tables_number	1
_symmetry_cell_setting	triclinic
loop_
_symmetry_equiv_pos_as_xyz
  x,y,z
_cell_length_a	14.853567
_cell_length_b	22.610064
_cell_length_c	14.853567
_cell_angle_alpha	90.007872
_cell_angle_beta	96.365070
_cell_angle_gamma	90.005271
loop_
_atom_site_label
_atom_site_type_symbol
_atom_site_fract_x
_atom_site_fract_y
_atom_site_fract_z
O1	O	1.196371	0.049139	-0.117692
O2	O	1.696371	0.549139	0.382308
O3	O	0.933911	0.049148	-0.131713
O4	O	1.433911	0.549148	0.368287
O5	O	1.072152	0.049145	0.006527
O6	O	1.572152	0.549145	0.506527
O7	O	1.058131	0.049142	-0.255932
O8	O	1.558131	0.549142	0.244068
O9	O	1.072127	-0.049224	0.006507
O10	O	1.572127	0.450776	0.506507
O11	O	0.933887	-0.049221	-0.131734
O12	O	1.433887	0.450779	0.368266
O13	O	1.196347	-0.049231	-0.117712
O14	O	1.696347	0.450769	0.382288
Zn15	Zn	1.065113	-0.064844	-0.124726
Zn16	Zn	1.565113	0.435156	0.375274
Zn17	Zn	1.065145	0.064762	-0.124699
Zn18	Zn	1.565145	0.564762	0.375301
O19	O	1.058106	-0.049227	-0.255953
O20	O	1.558106	0.450773	0.244047
C21	C	0.900311	-0.000035	-0.131088
C22	C	1.400311	0.499965	0.368912
C23	C	0.800227	-0.000031	-0.129184
C24	C	1.300227	0.499969	0.370816
N25	N	1.065098	-0.153296	-0.124744
N26	N	1.565098	0.346704	0.375256
C27	C	0.387693	-0.000043	-0.039019
C28	C	0.887693	0.499957	0.460981
C29	C	0.366412	-0.000045	-0.203251
C30	C	0.866412	0.499955	0.296749
C31	C	0.460446	-0.000043	-0.205042
C32	C	0.960446	0.499957	0.294958
C33	C	0.518108	-0.000040	-0.123819
C34	C	1.018108	0.499960	0.376181
C35	C	0.481736	-0.000040	-0.040806
C36	C	0.981736	0.499960	0.459194
C37	C	0.496825	-0.000038	-0.288053
C38	C	0.996825	0.499962	0.211947
C39	C	0.590864	-0.000035	-0.289846
C40	C	1.090864	0.499965	0.210154
C41	C	0.648528	-0.000037	-0.208623
C42	C	1.148528	0.499963	0.291377
C43	C	0.612150	-0.000037	-0.125607
C44	C	1.112150	0.499963	0.374393
C45	C	0.669812	-0.000034	-0.044384
C46	C	1.169812	0.499966	0.455616
C47	C	0.633437	-0.000039	0.038633
C48	C	1.133437	0.499961	0.538633
C49	C	0.539399	-0.000041	0.040417
C50	C	1.039399	0.499959	0.540417
C51	C	0.742565	-0.000034	-0.210407
C52	C	1.242565	0.499966	0.289593
C53	C	0.763855	-0.000031	-0.046172
C54	C	1.263855	0.499969	0.453828
C55	C	1.126361	-0.561939	-0.063496
C56	C	1.626361	-0.061939	0.436504
C57	C	1.126365	-0.623859	-0.063489
C58	C	1.626365	-0.123859	0.436511
O59	O	1.178415	-0.655879	-0.011428
O60	O	1.678415	-0.155879	0.488572
N61	N	1.065144	-0.654834	-0.124681
N62	N	1.565144	-0.154834	0.375319
C63	C	1.003909	-0.623885	-0.185876
C64	C	1.503909	-0.123885	0.314124
O65	O	0.951835	-0.655917	-0.237923
O66	O	1.451835	-0.155917	0.262077
C67	C	1.003900	-0.561966	-0.185878
C68	C	1.503900	-0.061966	0.314122
C69	C	1.065132	-0.530995	-0.124689
C70	C	1.565132	-0.030995	0.375311
C71	C	1.187586	-0.530968	-0.002311
C72	C	1.687586	-0.030968	0.497689
C73	C	1.187583	-0.469052	-0.002319
C74	C	1.687583	0.030948	0.497681
C75	C	1.126353	-0.438108	-0.063512
C76	C	1.626353	0.061892	0.436488
C77	C	1.065128	-0.469079	-0.124697
C78	C	1.565128	0.030921	0.375303
C79	C	0.942661	-0.531019	-0.247069
C80	C	1.442661	-0.031019	0.252931
C81	C	0.942658	-0.469096	-0.247064
C82	C	1.442658	0.030904	0.252936
C83	C	1.003889	-0.438124	-0.185875
C84	C	1.503889	0.061876	0.314125
C85	C	1.003895	-0.376219	-0.185897
C86	C	1.503895	0.123781	0.314103
N87	N	1.065116	-0.345245	-0.124706
N88	N	1.565116	0.154755	0.375294
C89	C	1.126345	-0.376189	-0.063513
C90	C	1.626345	0.123811	0.436487
C91	C	1.003929	-0.753918	-0.185868
C92	C	1.503929	-0.253918	0.314132
C93	C	1.003941	-0.815836	-0.185871
C94	C	1.503941	-0.315836	0.314129
C95	C	1.126397	-0.815806	-0.063483
C96	C	1.626397	-0.315806	0.436517
C97	C	1.126389	-0.753887	-0.063484
C98	C	1.626389	-0.253887	0.436516
C99	C	1.065150	-0.722944	-0.124676
C100	C	1.565150	-0.222944	0.375324
C101	C	1.126333	-0.246162	-0.063535
C102	C	1.626333	0.253838	0.436465
C103	C	1.126327	-0.184241	-0.063551
C104	C	1.626327	0.315759	0.436449
C105	C	1.003868	-0.184276	-0.185936
C106	C	1.503868	0.315724	0.314064
C107	C	1.003877	-0.246192	-0.185923
C108	C	1.503877	0.253808	0.314077
C109	C	1.065114	-0.277133	-0.124716
C110	C	1.565114	0.222867	0.375284
O111	O	0.951869	-0.344160	-0.237930
O112	O	1.451869	0.155840	0.262070
O113	O	1.178402	-0.344150	-0.011467
O114	O	1.678402	0.155850	0.488533
C115	C	1.229947	-0.000046	-0.118337
C116	C	1.729947	0.499954	0.381663
C117	C	1.330031	-0.000046	-0.120241
C118	C	1.830031	0.499954	0.379759
C119	C	1.071504	-0.000038	0.040106
C120	C	1.571504	0.499962	0.540106
C121	C	1.069601	-0.000033	0.140189
C122	C	1.569601	0.499967	0.640189
N123	N	1.065168	0.153214	-0.124675
N124	N	1.565168	0.653214	0.375325
C125	C	1.058754	-0.000043	-0.289531
C126	C	1.558754	0.499957	0.210469
C127	C	1.060657	-0.000044	-0.389615
C128	C	1.560657	0.499956	0.110385
C129	C	0.979435	-0.000041	0.552723
C130	C	1.479435	0.499959	1.052723
C131	C	1.143668	-0.000047	0.574004
C132	C	1.643668	0.499953	1.074004
C133	C	1.145458	-0.000043	0.479971
C134	C	1.645458	0.499957	0.979971
C135	C	1.064235	-0.000039	0.422309
C136	C	1.564235	0.499961	0.922309
C137	C	0.981223	-0.000039	0.458680
C138	C	1.481223	0.499961	0.958680
C139	C	1.228469	-0.000050	0.443591
C140	C	1.728469	0.499950	0.943591
C141	C	1.230262	-0.000047	0.349552
C142	C	1.730262	0.499953	0.849552
C143	C	1.149039	-0.000039	0.291889
C144	C	1.649039	0.499961	0.791889
C145	C	1.066023	-0.000038	0.328266
C146	C	1.566023	0.499962	0.828266
C147	C	0.984800	-0.000034	0.270604
C148	C	1.484800	0.499966	0.770604
C149	C	0.901783	-0.000029	0.306979
C150	C	1.401783	0.499971	0.806979
C151	C	0.899999	-0.000031	0.401017
C152	C	1.399999	0.499969	0.901017
C153	C	1.150823	-0.000036	0.197851
C154	C	1.650823	0.499964	0.697851
C155	C	0.986588	-0.000032	0.176561
C156	C	1.486588	0.499968	0.676561
H157	H	0.810798	-0.000031	0.019971
H158	H	1.310798	0.499969	0.519971
H159	H	1.237446	-0.556157	0.047523
H160	H	1.737446	-0.056157	0.547523
Br161	Br	0.920818	-0.711930	-0.268927
Br162	Br	1.420818	-0.211930	0.231073
Br163	Br	0.866774	-0.000025	0.602086
Br164	Br	1.366774	0.499975	1.102086
H165	H	0.680397	-0.000032	0.104764
H166	H	1.180397	0.499968	0.604764
Br167	Br	0.791930	-0.000021	-0.323063
Br168	Br	1.291930	0.499979	0.176937
Br169	Br	1.253893	-0.000064	0.652259
Br170	Br	1.753893	0.499936	1.152259
H171	H	0.892801	-0.556227	-0.296894
H172	H	1.392801	-0.056227	0.203106
H173	H	0.509774	-0.000059	0.108005
H174	H	1.009774	0.499941	0.608005
Br175	Br	0.876351	-0.000020	0.098312
Br176	Br	1.376351	0.499980	0.598312
H177	H	1.176248	-0.728674	-0.013658
H178	H	1.676248	-0.228674	0.486342
Br179	Br	1.209494	-0.857815	0.019565
Br180	Br	1.709494	-0.357815	0.519565
H181	H	0.892787	-0.443904	-0.296893
H182	H	1.392787	0.056096	0.203107
H183	H	1.218414	-0.000045	0.168238
H184	H	1.718414	0.499955	0.668238
H185	H	1.176192	-0.159026	-0.013723
H186	H	1.676192	0.340974	0.486277
H187	H	0.620472	-0.000031	-0.357443
H188	H	1.120472	0.499969	0.142557
H189	H	0.835652	-0.000030	0.260019
H190	H	1.335652	0.499970	0.760019
Br191	Br	1.209440	-0.288144	0.019534
Br192	Br	1.709440	0.211856	0.519534
Br193	Br	1.270680	-0.427027	0.080731
Br194	Br	1.770680	0.072973	0.580731
Br195	Br	0.920854	-0.857862	-0.268931
Br196	Br	1.420854	-0.357862	0.231069
H197	H	0.832411	-0.000027	0.430643
H198	H	1.332411	0.499973	0.930643
Br199	Br	0.920788	-0.288223	-0.268980
Br200	Br	1.420788	0.211777	0.231020
H201	H	0.358072	-0.000049	0.028572
H202	H	0.858072	0.499951	0.528572
Br203	Br	0.920776	-0.142270	-0.268983
Br204	Br	1.420776	0.357730	0.231017
H205	H	1.294596	-0.000058	0.490546
H206	H	1.794596	0.499942	0.990546
H207	H	0.319459	-0.000042	-0.269379
H208	H	0.819459	0.499958	0.230621
Br209	Br	0.418568	-0.000028	-0.398276
Br210	Br	0.918568	0.499972	0.101724
H211	H	1.297860	-0.000050	0.319944
H212	H	1.797860	0.499950	0.819944
