data_functionalizedCrystal
_audit_creation_method	'MofGen! by Chris Wilmer'
_symmetry_space_group_name_H-M	'P1'
_symmetry_Int_Tables_number	1
_symmetry_cell_setting	triclinic
loop_
_symmetry_equiv_pos_as_xyz
  x,y,z
_cell_length_a	14.519709
_cell_length_b	10.654554
_cell_length_c	9.730223
_cell_angle_alpha	90.001137
_cell_angle_beta	89.995143
_cell_angle_gamma	95.916556
loop_
_atom_site_label
_atom_site_type_symbol
_atom_site_fract_x
_atom_site_fract_y
_atom_site_fract_z
O1	O	-0.129548	1.666585	-0.114226
O2	O	-0.141885	1.300989	-0.114237
O3	O	-0.001528	1.493480	-0.114244
O4	O	-0.269904	1.474094	-0.114219
O5	O	-0.001532	1.493478	0.114336
O6	O	-0.141888	1.300986	0.114343
O7	O	-0.129551	1.666583	0.114353
Zn8	Zn	-0.135720	1.483784	0.150640
Zn9	Zn	-0.135716	1.483787	-0.150523
O10	O	-0.269908	1.474091	0.114361
C11	C	-0.140980	1.254198	0.000052
C12	C	-0.138267	1.114782	0.000047
C13	C	-0.218361	0.903503	0.000067
C14	C	-0.220910	1.034500	0.000056
C15	C	-0.053068	1.064061	0.000034
C16	C	-0.050520	0.933066	0.000035
C17	C	-0.301010	0.823227	0.000090
C18	C	-0.386209	0.873939	0.000100
C19	C	-0.388758	1.004936	0.000090
C20	C	-0.306109	1.085221	0.000069
C21	C	-0.304271	1.474996	0.000074
C22	C	-0.406666	1.477703	0.000083
C23	C	-0.781614	1.487671	0.000029
C24	C	-0.677291	1.484903	0.000044
C25	C	-0.594143	1.482687	0.000057
C26	C	-0.489814	1.479919	0.000070
C27	C	0.032834	1.492575	0.000040
C28	C	0.135230	1.489868	0.000022
C29	C	-0.130456	1.713373	0.000062
C30	C	-0.133169	1.852790	0.000058
N31	N	-0.135723	1.483791	0.356177
N32	N	-0.135706	1.483790	-0.356060
C33	C	-0.073594	1.569048	0.428100
C34	C	-0.073583	1.569045	0.571983
C35	C	-0.197837	1.398524	0.572007
C36	C	-0.197843	1.398522	0.428127
C37	C	-0.011474	1.654318	0.356150
C38	C	0.050659	1.739583	0.428073
C39	C	0.050670	1.739579	0.571956
C40	C	-0.011452	1.654311	0.643916
H41	H	-0.298943	0.716561	0.000104
H42	H	-0.453498	0.808563	0.000107
C43	C	-0.482472	1.060722	0.000095
C44	C	-0.573378	0.972417	0.000119
C45	C	-0.667095	1.028200	0.000131
C46	C	-0.669906	1.172287	0.000120
C47	C	-0.578997	1.260601	0.000097
C48	C	-0.485280	1.204818	0.000084
H49	H	-0.571300	0.865747	0.000127
H50	H	-0.734392	0.962824	0.000149
H51	H	-0.739281	1.213581	0.000130
H52	H	-0.581075	1.367271	0.000089
H53	H	-0.417983	1.270195	0.000067
H54	H	0.101242	1.808998	0.369475
H55	H	-0.308192	1.191886	0.000032
H56	H	0.101267	1.808997	0.630514
H57	H	0.014220	1.129438	0.000018
H58	H	0.018851	0.891775	0.000025
H59	H	-0.011479	1.654331	0.238993
H60	H	-0.248415	1.329103	0.630606
H61	H	-0.011431	1.654307	0.761075
H62	H	-0.248433	1.329097	0.369567
