data_functionalizedCrystal
_audit_creation_method	'MofGen! by Chris Wilmer'
_symmetry_space_group_name_H-M	'P1'
_symmetry_Int_Tables_number	1
_symmetry_cell_setting	triclinic
loop_
_symmetry_equiv_pos_as_xyz
  x,y,z
_cell_length_a	15.995350
_cell_length_b	10.654541
_cell_length_c	9.730217
_cell_angle_alpha	89.995122
_cell_angle_beta	90.000077
_cell_angle_gamma	96.011848
loop_
_atom_site_label
_atom_site_type_symbol
_atom_site_fract_x
_atom_site_fract_y
_atom_site_fract_z
O1	O	1.111924	-0.161874	0.114173
O2	O	0.868264	-0.181863	0.114201
O3	O	0.995697	0.010944	0.114178
O4	O	0.984491	-0.354681	0.114196
O5	O	0.995688	0.010952	-0.114402
O6	O	0.868255	-0.181856	-0.114379
O7	O	1.111914	-0.161867	-0.114407
Zn8	Zn	0.990083	-0.171860	-0.150685
Zn9	Zn	0.990095	-0.171870	0.150479
O10	O	0.984482	-0.354674	-0.114384
C11	C	0.837060	-0.181033	-0.000085
C12	C	0.744095	-0.178556	-0.000075
C13	C	0.994870	0.057735	-0.000111
C14	C	0.992410	0.197146	-0.000109
N15	N	0.990081	-0.171852	-0.356222
C16	C	0.406296	-0.169658	-0.000104
C17	C	0.452934	-0.032344	-0.000621
C18	C	0.549638	-0.034822	-0.000096
C19	C	0.573882	-0.174072	-0.000090
C20	C	0.533193	-0.241804	0.130438
C21	C	0.436538	-0.238354	0.130538
C22	C	0.436205	-0.241183	-0.129401
C23	C	0.533150	-0.241150	-0.131116
C24	C	0.668594	-0.176573	-0.000078
C25	C	0.311584	-0.167161	-0.000107
C26	C	1.143119	-0.162697	-0.000118
C27	C	1.236083	-0.165174	-0.000119
C28	C	0.985309	-0.401465	-0.000092
C29	C	0.987769	-0.540876	-0.000086
C30	C	1.144790	0.227108	-0.000144
C31	C	1.219821	0.307582	-0.000164
C32	C	1.217504	0.438570	-0.000159
C33	C	1.140148	0.489085	-0.000130
C34	C	1.065117	0.408610	-0.000110
C35	C	1.067442	0.277621	-0.000119
C36	C	0.912738	0.378649	-0.000065
C37	C	0.915053	0.247661	-0.000080
C38	C	0.835382	0.429164	-0.000036
C39	C	0.760349	0.348689	-0.000026
C40	C	0.762670	0.217694	-0.000032
C41	C	0.840023	0.167187	-0.000060
C42	C	0.887650	-0.019414	-0.356273
C43	C	0.836443	0.056807	-0.428239
C44	C	0.836455	0.056808	-0.572119
C45	C	0.887678	-0.019425	-0.644036
C46	C	0.938885	-0.095646	-0.572070
C47	C	0.938869	-0.095636	-0.428187
C48	C	1.041311	-0.248089	-0.572019
C49	C	1.041304	-0.248085	-0.428139
C50	C	1.092534	-0.324322	-0.643936
C51	C	1.143746	-0.400538	-0.571971
C52	C	1.143732	-0.400535	-0.428082
C53	C	1.092511	-0.324306	-0.356173
N54	N	0.990104	-0.171868	0.356015
H55	H	0.577755	0.018418	-0.093664
H56	H	1.138268	0.595743	-0.000110
C57	C	0.780100	0.140659	-0.349135
H58	H	0.749601	0.186044	-0.412603
H59	H	0.814074	0.198422	-0.293004
H60	H	0.741852	0.089227	-0.293014
C61	C	1.300035	0.527094	-0.000182
H62	H	1.346437	0.478255	-0.000207
H63	H	1.302303	0.578811	0.079527
H64	H	1.302285	0.578818	-0.079905
C65	C	0.780130	0.140644	-0.651290
H66	H	0.787473	0.129715	-0.747278
H67	H	0.795190	0.226558	-0.627723
H68	H	0.722971	0.117359	-0.627728
C69	C	0.553080	-0.380002	0.137017
H70	H	0.586458	-0.397660	0.060036
H71	H	0.502109	-0.434455	0.135805
H72	H	0.582961	-0.393140	0.219266
C73	C	1.200081	-0.484389	-0.651072
H74	H	1.230576	-0.529788	-0.587610
H75	H	1.238321	-0.432972	-0.707209
H76	H	1.166095	-0.542161	-0.707189
C77	C	0.887686	-0.019440	-0.802300
H78	H	0.925521	-0.075760	-0.834823
H79	H	0.904878	0.063300	-0.834868
H80	H	0.832659	-0.045899	-0.834846
C81	C	1.304909	0.252020	-0.000202
H82	H	1.349261	0.318709	-0.000203
H83	H	1.308972	0.201552	-0.079916
H84	H	1.308991	0.201538	0.079515
H85	H	1.092536	-0.324322	-0.761091
H86	H	0.697372	0.389830	0.000006
H87	H	0.701570	0.152178	-0.000010
C88	C	1.200065	-0.484375	-0.348930
H89	H	1.230574	-0.529763	-0.412373
H90	H	1.166084	-0.542135	-0.292796
H91	H	1.238305	-0.432938	-0.292809
H92	H	0.841919	0.060531	-0.000073
H93	H	0.887640	-0.019398	-0.239119
H94	H	0.833501	0.535822	-0.000024
H95	H	0.434089	0.022546	-0.094228
C96	C	0.426040	0.041468	0.125119
H97	H	0.386516	-0.011036	0.177933
H98	H	0.401077	0.113758	0.095099
H99	H	0.473940	0.067199	0.179917
H100	H	0.577189	0.018772	0.093630
C101	C	0.411419	-0.171629	0.262334
H102	H	0.460266	-0.146875	0.315308
H103	H	0.373772	-0.227736	0.314522
H104	H	0.384736	-0.099086	0.238478
C105	C	0.571150	-0.178259	0.261666
H106	H	0.611783	-0.110461	0.237188
H107	H	0.597235	-0.238239	0.314481
H108	H	0.527845	-0.146844	0.314277
C109	C	0.554697	-0.378329	-0.141767
H110	H	0.588964	-0.396574	-0.066101
H111	H	0.584108	-0.388954	-0.225075
H112	H	0.504308	-0.434099	-0.140664
H113	H	0.404874	-0.339168	0.136465
C114	C	0.408109	-0.180539	-0.263057
H115	H	0.377874	-0.111022	-0.241251
H116	H	0.372987	-0.241135	-0.314016
H117	H	0.456138	-0.152016	-0.316348
C118	C	1.147342	0.083026	-0.000153
H119	H	1.204156	0.064467	-0.000165
H120	H	1.119717	0.047867	-0.079854
H121	H	1.119740	0.047857	0.079578
C122	C	1.092491	-0.324302	-0.197910
H123	H	1.054647	-0.267994	-0.165391
H124	H	1.147510	-0.297865	-0.165340
H125	H	1.075282	-0.407051	-0.165360
H126	H	0.560176	-0.191706	-0.227681
H127	H	0.405031	-0.342423	-0.130279
