data_functionalizedCrystal
_audit_creation_method	'MofGen! by Chris Wilmer'
_symmetry_space_group_name_H-M	'P1'
_symmetry_Int_Tables_number	1
_symmetry_cell_setting	triclinic
loop_
_symmetry_equiv_pos_as_xyz
  x,y,z
_cell_length_a	12.759401
_cell_length_b	21.295417
_cell_length_c	12.759393
_cell_angle_alpha	89.962952
_cell_angle_beta	89.980324
_cell_angle_gamma	90.030129
loop_
_atom_site_label
_atom_site_type_symbol
_atom_site_fract_x
_atom_site_fract_y
_atom_site_fract_z
Zn1	Zn	1.606157	-0.250572	-0.593937
Zn2	Zn	1.606002	-0.355854	-0.418237
Zn3	Zn	1.430456	-0.250603	-0.418276
Zn4	Zn	1.430401	-0.355808	-0.593878
O5	O	1.518254	-0.303209	-0.506082
O6	O	1.753157	-0.264544	-0.570638
O7	O	1.582673	-0.341924	-0.271221
O8	O	1.453850	-0.162509	-0.441619
O9	O	1.753043	-0.341894	-0.441552
O10	O	1.582937	-0.162486	-0.570676
O11	O	1.453700	-0.264597	-0.271250
O12	O	1.283427	-0.264553	-0.441562
O13	O	1.453758	-0.341815	-0.740907
O14	O	1.283388	-0.341846	-0.570576
O15	O	1.582885	-0.264499	-0.740950
O16	O	1.582621	-0.443937	-0.441495
O17	O	1.453608	-0.443903	-0.570538
C18	C	1.245287	-0.303198	-0.506067
C19	C	1.128510	-0.303209	-0.506086
C20	C	1.073708	-0.263005	-0.573404
C21	C	0.963984	-0.263012	-0.573411
C22	C	0.963874	-0.343430	-0.438778
C23	C	1.073596	-0.343420	-0.438766
C24	C	1.518120	-0.466761	-0.506029
C25	C	1.518159	-0.536729	-0.506041
C26	C	1.585336	-0.569526	-0.573289
C27	C	1.585373	-0.635269	-0.573315
C28	C	1.518244	-0.668211	-0.506074
C29	C	1.451054	-0.635406	-0.438821
C30	C	1.451011	-0.569665	-0.438805
N31	N	1.510303	-0.771479	-0.414128
N32	N	1.510350	-0.833931	-0.414146
C33	C	1.518367	-0.866286	-0.506122
N34	N	1.526356	-0.833830	-0.598079
N35	N	1.526315	-0.771373	-0.598060
C36	C	1.518282	-0.739497	-0.506085
C37	C	1.585588	-0.970369	-0.573404
C38	C	1.585617	-1.036113	-0.573431
C39	C	1.451304	-1.036248	-0.438928
C40	C	1.451268	-0.970506	-0.438910
C41	C	1.518416	-0.937570	-0.506146
C42	C	1.792287	-0.303220	-0.506097
C43	C	1.909064	-0.303225	-0.506104
C44	C	1.518333	-0.303149	-0.780115
C45	C	1.518366	-0.303123	-0.896892
C46	C	1.518417	-0.139019	-0.506158
C47	C	1.518486	-0.069051	-0.506191
C48	C	1.585607	-0.262858	-0.951778
C49	C	1.585625	-0.262831	-1.061502
C50	C	1.451157	-0.343339	-1.061445
C51	C	1.451135	-0.343363	-0.951722
C52	C	1.518236	-0.303224	-0.233115
C53	C	1.518406	-0.303072	-0.116338
H54	H	0.919149	-0.376170	-0.383970
H55	H	1.640378	-0.230042	-1.106186
C56	C	1.659280	-0.671353	-0.647292
N57	N	1.714950	-0.698530	-0.703009
H58	H	1.396423	-0.376102	-1.106101
C59	C	1.659436	-0.934137	-0.647378
N60	N	1.715057	-0.906849	-0.703100
H61	H	1.640009	-0.542712	-0.628040
C62	C	1.377253	-0.671644	-0.364815
N63	N	1.321675	-0.698938	-0.309059
C64	C	1.377157	-0.387658	-0.891344
N65	N	1.321437	-0.421018	-0.845867
C66	C	1.134110	-0.218766	-0.647448
N67	N	1.179601	-0.185441	-0.703217
C68	C	1.133881	-0.387649	-0.364706
N69	N	1.179289	-0.420960	-0.308925
C70	C	1.377446	-1.072482	-0.364976
N71	N	1.321808	-1.099775	-0.309280
C72	C	0.903706	-0.218786	-0.647470
N73	N	0.858306	-0.185474	-0.703255
C74	C	1.377104	-0.533586	-0.364827
N75	N	1.321435	-0.506411	-0.309107
H76	H	1.640348	-0.230090	-0.907139
H77	H	1.396571	-0.943801	-0.384145
C78	C	1.659527	-1.072190	-0.647409
N79	N	1.715201	-1.099363	-0.703126
