data_functionalizedCrystal
_audit_creation_method	'MofGen! by Chris Wilmer'
_symmetry_space_group_name_H-M	'P1'
_symmetry_Int_Tables_number	1
_symmetry_cell_setting	triclinic
loop_
_symmetry_equiv_pos_as_xyz
  x,y,z
_cell_length_a	14.519709
_cell_length_b	17.699083
_cell_length_c	13.596369
_cell_angle_alpha	89.998283
_cell_angle_beta	90.012081
_cell_angle_gamma	96.518421
loop_
_atom_site_label
_atom_site_type_symbol
_atom_site_fract_x
_atom_site_fract_y
_atom_site_fract_z
O1	O	-1.223431	0.099215	0.081649
O2	O	-0.723431	0.599215	0.581649
O3	O	-0.954904	0.110899	0.081677
O4	O	-0.454904	0.610899	0.581677
O5	O	-1.096754	-0.005111	0.081672
O6	O	-0.596754	0.494889	0.581672
O7	O	-1.081581	0.215224	0.081654
O8	O	-0.581581	0.715224	0.581654
O9	O	-1.096772	-0.005117	-0.081911
O10	O	-0.596772	0.494883	0.418089
O11	O	-0.954922	0.110892	-0.081906
O12	O	-0.454922	0.610892	0.418094
O13	O	-1.223448	0.099209	-0.081934
O14	O	-0.723448	0.599209	0.418066
Zn15	Zn	-1.089188	0.105049	-0.107892
Zn16	Zn	-0.589188	0.605049	0.392108
Zn17	Zn	-1.089165	0.105058	0.107635
Zn18	Zn	-0.589165	0.605058	0.607635
O19	O	-1.081599	0.215218	-0.081929
O20	O	-0.581599	0.715218	0.418071
C21	C	-0.920556	0.110351	-0.000110
C22	C	-0.420556	0.610351	0.499890
C23	C	-0.818181	0.108719	-0.000099
C24	C	-0.318181	0.608719	0.499901
C25	C	-1.257797	0.099756	-0.000144
C26	C	-0.757797	0.599756	0.499856
C27	C	-1.360171	0.101388	-0.000149
C28	C	-0.860171	0.601388	0.499851
C29	C	-1.096219	-0.033312	-0.000115
C30	C	-0.596219	0.466688	0.499885
C31	C	-1.094588	-0.117335	-0.000101
C32	C	-0.594588	0.382665	0.499899
C33	C	-0.443311	0.102712	-0.000143
C34	C	0.056689	0.602712	0.499857
C35	C	-0.547612	0.104380	-0.000130
C36	C	-0.047612	0.604380	0.499870
C37	C	-0.630743	0.105716	-0.000120
C38	C	-0.130743	0.605716	0.499880
C39	C	-0.735050	0.107384	-0.000109
C40	C	-0.235050	0.607384	0.499891
C41	C	-1.082134	0.243420	-0.000140
C42	C	-0.582134	0.743420	0.499860
C43	C	-1.083765	0.327442	-0.000147
C44	C	-0.583765	0.827442	0.499853
N45	N	-1.089210	0.105043	-0.254984
N46	N	-0.589210	0.605043	0.245016
C47	C	-1.000502	0.375825	-0.000138
C48	C	-0.500502	0.875825	0.499862
C49	C	-1.002040	0.454773	-0.000127
C50	C	-0.502040	0.954773	0.499873
C51	C	-1.086842	0.485336	-0.000131
C52	C	-0.586842	0.985336	0.499869
C53	C	-1.170111	0.436948	-0.000137
C54	C	-0.670111	0.936948	0.499863
C55	C	-1.168572	0.358001	-0.000142
C56	C	-0.668572	0.858001	0.499858
C57	C	-1.176319	0.755328	-0.000118
C58	C	-0.676319	1.255328	0.499882
C59	C	-1.177852	0.834281	-0.000117
C60	C	-0.677852	1.334281	0.499883
C61	C	-1.009787	0.852100	-0.000104
C62	C	-0.509787	1.352100	0.499896
C63	C	-1.008248	0.773154	-0.000108
C64	C	-0.508248	1.273154	0.499892
C65	C	-1.091517	0.724772	-0.000109
C66	C	-0.591517	1.224772	0.499891
C67	C	-1.089848	0.639168	-0.000119
C68	C	-0.589848	1.139168	0.499881
C69	C	-1.088511	0.570939	-0.000128
C70	C	-0.588511	1.070939	0.499872
N71	N	-1.089150	0.105058	0.254727
N72	N	-0.589150	0.605058	0.754727
C73	C	-1.089153	0.105059	0.343725
C74	C	-0.589153	0.605059	0.843725
C75	C	-1.089166	0.105057	0.455376
C76	C	-0.589166	0.605057	0.955376
C77	C	-1.089182	0.105052	0.544367
C78	C	-0.589182	0.605052	1.044367
C79	C	-1.089195	0.105049	0.656025
C80	C	-0.589195	0.605049	1.156025
H81	H	-0.931446	0.350947	-0.000146
H82	H	-0.431446	0.850947	0.499854
H83	H	-1.239158	0.461838	-0.000143
H84	H	-0.739158	0.961838	0.499857
H85	H	-0.939194	0.748274	-0.000110
H86	H	-0.439194	1.248274	0.499890
H87	H	-0.934239	0.494163	-0.000117
H88	H	-0.434239	0.994163	0.499883
H89	H	-0.941986	0.891502	-0.000100
H90	H	-0.441986	1.391502	0.499900
H91	H	-1.246912	0.859162	-0.000119
H92	H	-0.746912	1.359162	0.499881
H93	H	-1.244122	0.715945	-0.000125
H94	H	-0.744122	1.215945	0.499875
H95	H	-1.236373	0.318608	-0.000145
H96	H	-0.736373	0.818608	0.499855
