data_functionalizedCrystal
_audit_creation_method	'MofGen! by Chris Wilmer'
_symmetry_space_group_name_H-M	'P1'
_symmetry_Int_Tables_number	1
_symmetry_cell_setting	triclinic
loop_
_symmetry_equiv_pos_as_xyz
  x,y,z
_cell_length_a	10.489741
_cell_length_b	10.654550
_cell_length_c	9.730223
_cell_angle_alpha	90.009372
_cell_angle_beta	89.994725
_cell_angle_gamma	95.487962
loop_
_atom_site_label
_atom_site_type_symbol
_atom_site_fract_x
_atom_site_fract_y
_atom_site_fract_z
O1	O	0.179163	-1.667928	-0.114402
O2	O	0.196233	-1.302457	-0.114380
O3	O	0.002096	-1.493508	-0.114383
O4	O	0.373300	-1.476876	-0.114399
O5	O	0.002087	-1.493487	0.114196
O6	O	0.196224	-1.302436	0.114200
O7	O	0.179154	-1.667906	0.114178
Zn8	Zn	0.187688	-1.485167	0.150481
Zn9	Zn	0.187699	-1.485196	-0.150683
O10	O	0.373291	-1.476855	0.114181
C11	C	0.194975	-1.255648	-0.000087
C12	C	0.191225	-1.116203	-0.000079
C13	C	-0.045439	-1.492241	-0.000094
C14	C	-0.187067	-1.488483	-0.000096
C15	C	0.180412	-1.714715	-0.000118
C16	C	0.184162	-1.854160	-0.000136
C17	C	-0.255148	-1.366923	-0.000099
C18	C	-0.347303	-1.424336	0.112599
C19	C	-0.347269	-1.424386	-0.112763
C20	C	-0.277356	-1.545947	0.112695
C21	C	-0.277313	-1.545980	-0.112768
C22	C	-0.369440	-1.603481	-0.000043
C23	C	0.420826	-1.478122	-0.000111
C24	C	0.562454	-1.481880	-0.000118
N25	N	0.187679	-1.485157	0.356017
C26	C	0.305530	-1.036771	-0.000103
C27	C	0.301999	-0.905748	-0.000127
C28	C	0.069849	-0.933603	-0.000107
C29	C	0.073381	-1.064623	-0.000073
C30	C	0.423374	-1.088351	-0.000109
C31	C	0.537688	-1.008917	-0.000135
C32	C	0.534157	-0.877895	-0.000159
C33	C	0.416312	-0.826306	-0.000156
N34	N	0.187698	-1.485216	-0.356220
C35	C	0.273628	-1.400588	0.571864
C36	C	0.273616	-1.400555	0.427981
C37	C	0.101740	-1.569789	0.427944
C38	C	0.101747	-1.569815	0.571824
C39	C	0.359579	-1.315988	0.643820
C40	C	0.445517	-1.231354	0.571904
C41	C	0.445506	-1.231321	0.428021
C42	C	0.359556	-1.315923	0.356054
H43	H	-0.205449	-1.266977	0.000020
H44	H	-0.378204	-1.372945	-0.208049
Br45	Br	-0.014884	-1.684664	0.669429
Br46	Br	0.359530	-1.315859	0.160783
H47	H	-0.019696	-1.129299	-0.000057
Br48	Br	-0.090073	-0.863588	-0.000107
Br49	Br	0.697612	-1.078927	-0.000117
Br50	Br	0.411523	-0.648487	-0.000162
H51	H	-0.378293	-1.372892	0.207883
H52	H	0.515488	-1.162467	0.630506
Br53	Br	0.562118	-1.116452	0.330419
Br54	Br	-0.226026	-1.631594	0.271673
H55	H	0.031764	-1.638670	0.369339
H56	H	0.627237	-0.813223	-0.000166
Br57	Br	0.428172	-1.266165	-0.000090
H58	H	-0.418912	-1.703518	0.000014
H59	H	-0.246289	-1.597380	-0.208058
Br60	Br	0.359607	-1.316037	0.839089
