data_functionalizedCrystal
_audit_creation_method	'MofGen! by Chris Wilmer'
_symmetry_space_group_name_H-M	'P1'
_symmetry_Int_Tables_number	1
_symmetry_cell_setting	triclinic
loop_
_symmetry_equiv_pos_as_xyz
  x,y,z
_cell_length_a	10.654550
_cell_length_b	10.654559
_cell_length_c	9.730223
_cell_angle_alpha	90.001240
_cell_angle_beta	89.996251
_cell_angle_gamma	84.486794
loop_
_atom_site_label
_atom_site_type_symbol
_atom_site_fract_x
_atom_site_fract_y
_atom_site_fract_z
O1	O	-1.667840	-0.176392	0.114394
O2	O	-1.302362	-0.193199	0.114372
O3	O	-1.493498	-0.002057	0.114383
O4	O	-1.476704	-0.367534	0.114383
O5	O	-1.493496	-0.002062	-0.114197
O6	O	-1.302360	-0.193203	-0.114208
O7	O	-1.667838	-0.176397	-0.114186
Zn8	Zn	-1.485098	-0.184801	-0.150489
Zn9	Zn	-1.485101	-0.184795	0.150675
O10	O	-1.476702	-0.367539	-0.114197
C11	C	-1.255563	-0.191967	0.000079
C12	C	-1.116119	-0.188275	0.000070
C13	C	-1.492261	0.044738	0.000096
C14	C	-1.488565	0.184181	0.000105
C15	C	-1.714637	-0.177629	0.000110
C16	C	-1.854080	-0.181321	0.000128
C17	C	-1.477938	-0.414334	0.000093
C18	C	-1.481635	-0.553777	0.000093
C19	C	-1.036637	-0.300816	0.000090
C20	C	-0.905616	-0.297340	0.000114
C21	C	-0.933572	-0.068771	0.000104
C22	C	-1.064591	-0.072249	0.000070
C23	C	-1.020496	-0.432779	0.000102
C24	C	-0.889475	-0.429302	0.000126
C25	C	-1.372552	0.235721	0.000101
C26	C	-1.369087	0.366743	0.000090
C27	C	-1.597656	0.394675	0.000093
C28	C	-1.601120	0.263655	0.000094
C29	C	-1.259997	0.156247	0.000112
C30	C	-1.143975	0.207785	0.000110
C31	C	-1.140510	0.338807	0.000099
C32	C	-1.253065	0.418291	0.000091
N33	N	-1.485105	-0.184805	-0.356025
C34	C	-1.569762	-0.100196	-0.427946
C35	C	-1.569759	-0.100181	-0.571829
C36	C	-1.400438	-0.269394	-0.571858
C37	C	-1.400436	-0.269402	-0.427977
C38	C	-1.667523	-0.002506	-0.427931
C39	C	-1.667519	-0.002491	-0.571814
N40	N	-1.485104	-0.184781	0.356211
H41	H	-1.129301	0.019393	0.000034
H42	H	-1.262806	0.049560	0.000123
O43	O	-1.015382	0.394404	0.000081
H44	H	-0.961254	0.362577	0.093252
H45	H	-1.056154	-0.474795	0.098789
O46	O	-0.828959	-0.482131	-0.130581
H47	H	-0.902831	-0.512959	-0.199897
H48	H	-0.891601	0.025694	0.000125
H49	H	-1.764031	-0.024009	-0.610858
O50	O	-1.249335	0.559610	0.000076
H51	H	-1.149754	0.582100	0.000079
O52	O	-1.022578	0.122070	0.000103
H53	H	-1.018680	0.061722	0.093277
H54	H	-1.695588	0.221692	0.000095
H55	H	-1.689293	0.459400	0.000089
H56	H	-1.331491	-0.338286	-0.369421
H57	H	-1.758707	-0.033094	-0.383299
O58	O	-1.309133	-0.360656	-0.649455
H59	H	-1.247634	-0.307227	-0.715016
O60	O	-1.059323	-0.501064	-0.126683
H61	H	-1.012588	-0.598766	-0.126667
O62	O	-1.639102	0.125349	-0.376180
H63	H	-1.625177	0.187949	-0.464951
H64	H	-0.847745	-0.479021	0.095793
O65	O	-1.627145	0.118366	-0.630905
H66	H	-1.530152	0.131254	-0.595623
