data_functionalizedCrystal
_audit_creation_method	'MofGen! by Chris Wilmer'
_symmetry_space_group_name_H-M	'P1'
_symmetry_Int_Tables_number	1
_symmetry_cell_setting	triclinic
loop_
_symmetry_equiv_pos_as_xyz
  x,y,z
_cell_length_a	12.759401
_cell_length_b	12.759400
_cell_length_c	12.759393
_cell_angle_alpha	90.029534
_cell_angle_beta	90.018144
_cell_angle_gamma	90.012838
loop_
_atom_site_label
_atom_site_type_symbol
_atom_site_fract_x
_atom_site_fract_y
_atom_site_fract_z
Zn1	Zn	1.606253	-0.418223	0.594017
Zn2	Zn	1.606156	-0.593939	0.418340
Zn3	Zn	1.430559	-0.418274	0.418353
Zn4	Zn	1.430548	-0.593859	0.593979
O5	O	1.518379	-0.506074	0.506172
O6	O	1.753261	-0.441544	0.570723
O7	O	1.582827	-0.570691	0.271321
O8	O	1.453910	-0.271246	0.441677
O9	O	1.753190	-0.570642	0.441655
O10	O	1.582992	-0.271209	0.570736
O11	O	1.453816	-0.441631	0.271330
O12	O	1.283536	-0.441553	0.441640
O13	O	1.453892	-0.570506	0.741005
O14	O	1.283529	-0.570556	0.570671
O15	O	1.582981	-0.441467	0.741033
O16	O	1.582816	-0.740950	0.441618
O17	O	1.453798	-0.740891	0.570659
C18	C	1.245412	-0.506052	0.506153
C19	C	1.128635	-0.506068	0.506170
C20	C	0.964013	-0.573208	0.438892
C21	C	1.073737	-0.573187	0.438874
C22	C	1.073804	-0.438959	0.573481
C23	C	0.964082	-0.438975	0.573493
C24	C	0.909120	-0.640339	0.371600
C25	C	0.963944	-0.707447	0.304287
C26	C	1.073668	-0.707426	0.304269
C27	C	1.128568	-0.640296	0.371564
C28	C	1.518324	-0.779041	0.506156
C29	C	1.518396	-0.895818	0.506184
C30	C	1.585576	-0.950581	0.573440
C31	C	1.585624	-1.060305	0.573465
C32	C	1.451312	-1.060493	0.438970
C33	C	1.451259	-0.950771	0.438950
C34	C	1.652713	-0.895627	0.640673
C35	C	1.719899	-0.950390	0.707934
C36	C	1.719948	-1.060114	0.707960
C37	C	1.652811	-1.115075	0.640725
C38	C	1.792412	-0.506096	0.506192
C39	C	1.909189	-0.506106	0.506200
C40	C	1.518446	-0.505972	0.780206
C41	C	1.518475	-0.505929	0.896982
C42	C	1.518463	-0.232040	0.506212
C43	C	1.518499	-0.115264	0.506229
C44	C	1.518372	-0.506099	0.233205
C45	C	1.518547	-0.505847	0.116429
C46	C	1.451280	-0.573088	0.951832
C47	C	1.451319	-0.573050	1.061556
C48	C	1.585749	-0.438684	1.061572
C49	C	1.585715	-0.438729	0.951850
C50	C	1.384040	-0.640288	0.896964
C51	C	1.316839	-0.707452	0.951814
C52	C	1.316878	-0.707414	1.061538
C53	C	1.384117	-0.640212	1.116413
H54	H	1.652683	-0.806284	0.640658
N55	N	1.658194	-0.366309	0.892671
H56	H	1.641921	-0.291225	0.911755
H57	H	1.647928	-0.376644	0.814860
H58	H	1.774645	-1.104699	0.762735
H59	H	1.384150	-0.640193	1.205758
H60	H	1.384000	-0.640325	0.807621
H61	H	1.118303	-0.762062	0.249453
N62	N	1.658266	-0.366205	1.120752
H63	H	1.648089	-0.376367	1.198584
H64	H	1.641931	-0.291177	1.101582
H65	H	0.819777	-0.640366	0.371609
N66	N	0.904734	-0.779849	0.231713
H67	H	0.956118	-0.822353	0.189069
H68	H	0.859187	-0.737036	0.183172
N69	N	1.378799	-0.891696	0.366416
H70	H	1.336280	-0.943156	0.323822
H71	H	1.421567	-0.846172	0.317826
H72	H	1.262102	-0.762171	0.907127
H73	H	1.262167	-0.762109	1.106193
N74	N	1.246913	-0.640320	0.371590
H75	H	1.273370	-0.587632	0.424450
H76	H	1.273277	-0.620965	0.299525
H77	H	1.118512	-0.384306	0.628269
H78	H	1.774553	-0.905635	0.762681
N79	N	0.904941	-0.366600	0.646084
H80	H	0.956362	-0.324076	0.688718
H81	H	0.859432	-0.409431	0.694635
H82	H	1.652844	-1.204420	0.640763
N83	N	1.378912	-1.119767	0.366449
H84	H	1.389144	-1.197585	0.376663
H85	H	1.395302	-1.100625	0.291427
