data_functionalizedCrystal
_audit_creation_method	'MofGen! by Chris Wilmer'
_symmetry_space_group_name_H-M	'P1'
_symmetry_Int_Tables_number	1
_symmetry_cell_setting	triclinic
loop_
_symmetry_equiv_pos_as_xyz
  x,y,z
_cell_length_a	23.532407
_cell_length_b	17.699083
_cell_length_c	16.776229
_cell_angle_alpha	90.001114
_cell_angle_beta	89.988688
_cell_angle_gamma	96.934153
loop_
_atom_site_label
_atom_site_type_symbol
_atom_site_fract_x
_atom_site_fract_y
_atom_site_fract_z
O1	O	0.072020	-1.003713	-0.066185
O2	O	0.572020	-0.503713	0.433815
O3	O	0.081390	-0.783287	-0.066212
O4	O	0.581390	-0.283287	0.433788
O5	O	-0.006208	-0.900147	-0.066183
O6	O	0.493792	-0.400147	0.433817
O7	O	0.159617	-0.886853	-0.066214
O8	O	0.659617	-0.386853	0.433786
O9	O	-0.006213	-0.900132	0.066394
O10	O	0.493787	-0.400132	0.566394
O11	O	0.081384	-0.783272	0.066365
O12	O	0.581384	-0.283272	0.566365
O13	O	0.072015	-1.003698	0.066392
O14	O	0.572015	-0.503698	0.566392
Zn15	Zn	0.076699	-0.893482	0.087428
Zn16	Zn	0.576699	-0.393482	0.587428
Zn17	Zn	0.076706	-0.893503	-0.087248
Zn18	Zn	0.576706	-0.393503	0.412752
O19	O	0.159612	-0.886838	0.066363
O20	O	0.659612	-0.386838	0.566363
C21	C	0.081051	-0.755084	0.000073
C22	C	0.581051	-0.255084	0.500073
C23	C	0.080044	-0.671071	0.000063
C24	C	0.580044	-0.171071	0.500063
C25	C	-0.027427	-0.899801	0.000107
C26	C	0.472573	-0.399801	0.500107
C27	C	-0.090647	-0.898783	0.000113
C28	C	0.409353	-0.398783	0.500113
N29	N	0.076693	-0.893474	0.206639
N30	N	0.576693	-0.393474	0.706639
C31	C	-0.489570	-0.961554	0.000077
C32	C	0.010430	-0.461554	0.500077
C33	C	-0.548973	-0.960609	0.000071
C34	C	-0.048973	-0.460609	0.500071
O35	O	-0.585550	-1.018799	0.000049
O36	O	-0.085550	-0.518799	0.500049
N37	N	-0.571799	-0.891136	0.000063
N38	N	-0.071799	-0.391136	0.500063
C39	C	-0.535218	-0.822604	0.000053
C40	C	-0.035218	-0.322604	0.500053
O41	O	-0.560088	-0.763424	0.000045
O42	O	-0.060088	-0.263424	0.500045
C43	C	-0.475816	-0.823550	0.000054
C44	C	0.024184	-0.323550	0.500054
C45	C	-0.452994	-0.893028	0.000070
C46	C	0.047006	-0.393028	0.500070
C47	C	-0.466747	-1.031026	0.000093
C48	C	0.033253	-0.531026	0.500093
C49	C	-0.407348	-1.031972	0.000100
C50	C	0.092652	-0.531972	0.500100
C51	C	-0.370772	-0.963445	0.000093
C52	C	0.129228	-0.463445	0.500093
C53	C	-0.393595	-0.893973	0.000078
C54	C	0.106405	-0.393973	0.500078
C55	C	-0.439237	-0.755019	0.000038
C56	C	0.060763	-0.255019	0.500038
C57	C	-0.379832	-0.755971	0.000038
C58	C	0.120168	-0.255971	0.500038
C59	C	-0.357009	-0.825448	0.000054
C60	C	0.142991	-0.325448	0.500054
C61	C	-0.297620	-0.826391	0.000078
C62	C	0.202380	-0.326391	0.500078
N63	N	-0.274795	-0.895864	0.000086
N64	N	0.225205	-0.395864	0.500086
C65	C	-0.311371	-0.964391	0.000093
C66	C	0.188629	-0.464391	0.500093
C67	C	-0.659966	-0.820622	0.000051
C68	C	-0.159966	-0.320622	0.500051
C69	C	-0.719367	-0.819674	0.000056
C70	C	-0.219367	-0.319674	0.500056
C71	C	-0.733118	-0.957680	0.000073
C72	C	-0.233118	-0.457680	0.500073
C73	C	-0.673716	-0.958626	0.000073
C74	C	-0.173716	-0.458626	0.500073
C75	C	-0.637141	-0.890095	0.000059
C76	C	-0.137141	-0.390095	0.500059
C77	C	-0.186628	-0.966371	0.000110
C78	C	0.313372	-0.466371	0.500110
C79	C	-0.127223	-0.967310	0.000121
C80	C	0.372777	-0.467310	0.500121
C81	C	-0.113478	-0.829305	0.000100
C82	C	0.386522	-0.329305	0.500100
C83	C	-0.172877	-0.828365	0.000094
C84	C	0.327123	-0.328365	0.500094
C85	C	-0.209452	-0.896904	0.000096
C86	C	0.290548	-0.396904	0.500096
O87	O	-0.261008	-0.768232	0.000097
O88	O	0.238992	-0.268232	0.500097
O89	O	-0.286493	-1.023560	0.000091
O90	O	0.213507	-0.523560	0.500091
C91	C	0.180832	-0.887184	0.000071
C92	C	0.680832	-0.387184	0.500071
C93	C	0.244052	-0.888202	0.000060
C94	C	0.744052	-0.388202	0.500060
C95	C	0.072353	-1.031901	0.000105
C96	C	0.572353	-0.531901	0.500105
C97	C	0.073360	-1.115914	0.000110
C98	C	0.573360	-0.615914	0.500110
C99	C	0.131462	-0.622189	0.000054
C100	C	0.631462	-0.122189	0.500054
C101	C	0.130512	-0.543251	0.000065
C102	C	0.630512	-0.043251	0.500065
C103	C	0.078144	-0.513196	0.000079
C104	C	0.578144	-0.013196	0.500079
C105	C	0.026722	-0.562084	0.000090
C106	C	0.526722	-0.062084	0.500090
C107	C	0.027672	-0.641021	0.000086
C108	C	0.527672	-0.141021	0.500086
C109	C	0.022888	-0.243740	0.000111
C110	C	0.522888	0.256260	0.500111
C111	C	0.021942	-0.164797	0.000113
C112	C	0.521942	0.335203	0.500113
C113	C	0.125728	-0.145970	0.000090
C114	C	0.625728	0.354030	0.500090
C115	C	0.126678	-0.224907	0.000085
C116	C	0.626678	0.275093	0.500085
C117	C	0.075257	-0.273788	0.000101
C118	C	0.575257	0.226212	0.500101
C119	C	0.076287	-0.359382	0.000091
C120	C	0.576287	0.140618	0.500091
C121	C	0.077113	-0.427603	0.000083
C122	C	0.577113	0.072397	0.500083
N123	N	0.076706	-0.893517	-0.206459
N124	N	0.576706	-0.393517	0.293541
C125	C	0.037921	-0.945235	0.248369
C126	C	0.537921	-0.445235	0.748369
C127	C	0.037921	-0.945239	0.331821
C128	C	0.537921	-0.445239	0.831821
C129	C	0.076696	-0.893485	0.373542
C130	C	0.576696	-0.393485	0.873542
C131	C	0.115470	-0.841719	0.331806
C132	C	0.615470	-0.341719	0.831806
C133	C	0.115467	-0.841712	0.248355
C134	C	0.615467	-0.341712	0.748355
C135	C	0.115481	-0.841746	0.668353
C136	C	0.615481	-0.341746	1.168353
C137	C	0.115482	-0.841759	0.751810
C138	C	0.615482	-0.341759	1.251810
C139	C	0.037935	-0.945274	0.751819
C140	C	0.537935	-0.445274	1.251819
C141	C	0.037932	-0.945267	0.668368
C142	C	0.537932	-0.445267	1.168368
C143	C	0.076704	-0.893498	0.626640
C144	C	0.576704	-0.393498	1.126640
C145	C	0.076703	-0.893493	0.536151
C146	C	0.576703	-0.393493	1.036151
C147	C	0.076699	-0.893493	0.464029
C148	C	0.576699	-0.393493	0.964029
H149	H	-0.108645	-1.023889	0.000136
H150	H	0.391355	-0.523889	0.500136
C151	C	0.158119	-0.784777	0.202452
C152	C	0.658119	-0.284777	0.702452
H153	H	0.181216	-0.753960	0.239250
H154	H	0.681216	-0.253960	0.739250
H155	H	0.137661	-0.753426	0.169909
H156	H	0.637661	-0.253426	0.669909
H157	H	0.181802	-0.811825	0.169888
H158	H	0.681802	-0.311825	0.669888
H159	H	-0.083687	-0.773512	0.000097
H160	H	0.416313	-0.273512	0.500097
C161	C	0.158133	-0.784825	0.797705
C162	C	0.658133	-0.284825	1.297705
H163	H	0.152584	-0.792252	0.853381
H164	H	0.652584	-0.292252	1.353381
H165	H	0.151992	-0.734360	0.784042
H166	H	0.651992	-0.234360	1.284042
H167	H	0.196137	-0.792754	0.784015
H168	H	0.696137	-0.292754	1.284015
H169	H	-0.457808	-0.698442	0.000020
H170	H	0.042192	-0.198442	0.500020
H171	H	-0.014197	-0.680820	0.000093
H172	H	0.485803	-0.180820	0.500093
H173	H	-0.388773	-1.088547	0.000110
H174	H	0.111227	-0.588547	0.500110
H175	H	-0.496522	-1.086833	0.000096
H176	H	0.003478	-0.586833	0.500096
C177	C	-0.033673	-0.297499	0.000123
C178	C	0.466327	0.202501	0.500123
H179	H	-0.064996	-0.268292	0.000123
H180	H	0.435004	0.231708	0.500123
H181	H	-0.035464	-0.328685	0.046355
H182	H	0.464536	0.171315	0.546355
H183	H	-0.035460	-0.328683	-0.046116
H184	H	0.464540	0.171317	0.453884
C185	C	-0.004733	-1.002164	0.202483
C186	C	0.495267	-0.502164	0.702483
H187	H	-0.027828	-1.032986	0.239291
H188	H	0.472172	-0.532986	0.739291
H189	H	0.015721	-1.033512	0.169916
H190	H	0.515721	-0.533512	0.669916
H191	H	-0.028418	-0.975110	0.169943
H192	H	0.471582	-0.475110	0.669943
H193	H	0.006349	-0.987387	0.365797
H194	H	0.506349	-0.487387	0.865797
C195	C	-0.004720	-1.002212	0.797722
C196	C	0.495280	-0.502212	1.297722
H197	H	0.000828	-0.994801	0.853398
H198	H	0.500828	-0.494801	1.353398
H199	H	0.001417	-1.052674	0.784039
H200	H	0.501417	-0.552674	1.284039
H201	H	-0.042724	-0.994275	0.784056
H202	H	0.457276	-0.494275	1.284056
C203	C	0.158133	-0.784809	0.622462
C204	C	0.658133	-0.284809	1.122462
H205	H	0.181230	-0.753995	0.659264
H206	H	0.681230	-0.253995	1.159264
H207	H	0.137678	-0.753454	0.589919
H208	H	0.637678	-0.253454	1.089919
H209	H	0.181816	-0.811856	0.589898
H210	H	0.681816	-0.311856	1.089898
C211	C	0.158122	-0.784792	0.377696
C212	C	0.658122	-0.284792	0.877696
H213	H	0.152576	-0.792214	0.433374
H214	H	0.652576	-0.292214	0.933374
H215	H	0.151986	-0.734326	0.364031
H216	H	0.651986	-0.234326	0.864031
H217	H	0.196125	-0.792728	0.364003
H218	H	0.696125	-0.292728	0.864003
H219	H	-0.216401	-1.022182	0.000109
H220	H	0.283599	-0.522182	0.500109
H221	H	-0.737943	-0.763099	0.000057
H222	H	-0.237943	-0.263099	0.500057
H223	H	-0.655139	-1.015201	0.000086
H224	H	-0.155139	-0.515201	0.500086
C225	C	-0.030883	-0.529029	0.000105
C226	C	0.469117	-0.029029	0.500105
H227	H	-0.061370	-0.569449	0.000117
H228	H	0.438630	-0.069449	0.500117
H229	H	-0.033410	-0.498626	-0.046126
H230	H	0.466590	0.001374	0.453874
H231	H	-0.033413	-0.498629	0.046345
H232	H	0.466587	0.001371	0.546345
H233	H	0.167598	-0.106161	0.000081
H234	H	0.667598	0.393839	0.500081
C235	C	-0.773357	-1.033061	0.000075
C236	C	-0.273357	-0.533061	0.500075
H237	H	-0.751260	-1.074577	0.000087
H238	H	-0.251260	-0.574577	0.500087
H239	H	-0.796808	-1.035561	-0.046158
H240	H	-0.296808	-0.535561	0.453842
H241	H	-0.796822	-1.035552	0.046312
H242	H	-0.296822	-0.535552	0.546312
C243	C	-0.619738	-0.745232	0.000050
C244	C	-0.119738	-0.245232	0.500050
H245	H	-0.641844	-0.703725	0.000053
H246	H	-0.141844	-0.203725	0.500053
H247	H	-0.596270	-0.742728	-0.046180
H248	H	-0.096270	-0.242728	0.453820
H249	H	-0.596289	-0.742727	0.046291
H250	H	-0.096289	-0.242727	0.546291
C251	C	-0.339602	-0.680584	0.000026
C252	C	0.160398	-0.180584	0.500026
H253	H	-0.361706	-0.639075	0.000022
H254	H	0.138294	-0.139075	0.500022
H255	H	-0.316134	-0.678089	-0.046204
H256	H	0.183866	-0.178089	0.453796
H257	H	-0.316153	-0.678075	0.046267
H258	H	0.183847	-0.178075	0.546267
C259	C	-0.197983	-0.751942	0.000074
C260	C	0.302017	-0.251942	0.500074
H261	H	-0.167690	-0.711266	0.000065
H262	H	0.332310	-0.211266	0.500065
H263	H	-0.220884	-0.748691	0.046297
H264	H	0.279116	-0.248691	0.546297
H265	H	-0.220855	-0.748716	-0.046174
H266	H	0.279145	-0.248716	0.453826
H267	H	0.006360	-0.987412	0.634402
H268	H	0.506360	-0.487412	1.134402
H269	H	0.172382	-0.503454	0.000056
H270	H	0.672382	-0.003454	0.500056
C271	C	0.189068	-0.655243	0.000038
C272	C	0.689068	-0.155243	0.500038
H273	H	0.219554	-0.614822	0.000041
H274	H	0.719554	-0.114822	0.500041
H275	H	0.191600	-0.685643	-0.046196
H276	H	0.691600	-0.185643	0.453804
H277	H	0.191594	-0.685645	0.046274
H278	H	0.691594	-0.185645	0.546274
H279	H	0.169322	-0.249373	0.000070
H280	H	0.669322	0.250627	0.500070
H281	H	-0.020705	-0.140330	0.000126
H282	H	0.479295	0.359670	0.500126
