data_functionalizedCrystal
_audit_creation_method	'MofGen! by Chris Wilmer'
_symmetry_space_group_name_H-M	'P1'
_symmetry_Int_Tables_number	1
_symmetry_cell_setting	triclinic
loop_
_symmetry_equiv_pos_as_xyz
  x,y,z
_cell_length_a	20.919309
_cell_length_b	14.446369
_cell_length_c	20.919331
_cell_angle_alpha	93.155338
_cell_angle_beta	64.531014
_cell_angle_gamma	57.441004
loop_
_atom_site_label
_atom_site_type_symbol
_atom_site_fract_x
_atom_site_fract_y
_atom_site_fract_z
Zr1	Zr	0.700766	-0.109647	0.644065
O2	O	0.834335	-0.272712	0.547039
O3	O	0.567201	-0.054728	0.670198
O4	O	0.700771	-0.254960	0.675397
O5	O	0.700759	0.079858	0.541846
O6	O	0.700771	-0.246566	0.780754
O7	O	0.700765	-0.072480	0.541840
O8	O	0.461838	0.111613	0.771454
O9	O	0.939692	-0.278321	0.551146
O10	O	0.622136	-0.030998	0.764332
O11	O	0.622132	0.076425	0.685709
O12	O	0.779394	-0.159322	0.691830
O13	O	0.779390	-0.051899	0.613207
Zr14	Zr	0.700756	0.146702	0.812106
Zr15	Zr	0.700765	-0.096259	0.812097
Zr16	Zr	0.700757	0.133314	0.644073
Zr17	Zr	0.868798	-0.118592	0.650614
Zr18	Zr	0.532724	0.155648	0.805557
O19	O	0.834320	0.091784	0.785973
O20	O	0.834333	-0.253676	0.785960
O21	O	0.834322	0.072748	0.547052
O22	O	0.567187	0.309768	0.909131
O23	O	0.567200	-0.035692	0.909119
O24	O	0.567188	0.290732	0.670210
O25	O	0.700762	-0.042802	0.914325
O26	O	0.700750	0.292016	0.780774
O27	O	0.700751	0.283621	0.675416
O28	O	0.700757	0.109535	0.914330
O29	O	0.939691	-0.267679	0.684710
O30	O	0.461831	0.304735	0.771461
O31	O	0.461830	0.315376	0.905025
O32	O	0.461837	0.122254	0.905018
O33	O	0.939684	-0.085199	0.551153
O34	O	0.939683	-0.074557	0.684716
O35	O	0.622128	0.196378	0.764340
O36	O	0.622131	0.088954	0.842963
O37	O	0.779389	-0.039370	0.770462
O38	O	0.779385	0.068054	0.691839
C39	C	0.490579	0.029717	0.719893
C40	C	0.419245	0.033514	0.717113
C41	C	0.700762	0.001782	0.517902
C42	C	0.700763	-0.003902	0.446567
C43	C	0.700749	0.322435	0.728096
C44	C	0.700745	0.425579	0.728100
C45	C	0.385734	-0.020776	0.756845
C46	C	0.318704	-0.017196	0.754234
C47	C	0.285190	0.040666	0.711887
C48	C	0.318704	0.094964	0.672153
C49	C	0.385728	0.091391	0.674769
C50	C	0.082815	0.054266	0.701940
C51	C	0.015787	0.057831	0.699326
C52	C	0.015791	-0.054327	0.781408
C53	C	0.082821	-0.057901	0.784016
C54	C	0.116325	-0.003599	0.744286
C55	C	0.216676	0.044323	0.709215
C56	C	0.184833	-0.007249	0.746963
C57	C	0.910943	0.007339	0.736278
C58	C	0.982276	0.003541	0.739058
C59	C	0.700772	-0.285380	0.728075
C60	C	0.700776	-0.388523	0.728071
C61	C	0.601573	0.653158	0.773570
C62	C	0.601506	0.545952	0.773850
C63	C	0.750009	0.429169	0.766190
C64	C	0.749380	0.537000	0.766521
C65	C	0.751423	0.525783	0.644491
C66	C	0.749554	0.419925	0.644558
C67	C	0.700757	0.077351	0.413056
C68	C	0.700762	0.071998	0.346027
C69	C	0.700766	-0.014603	0.312515
C70	C	0.700775	-0.095865	0.346030
C71	C	0.700776	-0.090516	0.413054
C72	C	0.700768	-0.034956	0.110143
C73	C	0.700764	-0.040296	0.043115
C74	C	0.700754	0.127567	0.043116
C75	C	0.700750	0.132912	0.110144
C76	C	0.700763	0.051647	0.143651
C77	C	0.700769	-0.020074	0.244003
C78	C	0.700767	0.057113	0.212159
C79	C	0.700759	0.035274	0.938269
C80	C	0.700759	0.040957	1.009603
C81	C	0.490577	0.046463	0.930076
C82	C	0.419243	0.055944	0.998630
C83	C	0.490567	0.333624	0.719904
C84	C	0.419230	0.440565	0.717127
C85	C	0.490566	0.350371	0.930087
C86	C	0.419228	0.462995	0.998645
C87	C	0.910956	-0.313315	0.526083
C88	C	0.982294	-0.425940	0.457526
C89	C	0.910944	-0.009408	0.526094
C90	C	0.982278	-0.018889	0.457540
C91	C	0.910954	-0.296569	0.736267
C92	C	0.982292	-0.403510	0.739044
C93	C	0.385746	-0.002228	0.989779
C94	C	0.318729	0.006657	1.054187
C95	C	0.285206	0.073721	1.127445
C96	C	0.318709	0.131894	1.136295
C97	C	0.385730	0.123002	1.071888
C98	C	0.385726	0.553410	0.756868
C99	C	0.318706	0.653901	0.754256
C100	C	0.285186	0.641545	0.711908
C101	C	0.318696	0.528688	0.672162
C102	C	0.385720	0.428199	0.674770
C103	C	0.385728	0.459811	1.071888
C104	C	0.318708	0.565625	1.136312
C105	C	0.285183	0.674621	1.127491
C106	C	0.318689	0.677801	1.054241
C107	C	0.385713	0.571989	0.989818
C108	C	1.015801	-0.422756	0.384283
C109	C	1.082843	-0.528571	0.319860
C110	C	1.116371	-0.637567	0.328681
C111	C	1.082861	-0.640747	0.401931
C112	C	1.015825	-0.534934	0.466353
C113	C	1.015782	0.039273	0.466391
C114	C	1.082818	0.030360	0.401985
C115	C	1.116343	-0.036707	0.328727
C116	C	1.082837	-0.094875	0.319877
C117	C	1.015807	-0.085969	0.384284
C118	C	1.015790	-0.391116	0.781399
C119	C	1.082811	-0.491587	0.784023
C120	C	1.116336	-0.604452	0.744287
C121	C	1.082831	-0.616844	0.701930
C122	C	1.015807	-0.516373	0.699311
H123	H	0.413021	-0.067900	0.791325
C124	C	0.850149	0.479475	0.598415
N125	N	0.924506	0.444605	0.563717
H126	H	0.988491	0.093893	0.526036
H127	H	-0.011496	0.104950	0.664838
H128	H	0.700777	-0.101123	0.137420
C129	C	0.281795	0.797710	1.044550
N130	N	0.253999	0.888029	1.037253
H131	H	1.110084	-0.481475	0.818514
H132	H	0.413014	0.135596	0.642413
H133	H	0.988506	-0.334016	0.377086
H134	H	0.291459	-0.040716	1.046967
H135	H	0.700744	0.193728	0.015828
C136	C	1.119655	0.094365	0.411736
N137	N	1.147397	0.142577	0.419083
H138	H	0.700768	0.127621	0.239445
C139	C	0.119632	0.114046	0.658263
N140	N	0.147355	0.159092	0.625374
C141	C	0.211475	0.083500	1.198287
N142	N	0.155938	0.090866	1.251642
C143	C	0.422614	-0.076014	0.909202
N144	N	0.450384	-0.131600	0.848512
C145	C	0.702074	0.614324	0.849730
N146	N	0.666439	0.672563	0.912405
H147	H	0.988544	-0.537540	0.525989
C148	C	1.190074	-0.046486	0.257885
N149	N	1.245606	-0.053843	0.204529
C150	C	0.700778	-0.191126	0.309165
N151	N	0.700776	-0.262876	0.281401
C152	C	0.119678	-0.121550	0.830605
N153	N	0.147440	-0.169493	0.865695
H154	H	0.291430	0.745784	0.786625
H155	H	0.291405	0.186496	1.195950
C156	C	0.281836	0.158613	0.625570
N157	N	0.254071	0.206551	0.590480
H158	H	1.110115	-0.525958	0.260223
H159	H	0.413011	0.563493	0.791352
C160	C	0.422560	0.187014	1.081637
N161	N	0.450296	0.235234	1.088985
C162	C	0.221711	-0.070913	0.793533
N163	N	0.249500	-0.118876	0.828604
C164	C	0.700748	0.172624	0.449915
N165	N	0.700744	0.244385	0.477675
C166	C	1.119713	-0.168628	0.239286
N167	N	1.147482	-0.224166	0.178582
H168	H	0.700782	-0.156682	0.440338
C169	C	0.978920	-0.266973	0.825121
N170	N	0.951150	-0.173470	0.858059
C171	C	0.211450	0.752100	0.709055
N172	N	0.155907	0.835374	0.706913
C173	C	0.549285	0.548299	0.739046
N174	N	0.509945	0.550076	0.712834
C175	C	0.700790	-0.135585	0.006243
N176	N	0.700814	-0.207358	-0.021531
H177	H	1.170912	-0.686252	0.746426
C178	C	0.978978	-0.530028	0.652702
N179	N	0.951244	-0.540322	0.617592
C180	C	0.281810	0.515117	0.625586
N181	N	0.254020	0.504900	0.590509
H182	H	0.412989	0.336320	0.642410
C183	C	0.847705	0.492143	0.724926
N184	N	0.921763	0.458354	0.693602
C185	C	0.978950	-0.149942	0.374534
N186	N	0.951191	-0.198127	0.367184
C187	C	0.281856	0.562100	1.216880
N188	N	0.254098	0.559441	1.277562
H189	H	0.413014	0.371072	1.079084
C190	C	0.211448	0.791008	1.198365
N191	N	0.155907	0.878668	1.251750
H192	H	0.412979	0.574598	0.930183
H193	H	0.291419	-0.061403	0.786587
H194	H	1.170955	-0.723718	0.276218
H195	H	1.110138	-0.708752	0.669578
H196	H	0.700770	-0.090585	0.216712
C197	C	0.700695	0.228221	0.147025
N198	N	0.700632	0.300027	0.174815
C199	C	0.548974	0.726242	0.738905
N200	N	0.509356	0.781291	0.712792
H201	H	1.110168	-0.729505	0.409104
H202	H	0.189382	0.091435	0.674736
C203	C	0.549236	0.736958	0.856283
N204	N	0.509821	0.800067	0.918584
H205	H	0.562610	0.555508	0.835448
C206	C	0.848583	0.314498	0.723806
N207	N	0.922829	0.228124	0.691882
H208	H	-0.011495	-0.098536	0.813756
C209	C	0.703779	0.435476	0.848638
N210	N	0.668953	0.440234	0.910740
H211	H	0.719679	0.575081	0.613037
C212	C	0.847369	0.303488	0.594503
N213	N	0.921046	0.215786	0.556805
C214	C	0.701136	0.420055	0.606109
N215	N	0.664705	0.420064	0.577132
C216	C	0.700750	0.161389	0.309170
N217	N	0.700740	0.228723	0.281410
