data_functionalizedCrystal
_audit_creation_method	'MofGen! by Chris Wilmer'
_symmetry_space_group_name_H-M	'P1'
_symmetry_Int_Tables_number	1
_symmetry_cell_setting	triclinic
loop_
_symmetry_equiv_pos_as_xyz
  x,y,z
_cell_length_a	8.497374
_cell_length_b	8.497374
_cell_length_c	17.077404
_cell_angle_alpha	90.003463
_cell_angle_beta	89.994565
_cell_angle_gamma	90.000078
loop_
_atom_site_label
_atom_site_type_symbol
_atom_site_fract_x
_atom_site_fract_y
_atom_site_fract_z
Zn1	Zn	-0.628320	0.892121	1.200086
Zn2	Zn	-0.892066	0.628362	1.200095
Zn3	Zn	-0.628295	0.628340	1.068855
Zn4	Zn	-0.892053	0.892086	1.068851
O5	O	-0.760183	0.760227	1.134472
O6	O	-0.663322	0.857157	1.309934
O7	O	-0.857071	0.407597	1.182691
O8	O	-0.407536	0.663337	1.086260
O9	O	-0.857095	0.663374	1.309941
O10	O	-0.407554	0.857136	1.182676
O11	O	-0.663279	0.407581	1.086269
O12	O	-0.663267	0.663303	0.959007
O13	O	-0.857074	1.112853	1.086255
O14	O	-0.857049	0.857075	0.959005
O15	O	-0.663310	1.112879	1.182672
O16	O	-1.112826	0.663340	1.182688
O17	O	-1.112817	0.857097	1.086264
C18	C	-0.760155	0.760184	0.930524
C19	C	-0.760180	0.760203	0.843274
C20	C	-0.170063	0.760222	1.134469
C21	C	-0.348707	0.760231	1.134473
C22	C	-0.861235	0.860938	0.802303
C23	C	-0.861238	0.860964	0.720323
C24	C	-0.760194	0.760244	0.679315
C25	C	-0.659128	0.659504	0.720291
C26	C	-0.659118	0.659488	0.802270
C27	C	-0.659159	0.659542	0.549421
C28	C	-0.659171	0.659556	0.467437
C29	C	-0.861280	0.861018	0.467474
C30	C	-0.861270	0.861001	0.549453
C31	C	-0.760205	0.760259	0.590424
C32	C	-0.760186	1.171708	1.134466
C33	C	-0.760202	1.350352	1.134468
C34	C	-0.760213	0.760272	1.339216
C35	C	-0.760226	0.760291	1.426466
H36	H	-0.943529	0.942991	0.686968
H37	H	-0.943557	0.943007	0.582839
N38	N	-0.550153	0.550853	0.676069
H39	H	-0.574488	0.438103	0.690340
H40	H	-0.437514	0.575657	0.690345
H41	H	-0.576873	0.577560	0.434050
N42	N	-0.970291	0.969671	0.423288
H43	H	-0.945987	1.082427	0.437564
H44	H	-1.082918	0.944830	0.437583
H45	H	-0.576821	0.577467	0.835628
H46	H	-0.943522	0.942951	0.835686
H47	H	-0.576848	0.577521	0.582777
