data_functionalizedCrystal
_audit_creation_method	'MofGen! by Chris Wilmer'
_symmetry_space_group_name_H-M	'P1'
_symmetry_Int_Tables_number	1
_symmetry_cell_setting	triclinic
loop_
_symmetry_equiv_pos_as_xyz
  x,y,z
_cell_length_a	14.853567
_cell_length_b	8.559649
_cell_length_c	7.681481
_cell_angle_alpha	85.069100
_cell_angle_beta	95.734544
_cell_angle_gamma	76.706797
loop_
_atom_site_label
_atom_site_type_symbol
_atom_site_fract_x
_atom_site_fract_y
_atom_site_fract_z
O1	O	-1.172214	-0.223675	0.146301
O2	O	-0.908015	-0.248525	0.146331
O3	O	-1.063391	-0.003549	0.146312
O4	O	-1.016838	-0.468651	0.146320
O5	O	-1.082520	0.026671	-0.146548
O6	O	-0.927144	-0.218304	-0.146529
O7	O	-1.191343	-0.193454	-0.146559
Zn8	Zn	-1.062281	-0.201081	-0.193042
Zn9	Zn	-1.037077	-0.240898	0.192814
O10	O	-1.035967	-0.438430	-0.146540
C11	C	-0.884069	-0.232289	-0.000096
C12	C	-0.784221	-0.228917	-0.000084
C13	C	-1.215289	-0.209691	-0.000129
C14	C	-1.315136	-0.213064	-0.000128
C15	C	-1.076483	0.071083	-0.000116
C16	C	-1.086983	0.248439	-0.000107
C17	C	-0.382865	-0.069131	-0.000127
C18	C	-0.341228	-0.360167	-0.000119
C19	C	-0.435039	-0.363339	-0.000114
C20	C	-0.502768	-0.219406	-0.000112
C21	C	-0.476686	-0.072300	-0.000116
C22	C	-0.461128	-0.510444	-0.000092
C23	C	-0.554944	-0.513623	-0.000084
C24	C	-0.622676	-0.369687	-0.000095
C25	C	-0.596589	-0.222575	-0.000101
C26	C	-0.664318	-0.078642	-0.000099
C27	C	-0.638233	0.068473	-0.000117
C28	C	-0.544417	0.071636	-0.000126
C29	C	-0.716492	-0.372850	-0.000086
C30	C	-0.758138	-0.081811	-0.000088
C31	C	-1.022875	-0.513063	-0.000109
C32	C	-1.012373	-0.690420	-0.000106
N33	N	-1.079488	-0.173906	-0.456378
N34	N	-1.019878	-0.268061	0.456150
H35	H	-0.813280	0.035400	-0.000093
N36	N	-0.917121	0.199189	-0.000112
H37	H	-0.902264	0.118008	0.108453
H38	H	-0.868882	0.265292	-0.000186
H39	H	-1.158900	0.331787	-0.000129
H40	H	-0.959030	-0.364164	-0.468645
H41	H	-1.140346	-0.077808	-0.531592
H42	H	-0.576173	-0.633413	-0.000069
N43	N	-0.516284	0.230299	-0.000159
H44	H	-0.446575	0.210462	-0.000162
H45	H	-0.534677	0.282098	0.108402
N46	N	-0.354741	0.089540	-0.000170
H47	H	-0.285033	0.069718	-0.000187
H48	H	-0.373131	0.141338	0.108393
H49	H	-0.286077	-0.477352	-0.000106
N50	N	-0.711285	0.223711	-0.000102
H51	H	-0.774671	0.199369	-0.000085
H52	H	-0.711086	0.299014	-0.108677
H53	H	-0.405976	-0.627629	-0.000075
H54	H	-0.737726	-0.492628	-0.000074
