data_functionalizedCrystal
_audit_creation_method	'MofGen! by Chris Wilmer'
_symmetry_space_group_name_H-M	'P1'
_symmetry_Int_Tables_number	1
_symmetry_cell_setting	triclinic
loop_
_symmetry_equiv_pos_as_xyz
  x,y,z
_cell_length_a	13.635800
_cell_length_b	7.190339
_cell_length_c	7.190378
_cell_angle_alpha	97.677859
_cell_angle_beta	119.389020
_cell_angle_gamma	60.611724
loop_
_atom_site_label
_atom_site_type_symbol
_atom_site_fract_x
_atom_site_fract_y
_atom_site_fract_z
V1	V	-2.154344	0.291746	-0.663518
V2	V	-1.654344	0.791746	-0.163518
O3	O	-2.100810	-0.017473	-0.652439
O4	O	-1.600810	0.482527	-0.152439
O5	O	-2.172039	0.581805	-0.657488
O6	O	-1.672039	1.081805	-0.157488
O7	O	-2.172049	0.285743	-0.953582
O8	O	-1.672049	0.785743	-0.453582
O9	O	-2.100800	0.280638	-0.354295
O10	O	-1.600800	0.780638	0.145705
V11	V	-2.385299	0.254939	-0.626714
V12	V	-1.885299	0.754939	-0.126714
O13	O	-2.308677	0.372485	-0.744251
O14	O	-1.808677	0.872485	-0.244251
O15	O	-2.456064	0.174199	-0.545980
O16	O	-1.956064	0.674199	-0.045980
O17	O	-2.256000	-0.035120	-0.632744
O18	O	-1.756000	0.464880	-0.132744
O19	O	-2.497531	0.564158	-0.637793
O20	O	-1.997531	1.064158	-0.137793
O21	O	-2.497541	0.266046	-0.935937
O22	O	-1.997541	0.766046	-0.435937
O23	O	-2.255990	0.260942	-0.336650
O24	O	-1.755990	0.760942	0.163350
V25	V	-1.885291	0.254939	-0.626714
V26	V	-1.385291	0.754939	-0.126714
O27	O	-1.938835	0.266046	-0.935937
O28	O	-1.438835	0.766046	-0.435937
O29	O	-1.867586	0.260942	-0.336650
O30	O	-1.367586	0.760942	0.163350
O31	O	-1.867596	-0.035120	-0.632744
O32	O	-1.367596	0.464880	-0.132744
O33	O	-1.938825	0.564158	-0.637793
O34	O	-1.438825	1.064158	-0.137793
V35	V	-1.654336	0.291746	-0.663518
V36	V	-1.154336	0.791746	-0.163518
O37	O	-1.730958	0.174199	-0.545980
O38	O	-1.230958	0.674199	-0.045980
O39	O	-1.583571	0.372485	-0.744251
O40	O	-1.083571	0.872485	-0.244251
O41	O	-1.783645	0.285743	-0.953582
O42	O	-1.283645	0.785743	-0.453582
O43	O	-1.542094	0.280638	-0.354295
O44	O	-1.042094	0.780638	0.145705
O45	O	-1.542105	-0.017473	-0.652439
O46	O	-1.042105	0.482527	-0.152439
O47	O	-1.783635	0.581805	-0.657488
O48	O	-1.283635	1.081805	-0.157488
C49	C	-2.103385	0.652565	-0.646645
C50	C	-1.603385	1.152565	-0.146645
C51	C	-2.159818	0.894139	-0.643597
C52	C	-1.659818	1.394139	-0.143597
C53	C	-1.879823	0.274898	-0.024329
C54	C	-1.379823	0.774898	0.475671
C55	C	-1.936258	0.271818	-0.265900
C56	C	-1.436258	0.771818	0.234100
C57	C	-2.103392	0.274895	-1.024330
C58	C	-1.603392	0.774895	-0.524330
C59	C	-2.159828	0.271847	-1.265905
C60	C	-1.659828	0.771847	-0.765905
C61	C	-1.936256	-0.105866	-0.643599
C62	C	-1.436256	0.394134	-0.143599
C63	C	-1.879830	-0.347437	-0.646674
C64	C	-1.379830	0.152563	-0.146674
