data_functionalizedCrystal
_audit_creation_method	'MofGen! by Chris Wilmer'
_symmetry_space_group_name_H-M	'P1'
_symmetry_Int_Tables_number	1
_symmetry_cell_setting	triclinic
loop_
_symmetry_equiv_pos_as_xyz
  x,y,z
_cell_length_a	21.395364
_cell_length_b	21.395361
_cell_length_c	21.395355
_cell_angle_alpha	90.021511
_cell_angle_beta	89.975448
_cell_angle_gamma	89.954341
loop_
_atom_site_label
_atom_site_type_symbol
_atom_site_fract_x
_atom_site_fract_y
_atom_site_fract_z
Zn1	Zn	0.957859	0.249261	-0.354248
Zn2	Zn	1.291193	0.582594	-0.020915
Zn3	Zn	1.624526	0.915928	0.312418
Zn4	Zn	0.957762	0.354021	-0.249466
Zn5	Zn	1.291095	0.687354	0.083868
Zn6	Zn	1.624428	1.020688	0.417201
Zn7	Zn	0.853074	0.249289	-0.249485
Zn8	Zn	1.186408	0.582622	0.083848
Zn9	Zn	1.519741	0.915955	0.417181
Zn10	Zn	0.853043	0.354032	-0.354206
Zn11	Zn	1.186377	0.687366	-0.020872
Zn12	Zn	1.519710	1.020699	0.312461
O13	O	0.905435	0.301651	-0.301851
O14	O	1.238768	0.634984	0.031482
O15	O	1.572101	0.968317	0.364815
O16	O	1.045524	0.263142	-0.340358
O17	O	1.378857	0.596475	-0.007025
O18	O	1.712191	0.929808	0.326308
O19	O	0.943847	0.340135	-0.161790
O20	O	1.277180	0.673468	0.171543
O21	O	1.610513	1.006802	0.504876
O22	O	0.867028	0.161607	-0.263408
O23	O	1.200361	0.494940	0.069925
O24	O	1.533695	0.828274	0.403258
O25	O	1.045453	0.340108	-0.263375
O26	O	1.378786	0.673442	0.069958
O27	O	1.712119	1.006775	0.403292
O28	O	0.944013	0.161587	-0.340378
O29	O	1.277346	0.494920	-0.007044
O30	O	1.610680	0.828254	0.326289
O31	O	0.866933	0.263188	-0.161805
O32	O	1.200267	0.596522	0.171529
O33	O	1.533600	0.929855	0.504862
O34	O	0.765392	0.263199	-0.263367
O35	O	1.098726	0.596533	0.069966
O36	O	1.432059	0.929866	0.403300
O37	O	0.866975	0.340127	-0.441889
O38	O	1.200309	0.673461	-0.108556
O39	O	1.533642	1.006794	0.224777
O40	O	0.765370	0.340154	-0.340305
O41	O	1.098703	0.673487	-0.006971
O42	O	1.432036	1.006821	0.326362
O43	O	0.943983	0.263152	-0.441921
O44	O	1.277316	0.596486	-0.108587
O45	O	1.610650	0.929819	0.224746
O46	O	0.943817	0.441700	-0.263333
O47	O	1.277150	0.775034	0.070000
O48	O	1.610484	1.108367	0.403333
O49	O	0.866881	0.441709	-0.340286
O50	O	1.200214	0.775042	-0.006952
O51	O	1.533547	1.108375	0.326381
C52	C	0.742647	0.301681	-0.301834
C53	C	1.075980	0.635015	0.031500
C54	C	1.409314	0.968348	0.364833
C55	C	0.673006	0.301709	-0.301841
C56	C	1.006339	0.635043	0.031492
C57	C	1.339672	0.968376	0.364826
C58	C	0.905352	0.464438	-0.301816
C59	C	1.238685	0.797772	0.031517
C60	C	1.572019	1.131105	0.364850
C61	C	0.905374	0.534080	-0.301822
C62	C	1.238707	0.867413	0.031511
C63	C	1.572041	1.200746	0.364844
C64	C	0.905487	0.301638	-0.465275
C65	C	1.238820	0.634971	-0.131941
C66	C	1.572153	0.968305	0.201392
C67	C	0.905509	0.301633	-0.534916
C68	C	1.238842	0.634966	-0.201582
C69	C	1.572175	0.968299	0.131751
C70	C	0.640352	0.261698	-0.341988
C71	C	0.973686	0.595032	-0.008655
C72	C	1.307019	0.928365	0.324678
C73	C	0.574917	0.261682	-0.341991
C74	C	0.908250	0.595015	-0.008657
C75	C	1.241584	0.928348	0.324676
C76	C	0.542137	0.301687	-0.301852
C77	C	0.875471	0.635021	0.031481
C78	C	1.208804	0.968354	0.364814
C79	C	0.574799	0.341701	-0.261697
C80	C	0.908132	0.675034	0.071636
C81	C	1.241465	1.008368	0.404969
C82	C	0.640233	0.341712	-0.261692
C83	C	0.973566	0.675045	0.071642
C84	C	1.306900	1.008379	0.404975
C85	C	0.438413	0.358112	-0.296812
C86	C	0.771746	0.691445	0.036522
C87	C	1.105080	1.024779	0.369855
C88	C	0.372980	0.358102	-0.296822
C89	C	0.706313	0.691435	0.036511
C90	C	1.039647	1.024769	0.369845
C91	C	0.340317	0.301653	-0.301866
C92	C	0.673650	0.634986	0.031467
C93	C	1.006983	0.968319	0.364800
C94	C	0.373094	0.245212	-0.306914
C95	C	0.706428	0.578545	0.026420
C96	C	1.039761	0.911879	0.359753
C97	C	0.438528	0.245223	-0.306908
C98	C	0.771862	0.578556	0.026425
C99	C	1.105195	0.911890	0.359759
C100	C	0.471185	0.301679	-0.301854
C101	C	0.804518	0.635013	0.031480
C102	C	1.137852	0.968346	0.364813
C103	C	0.236711	0.261620	-0.342018
C104	C	0.570044	0.594954	-0.008685
C105	C	0.903377	0.928287	0.324648
C106	C	0.171274	0.261603	-0.342016
C107	C	0.504607	0.594936	-0.008683
C108	C	0.837941	0.928269	0.324650
C109	C	0.171157	0.341627	-0.261726
C110	C	0.504491	0.674961	0.071607
C111	C	0.837824	1.008294	0.404940
C112	C	0.236593	0.341640	-0.261725
C113	C	0.569926	0.674973	0.071608
C114	C	0.903259	1.008306	0.404942
C115	C	0.269365	0.301637	-0.301874
C116	C	0.602699	0.634970	0.031459
C117	C	0.936032	0.968304	0.364792
C118	C	1.068858	0.301621	-0.301869
C119	C	1.402191	0.634954	0.031464
C120	C	1.735525	0.968287	0.364797
C121	C	1.138499	0.301608	-0.301877
C122	C	1.471832	0.634941	0.031456
C123	C	1.805166	0.968274	0.364790
C124	C	0.905535	0.138227	-0.301900
C125	C	1.238868	0.471561	0.031433
C126	C	1.572201	0.804894	0.364767
C127	C	0.905577	0.068586	-0.301921
C128	C	1.238911	0.401919	0.031413
C129	C	1.572244	0.735253	0.364746
C130	C	0.945470	0.566768	-0.261794
C131	C	1.278803	0.900101	0.071539
C132	C	1.612137	1.233434	0.404872
C133	C	0.945499	0.632203	-0.261808
C134	C	1.278832	0.965536	0.071525
C135	C	1.612166	1.298870	0.404858
C136	C	0.905421	0.664948	-0.301844
C137	C	1.238754	0.998281	0.031489
C138	C	1.572088	1.331615	0.364823
C139	C	0.865322	0.632252	-0.341880
C140	C	1.198655	0.965585	-0.008546
C141	C	1.531989	1.298919	0.324787
C142	C	0.865298	0.566818	-0.341869
C143	C	1.198632	0.900151	-0.008536
C144	C	1.531965	1.233485	0.324798
C145	C	0.849006	0.768678	-0.306754
C146	C	1.182340	1.102011	0.026580
C147	C	1.515673	1.435344	0.359913
C148	C	0.849029	0.834111	-0.306760
C149	C	1.182362	1.167444	0.026573
C150	C	1.515695	1.500777	0.359907
C151	C	0.905494	0.866769	-0.301881
C152	C	1.238827	1.200102	0.031453
C153	C	1.572161	1.533435	0.364786
C154	C	0.961938	0.833986	-0.296982
C155	C	1.295272	1.167319	0.036352
C156	C	1.628605	1.500652	0.369685
C157	C	0.961915	0.768551	-0.296971
C158	C	1.295248	1.101885	0.036362
C159	C	1.628581	1.435218	0.369696
C160	C	0.905442	0.735900	-0.301860
C161	C	1.238776	1.069234	0.031473
C162	C	1.572109	1.402567	0.364806
C163	C	0.945625	0.970409	-0.261866
C164	C	1.278958	1.303743	0.071468
C165	C	1.612292	1.637076	0.404801
C166	C	0.945655	1.035846	-0.261884
C167	C	1.278989	1.369179	0.071449
C168	C	1.612322	1.702512	0.404783
C169	C	0.865473	1.035893	-0.341952
C170	C	1.198806	1.369227	-0.008619
C171	C	1.532139	1.702560	0.324715
C172	C	0.865448	0.970458	-0.341937
C173	C	1.198781	1.303791	-0.008604
C174	C	1.532115	1.637125	0.324730
C175	C	0.905523	0.937720	-0.301890
C176	C	1.238857	1.271053	0.031443
C177	C	1.572190	1.604387	0.364776
C178	C	0.945605	0.261550	-0.567646
C179	C	1.278938	0.594883	-0.234313
C180	C	1.612272	0.928217	0.099020
C181	C	0.945604	0.261523	-0.633082
C182	C	1.278937	0.594857	-0.299748
C183	C	1.612271	0.928190	0.033585
C184	C	0.905514	0.301590	-0.665784
C185	C	1.238847	0.634923	-0.332451
C186	C	1.572180	0.968257	0.000882
C187	C	0.865410	0.341675	-0.633046
C188	C	1.198743	0.675009	-0.299712
C189	C	1.532076	1.008342	0.033621
C190	C	0.865407	0.341697	-0.567612
C191	C	1.198741	0.675030	-0.234278
C192	C	1.532074	1.008363	0.099055
C193	C	0.900538	0.358007	-0.769447
C194	C	1.233871	0.691340	-0.436113
C195	C	1.567204	1.024673	-0.102780
C196	C	0.900545	0.357986	-0.834880
C197	C	1.233878	0.691320	-0.501546
C198	C	1.567211	1.024653	-0.168213
C199	C	0.905518	0.301524	-0.867605
C200	C	1.238851	0.634857	-0.534272
C201	C	1.572184	0.968190	-0.200938
C202	C	0.910497	0.245080	-0.834889
C203	C	1.243830	0.578413	-0.501556
C204	C	1.577164	0.911746	-0.168223
C205	C	0.910494	0.245101	-0.769455
C206	C	1.243828	0.578434	-0.436122
C207	C	1.577161	0.911768	-0.102788
C208	C	0.905512	0.301571	-0.736737
C209	C	1.238845	0.634904	-0.403403
C210	C	1.572178	0.968238	-0.070070
C211	C	0.945615	0.261409	-0.971288
C212	C	1.278948	0.594742	-0.637955
C213	C	1.612282	0.928075	-0.304621
C214	C	0.945610	0.261381	-1.036725
C215	C	1.278943	0.594714	-0.703391
C216	C	1.612276	0.928047	-0.370058
C217	C	0.865419	0.341538	-1.036688
C218	C	1.198752	0.674872	-0.703354
C219	C	1.532085	1.008205	-0.370021
C220	C	0.865421	0.341561	-0.971252
C221	C	1.198754	0.674894	-0.637919
C222	C	1.532087	1.008227	-0.304586
C223	C	0.905522	0.301497	-0.938556
C224	C	1.238855	0.634830	-0.605223
C225	C	1.572189	0.968163	-0.271890
C226	C	0.905419	0.301618	-0.139064
C227	C	1.238752	0.634952	0.194270
C228	C	1.572086	0.968285	0.527603
C229	C	0.905518	0.301447	-0.069423
C230	C	1.238851	0.634780	0.263911
C231	C	1.572185	0.968114	0.597244
H232	H	0.667032	0.229125	-0.374681
H233	H	1.000365	0.562458	-0.041347
H234	H	1.333699	0.895791	0.291986
F235	F	0.822621	0.532028	-0.384474
F236	F	1.155954	0.865361	-0.051141
F237	F	1.489287	1.198694	0.282193
H238	H	0.144689	0.229017	-0.374708
H239	H	0.478022	0.562351	-0.041375
H240	H	0.811355	0.895684	0.291959
H241	H	0.832795	0.943842	-0.374529
H242	H	1.166129	1.277175	-0.041195
H243	H	1.499462	1.610508	0.292138
F244	F	0.988295	0.218724	-1.071559
F245	F	1.321629	0.552058	-0.738226
F246	F	1.654962	0.885391	-0.404892
F247	F	0.136275	0.384201	-0.219004
F248	F	0.469609	0.717534	0.114330
F249	F	0.802942	1.050867	0.447663
F250	F	0.895251	0.418059	-0.869692
F251	F	1.228584	0.751392	-0.536359
F252	F	1.561917	1.084725	-0.203026
F253	F	0.271346	0.384223	-0.218992
F254	F	0.604680	0.717557	0.114341
F255	F	0.938013	1.050890	0.447675
F256	F	0.674986	0.384297	-0.218958
F257	F	1.008320	0.717631	0.114376
F258	F	1.341653	1.050964	0.447709
F259	F	0.473410	0.185156	-0.312277
F260	F	0.806744	0.518490	0.021056
F261	F	1.140077	0.851823	0.354389
F262	F	0.271592	0.219043	-0.384744
F263	F	0.604925	0.552376	-0.051411
F264	F	0.938259	0.885710	0.281922
H265	H	0.832774	0.374204	-0.944603
H266	H	1.166107	0.707537	-0.611269
H267	H	1.499440	1.040871	-0.277936
H268	H	0.978258	0.228926	-0.541029
H269	H	1.311591	0.562260	-0.207696
H270	H	1.644925	0.895593	0.125637
F271	F	1.022037	0.868737	-0.291783
F272	F	1.355371	1.202070	0.041551
F273	F	1.688704	1.535404	0.374884
H274	H	0.978103	0.540114	-0.229188
H275	H	1.311437	0.873447	0.104146
H276	H	1.644770	1.206781	0.437479
F277	F	0.895259	0.418107	-0.734624
F278	F	1.228592	0.751440	-0.401291
F279	F	1.561926	1.084774	-0.067958
F280	F	0.473170	0.418196	-0.291435
F281	F	0.806503	0.751530	0.041898
F282	F	1.139836	1.084863	0.375231
F283	F	0.540158	0.219094	-0.384722
F284	F	0.873491	0.552427	-0.051388
F285	F	1.206824	0.885761	0.281945
F286	F	0.822741	0.384315	-0.667851
F287	F	1.156074	0.717648	-0.334518
F288	F	1.489407	1.050982	-0.001184
F289	F	0.338102	0.418171	-0.291459
F290	F	0.671435	0.751504	0.041874
F291	F	1.004768	1.084838	0.375208
H292	H	0.346501	0.199246	-0.311021
H293	H	0.679835	0.532579	0.022312
H294	H	1.013168	0.865912	0.355645
H295	H	0.548106	0.374273	-0.229016
H296	H	0.881439	0.707606	0.104317
H297	H	1.214772	1.040940	0.437651
H298	H	0.978152	0.658823	-0.229213
H299	H	1.311486	0.992156	0.104120
H300	H	1.644819	1.325490	0.437454
H301	H	0.832753	0.374336	-0.540963
H302	H	1.166087	0.707669	-0.207629
H303	H	1.499420	1.041002	0.125704
H304	H	1.007873	0.741861	-0.292984
H305	H	1.341206	1.075194	0.040350
H306	H	1.674540	1.408528	0.373683
H307	H	0.978259	0.943753	-0.229259
H308	H	1.311592	1.277086	0.104074
H309	H	1.644926	1.610419	0.437407
F310	F	0.822746	0.384176	-1.071488
F311	F	1.156079	0.717509	-0.738154
F312	F	1.489413	1.050843	-0.404821
H313	H	0.978310	1.062459	-0.229290
H314	H	1.311644	1.395793	0.104044
H315	H	1.644977	1.729126	0.437377
F316	F	0.822822	1.070739	-0.384565
F317	F	1.156155	1.404072	-0.051231
F318	F	1.489488	1.737405	0.282102
F319	F	0.788956	0.868995	-0.311972
F320	F	1.122290	1.202328	0.021361
F321	F	1.455623	1.535662	0.354694
F322	F	0.915792	0.184983	-0.869712
F323	F	1.249125	0.518317	-0.536379
F324	F	1.582459	0.851650	-0.203046
F325	F	0.788904	0.733927	-0.311948
F326	F	1.122238	1.067261	0.021385
F327	F	1.455571	1.400594	0.354719
F328	F	0.822670	0.667102	-0.384490
F329	F	1.156004	1.000436	-0.051157
F330	F	1.489337	1.333769	0.282176
H331	H	0.978254	0.228880	-0.659736
H332	H	1.311587	0.562213	-0.326403
H333	H	1.644921	0.895547	0.006931
F334	F	0.915790	0.185031	-0.734639
F335	F	1.249124	0.518364	-0.401306
F336	F	1.582457	0.851698	-0.067972
H337	H	0.978265	0.228783	-0.944666
H338	H	1.311598	0.562116	-0.611332
H339	H	1.644931	0.895449	-0.277999
