data_functionalizedCrystal
_audit_creation_method	'MofGen! by Chris Wilmer'
_symmetry_space_group_name_H-M	'P1'
_symmetry_Int_Tables_number	1
_symmetry_cell_setting	triclinic
loop_
_symmetry_equiv_pos_as_xyz
  x,y,z
_cell_length_a	9.130313
_cell_length_b	19.188923
_cell_length_c	10.654550
_cell_angle_alpha	83.813242
_cell_angle_beta	90.000110
_cell_angle_gamma	90.002302
loop_
_atom_site_label
_atom_site_type_symbol
_atom_site_fract_x
_atom_site_fract_y
_atom_site_fract_z
O1	O	-0.121866	-0.927169	-0.156727
O2	O	-0.121853	-0.723995	-0.177843
O3	O	-0.121854	-0.830254	0.015553
O4	O	-0.121864	-0.820911	-0.350124
O5	O	0.121745	-0.830252	0.015548
O6	O	0.121746	-0.723994	-0.177848
O7	O	0.121733	-0.927168	-0.156733
Cu8	Cu	0.143982	-0.825581	-0.167291
Cu9	Cu	-0.144102	-0.825582	-0.167285
O10	O	0.121734	-0.820910	-0.350129
C11	C	-0.000052	-0.697979	-0.177163
C12	C	-0.000047	-0.620461	-0.175116
C13	C	-0.000056	-0.829567	0.062334
C14	C	-0.000061	-0.827515	0.201734
N15	N	0.346605	-0.825585	-0.167294
N16	N	-0.346724	-0.825584	-0.167271
C17	C	0.423256	-0.872648	-0.081687
C18	C	0.576593	-0.872646	-0.081672
C19	C	0.576614	-0.778516	-0.252882
C20	C	0.423279	-0.778515	-0.252890
C21	C	0.423246	-0.926996	0.017156
C22	C	0.576582	-0.926994	0.017171
C23	C	-0.000030	-0.059343	-0.274882
C24	C	-0.000041	-0.132179	-0.276817
C25	C	-0.000037	-0.176371	-0.163339
C26	C	-0.000059	-0.147722	-0.047917
C27	C	-0.000063	-0.074887	-0.045985
N28	N	0.082883	-0.296510	-0.081185
N29	N	0.082890	-0.365700	-0.083028
C30	C	-0.000029	-0.395818	-0.169152
N31	N	-0.082936	-0.354132	-0.253383
N32	N	-0.082936	-0.284936	-0.251543
C33	C	-0.000034	-0.255349	-0.165421
C34	C	-0.000029	-0.503436	-0.286665
C35	C	-0.000049	-0.576274	-0.288595
C36	C	-0.000052	-0.591816	-0.059692
C37	C	-0.000047	-0.518979	-0.057765
C38	C	-0.000028	-0.474794	-0.171255
C39	C	-0.000061	0.046816	-0.157416
C40	C	-0.000044	-0.030701	-0.159475
C41	C	-0.000066	-0.821596	-0.396910
C42	C	-0.000071	-0.823649	-0.536309
C43	C	-0.000061	-0.890078	0.282546
C44	C	-0.000071	-0.888145	0.413526
C45	C	-0.000076	-0.761081	0.382868
C46	C	-0.000076	-0.763014	0.251890
C47	C	-0.000052	-0.963438	0.300248
C48	C	-0.000062	-0.961505	0.431228
H49	H	0.360871	-0.740186	-0.322587
H50	H	0.105128	-0.986798	0.265114
H51	H	-0.000016	-0.467458	-0.379075
H52	H	-0.000022	-0.023370	-0.367295
H53	H	0.624133	-0.910032	0.108034
H54	H	-0.000097	-0.712069	0.186096
H55	H	0.639059	-0.740192	-0.322572
H56	H	-0.000075	-0.051569	0.047996
H57	H	-0.000050	-0.495660	0.036212
H58	H	-0.000049	-0.599591	-0.382577
H59	H	-0.000060	-0.627797	0.032705
H60	H	-0.101992	-0.992132	0.271501
H61	H	-0.000089	-0.708566	0.423722
H62	H	-0.105243	-0.983676	0.477343
H63	H	0.101880	-0.989145	0.473572
H64	H	0.618195	-0.980646	-0.003209
H65	H	0.381629	-0.915076	0.113436
H66	H	0.375683	-0.977686	-0.012357
H67	H	-0.000060	-0.183708	0.044478
H68	H	-0.000016	-0.155503	-0.370798
