data_functionalizedCrystal
_audit_creation_method	'MofGen! by Chris Wilmer'
_symmetry_space_group_name_H-M	'P1'
_symmetry_Int_Tables_number	1
_symmetry_cell_setting	triclinic
loop_
_symmetry_equiv_pos_as_xyz
  x,y,z
_cell_length_a	14.044220
_cell_length_b	15.995350
_cell_length_c	12.503572
_cell_angle_alpha	93.525550
_cell_angle_beta	86.164750
_cell_angle_gamma	88.340626
loop_
_atom_site_label
_atom_site_type_symbol
_atom_site_fract_x
_atom_site_fract_y
_atom_site_fract_z
O1	O	1.263165	0.197434	-0.089196
O2	O	1.596498	0.530767	0.244137
O3	O	1.929832	0.864100	0.577470
O4	O	0.987198	0.190148	-0.089224
O5	O	1.320531	0.523481	0.244110
O6	O	1.653864	0.856815	0.577443
O7	O	1.132725	0.072467	-0.089208
O8	O	1.466058	0.405800	0.244125
O9	O	1.799392	0.739133	0.577458
O10	O	1.117638	0.315115	-0.089212
O11	O	1.450971	0.648448	0.244122
O12	O	1.784304	0.981782	0.577455
O13	O	1.121781	0.081333	0.089432
O14	O	1.455114	0.414666	0.422766
O15	O	1.788447	0.748000	0.756099
O16	O	0.976253	0.199014	0.089417
O17	O	1.309586	0.532348	0.422750
O18	O	1.642920	0.865681	0.756084
O19	O	1.252221	0.206300	0.089445
O20	O	1.585554	0.539633	0.422778
O21	O	1.918887	0.872967	0.756111
Cu22	Cu	1.113237	0.203467	0.105742
Cu23	Cu	1.446571	0.536800	0.439075
Cu24	Cu	1.779904	0.870133	0.772409
Cu25	Cu	1.126181	0.192981	-0.105521
Cu26	Cu	1.459514	0.526315	0.227812
Cu27	Cu	1.792847	0.859648	0.561145
O28	O	1.106693	0.323981	0.089429
O29	O	1.440026	0.657315	0.422762
O30	O	1.773360	0.990648	0.756096
C31	C	0.946411	0.191392	0.000093
C32	C	1.279744	0.524726	0.333426
C33	C	1.613078	0.858059	0.666760
C34	C	0.841186	0.181881	0.000082
C35	C	1.174519	0.515214	0.333416
C36	C	1.507853	0.848548	0.666749
C37	C	1.126629	0.045658	0.000110
C38	C	1.459962	0.378992	0.333443
C39	C	1.793296	0.712325	0.666777
C40	C	1.124760	-0.047432	0.000104
C41	C	1.458093	0.285901	0.333437
C42	C	1.791426	0.619235	0.666770
C43	C	0.648523	0.164494	0.000104
C44	C	0.981857	0.497827	0.333437
C45	C	1.315190	0.831161	0.666771
C46	C	0.590890	0.231950	0.000107
C47	C	0.924223	0.565283	0.333441
C48	C	1.257557	0.898617	0.666774
C49	C	0.483686	0.222276	0.000119
C50	C	0.817019	0.555609	0.333453
C51	C	1.150352	0.888942	0.666786
C52	C	0.755737	0.174167	0.000092
C53	C	1.089071	0.507500	0.333425
C54	C	1.422404	0.840834	0.666759
C55	C	1.118044	-0.385681	0.000107
C56	C	1.451377	-0.052348	0.333440
C57	C	1.784710	0.280986	0.666773
C58	C	1.014426	-0.346008	-0.000304
C59	C	1.347760	-0.012675	0.333029
C60	C	1.681093	0.320659	0.666362
C61	C	1.016272	-0.249158	0.000099
C62	C	1.349605	0.084175	0.333432
C63	C	1.682939	0.417508	0.666765
C64	C	1.121375	-0.217872	0.000105
C65	C	1.454708	0.115462	0.333438
C66	C	1.788042	0.448795	0.666771
C67	C	1.166245	-0.250068	0.102120
C68	C	1.499578	0.083266	0.435454
C69	C	1.832912	0.416599	0.768787
C70	C	1.163636	-0.346894	0.102206
C71	C	1.496970	-0.013560	0.435539
C72	C	1.830303	0.319773	0.768872
C73	C	1.178223	-0.357175	-0.100942
C74	C	1.511557	-0.023841	0.232391
C75	C	1.844890	0.309492	0.565724
C76	C	1.178281	-0.260298	-0.102290
C77	C	1.511615	0.073035	0.231043
C78	C	1.844948	0.406369	0.564376
C79	C	1.123263	-0.123033	0.000107
C80	C	1.456596	0.210300	0.333440
C81	C	1.789930	0.543634	0.666774
C82	C	1.116158	-0.480519	0.000111
C83	C	1.449492	-0.147186	0.333445
C84	C	1.782825	0.186147	0.666778
C85	C	1.293007	0.205055	0.000125
C86	C	1.626341	0.538389	0.333459
C87	C	1.959674	0.871722	0.666792
C88	C	1.398233	0.214567	0.000129
C89	C	1.731566	0.547900	0.333462
C90	C	2.064899	0.881233	0.666796
C91	C	1.112789	0.350789	0.000108
C92	C	1.446122	0.684123	0.333442
C93	C	1.779456	1.017456	0.666775
C94	C	1.114659	0.443879	0.000108
C95	C	1.447993	0.777213	0.333441
C96	C	1.781326	1.110546	0.666774
N97	N	1.104141	0.210842	0.254333
N98	N	1.437474	0.544175	0.587667
N99	N	1.770808	0.877508	0.921000
N100	N	1.135285	0.185600	-0.254113
N101	N	1.468618	0.518934	0.079221
N102	N	1.801951	0.852267	0.412554
C103	C	1.090759	0.221698	0.473447
C104	C	1.424093	0.555031	0.806781
C105	C	1.757426	0.888364	1.140114
C106	C	1.148663	0.174747	0.526780
C107	C	1.481997	0.508080	0.860114
C108	C	1.815330	0.841414	1.193447
C109	C	1.141218	0.180787	0.648703
C110	C	1.474551	0.514121	0.982036
C111	C	1.807884	0.847454	1.315370
C112	C	1.098204	0.215658	0.351514
C113	C	1.431537	0.548991	0.684847
C114	C	1.764870	0.882325	1.018180
H115	H	0.622061	0.296967	0.000101
H116	H	0.955395	0.630300	0.333435
H117	H	1.288728	0.963633	0.666768
H118	H	1.035599	0.266427	0.519349
H119	H	1.368932	0.599761	0.852682
H120	H	1.702265	0.933094	1.186015
H121	H	0.617354	0.099482	0.000111
H122	H	0.950687	0.432816	0.333444
H123	H	1.284020	0.766149	0.666777
H124	H	0.980568	-0.227367	-0.073031
H125	H	1.313902	0.105966	0.260303
H126	H	1.647235	0.439300	0.593636
H127	H	1.243229	-0.229986	0.105919
H128	H	1.576562	0.103347	0.439252
H129	H	1.909896	0.436680	0.772585
H130	H	0.977483	-0.371265	-0.073462
H131	H	1.310817	-0.037932	0.259871
H132	H	1.644150	0.295402	0.593205
H133	H	0.971331	-0.220680	0.073345
H134	H	1.304664	0.112654	0.406678
H135	H	1.637997	0.445987	0.740011
H136	H	0.968729	-0.365072	0.072438
H137	H	1.302062	-0.031739	0.405771
H138	H	1.635395	0.301595	0.739105
H139	H	1.121688	-0.364195	0.178460
H140	H	1.455021	-0.030861	0.511793
H141	H	1.788354	0.302472	0.845126
H142	H	1.239445	-0.373229	0.106839
H143	H	1.572779	-0.039895	0.440172
H144	H	1.906112	0.293438	0.773505
H145	H	1.203829	0.130016	0.480873
H146	H	1.537162	0.463349	0.814207
H147	H	1.870495	0.796682	1.147540
H148	H	1.149075	-0.384083	-0.178264
H149	H	1.482408	-0.050749	0.155070
H150	H	1.815741	0.282584	0.488403
H151	H	1.126089	-0.220570	0.178033
H152	H	1.459422	0.112763	0.511366
H153	H	1.792755	0.446096	0.844699
H154	H	1.145529	-0.239586	-0.177759
H155	H	1.478863	0.093747	0.155574
H156	H	1.812196	0.427080	0.488908
H157	H	1.255304	-0.239517	-0.108445
H158	H	1.588638	0.093816	0.224888
H159	H	1.921971	0.427150	0.558221
H160	H	1.254680	-0.383262	-0.101623
H161	H	1.588014	-0.049928	0.231710
H162	H	1.921347	0.283405	0.565043
