data_functionalizedCrystal
_audit_creation_method	'MofGen! by Chris Wilmer'
_symmetry_space_group_name_H-M	'P1'
_symmetry_Int_Tables_number	1
_symmetry_cell_setting	triclinic
loop_
_symmetry_equiv_pos_as_xyz
  x,y,z
_cell_length_a	21.295420
_cell_length_b	21.295417
_cell_length_c	12.594509
_cell_angle_alpha	90.036245
_cell_angle_beta	90.021167
_cell_angle_gamma	90.028757
loop_
_atom_site_label
_atom_site_type_symbol
_atom_site_fract_x
_atom_site_fract_y
_atom_site_fract_z
Zn1	Zn	0.962333	-0.250620	0.601796
Zn2	Zn	0.962242	-0.355898	0.423793
Zn3	Zn	0.857063	-0.250644	0.423826
Zn4	Zn	0.857026	-0.355852	0.601723
O5	O	0.909666	-0.303253	0.512784
O6	O	1.050411	-0.264594	0.578200
O7	O	0.948267	-0.341966	0.274851
O8	O	0.871081	-0.162551	0.447478
O9	O	1.050344	-0.341942	0.447422
O10	O	0.948423	-0.162533	0.578232
O11	O	0.870993	-0.264636	0.274875
O12	O	0.768969	-0.264590	0.447407
O13	O	0.871018	-0.341863	0.750679
O14	O	0.768942	-0.341886	0.578108
O15	O	0.948387	-0.264549	0.750732
O16	O	0.948232	-0.443981	0.447351
O17	O	0.870930	-0.443947	0.578076
C18	C	0.746115	-0.303236	0.512754
C19	C	0.676147	-0.303244	0.512766
C20	C	0.176691	-0.343575	0.580774
C21	C	0.242433	-0.343576	0.580763
C22	C	0.275307	-0.303268	0.512818
C23	C	0.242433	-0.262968	0.444859
C24	C	0.176692	-0.262973	0.444865
N25	N	0.378548	-0.248151	0.504816
N26	N	0.441000	-0.248148	0.504817
C27	C	0.473382	-0.303250	0.512795
N28	N	0.440953	-0.358356	0.520794
N29	N	0.378496	-0.358359	0.520798
C30	C	0.346592	-0.303258	0.512804
C31	C	0.577534	-0.343551	0.580732
C32	C	0.643277	-0.343552	0.580713
C33	C	0.643276	-0.262938	0.444815
C34	C	0.577533	-0.262943	0.444828
C35	C	0.544666	-0.303248	0.512792
C36	C	0.909584	-0.466805	0.512725
C37	C	0.909606	-0.536773	0.512736
C38	C	0.949893	-0.569637	0.444737
C39	C	0.949922	-0.635379	0.444761
C40	C	0.909654	-0.668256	0.512773
C41	C	0.869364	-0.635384	0.580784
C42	C	0.869340	-0.569643	0.580766
N43	N	0.854586	-0.771519	0.520877
N44	N	0.854611	-0.833971	0.520888
C45	C	0.909724	-0.866330	0.512834
N46	N	0.964813	-0.833879	0.504747
N47	N	0.964788	-0.771422	0.504730
C48	C	0.909675	-0.739541	0.512801
C49	C	0.950047	-0.970479	0.444857
C50	C	0.950077	-1.036223	0.444889
C51	C	0.869513	-1.036227	0.580906
C52	C	0.869488	-0.970484	0.580881
C53	C	0.909754	-0.937614	0.512850
C54	C	1.073856	-0.303271	0.512816
C55	C	1.143825	-0.303278	0.512829
C56	C	0.909708	-0.303198	0.790405
C57	C	0.909726	-0.303175	0.908711
C58	C	0.909766	-0.139063	0.512867
C59	C	0.909809	-0.069095	0.512902
C60	C	0.909660	-0.303263	0.236243
C61	C	0.909765	-0.303109	0.117939
C62	C	0.867659	-0.345202	0.977935
C63	C	0.925094	-0.360584	1.048722
C64	C	0.852336	-0.287754	1.048724
C65	C	0.967191	-0.318587	0.977939
C66	C	0.894395	-0.245731	0.977935
C67	C	0.951870	-0.261091	1.048690
H68	H	0.149932	-0.230157	0.389535
H69	H	0.836578	-0.662156	0.636162
Cl70	Cl	1.042170	-0.338774	0.930143
Cl71	Cl	1.000572	-0.676702	0.359269
Cl72	Cl	0.777380	-0.267659	1.096730
H73	H	0.269198	-0.376390	0.636096
H74	H	0.938082	-0.409135	1.079815
Cl75	Cl	0.812776	-0.400156	0.929965
Cl76	Cl	0.135376	-0.394249	0.666208
H77	H	0.881390	-0.197194	0.946818
H78	H	0.670036	-0.376371	0.636039
H79	H	0.269203	-0.230150	0.389536
Cl80	Cl	0.536212	-0.394222	0.666165
H81	H	0.670041	-0.230121	0.389489
H82	H	0.550773	-0.230126	0.389504
Cl83	Cl	1.006881	-0.206176	1.096361
H84	H	0.982681	-0.542876	0.389346
Cl85	Cl	0.818689	-0.528326	0.666256
H86	H	0.982836	-0.943716	0.389466
Cl87	Cl	1.000733	-1.077538	0.359404
Cl88	Cl	0.818893	-1.077551	0.666415
H89	H	0.836680	-0.943725	0.636247
