data_functionalizedCrystal
_audit_creation_method	'MofGen! by Chris Wilmer'
_symmetry_space_group_name_H-M	'P1'
_symmetry_Int_Tables_number	1
_symmetry_cell_setting	triclinic
loop_
_symmetry_equiv_pos_as_xyz
  x,y,z
_cell_length_a	23.532407
_cell_length_b	23.532407
_cell_length_c	9.798715
_cell_angle_alpha	90.007792
_cell_angle_beta	89.998337
_cell_angle_gamma	82.848678
loop_
_atom_site_label
_atom_site_type_symbol
_atom_site_fract_x
_atom_site_fract_y
_atom_site_fract_z
O1	O	0.755259	0.069134	0.113334
O2	O	1.088592	0.402467	0.446668
O3	O	1.421926	0.735800	0.780001
O4	O	0.589396	0.079137	0.113376
O5	O	0.922729	0.412470	0.446710
O6	O	1.256062	0.745803	0.780043
O7	O	0.677329	-0.008797	0.113329
O8	O	1.010662	0.324537	0.446663
O9	O	1.343996	0.657870	0.779996
O10	O	0.667326	0.157067	0.113382
O11	O	1.000659	0.490400	0.446715
O12	O	1.333992	0.823733	0.780048
O13	O	0.677322	-0.008797	-0.113653
O14	O	1.010656	0.324537	0.219680
O15	O	1.343989	0.657870	0.553014
O16	O	0.589389	0.079137	-0.113606
O17	O	0.922722	0.412470	0.219728
O18	O	1.256056	0.745803	0.553061
O19	O	0.755252	0.069133	-0.113648
O20	O	1.088586	0.402467	0.219686
O21	O	1.421919	0.735800	0.553019
Zn22	Zn	0.672320	0.074135	-0.149665
Zn23	Zn	1.005653	0.407468	0.183668
Zn24	Zn	1.338986	0.740802	0.517002
Zn25	Zn	0.672328	0.074135	0.149394
Zn26	Zn	1.005662	0.407468	0.482727
Zn27	Zn	1.338995	0.740802	0.816060
O28	O	0.667319	0.157067	-0.113600
O29	O	1.000653	0.490400	0.219733
O30	O	1.333986	0.823733	0.553066
C31	C	0.568176	0.078882	-0.000110
C32	C	0.901510	0.412215	0.333224
C33	C	1.234843	0.745549	0.666557
C34	C	0.504959	0.078116	-0.000095
C35	C	0.838293	0.411449	0.333239
C36	C	1.171626	0.744783	0.666572
C37	C	0.105856	0.125350	-0.000142
C38	C	0.439190	0.458683	0.333192
C39	C	0.772523	0.792016	0.666525
C40	C	0.046456	0.124638	-0.000150
C41	C	0.379789	0.457971	0.333183
C42	C	0.713123	0.791305	0.666517
O43	O	0.009711	0.168424	-0.000186
O44	O	0.343045	0.501757	0.333148
O45	O	0.676378	0.835091	0.666481
N46	N	0.023830	0.072362	-0.000164
N47	N	0.357163	0.405695	0.333169
N48	N	0.690496	0.739028	0.666502
C49	C	0.060607	0.020794	-0.000184
C50	C	0.393941	0.354127	0.333149
C51	C	0.727274	0.687460	0.666483
O52	O	0.035908	-0.023737	-0.000198
O53	O	0.369241	0.309596	0.333135
O54	O	0.702574	0.642930	0.666468
C55	C	0.120006	0.021506	-0.000185
C56	C	0.453340	0.354839	0.333148
C57	C	0.786673	0.688172	0.666481
C58	C	0.142629	0.073785	-0.000157
C59	C	0.475962	0.407119	0.333176
C60	C	0.809296	0.740452	0.666510
C61	C	0.128479	0.177625	-0.000115
C62	C	0.461813	0.510958	0.333218
C63	C	0.795146	0.844292	0.666552
C64	C	0.187876	0.178336	-0.000104
C65	C	0.521209	0.511670	0.333230
C66	C	0.854542	0.845003	0.666563
C67	C	0.224649	0.126772	-0.000119
C68	C	0.557982	0.460105	0.333214
C69	C	0.891315	0.793439	0.666547
C70	C	0.202025	0.074497	-0.000146
C71	C	0.535359	0.407830	0.333187
C72	C	0.868692	0.741163	0.666521
C73	C	0.156783	-0.030062	-0.000215
C74	C	0.490116	0.303271	0.333119
C75	C	0.823450	0.636605	0.666452
C76	C	0.216185	-0.029345	-0.000217
C77	C	0.549519	0.303988	0.333117
C78	C	0.882852	0.637321	0.666450
C79	C	0.238808	0.022934	-0.000189
C80	C	0.572141	0.356268	0.333145
C81	C	0.905475	0.689601	0.666478
C82	C	0.298194	0.023643	-0.000150
C83	C	0.631528	0.356977	0.333183
C84	C	0.964861	0.690310	0.666516
N85	N	0.320820	0.075920	-0.000136
N86	N	0.654154	0.409253	0.333197
N87	N	0.987487	0.742586	0.666531
C88	C	0.284048	0.127484	-0.000121
C89	C	0.617381	0.460817	0.333213
C90	C	0.950714	0.794151	0.666546
C91	C	-0.064135	0.019302	-0.000184
C92	C	0.269198	0.352635	0.333149
C93	C	0.602532	0.685969	0.666483
C94	C	-0.123533	0.018589	-0.000173
C95	C	0.209800	0.351923	0.333160
C96	C	0.543134	0.685256	0.666494
C97	C	-0.137680	0.122434	-0.000142
C98	C	0.195653	0.455768	0.333192
C99	C	0.528986	0.789101	0.666525
C100	C	-0.078281	0.123146	-0.000143
C101	C	0.255052	0.456480	0.333191
C102	C	0.588385	0.789813	0.666524
C103	C	-0.041509	0.071578	-0.000170
C104	C	0.291824	0.404912	0.333164
C105	C	0.625158	0.738245	0.666497
C106	C	0.408784	0.128974	-0.000096
C107	C	0.742118	0.462307	0.333237
C108	C	1.075451	0.795640	0.666571
C109	C	0.468186	0.129680	-0.000079
C110	C	0.801520	0.463014	0.333254
C111	C	1.134853	0.796347	0.666587
C112	C	0.482329	0.025836	-0.000118
C113	C	0.815662	0.359169	0.333216
C114	C	1.148995	0.692503	0.666549
C115	C	0.422932	0.025129	-0.000127
C116	C	0.756265	0.358462	0.333206
C117	C	1.089598	0.691796	0.666539
C118	C	0.386160	0.076702	-0.000121
C119	C	0.719494	0.410036	0.333212
C120	C	1.052827	0.743369	0.666546
O121	O	0.334974	-0.020119	-0.000120
O122	O	0.668307	0.313214	0.333213
O123	O	1.001640	0.646547	0.666546
O124	O	0.308755	0.172007	-0.000124
O125	O	0.642089	0.505340	0.333209
O126	O	0.975422	0.838674	0.666542
C127	C	0.677071	-0.030013	-0.000165
C128	C	1.010404	0.303321	0.333168
C129	C	1.343738	0.636654	0.666501
C130	C	0.676305	-0.093230	-0.000176
C131	C	1.009638	0.240104	0.333158
C132	C	1.342972	0.573437	0.666491
C133	C	0.723539	-0.492333	-0.000113
C134	C	1.056872	-0.158999	0.333221
C135	C	1.390205	0.174334	0.666554
C136	C	0.722827	-0.551733	-0.000102
C137	C	1.056160	-0.218400	0.333231
C138	C	1.389494	0.114934	0.666564
O139	O	0.766613	-0.588478	-0.000063
O140	O	1.099946	-0.255144	0.333270
O141	O	1.433280	0.078189	0.666604
N142	N	0.670551	-0.574359	-0.000090
N143	N	1.003884	-0.241026	0.333243
N144	N	1.337217	0.092307	0.666577
C145	C	0.618983	-0.537582	-0.000074
C146	C	0.952316	-0.204248	0.333259
C147	C	1.285649	0.129085	0.666592
O148	O	0.574452	-0.562281	-0.000062
O149	O	0.907785	-0.228948	0.333272
O150	O	1.241119	0.104385	0.666605
C151	C	0.619695	-0.478182	-0.000075
C152	C	0.953028	-0.144849	0.333258
C153	C	1.286361	0.188484	0.666591
C154	C	0.671974	-0.455560	-0.000101
C155	C	1.005308	-0.122227	0.333232
C156	C	1.338641	0.211107	0.666565
C157	C	0.775814	-0.469710	-0.000137
C158	C	1.109147	-0.136376	0.333196
C159	C	1.442481	0.196957	0.666529
C160	C	0.776525	-0.410313	-0.000150
C161	C	1.109859	-0.076980	0.333183
C162	C	1.443192	0.256353	0.666516
C163	C	0.724961	-0.373540	-0.000139
C164	C	1.058294	-0.040207	0.333194
C165	C	1.391628	0.293126	0.666528
C166	C	0.672685	-0.396164	-0.000114
C167	C	1.006019	-0.062830	0.333219
C168	C	1.339352	0.270503	0.666552
C169	C	0.568127	-0.441406	-0.000050
C170	C	0.901460	-0.108073	0.333283
C171	C	1.234794	0.225261	0.666617
C172	C	0.568844	-0.382004	-0.000050
C173	C	0.902177	-0.048670	0.333284
C174	C	1.235510	0.284663	0.666617
C175	C	0.621123	-0.359381	-0.000076
C176	C	0.954457	-0.026048	0.333258
C177	C	1.287790	0.307286	0.666591
C178	C	0.621832	-0.299995	-0.000116
C179	C	0.955166	0.033339	0.333217
C180	C	1.288499	0.366672	0.666551
N181	N	0.674109	-0.277368	-0.000128
N182	N	1.007442	0.055965	0.333205
N183	N	1.340775	0.389298	0.666538
C184	C	0.725673	-0.314141	-0.000140
C185	C	1.059006	0.019192	0.333194
C186	C	1.392340	0.352525	0.666527
C187	C	0.617491	-0.662324	-0.000070
C188	C	0.950824	-0.328991	0.333263
C189	C	1.284158	0.004343	0.666596
C190	C	0.616778	-0.721722	-0.000079
C191	C	0.950112	-0.388389	0.333254
C192	C	1.283445	-0.055055	0.666587
C193	C	0.720623	-0.735869	-0.000105
C194	C	1.053957	-0.402536	0.333229
C195	C	1.387290	-0.069203	0.666562
C196	C	0.721335	-0.676470	-0.000105
C197	C	1.054669	-0.343137	0.333228
C198	C	1.388002	-0.009804	0.666561
C199	C	0.669767	-0.639698	-0.000083
C200	C	1.003101	-0.306365	0.333251
C201	C	1.336434	0.026969	0.666584
C202	C	0.727163	-0.189405	-0.000168
C203	C	1.060496	0.143929	0.333165
C204	C	1.393829	0.477262	0.666498
C205	C	0.727869	-0.130003	-0.000187
C206	C	1.061203	0.203331	0.333146
C207	C	1.394536	0.536664	0.666480
C208	C	0.624025	-0.115860	-0.000155
C209	C	0.957358	0.217473	0.333179
C210	C	1.290692	0.550806	0.666512
C211	C	0.623318	-0.175257	-0.000143
C212	C	0.956651	0.158076	0.333190
C213	C	1.289985	0.491409	0.666524
C214	C	0.674891	-0.212029	-0.000145
C215	C	1.008225	0.121305	0.333188
C216	C	1.341558	0.454638	0.666521
O217	O	0.578070	-0.263215	-0.000150
O218	O	0.911403	0.070118	0.333184
O219	O	1.244736	0.403451	0.666517
O220	O	0.770196	-0.289433	-0.000134
O221	O	1.103529	0.043900	0.333199
O222	O	1.436863	0.377233	0.666532
C223	C	0.776472	0.069388	-0.000159
C224	C	1.109805	0.402722	0.333175
C225	C	1.443138	0.736055	0.666508
C226	C	0.839689	0.070154	-0.000165
C227	C	1.173022	0.403487	0.333169
C228	C	1.506355	0.736821	0.666502
C229	C	0.667577	0.178283	-0.000103
C230	C	1.000910	0.511616	0.333230
C231	C	1.334244	0.844949	0.666564
C232	C	0.668343	0.241500	-0.000084
C233	C	1.001676	0.574833	0.333250
C234	C	1.335010	0.908167	0.666583
N235	N	0.672318	0.074134	-0.353765
N236	N	1.005651	0.407468	-0.020431
N237	N	1.338985	0.740801	0.312902
C238	C	0.709241	0.037053	-0.421562
C239	C	1.042574	0.370387	-0.088228
C240	C	1.375908	0.703720	0.245105
C241	C	0.709250	0.037051	-0.578724
C242	C	1.042584	0.370385	-0.245391
C243	C	1.375917	0.703718	0.087942
N244	N	0.672335	0.074131	0.353493
N245	N	1.005668	0.407464	0.686827
N246	N	1.339001	0.740798	1.020160
H247	H	0.486602	0.172255	-0.000055
H248	H	0.819935	0.505588	0.333278
H249	H	1.153269	0.838921	0.666611
H250	H	-0.059867	0.165717	-0.000128
H251	H	0.273467	0.499050	0.333206
H252	H	0.606800	0.832384	0.666539
F253	F	0.631016	0.115632	-0.570313
F254	F	0.964349	0.448965	-0.236980
F255	F	1.297683	0.782299	0.096353
H256	H	0.580748	-0.193677	-0.000160
H257	H	0.914081	0.139656	0.333174
H258	H	1.247414	0.472989	0.666507
H259	H	0.819097	-0.391900	-0.000166
H260	H	1.152430	-0.058567	0.333167
H261	H	1.485763	0.274767	0.666501
F262	F	0.775503	-0.775016	-0.000110
F263	F	1.108836	-0.441683	0.333224
F264	F	1.442170	-0.108350	0.666557
F265	F	0.631005	0.115626	-0.429971
F266	F	0.964338	0.448960	-0.096638
F267	F	1.297671	0.782293	0.236695
H268	H	0.740844	0.005306	-0.363256
H269	H	1.074177	0.338639	-0.029923
H270	H	1.407511	0.671972	0.303411
H271	H	0.582043	-0.085909	-0.000150
H272	H	0.915376	0.247424	0.333183
H273	H	1.248709	0.580757	0.666517
H274	H	0.378851	0.170970	-0.000095
H275	H	0.712185	0.504303	0.333238
H276	H	1.045518	0.837637	0.666571
F277	F	0.089351	0.232512	-0.000098
F278	F	0.422684	0.565845	0.333235
F279	F	0.756017	0.899179	0.666568
F280	F	0.211944	0.233980	-0.000080
F281	F	0.545278	0.567313	0.333253
F282	F	0.878611	0.900647	0.666586
H283	H	0.770443	-0.111587	-0.000212
H284	H	1.103777	0.221746	0.333121
H285	H	1.437110	0.555080	0.666455
H286	H	-0.167632	0.164421	-0.000135
H287	H	0.165701	0.497754	0.333198
H288	H	0.499035	0.831087	0.666531
H289	H	-0.141947	-0.023982	-0.000174
H290	H	0.191387	0.309352	0.333159
H291	H	0.524720	0.642685	0.666492
H292	H	-0.034198	-0.022693	-0.000194
H293	H	0.299136	0.310640	0.333140
H294	H	0.632469	0.643973	0.666473
F295	F	0.830701	-0.508838	-0.000149
F296	F	1.164034	-0.175505	0.333185
F297	F	1.497368	0.157828	0.666518
F298	F	0.132720	-0.085706	-0.000225
F299	F	0.466053	0.247627	0.333108
F300	F	0.799386	0.580961	0.666441
H301	H	0.246123	-0.071339	-0.000240
H302	H	0.579457	0.261994	0.333094
H303	H	0.912790	0.595327	0.666427
F304	F	0.398854	-0.030513	-0.000158
F305	F	0.732188	0.302821	0.333175
F306	F	1.065521	0.636154	0.666509
H307	H	0.740864	0.005306	-0.637026
H308	H	1.074197	0.338640	-0.303693
H309	H	1.407530	0.671973	0.029640
F310	F	0.521475	-0.029040	-0.000136
F311	F	0.854808	0.304294	0.333197
F312	F	1.188142	0.637627	0.666530
H313	H	0.574207	-0.740136	-0.000082
H314	H	0.907540	-0.406802	0.333252
H315	H	1.240874	-0.073469	0.666585
F316	F	0.782053	-0.228531	-0.000170
F317	F	1.115386	0.104802	0.333163
F318	F	1.448720	0.438135	0.666496
F319	F	0.776978	-0.652399	-0.000133
F320	F	1.110311	-0.319066	0.333200
F321	F	1.443644	0.014267	0.666534
F322	F	0.562602	-0.623192	-0.000059
F323	F	0.895935	-0.289859	0.333275
F324	F	1.229268	0.043474	0.666608
H325	H	0.525555	-0.459814	-0.000020
H326	H	0.858889	-0.126481	0.333313
H327	H	1.192222	0.206852	0.666646
H328	H	0.526850	-0.352066	-0.000029
H329	H	0.860183	-0.018732	0.333304
H330	H	1.193516	0.314601	0.666638
