data_functionalizedCrystal
_audit_creation_method	'MofGen! by Chris Wilmer'
_symmetry_space_group_name_H-M	'P1'
_symmetry_Int_Tables_number	1
_symmetry_cell_setting	triclinic
loop_
_symmetry_equiv_pos_as_xyz
  x,y,z
_cell_length_a	15.995350
_cell_length_b	15.995343
_cell_length_c	13.596369
_cell_angle_alpha	90.010710
_cell_angle_beta	89.998321
_cell_angle_gamma	96.509220
loop_
_atom_site_label
_atom_site_type_symbol
_atom_site_fract_x
_atom_site_fract_y
_atom_site_fract_z
O1	O	1.110983	-0.107928	-0.081719
O2	O	0.867208	-0.121256	-0.081740
O3	O	0.995763	0.007296	-0.081710
O4	O	0.982428	-0.236480	-0.081748
O5	O	0.995750	0.007303	0.081872
O6	O	0.867195	-0.121249	0.081843
O7	O	1.110971	-0.107922	0.081864
Zn8	Zn	0.989081	-0.114584	0.107826
Zn9	Zn	0.989098	-0.114593	-0.107702
O10	O	0.982416	-0.236473	0.081835
C11	C	0.836007	-0.120702	0.000049
C12	C	0.743056	-0.119050	0.000041
C13	C	0.405309	-0.113118	0.000063
C14	C	0.452746	-0.021565	0.000442
C15	C	0.549436	-0.023217	0.000066
C16	C	0.572869	-0.116060	0.000053
C17	C	0.531788	-0.161221	-0.093364
C18	C	0.435153	-0.158921	-0.093435
C19	C	0.434799	-0.160805	0.092589
C20	C	0.531744	-0.160783	0.093817
C21	C	0.667567	-0.117728	0.000044
C22	C	0.310611	-0.111452	0.000065
C23	C	0.995206	0.038494	0.000084
C24	C	0.993557	0.131445	0.000091
C25	C	1.142172	-0.108476	0.000073
C26	C	1.235122	-0.110128	0.000074
C27	C	0.982972	-0.267672	0.000039
C28	C	0.984621	-0.360622	0.000025
C29	C	0.990563	0.301631	0.000068
C30	C	0.897766	0.324977	0.000058
C31	C	0.896020	0.421655	-0.000324
C32	C	0.987615	0.469191	0.000047
C33	C	1.034282	0.440088	-0.093175
C34	C	1.035383	0.343296	-0.093242
C35	C	1.036727	0.343408	0.092789
C36	C	1.033301	0.439903	0.094003
C37	C	0.985953	0.563889	0.000032
C38	C	0.992228	0.206933	0.000077
N39	N	0.989075	-0.114578	0.254918
N40	N	0.989110	-0.114593	-0.254793
C41	C	0.989096	-0.114594	0.656209
C42	C	0.989088	-0.114592	0.544557
C43	C	0.989086	-0.114587	0.455567
C44	C	0.989077	-0.114584	0.343908
H45	H	0.402903	-0.226137	-0.097684
C46	C	0.587844	0.024744	0.090526
C47	C	0.683549	0.032636	0.107899
C48	C	0.721952	0.080603	0.198360
C49	C	0.664651	0.120678	0.271448
C50	C	0.568940	0.112787	0.254077
C51	C	0.530536	0.064820	0.163616
H52	H	0.725972	0.002969	0.053793
H53	H	0.792804	0.086444	0.211219
H54	H	0.693079	0.156186	0.338413
H55	H	0.526517	0.142453	0.308183
H56	H	0.459685	0.058978	0.150757
C57	C	0.849965	0.285820	-0.090126
C58	C	0.770450	0.223135	-0.075895
C59	C	0.722650	0.183978	-0.166081
C60	C	0.754366	0.207508	-0.270498
C61	C	0.833886	0.270197	-0.284733
C62	C	0.881685	0.309353	-0.194547
H63	H	0.746968	0.205714	0.001404
H64	H	0.663784	0.137572	-0.155543
H65	H	0.718982	0.178522	-0.337259
H66	H	0.857368	0.287617	-0.362033
H67	H	0.940551	0.355759	-0.205086
H68	H	1.002272	0.460170	-0.162823
C69	C	0.427705	0.027886	0.090935
C70	C	0.363876	-0.014254	0.165598
C71	C	0.338825	0.035200	0.256091
C72	C	0.377602	0.126795	0.271921
C73	C	0.441435	0.168940	0.197256
C74	C	0.466486	0.119486	0.106763
H75	H	0.335168	-0.082063	0.153881
H76	H	0.291572	0.004001	0.311362
H77	H	0.359058	0.163404	0.338909
H78	H	0.470143	0.236749	0.208972
H79	H	0.513739	0.150685	0.051491
C80	C	0.846923	0.446561	-0.091144
C81	C	0.809188	0.378438	-0.163552
C82	C	0.760090	0.403343	-0.254378
C83	C	0.748728	0.496371	-0.272796
C84	C	0.786465	0.564500	-0.200386
C85	C	0.835562	0.539595	-0.109560
H86	H	0.817597	0.309567	-0.149920
H87	H	0.732155	0.352909	-0.307981
H88	H	0.712383	0.514807	-0.340031
H89	H	0.778055	0.633371	-0.214018
H90	H	0.863497	0.590029	-0.055957
C91	C	0.846663	0.447360	0.089929
C92	C	0.890134	0.508587	0.166488
C93	C	0.840768	0.534283	0.256741
C94	C	0.747932	0.498753	0.270436
C95	C	0.704457	0.437523	0.193874
C96	C	0.753822	0.411827	0.103620
H97	H	0.958861	0.534892	0.156353
H98	H	0.872952	0.579610	0.313417
H99	H	0.711389	0.517775	0.337247
H100	H	0.635730	0.411218	0.204009
H101	H	0.721638	0.366500	0.046945
C102	C	0.997182	0.305220	0.188283
C103	C	0.922459	0.235603	0.183286
C104	C	0.882912	0.197405	0.278773
C105	C	0.918087	0.228825	0.379257
C106	C	0.992815	0.298446	0.384259
C107	C	1.032362	0.336644	0.288772
H108	H	0.896416	0.212341	0.108898
H109	H	0.827593	0.145867	0.275070
H110	H	0.888812	0.200549	0.449943
H111	H	1.018858	0.321708	0.458647
H112	H	1.087680	0.388182	0.292474
C113	C	0.992241	0.307091	-0.187742
C114	C	1.027840	0.335620	-0.289059
C115	C	0.984695	0.299421	-0.383559
C116	C	0.905950	0.234692	-0.376743
C117	C	0.870346	0.206160	-0.275422
C118	C	0.913491	0.242359	-0.180921
H119	H	1.086136	0.383539	-0.294108
H120	H	1.011051	0.320543	-0.458564
H121	H	0.874011	0.207895	-0.446698
H122	H	0.812050	0.158241	-0.270372
H123	H	0.887135	0.221237	-0.105916
H124	H	1.105029	0.329388	0.093701
C125	C	1.125347	0.483116	-0.097511
C126	C	1.187076	0.470224	-0.013406
C127	C	1.278140	0.513256	-0.017740
C128	C	1.307474	0.569179	-0.106179
C129	C	1.245744	0.582072	-0.190290
C130	C	1.154680	0.539041	-0.185956
H131	H	1.165362	0.428825	0.052068
H132	H	1.323837	0.503711	0.044525
H133	H	1.374885	0.601033	-0.109388
H134	H	1.267458	0.623472	-0.255764
H135	H	1.108984	0.548586	-0.248221
H136	H	0.414259	-0.130871	0.163396
C137	C	0.426286	0.027650	-0.089542
C138	C	0.361850	-0.014926	-0.163262
C139	C	0.335390	0.034286	-0.253247
C140	C	0.373365	0.126075	-0.269513
C141	C	0.437804	0.168657	-0.195791
C142	C	0.464264	0.119444	-0.105805
H143	H	0.333736	-0.082879	-0.151223
H144	H	0.287688	0.002764	-0.307821
H145	H	0.353777	0.162505	-0.336126
H146	H	0.465918	0.236609	-0.207830
H147	H	0.511967	0.150967	-0.051231
H148	H	0.416851	-0.125993	-0.163257
H149	H	0.999317	0.458471	0.162970
C150	C	0.391887	-0.251992	0.093440
C151	C	0.410466	-0.312096	0.177093
C152	C	0.367549	-0.403278	0.177935
C153	C	0.306052	-0.434357	0.095125
C154	C	0.287470	-0.374252	0.011466
C155	C	0.330387	-0.283070	0.010623
H156	H	0.455992	-0.289090	0.238399
H157	H	0.381305	-0.447772	0.239865
H158	H	0.274282	-0.501856	0.095749
H159	H	0.241944	-0.397258	-0.049841
H160	H	0.316631	-0.238576	-0.051307
H161	H	0.577300	0.012515	-0.067005
C162	C	1.127312	0.323599	-0.098601
C163	C	1.199488	0.395915	-0.102811
C164	C	1.291415	0.376223	-0.108175
C165	C	1.311165	0.284214	-0.109328
C166	C	1.238986	0.211891	-0.105118
C167	C	1.147059	0.231584	-0.099755
H168	H	1.184870	0.464032	-0.101957
H169	H	1.344846	0.429761	-0.111291
H170	H	1.379214	0.269636	-0.113299
H171	H	1.253604	0.143775	-0.105972
H172	H	1.093628	0.178045	-0.096638
C173	C	0.550866	-0.253367	-0.098081
C174	C	0.604096	-0.288764	-0.016966
C175	C	0.623174	-0.380910	-0.021680
C176	C	0.589021	-0.437661	-0.107508
C177	C	0.535788	-0.402265	-0.188628
C178	C	0.516710	-0.310118	-0.183915
H179	H	0.629381	-0.246753	0.046574
H180	H	0.662581	-0.407112	0.038372
H181	H	0.603144	-0.505873	-0.110997
H182	H	0.510503	-0.444275	-0.252169
H183	H	0.477303	-0.283916	-0.243966
H184	H	0.560169	-0.129860	-0.162878
H185	H	1.100137	0.472852	0.099919
H186	H	0.559057	-0.127816	0.162926
C187	C	0.552491	-0.252249	0.101425
C188	C	0.600213	-0.280527	0.191672
C189	C	0.620959	-0.371997	0.199269
C190	C	0.593983	-0.435191	0.116619
C191	C	0.546259	-0.406915	0.026366
C192	C	0.525512	-0.315444	0.018769
H193	H	0.620185	-0.233746	0.252859
H194	H	0.656288	-0.392929	0.266080
H195	H	0.609341	-0.502903	0.122243
H196	H	0.526287	-0.453695	-0.034822
H197	H	0.490183	-0.294513	-0.048043
H198	H	0.861792	0.296977	0.066900
