data_functionalizedCrystal
_audit_creation_method	'MofGen! by Chris Wilmer'
_symmetry_space_group_name_H-M	'P1'
_symmetry_Int_Tables_number	1
_symmetry_cell_setting	triclinic
loop_
_symmetry_equiv_pos_as_xyz
  x,y,z
_cell_length_a	12.811445
_cell_length_b	12.837942
_cell_length_c	14.048226
_cell_angle_alpha	89.994377
_cell_angle_beta	84.562129
_cell_angle_gamma	89.412982
loop_
_atom_site_label
_atom_site_type_symbol
_atom_site_fract_x
_atom_site_fract_y
_atom_site_fract_z
O1	O	1.406656	0.139724	-0.200584
O2	O	1.102589	0.154905	-0.174339
O3	O	1.247880	-0.003618	-0.186874
O4	O	1.261365	0.298246	-0.188049
O5	O	1.247860	-0.003627	-0.028551
O6	O	1.102569	0.154895	-0.016016
O7	O	1.406635	0.139714	-0.042261
Zn8	Zn	1.254599	0.147303	-0.004001
Zn9	Zn	1.254626	0.147316	-0.212599
O10	O	1.261344	0.298237	-0.029726
C11	C	1.063389	0.154048	-0.091795
C12	C	0.946616	0.151496	-0.081715
C13	C	0.727206	0.146731	-0.235396
C14	C	0.617487	0.144334	-0.225930
C15	C	0.617457	0.144312	-0.053317
C16	C	0.727176	0.146709	-0.062783
C17	C	0.782046	0.147917	-0.153826
C18	C	0.891768	0.150307	-0.163292
C19	C	0.891736	0.150292	0.009321
C20	C	0.782017	0.147895	0.018787
C21	C	1.243315	-0.042263	-0.107320
C22	C	1.229728	-0.157399	-0.106148
C23	C	1.393059	-0.397649	-0.120266
C24	C	1.380298	-0.505830	-0.119166
C25	C	1.191448	-0.481945	-0.102856
C26	C	1.204208	-0.373764	-0.103956
C27	C	1.305017	-0.331620	-0.112660
C28	C	1.317777	-0.223437	-0.113753
C29	C	1.128927	-0.199553	-0.097449
C30	C	1.116166	-0.307735	-0.096349
C31	C	1.445835	0.140571	-0.124808
C32	C	1.562608	0.143123	-0.134893
C33	C	1.265910	0.336882	-0.109283
C34	C	1.279496	0.452018	-0.110460
N35	N	1.254588	0.147294	0.138360
N36	N	1.254644	0.147317	-0.354961
C37	C	1.318948	0.077129	0.182626
C38	C	1.318955	0.077129	0.282283
C39	C	1.254607	0.147299	0.337672
C40	C	1.190240	0.217467	0.293400
C41	C	1.190228	0.217461	0.193746
C42	C	1.190271	0.217474	0.501112
C43	C	1.190284	0.217481	0.600774
C44	C	1.318998	0.077142	0.589649
C45	C	1.318986	0.077137	0.489994
C46	C	1.254620	0.147306	0.445729
H47	H	0.737326	0.146915	0.092912
N48	N	0.558329	0.143050	-0.313905
H49	H	0.575344	0.207681	-0.353105
H50	H	0.579540	0.079218	-0.353390
N51	N	1.120864	0.293149	0.660517
H52	H	1.130643	0.282503	0.730363
H53	H	1.140331	0.366785	0.641407
H54	H	1.371353	0.019994	0.137533
H55	H	0.771882	0.147709	-0.309527
H56	H	0.936399	0.151256	0.075741
N57	N	1.501780	-0.352184	-0.129639
H58	H	1.555620	-0.410430	-0.134285
H59	H	1.511199	-0.307811	-0.189141
H60	H	1.057237	-0.145780	-0.091248
H61	H	1.137840	0.274597	0.338505
H62	H	1.371361	0.019995	0.318323
N63	N	1.388390	0.001461	0.430245
H64	H	1.464113	0.013772	0.441032
H65	H	1.368855	-0.072173	0.449304
N66	N	1.388426	0.001459	0.637384
H67	H	1.378669	0.012104	0.708920
H68	H	1.368947	-0.072174	0.621657
H69	H	1.137818	0.274595	0.157706
H70	H	1.109374	-0.516278	-0.095780
N71	N	1.475263	-0.577040	-0.127362
H72	H	1.474173	-0.622463	-0.068578
H73	H	1.474133	-0.622384	-0.185993
N74	N	0.950950	0.151620	-0.261484
H75	H	1.028779	0.153316	-0.255107
H76	H	0.933862	0.086995	-0.297701
N77	N	1.426500	-0.177976	-0.123134
H78	H	1.480337	-0.236225	-0.127788
H79	H	1.435912	-0.133602	-0.182637
H80	H	0.572762	0.143338	0.020806
N81	N	1.120844	0.293151	0.453366
H82	H	1.080083	0.337607	0.503575
H83	H	1.165623	0.339194	0.408137
N84	N	1.007442	-0.353192	-0.086965
H85	H	1.012716	-0.431745	-0.087423
H86	H	0.968439	-0.329077	-0.024902
