data_functionalizedCrystal
_audit_creation_method	'MofGen! by Chris Wilmer'
_symmetry_space_group_name_H-M	'P1'
_symmetry_Int_Tables_number	1
_symmetry_cell_setting	triclinic
loop_
_symmetry_equiv_pos_as_xyz
  x,y,z
_cell_length_a	13.262533
_cell_length_b	11.804783
_cell_length_c	10.654550
_cell_angle_alpha	103.188581
_cell_angle_beta	95.539506
_cell_angle_gamma	61.251876
loop_
_atom_site_label
_atom_site_type_symbol
_atom_site_fract_x
_atom_site_fract_y
_atom_site_fract_z
O1	O	1.466236	-0.375832	-0.255507
O2	O	1.140478	-0.270331	-0.249661
O3	O	1.310848	-0.325512	-0.070367
O4	O	1.295866	-0.320651	-0.434801
O5	O	1.351512	-0.536721	-0.118877
O6	O	1.181143	-0.481541	-0.298172
O7	O	1.506901	-0.587041	-0.304017
Cu8	Cu	1.347735	-0.553576	-0.305524
Cu9	Cu	1.299644	-0.303796	-0.248155
O10	O	1.336531	-0.531860	-0.483312
C11	C	1.119099	-0.362427	-0.269782
C12	C	0.994810	-0.322175	-0.257448
N13	N	1.381567	-0.729260	-0.345874
C14	C	0.733119	-0.669233	-0.328469
C15	C	0.849895	-0.707058	-0.340065
C16	C	0.886130	-0.610840	-0.319411
C17	C	0.805577	-0.476791	-0.287160
C18	C	0.688789	-0.438962	-0.275573
C19	C	0.841800	-0.380570	-0.266515
C20	C	0.761247	-0.246521	-0.234264
C21	C	0.644471	-0.208698	-0.222678
C22	C	0.608236	-0.304916	-0.243332
C23	C	0.958588	-0.418399	-0.278103
C24	C	0.914257	-0.188128	-0.225207
C25	C	0.797482	-0.150303	-0.213611
C26	C	1.184536	-1.039476	-0.110887
C27	C	1.158920	-0.906529	-0.080353
C28	C	1.214579	-0.862205	-0.146731
C29	C	1.295859	-0.950842	-0.243647
C30	C	1.321485	-1.083805	-0.274178
C31	C	1.351528	-0.906533	-0.310022
C32	C	1.432808	-0.995170	-0.406938
C33	C	1.458429	-1.128119	-0.437464
C34	C	1.402769	-1.172443	-0.371086
C35	C	1.325903	-0.773570	-0.279491
C36	C	1.462852	-0.817898	-0.442782
C37	C	1.488468	-0.950846	-0.473316
C38	C	1.528280	-0.494942	-0.283895
C39	C	1.652566	-0.535186	-0.296228
C40	C	1.330080	-0.430759	-0.047747
C41	C	1.326788	-0.429689	0.091926
N42	N	1.265820	-0.128115	-0.207795
C43	C	1.317298	-0.426611	-0.505931
C44	C	1.320588	-0.427672	-0.645602
C45	C	1.427099	-0.462179	0.164436
C46	C	1.423999	-0.461167	0.295674
C47	C	1.220269	-0.395176	0.281879
C48	C	1.223369	-0.396179	0.150646
C49	C	1.544723	-0.500284	0.172400
C50	C	1.541622	-0.499271	0.303638
H51	H	1.024163	-0.527542	-0.304364
H52	H	1.136067	-0.367893	0.329705
C53	C	1.069509	-0.809037	0.026246
N54	N	1.002158	-0.735602	0.106539
C55	C	0.693250	-0.775055	-0.351191
N56	N	0.663220	-0.854768	-0.368307
H57	H	1.524622	-1.200289	-0.516369
H58	H	1.573712	-0.426799	0.160143
C59	C	1.577882	-1.048365	-0.579917
N60	N	1.645230	-1.121818	-0.660206
C61	C	1.524081	-0.769148	-0.515805
N62	N	1.570195	-0.732421	-0.570799
H63	H	1.141682	-0.369705	0.091617
C64	C	1.186392	-0.715955	-0.113146
N65	N	1.165152	-0.605792	-0.087851
C66	C	1.619043	-0.639871	0.092449
N67	N	1.675019	-0.745010	0.032228
H68	H	0.981215	-0.641646	-0.328855
C69	C	1.624473	-0.638071	0.328470
N70	N	1.686872	-0.742612	0.347172
C71	C	0.938494	-0.854507	-0.375532
N72	N	1.005230	-0.965574	-0.402244
C73	C	0.479776	-0.263314	-0.230583
N74	N	0.383019	-0.231984	-0.220985
C75	C	1.565948	-0.391645	0.390262
N76	N	1.584277	-0.310589	0.455508
H77	H	0.578885	-0.099547	-0.196431
C78	C	0.708859	-0.002852	-0.178142
N79	N	0.642108	0.108209	-0.151428
C80	C	0.954110	-0.082281	-0.202482
N81	N	0.984135	-0.002565	-0.185369
C82	C	1.123321	-1.088244	-0.037883
N83	N	1.077209	-1.124976	0.017108
H84	H	1.259724	-0.701414	-0.200582
H85	H	1.423617	-1.280696	-0.395948
