data_functionalizedCrystal
_audit_creation_method	'MofGen! by Chris Wilmer'
_symmetry_space_group_name_H-M	'P1'
_symmetry_Int_Tables_number	1
_symmetry_cell_setting	triclinic
loop_
_symmetry_equiv_pos_as_xyz
  x,y,z
_cell_length_a	16.109301
_cell_length_b	16.098538
_cell_length_c	16.109298
_cell_angle_alpha	87.272597
_cell_angle_beta	83.460834
_cell_angle_gamma	92.735164
loop_
_atom_site_label
_atom_site_type_symbol
_atom_site_fract_x
_atom_site_fract_y
_atom_site_fract_z
O1	O	1.106851	0.069194	0.103154
O2	O	0.864790	0.069206	0.116453
O3	O	0.992472	0.069205	-0.011228
O4	O	0.979169	0.069194	0.230835
O5	O	0.985013	-0.069308	-0.003799
O6	O	0.857331	-0.069307	0.123882
O7	O	1.099392	-0.069319	0.110583
Zn8	Zn	0.977178	-0.091305	0.118412
Zn9	Zn	0.987005	0.091192	0.108624
O10	O	0.971710	-0.069319	0.238264
C11	C	0.830086	-0.000049	0.119629
C12	C	0.737790	-0.000044	0.118013
N13	N	0.970477	-0.215854	0.125092
C14	C	0.515517	-0.000057	0.190022
C15	C	0.428796	-0.000062	0.188498
C16	C	0.448673	-0.000052	0.037008
C17	C	0.535391	-0.000052	0.038533
C18	C	0.568811	-0.000051	0.115042
C19	C	0.395372	-0.000055	0.111993
C20	C	0.301345	-0.000061	0.110341
C21	C	0.662843	-0.000047	0.116695
C22	C	1.024690	-0.259440	0.070918
C23	C	1.020011	-0.346629	0.075599
C24	C	0.961121	-0.390231	0.134458
C25	C	0.906902	-0.346639	0.188634
C26	C	0.911578	-0.259452	0.183949
C27	C	0.944169	-0.653481	0.151428
C28	C	0.939499	-0.740674	0.156111
C29	C	1.052606	-0.740657	0.043075
C30	C	1.057281	-0.653468	0.038398
C31	C	1.003059	-0.609884	0.092571
C32	C	0.956338	-0.479352	0.139246
C33	C	1.007839	-0.520765	0.087779
C34	C	1.134097	-0.000063	0.107407
C35	C	1.226392	-0.000062	0.109022
C36	C	0.988204	-0.000048	-0.038489
C37	C	0.986591	-0.000038	-0.130785
N38	N	0.993712	0.215741	0.101937
C39	C	0.985388	0.075448	-0.433902
C40	C	0.986916	0.075454	-0.347183
C41	C	0.978796	-0.075560	-0.339068
C42	C	0.977274	-0.075565	-0.425787
C43	C	0.980566	-0.000059	-0.473201
C44	C	0.983616	-0.000048	-0.299763
C45	C	0.985273	-0.000042	-0.205738
C46	C	0.978911	-0.000064	-0.567233
C47	C	0.975978	-0.000064	0.265524
C48	C	0.977592	-0.000068	0.357820
H49	H	0.385406	-0.000069	0.249554
O50	O	0.988944	0.156884	-0.485045
H51	H	0.931806	0.160492	-0.517310
H52	H	0.990844	0.136939	-0.315189
O53	O	0.975239	-0.156998	-0.287929
H54	H	0.977099	-0.144311	-0.221024
H55	H	0.421451	-0.000058	-0.025282
O56	O	0.592883	-0.000048	-0.042340
H57	H	0.555078	-0.000037	-0.095799
O58	O	0.551557	-0.000069	0.272543
H59	H	0.593622	0.056388	0.273846
O60	O	1.088204	-0.212412	0.007431
H61	H	1.125108	-0.257371	-0.029458
H62	H	1.064155	-0.382115	0.031486
O63	O	0.972076	-0.157007	-0.468187
H64	H	0.913785	-0.193215	-0.442181
O65	O	1.120790	-0.606439	-0.025092
H66	H	1.157697	-0.651396	-0.061984
H67	H	0.891541	-0.776171	0.204045
O68	O	1.111085	-0.787661	-0.015357
H69	H	1.073974	-0.827387	-0.053650
O70	O	0.885698	-0.606476	0.209862
H71	H	0.843972	-0.651446	0.251583
H72	H	0.858949	-0.382145	0.236556
H73	H	0.867431	-0.223966	0.228062
H74	H	1.055784	-0.485262	0.039853
O75	O	0.892833	-0.526383	0.202738
H76	H	0.850311	-0.566121	0.169864
