data_functionalizedCrystal
_audit_creation_method	'MofGen! by Chris Wilmer'
_symmetry_space_group_name_H-M	'P1'
_symmetry_Int_Tables_number	1
_symmetry_cell_setting	triclinic
loop_
_symmetry_equiv_pos_as_xyz
  x,y,z
_cell_length_a	6.817900
_cell_length_b	7.076028
_cell_length_c	27.924003
_cell_angle_alpha	93.388806
_cell_angle_beta	98.973271
_cell_angle_gamma	117.700652
loop_
_atom_site_label
_atom_site_type_symbol
_atom_site_fract_x
_atom_site_fract_y
_atom_site_fract_z
V1	V	-4.178139	-0.666296	-0.066350
O2	O	-4.185138	-0.652266	0.003984
O3	O	-4.107109	-0.663034	-0.132326
O4	O	-4.205574	-0.956300	-0.064981
O5	O	-4.085991	-0.356970	-0.063828
V6	V	-4.654873	-0.629141	-0.057979
O7	O	-4.454290	-0.747799	-0.084714
O8	O	-4.828919	-0.547638	-0.039615
O9	O	-4.502697	-0.632403	0.007997
O10	O	-4.765271	-0.643171	-0.128312
O11	O	-4.864417	-0.938467	-0.060501
O12	O	-4.404232	-0.339137	-0.059348
C13	C	-3.944150	-0.652857	-0.148420
C14	C	-3.967867	-0.652123	-0.202354
C15	C	-4.048456	-0.451933	-0.580821
C16	C	-3.959273	-0.454423	-0.378108
O17	O	-3.872102	-0.288521	-0.346202
N18	N	-4.036969	-0.650189	-0.359455
C19	C	-4.136955	-0.845345	-0.391484
O20	O	-4.200973	-1.011911	-0.370967
C21	C	-4.226123	-0.842851	-0.594196
C22	C	-4.148440	-0.647075	-0.612846
C23	C	-3.970779	-0.256172	-0.599471
C24	C	-3.993085	-0.255553	-0.650147
C25	C	-4.093069	-0.450694	-0.682172
C26	C	-4.170747	-0.646455	-0.663521
C27	C	-4.326093	-1.038004	-0.626224
C28	C	-4.348373	-1.037363	-0.676904
C29	C	-4.270691	-0.841586	-0.695554
C30	C	-4.293037	-0.840976	-0.746222
N31	N	-4.215341	-0.645211	-0.764874
C32	C	-4.115357	-0.450070	-0.732849
C33	C	-4.090139	-0.846640	-0.285057
C34	C	-4.067851	-0.847264	-0.234379
C35	C	-3.890166	-0.456342	-0.221007
C36	C	-3.912470	-0.455721	-0.271685
C37	C	-4.012443	-0.650875	-0.303710
C38	C	-4.162211	-0.448783	-0.839272
C39	C	-4.184536	-0.448181	-0.889953
C40	C	-4.362207	-0.839101	-0.903321
C41	C	-4.339896	-0.839705	-0.852645
C42	C	-4.239883	-0.644528	-0.820621
O43	O	-4.380159	-1.006790	-0.778155
O44	O	-4.051309	-0.283525	-0.753375
C45	C	-4.026150	-0.452553	-0.530145
C46	C	-4.103827	-0.648314	-0.511495
C47	C	-4.203811	-0.843455	-0.543520
C48	C	-4.081539	-0.648938	-0.460817
C49	C	-3.981556	-0.453797	-0.428792
C50	C	-3.903860	-0.258032	-0.447445
C51	C	-3.926166	-0.257412	-0.498120
C52	C	-4.281507	-1.039221	-0.524867
C53	C	-4.259196	-1.039825	-0.474191
C54	C	-4.159212	-0.844684	-0.442166
C55	C	-4.203378	-0.268481	-0.061815
C56	C	-4.076719	-0.026936	-0.062511
C57	C	-4.328994	-0.642574	0.024089
C58	C	-4.284520	-0.643322	0.078023
H59	H	-4.131147	-1.006687	-0.219200
C60	C	-4.200138	-1.061340	-0.320279
N61	N	-4.283001	-1.223056	-0.346806
H62	H	-3.929819	-0.096130	-0.665326
C63	C	-4.411519	-1.253376	-0.605720
N64	N	-4.475852	-1.415606	-0.590278
C65	C	-3.780162	-0.241684	-0.185769
N66	N	-3.697293	-0.080012	-0.159227
C67	C	-3.840687	-0.042039	-0.518628
N68	N	-3.776291	0.120192	-0.534070
H69	H	-4.121276	-0.288749	-0.905134
H70	H	-4.080766	-0.289850	-0.813203
H71	H	-3.849207	-0.296302	-0.286866
H72	H	-3.889352	-0.097256	-0.573401
H73	H	-4.429774	-1.196284	-0.702976
C74	C	-3.793864	-0.043375	-0.412208
N75	N	-3.711004	0.118295	-0.385664
H76	H	-4.403215	-0.999126	-0.837460
H77	H	-4.443627	-0.997980	-0.929405
C78	C	-4.344652	-1.255210	-0.453683
N79	N	-4.408993	-1.417432	-0.438237
H80	H	-4.362921	-1.198131	-0.550938
