data_functionalizedCrystal
_audit_creation_method	'MofGen! by Chris Wilmer'
_symmetry_space_group_name_H-M	'P1'
_symmetry_Int_Tables_number	1
_symmetry_cell_setting	triclinic
loop_
_symmetry_equiv_pos_as_xyz
  x,y,z
_cell_length_a	10.908925
_cell_length_b	9.616153
_cell_length_c	11.026623
_cell_angle_alpha	89.999883
_cell_angle_beta	84.336680
_cell_angle_gamma	89.989818
loop_
_atom_site_label
_atom_site_type_symbol
_atom_site_fract_x
_atom_site_fract_y
_atom_site_fract_z
O1	O	-1.662452	0.115752	0.179054
O2	O	-1.309520	0.115731	0.088520
O3	O	-1.456734	0.115733	0.304537
O4	O	-1.515237	0.115750	-0.036963
O5	O	-1.456709	-0.115559	0.304528
O6	O	-1.309495	-0.115560	0.088511
O7	O	-1.662427	-0.115540	0.179045
Zn8	Zn	-1.485957	-0.152272	0.133776
Zn9	Zn	-1.485990	0.152464	0.133788
O10	O	-1.515213	-0.115541	-0.036973
C11	C	-1.263622	0.000083	0.080054
C12	C	-1.126895	0.000075	0.054858
C13	C	-0.915317	0.000089	0.120770
C14	C	-1.056631	0.000076	0.146814
N15	N	-1.485943	-0.360247	0.133771
C16	C	-1.406819	-0.580618	0.018469
C17	C	-1.407117	-0.419450	0.018162
C18	C	-1.620070	-0.418687	0.133179
C19	C	-1.619673	-0.579905	0.132397
C20	C	-1.432148	-0.580167	0.250242
C21	C	-1.429384	-0.418940	0.248831
C22	C	-0.708324	0.000102	0.187512
C23	C	-0.845051	0.000089	0.212712
C24	C	-1.445929	0.000087	0.347565
C25	C	-1.413755	0.000089	0.475787
N26	N	-1.486011	0.360439	0.133805
C27	C	-1.502589	0.000095	0.567518
C28	C	-1.469338	0.000097	0.700043
C29	C	-1.526016	0.000104	0.919999
C30	C	-1.558185	0.000103	0.791775
H31	H	-1.308320	-0.379942	0.014705
N32	N	-1.071154	0.000095	-0.068095
N33	N	-1.091988	0.097588	-0.138183
H34	H	-1.052619	0.097601	-0.225017
N35	N	-1.674663	-0.368031	0.029054
N36	N	-1.771103	-0.297170	0.042848
H37	H	-1.809657	-0.261398	-0.030694
N38	N	-1.343032	0.000072	0.724559
N39	N	-1.259496	0.000056	0.638385
H40	H	-1.170293	0.000036	0.655699
N41	N	-1.287468	0.000069	0.500355
N42	N	-1.246453	-0.097428	0.559533
H43	H	-1.157260	-0.097444	0.576884
H44	H	-0.870856	0.000106	0.022773
N45	N	-1.628876	0.000087	0.542949
N46	N	-1.669868	-0.097407	0.483772
H47	H	-1.759061	-0.097414	0.466420
H48	H	-0.889512	0.000089	0.310709
H49	H	-1.307781	-0.619435	0.014694
H50	H	-1.443780	-0.621110	-0.068013
N51	N	-1.112409	0.000079	0.269753
N52	N	-1.227124	0.000075	0.290736
H53	H	-1.266520	0.000078	0.377560
N54	N	-1.453845	-0.371054	-0.090948
N55	N	-1.486349	-0.456346	-0.167102
H56	H	-1.519334	-0.422169	-0.244176
N57	N	-1.684481	0.000091	0.767220
N58	N	-1.725476	-0.097405	0.708048
H59	H	-1.814671	-0.097417	0.690704
N60	N	-1.673863	-0.627039	0.026859
N61	N	-1.711710	-0.540869	-0.045708
H62	H	-1.749982	-0.574150	-0.120248
H63	H	-1.681561	-0.380334	0.216025
N64	N	-1.697627	-0.628803	0.235461
N65	N	-1.752158	-0.543859	0.307733
H66	H	-1.807218	-0.578386	0.380518
H67	H	-1.334959	-0.620911	0.257227
N68	N	-1.305431	-0.371027	0.250137
N69	N	-1.258841	-0.293936	0.166686
H70	H	-1.171298	-0.260089	0.167605
H71	H	-1.489571	-0.618282	0.335767
N72	N	-1.494336	-0.368373	0.359028
N73	N	-1.583772	-0.287902	0.354535
H74	H	-1.629654	-0.252187	0.432361
