data_functionalizedCrystal
_audit_creation_method	'MofGen! by Chris Wilmer'
_symmetry_space_group_name_H-M	'P1'
_symmetry_Int_Tables_number	1
_symmetry_cell_setting	triclinic
loop_
_symmetry_equiv_pos_as_xyz
  x,y,z
_cell_length_a	14.908178
_cell_length_b	14.908571
_cell_length_c	14.908308
_cell_angle_alpha	90.175053
_cell_angle_beta	90.221621
_cell_angle_gamma	90.179240
loop_
_atom_site_label
_atom_site_type_symbol
_atom_site_fract_x
_atom_site_fract_y
_atom_site_fract_z
Zn1	Zn	-0.467728	-1.319970	0.559107
Zn2	Zn	0.032272	-0.819970	1.059107
Zn3	Zn	-0.609493	-1.320875	0.400117
Zn4	Zn	-0.109493	-0.820875	0.900117
Zn5	Zn	-0.450513	-1.179218	0.401153
Zn6	Zn	0.049487	-0.679218	0.901153
Zn7	Zn	-0.608428	-1.161960	0.541833
Zn8	Zn	-0.108428	-0.661960	1.041833
O9	O	-0.534041	-1.245506	0.475552
O10	O	-0.034041	-0.745506	0.975552
O11	O	-0.494184	-1.445502	0.544812
O12	O	0.005816	-0.945502	1.044812
O13	O	-0.581645	-1.309684	0.274841
O14	O	-0.081645	-0.809684	0.774841
O15	O	-0.327380	-1.204733	0.429768
O16	O	0.172620	-0.704733	0.929768
O17	O	-0.598338	-1.446167	0.428003
O18	O	-0.098338	-0.946167	0.928003
O19	O	-0.340028	-1.308143	0.545817
O20	O	0.159972	-0.808143	1.045817
O21	O	-0.464843	-1.205610	0.275602
O22	O	0.035157	-0.705610	0.775602
O23	O	-0.463811	-1.051517	0.413019
O24	O	0.036189	-0.551517	0.913019
O25	O	-0.596523	-1.175320	0.669538
O26	O	-0.096523	-0.675320	1.169538
O27	O	-0.579830	-1.038838	0.516376
O28	O	-0.079830	-0.538838	1.016376
O29	O	-0.493151	-1.291409	0.682229
O30	O	0.006849	-0.791409	1.182229
O31	O	-0.734769	-1.292951	0.411253
O32	O	-0.234769	-0.792951	0.911253
O33	O	-0.733987	-1.176197	0.515371
O34	O	-0.233987	-0.676197	1.015371
C35	C	-0.766900	-1.232822	0.461346
C36	C	-0.266900	-0.732822	0.961346
C37	C	-0.866524	-1.227476	0.455303
C38	C	-0.366524	-0.727476	0.955303
C39	C	-0.519838	-1.012659	0.462936
C40	C	-0.019838	-0.512659	0.962936
C41	C	-0.513784	-0.913044	0.457558
C42	C	-0.013784	-0.413044	0.957558
C43	C	-0.546639	-1.231338	0.709311
C44	C	-0.046639	-0.731338	1.209311
C45	C	-0.552007	-1.225301	0.808925
C46	C	-0.052007	-0.725301	1.308925
C47	C	-1.066751	-1.325018	0.564907
C48	C	-0.566751	-0.825018	1.064907
C49	C	-1.160358	-1.319998	0.559232
C50	C	-0.660358	-0.819998	1.059232
C51	C	-1.147346	-1.212412	0.438283
C52	C	-0.647346	-0.712412	0.938283
C53	C	-1.053739	-1.217432	0.443958
C54	C	-0.553739	-0.717432	0.943958
C55	C	-1.013445	-1.273738	0.507271
C56	C	-0.513445	-0.773738	1.007271
C57	C	-0.919837	-1.278762	0.512941
C58	C	-0.419837	-0.778762	1.012941
C59	C	-0.906827	-1.171172	0.391998
C60	C	-0.406827	-0.671172	0.891998
C61	C	-1.000433	-1.166152	0.386323
C62	C	-0.500433	-0.666152	0.886323
C63	C	-0.300275	-1.258262	0.489835
C64	C	0.199725	-0.758262	0.989835
C65	C	-0.200658	-1.263698	0.495921
C66	C	0.299342	-0.763698	0.995921
C67	C	-0.548300	-1.479261	0.488219
C68	C	-0.048300	-0.979261	0.988219
C69	C	-0.554376	-1.578874	0.493616
C70	C	-0.054376	-1.078874	0.993616
C71	C	-0.623390	-0.712702	0.554915
C72	C	-0.123390	-0.212702	1.054915
C73	C	-0.617705	-0.619104	0.549865
C74	C	-0.117705	-0.119104	1.049865
C75	C	-0.496726	-0.632249	0.442415
C76	C	0.003274	-0.132249	0.942415
C77	C	-0.502411	-0.725847	0.447465
C78	C	-0.002411	-0.225847	0.947465
C79	C	-0.565746	-0.766070	0.503715
C80	C	-0.065746	-0.266070	1.003715
C81	C	-0.571434	-0.859669	0.508760
C82	C	-0.071434	-0.359669	1.008760
C83	C	-0.450452	-0.872812	0.401315
C84	C	0.049548	-0.372812	0.901315
C85	C	-0.444767	-0.779214	0.396265
C86	C	0.055233	-0.279214	0.896265
C87	C	-0.521430	-1.259673	0.242710
C88	C	-0.021430	-0.759673	0.742710
C89	C	-0.515820	-1.265897	0.143122
C90	C	-0.015820	-0.765897	0.643122
C91	C	-0.454433	-1.334839	1.009328
C92	C	0.045567	-0.834839	1.509328
C93	C	-0.459475	-1.329169	1.102924
C94	C	0.040525	-0.829169	1.602924
C95	C	-0.567126	-1.208289	1.089716
C96	C	-0.067126	-0.708289	1.589716
C97	C	-0.562085	-1.213958	0.996119
C98	C	-0.062085	-0.713958	1.496119
C99	C	-0.505737	-1.277237	0.955929
C100	C	-0.005737	-0.777237	1.455929
C101	C	-0.500701	-1.282910	0.862330
C102	C	-0.000701	-0.782910	1.362330
C103	C	-0.608347	-1.162026	0.849124
C104	C	-0.108347	-0.662026	1.349124
C105	C	-0.613389	-1.156356	0.942720
C106	C	-0.113389	-0.656356	1.442720
H107	H	-0.887031	-1.324611	0.564491
H108	H	-0.387031	-0.824611	1.064491
H109	H	-1.033943	-1.370871	0.616453
H110	H	-0.533943	-0.870871	1.116453
H111	H	-1.180169	-1.166567	0.386741
H112	H	-0.680169	-0.666567	0.886741
H113	H	-0.659263	-1.104835	0.975457
H114	H	-0.159263	-0.604835	1.475457
H115	H	-0.674964	-0.745452	0.600711
H116	H	-0.174964	-0.245452	1.100711
H117	H	-0.403516	-0.916275	0.359622
H118	H	0.096484	-0.416275	0.859622
H119	H	-0.613000	-1.156771	1.122455
H120	H	-0.113000	-0.656771	1.622455
H121	H	-0.664643	-0.575655	0.591559
H122	H	-0.164643	-0.075655	1.091559
H123	H	-0.454822	-1.334435	0.829609
H124	H	0.045178	-0.834435	1.329609
H125	H	-1.203756	-1.361750	0.606169
H126	H	-0.703756	-0.861750	1.106169
H127	H	-1.033254	-1.120308	0.334777
H128	H	-0.533254	-0.620308	0.834777
H129	H	-0.408558	-1.386367	0.976604
H130	H	0.091442	-0.886367	1.476604
H131	H	-0.863414	-1.129419	0.345064
H132	H	-0.363414	-0.629419	0.845064
H133	H	-0.393200	-0.746452	0.350470
H134	H	0.106800	-0.246452	0.850470
H135	H	-0.623006	-0.892417	0.554560
H136	H	-0.123006	-0.392417	1.054560
H137	H	-0.445157	-0.599483	0.396624
H138	H	0.054843	-0.099483	0.896624
H139	H	-0.417695	-1.376073	1.146398
H140	H	0.082305	-0.876073	1.646398
H141	H	-0.650125	-1.115123	0.805636
H142	H	-0.150125	-0.615123	1.305636
