data_functionalizedCrystal
_audit_creation_method	'MofGen! by Chris Wilmer'
_symmetry_space_group_name_H-M	'P1'
_symmetry_Int_Tables_number	1
_symmetry_cell_setting	triclinic
loop_
_symmetry_equiv_pos_as_xyz
  x,y,z
_cell_length_a	10.489741
_cell_length_b	14.044191
_cell_length_c	8.965430
_cell_angle_alpha	89.999312
_cell_angle_beta	90.006680
_cell_angle_gamma	91.134525
loop_
_atom_site_label
_atom_site_type_symbol
_atom_site_fract_x
_atom_site_fract_y
_atom_site_fract_z
O1	O	0.307791	-1.259807	0.123965
O2	O	0.296676	-0.983762	0.123984
O3	O	0.117273	-1.128066	0.123965
O4	O	0.487194	-1.115503	0.123984
O5	O	0.117257	-1.128057	-0.124113
O6	O	0.296660	-0.983753	-0.124095
O7	O	0.307775	-1.259799	-0.124114
Cu8	Cu	0.302216	-1.121775	-0.146756
Cu9	Cu	0.302235	-1.121786	0.146626
O10	O	0.487178	-1.115495	-0.124095
C11	C	0.069637	-1.127113	-0.000073
C12	C	-0.072280	-1.124274	-0.000070
C13	C	0.291806	-0.948410	-0.000053
C14	C	0.277303	-0.843085	-0.000046
C15	C	0.312645	-1.295151	-0.000073
C16	C	0.327148	-1.400476	-0.000070
C17	C	-0.149736	-1.032458	-0.000053
C18	C	-0.237466	-1.075827	-0.122372
C19	C	-0.237423	-1.075857	0.122215
C20	C	-0.158141	-1.167681	-0.122490
C21	C	-0.158090	-1.167698	0.122206
C22	C	-0.245785	-1.211134	-0.000142
C23	C	0.534814	-1.116448	-0.000053
C24	C	0.676731	-1.119287	-0.000046
C25	C	0.353648	-0.593320	-0.000057
C26	C	0.250808	-0.650247	-0.000059
C27	C	0.265553	-0.757552	-0.000052
C28	C	0.338905	-0.486005	-0.000064
N29	N	0.302239	-1.121793	0.352975
N30	N	0.302203	-1.121775	-0.353105
C31	C	0.219439	-1.188665	0.450223
C32	C	0.336929	-1.207642	0.549698
C33	C	0.184727	-1.102839	0.549629
C34	C	0.419793	-1.140814	0.450261
C35	C	0.267510	-1.035973	0.450183
C36	C	0.385080	-1.054915	0.549612
H37	H	-0.272426	-1.036973	-0.225778
C38	C	0.116901	-0.607227	-0.000055
C39	C	0.076022	-0.542032	-0.128870
C40	C	-0.057880	-0.499009	-0.128858
C41	C	-0.150904	-0.521181	-0.000030
C42	C	-0.110028	-0.586380	0.128795
C43	C	0.023875	-0.629403	0.128783
H44	H	0.144886	-0.525616	-0.224245
H45	H	-0.088139	-0.450745	-0.224223
H46	H	-0.250027	-0.489333	-0.000020
H47	H	-0.178892	-0.602796	0.224170
H48	H	0.054133	-0.677667	0.224149
C49	C	0.479760	-0.978504	0.608211
C50	C	0.591752	-1.007435	0.708446
C51	C	0.686435	-0.931031	0.767048
C52	C	0.669127	-0.825695	0.725414
C53	C	0.557131	-0.796759	0.625174
C54	C	0.462447	-0.873163	0.566572
H55	H	0.604569	-1.085416	0.739270
H56	H	0.769343	-0.952452	0.841253
H57	H	0.739218	-0.769136	0.768795
H58	H	0.544314	-0.718779	0.594350
H59	H	0.379539	-0.851742	0.492367
H60	H	-0.107744	-0.956967	-0.000171
C61	C	0.124990	-1.265117	0.391251
C62	C	0.143709	-1.370659	0.430565
C63	C	0.049268	-1.447112	0.371591
C64	C	-0.063892	-1.418022	0.273302
C65	C	-0.082616	-1.312474	0.233983
C66	C	0.011825	-1.236021	0.292958
H67	H	0.227481	-1.392198	0.503329
H68	H	0.063130	-1.525246	0.400698
H69	H	-0.133803	-1.474617	0.229646
H70	H	-0.166388	-1.290935	0.161220
H71	H	-0.002037	-1.157888	0.263851
C72	C	-0.111190	-1.220110	-0.262356
C73	C	0.032664	-1.232447	-0.288248
C74	C	0.079617	-1.284872	-0.428114
C75	C	-0.017283	-1.324959	-0.542088
C76	C	-0.161146	-1.312622	-0.516200
C77	C	-0.208099	-1.260198	-0.376334
H78	H	0.104403	-1.202772	-0.203874
H79	H	0.186114	-1.294003	-0.447277
H80	H	0.017475	-1.363766	-0.645625
H81	H	-0.232885	-1.342298	-0.600573
H82	H	-0.314597	-1.251066	-0.357170
H83	H	-0.287543	-1.286693	-0.000215
H84	H	-0.123100	-1.206519	0.225618
C85	C	-0.284592	-1.023367	0.261922
C86	C	-0.428528	-1.011815	0.288225
C87	C	-0.475691	-0.959319	0.427925
C88	C	-0.378917	-0.918375	0.541321
C89	C	-0.234971	-0.929926	0.515021
C90	C	-0.187808	-0.982422	0.375322
H91	H	-0.500174	-1.042126	0.204279
H92	H	-0.582250	-0.950769	0.447393
H93	H	-0.413829	-0.879514	0.644735
H94	H	-0.163325	-0.899615	0.598967
H95	H	-0.081250	-0.990972	0.355853
C96	C	0.487543	-0.636345	-0.000028
C97	C	0.580601	-0.614194	-0.128832
C98	C	0.714493	-0.657234	-0.128795
C99	C	0.755328	-0.722425	0.000046
C100	C	0.662268	-0.744579	0.128858
C101	C	0.528376	-0.701539	0.128821
H102	H	0.550375	-0.565932	-0.224215
H103	H	0.783382	-0.640833	-0.224151
H104	H	0.854443	-0.754286	0.000073
H105	H	0.692494	-0.792841	0.224242
H106	H	0.459487	-0.717940	0.224178
H107	H	0.366296	-1.280210	0.593410
H108	H	0.519190	-1.156916	0.406795
H109	H	0.238111	-0.963428	0.406439
H110	H	0.085364	-1.086816	0.593279
