data_functionalizedCrystal
_audit_creation_method	'MofGen! by Chris Wilmer'
_symmetry_space_group_name_H-M	'P1'
_symmetry_Int_Tables_number	1
_symmetry_cell_setting	triclinic
loop_
_symmetry_equiv_pos_as_xyz
  x,y,z
_cell_length_a	15.944551
_cell_length_b	10.489741
_cell_length_c	9.565339
_cell_angle_alpha	90.001269
_cell_angle_beta	90.000697
_cell_angle_gamma	84.018956
loop_
_atom_site_label
_atom_site_type_symbol
_atom_site_fract_x
_atom_site_fract_y
_atom_site_fract_z
O1	O	-1.115513	-0.164492	0.116113
O2	O	-0.871085	-0.184774	0.116148
O3	O	-0.998861	0.011042	0.116121
O4	O	-0.987737	-0.360308	0.116140
O5	O	-0.998850	0.011027	-0.116399
O6	O	-0.871074	-0.184789	-0.116372
O7	O	-1.115502	-0.164507	-0.116407
Zn8	Zn	-0.993287	-0.174650	-0.153307
Zn9	Zn	-0.993301	-0.174631	0.153048
O10	O	-0.987726	-0.360323	-0.116380
C11	C	-0.998015	0.058554	-0.000138
C12	C	-0.995502	0.200149	-0.000135
C13	C	-0.839781	-0.183939	-0.000108
C14	C	-0.746520	-0.181415	-0.000095
C15	C	-1.146807	-0.165342	-0.000148
C16	C	-1.240068	-0.167866	-0.000152
C17	C	-0.530897	-0.054006	-0.000128
C18	C	-0.470238	-0.113163	0.114520
C19	C	-0.575766	-0.176849	-0.000111
C20	C	-0.470250	-0.113207	-0.114727
C21	C	-0.410827	-0.172428	-0.000134
C22	C	-0.516336	-0.236039	0.114631
C23	C	-0.516354	-0.236066	-0.114719
C24	C	-0.455713	-0.295313	-0.000043
C25	C	-0.670784	-0.179391	-0.000097
C26	C	-0.315811	-0.169895	-0.000138
C27	C	-0.988572	-0.407835	-0.000118
C28	C	-0.991086	-0.549430	-0.000112
N29	N	-0.993283	-0.174663	-0.362386
C30	C	-0.914202	0.267162	-0.000113
C31	C	-0.952602	0.359810	-0.114763
C32	C	-0.952632	0.359799	0.114484
C33	C	-1.033935	0.290932	-0.114879
C34	C	-1.033954	0.290912	0.114470
C35	C	-1.072413	0.383533	-0.000208
C36	C	-0.934683	-0.265914	-0.546747
C37	C	-0.916998	-0.151016	-0.453524
C38	C	-1.010929	-0.289553	-0.453540
C39	C	-0.975589	-0.059651	-0.546701
C40	C	-1.069554	-0.198263	-0.546726
C41	C	-1.051901	-0.083281	-0.453544
N42	N	-0.993311	-0.174608	0.362128
H43	H	-0.563617	0.047944	0.000009
H44	H	-0.960600	0.037554	-0.587451
H45	H	-1.068301	0.260570	-0.211916
F46	F	-1.078886	0.250963	0.241157
F47	F	-0.907656	0.399684	0.241169
H48	H	-0.449820	-0.061199	0.211441
F49	F	-0.542871	-0.303893	0.241459
H50	H	-1.025854	-0.386741	-0.412645
F51	F	-0.413171	-0.428703	0.000044
F52	F	-1.159861	0.449349	-0.000299
H53	H	-0.536792	-0.287987	-0.211645
H54	H	-0.449846	-0.061233	-0.211649
H55	H	-0.885080	-0.343018	-0.587670
F56	F	-0.826832	0.201054	-0.000244
F57	F	-1.116694	0.017719	-0.400391
F58	F	-1.153820	-0.224444	-0.600282
H59	H	-0.918197	0.390338	-0.211682
F60	F	-0.832709	-0.124882	-0.400007
