data_functionalizedCrystal
_audit_creation_method	'MofGen! by Chris Wilmer'
_symmetry_space_group_name_H-M	'P1'
_symmetry_Int_Tables_number	1
_symmetry_cell_setting	triclinic
loop_
_symmetry_equiv_pos_as_xyz
  x,y,z
_cell_length_a	12.811457
_cell_length_b	11.792241
_cell_length_c	11.892057
_cell_angle_alpha	85.653074
_cell_angle_beta	91.068351
_cell_angle_gamma	84.118185
loop_
_atom_site_label
_atom_site_type_symbol
_atom_site_fract_x
_atom_site_fract_y
_atom_site_fract_z
O1	O	1.390418	0.149504	0.048537
O2	O	1.890418	0.649504	0.548537
O3	O	1.086926	0.168283	0.017422
O4	O	1.586926	0.668283	0.517422
O5	O	1.246036	-0.006344	0.033743
O6	O	1.746036	0.493656	0.533743
O7	O	1.231308	0.324131	0.032217
O8	O	1.731308	0.824131	0.532217
O9	O	1.234054	-0.019278	0.220524
O10	O	1.734054	0.480722	0.720524
O11	O	1.074944	0.155349	0.204203
O12	O	1.574944	0.655349	0.704203
O13	O	1.378436	0.136570	0.235319
O14	O	1.878436	0.636570	0.735319
Zn15	Zn	1.224787	0.143906	0.249416
Zn16	Zn	1.724787	0.643906	0.749416
Zn17	Zn	1.240574	0.160947	0.003324
Zn18	Zn	1.740574	0.660947	0.503324
O19	O	1.219325	0.311197	0.218998
O20	O	1.719325	0.811197	0.718998
C21	C	1.042081	0.161161	0.106829
C22	C	1.542081	0.661161	0.606829
C23	C	0.926309	0.159194	0.094960
C24	C	1.426309	0.659194	0.594960
C25	C	0.695698	0.141375	0.276307
C26	C	1.195698	0.641375	0.776307
C27	C	0.586920	0.139526	0.265161
C28	C	1.086920	0.639526	0.765161
C29	C	0.599973	0.153640	0.061521
C30	C	1.099973	0.653640	0.561521
C31	C	0.708752	0.155488	0.072667
C32	C	1.208752	0.655488	0.572667
C33	C	0.756610	0.149357	0.180064
C34	C	1.256610	0.649357	0.680064
C35	C	0.865389	0.151214	0.191210
C36	C	1.365389	0.651214	0.691210
C37	C	0.878441	0.165320	-0.012429
C38	C	1.378441	0.665320	0.487571
C39	C	0.769663	0.163471	-0.023576
C40	C	1.269663	0.663471	0.476424
C41	C	1.239120	-0.055094	0.127038
C42	C	1.739120	0.444906	0.627038
C43	C	1.236351	-0.181082	0.126753
C44	C	1.736351	0.318918	0.626753
C45	C	1.231259	-0.411747	0.126212
C46	C	1.731259	0.088253	0.626212
C47	C	1.234088	-0.283388	0.126512
C48	C	1.734088	0.216612	0.626512
C49	C	1.423281	0.143693	0.145909
C50	C	1.923281	0.643693	0.645909
C51	C	1.539053	0.145660	0.157771
C52	C	2.039053	0.645660	0.657771
C53	C	1.226242	0.359947	0.125700
C54	C	1.726242	0.859947	0.625700
C55	C	1.229012	0.485936	0.125978
C56	C	1.729012	0.985936	0.625978
N57	N	1.214021	0.132275	0.417369
N58	N	1.714021	0.632275	0.917369
C59	C	1.139118	0.051354	0.587239
C60	C	1.639118	0.551354	1.087239
C61	C	1.146635	0.059481	0.469666
C62	C	1.646635	0.559481	0.969666
C63	C	1.273896	0.196946	0.482652
C64	C	1.773896	0.696946	0.982652
C65	C	1.266379	0.188819	0.600225
C66	C	1.766379	0.688819	1.100225
C67	C	1.198987	0.116022	0.652514
C68	C	1.698987	0.616022	1.152514
C69	C	1.191465	0.107903	0.770088
C70	C	1.691465	0.607903	1.270088
C71	C	1.318731	0.245361	0.783072
C72	C	1.818731	0.745361	1.283072
C73	C	1.326248	0.253488	0.665500
C74	C	1.826248	0.753488	1.165500
N75	N	1.251341	0.172573	0.835372
N76	N	1.751341	0.672573	1.335372
H77	H	0.734663	0.136398	0.363754
H78	H	1.234663	0.636398	0.863754
H79	H	0.928047	0.171826	-0.090798
H80	H	1.428047	0.671826	0.409202
N81	N	1.066439	-0.027157	0.643650
N82	N	1.566439	0.472843	1.143650
H83	H	1.012564	0.018978	0.687232
H84	H	1.512564	0.518978	1.187232
H85	H	1.029721	-0.066875	0.584396
H86	H	1.529721	0.433125	1.084396
N87	N	1.383325	0.315074	0.853506
N88	N	1.883325	0.815074	1.353506
H89	H	1.460371	0.293950	0.840794
H90	H	1.960371	0.793950	1.340794
H91	H	1.364466	0.399088	0.830966
H92	H	1.864466	0.899088	1.330966
N93	N	1.398933	0.331993	0.609090
N94	N	1.898933	0.831993	1.109090
H95	H	1.356964	0.390992	0.555686
H96	H	1.856964	0.890992	1.055686
H97	H	1.435705	0.371650	0.668351
H98	H	1.935705	0.871650	1.168351
H99	H	1.097884	0.006820	0.416523
H100	H	1.597884	0.506820	0.916523
H101	H	1.136587	0.048632	0.812659
H102	H	1.636587	0.548632	1.312659
H103	H	0.904352	0.146229	0.278658
H104	H	1.404352	0.646229	0.778658
N105	N	0.521222	0.130911	0.368966
N106	N	1.021222	0.630911	0.868966
H107	H	0.568139	0.126528	0.438694
H108	H	1.068139	0.626528	0.938694
H109	H	0.468217	0.200542	0.368339
H110	H	0.968217	0.700542	0.868339
N111	N	1.346594	0.275440	0.426247
N112	N	1.846594	0.775440	0.926247
H113	H	1.342273	0.270765	0.341861
H114	H	1.842273	0.770765	0.841861
H115	H	1.325151	0.356607	0.444710
H116	H	1.825151	0.856607	0.944710
H117	H	0.560990	0.158612	-0.025917
H118	H	1.060990	0.658612	0.474083
N119	N	0.718044	0.170073	-0.139406
N120	N	1.218044	0.670073	0.360594
H121	H	0.639890	0.167687	-0.131865
H122	H	1.139890	0.667687	0.368135
H123	H	0.731849	0.243812	-0.182745
H124	H	1.231849	0.743812	0.317255
