data_functionalizedCrystal
_audit_creation_method	'MofGen! by Chris Wilmer'
_symmetry_space_group_name_H-M	'P1'
_symmetry_Int_Tables_number	1
_symmetry_cell_setting	triclinic
loop_
_symmetry_equiv_pos_as_xyz
  x,y,z
_cell_length_a	18.050590
_cell_length_b	18.050588
_cell_length_c	12.645323
_cell_angle_alpha	90.028389
_cell_angle_beta	90.006808
_cell_angle_gamma	90.018727
loop_
_atom_site_label
_atom_site_type_symbol
_atom_site_fract_x
_atom_site_fract_y
_atom_site_fract_z
Zn1	Zn	1.135341	-0.295868	0.598971
Zn2	Zn	1.385341	-0.045868	0.848971
Zn3	Zn	1.635341	0.204132	1.098971
Zn4	Zn	1.885341	0.454132	1.348971
Zn5	Zn	1.135232	-0.420067	0.421701
Zn6	Zn	1.385232	-0.170067	0.671701
Zn7	Zn	1.635232	0.079933	0.921701
Zn8	Zn	1.885232	0.329933	1.171701
Zn9	Zn	1.011144	-0.295872	0.421765
Zn10	Zn	1.261144	-0.045872	0.671765
Zn11	Zn	1.511144	0.204128	0.921765
Zn12	Zn	1.761144	0.454128	1.171765
Zn13	Zn	1.011105	-0.419998	0.598965
Zn14	Zn	1.261105	-0.169998	0.848965
Zn15	Zn	1.511105	0.080002	1.098965
Zn16	Zn	1.761105	0.330002	1.348965
O17	O	1.073206	-0.357951	0.510350
O18	O	1.323206	-0.107951	0.760350
O19	O	1.573206	0.142049	1.010350
O20	O	1.823206	0.392049	1.260350
O21	O	1.239251	-0.312371	0.575432
O22	O	1.489251	-0.062371	0.825432
O23	O	1.739251	0.187629	1.075432
O24	O	1.989251	0.437629	1.325432
O25	O	1.118742	-0.403623	0.273362
O26	O	1.368742	-0.153623	0.523362
O27	O	1.618742	0.096377	0.773362
O28	O	1.868742	0.346377	1.023362
O29	O	1.027680	-0.191947	0.445301
O30	O	1.277680	0.058053	0.695301
O31	O	1.527680	0.308053	0.945301
O32	O	1.777680	0.558053	1.195301
O33	O	1.239171	-0.403620	0.445192
O34	O	1.489171	-0.153620	0.695192
O35	O	1.739171	0.096380	0.945192
O36	O	1.989171	0.346380	1.195192
O37	O	1.118928	-0.191944	0.575494
O38	O	1.368928	0.058056	0.825494
O39	O	1.618928	0.308056	1.075494
O40	O	1.868928	0.558056	1.325494
O41	O	1.027575	-0.312378	0.273409
O42	O	1.277575	-0.062378	0.523409
O43	O	1.527575	0.187622	0.773409
O44	O	1.777575	0.437622	1.023409
O45	O	0.907214	-0.312310	0.445295
O46	O	1.157214	-0.062310	0.695295
O47	O	1.407214	0.187690	0.945295
O48	O	1.657214	0.437690	1.195295
O49	O	1.027615	-0.403501	0.747313
O50	O	1.277615	-0.153501	0.997313
O51	O	1.527615	0.096499	1.247313
O52	O	1.777615	0.346499	1.497313
O53	O	0.907186	-0.403505	0.575483
O54	O	1.157186	-0.153505	0.825483
O55	O	1.407186	0.096495	1.075483
O56	O	1.657186	0.346495	1.325483
O57	O	1.118890	-0.312304	0.747318
O58	O	1.368890	-0.062304	0.997318
O59	O	1.618890	0.187696	1.247318
O60	O	1.868890	0.437696	1.497318
O61	O	1.118705	-0.523983	0.445186
O62	O	1.368705	-0.273983	0.695186
O63	O	1.618705	-0.023983	0.945186
O64	O	1.868705	0.226017	1.195186
O65	O	1.027509	-0.523931	0.575421
O66	O	1.277509	-0.273931	0.825421
O67	O	1.527509	-0.023931	1.075421
O68	O	1.777509	0.226069	1.325421
C69	C	0.880254	-0.357901	0.510396
C70	C	1.130254	-0.107901	0.760396
C71	C	1.380254	0.142099	1.010396
C72	C	1.630254	0.392099	1.260396
C73	C	0.797708	-0.357897	0.510441
C74	C	1.047708	-0.107897	0.760441
C75	C	1.297708	0.142103	1.010441
C76	C	1.547708	0.392103	1.260441
C77	C	0.598263	-0.407630	0.581069
C78	C	0.848263	-0.157630	0.831069
C79	C	1.098263	0.092370	1.081069
C80	C	1.348263	0.342370	1.331069
C81	C	0.548874	-0.339913	0.607153
C82	C	0.798874	-0.089913	0.857153
C83	C	1.048874	0.160087	1.107153
C84	C	1.298874	0.410087	1.357153
C85	C	0.646577	-0.357938	0.510389
C86	C	0.896577	-0.107938	0.760389
C87	C	1.146577	0.142062	1.010389
C88	C	1.396577	0.392062	1.260389
C89	C	0.548885	-0.425694	0.484303
C90	C	0.798885	-0.175694	0.734303
C91	C	1.048885	0.074306	0.984303
C92	C	1.298885	0.324306	1.234303
C93	C	0.500592	-0.357984	0.510341
C94	C	0.750592	-0.107984	0.760341
C95	C	1.000592	0.142016	1.010341
C96	C	1.250592	0.392016	1.260341
C97	C	0.598276	-0.290185	0.536524
C98	C	0.848276	-0.040185	0.786524
C99	C	1.098276	0.209815	1.036524
C100	C	1.348276	0.459815	1.286524
C101	C	0.598290	-0.376012	0.413629
C102	C	0.848290	-0.126012	0.663629
C103	C	1.098290	0.123988	0.913629
C104	C	1.348290	0.373988	1.163629
C105	C	0.548924	-0.308248	0.439677
C106	C	0.798924	-0.058248	0.689677
C107	C	1.048924	0.191752	0.939677
C108	C	1.298924	0.441752	1.189677
C109	C	0.730676	-0.357913	0.510419
C110	C	0.980676	-0.107913	0.760419
C111	C	1.230676	0.142087	1.010419
C112	C	1.480676	0.392087	1.260419
C113	C	0.416496	-0.358002	0.510310
C114	C	0.666496	-0.108002	0.760310
C115	C	0.916496	0.141998	1.010310
C116	C	1.166496	0.391998	1.260310
C117	C	1.073111	-0.550904	0.510319
C118	C	1.323111	-0.300904	0.760319
C119	C	1.573111	-0.050904	1.010319
C120	C	1.823111	0.199096	1.260319
C121	C	1.073139	-0.633449	0.510341
C122	C	1.323139	-0.383449	0.760341
C123	C	1.573139	-0.133449	1.010341
C124	C	1.823139	0.116551	1.260341
C125	C	1.023625	-0.882274	0.581163
C126	C	1.273625	-0.632274	0.831163
C127	C	1.523625	-0.382274	1.081163
C128	C	1.773625	-0.132274	1.331163
C129	C	1.091344	-0.832816	0.607151
C130	C	1.341344	-0.582816	0.857151
C131	C	1.591344	-0.332816	1.107151
C132	C	1.841344	-0.082816	1.357151
C133	C	1.073293	-0.930570	0.510400
C134	C	1.323293	-0.680570	0.760400
C135	C	1.573293	-0.430570	1.010400
C136	C	1.823293	-0.180570	1.260400
C137	C	1.005502	-0.832946	0.484433
C138	C	1.255502	-0.582946	0.734433
C139	C	1.505502	-0.332946	0.984433
C140	C	1.755502	-0.082946	1.234433
C141	C	1.073214	-0.784585	0.510373
C142	C	1.323214	-0.534585	0.760373
C143	C	1.573214	-0.284585	1.010373
C144	C	1.823214	-0.034585	1.260373
C145	C	1.141048	-0.882199	0.536438
C146	C	1.391048	-0.632199	0.786438
C147	C	1.641048	-0.382199	1.036438
C148	C	1.891048	-0.132199	1.286438
C149	C	1.055161	-0.882333	0.413674
C150	C	1.305161	-0.632333	0.663674
C151	C	1.555161	-0.382333	0.913674
C152	C	1.805161	-0.132333	1.163674
C153	C	1.122927	-0.832898	0.439625
C154	C	1.372927	-0.582898	0.689625
C155	C	1.622927	-0.332898	0.939625
C156	C	1.872927	-0.082898	1.189625
C157	C	1.073338	-1.014668	0.510417
C158	C	1.323338	-0.764668	0.760417
C159	C	1.573338	-0.514668	1.010417
C160	C	1.823338	-0.264668	1.260417
C161	C	1.073177	-0.700488	0.510355
C162	C	1.323177	-0.450488	0.760355
C163	C	1.573177	-0.200488	1.010355
C164	C	1.823177	0.049512	1.260355
C165	C	1.266911	-0.358003	0.510305
C166	C	1.516911	-0.108003	0.760305
C167	C	1.766911	0.141997	1.010305
C168	C	2.016911	0.391997	1.260305
C169	C	1.349457	-0.358025	0.510286
C170	C	1.599457	-0.108025	0.760286
C171	C	1.849457	0.141975	1.010286
C172	C	2.099457	0.391975	1.260286
C173	C	1.073260	-0.357894	0.786856
C174	C	1.323260	-0.107894	1.036856
C175	C	1.573260	0.142106	1.286856
C176	C	1.823260	0.392106	1.536856
C177	C	1.073284	-0.357870	0.904686
C178	C	1.323284	-0.107870	1.154686
C179	C	1.573284	0.142130	1.404686
C180	C	1.823284	0.392130	1.654686
C181	C	1.073320	-0.164246	0.510405
C182	C	1.323320	0.085754	0.760405
C183	C	1.573320	0.335754	1.010405
C184	C	1.823320	0.585754	1.260405
C185	C	1.073369	-0.081700	0.510429
C186	C	1.323369	0.168300	0.760429
C187	C	1.573369	0.418300	1.010429
C188	C	1.823369	0.668300	1.260429
C189	C	1.073194	-0.357955	0.234921
C190	C	1.323194	-0.107955	0.484921
C191	C	1.573194	0.142045	0.734921
C192	C	1.823194	0.392045	0.984921
C193	C	1.073314	-0.357770	0.117091
C194	C	1.323314	-0.107770	0.367091
C195	C	1.573314	0.142230	0.617091
C196	C	1.823314	0.392230	0.867091
C197	C	1.015685	-0.414971	1.072247
C198	C	1.265685	-0.164971	1.322247
C199	C	1.515685	0.085029	1.572247
C200	C	1.765685	0.335029	1.822247
C201	C	1.015836	-0.415254	0.949687
C202	C	1.265836	-0.165254	1.199687
C203	C	1.515836	0.084746	1.449687
C204	C	1.765836	0.334746	1.699687
C205	C	1.151530	-0.379124	0.949173
C206	C	1.401530	-0.129124	1.199173
C207	C	1.651530	0.120876	1.449173
C208	C	1.901530	0.370876	1.699173
C209	C	1.151214	-0.379482	1.071771
C210	C	1.401214	-0.129482	1.321771
C211	C	1.651214	0.120518	1.571771
C212	C	1.901214	0.370518	1.821771
C213	C	1.053375	-0.279194	1.071899
C214	C	1.303375	-0.029194	1.321899
C215	C	1.553375	0.220806	1.571899
C216	C	1.803375	0.470806	1.821899
C217	C	1.051629	-0.279665	0.949293
C218	C	1.301629	-0.029665	1.199293
C219	C	1.551629	0.220335	1.449293
C220	C	1.801629	0.470335	1.699293
H221	H	0.619930	-0.449580	0.640908
H222	H	0.869930	-0.199580	0.890908
H223	H	1.119930	0.050420	1.140908
H224	H	1.369930	0.300420	1.390908
H225	H	0.981708	-0.903952	0.641062
H226	H	1.231708	-0.653952	0.891062
H227	H	1.481708	-0.403952	1.141062
H228	H	1.731708	-0.153952	1.391062
H229	H	1.028718	-0.472859	1.103056
H230	H	1.278718	-0.222859	1.353056
H231	H	1.528718	0.027141	1.603056
H232	H	1.778718	0.277141	1.853056
H233	H	1.028997	-0.473506	0.920363
H234	H	1.278997	-0.223506	1.170363
H235	H	1.528997	0.026494	1.420363
H236	H	1.778997	0.276494	1.670363
H237	H	1.164944	-0.811355	0.379772
H238	H	1.414944	-0.561355	0.629772
H239	H	1.664944	-0.311355	0.879772
H240	H	1.914944	-0.061355	1.129772
H241	H	0.527168	-0.324641	0.688961
H242	H	0.777168	-0.074641	0.938961
H243	H	1.027168	0.175359	1.188961
H244	H	1.277168	0.425359	1.438961
H245	H	1.106651	-0.811067	0.688938
H246	H	1.356651	-0.561067	0.938938
H247	H	1.606651	-0.311067	1.188938
H248	H	1.856651	-0.061067	1.438938
H249	H	0.997312	-0.259823	1.102827
H250	H	1.247312	-0.009823	1.352827
H251	H	1.497312	0.240177	1.602827
H252	H	1.747312	0.490177	1.852827
H253	H	1.168117	-0.436923	1.100370
H254	H	1.418117	-0.186923	1.350370
H255	H	1.668117	0.063077	1.600370
H256	H	1.918117	0.313077	1.850370
Br257	Br	1.225160	-0.313011	1.121221
Br258	Br	1.475160	-0.063011	1.371221
Br259	Br	1.725160	0.186989	1.621221
Br260	Br	1.975160	0.436989	1.871221
Br261	Br	1.116488	-0.204873	0.898254
Br262	Br	1.366488	0.045127	1.148254
Br263	Br	1.616488	0.295127	1.398254
Br264	Br	1.866488	0.545127	1.648254
Br265	Br	0.634278	-0.194683	0.573418
Br266	Br	0.884278	0.055317	0.823418
Br267	Br	1.134278	0.305317	1.073418
Br268	Br	1.384278	0.555317	1.323418
H269	H	1.039834	-0.904099	0.331911
H270	H	1.289834	-0.654099	0.581911
H271	H	1.539834	-0.404099	0.831911
H272	H	1.789834	-0.154099	1.081911
H273	H	1.198362	-0.903745	0.558484
H274	H	1.448362	-0.653745	0.808484
H275	H	1.698362	-0.403745	1.058484
H276	H	1.948362	-0.153745	1.308484
Br277	Br	0.513040	-0.238164	0.340016
Br278	Br	0.763040	0.011836	0.590016
Br279	Br	1.013040	0.261836	0.840016
Br280	Br	1.263040	0.511836	1.090016
H281	H	0.620013	-0.391304	0.331845
H282	H	0.870013	-0.141304	0.581845
H283	H	1.120013	0.108696	0.831845
H284	H	1.370013	0.358696	1.081845
Br285	Br	0.512721	-0.521165	0.447562
Br286	Br	0.762721	-0.271165	0.697562
Br287	Br	1.012721	-0.021165	0.947562
Br288	Br	1.262721	0.228835	1.197562
Br289	Br	0.910006	-0.796879	0.447844
Br290	Br	1.160006	-0.546879	0.697844
Br291	Br	1.410006	-0.296879	0.947844
Br292	Br	1.660006	-0.046879	1.197844
Br293	Br	0.919128	-0.393078	0.899549
Br294	Br	1.169128	-0.143078	1.149549
Br295	Br	1.419128	0.106922	1.399549
Br296	Br	1.669128	0.356922	1.649549
Br297	Br	0.918683	-0.393011	1.121397
Br298	Br	1.168683	-0.143011	1.371397
Br299	Br	1.418683	0.106989	1.621397
Br300	Br	1.668683	0.356989	1.871397
Br301	Br	1.225019	-0.311882	0.900598
Br302	Br	1.475019	-0.061882	1.150598
Br303	Br	1.725019	0.188118	1.400598
Br304	Br	1.975019	0.438118	1.650598
H305	H	1.168723	-0.435963	0.918472
H306	H	1.418723	-0.185963	1.168472
H307	H	1.668723	0.064037	1.418472
H308	H	1.918723	0.314037	1.668472
H309	H	0.994047	-0.263637	0.920218
H310	H	1.244047	-0.013637	1.170218
H311	H	1.494047	0.236363	1.420218
H312	H	1.744047	0.486363	1.670218
H313	H	1.095350	-0.236577	1.100899
H314	H	1.345350	0.013423	1.350899
H315	H	1.595350	0.263423	1.600899
H316	H	1.845350	0.513423	1.850899
