data_functionalizedCrystal
_audit_creation_method	'MofGen! by Chris Wilmer'
_symmetry_space_group_name_H-M	'P1'
_symmetry_Int_Tables_number	1
_symmetry_cell_setting	triclinic
loop_
_symmetry_equiv_pos_as_xyz
  x,y,z
_cell_length_a	15.995300
_cell_length_b	15.995292
_cell_length_c	12.503572
_cell_angle_alpha	93.525692
_cell_angle_beta	86.480794
_cell_angle_gamma	83.470212
loop_
_atom_site_label
_atom_site_type_symbol
_atom_site_fract_x
_atom_site_fract_y
_atom_site_fract_z
O1	O	1.115821	0.102882	-0.089353
O2	O	1.615821	0.602882	0.410647
O3	O	0.872036	0.116255	-0.089345
O4	O	1.372036	0.616255	0.410655
O5	O	1.000618	-0.012324	-0.089351
O6	O	1.500618	0.487676	0.410649
O7	O	0.987239	0.231461	-0.089347
O8	O	1.487239	0.731461	0.410653
O9	O	0.990948	-0.002638	0.089291
O10	O	1.490948	0.497362	0.589291
O11	O	0.862366	0.125940	0.089297
O12	O	1.362366	0.625940	0.589297
O13	O	1.106150	0.112568	0.089290
O14	O	1.606150	0.612568	0.589290
Cu15	Cu	0.983375	0.120139	0.105605
Cu16	Cu	1.483375	0.620139	0.605605
Cu17	Cu	0.994811	0.108684	-0.105661
Cu18	Cu	1.494811	0.608684	0.394339
O19	O	0.977569	0.241147	0.089295
O20	O	1.477569	0.741147	0.589295
C21	C	0.836006	0.120552	-0.000023
C22	C	1.336006	0.620552	0.499977
C23	C	0.743053	0.118917	-0.000021
C24	C	1.243053	0.618917	0.499979
C25	C	0.572871	0.115897	-0.000029
C26	C	1.072871	0.615897	0.499971
C27	C	0.525386	0.207448	-0.000025
C28	C	1.025386	0.707448	0.499975
C29	C	0.428721	0.205755	-0.000434
C30	C	0.928721	0.705755	0.499566
C31	C	0.405316	0.112925	-0.000036
C32	C	0.905316	0.612925	0.499964
C33	C	0.451969	0.061983	-0.101849
C34	C	0.951969	0.561983	0.398151
C35	C	0.548607	0.064295	-0.101932
C36	C	1.048607	0.564295	0.398068
C37	C	0.537889	0.073955	0.101225
C38	C	1.037889	0.573955	0.601225
C39	C	0.440872	0.074036	0.102560
C40	C	0.940872	0.574036	0.602560
C41	C	0.310621	0.111240	-0.000044
C42	C	0.810621	0.611240	0.499956
C43	C	0.667567	0.117579	-0.000029
C44	C	1.167567	0.617579	0.499971
C45	C	0.995238	-0.038677	-0.000032
C46	C	1.495238	0.461323	0.499968
C47	C	0.993606	-0.131630	-0.000040
C48	C	1.493606	0.368370	0.499960
C49	C	0.987605	-0.469367	-0.000030
C50	C	1.487605	0.030633	0.499970
C51	C	1.080390	-0.446049	0.000366
C52	C	1.580390	0.053951	0.500366
C53	C	1.082176	-0.349396	-0.000041
C54	C	1.582176	0.150604	0.499959
C55	C	0.990583	-0.301811	-0.000035
C56	C	1.490583	0.198189	0.499965
C57	C	0.949706	-0.336435	-0.102044
C58	C	1.449706	0.163565	0.397956
C59	C	0.948593	-0.433230	-0.102125
C60	C	1.448593	0.066770	0.397875
C61	C	0.935701	-0.422072	0.101025
C62	C	1.435701	0.077928	0.601025
C63	C	0.939067	-0.325507	0.102369
C64	C	1.439067	0.174493	0.602369
C65	C	0.992261	-0.207116	-0.000041
C66	C	1.492261	0.292884	0.499959
C67	C	0.985924	-0.564062	-0.000032
C68	C	1.485924	-0.064062	0.499968
C69	C	1.142181	0.108270	-0.000035
C70	C	1.642181	0.608270	0.499965
C71	C	1.235134	0.109905	-0.000044
C72	C	1.735134	0.609905	0.499956
C73	C	0.982948	0.267499	-0.000026
C74	C	1.482948	0.767499	0.499974
C75	C	0.984581	0.360452	-0.000025
C76	C	1.484581	0.860452	0.499975
N77	N	0.975338	0.128195	0.254197
N78	N	1.475338	0.628195	0.754197
N79	N	1.002855	0.100621	-0.254253
N80	N	1.502855	0.600621	0.245747
C81	C	0.963515	0.140053	0.473313
C82	C	1.463515	0.640053	0.973313
C83	C	1.014676	0.088766	0.526638
C84	C	1.514676	0.588766	1.026638
C85	C	1.008097	0.095364	0.648562
C86	C	1.508097	0.595364	1.148562
C87	C	0.970092	0.133456	0.351379
C88	C	1.470092	0.633456	0.851379
H89	H	0.569631	0.006509	0.102203
H90	H	1.069631	0.506509	0.602203
H91	H	0.425199	0.006690	0.109008
H92	H	0.925199	0.506690	0.609008
H93	H	0.914777	0.188913	0.519223
H94	H	1.414777	0.688913	1.019223
H95	H	1.122694	-0.334970	-0.073295
H96	H	1.622694	0.165030	0.426705
H97	H	0.396300	0.245402	0.072534
H98	H	0.896300	0.745402	0.572534
H99	H	0.984855	-0.464186	-0.178383
H100	H	1.484855	0.035814	0.321617
H101	H	1.119901	-0.479018	-0.072381
H102	H	1.619901	0.020982	0.427619
Br103	Br	0.835600	-0.457885	-0.109841
Br104	Br	1.335600	0.042115	0.390159
Br105	Br	0.827080	-0.269981	0.112649
Br106	Br	1.327080	0.230019	0.612649
H107	H	0.571054	0.092889	-0.178326
H108	H	1.071054	0.592889	0.321674
Br109	Br	0.821780	-0.445306	0.102180
Br110	Br	1.321780	0.054694	0.602180
H111	H	1.063418	0.039904	0.480723
H112	H	1.563418	0.539904	0.980723
Br113	Br	0.977115	-0.462261	0.229894
Br114	Br	1.477115	0.037739	0.729894
H115	H	0.548934	0.239739	-0.072925
H116	H	1.048934	0.739739	0.427075
Br117	Br	0.550216	0.275595	0.121122
Br118	Br	1.050216	0.775595	0.621122
Br119	Br	0.837710	-0.283642	-0.108369
Br120	Br	1.337710	0.216358	0.391631
Br121	Br	1.133418	-0.486109	0.122299
Br122	Br	1.633418	0.013891	0.622299
Br123	Br	0.388909	0.258350	-0.122787
Br124	Br	0.888909	0.758350	0.377213
Br125	Br	0.602818	-0.048142	-0.109176
Br126	Br	1.102818	0.451858	0.390824
H127	H	0.968768	-0.302856	0.177834
H128	H	1.468768	0.197144	0.677834
Br129	Br	0.428813	-0.052049	-0.107692
Br130	Br	0.928813	0.447951	0.392308
Br131	Br	0.411600	0.107085	-0.228615
Br132	Br	0.911600	0.607085	0.271385
H133	H	0.409448	0.111289	0.177883
H134	H	0.909448	0.611289	0.677883
H135	H	0.554204	0.108281	0.178418
H136	H	1.054204	0.608281	0.678418
H137	H	1.114556	-0.326413	0.073081
H138	H	1.614556	0.173587	0.573081
H139	H	0.986036	-0.320496	-0.177962
H140	H	1.486036	0.179504	0.322038
