data_functionalizedCrystal
_audit_creation_method	'MofGen! by Chris Wilmer'
_symmetry_space_group_name_H-M	'P1'
_symmetry_Int_Tables_number	1
_symmetry_cell_setting	triclinic
loop_
_symmetry_equiv_pos_as_xyz
  x,y,z
_cell_length_a	15.995350
_cell_length_b	15.995350
_cell_length_c	15.072220
_cell_angle_alpha	89.998899
_cell_angle_beta	89.991149
_cell_angle_gamma	96.507625
loop_
_atom_site_label
_atom_site_type_symbol
_atom_site_fract_x
_atom_site_fract_y
_atom_site_fract_z
O1	O	1.110996	-0.107921	-0.073703
O2	O	1.610996	0.392079	0.426297
O3	O	0.867221	-0.121249	-0.073721
O4	O	1.367221	0.378751	0.426279
O5	O	0.995772	0.007303	-0.073710
O6	O	1.495772	0.507303	0.426290
O7	O	0.982444	-0.236472	-0.073713
O8	O	1.482444	0.263528	0.426287
O9	O	0.995740	0.007296	0.073855
O10	O	1.495740	0.507296	0.573855
O11	O	0.867189	-0.121256	0.073844
O12	O	1.367189	0.378744	0.573844
O13	O	1.110964	-0.107928	0.073862
O14	O	1.610964	0.392072	0.573862
Zn15	Zn	0.989071	-0.114593	0.097283
Zn16	Zn	1.489071	0.385407	0.597283
Zn17	Zn	0.989113	-0.114584	-0.097141
Zn18	Zn	1.489113	0.385416	0.402859
O19	O	0.982413	-0.236480	0.073852
O20	O	1.482413	0.263520	0.573852
C21	C	0.836010	-0.120701	0.000060
C22	C	1.336010	0.379299	0.500060
C23	C	0.743060	-0.119049	0.000053
C24	C	1.243060	0.380951	0.500053
C25	C	0.405312	-0.113117	0.000071
C26	C	0.905312	0.386883	0.500071
C27	C	0.452746	-0.021565	0.000401
C28	C	0.952746	0.478435	0.500401
C29	C	0.549436	-0.023217	0.000063
C30	C	1.049436	0.476783	0.500063
C31	C	0.572873	-0.116060	0.000063
C32	C	1.072873	0.383940	0.500063
C33	C	0.531804	-0.161212	-0.084201
C34	C	1.031804	0.338788	0.415799
C35	C	0.435168	-0.158912	-0.084266
C36	C	0.935168	0.341088	0.415734
C37	C	0.434793	-0.160812	0.083543
C38	C	0.934793	0.339188	0.583543
C39	C	0.531738	-0.160790	0.084651
C40	C	1.031738	0.339210	0.584651
C41	C	0.667570	-0.117727	0.000055
C42	C	1.167570	0.382273	0.500055
C43	C	0.310614	-0.111452	0.000073
C44	C	0.810614	0.388548	0.500073
C45	C	0.995205	0.038494	0.000070
C46	C	1.495205	0.538494	0.500070
C47	C	0.993553	0.131444	0.000065
C48	C	1.493553	0.631444	0.500065
C49	C	1.142175	-0.108476	0.000080
C50	C	1.642175	0.391524	0.500080
C51	C	1.235125	-0.110127	0.000081
C52	C	1.735125	0.389873	0.500081
C53	C	0.982980	-0.267671	0.000069
C54	C	1.482980	0.232329	0.500069
C55	C	0.984631	-0.360621	0.000069
C56	C	1.484631	0.139379	0.500069
N57	N	0.989049	-0.114599	0.229971
N58	N	1.489049	0.385401	0.729971
C59	C	0.987621	0.469192	0.000068
C60	C	1.487621	0.969192	0.500068
C61	C	0.896069	0.421758	-0.000270
C62	C	1.396069	0.921758	0.499730
C63	C	0.897721	0.325068	0.000063
C64	C	1.397721	0.825068	0.500063
C65	C	0.990564	0.301631	0.000066
C66	C	1.490564	0.801631	0.500066
C67	C	1.035702	0.342705	0.084335
C68	C	1.535702	0.842705	0.584335
C69	C	1.033402	0.439341	0.084405
C70	C	1.533402	0.939341	0.584405
C71	C	1.035330	0.439707	-0.083404
C72	C	1.535330	0.939707	0.416596
C73	C	1.035308	0.342761	-0.084518
C74	C	1.535308	0.842761	0.415482
C75	C	0.992231	0.206934	0.000068
C76	C	1.492231	0.706934	0.500068
C77	C	0.985956	0.563890	0.000072
C78	C	1.485956	1.063890	0.500072
N79	N	0.989142	-0.114571	-0.229830
N80	N	1.489142	0.385429	0.270170
C81	C	0.989112	-0.114580	0.589173
C82	C	1.489112	0.385420	1.089173
C83	C	0.920095	-0.183135	0.551560
C84	C	1.420095	0.316865	1.051560
C85	C	0.920254	-0.183385	0.448735
C86	C	1.420254	0.316615	0.948735
C87	C	0.989080	-0.114590	0.410969
C88	C	1.489080	0.385410	0.910969
C89	C	1.076445	-0.133671	0.448266
C90	C	1.576445	0.366329	0.948266
C91	C	1.076058	-0.134159	0.551124
C92	C	1.576058	0.365841	1.051124
C93	C	0.971542	-0.026741	0.551272
C94	C	1.471542	0.473259	1.051272
C95	C	0.969537	-0.027327	0.448409
C96	C	1.469537	0.472673	0.948409
C97	C	0.989067	-0.114593	0.310255
C98	C	1.489067	0.385407	0.810255
C99	C	0.989130	-0.114579	0.689886
C100	C	1.489130	0.385421	1.189886
H101	H	0.577852	0.012275	0.060467
H102	H	1.077852	0.512275	0.560467
N103	N	1.096343	-0.213124	0.415968
N104	N	1.596343	0.286876	0.915968
N105	N	1.163746	-0.239858	0.438231
N106	N	1.663746	0.260142	0.938231
H107	H	1.177795	-0.295974	0.415424
H108	H	1.677795	0.204026	0.915424
N109	N	0.850373	0.446330	0.075128
N110	N	1.350373	0.946330	0.575128
N111	N	0.876430	0.433971	0.151668
N112	N	1.376430	0.933971	0.651668
H113	H	0.844164	0.451327	0.204923
H114	H	1.344164	0.951327	0.704923
H115	H	0.414244	-0.130885	0.147414
H116	H	0.914244	0.369115	0.647414
H117	H	1.004325	0.314320	0.147042
H118	H	1.504325	0.814320	0.647042
N119	N	0.893338	-0.003750	0.583841
N120	N	1.393338	0.496250	1.083841
N121	N	0.849599	-0.051831	0.635389
N122	N	1.349599	0.448169	1.135389
H123	H	0.794361	-0.035605	0.658387
H124	H	1.294361	0.464395	1.158387
H125	H	0.547102	-0.228494	0.089741
H126	H	1.047102	0.271506	0.589741
N127	N	0.429542	0.024307	0.076254
N128	N	0.929542	0.524307	0.576254
N129	N	0.377768	-0.009934	0.130953
N130	N	0.877768	0.490066	0.630953
H131	H	0.361395	0.022454	0.184542
H132	H	0.861395	0.522454	0.684542
N133	N	0.565967	-0.119411	0.162847
N134	N	1.065967	0.380589	0.662847
N135	N	0.558218	-0.043430	0.175413
N136	N	1.058218	0.456570	0.675413
H137	H	0.582397	-0.014198	0.230634
H138	H	1.082397	0.485802	0.730634
H139	H	1.103014	0.327400	-0.089603
H140	H	1.603014	0.827400	0.410397
N141	N	1.028490	0.039689	0.416181
N142	N	1.528490	0.539689	0.916181
N143	N	1.003345	0.098016	0.371916
N144	N	1.503345	0.598016	0.871916
H145	H	1.044987	0.145348	0.349160
H146	H	1.544987	0.645348	0.849160
N147	N	0.888913	-0.009169	0.417829
N148	N	1.388913	0.490831	0.917829
N149	N	0.845961	-0.060262	0.368641
N150	N	1.345961	0.439738	0.868641
H151	H	0.789019	-0.047440	0.347038
H152	H	1.289019	0.452560	0.847038
H153	H	0.416873	-0.125979	-0.147255
H154	H	0.916873	0.374021	0.352745
H155	H	1.129019	-0.086195	0.576003
H156	H	1.629019	0.413805	1.076003
N157	N	0.428168	0.024135	-0.074981
N158	N	0.928168	0.524135	0.425019
N159	N	0.375869	-0.010430	-0.128947
N160	N	0.875869	0.489570	0.371053
H161	H	0.358509	0.021843	-0.182188
H162	H	0.858509	0.521843	0.317812
H163	H	0.577307	0.012521	-0.060446
H164	H	1.077307	0.512521	0.439554
H165	H	0.402920	-0.226128	-0.088090
H166	H	0.902920	0.273872	0.411910
N167	N	0.838670	-0.169532	0.417111
N168	N	1.338670	0.330468	0.917111
N169	N	0.781220	-0.159599	0.471007
N170	N	1.281220	0.340401	0.971007
H171	H	0.723553	-0.149972	0.448678
H172	H	1.223553	0.350028	0.948678
H173	H	1.102831	0.471468	-0.083968
H174	H	1.602831	0.971468	0.416032
N175	N	0.549525	-0.246779	-0.088124
N176	N	1.049525	0.253221	0.411876
N177	N	0.592725	-0.275505	-0.028719
N178	N	1.092725	0.224495	0.471281
H179	H	0.605242	-0.335937	-0.031487
H180	H	1.105242	0.164063	0.468513
N181	N	0.997813	0.465488	-0.163533
N182	N	1.497813	0.965488	0.336467
N183	N	0.994335	0.541896	-0.178404
N184	N	1.494335	1.041896	0.321596
H185	H	0.967834	0.560106	-0.234992
H186	H	1.467834	1.060106	0.265008
H187	H	0.931473	-0.248570	0.424121
H188	H	1.431473	0.251430	0.924121
H189	H	0.560191	-0.129845	-0.146912
H190	H	1.060191	0.370155	0.353088
N191	N	1.121271	0.324996	0.088295
N192	N	1.621271	0.824996	0.588295
N193	N	1.179637	0.383993	0.088028
N194	N	1.679637	0.883993	0.588028
H195	H	1.240071	0.371486	0.090827
H196	H	1.740071	0.871486	0.590827
N197	N	0.394947	-0.245489	0.084249
N198	N	0.894947	0.254511	0.584249
N199	N	0.345043	-0.270699	0.023609
N200	N	0.845043	0.229301	0.523609
H201	H	0.316897	-0.330500	0.024100
H202	H	0.816897	0.169500	0.524100
H203	H	1.100617	0.471588	0.088231
H204	H	1.600617	0.971588	0.588231
H205	H	1.021872	0.024275	0.575595
H206	H	1.521872	0.524275	1.075595
H207	H	0.862238	0.296649	-0.060344
H208	H	1.362238	0.796649	0.439656
N209	N	0.850189	0.445007	-0.076088
N210	N	1.350189	0.945007	0.423912
N211	N	0.884425	0.496810	-0.130758
N212	N	1.384425	0.996810	0.369242
H213	H	0.852023	0.513233	-0.184310
H214	H	1.352023	1.013233	0.315690
H215	H	1.091540	-0.198219	0.575106
H216	H	1.591540	0.301781	1.075106
N217	N	0.838373	-0.169107	0.582643
N218	N	1.338373	0.330893	1.082643
N219	N	0.823198	-0.169803	0.664012
N220	N	1.323198	0.330197	1.164012
H221	H	0.765482	-0.159893	0.685974
H222	H	1.265482	0.340107	1.185974
H223	H	0.861974	0.297200	0.060568
H224	H	1.361974	0.797200	0.560568
H225	H	1.000460	0.457639	0.147395
H226	H	1.500460	0.957639	0.647395
H227	H	1.002306	0.315516	-0.146857
H228	H	1.502306	0.815516	0.353143
N229	N	1.142406	-0.072694	0.417575
N230	N	1.642406	0.427306	0.917575
N231	N	1.125721	-0.014354	0.367751
N232	N	1.625721	0.485646	0.867751
H233	H	1.172305	0.028713	0.346074
H234	H	1.672305	0.528713	0.846074
H235	H	0.931160	-0.247952	0.577399
H236	H	1.431160	0.252048	1.077399
