data_functionalizedCrystal
_audit_creation_method	'MofGen! by Chris Wilmer'
_symmetry_space_group_name_H-M	'P1'
_symmetry_Int_Tables_number	1
_symmetry_cell_setting	triclinic
loop_
_symmetry_equiv_pos_as_xyz
  x,y,z
_cell_length_a	15.944545
_cell_length_b	14.421503
_cell_length_c	14.044220
_cell_angle_alpha	89.996304
_cell_angle_beta	88.342525
_cell_angle_gamma	90.004847
loop_
_atom_site_label
_atom_site_type_symbol
_atom_site_fract_x
_atom_site_fract_y
_atom_site_fract_z
O1	O	1.123683	0.077054	0.122209
O2	O	0.880262	0.077069	0.137287
O3	O	0.998319	0.077053	-0.008236
O4	O	1.005626	0.077070	0.267733
O5	O	0.998299	-0.077171	-0.008215
O6	O	0.880242	-0.077154	0.137309
O7	O	1.123663	-0.077170	0.122231
Cu8	Cu	1.001951	-0.091244	0.129772
Cu9	Cu	1.001974	0.091143	0.129746
O10	O	1.005607	-0.077153	0.267755
C11	C	0.848911	-0.000041	0.136673
C12	C	0.755525	-0.000035	0.134800
C13	C	0.477719	-0.000051	0.038999
C14	C	0.531749	-0.076091	0.085197
C15	C	0.419380	-0.000051	0.128119
C16	C	0.531751	0.075962	0.085200
C17	C	0.584539	-0.000042	0.131396
C18	C	0.472181	-0.076154	0.174293
C19	C	0.472178	0.075967	0.174282
C20	C	0.526180	-0.000091	0.220546
C21	C	0.324237	-0.000058	0.126228
C22	C	0.679681	-0.000042	0.133294
N23	N	1.001941	-0.219525	0.129789
C24	C	0.947338	-0.469171	0.197049
C25	C	1.024616	-0.530977	0.215450
C26	C	1.001959	-0.408686	0.129767
C27	C	0.924703	-0.530974	0.111388
C28	C	1.001971	-0.591408	0.129747
C29	C	1.079279	-0.469132	0.148210
C30	C	0.979312	-0.469123	0.044111
C31	C	1.056643	-0.530902	0.062475
C32	C	1.001952	-0.303425	0.129780
C33	C	1.001987	-0.696667	0.129732
C34	C	1.155014	-0.000058	0.122845
C35	C	1.248401	-0.000057	0.124718
C36	C	0.995110	-0.000059	-0.043540
C37	C	0.985569	-0.000060	-0.148766
N38	N	1.001991	0.219425	0.129721
C39	C	0.968125	-0.000045	-0.341428
C40	C	1.035796	-0.000047	-0.399059
C41	C	1.026090	-0.000039	-0.506263
C42	C	0.977830	-0.000054	-0.234215
C43	C	1.008815	-0.000039	0.303058
C44	C	1.018356	-0.000032	0.408285
H45	H	0.557853	-0.140381	0.047569
H46	H	0.446179	-0.140508	0.211911
H47	H	0.901202	-0.442067	0.253994
N48	N	0.953892	-0.433101	-0.051794
H49	H	0.954614	-0.363073	-0.051254
H50	H	0.994553	-0.456600	-0.102724
N51	N	0.449341	-0.000167	-0.062652
H52	H	0.414951	0.057279	-0.074509
H53	H	0.500029	-0.000842	-0.107467
H54	H	1.102894	-0.557836	0.005565
N55	N	0.838158	-0.566967	0.090804
H56	H	0.796946	-0.544514	0.141681
H57	H	0.820692	-0.543497	0.026587
H58	H	1.043782	-0.558146	0.287878
H59	H	0.547424	-0.000131	0.297356
H60	H	0.557857	0.140243	0.047538
H61	H	0.902906	-0.000039	-0.372600
N62	N	0.437563	0.161121	0.224088
H63	H	0.485405	0.200125	0.247422
H64	H	0.403665	0.198476	0.178082
N65	N	1.165859	-0.433312	0.168899
H66	H	1.165316	-0.363280	0.168806
H67	H	1.183041	-0.456425	0.233358
H68	H	1.101020	0.000011	-0.367886
