data_functionalizedCrystal
_audit_creation_method	'MofGen! by Chris Wilmer'
_symmetry_space_group_name_H-M	'P1'
_symmetry_Int_Tables_number	1
_symmetry_cell_setting	triclinic
loop_
_symmetry_equiv_pos_as_xyz
  x,y,z
_cell_length_a	17.019282
_cell_length_b	17.038272
_cell_length_c	13.101039
_cell_angle_alpha	93.604737
_cell_angle_beta	90.519543
_cell_angle_gamma	87.241387
loop_
_atom_site_label
_atom_site_type_symbol
_atom_site_fract_x
_atom_site_fract_y
_atom_site_fract_z
O1	O	1.052994	0.099938	0.007738
O2	O	0.825137	0.111631	-0.012379
O3	O	0.937711	-0.008035	-0.002432
O4	O	0.940420	0.219604	-0.002209
O5	O	0.929635	0.000565	0.167284
O6	O	0.817061	0.120231	0.157338
O7	O	1.044917	0.108538	0.177454
Zn8	Zn	0.929707	0.115750	0.194342
Zn9	Zn	0.940348	0.104419	-0.029267
O10	O	0.932344	0.228204	0.167507
C11	C	0.791801	0.115320	0.069893
C12	C	0.704500	0.113489	0.062186
C13	C	0.659088	0.117316	0.151080
C14	C	0.577061	0.115583	0.143841
C15	C	0.540446	0.110030	0.047707
C16	C	0.585864	0.106202	-0.041193
C17	C	0.667890	0.107928	-0.033953
C18	C	0.293000	0.104577	0.021220
C19	C	0.210967	0.102853	0.013987
C20	C	0.202169	0.112233	0.199022
C21	C	0.284197	0.113964	0.206253
C22	C	0.329608	0.110131	0.117352
C23	C	0.456601	0.108262	0.040306
C24	C	0.413453	0.111894	0.124755
C25	C	0.931209	-0.032872	0.082209
C26	C	0.923860	-0.119691	0.081559
C27	C	0.991337	-0.169565	0.087518
C28	C	0.984427	-0.251141	0.086898
C29	C	0.910039	-0.282841	0.080327
C30	C	0.842557	-0.232961	0.074365
C31	C	0.849468	-0.151387	0.074978
C32	C	0.885624	-0.528686	0.078158
C33	C	0.878718	-0.610266	0.077549
C34	C	1.020589	-0.628441	0.090079
C35	C	1.027493	-0.546864	0.090697
C36	C	0.960011	-0.496992	0.084730
C37	C	0.902974	-0.366224	0.079697
C38	C	0.967077	-0.413611	0.085354
C39	C	1.078254	0.104849	0.095180
C40	C	1.165555	0.106679	0.102881
C41	C	0.938845	0.253041	0.082864
C42	C	0.946195	0.339860	0.083507
N43	N	0.922451	0.123483	0.346949
N44	N	0.947610	0.096680	-0.181873
C45	C	0.912579	0.134011	0.555120
C46	C	0.957479	0.086155	0.609963
C47	C	0.951986	0.092013	0.725796
C48	C	0.918071	0.128154	0.439276
H49	H	0.443268	0.116412	0.203026
Br50	Br	1.028779	0.010866	0.543263
Br51	Br	0.841638	0.209628	0.621851
H52	H	1.075528	-0.669056	0.094936
H53	H	0.781990	-0.258777	0.069009
Br54	Br	0.708771	0.124860	0.281553
Br55	Br	0.802022	-0.409252	0.070770
Br56	Br	0.406905	0.100685	-0.090158
H57	H	0.540090	0.118686	0.216228
H58	H	0.556046	0.101675	-0.119467
Br59	Br	0.333882	0.121510	0.336725
Br60	Br	0.757889	-0.083700	0.066883
Br61	Br	1.092296	-0.126552	0.096450
Br62	Br	1.128453	-0.503851	0.099582
H63	H	0.165187	0.115353	0.271399
H64	H	0.181158	0.098333	-0.064301
Br65	Br	1.076007	-0.318825	0.094984
H66	H	0.329964	0.101454	-0.051170
H67	H	0.818139	-0.636072	0.072214
H68	H	1.027644	-0.387798	0.090681
Br69	Br	0.729523	0.102728	-0.154600
H70	H	0.830676	-0.488089	0.073299
