data_functionalizedCrystal
_audit_creation_method	'MofGen! by Chris Wilmer'
_symmetry_space_group_name_H-M	'P1'
_symmetry_Int_Tables_number	1
_symmetry_cell_setting	triclinic
loop_
_symmetry_equiv_pos_as_xyz
  x,y,z
_cell_length_a	17.699077
_cell_length_b	16.992695
_cell_length_c	16.776229
_cell_angle_alpha	89.996425
_cell_angle_beta	89.994802
_cell_angle_gamma	86.974400
loop_
_atom_site_label
_atom_site_type_symbol
_atom_site_fract_x
_atom_site_fract_y
_atom_site_fract_z
O1	O	1.010251	0.099120	-0.066278
O2	O	1.343585	0.432453	0.267055
O3	O	1.676918	0.765786	0.600388
O4	O	0.790676	0.112024	-0.066282
O5	O	1.124009	0.445357	0.267051
O6	O	1.457343	0.778690	0.600384
O7	O	0.899583	-0.008569	-0.066274
O8	O	1.232917	0.324764	0.267059
O9	O	1.566250	0.658097	0.600393
O10	O	0.901344	0.219713	-0.066287
O11	O	1.234677	0.553046	0.267047
O12	O	1.568011	0.886379	0.600380
O13	O	0.899570	-0.008570	0.066302
O14	O	1.232904	0.324764	0.399636
O15	O	1.566237	0.658097	0.732969
O16	O	0.790663	0.112023	0.066294
O17	O	1.123996	0.445357	0.399627
O18	O	1.457329	0.778690	0.732961
O19	O	1.010238	0.099119	0.066298
O20	O	1.343572	0.432453	0.399631
O21	O	1.676905	0.765786	0.732965
Zn22	Zn	0.900448	0.105571	0.087345
Zn23	Zn	1.233782	0.438905	0.420679
Zn24	Zn	1.567115	0.772238	0.754012
Zn25	Zn	0.900466	0.105572	-0.087330
Zn26	Zn	1.233799	0.438905	0.246003
Zn27	Zn	1.567132	0.772238	0.579337
O28	O	0.901331	0.219712	0.066290
O29	O	1.234664	0.553046	0.399623
O30	O	1.567997	0.886379	0.732956
C31	C	0.762443	0.111562	0.000005
C32	C	1.095777	0.444895	0.333339
C33	C	1.429110	0.778229	0.666672
C34	C	0.678339	0.110177	0.000004
C35	C	1.011672	0.443510	0.333337
C36	C	1.345006	0.776844	0.666671
C37	C	0.638824	0.109524	0.072272
C38	C	0.972157	0.442858	0.405606
C39	C	1.305490	0.776191	0.738939
C40	C	0.559799	0.108211	0.072273
C41	C	0.893133	0.441544	0.405607
C42	C	1.226466	0.774877	0.738940
C43	C	0.520291	0.107555	0.000005
C44	C	0.853625	0.440889	0.333338
C45	C	1.186958	0.774222	0.666672
C46	C	0.559812	0.108206	-0.072269
C47	C	0.893146	0.441539	0.261064
C48	C	1.226479	0.774873	0.594398
C49	C	0.638835	0.109514	-0.072269
C50	C	0.972169	0.442847	0.261064
C51	C	1.305502	0.776180	0.594398
C52	C	0.241120	0.102930	-0.072270
C53	C	0.574454	0.436263	0.261063
C54	C	0.907787	0.769596	0.594396
C55	C	0.162092	0.101624	-0.072265
C56	C	0.495425	0.434957	0.261069
C57	C	0.828758	0.768291	0.594402
C58	C	0.162084	0.101627	0.072272
C59	C	0.495418	0.434960	0.405605
C60	C	0.828751	0.768293	0.738939
C61	C	0.241108	0.102935	0.072272
C62	C	0.574441	0.436268	0.405605
C63	C	0.907774	0.769601	0.738939
C64	C	0.280622	0.103581	-0.000001
C65	C	0.613955	0.436914	0.333332
C66	C	0.947289	0.770248	0.666665
C67	C	0.366309	0.105004	-0.000002
C68	C	0.699642	0.438337	0.333332
C69	C	1.032976	0.771670	0.666665
C70	C	0.434605	0.106138	0.000004
C71	C	0.767939	0.439472	0.333338
C72	C	1.101272	0.772805	0.666671
C73	C	0.897312	-0.037778	0.000014
C74	C	1.230645	0.295556	0.333347
C75	C	1.563979	0.628889	0.666681
C76	C	0.890555	-0.124809	0.000014
C77	C	1.223888	0.208525	0.333347
C78	C	1.557222	0.541858	0.666680
C79	C	0.955753	-0.175175	0.000016
C80	C	1.289086	0.158158	0.333349
C81	C	1.622419	0.491492	0.666682
C82	C	0.949399	-0.256949	0.000008
C83	C	1.282732	0.076384	0.333341
C84	C	1.616066	0.409717	0.666675
C85	C	0.877847	-0.288356	0.000004
C86	C	1.211180	0.044977	0.333337
C87	C	1.544514	0.378311	0.666671
C88	C	0.812644	-0.237983	-0.000000
C89	C	1.145978	0.095350	0.333333
C90	C	1.479311	0.428683	0.666666
C91	C	0.818999	-0.156211	0.000002
C92	C	1.152332	0.177123	0.333335
C93	C	1.485665	0.510456	0.666668
C94	C	0.851511	-0.531903	-0.000007
C95	C	1.184844	-0.198570	0.333326
C96	C	1.518178	0.134764	0.666659
C97	C	0.845161	-0.613682	-0.000007
C98	C	1.178495	-0.280349	0.333326
C99	C	1.511828	0.052985	0.666660
C100	C	0.981917	-0.632642	-0.000000
C101	C	1.315250	-0.299309	0.333333
C102	C	1.648584	0.034024	0.666667
C103	C	0.988265	-0.550867	0.000007
C104	C	1.321598	-0.217534	0.333340
C105	C	1.654932	0.115799	0.666673
C106	C	0.923062	-0.500502	-0.000002
C107	C	1.256396	-0.167169	0.333331
C108	C	1.589729	0.166165	0.666665
N109	N	0.871351	-0.371942	-0.000001
N110	N	1.204684	-0.038609	0.333332
N111	N	1.538018	0.294724	0.666665
N112	N	0.929559	-0.416917	-0.000002
N113	N	1.262892	-0.083584	0.333331
N114	N	1.596226	0.249749	0.666664
C115	C	1.038471	0.099581	0.000009
C116	C	1.371804	0.432914	0.333342
C117	C	1.705137	0.766248	0.666675
C118	C	1.122575	0.100966	0.000005
C119	C	1.455909	0.434299	0.333338
C120	C	1.789242	0.767632	0.666671
C121	C	0.903602	0.248921	-0.000000
C122	C	1.236935	0.582254	0.333333
C123	C	1.570269	0.915587	0.666667
C124	C	0.910359	0.335952	-0.000005
C125	C	1.243693	0.669285	0.333328
C126	C	1.577026	1.002618	0.666662
N127	N	0.900442	0.105570	0.206557
N128	N	1.233775	0.438904	0.539890
N129	N	1.567109	0.772237	0.873223
N130	N	0.900478	0.105566	-0.206541
N131	N	1.233811	0.438900	0.126792
N132	N	1.567144	0.772233	0.460126
C133	C	0.949214	0.153062	0.248268
C134	C	1.282547	0.486396	0.581602
C135	C	1.615881	0.819729	0.914935
C136	C	0.949222	0.153059	0.331721
C137	C	1.282556	0.486393	0.665054
C138	C	1.615889	0.819726	0.998387
C139	C	0.900454	0.105568	0.373460
C140	C	1.233788	0.438902	0.706793
C141	C	1.567121	0.772235	1.040126
C142	C	0.851680	0.058071	0.331742
C143	C	1.185013	0.391404	0.665075
C144	C	1.518347	0.724738	0.998409
C145	C	0.851676	0.058070	0.248291
C146	C	1.185009	0.391404	0.581625
C147	C	1.518343	0.724737	0.914958
C148	C	0.851695	0.058072	0.668289
C149	C	1.185029	0.391405	1.001622
C150	C	1.518362	0.724739	1.334956
C151	C	0.851701	0.058078	0.751746
C152	C	1.185035	0.391411	1.085079
C153	C	1.518368	0.724745	1.418412
C154	C	0.949242	0.153061	0.751718
C155	C	1.282575	0.486394	1.085052
C156	C	1.615908	0.819728	1.418385
C157	C	0.949238	0.153060	0.668268
C158	C	1.282571	0.486394	1.001601
C159	C	1.615904	0.819727	1.334934
C160	C	0.900467	0.105560	0.626557
C161	C	1.233800	0.438894	0.959891
C162	C	1.567133	0.772227	1.293224
C163	C	0.900459	0.105563	0.536069
C164	C	1.233793	0.438896	0.869402
C165	C	1.567126	0.772230	1.202736
C166	C	0.900457	0.105569	0.463946
C167	C	1.233790	0.438903	0.797280
C168	C	1.567124	0.772236	1.130613
H169	H	0.273284	0.103453	-0.131120
H170	H	0.606617	0.436787	0.202214
H171	H	0.939950	0.770120	0.535547
H172	H	1.046530	-0.525303	0.000010
H173	H	1.379863	-0.191969	0.333343
H174	H	1.713197	0.141364	0.666677
H175	H	0.670985	0.110065	0.131122
H176	H	1.004318	0.443398	0.464455
H177	H	1.337652	0.776731	0.797788
H178	H	0.988939	0.191731	0.365679
H179	H	1.322272	0.525064	0.699012
H180	H	1.655605	0.858397	1.032345
H181	H	0.129903	0.101097	0.131121
H182	H	0.463236	0.434430	0.464454
H183	H	0.796569	0.767764	0.797787
F184	F	1.051305	-0.686250	0.000008
F185	F	1.384638	-0.352917	0.333341
F186	F	1.717972	-0.019583	0.666675
F187	F	0.799794	0.007528	0.796166
F188	F	1.133127	0.340861	1.129499
F189	F	1.466460	0.674195	1.462832
H190	H	0.129926	0.101090	-0.131118
H191	H	0.463260	0.434423	0.202216
H192	H	0.796593	0.767756	0.535549
H193	H	0.811976	0.019399	0.365732
H194	H	1.145309	0.352732	0.699066
H195	H	1.478642	0.686065	1.032399
H196	H	0.527639	0.107667	-0.131111
H197	H	0.860972	0.441000	0.202222
H198	H	1.194306	0.774333	0.535556
F199	F	0.799767	0.007542	0.623909
F200	F	1.133100	0.340875	0.957242
F201	F	1.466434	0.674209	1.290575
H202	H	0.671008	0.110047	-0.131117
H203	H	1.004341	0.443380	0.202216
H204	H	1.337674	0.776713	0.535549
F205	F	0.799772	0.007516	0.203899
F206	F	1.133105	0.340850	0.537232
F207	F	1.466439	0.674183	0.870566
H208	H	0.786892	-0.639250	0.000003
H209	H	1.120226	-0.305916	0.333336
H210	H	1.453559	0.027417	0.666669
F211	F	1.001150	0.203613	0.796116
F212	F	1.334484	0.536947	1.129449
F213	F	1.667817	0.870280	1.462783
H214	H	1.002490	-0.297955	0.000011
H215	H	1.335824	0.035379	0.333345
H216	H	1.669157	0.368712	0.666678
H217	H	0.273271	0.103472	0.131120
H218	H	0.606604	0.436806	0.464454
H219	H	0.939938	0.770139	0.797787
H220	H	0.798418	-0.490905	-0.000014
H221	H	1.131751	-0.157571	0.333319
H222	H	1.465085	0.175762	0.666652
F223	F	1.001119	0.203612	0.203854
F224	F	1.334452	0.536945	0.537187
F225	F	1.667786	0.870278	0.870521
F226	F	0.517747	0.107527	0.149191
F227	F	0.851080	0.440860	0.482525
F228	F	1.184414	0.774194	0.815858
H229	H	1.014018	-0.149611	0.000024
H230	H	1.347351	0.183723	0.333357
H231	H	1.680685	0.517056	0.666690
F232	F	0.736493	-0.271411	-0.000014
F233	F	1.069826	0.061923	0.333320
F234	F	1.403160	0.395256	0.666653
F235	F	1.001135	0.203616	0.623851
F236	F	1.334468	0.536949	0.957184
F237	F	1.667802	0.870282	1.290517
H238	H	0.765908	-0.115203	-0.000000
H239	H	1.099241	0.218131	0.333333
H240	H	1.432574	0.551464	0.666666
