data_functionalizedCrystal
_audit_creation_method	'MofGen! by Chris Wilmer'
_symmetry_space_group_name_H-M	'P1'
_symmetry_Int_Tables_number	1
_symmetry_cell_setting	triclinic
loop_
_symmetry_equiv_pos_as_xyz
  x,y,z
_cell_length_a	12.759401
_cell_length_b	19.121063
_cell_length_c	12.759393
_cell_angle_alpha	92.402864
_cell_angle_beta	89.980163
_cell_angle_gamma	92.470439
loop_
_atom_site_label
_atom_site_type_symbol
_atom_site_fract_x
_atom_site_fract_y
_atom_site_fract_z
Zn1	Zn	1.588322	-0.279543	-0.611808
Zn2	Zn	2.088322	0.220457	-0.111808
Zn3	Zn	1.580681	-0.397012	-0.443603
Zn4	Zn	2.080681	0.102988	0.056397
Zn5	Zn	1.412622	-0.279582	-0.436146
Zn6	Zn	1.912622	0.220418	0.063854
Zn7	Zn	1.405081	-0.396960	-0.619237
Zn8	Zn	1.905081	0.103040	-0.119237
O9	O	1.496677	-0.338274	-0.527699
O10	O	1.996677	0.161726	-0.027699
O11	O	1.734330	-0.295130	-0.589507
O12	O	2.234330	0.204870	-0.089507
O13	O	1.558346	-0.381472	-0.295595
O14	O	2.058346	0.118528	0.204405
O15	O	1.442283	-0.181293	-0.453218
O16	O	1.942283	0.318707	0.046782
O17	O	1.728716	-0.381434	-0.465928
O18	O	2.228716	0.118566	0.034072
O19	O	1.571369	-0.181264	-0.582276
O20	O	2.071369	0.318736	-0.082276
O21	O	1.434874	-0.295198	-0.290116
O22	O	1.934874	0.204802	0.209884
O23	O	1.264601	-0.295148	-0.460421
O24	O	1.764601	0.204852	0.039579
O25	O	1.429430	-0.381346	-0.765270
O26	O	1.929430	0.118654	-0.265270
O27	O	1.259060	-0.381385	-0.594938
O28	O	1.759060	0.118615	-0.094938
O29	O	1.564057	-0.295080	-0.759812
O30	O	2.064057	0.204920	-0.259812
O31	O	1.551034	-0.495289	-0.473131
O32	O	2.051034	0.004711	0.026869
O33	O	1.422021	-0.495251	-0.602169
O34	O	1.922021	0.004749	-0.102169
C35	C	1.223710	-0.338266	-0.527677
C36	C	1.723710	0.161734	-0.027677
C37	C	1.106932	-0.338279	-0.527694
C38	C	1.606932	0.161721	-0.027694
C39	C	1.049209	-0.383251	-0.597635
C40	C	1.549209	0.116749	-0.097635
C41	C	0.939484	-0.383253	-0.597656
C42	C	1.439484	0.116747	-0.097656
C43	C	0.945217	-0.293310	-0.457786
C44	C	1.445217	0.206690	0.042214
C45	C	1.054940	-0.293305	-0.457770
C46	C	1.554940	0.206695	0.042230
C47	C	1.484908	-0.520754	-0.539288
C48	C	1.984908	-0.020754	-0.039288
C49	C	1.479970	-0.598820	-0.544281
C50	C	1.979970	-0.098820	-0.044281
C51	C	1.544872	-0.635492	-0.479500
C52	C	2.044872	-0.135492	0.020500
C53	C	1.540234	-0.708843	-0.484202
C54	C	2.040234	-0.208843	0.015798
C55	C	1.470687	-0.745521	-0.553682
C56	C	1.970687	-0.245521	-0.053682
C57	C	1.405782	-0.708844	-0.618470
C58	C	1.905782	-0.208844	-0.118470
C59	C	1.410427	-0.635494	-0.613772
C60	C	1.910427	-0.135494	-0.113772
C61	C	1.453306	-0.966989	-0.571229
C62	C	1.953306	-0.466989	-0.071229
C63	C	1.448664	-1.040344	-0.575920
C64	C	1.948664	-0.540344	-0.075920
C65	C	1.583118	-1.040338	-0.441653
C66	C	2.083118	-0.540338	0.058347
C67	C	1.587751	-0.966987	-0.436957
C68	C	2.087751	-0.466987	0.063043
C69	C	1.522851	-0.930316	-0.501749
C70	C	2.022851	-0.430316	-0.001749
C71	C	1.465942	-0.820497	-0.558487
C72	C	1.965942	-0.320497	-0.058487
C73	C	1.527602	-0.855341	-0.496948
C74	C	2.027602	-0.355341	0.003052
C75	C	1.770709	-0.338283	-0.527721
C76	C	2.270709	0.161717	-0.027721
C77	C	1.887486	-0.338287	-0.527730
C78	C	2.387486	0.161713	-0.027730
C79	C	1.496755	-0.338203	-0.801727
C80	C	1.996755	0.161797	-0.301727
C81	C	1.496788	-0.338173	-0.918502
C82	C	1.996788	0.161827	-0.418502
C83	C	1.508520	-0.155082	-0.516087
C84	C	2.008520	0.344918	-0.016087
C85	C	1.513566	-0.077016	-0.511138
C86	C	2.013566	0.422984	-0.011138
C87	C	1.432520	-0.293241	-0.970510
C88	C	1.932520	0.206759	-0.470510
C89	C	1.432546	-0.293220	-1.080233
C90	C	1.932546	0.206780	-0.580233
C91	C	1.561116	-0.383063	-1.085930
C92	C	2.061116	0.116937	-0.585930
C93	C	1.561084	-0.383088	-0.976210
C94	C	2.061084	0.116912	-0.476210
C95	C	1.496663	-0.338294	-0.254732
C96	C	1.996663	0.161706	0.245268
C97	C	1.496846	-0.338127	-0.137946
C98	C	1.996846	0.161873	0.362054
H99	H	1.101940	-0.256679	-0.400815
H100	H	1.601940	0.243321	0.099185
N101	N	1.377608	-1.077814	-0.646879
N102	N	1.877608	-0.577814	-0.146879
N103	N	1.281180	-1.069684	-0.639306
N104	N	1.781180	-0.569684	-0.139306
H105	H	1.230996	-1.096148	-0.689414
H106	H	1.730996	-0.596148	-0.189414
H107	H	1.091538	-0.419870	-0.654574
H108	H	1.591538	0.080130	-0.154574
H109	H	1.613464	-0.419631	-1.132929
H110	H	2.113464	0.080369	-0.632929
H111	H	1.357578	-0.605636	-0.666526
H112	H	1.857578	-0.105636	-0.166526
H113	H	1.601500	-0.605633	-0.422918
H114	H	2.101500	-0.105633	0.077082
N115	N	0.880505	-0.429197	-0.669079
N116	N	1.380505	0.070803	-0.169079
N117	N	0.782540	-0.429199	-0.669084
N118	N	1.282540	0.070801	-0.169084
H119	H	0.740883	-0.461649	-0.719527
H120	H	1.240883	0.038351	-0.219527
N121	N	1.366919	-0.247308	-1.133354
N122	N	1.866919	0.252692	-0.633354
N123	N	1.406803	-0.202541	-1.191745
N124	N	1.906803	0.297459	-0.691745
H125	H	1.360453	-0.170112	-1.229261
H126	H	1.860453	0.329888	-0.729261
N127	N	0.892090	-0.247377	-0.386371
N128	N	1.392090	0.252623	0.113629
N129	N	0.794124	-0.247387	-0.386392
N130	N	1.294124	0.252613	0.113608
H131	H	0.756602	-0.214947	-0.335953
H132	H	1.256602	0.285053	0.164047
N133	N	1.606553	-0.746291	-0.418038
N134	N	2.106553	-0.246291	0.081962
N135	N	1.668648	-0.713535	-0.356012
N136	N	2.168648	-0.213535	0.143988
H137	H	1.715496	-0.739981	-0.309285
H138	H	2.215496	-0.239981	0.190715
N139	N	1.658794	-0.929535	-0.365975
N140	N	2.158794	-0.429535	0.134025
N141	N	1.716738	-0.962286	-0.308138
N142	N	2.216738	-0.462286	0.191862
H143	H	1.766911	-0.935836	-0.258002
H144	H	2.266911	-0.435836	0.241998
H145	H	1.635958	-1.070203	-0.388904
H146	H	2.135958	-0.570203	0.111096
N147	N	1.387006	-0.929548	-0.637417
N148	N	1.887006	-0.429548	-0.137417
N149	N	1.324915	-0.962308	-0.699443
N150	N	1.824915	-0.462308	-0.199443
H151	H	1.278086	-0.935863	-0.746192
H152	H	1.778086	-0.435863	-0.246192
N153	N	1.334757	-0.746318	-0.689446
N154	N	1.834757	-0.246318	-0.189446
N155	N	1.330618	-0.811808	-0.693632
N156	N	1.830618	-0.311808	-0.193632
H157	H	1.280454	-0.838274	-0.743760
H158	H	1.780454	-0.338274	-0.243760
N159	N	1.598624	-0.817869	-0.425974
N160	N	2.098624	-0.317869	0.074026
N161	N	1.564267	-0.776995	-0.356385
N162	N	2.064267	-0.276995	0.143615
H163	H	1.614422	-0.750524	-0.306255
H164	H	2.114422	-0.250524	0.193745
N165	N	1.394897	-0.857977	-0.629437
N166	N	1.894897	-0.357977	-0.129437
N167	N	1.325386	-0.898970	-0.595025
N168	N	1.825386	-0.398970	-0.095025
H169	H	1.275212	-0.925444	-0.645133
H170	H	1.775212	-0.425444	-0.145133
N171	N	1.366846	-0.247356	-0.911579
N172	N	1.866846	0.252644	-0.411579
N173	N	1.309472	-0.207241	-0.958034
N174	N	1.809472	0.292759	-0.458034
H175	H	1.263086	-0.174832	-0.916417
H176	H	1.763086	0.325168	-0.416417
H177	H	1.613420	-0.419679	-0.933864
H178	H	2.113420	0.080321	-0.433864
