data_functionalizedCrystal
_audit_creation_method	'MofGen! by Chris Wilmer'
_symmetry_space_group_name_H-M	'P1'
_symmetry_Int_Tables_number	1
_symmetry_cell_setting	triclinic
loop_
_symmetry_equiv_pos_as_xyz
  x,y,z
_cell_length_a	8.559649
_cell_length_b	14.472310
_cell_length_c	15.995300
_cell_angle_alpha	90.003476
_cell_angle_beta	76.625236
_cell_angle_gamma	89.984099
loop_
_atom_site_label
_atom_site_type_symbol
_atom_site_fract_x
_atom_site_fract_y
_atom_site_fract_z
O1	O	-2.120159	0.076909	0.028413
O2	O	-1.654940	0.076893	-0.014830
O3	O	-1.900308	0.076906	0.129503
O4	O	-1.874790	0.076896	-0.115919
O5	O	-1.900245	-0.076776	0.129491
O6	O	-1.654877	-0.076789	-0.014842
O7	O	-2.120096	-0.076773	0.028402
Cu8	Cu	-1.887480	-0.090813	0.006779
Cu9	Cu	-1.887555	0.090934	0.006793
O10	O	-1.874727	-0.076786	-0.115931
C11	C	-1.595377	0.000050	-0.018113
C12	C	-1.417994	0.000044	-0.027868
N13	N	-1.887440	-0.218644	0.006771
C14	C	-1.887553	-0.592735	0.006796
C15	C	-1.755821	-0.553577	-0.070231
C16	C	-1.756125	-0.446488	-0.070462
C17	C	-1.887495	-0.407144	0.006783
C18	C	-2.054213	-0.445976	-0.001578
C19	C	-2.053473	-0.553098	-0.002113
C20	C	-1.854055	-0.553262	0.092483
C21	C	-1.850231	-0.446135	0.091652
C22	C	-1.887473	-0.302256	0.006779
C23	C	-1.887586	-0.697624	0.006800
C24	C	-1.179658	0.000064	0.031685
C25	C	-1.357042	0.000051	0.041440
C26	C	-1.899236	0.000068	0.160625
C27	C	-1.896116	0.000078	0.253377
N28	N	-1.887609	0.218764	0.006808
C29	C	-1.875800	0.000054	-0.147054
C30	C	-1.878920	0.000051	-0.239806
C31	C	-1.890353	0.000068	0.423190
C32	C	-2.065061	0.000076	0.481890
C33	C	-2.061874	-0.000276	0.578373
C34	C	-1.884682	0.000060	0.590382
C35	C	-1.797968	-0.087529	0.543667
C36	C	-1.802389	-0.087599	0.447318
C37	C	-1.799874	0.087172	0.446889
C38	C	-1.799890	0.088320	0.543834
C39	C	-1.881468	0.000052	0.684870
C40	C	-1.893563	0.000070	0.328701
H41	H	-1.440571	0.000057	0.108244
H42	H	-1.864829	-0.153318	0.433009
Br43	Br	-1.278794	0.000055	-0.139211
Br44	Br	-2.175425	0.104351	0.633134
H45	H	-1.950121	-0.578584	0.149678
H46	H	-1.632200	-0.420236	-0.067062
H47	H	-1.857416	0.153582	0.430091
H48	H	-1.674098	-0.091342	0.406795
H49	H	-1.667770	-0.090545	0.549394
H50	H	-1.857419	-0.152955	0.575839
Br51	Br	-1.905426	0.196328	0.596196
H52	H	-2.135287	0.062887	0.467931
H53	H	-2.134247	-0.062590	0.466668
H54	H	-1.670712	0.093867	0.550872
H55	H	-1.631494	-0.579368	-0.067044
Br56	Br	-1.790990	-0.598408	-0.176011
Br57	Br	-1.791698	-0.403757	-0.176833
H58	H	-2.082997	-0.578075	-0.064277
Br59	Br	-1.999781	-0.401516	0.190287
H60	H	-2.129662	-0.063426	0.610576
H61	H	-2.154558	-0.578999	0.052351
H62	H	-1.671057	0.088002	0.406834
H63	H	-2.154580	-0.420488	0.053481
Br64	Br	-2.104610	-0.401250	-0.103894
H65	H	-1.727592	-0.420756	0.098247
H66	H	-1.735126	-0.580333	0.103185
