data_functionalizedCrystal
_audit_creation_method	'MofGen! by Chris Wilmer'
_symmetry_space_group_name_H-M	'P1'
_symmetry_Int_Tables_number	1
_symmetry_cell_setting	triclinic
loop_
_symmetry_equiv_pos_as_xyz
  x,y,z
_cell_length_a	10.685980
_cell_length_b	21.295418
_cell_length_c	10.685880
_cell_angle_alpha	94.335956
_cell_angle_beta	99.081142
_cell_angle_gamma	85.599937
loop_
_atom_site_label
_atom_site_type_symbol
_atom_site_fract_x
_atom_site_fract_y
_atom_site_fract_z
Zn1	Zn	1.995599	0.207415	0.866629
Zn2	Zn	1.979122	0.305214	0.654352
Zn3	Zn	1.767039	0.207449	0.638101
Zn4	Zn	1.783225	0.320143	0.850252
O5	O	1.881246	0.260055	0.752334
O6	O	2.171050	0.214126	0.852125
O7	O	1.937320	0.286011	0.474572
O8	O	1.797479	0.119352	0.668469
O9	O	2.158945	0.285978	0.696166
O10	O	1.965401	0.119328	0.836367
O11	O	1.781503	0.214183	0.462633
O12	O	1.591549	0.228660	0.652589
O13	O	1.825066	0.311424	1.030049
O14	O	1.603441	0.311456	0.808455
O15	O	1.981096	0.228603	1.042081
O16	O	1.953015	0.395286	0.680286
O17	O	1.809089	0.406255	0.824213
C18	C	1.551436	0.271682	0.726982
C19	C	1.410343	0.276672	0.716167
C20	C	1.881057	0.423611	0.752266
C21	C	1.881096	0.493579	0.752288
C22	C	1.968714	0.992971	0.839890
C23	C	1.968687	0.927228	0.839871
C24	C	1.881304	0.894414	0.752389
C25	C	1.793961	0.927346	0.664898
C26	C	1.793998	0.993086	0.664911
N27	N	1.769381	0.794821	0.733999
N28	N	1.769350	0.732370	0.733994
C29	C	1.881189	0.696342	0.752342
N30	N	1.993064	0.725124	0.770719
N31	N	1.993094	0.787581	0.770731
C32	C	1.881255	0.823130	0.752364
C33	C	1.968503	0.592133	0.839800
C34	C	1.968479	0.526389	0.839773
C35	C	1.793742	0.526508	0.664805
C36	C	1.793777	0.592250	0.664827
C37	C	1.881157	0.625059	0.752332
C38	C	2.212345	0.248383	0.777785
C39	C	2.353439	0.243409	0.788630
C40	C	1.906724	0.271675	1.083409
C41	C	1.917582	0.276627	1.224493
C42	C	1.881425	1.095861	0.752417
C43	C	1.881378	1.025895	0.752415
C44	C	1.855940	0.248432	0.422552
C45	C	1.845329	0.243295	0.281487
H46	H	1.351115	0.308970	0.645844
N47	N	2.057961	1.026494	0.929255
N48	N	2.019474	1.067604	1.006665
H49	H	2.082506	1.091283	1.069775
N50	N	2.005641	0.317170	1.298686
N51	N	2.121660	0.308348	1.292979
H52	H	2.183855	0.336979	1.345379
H53	H	2.039645	0.618847	0.911060
H54	H	1.722877	1.019893	0.593677
N55	N	2.057908	0.893583	0.929216
N56	N	2.174418	0.896441	0.929921
H57	H	2.237428	0.872678	0.993020
N58	N	1.427740	0.202889	0.876828
N59	N	1.546095	0.198753	0.885783
H60	H	1.598579	0.170134	0.948073
N61	N	1.704698	0.893822	0.575557
N62	N	1.627180	0.861588	0.613925
H63	H	1.564136	0.837911	0.550824
N64	N	2.057714	0.492764	0.929130
N65	N	2.135721	0.522068	1.007243
H66	H	2.198747	0.498321	1.070353
H67	H	1.775154	0.210971	1.222347
H68	H	1.722597	0.499791	0.593571
H69	H	1.722654	0.619058	0.593600
