data_functionalizedCrystal
_audit_creation_method	'MofGen! by Chris Wilmer'
_symmetry_space_group_name_H-M	'P1'
_symmetry_Int_Tables_number	1
_symmetry_cell_setting	triclinic
loop_
_symmetry_equiv_pos_as_xyz
  x,y,z
_cell_length_a	18.050591
_cell_length_b	18.050589
_cell_length_c	17.640968
_cell_angle_alpha	78.773118
_cell_angle_beta	78.769792
_cell_angle_gamma	90.024669
loop_
_atom_site_label
_atom_site_type_symbol
_atom_site_fract_x
_atom_site_fract_y
_atom_site_fract_z
Zn1	Zn	1.220277	-0.210806	-0.447077
Zn2	Zn	1.195063	-0.360110	-0.314901
Zn3	Zn	1.070970	-0.235932	-0.314894
Zn4	Zn	1.096036	-0.334959	-0.447032
O5	O	1.145586	-0.285452	-0.380976
O6	O	1.320861	-0.230621	-0.429565
O7	O	1.157559	-0.364679	-0.204283
O8	O	1.090838	-0.128671	-0.332445
O9	O	1.302336	-0.340315	-0.332456
O10	O	1.200534	-0.110211	-0.429559
O11	O	1.066388	-0.273446	-0.204279
O12	O	0.970366	-0.249058	-0.332401
O13	O	1.133560	-0.297449	-0.557655
O14	O	0.988782	-0.321813	-0.429482
O15	O	1.224839	-0.206233	-0.557688
O16	O	1.181864	-0.460702	-0.332412
O17	O	1.109110	-0.442223	-0.429488
C18	C	0.952627	-0.285433	-0.380937
C19	C	0.870081	-0.285440	-0.380938
C20	C	0.611243	-0.245800	-0.328271
C21	C	0.674388	-0.214009	-0.400410
C22	C	0.572973	-0.285465	-0.381003
C23	C	0.656905	-0.317208	-0.308837
C24	C	0.718952	-0.285451	-0.380968
C25	C	0.635038	-0.253631	-0.453180
C26	C	0.617541	-0.356872	-0.361559
C27	C	0.680673	-0.325096	-0.433747
C28	C	0.488879	-0.285471	-0.381023
C29	C	0.803046	-0.285444	-0.380956
C30	C	1.145494	-0.478406	-0.380963
C31	C	1.145528	-0.560948	-0.380984
C32	C	1.106009	-0.750381	-0.433756
C33	C	1.074200	-0.813523	-0.361623
C34	C	1.145603	-0.712077	-0.380994
C35	C	1.177450	-0.796014	-0.453135
C36	C	1.145675	-0.858059	-0.381010
C37	C	1.113750	-0.774139	-0.308823
C38	C	1.217042	-0.756617	-0.400384
C39	C	1.185249	-0.819746	-0.328202
C40	C	1.145560	-0.627980	-0.380986
C41	C	1.145717	-0.942155	-0.381011
C42	C	1.339300	-0.285471	-0.381016
C43	C	1.421849	-0.285479	-0.381033
C44	C	1.184808	-0.246233	-0.587155
C45	C	1.201522	-0.229520	-0.675016
C46	C	1.145703	-0.091740	-0.381007
C47	C	1.145752	-0.009192	-0.381020
C48	C	1.018898	-0.412014	-0.963893
C49	C	1.034619	-0.396300	-1.046452
C50	C	1.129660	-0.301326	-1.046476
C51	C	1.113945	-0.317029	-0.963916
C52	C	1.058563	-0.372374	-0.922631
C53	C	1.153610	-0.277390	-0.922653
C54	C	1.137899	-0.293095	-0.840100
C55	C	1.082521	-0.348439	-0.798809
C56	C	1.042852	-0.388079	-0.840078
C57	C	1.208995	-0.222048	-0.963940
C58	C	1.248661	-0.182409	-0.922677
C59	C	1.232945	-0.198110	-0.840123
C60	C	1.177568	-0.253454	-0.798832
C61	C	1.272615	-0.158469	-0.798854
C62	C	1.256903	-0.174174	-0.716301
C63	C	1.161856	-0.269159	-0.716278
C64	C	1.106560	-0.324465	-0.175600
C65	C	1.089990	-0.340968	-0.087739
H66	H	0.581100	-0.212221	-0.283747
Br67	Br	0.967682	-0.463183	-0.784040
Br68	Br	1.086686	-0.344263	-0.660241
Br69	Br	1.222294	-0.812793	-0.554807
Br70	Br	0.715800	-0.113345	-0.427815
H71	H	1.289202	-0.141895	-0.682704
Br72	Br	0.943728	-0.487117	-0.907856
Br73	Br	0.618433	-0.208758	-0.554908
H74	H	1.072453	-0.720263	-0.478311
H75	H	1.013821	-0.838414	-0.345238
Br76	Br	1.068792	-0.757528	-0.207118
Br77	Br	1.347783	-0.083372	-0.854893
H78	H	1.174754	-0.256266	-1.080102
Br79	Br	1.230323	-0.200738	-1.075978
Br80	Br	0.730722	-0.380983	-0.508129
H81	H	0.592671	-0.417254	-0.345101
Br82	Br	1.323822	-0.107304	-0.978714
H83	H	1.002314	-0.428584	-1.080045
H84	H	1.277414	-0.731721	-0.416804
Br85	Br	0.673678	-0.361965	-0.207142
H86	H	1.069733	-0.361228	-0.731589
Br87	Br	1.241096	-0.869750	-0.253766
