data_functionalizedCrystal
_audit_creation_method	'MofGen! by Chris Wilmer'
_symmetry_space_group_name_H-M	'P1'
_symmetry_Int_Tables_number	1
_symmetry_cell_setting	triclinic
loop_
_symmetry_equiv_pos_as_xyz
  x,y,z
_cell_length_a	19.188925
_cell_length_b	19.188925
_cell_length_c	10.066281
_cell_angle_alpha	80.162958
_cell_angle_beta	80.120939
_cell_angle_gamma	83.142549
loop_
_atom_site_label
_atom_site_type_symbol
_atom_site_fract_x
_atom_site_fract_y
_atom_site_fract_z
O1	O	0.917008	0.078063	0.113514
O2	O	1.417008	0.578063	0.613514
O3	O	0.713697	0.089801	0.113511
O4	O	1.213697	0.589801	0.613511
O5	O	0.821222	-0.017724	0.113505
O6	O	1.321222	0.482276	0.613505
O7	O	0.809483	0.185587	0.113520
O8	O	1.309483	0.685587	0.613520
O9	O	0.839483	0.000443	-0.113467
O10	O	1.339483	0.500443	0.386533
O11	O	0.731957	0.107968	-0.113462
O12	O	1.231957	0.607968	0.386538
O13	O	0.935269	0.096229	-0.113458
O14	O	1.435269	0.596229	0.386542
Zn15	Zn	0.836512	0.104983	-0.149497
Zn16	Zn	1.336512	0.604983	0.350503
Zn17	Zn	0.812453	0.081048	0.149549
Zn18	Zn	1.312453	0.581048	0.649549
O19	O	0.827743	0.203754	-0.113452
O20	O	1.327743	0.703754	0.386548
C21	C	0.696816	0.098505	0.000024
C22	C	1.196816	0.598505	0.500024
C23	C	0.619311	0.097366	0.000022
C24	C	1.119311	0.597366	0.500022
C25	C	0.057539	0.152829	0.000030
C26	C	0.557539	0.652829	0.500030
C27	C	0.130362	0.153905	0.000037
C28	C	0.630362	0.653905	0.500037
C29	C	0.175298	0.090814	0.000030
C30	C	0.675298	0.590814	0.500030
C31	C	0.147404	0.026638	0.000050
C32	C	0.647404	0.526638	0.500050
C33	C	0.074581	0.025563	0.000057
C34	C	0.574581	0.525563	0.500057
N35	N	0.302193	0.051322	-0.077236
N36	N	0.802193	0.551322	0.422764
N37	N	0.371371	0.052347	-0.077245
N38	N	0.871371	0.552347	0.422755
C39	C	0.394709	0.094049	0.000014
C40	C	0.894709	0.594049	0.500014
N41	N	0.346255	0.134698	0.077265
N42	N	0.846255	0.634698	0.577265
N43	N	0.277071	0.133674	0.077268
N44	N	0.777071	0.633674	0.577268
C45	C	0.254263	0.091972	0.000024
C46	C	0.754263	0.591972	0.500024
C47	C	0.501557	0.159386	0.000011
C48	C	1.001557	0.659386	0.500011
C49	C	0.574380	0.160458	0.000027
C50	C	1.074380	0.660458	0.500027
C51	C	0.591422	0.033191	0.000027
C52	C	1.091422	0.533191	0.500027
C53	C	0.518598	0.032119	0.000025
C54	C	1.018598	0.532119	0.500025
C55	C	0.473670	0.095219	0.000010
C56	C	0.973670	0.595219	0.500010
C57	C	0.829973	-0.034652	0.000020
C58	C	1.329973	0.465348	0.500020
C59	C	0.828834	-0.112156	0.000022
C60	C	1.328834	0.387844	0.500022
C61	C	0.884295	-0.673931	0.000058
C62	C	1.384295	-0.173931	0.500058
C63	C	0.885372	-0.601106	0.000046
C64	C	1.385372	-0.101106	0.500046
C65	C	0.822280	-0.556171	0.000045
C66	C	1.322280	-0.056171	0.500045
C67	C	0.758108	-0.584062	0.000021
C68	C	1.258108	-0.084062	0.500021
C69	C	0.757034	-0.656883	0.000020
C70	C	1.257034	-0.156883	0.500020
N71	N	0.770388	-0.441673	0.077299
N72	N	1.270388	0.058327	0.577299
N73	N	0.771413	-0.372496	0.077304
N74	N	1.271413	0.127504	0.577304
C75	C	0.825514	-0.336762	0.000046
C76	C	1.325514	0.163238	0.500046
N77	N	0.878560	-0.372821	-0.077199
N78	N	1.378560	0.127179	0.422801
N79	N	0.877537	-0.442005	-0.077197
N80	N	1.377537	0.057995	0.422803
C81	C	0.823438	-0.477207	0.000045
C82	C	1.323438	0.022793	0.500045
C83	C	0.890851	-0.229914	0.000046
C84	C	1.390851	0.270086	0.500046
C85	C	0.891926	-0.157087	0.000025
C86	C	1.391926	0.342913	0.500025
C87	C	0.764659	-0.140045	0.000015
C88	C	1.264659	0.359955	0.500015
C89	C	0.763587	-0.212869	0.000022
C90	C	1.263587	0.287131	0.500022
C91	C	0.826684	-0.257800	0.000044
C92	C	1.326684	0.242200	0.500044
C93	C	0.952149	0.087525	0.000032
C94	C	1.452149	0.587525	0.500032
C95	C	1.029653	0.088663	0.000042
C96	C	1.529653	0.588663	0.500042
C97	C	0.818992	0.220681	0.000036
C98	C	1.318992	0.720681	0.500036
C99	C	0.820131	0.298186	0.000042
C100	C	1.320131	0.798186	0.500042
N101	N	0.852937	0.121317	-0.353587
N102	N	1.352937	0.621317	0.146413
C103	C	0.818159	0.086727	-0.421398
C104	C	1.318159	0.586727	0.078602
C105	C	0.830817	0.099303	-0.578553
C106	C	1.330817	0.599303	-0.078553
N107	N	0.796034	0.064707	0.353640
N108	N	1.296034	0.564707	0.853640
H109	H	0.628008	-0.018181	0.000031
H110	H	1.128008	0.481819	0.500031
O111	O	0.687825	-0.686962	-0.000001
O112	O	1.187825	-0.186962	0.499999
H113	H	0.676847	-0.727138	0.092504
H114	H	1.176847	-0.227138	0.592504
H115	H	0.937624	-0.578399	0.000058
H116	H	1.437624	-0.078399	0.500058
O117	O	0.488521	-0.037091	0.000023
O118	O	0.988521	0.462909	0.500023
H119	H	0.430334	-0.027241	0.000038
H120	H	0.930334	0.472759	0.500038
O121	O	0.904799	0.172872	-0.430792
O122	O	1.404799	0.672872	0.069208
H123	H	0.876525	0.215742	-0.495913
H124	H	1.376525	0.715742	0.004087
H125	H	0.942228	-0.266499	0.000063
H126	H	1.442228	0.233501	0.500063
H127	H	0.779010	0.047805	-0.363105
H128	H	1.279010	0.547805	0.136895
H129	H	0.935674	-0.710509	0.000068
H130	H	1.435674	-0.210509	0.500068
H131	H	0.944179	-0.134386	0.000030
H132	H	1.444179	0.365614	0.500030
H133	H	0.713289	-0.103458	0.000002
H134	H	1.213289	0.396542	0.500002
O135	O	0.694380	-0.242953	0.000019
O136	O	1.194380	0.257047	0.500019
H137	H	0.650687	-0.199474	0.000026
H138	H	1.150687	0.300526	0.500026
O139	O	0.690056	-0.535602	0.000022
O140	O	1.190056	-0.035602	0.500022
H141	H	0.701581	-0.480280	0.000040
H142	H	1.201581	0.019720	0.500040
O143	O	0.744174	0.013142	-0.569181
O144	O	1.244174	0.513142	-0.069181
H145	H	0.761581	-0.040546	-0.596544
H146	H	1.261581	0.459454	-0.096544
O147	O	0.195872	-0.041408	0.000031
O148	O	0.695872	0.458592	0.500031
H149	H	0.178549	-0.079529	0.092549
H150	H	0.678549	0.420471	0.592549
O151	O	0.009081	0.220884	0.000020
O152	O	0.509081	0.720884	0.500020
H153	H	0.011528	0.244200	0.092531
H154	H	0.511528	0.744200	0.592531
O155	O	0.160455	0.223117	0.000003
O156	O	0.660455	0.723117	0.500003
H157	H	0.116980	0.266813	-0.000017
H158	H	0.616980	0.766813	0.499983
O159	O	0.882682	0.150861	-0.655742
O160	O	1.382682	0.650861	-0.155742
H161	H	0.884493	0.152642	-0.767065
H162	H	1.384493	0.652642	-0.267065
H163	H	0.464974	0.210765	0.000002
H164	H	0.964974	0.710765	0.500002
O165	O	0.044499	-0.043645	0.000047
O166	O	0.544499	0.456355	0.500047
H167	H	0.087978	-0.087338	0.000034
H168	H	0.587978	0.412662	0.500034
H169	H	0.597082	0.212711	0.000028
H170	H	1.097082	0.712711	0.500028
