data_functionalizedCrystal
_audit_creation_method	'MofGen! by Chris Wilmer'
_symmetry_space_group_name_H-M	'P1'
_symmetry_Int_Tables_number	1
_symmetry_cell_setting	triclinic
loop_
_symmetry_equiv_pos_as_xyz
  x,y,z
_cell_length_a	19.288864
_cell_length_b	10.654550
_cell_length_c	9.130313
_cell_angle_alpha	89.995631
_cell_angle_beta	89.982632
_cell_angle_gamma	83.810588
loop_
_atom_site_label
_atom_site_type_symbol
_atom_site_fract_x
_atom_site_fract_y
_atom_site_fract_z
O1	O	0.922373	0.156655	-0.122269
O2	O	0.720251	0.177787	-0.122169
O3	O	0.825959	-0.015618	-0.122212
O4	O	0.816665	0.350060	-0.122226
O5	O	0.825952	-0.015623	0.121387
O6	O	0.720244	0.177782	0.121430
O7	O	0.922366	0.156649	0.121330
Cu8	Cu	0.821304	0.167215	0.143622
Cu9	Cu	0.821313	0.167221	-0.144462
O10	O	0.816657	0.350054	0.121373
C11	C	0.825273	-0.062404	-0.000413
C12	C	0.823231	-0.201803	-0.000414
C13	C	0.694366	0.177105	-0.000357
C14	C	0.617249	0.175063	-0.000318
C15	C	0.885471	-0.282621	-0.000446
C16	C	0.883548	-0.413601	-0.000463
C17	C	0.757141	-0.382932	-0.000411
C18	C	0.759065	-0.251955	-0.000404
C19	C	0.573296	0.288545	-0.000346
C20	C	0.500836	0.286627	-0.000362
C21	C	0.472333	0.171222	-0.000380
C22	C	0.516296	0.057725	-0.000344
C23	C	0.588754	0.059646	-0.000314
C24	C	0.363480	0.080502	-0.085769
C25	C	0.291023	0.078586	-0.085809
C26	C	0.248849	0.165292	-0.000468
C27	C	0.279139	0.253936	0.084893
C28	C	0.351597	0.255857	0.084924
C29	C	0.393766	0.169126	-0.000412
C30	C	0.126326	0.276702	-0.000511
C31	C	0.053865	0.274779	-0.000518
C32	C	0.069327	0.045875	-0.000515
C33	C	0.141786	0.047800	-0.000494
C34	C	0.170281	0.163217	-0.000498
C35	C	0.948250	0.157332	-0.000486
C36	C	1.025367	0.159373	-0.000534
C37	C	0.817344	0.396840	-0.000429
C38	C	0.819385	0.536240	-0.000438
N39	N	0.821303	0.167210	0.346245
N40	N	0.821319	0.167217	-0.347084
C41	C	0.868127	0.081605	0.422878
C42	C	0.868133	0.081605	0.576214
C43	C	0.774490	0.252825	0.576272
C44	C	0.774481	0.252818	0.422938
H45	H	0.937719	-0.241793	-0.000457
Cl46	Cl	0.676479	-0.445989	-0.000397
Cl47	Cl	0.926986	-0.026021	0.326469
Cl48	Cl	0.644013	-0.083028	-0.000281
H49	H	0.906260	0.011897	0.638605
H50	H	0.934230	-0.479399	-0.000491
Cl51	Cl	0.609115	0.433640	-0.000345
H52	H	0.736370	0.322527	0.638731
Cl53	Cl	0.445571	0.429300	-0.000393
Cl54	Cl	0.197044	-0.094871	-0.000468
H55	H	0.397813	0.009893	-0.155273
Cl56	Cl	0.033501	-0.099208	-0.000521
H57	H	0.736348	0.322528	0.360540
Cl58	Cl	0.389676	0.367283	0.192237
Cl59	Cl	0.480465	-0.087356	-0.000359
H60	H	0.266366	0.006412	-0.155321
H61	H	0.708379	-0.186149	-0.000383
Cl62	Cl	0.226129	0.362947	0.192186
H63	H	0.149528	0.370681	-0.000493
H64	H	0.018079	0.367194	-0.000532
