data_functionalizedCrystal
_audit_creation_method	'MofGen! by Chris Wilmer'
_symmetry_space_group_name_H-M	'P1'
_symmetry_Int_Tables_number	1
_symmetry_cell_setting	triclinic
loop_
_symmetry_equiv_pos_as_xyz
  x,y,z
_cell_length_a	23.532407
_cell_length_b	23.532407
_cell_length_c	22.610064
_cell_angle_alpha	90.000603
_cell_angle_beta	89.997161
_cell_angle_gamma	97.151322
loop_
_atom_site_label
_atom_site_type_symbol
_atom_site_fract_x
_atom_site_fract_y
_atom_site_fract_z
O1	O	0.755263	-0.069127	-0.049117
O2	O	0.589400	-0.079130	-0.049135
O3	O	0.677333	0.008803	-0.049114
O4	O	0.667330	-0.157060	-0.049137
O5	O	0.677318	0.008790	0.049255
O6	O	0.589385	-0.079143	0.049234
O7	O	0.755248	-0.069140	0.049252
Zn8	Zn	0.672314	-0.074144	0.064862
Zn9	Zn	0.672334	-0.074127	-0.064744
O10	O	0.667315	-0.157073	0.049232
C11	C	0.568176	-0.078882	0.000048
C12	C	0.504959	-0.078116	0.000041
C13	C	0.105856	-0.125350	0.000061
C14	C	0.046456	-0.124638	0.000065
O15	O	0.009711	-0.168424	0.000081
N16	N	0.023830	-0.072362	0.000071
C17	C	0.060607	-0.020794	0.000080
O18	O	0.035908	0.023737	0.000086
C19	C	0.120006	-0.021506	0.000080
C20	C	0.142629	-0.073785	0.000068
C21	C	0.128479	-0.177625	0.000050
C22	C	0.187876	-0.178336	0.000045
C23	C	0.224649	-0.126772	0.000052
C24	C	0.202025	-0.074497	0.000063
C25	C	0.156783	0.030062	0.000093
C26	C	0.216185	0.029345	0.000094
C27	C	0.238808	-0.022934	0.000082
C28	C	0.298194	-0.023643	0.000065
N29	N	0.320820	-0.075920	0.000059
C30	C	0.284048	-0.127484	0.000052
C31	C	-0.064135	-0.019302	0.000080
C32	C	-0.123533	-0.018589	0.000075
C33	C	-0.137680	-0.122434	0.000061
C34	C	-0.078281	-0.123146	0.000062
C35	C	-0.041509	-0.071578	0.000074
C36	C	0.408784	-0.128974	0.000042
C37	C	0.468186	-0.129680	0.000034
C38	C	0.482329	-0.025836	0.000051
C39	C	0.422932	-0.025129	0.000055
C40	C	0.386160	-0.076702	0.000052
O41	O	0.334974	0.020119	0.000052
O42	O	0.308755	-0.172007	0.000054
C43	C	0.677071	0.030013	0.000072
C44	C	0.676305	0.093230	0.000076
C45	C	0.776472	-0.069388	0.000069
C46	C	0.839689	-0.070154	0.000071
C47	C	0.667577	-0.178283	0.000045
C48	C	0.668343	-0.241500	0.000036
N49	N	0.672304	-0.074155	0.153314
C50	C	0.723539	0.492333	0.000049
C51	C	0.722827	0.551733	0.000044
O52	O	0.766613	0.588478	0.000027
N53	N	0.670551	0.574359	0.000039
C54	C	0.618983	0.537582	0.000032
O55	O	0.574452	0.562281	0.000027
C56	C	0.619695	0.478182	0.000033
C57	C	0.671974	0.455560	0.000044
C58	C	0.775814	0.469710	0.000060
C59	C	0.776525	0.410313	0.000065
C60	C	0.724961	0.373540	0.000060
C61	C	0.672685	0.396164	0.000050
C62	C	0.568127	0.441406	0.000022
C63	C	0.568844	0.382004	0.000021
C64	C	0.621123	0.359381	0.000033
C65	C	0.621832	0.299995	0.000050
N66	N	0.674109	0.277368	0.000056
C67	C	0.725673	0.314141	0.000061
C68	C	0.617491	0.662324	0.000031
C69	C	0.616778	0.721722	0.000034
C70	C	0.720623	0.735869	0.000045
C71	C	0.721335	0.676470	0.000046
C72	C	0.669767	0.639698	0.000036
C73	C	0.727163	0.189405	0.000073
C74	C	0.727869	0.130003	0.000081
C75	C	0.624025	0.115860	0.000067
C76	C	0.623318	0.175257	0.000062
C77	C	0.674891	0.212029	0.000063
O78	O	0.578070	0.263215	0.000065
O79	O	0.770196	0.289433	0.000058
N80	N	0.672349	-0.074111	-0.153196
C81	C	0.711273	-0.035196	0.561965
C82	C	0.711276	-0.035192	0.623884
O83	O	0.744384	-0.002076	0.655911
N84	N	0.672334	-0.074115	0.654851
C85	C	0.633383	-0.113041	0.623895
O86	O	0.600259	-0.146147	0.655920
C87	C	0.633377	-0.113042	0.561976
C88	C	0.672326	-0.074120	0.531013
C89	C	0.750218	0.003724	0.531001
C90	C	0.750215	0.003719	0.469085
C91	C	0.711268	-0.035206	0.438133
C92	C	0.672323	-0.074125	0.469097
C93	C	0.594424	-0.151965	0.531021
C94	C	0.594422	-0.151962	0.469098
C95	C	0.633370	-0.113040	0.438134
C96	C	0.633374	-0.113054	0.376229
N97	N	0.672316	-0.074131	0.345262
C98	C	0.711263	-0.035207	0.376214
C99	C	0.633396	-0.113035	0.753928
C100	C	0.633403	-0.113037	0.815846
C101	C	0.711296	-0.035187	0.815831
C102	C	0.711291	-0.035188	0.753913
C103	C	0.672338	-0.074112	0.722962
C104	C	0.711255	-0.035220	0.246187
C105	C	0.711251	-0.035230	0.184266
C106	C	0.633357	-0.113078	0.184286
C107	C	0.633363	-0.113071	0.246202
C108	C	0.672314	-0.074137	0.277151
O109	O	0.600281	-0.146152	0.344163
O110	O	0.744376	-0.002101	0.344182
H111	H	0.138375	0.072634	0.000103
H112	H	0.601653	-0.144770	0.271413
C113	C	0.724072	0.042370	0.315802
C114	C	0.754072	0.007574	0.280201
H115	H	0.750507	0.068789	0.336798
H116	H	0.700887	0.019194	0.343108
H117	H	0.700483	0.062732	0.291642
H118	H	0.777657	-0.012791	0.304362
H119	H	0.777267	0.030752	0.252893
H120	H	-0.167632	-0.164421	0.000059
C121	C	0.827214	0.080665	0.524751
C122	C	0.793037	0.046511	0.565016
H123	H	0.853655	0.107077	0.545748
H124	H	0.803621	0.101030	0.500608
H125	H	0.847551	0.057049	0.500594
H126	H	0.772696	0.070127	0.589170
H127	H	0.816632	0.026144	0.589169
H128	H	0.562709	-0.183658	0.556223
C129	C	0.827641	0.016700	0.399234
C130	C	0.792855	0.046594	0.434957
H131	H	0.853916	0.043199	0.378141
H132	H	0.804439	-0.006562	0.372014
H133	H	0.848166	-0.006803	0.423323
H134	H	0.772326	0.070094	0.410867
H135	H	0.816059	0.069866	0.462180
C136	C	0.782382	0.617887	0.050620
C137	C	0.778803	0.651608	0.000053
H138	H	0.817863	0.602544	0.050624
H139	H	0.751781	0.587483	0.050611
H140	H	0.779936	0.640769	0.084921
H141	H	0.781244	0.628725	-0.034247
H142	H	0.809411	0.682016	0.000057
H143	H	0.512280	0.016146	0.000054
H144	H	-0.141947	0.023982	0.000076
C145	C	0.786607	0.264408	0.050643
C146	C	0.783852	0.229819	0.000077
H147	H	0.821603	0.289360	0.050645
H148	H	0.784717	0.240943	0.084941
H149	H	0.755373	0.286386	0.050628
H150	H	0.815084	0.207837	0.000094
H151	H	0.785747	0.253287	-0.034229
H152	H	-0.059867	-0.165717	0.000055
H153	H	0.770443	0.111587	0.000092
C154	C	0.364344	0.035910	0.050637
C155	C	0.398061	0.032337	0.000064
H156	H	0.348992	0.071387	0.050644
H157	H	0.387226	0.033470	0.084930
H158	H	0.333941	0.005301	0.050630
H159	H	0.428467	0.062944	0.000073
H160	H	0.375178	0.034783	-0.034237
C161	C	0.780068	0.810875	-0.050531
C162	C	0.777307	0.776296	0.000042
H163	H	0.815062	0.835830	-0.050534
H164	H	0.748834	0.832845	-0.050529
H165	H	0.778191	0.787398	-0.084827
H166	H	0.779180	0.799773	0.034339
H167	H	0.808549	0.754324	0.000045
H168	H	0.601648	-0.144772	0.159075
C169	C	0.514206	0.701757	0.000022
C170	C	0.559311	0.746585	0.000027
H171	H	0.478727	0.717106	0.000011
H172	H	0.516640	0.678888	0.034327
H173	H	0.516657	0.678881	-0.034281
H174	H	0.556863	0.769459	0.034332
H175	H	0.556876	0.769463	-0.034281
H176	H	0.582043	0.085909	0.000065
H177	H	-0.034198	0.022693	0.000084
H178	H	0.486602	-0.172255	0.000024
H179	H	0.742969	-0.003535	0.159057
H180	H	0.743008	-0.003492	0.841044
H181	H	0.246123	0.071339	0.000104
H182	H	0.819097	0.391900	0.000072
H183	H	0.580748	0.193677	0.000069
C184	C	0.878527	0.477711	0.000081
C185	C	0.832500	0.510125	0.000070
H186	H	0.913525	0.502660	0.000095
H187	H	0.876649	0.454253	-0.034222
H188	H	0.876626	0.454244	0.034385
H189	H	0.834399	0.533589	-0.034236
H190	H	0.834379	0.533592	0.034377
C191	C	0.788282	0.041762	0.760132
C192	C	0.754099	0.007600	0.719881
H193	H	0.814708	0.068182	0.739123
H194	H	0.808632	0.018157	0.784276
H195	H	0.764688	0.062124	0.784289
H196	H	0.777693	-0.012765	0.695726
H197	H	0.733748	0.031209	0.695727
C198	C	0.507088	0.499979	-0.050570
C199	C	0.510658	0.466262	0.000002
H200	H	0.471608	0.515324	-0.050580
H201	H	0.509539	0.477098	-0.084863
H202	H	0.537693	0.530386	-0.050557
H203	H	0.480056	0.435852	-0.000013
H204	H	0.508202	0.489143	0.034304
C205	C	0.555807	-0.125809	0.684312
C206	C	0.590582	-0.155831	0.719910
H207	H	0.529375	-0.152230	0.663316
H208	H	0.578995	-0.102636	0.657007
H209	H	0.535461	-0.102206	0.708474
H210	H	0.610932	-0.179431	0.695747
H211	H	0.567391	-0.179014	0.747218
C212	C	0.517426	-0.228913	0.475337
C213	C	0.551605	-0.194753	0.435078
H214	H	0.490997	-0.255332	0.454334
H215	H	0.497080	-0.205306	0.499485
H216	H	0.541022	-0.249274	0.499488
H217	H	0.528009	-0.174388	0.410929
H218	H	0.571953	-0.218363	0.410919
H219	H	0.575496	0.632386	0.000028
H220	H	0.601694	-0.144737	0.841052
C221	C	0.480557	0.351659	-0.050561
C222	C	0.512156	0.341584	0.000012
H223	H	0.445560	0.326709	-0.050563
H224	H	0.502014	0.344825	-0.084854
H225	H	0.472659	0.390276	-0.050559
H226	H	0.520058	0.302969	0.000008
H227	H	0.490695	0.348414	0.034313
C228	C	0.333785	-0.188417	-0.050533
C229	C	0.368369	-0.185663	0.000034
H230	H	0.308833	-0.223413	-0.050538
H231	H	0.357253	-0.186528	-0.084830
H232	H	0.311807	-0.157183	-0.050518
H233	H	0.390351	-0.216895	0.000017
H234	H	0.344898	-0.187558	0.034340
C235	C	0.194078	-0.267065	-0.050533
C236	C	0.212729	-0.235808	0.000037
H237	H	0.209414	-0.302551	-0.050535
H238	H	0.206731	-0.245849	-0.084828
H239	H	0.153438	-0.274002	-0.050527
H240	H	0.253369	-0.228868	0.000028
H241	H	0.200079	-0.257029	0.034340
C242	C	0.053485	-0.237066	-0.050533
C243	C	0.088064	-0.234311	0.000038
H244	H	0.028535	-0.272063	-0.050541
H245	H	0.076957	-0.235174	-0.084827
H246	H	0.031504	-0.205834	-0.050520
H247	H	0.110047	-0.265541	0.000022
H248	H	0.064589	-0.236209	0.034341
