data_functionalizedCrystal
_audit_creation_method	'MofGen! by Chris Wilmer'
_symmetry_space_group_name_H-M	'P1'
_symmetry_Int_Tables_number	1
_symmetry_cell_setting	triclinic
loop_
_symmetry_equiv_pos_as_xyz
  x,y,z
_cell_length_a	19.805407
_cell_length_b	12.594509
_cell_length_c	19.805405
_cell_angle_alpha	89.965297
_cell_angle_beta	90.026410
_cell_angle_gamma	89.978040
loop_
_atom_site_label
_atom_site_type_symbol
_atom_site_fract_x
_atom_site_fract_y
_atom_site_fract_z
Zn1	Zn	1.034752	-0.601830	-0.269443
Zn2	Zn	1.034662	-0.423831	-0.382642
Zn3	Zn	0.921562	-0.423857	-0.269472
Zn4	Zn	0.921530	-0.601760	-0.382595
O5	O	0.978126	-0.512820	-0.326038
O6	O	1.129456	-0.578237	-0.284466
O7	O	1.019634	-0.274889	-0.367661
O8	O	0.936627	-0.447506	-0.174752
O9	O	1.129390	-0.447462	-0.367633
O10	O	1.019788	-0.578262	-0.174730
O11	O	0.936540	-0.274908	-0.284516
O12	O	0.826841	-0.447437	-0.284471
O13	O	0.936573	-0.750715	-0.367553
O14	O	0.826817	-0.578142	-0.367582
O15	O	1.019757	-0.750767	-0.284421
O16	O	1.019604	-0.447394	-0.477352
O17	O	0.936486	-0.578117	-0.477318
C18	C	0.802270	-0.512785	-0.326025
C19	C	0.727038	-0.512796	-0.326036
C20	C	0.691700	-0.580743	-0.369377
C21	C	0.621011	-0.580758	-0.369378
C22	C	0.585663	-0.512820	-0.326041
C23	C	0.621006	-0.444869	-0.282695
C24	C	0.691693	-0.444860	-0.282691
C25	C	0.335933	-0.444904	-0.282710
C26	C	0.265241	-0.444916	-0.282719
C27	C	0.265251	-0.580802	-0.369397
C28	C	0.335938	-0.580793	-0.369393
C29	C	0.371275	-0.512847	-0.326045
C30	C	0.447924	-0.512833	-0.326043
C31	C	0.509015	-0.512827	-0.326046
C32	C	0.978172	-0.790441	-0.325979
C33	C	0.978191	-0.908746	-0.325953
C34	C	0.932961	-0.977971	-0.371144
C35	C	0.994719	-1.048760	-0.387681
C36	C	0.916482	-1.048757	-0.309375
C37	C	1.039980	-0.977976	-0.342524
C38	C	0.961702	-0.977967	-0.264189
C39	C	1.023502	-1.048724	-0.280703
C40	C	1.154669	-0.512855	-0.326051
C41	C	1.229901	-0.512870	-0.326057
C42	C	0.978050	-0.512768	-0.501894
C43	C	0.978079	-0.512782	-0.577126
C44	C	0.978120	-0.236279	-0.326048
C45	C	0.978232	-0.117974	-0.325883
C46	C	1.021401	-0.444785	-0.612466
C47	C	1.021429	-0.444809	-0.683154
C48	C	0.978133	-0.512824	-0.718502
C49	C	0.934810	-0.580828	-0.683157
C50	C	0.934785	-0.580809	-0.612470
C51	C	0.934910	-0.580907	-0.968230
C52	C	0.934936	-0.580918	-1.038922
C53	C	1.021554	-0.444907	-1.038914
C54	C	1.021529	-0.444888	-0.968227
C55	C	0.978209	-0.512895	-0.932889
C56	C	0.978179	-0.512870	-0.856240
C57	C	0.978159	-0.512844	-0.795149
C58	C	0.978221	-0.512895	-0.149495
C59	C	0.978262	-0.512926	-0.074263
H60	H	0.720475	-0.636063	-0.404669
H61	H	1.056655	-0.389395	-0.583690
H62	H	0.899560	-0.636212	-0.711943
H63	H	1.008688	-1.079856	-0.439884
H64	H	1.061812	-1.079594	-0.242457
H65	H	0.592220	-0.389557	-0.247407
F66	F	0.888853	-0.653314	-1.076541
F67	F	0.888803	-0.653285	-0.930630
F68	F	1.108233	-0.937513	-0.360896
H69	H	0.894742	-0.946906	-0.409419
H70	H	0.720465	-0.389536	-0.247395
F71	F	0.583404	-0.653078	-0.415507
F72	F	0.943420	-0.937289	-0.195974
H73	H	0.864278	-1.079848	-0.295382
H74	H	0.364696	-0.389570	-0.247419
H75	H	0.364715	-0.636112	-0.404685
H76	H	1.056830	-0.389536	-1.067695
H77	H	1.056706	-0.389439	-0.711924
H78	H	1.056783	-0.389500	-0.939449
F79	F	0.888678	-0.653183	-0.574859
H80	H	0.236462	-0.389592	-0.247425
F81	F	0.227637	-0.653118	-0.415532
