data_functionalizedCrystal
_audit_creation_method	'MofGen! by Chris Wilmer'
_symmetry_space_group_name_H-M	'P1'
_symmetry_Int_Tables_number	1
_symmetry_cell_setting	triclinic
loop_
_symmetry_equiv_pos_as_xyz
  x,y,z
_cell_length_a	13.897449
_cell_length_b	13.032721
_cell_length_c	13.032268
_cell_angle_alpha	76.710373
_cell_angle_beta	97.163294
_cell_angle_gamma	82.794330
loop_
_atom_site_label
_atom_site_type_symbol
_atom_site_fract_x
_atom_site_fract_y
_atom_site_fract_z
Zn1	Zn	1.339434	0.499048	-0.654185
Zn2	Zn	1.839434	0.999048	-0.154185
Zn3	Zn	1.339329	0.654133	-0.499133
Zn4	Zn	1.839329	1.154133	0.000867
Zn5	Zn	1.201593	0.476547	-0.476607
Zn6	Zn	1.701593	0.976547	0.023393
Zn7	Zn	1.154642	0.676611	-0.676677
Zn8	Zn	1.654642	1.176611	-0.176677
O9	O	1.258750	0.576585	-0.576651
O10	O	1.758750	1.076585	-0.076651
O11	O	1.474399	0.519630	-0.633632
O12	O	1.974399	1.019630	-0.133632
O13	O	1.340663	0.611751	-0.347525
O14	O	1.840663	1.111751	0.152475
O15	O	1.239572	0.330901	-0.481323
O16	O	1.739572	0.830901	0.018677
O17	O	1.474321	0.633570	-0.519716
O18	O	1.974321	1.133570	-0.019716
O19	O	1.340843	0.347432	-0.611789
O20	O	1.840843	0.847432	-0.111789
O21	O	1.239470	0.481279	-0.330975
O22	O	1.739470	0.981279	0.169025
O23	O	1.060386	0.503076	-0.503132
O24	O	1.560386	1.003076	-0.003132
O25	O	1.159550	0.671881	-0.822314
O26	O	1.659550	1.171881	-0.322314
O27	O	1.025891	0.650062	-0.650123
O28	O	1.525891	1.150062	-0.150123
O29	O	1.295316	0.541427	-0.805789
O30	O	1.795316	1.041427	-0.305789
O31	O	1.295136	0.805745	-0.541525
O32	O	1.795136	1.305745	-0.041525
O33	O	1.159448	0.822260	-0.671966
O34	O	1.659448	1.322260	-0.171966
C35	C	1.008140	0.576567	-0.576625
C36	C	1.508140	1.076567	-0.076625
C37	C	0.900922	0.576589	-0.576642
C38	C	1.400922	1.076589	-0.076642
C39	C	1.222209	0.852544	-0.611654
C40	C	1.722209	1.352544	-0.111654
C41	C	1.206660	0.970605	-0.626664
C42	C	1.706660	1.470605	-0.126664
C43	C	1.222207	0.611671	-0.853665
C44	C	1.722207	1.111671	-0.353665
C45	C	1.206635	0.626623	-0.971711
C46	C	1.706635	1.126623	-0.471711
C47	C	0.704623	0.576596	-0.576670
C48	C	1.204623	1.076596	-0.076670
C49	C	0.813858	0.576588	-0.576651
C50	C	1.313858	1.076588	-0.076651
C51	C	1.510337	0.576603	-0.576677
C52	C	2.010337	1.076603	-0.076677
C53	C	1.617549	0.576611	-0.576689
C54	C	2.117549	1.076611	-0.076689
C55	C	1.295456	0.299551	-0.541534
C56	C	1.795456	0.799551	-0.041534
C57	C	1.311098	0.181495	-0.526569
C58	C	1.811098	0.681495	-0.026569
C59	C	1.266909	1.015041	-0.568865
C60	C	1.766909	1.515041	-0.068865
C61	C	1.250841	1.137063	-0.584377
C62	C	1.750841	1.637063	-0.084377
C63	C	1.266867	0.568743	-1.016164
C64	C	1.766867	1.068743	-0.516164
C65	C	1.250774	0.584195	-1.138171
C66	C	1.750774	1.084195	-0.638171
C67	C	1.295215	0.541558	-0.300705
C68	C	1.795215	1.041558	0.199295
C69	C	1.311014	0.526307	-0.182621
C70	C	1.811014	1.026307	0.317379
H71	H	1.330391	0.962750	-0.507900
H72	H	1.830391	1.462750	-0.007900
H73	H	1.143149	0.687609	-1.023978
H74	H	1.643149	1.187609	-0.523978
C75	C	1.165077	1.207701	-0.666747
C76	C	1.665077	1.707701	-0.166747
N77	N	1.100479	1.260907	-0.728786
N78	N	1.600479	1.760907	-0.228786
C79	C	1.120901	1.041246	-0.709030
C80	C	1.620901	1.541246	-0.209030
N81	N	1.056303	1.094452	-0.771069
N82	N	1.556303	1.594452	-0.271069
C83	C	1.396862	1.110859	-0.444196
C84	C	1.896862	1.610859	0.055804
N85	N	1.461456	1.057656	-0.382153
N86	N	1.961456	1.557656	0.117847
C87	C	1.352626	0.486339	-0.945557
C88	C	1.852626	0.986339	-0.445557
N89	N	1.417223	0.424270	-0.892377
N90	N	1.917223	0.924270	-0.392377
C91	C	1.165004	0.666597	-1.208774
C92	C	1.665004	1.166597	-0.708774
N93	N	1.100404	0.728660	-1.261954
N94	N	1.600404	1.228660	-0.761954
C95	C	1.396782	0.443902	-1.112020
C96	C	1.896782	0.943902	-0.612020
N97	N	1.461383	0.381837	-1.058842
N98	N	1.961383	0.881837	-0.558842
