data_functionalizedCrystal
_audit_creation_method	'MofGen! by Chris Wilmer'
_symmetry_space_group_name_H-M	'P1'
_symmetry_Int_Tables_number	1
_symmetry_cell_setting	triclinic
loop_
_symmetry_equiv_pos_as_xyz
  x,y,z
_cell_length_a	10.723022
_cell_length_b	12.811451
_cell_length_c	9.198806
_cell_angle_alpha	84.566226
_cell_angle_beta	90.003383
_cell_angle_gamma	95.743515
loop_
_atom_site_label
_atom_site_type_symbol
_atom_site_fract_x
_atom_site_fract_y
_atom_site_fract_z
O1	O	1.656462	-0.147207	0.140286
O2	O	2.156462	0.352793	0.640286
O3	O	1.293239	-0.161300	0.142149
O4	O	1.793239	0.338700	0.642149
O5	O	1.483981	-0.001528	0.121077
O6	O	1.983981	0.498472	0.621077
O7	O	1.465720	-0.306979	0.161358
O8	O	1.965720	0.193021	0.661358
O9	O	1.483967	-0.001527	-0.120708
O10	O	1.983967	0.498473	0.379292
O11	O	1.293225	-0.161299	-0.099636
O12	O	1.793225	0.338701	0.400364
O13	O	1.656447	-0.147206	-0.101499
O14	O	2.156447	0.352794	0.398501
Cu15	Cu	1.474835	-0.154253	-0.122645
Cu16	Cu	1.974835	0.345747	0.377355
Cu17	Cu	1.474852	-0.154253	0.163294
Cu18	Cu	1.974852	0.345747	0.663294
O19	O	1.465706	-0.306978	-0.080427
O20	O	1.965706	0.193022	0.419573
C21	C	1.246738	-0.160275	0.021122
C22	C	1.746738	0.339725	0.521122
C23	C	1.108198	-0.157207	0.020719
C24	C	1.608198	0.342793	0.520719
C25	C	1.060092	-0.065072	0.008570
C26	C	1.560092	0.434928	0.508570
C27	C	0.916905	-0.061900	0.008153
C28	C	1.416905	0.438100	0.508153
C29	C	1.482948	0.037584	-0.004970
C30	C	1.982948	0.537584	0.495030
C31	C	1.479876	0.154123	-0.020329
C32	C	1.979876	0.654123	0.479671
C33	C	1.475544	0.318383	-0.173771
C34	C	1.975544	0.818383	0.326229
C35	C	1.478425	0.208884	-0.159343
C36	C	1.978425	0.708884	0.340657
C37	C	1.478441	0.208869	0.104267
C38	C	1.978441	0.708869	0.604267
C39	C	1.475559	0.318368	0.089839
C40	C	1.975559	0.818368	0.589839
C41	C	1.474112	0.373122	-0.049185
C42	C	1.974112	0.873122	0.450815
C43	C	1.471240	0.482624	-0.063611
C44	C	1.971240	0.982624	0.436389
C45	C	1.471246	0.482606	0.199997
C46	C	1.971246	0.982606	0.699997
C47	C	1.474127	0.373107	0.214425
C48	C	1.974127	0.873107	0.714425
C49	C	1.702949	-0.148232	0.019531
C50	C	2.202949	0.351768	0.519531
C51	C	1.841488	-0.151299	0.019944
C52	C	2.341488	0.348701	0.519944
N53	N	1.474832	-0.154252	-0.323759
N54	N	1.974832	0.345748	0.176241
C55	C	1.466737	0.653910	0.045621
C56	C	1.966737	1.153910	0.545621
C57	C	1.469804	0.537370	0.060984
C58	C	1.969804	1.037370	0.560984
C59	C	1.402383	-0.093386	-0.404016
C60	C	1.902383	0.406614	0.095984
C61	C	1.402400	-0.093383	-0.571428
C62	C	1.902400	0.406617	-0.071428
N63	N	1.474864	-0.154246	0.364407
N64	N	1.974864	0.345754	0.864407
H65	H	0.882902	-0.230189	0.030338
H66	H	1.382902	0.269811	0.530338
Br67	Br	1.299024	-0.006516	-0.686405
Br68	Br	1.799024	0.493484	-0.186405
H69	H	1.043378	-0.233738	0.030818
H70	H	1.543378	0.266262	0.530818
Br71	Br	1.578266	-0.241097	-0.520628
Br72	Br	2.078266	0.258903	-0.020628
H73	H	1.470064	0.527203	-0.176811
H74	H	1.970064	1.027203	0.323189
H75	H	1.474374	0.362966	-0.286969
H76	H	1.974374	0.862966	0.213031
H77	H	0.875483	0.016986	-0.002212
H78	H	1.375483	0.516986	0.497788
Br79	Br	1.480358	0.134597	-0.328431
Br80	Br	1.980358	0.634597	0.171569
Br81	Br	1.480489	0.134551	0.292924
Br82	Br	1.980489	0.634551	0.792924
Br83	Br	1.298964	-0.006543	-0.311978
Br84	Br	1.798964	0.493457	0.188022
Br85	Br	1.168118	0.062494	-0.008244
Br86	Br	1.668118	0.562494	0.491756
Br87	Br	1.476123	0.298792	0.403089
Br88	Br	1.976123	0.798792	0.903089
H89	H	1.470083	0.527186	0.301444
H90	H	1.970083	1.027186	0.801444
H91	H	1.536864	-0.206364	-0.378987
H92	H	2.036864	0.293636	0.121013
