data_functionalizedCrystal
_audit_creation_method	'MofGen! by Chris Wilmer'
_symmetry_space_group_name_H-M	'P1'
_symmetry_Int_Tables_number	1
_symmetry_cell_setting	triclinic
loop_
_symmetry_equiv_pos_as_xyz
  x,y,z
_cell_length_a	27.732048
_cell_length_b	19.288864
_cell_length_c	18.366186
_cell_angle_alpha	90.022894
_cell_angle_beta	89.988789
_cell_angle_gamma	97.110551
loop_
_atom_site_label
_atom_site_type_symbol
_atom_site_fract_x
_atom_site_fract_y
_atom_site_fract_z
O1	O	0.060300	-0.920977	-0.060791
O2	O	0.068434	-0.718665	-0.060742
O3	O	-0.006011	-0.826104	-0.060754
O4	O	0.134745	-0.813538	-0.060779
O5	O	-0.006014	-0.826086	0.060345
O6	O	0.068430	-0.718647	0.060357
O7	O	0.060296	-0.920959	0.060309
Zn8	Zn	0.064363	-0.819800	0.079560
Zn9	Zn	0.064368	-0.819824	-0.079994
O10	O	0.134741	-0.813520	0.060321
C11	C	0.068171	-0.692781	-0.000186
C12	C	0.067385	-0.615683	-0.000167
C13	C	-0.024020	-0.825831	-0.000202
C14	C	-0.077678	-0.825037	-0.000196
C15	C	0.060560	-0.946842	-0.000249
C16	C	0.061345	-1.023941	-0.000273
C17	C	-0.416316	-0.883526	-0.000248
C18	C	-0.617985	-0.880579	-0.000257
O19	O	-0.649079	-0.934063	-0.000302
N20	N	-0.637301	-0.816872	-0.000241
C21	C	-0.606196	-0.753897	-0.000227
O22	O	-0.627253	-0.699643	-0.000222
C23	C	-0.404529	-0.756845	-0.000223
C24	C	-0.385216	-0.820556	-0.000232
C25	C	-0.397002	-0.947232	-0.000257
C26	C	-0.346588	-0.947968	-0.000251
C27	C	-0.315488	-0.884998	-0.000235
C28	C	-0.334801	-0.821292	-0.000226
C29	C	-0.373425	-0.693871	-0.000215
C30	C	-0.323006	-0.694614	-0.000216
C31	C	-0.303693	-0.758325	-0.000224
C32	C	-0.253287	-0.759059	-0.000203
N33	N	-0.233971	-0.822766	-0.000219
C34	C	-0.265071	-0.885735	-0.000235
C35	C	-0.712075	-0.752354	-0.000228
C36	C	-0.762492	-0.751617	-0.000228
C37	C	-0.774276	-0.878299	-0.000259
C38	C	-0.723859	-0.879035	-0.000254
C39	C	-0.692759	-0.816061	-0.000244
C40	C	-0.159197	-0.887276	-0.000221
C41	C	-0.108778	-0.888007	-0.000212
C42	C	-0.096998	-0.761325	-0.000185
C43	C	-0.147412	-0.760595	-0.000190
C44	C	-0.178511	-0.823576	-0.000211
O45	O	-0.222164	-0.705603	-0.000167
O46	O	-0.244005	-0.939982	-0.000257
C47	C	-0.466730	-0.882790	-0.000254
C48	C	-0.486044	-0.819084	-0.000245
C49	C	-0.454943	-0.756114	-0.000229
C50	C	-0.536461	-0.818347	-0.000244
C51	C	-0.567561	-0.881317	-0.000260
C52	C	-0.548245	-0.945023	-0.000276
C53	C	-0.497831	-0.945760	-0.000270
C54	C	-0.474260	-0.692407	-0.000213
C55	C	-0.524674	-0.691676	-0.000218
C56	C	-0.555775	-0.754646	-0.000234
C57	C	0.152751	-0.813792	-0.000233
C58	C	0.206408	-0.814587	-0.000244
N59	N	0.064359	-0.819789	0.188451
C60	C	0.111066	-0.570714	-0.000186
C61	C	0.110328	-0.498271	-0.000194
C62	C	0.065906	-0.470801	-0.000197
C63	C	0.022219	-0.515780	-0.000174
C64	C	0.022959	-0.588220	-0.000159
C65	C	0.030987	-0.362763	-0.042642
C66	C	0.030250	-0.290323	-0.042662
C67	C	0.063624	-0.247370	-0.000241
C68	C	0.097744	-0.276863	0.042190
C69	C	0.098483	-0.349304	0.042206
C70	C	0.065099	-0.392252	-0.000213
C71	C	0.106507	-0.123850	-0.000268
C72	C	0.105767	-0.051406	-0.000271
C73	C	0.017658	-0.068916	-0.000258
C74	C	0.018399	-0.141358	-0.000248
C75	C	0.062825	-0.168820	-0.000256
N76	N	0.064367	-0.819841	-0.188885
C77	C	0.031411	-0.867378	0.226546
C78	C	0.031409	-0.867383	0.302774
C79	C	0.064363	-0.819804	0.340904
C80	C	0.097314	-0.772206	0.302800
C81	C	0.097312	-0.772198	0.226573
C82	C	0.108406	-0.810231	0.461658
C83	C	0.108409	-0.810244	0.537883
C84	C	0.064369	-0.819824	0.576011
C85	C	0.020325	-0.829406	0.537906
C86	C	0.020323	-0.829398	0.461679
C87	C	0.064369	-0.819807	0.423559
C88	C	0.031416	-0.867421	0.696761
C89	C	0.031413	-0.867420	0.772991
C90	C	0.097322	-0.772247	0.773015
C91	C	0.097321	-0.772244	0.696787
C92	C	0.064368	-0.819835	0.658665
H93	H	-0.184513	-0.938562	-0.000241
C94	C	-0.325350	-1.018053	-0.000275
C95	C	-0.337159	-1.070205	0.062588
C96	C	-0.315926	-1.140295	0.062558
C97	C	-0.282884	-1.158233	-0.000334
C98	C	-0.271073	-1.106080	-0.063201
C99	C	-0.292306	-1.035990	-0.063172
H100	H	-0.361621	-1.056927	0.109149
H101	H	-0.324670	-1.178902	0.109097
H102	H	-0.267166	-1.210118	-0.000356
H103	H	-0.246611	-1.119358	-0.109762
H104	H	-0.283562	-0.997383	-0.109711
H105	H	-0.422320	-0.998512	-0.000273
H106	H	-0.389141	-0.641991	-0.000212
C107	C	-0.288796	-0.625339	-0.000203
C108	C	-0.290859	-0.572996	-0.063077
C109	C	-0.256650	-0.503723	-0.063062
C110	C	-0.220378	-0.486793	-0.000173
C111	C	-0.218314	-0.539138	0.062706
C112	C	-0.252523	-0.608411	0.062691
H113	H	-0.317711	-0.585527	-0.109636
H114	H	-0.258178	-0.464974	-0.109610
H115	H	-0.195055	-0.435513	-0.000162
H116	H	-0.191462	-0.526607	0.109265
H117	H	-0.250994	-0.647160	0.109239
C118	C	0.133559	-0.719851	0.184663
C119	C	0.169823	-0.667532	0.226597
C120	C	0.206072	-0.615185	0.184685
C121	C	0.206056	-0.615157	0.100839
C122	C	0.169791	-0.667478	0.058901
C123	C	0.133543	-0.719825	0.100813
H124	H	0.169836	-0.667551	0.288669
H125	H	0.232918	-0.576454	0.215732
H126	H	0.232890	-0.576407	0.069814
H127	H	0.169779	-0.667459	-0.003171
H128	H	0.106697	-0.758556	0.069766
C129	C	-0.004835	-0.919762	0.654823
C130	C	0.013956	-0.972677	0.602389
C131	C	-0.022296	-1.025018	0.560454
C132	C	-0.077338	-1.024445	0.570953
C133	C	-0.096132	-0.971529	0.623389
C134	C	-0.059880	-0.919187	0.665324
H135	H	0.054704	-0.973103	0.594615
H136	H	-0.008383	-1.064191	0.521637
H137	H	-0.104174	-1.063192	0.539910
H138	H	-0.136880	-0.971103	0.631163
H139	H	-0.073793	-0.880015	0.704141
C140	C	-0.005726	-0.410011	-0.089309
C141	C	-0.060644	-0.410939	-0.076141
C142	C	-0.097356	-0.458187	-0.122805
C143	C	-0.079150	-0.504508	-0.182635
C144	C	-0.024229	-0.503582	-0.195806
C145	C	0.012483	-0.456334	-0.149142
H146	H	-0.074123	-0.376648	-0.031849
H147	H	-0.138011	-0.458872	-0.113055
H148	H	-0.106326	-0.539484	-0.217178
H149	H	-0.010750	-0.537873	-0.240098
H150	H	0.053138	-0.455649	-0.158892
C151	C	-0.004834	-0.919738	0.344689
C152	C	-0.041065	-0.972104	0.302754
C153	C	-0.077307	-1.024460	0.344666
C154	C	-0.077318	-1.024451	0.428512
C155	C	-0.041086	-0.972083	0.470451
C156	C	-0.004844	-0.919726	0.428540
H157	H	-0.041057	-0.972113	0.240682
H158	H	-0.104128	-1.063226	0.313619
H159	H	-0.104147	-1.063208	0.459537
H160	H	-0.041093	-0.972074	0.532523
H161	H	0.021977	-0.880960	0.459586
C162	C	-0.004839	-0.919719	0.184610
C163	C	0.013952	-0.972627	0.132169
C164	C	-0.022299	-1.024966	0.090229
C165	C	-0.077341	-1.024397	0.100731
C166	C	-0.096136	-0.971488	0.153175
C167	C	-0.059885	-0.919149	0.195114
H168	H	0.054701	-0.973049	0.124393
H169	H	-0.008385	-1.064133	0.051407
H170	H	-0.104176	-1.063142	0.069685
H171	H	-0.136884	-0.971065	0.160951
H172	H	-0.073798	-0.879982	0.233936
H173	H	0.147241	-0.593069	-0.000194
H174	H	0.142682	-0.146211	-0.000263
H175	H	0.004580	-0.906171	0.804008
C176	C	0.133569	-0.719901	0.654876
C177	C	0.169833	-0.667582	0.696810
C178	C	0.206082	-0.615236	0.654898
C179	C	0.206066	-0.615208	0.571052
C180	C	0.169801	-0.667529	0.529113
C181	C	0.133552	-0.719875	0.571025
H182	H	0.169846	-0.667601	0.758882
H183	H	0.232928	-0.576505	0.685944
H184	H	0.232900	-0.576458	0.540026
H185	H	0.169788	-0.667510	0.467041
H186	H	0.106706	-0.758607	0.539979
H187	H	-0.799607	-0.929571	-0.000271
H188	H	-0.013949	-0.493409	-0.000187
H189	H	0.126263	-0.373315	0.076757
C190	C	-0.007280	-0.257886	-0.089339
C191	C	-0.061993	-0.278729	-0.076155
C192	C	-0.099523	-0.246295	-0.122836
C193	C	-0.082339	-0.193020	-0.182699
C194	C	-0.027623	-0.172174	-0.195885
C195	C	0.009906	-0.204608	-0.149205
H196	H	-0.074715	-0.318169	-0.031838
H197	H	-0.140027	-0.261727	-0.113074
H198	H	-0.110121	-0.169010	-0.217255
H199	H	-0.014901	-0.132734	-0.240202
H200	H	0.050411	-0.189177	-0.158967
H201	H	-0.093056	-0.939890	-0.000217
H202	H	0.144272	-0.802446	0.568903
C203	C	-0.702617	-0.949117	-0.000270
C204	C	-0.714421	-1.001261	0.062601
C205	C	-0.693182	-1.071346	0.062584
C206	C	-0.660139	-1.089288	-0.000305
C207	C	-0.648332	-1.037144	-0.063181
C208	C	-0.669571	-0.967058	-0.063164
H209	H	-0.738884	-0.987980	0.109160
H210	H	-0.701922	-1.109947	0.109129
H211	H	-0.644416	-1.141170	-0.000318
H212	H	-0.623870	-1.050424	-0.109740
H213	H	-0.660831	-0.928458	-0.109709
H214	H	0.124152	-0.733505	0.804060
H215	H	-0.012613	-0.624835	-0.000144
H216	H	-0.448942	-0.641128	-0.000201
C217	C	0.156853	-0.799696	0.419721
C218	C	0.205298	-0.789169	0.461630
C219	C	0.253744	-0.778634	0.419694
C220	C	0.253744	-0.778626	0.335848
C221	C	0.205297	-0.789153	0.293934
C222	C	0.156852	-0.799688	0.335870
H223	H	0.205300	-0.789175	0.523702
H224	H	0.289607	-0.770841	0.450722
H225	H	0.289606	-0.770827	0.304804
H226	H	0.205295	-0.789148	0.231861
H227	H	0.120988	-0.807481	0.304842
H228	H	0.145899	-0.461651	-0.000207
C229	C	-0.476591	-1.015844	-0.000287
C230	C	-0.488401	-1.067990	0.062581
C231	C	-0.467166	-1.138078	0.062562
C232	C	-0.434121	-1.156021	-0.000325
C233	C	-0.422310	-1.103874	-0.063198
C234	C	-0.443545	-1.033786	-0.063179
H235	H	-0.512865	-1.054708	0.109138
H236	H	-0.475911	-1.176681	0.109105
H237	H	-0.418402	-1.207905	-0.000340
H238	H	-0.397846	-1.117156	-0.109755
H239	H	-0.434800	-0.995183	-0.109721
H240	H	-0.017171	-0.177973	-0.000236
H241	H	-0.778212	-0.699737	-0.000208
H242	H	-0.686757	-0.701070	-0.000220
H243	H	0.124920	-0.241891	0.076734
H244	H	-0.015536	-0.837207	0.568948
H245	H	-0.015539	-0.837199	0.430657
H246	H	0.124145	-0.733466	0.333849
H247	H	-0.163138	-0.708716	-0.000163
H248	H	-0.071667	-0.710057	-0.000169
H249	H	-0.573576	-0.996296	-0.000286
C250	C	-0.545914	-0.621587	-0.000208
C251	C	-0.534126	-0.569419	0.062683
C252	C	-0.555363	-0.499332	0.062685
C253	C	-0.588388	-0.481413	-0.000203
C254	C	-0.600177	-0.533583	-0.063098
C255	C	-0.578940	-0.603670	-0.063101
H256	H	-0.509677	-0.582682	0.109240
H257	H	-0.546635	-0.460712	0.109245
H258	H	-0.604108	-0.429530	-0.000201
H259	H	-0.624626	-0.520319	-0.109656
H260	H	-0.587668	-0.642289	-0.109660
H261	H	0.141339	-0.014793	-0.000282
H262	H	-0.018511	-0.046551	-0.000306
