data_functionalizedCrystal
_audit_creation_method	'MofGen! by Chris Wilmer'
_symmetry_space_group_name_H-M	'P1'
_symmetry_Int_Tables_number	1
_symmetry_cell_setting	triclinic
loop_
_symmetry_equiv_pos_as_xyz
  x,y,z
_cell_length_a	12.759401
_cell_length_b	16.120484
_cell_length_c	16.120256
_cell_angle_alpha	95.616173
_cell_angle_beta	92.881472
_cell_angle_gamma	92.925560
loop_
_atom_site_label
_atom_site_type_symbol
_atom_site_fract_x
_atom_site_fract_y
_atom_site_fract_z
Zn1	Zn	1.552086	-0.356756	-0.489390
Zn2	Zn	1.551954	-0.489442	-0.356699
Zn3	Zn	1.385776	-0.349689	-0.349642
Zn4	Zn	1.366964	-0.496488	-0.496431
O5	O	1.464195	-0.423094	-0.423040
O6	O	1.699088	-0.374366	-0.471795
O7	O	1.537727	-0.464997	-0.238800
O8	O	1.415765	-0.233661	-0.362280
O9	O	1.698991	-0.471850	-0.374308
O10	O	1.537952	-0.238853	-0.464952
O11	O	1.415637	-0.362321	-0.233615
O12	O	1.236260	-0.369153	-0.369107
O13	O	1.383704	-0.483859	-0.612459
O14	O	1.222440	-0.477006	-0.476952
O15	O	1.519712	-0.381199	-0.607286
O16	O	1.519487	-0.607342	-0.381135
O17	O	1.383576	-0.612519	-0.483795
C18	C	1.191229	-0.423078	-0.423028
C19	C	1.074451	-0.423092	-0.423044
C20	C	1.012420	-0.479332	-0.479115
C21	C	0.902695	-0.479343	-0.479124
C22	C	0.917041	-0.366871	-0.366985
C23	C	1.026764	-0.366857	-0.366980
C24	C	1.004136	-0.544269	-0.543855
C25	C	0.894411	-0.544280	-0.543865
C26	C	1.449503	-0.640259	-0.434013
C27	C	1.443312	-0.733165	-0.438735
C28	C	1.432013	-0.903265	-0.447374
C29	C	1.496563	-0.942082	-0.398720
C30	C	1.490277	-1.036732	-0.403527
C31	C	1.438298	-0.808607	-0.442569
C32	C	1.738226	-0.423110	-0.423053
C33	C	1.855002	-0.423117	-0.423058
C34	C	1.449624	-0.434103	-0.641048
C35	C	1.443415	-0.438795	-0.733950
C36	C	1.478972	-0.205081	-0.412043
C37	C	1.485269	-0.112177	-0.407357
C38	C	1.496575	-0.398606	-0.942874
C39	C	1.432046	-0.447326	-0.904035
C40	C	1.438373	-0.442578	-0.809391
C41	C	1.490248	-0.403353	-1.037526
C42	C	1.478773	-0.412067	-0.205878
C43	C	1.485202	-0.407140	-0.112964
H44	H	0.878201	-0.321086	-0.321341
H45	H	0.861428	-0.608112	-0.529691
H46	H	1.556547	-0.904230	-0.353457
O47	O	1.352569	-0.507302	-0.954137
H48	H	1.367235	-0.572081	-0.940761
O49	O	1.039409	-0.525754	-0.628478
H50	H	1.004182	-0.574315	-0.676838
H51	H	1.035575	-0.604544	-0.523668
O52	O	1.352554	-0.953392	-0.507326
H53	H	1.272160	-0.936027	-0.492101
H54	H	1.556568	-0.353334	-0.905046
H55	H	1.077266	-0.321056	-0.321327
O56	O	0.845946	-0.517817	-0.623823
H57	H	0.908985	-0.503783	-0.666210
