data_functionalizedCrystal
_audit_creation_method	'MofGen! by Chris Wilmer'
_symmetry_space_group_name_H-M	'P1'
_symmetry_Int_Tables_number	1
_symmetry_cell_setting	triclinic
loop_
_symmetry_equiv_pos_as_xyz
  x,y,z
_cell_length_a	25.639239
_cell_length_b	25.639242
_cell_length_c	12.827885
_cell_angle_alpha	89.968859
_cell_angle_beta	90.035982
_cell_angle_gamma	89.966656
loop_
_atom_site_label
_atom_site_type_symbol
_atom_site_fract_x
_atom_site_fract_y
_atom_site_fract_z
Zn1	Zn	-0.208200	-0.799266	0.591134
Zn2	Zn	-0.295645	-0.799177	0.416376
Zn3	Zn	-0.208217	-0.711830	0.416372
Zn4	Zn	-0.295598	-0.711787	0.591040
O5	O	-0.251915	-0.755515	0.503730
O6	O	-0.219812	-0.872419	0.567994
O7	O	-0.284074	-0.787571	0.270139
O8	O	-0.135050	-0.723483	0.439593
O9	O	-0.284058	-0.872354	0.439599
O10	O	-0.135037	-0.787722	0.567990
O11	O	-0.219842	-0.723398	0.270136
O12	O	-0.219796	-0.638659	0.439501
O13	O	-0.283978	-0.723410	0.737288
O14	O	-0.283994	-0.638628	0.567828
O15	O	-0.219767	-0.787681	0.737358
O16	O	-0.368804	-0.787530	0.439507
O17	O	-0.368769	-0.723325	0.567832
C18	C	-0.251892	-0.619672	0.503654
C19	C	-0.251895	-0.561558	0.503647
C20	C	-0.218429	-0.310373	0.436999
C21	C	-0.218425	-0.364977	0.436989
O22	O	-0.189941	-0.393220	0.380279
N23	N	-0.251901	-0.392284	0.503689
C24	C	-0.285380	-0.364985	0.570411
O25	O	-0.313854	-0.393226	0.627144
C26	C	-0.285382	-0.310382	0.570425
C27	C	-0.251907	-0.283077	0.503714
C28	C	-0.184957	-0.283068	0.370294
C29	C	-0.184962	-0.228467	0.370303
C30	C	-0.218440	-0.201171	0.437017
C31	C	-0.251913	-0.228476	0.503723
C32	C	-0.318858	-0.283083	0.637151
C33	C	-0.318857	-0.228476	0.637161
C34	C	-0.285382	-0.201171	0.570449
C35	C	-0.285396	-0.146580	0.570446
N36	N	-0.251920	-0.119272	0.503746
C37	C	-0.218442	-0.146568	0.437032
C38	C	-0.285374	-0.479656	0.570376
C39	C	-0.285375	-0.534258	0.570357
C40	C	-0.218419	-0.534246	0.436937
C41	C	-0.218420	-0.479643	0.436952
C42	C	-0.251898	-0.452348	0.503677
C43	C	-0.218456	-0.031903	0.437055
C44	C	-0.218466	0.022702	0.437067
C45	C	-0.285420	0.022686	0.570490
C46	C	-0.285413	-0.031915	0.570475
C47	C	-0.251926	-0.059208	0.503754
O48	O	-0.313864	-0.118302	0.627130
O49	O	-0.189968	-0.118320	0.380318
C50	C	-0.387758	-0.755427	0.503683
C51	C	-0.445872	-0.755437	0.503697
C52	C	-0.806240	-0.789034	0.437026
C53	C	-0.860844	-0.789054	0.437040
O54	O	-0.889086	-0.817528	0.380301
N55	N	-0.888154	-0.755607	0.503800
C56	C	-0.860857	-0.722141	0.570558
O57	O	-0.889100	-0.693694	0.627344
C58	C	-0.806253	-0.722124	0.570548
C59	C	-0.778946	-0.755569	0.503776
C60	C	-0.778933	-0.822477	0.370260
C61	C	-0.724333	-0.822456	0.370245
C62	C	-0.697039	-0.788992	0.436995
C63	C	-0.724346	-0.755548	0.503761
C64	C	-0.778957	-0.688661	0.637311
C65	C	-0.724350	-0.688647	0.637296
C66	C	-0.697043	-0.722092	0.570524
C67	C	-0.642452	-0.722063	0.570497
N68	N	-0.615142	-0.755510	0.503737
C69	C	-0.642436	-0.788974	0.436986
C70	C	-0.975527	-0.722180	0.570574
C71	C	-1.030130	-0.722195	0.570579
C72	C	-1.030114	-0.789108	0.437062
C73	C	-0.975510	-0.789091	0.437052
C74	C	-0.948218	-0.755628	0.503814
C75	C	-0.527771	-0.788927	0.436959
C76	C	-0.473165	-0.788902	0.436946
C77	C	-0.473186	-0.721990	0.570467
C78	C	-0.527787	-0.722013	0.570476
C79	C	-0.555078	-0.755486	0.503718
O80	O	-0.614176	-0.693605	0.627210
O81	O	-0.614186	-0.817422	0.380219
C82	C	-0.115542	-0.755617	0.503801
C83	C	-0.057428	-0.755661	0.503832
C84	C	-0.251865	-0.755551	0.776301
C85	C	-0.251843	-0.755566	0.892454
C86	C	-0.251937	0.108112	0.503793
C87	C	-0.251944	0.049998	0.503781
C88	C	-0.251927	-0.755510	0.232221
C89	C	-0.251801	-0.755596	0.116068
C90	C	-0.220064	-0.787372	0.944273
C91	C	-0.220041	-0.787388	1.064324
H92	H	-0.157692	-0.305286	0.315967
H93	H	-0.312640	-0.556485	0.624670
F94	F	-0.695277	-0.858060	0.299188
H95	H	-0.191160	-0.457415	0.382633
H96	H	-0.192871	-0.814589	0.899761
F97	F	-0.946485	-0.686558	0.641628
H98	H	-0.192835	-0.814621	1.108887
F99	F	-0.807973	-0.858099	0.299210
F100	F	-0.287370	-0.720003	1.057831
H101	H	-0.191206	0.044931	0.382739
F102	F	-0.182816	-0.060943	0.366042
F103	F	-0.321045	-0.060976	0.641466
F104	F	-0.321054	0.051745	0.641477
H105	H	-0.279031	-0.728344	0.936966
F106	F	-0.444106	-0.824500	0.365875
H107	H	-0.157704	-0.206240	0.315980
H108	H	-0.312639	-0.457436	0.624710
F109	F	-0.182788	-0.563306	0.365934
H110	H	-0.953280	-0.816326	0.382682
F111	F	-0.354487	-0.312131	0.708157
H112	H	-0.550021	-0.694781	0.624850
F113	F	-0.556808	-0.824553	0.365908
F114	F	-1.059171	-0.824724	0.366018
F115	F	-1.059186	-0.686591	0.641635
H116	H	-0.346117	-0.206256	0.691501
H117	H	-0.801181	-0.661423	0.691679
H118	H	-0.702131	-0.661397	0.691664
F119	F	-0.444129	-0.686378	0.641507
