data_functionalizedCrystal
_audit_creation_method	'MofGen! by Chris Wilmer'
_symmetry_space_group_name_H-M	'P1'
_symmetry_Int_Tables_number	1
_symmetry_cell_setting	triclinic
loop_
_symmetry_equiv_pos_as_xyz
  x,y,z
_cell_length_a	13.032831
_cell_length_b	16.120484
_cell_length_c	13.034356
_cell_angle_alpha	86.035874
_cell_angle_beta	74.815040
_cell_angle_gamma	86.078521
loop_
_atom_site_label
_atom_site_type_symbol
_atom_site_fract_x
_atom_site_fract_y
_atom_site_fract_z
Zn1	Zn	1.676550	-0.417867	-0.829972
Zn2	Zn	1.645187	-0.571245	-0.660979
Zn3	Zn	1.476355	-0.417874	-0.629855
Zn4	Zn	1.491979	-0.540104	-0.814278
O5	O	1.572518	-0.486772	-0.733771
O6	O	1.820291	-0.451243	-0.827148
O7	O	1.603127	-0.563935	-0.508944
O8	O	1.509498	-0.302530	-0.649943
O9	O	1.797249	-0.563929	-0.702990
O10	O	1.656581	-0.302525	-0.796969
O11	O	1.479086	-0.451255	-0.486078
O12	O	1.330527	-0.421058	-0.634726
O13	O	1.536127	-0.510853	-0.964266
O14	O	1.342006	-0.510860	-0.770221
O15	O	1.671731	-0.421046	-0.975796
O16	O	1.618277	-0.682456	-0.687772
O17	O	1.505716	-0.659577	-0.800400
C18	C	1.297917	-0.462581	-0.697394
C19	C	1.180444	-0.452250	-0.681857
C20	C	1.133761	-0.492165	-0.741880
C21	C	1.012346	-0.481487	-0.725824
C22	C	1.560321	-0.700924	-0.745787
C23	C	1.555204	-0.792545	-0.750976
C24	C	1.545871	-0.960297	-0.760472
C25	C	1.599356	-1.012423	-0.707113
C26	C	1.594163	-1.105765	-0.712396
C27	C	1.551063	-0.866945	-0.755190
C28	C	1.848191	-0.511059	-0.770291
C29	C	1.965666	-0.521408	-0.785854
C30	C	1.609171	-0.462475	-1.009454
C31	C	1.624790	-0.452121	-1.126933
C32	C	1.584795	-0.271785	-0.721735
C33	C	1.590026	-0.180170	-0.716606
C34	C	1.580799	-0.481243	-1.295026
C35	C	1.564653	-0.491944	-1.173605
C36	C	1.536072	-0.510921	-0.459166
C37	C	1.520671	-0.521061	-0.341701
H38	H	1.183681	-0.534238	-0.805157
Br39	Br	1.048855	-0.591528	-0.891344
H40	H	1.130525	-0.410169	-0.618588
Br41	Br	0.929160	-0.411343	-0.620363
H42	H	1.649045	-0.986946	-0.657461
Br43	Br	1.463055	-1.002757	-0.843221
Br44	Br	1.686535	-0.411225	-1.378241
Br45	Br	1.458930	-0.561981	-1.090397
Br46	Br	1.730531	-0.382099	-1.210141
Br47	Br	1.414952	-0.591094	-1.258489
