data_functionalizedCrystal
_audit_creation_method	'MofGen! by Chris Wilmer'
_symmetry_space_group_name_H-M	'P1'
_symmetry_Int_Tables_number	1
_symmetry_cell_setting	triclinic
loop_
_symmetry_equiv_pos_as_xyz
  x,y,z
_cell_length_a	19.077399
_cell_length_b	18.050590
_cell_length_c	19.077174
_cell_angle_alpha	92.271281
_cell_angle_beta	89.887093
_cell_angle_gamma	92.318100
loop_
_atom_site_label
_atom_site_type_symbol
_atom_site_fract_x
_atom_site_fract_y
_atom_site_fract_z
Zn1	Zn	1.090205	-0.264479	-0.354249
Zn2	Zn	1.590205	0.235521	0.145751
Zn3	Zn	1.085417	-0.383894	-0.236744
Zn4	Zn	1.585417	0.116106	0.263256
Zn5	Zn	0.967985	-0.264900	-0.241466
Zn6	Zn	1.467985	0.235100	0.258534
Zn7	Zn	0.972677	-0.393811	-0.358919
Zn8	Zn	1.472677	0.106189	0.141081
O9	O	1.029071	-0.326771	-0.297844
O10	O	1.529071	0.173229	0.202156
O11	O	1.187901	-0.275993	-0.334731
O12	O	1.687901	0.224007	0.165269
O13	O	1.065873	-0.364136	-0.139039
O14	O	1.565873	0.135864	0.360961
O15	O	0.984238	-0.160919	-0.256448
O16	O	1.484238	0.339081	0.243552
O17	O	1.184384	-0.363727	-0.248400
O18	O	1.684384	0.136273	0.251600
O19	O	1.074033	-0.160609	-0.339310
O20	O	1.574033	0.339391	0.160690
O21	O	0.979596	-0.276711	-0.142508
O22	O	1.479596	0.223289	0.357492
O23	O	0.870276	-0.286327	-0.260977
O24	O	1.370276	0.213673	0.239023
O25	O	0.992234	-0.380628	-0.456630
O26	O	1.492234	0.119372	0.043370
O27	O	0.873723	-0.381037	-0.347269
O28	O	1.373723	0.118963	0.152731
O29	O	1.078582	-0.285608	-0.453199
O30	O	1.578582	0.214392	0.046801
O31	O	1.070422	-0.489135	-0.252929
O32	O	1.570422	0.010865	0.247071
O33	O	0.987592	-0.496421	-0.342690
O34	O	1.487592	0.003579	0.157310
C35	C	0.846503	-0.334804	-0.305143
C36	C	1.346503	0.165196	0.194857
C37	C	0.768401	-0.338260	-0.308282
C38	C	1.268401	0.161740	0.191718
C39	C	0.729896	-0.290504	-0.264902
C40	C	1.229896	0.209496	0.235098
C41	C	0.656510	-0.293757	-0.267852
C42	C	1.156510	0.206243	0.232148
C43	C	0.621631	-0.344763	-0.314184
C44	C	1.121631	0.155237	0.185816
C45	C	0.660141	-0.392524	-0.357565
C46	C	1.160141	0.107476	0.142435
C47	C	0.733525	-0.389274	-0.354612
C48	C	1.233525	0.110726	0.145388
C49	C	0.402350	-0.359781	-0.327823
C50	C	0.902350	0.140219	0.172177
C51	C	0.328960	-0.363026	-0.330775
C52	C	0.828960	0.136974	0.169225
C53	C	0.325334	-0.264260	-0.241060
C54	C	0.825334	0.235740	0.258940
C55	C	0.398720	-0.261011	-0.238114
C56	C	0.898720	0.238989	0.261886
C57	C	0.437224	-0.308775	-0.281492
C58	C	0.937224	0.191225	0.218508
N59	N	0.546619	-0.348087	-0.317201
N60	N	1.046619	0.151913	0.182799
N61	N	0.512234	-0.305453	-0.278471
N62	N	1.012234	0.194547	0.221529
C63	C	1.029016	-0.519724	-0.297818
C64	C	1.529016	-0.019724	0.202182
C65	C	1.029058	-0.602269	-0.297828
C66	C	1.529058	-0.102269	0.202172
C67	C	1.074201	-0.797729	-0.249077
C68	C	1.574201	-0.297729	0.250923
C69	C	1.093938	-0.848914	-0.312522
C70	C	1.593938	-0.348914	0.187478
C71	C	1.029099	-0.753398	-0.297855
C72	C	1.529099	-0.253398	0.202145
C73	C	1.009434	-0.849292	-0.234436
C74	C	1.509434	-0.349292	0.265564
C75	C	1.029139	-0.899383	-0.297875
C76	C	1.529139	-0.399383	0.202125
C77	C	1.048870	-0.803497	-0.361332
C78	C	1.548870	-0.303497	0.138668
C79	C	0.964335	-0.803870	-0.283204
C80	C	1.464335	-0.303870	0.216796
C81	C	0.984049	-0.855036	-0.346694
C82	C	1.484049	-0.355036	0.153306
C83	C	1.029077	-0.669301	-0.297842
C84	C	1.529077	-0.169301	0.202158
C85	C	1.029161	-0.983479	-0.297894
C86	C	1.529161	-0.483479	0.202106
C87	C	1.212352	-0.318707	-0.290518
C88	C	1.712352	0.181293	0.209482
C89	C	1.290455	-0.315270	-0.287396
C90	C	1.790455	0.184730	0.212604
C91	C	1.036465	-0.334177	-0.481124
C92	C	1.536465	0.165823	0.018876
C93	C	1.039616	-0.337334	-0.559227
C94	C	1.539616	0.162666	-0.059227
C95	C	1.029146	-0.133064	-0.297885
C96	C	1.529146	0.366936	0.202115
C97	C	1.029178	-0.050517	-0.297902
C98	C	1.529178	0.449483	0.202098
C99	C	0.996179	-0.293300	-0.597725
C100	C	1.496179	0.206700	-0.097725
C101	C	0.999137	-0.296272	-0.671111
C102	C	1.499137	0.203728	-0.171111
C103	C	1.045536	-0.343274	-0.705997
C104	C	1.545536	0.156726	-0.205997
C105	C	1.088975	-0.387312	-0.667493
C106	C	1.588975	0.112688	-0.167493
C107	C	1.086013	-0.384344	-0.594109
C108	C	1.586013	0.115656	-0.094109
C109	C	1.059208	-0.357036	-0.925280
C110	C	1.559208	0.142964	-0.425280
C111	C	1.062169	-0.360000	-0.998670
C112	C	1.562169	0.140000	-0.498670
C113	C	0.972329	-0.268960	-1.002282
C114	C	1.472329	0.231040	-0.502282
C115	C	0.969374	-0.265992	-0.928896
C116	C	1.469374	0.234008	-0.428896
C117	C	1.012810	-0.310034	-0.890399
C118	C	1.512810	0.189966	-0.390399
N119	N	1.048562	-0.346311	-0.781009
N120	N	1.548562	0.153689	-0.281009
N121	N	1.009780	-0.307000	-0.815388
N122	N	1.509780	0.193000	-0.315388
C123	C	1.021746	-0.319338	-0.115276
C124	C	1.521746	0.180662	0.384724
C125	C	1.018731	-0.315966	-0.037168
C126	C	1.518731	0.184034	0.462832
H127	H	0.625162	-0.254873	-0.232523
H128	H	1.125162	0.245127	0.267477
H129	H	1.112357	-0.772696	-0.207868
H130	H	1.612357	-0.272696	0.292132
H131	H	0.936965	-0.233105	-1.033635
H132	H	1.436965	0.266895	-0.533635
C133	C	0.918330	-0.214288	-0.890527
C134	C	1.418330	0.285712	-0.390527
N135	N	0.879883	-0.175342	-0.861628
N136	N	1.379883	0.324658	-0.361628
C137	C	1.167951	-0.875748	-0.329279
C138	C	1.667951	-0.375748	0.170721
N139	N	1.223699	-0.895958	-0.341895
N140	N	1.723699	-0.395958	0.158105
H141	H	1.126751	-0.425587	-0.695904
H142	H	1.626751	0.074413	-0.195904
C143	C	0.444694	-0.412322	-0.375542
C144	C	0.944694	0.087678	0.124458
N145	N	0.476591	-0.451900	-0.411485
N146	N	0.976591	0.048100	0.088515
H147	H	0.992786	-0.869468	-0.180796
H148	H	1.492786	-0.369468	0.319204
C149	C	0.290595	-0.419136	-0.381749
C150	C	0.790595	0.080864	0.118251
N151	N	0.261698	-0.461393	-0.420143
N152	N	0.761698	0.038607	0.079857
H153	H	0.958399	-0.255021	-0.569326
H154	H	1.458399	0.244979	-0.069326
C155	C	1.133801	-0.432781	-0.551761
C156	C	1.633801	0.067219	-0.051761
N157	N	1.169796	-0.469266	-0.519865
N158	N	1.669796	0.030734	-0.019865
C159	C	0.951359	-0.247823	-0.713456
C160	C	1.451359	0.252177	-0.213456
N161	N	0.915373	-0.211327	-0.745350
N162	N	1.415373	0.288673	-0.245350
C163	C	0.932546	-0.888673	-0.402491
C164	C	1.432546	-0.388673	0.097509
N165	N	0.893756	-0.914008	-0.444519
N166	N	1.393756	-0.414008	0.055481
H167	H	1.065467	-0.783417	-0.415021
H168	H	1.565467	-0.283417	0.084979
H169	H	1.094570	-0.392906	-0.893944
H170	H	1.594570	0.107094	-0.393944
C171	C	0.890343	-0.777007	-0.266414
C172	C	1.390343	-0.277007	0.233586
N173	N	0.834612	-0.756770	-0.253759
N174	N	1.334612	-0.256770	0.246241
C175	C	0.621771	-0.448631	-0.408531
C176	C	1.121771	0.051369	0.091469
N177	N	0.592872	-0.490890	-0.446922
N178	N	1.092872	0.009110	0.053078
C179	C	0.437081	-0.204902	-0.187143
C180	C	0.937081	0.295098	0.312857
N181	N	0.465975	-0.162639	-0.148752
N182	N	0.965975	0.337361	0.351248
C183	C	0.768256	-0.234393	-0.213932
C184	C	1.268256	0.265607	0.286068
N185	N	0.797146	-0.192131	-0.175538
N186	N	1.297146	0.307869	0.324462
H187	H	0.293977	-0.225374	-0.205743
H188	H	0.793977	0.274626	0.294257
C189	C	1.113211	-0.411711	-1.037043
C190	C	1.613211	0.088289	-0.537043
N191	N	1.151654	-0.450658	-1.065945
N192	N	1.651654	0.049342	-0.565945
C193	C	0.775880	-0.441807	-0.402334
C194	C	1.275880	0.058193	0.097666
N195	N	0.807782	-0.481379	-0.438279
N196	N	1.307782	0.018621	0.061721
