data_functionalizedCrystal
_audit_creation_method	'MofGen! by Chris Wilmer'
_symmetry_space_group_name_H-M	'P1'
_symmetry_Int_Tables_number	1
_symmetry_cell_setting	triclinic
loop_
_symmetry_equiv_pos_as_xyz
  x,y,z
_cell_length_a	18.215407
_cell_length_b	12.827892
_cell_length_c	18.215399
_cell_angle_alpha	90.024028
_cell_angle_beta	90.019833
_cell_angle_gamma	90.015840
loop_
_atom_site_label
_atom_site_type_symbol
_atom_site_fract_x
_atom_site_fract_y
_atom_site_fract_z
Zn1	Zn	1.125121	-0.416031	0.416136
Zn2	Zn	1.458454	-0.082698	0.749469
Zn3	Zn	1.791787	0.250635	1.082803
Zn4	Zn	1.125049	-0.590790	0.293078
Zn5	Zn	1.458383	-0.257457	0.626411
Zn6	Zn	1.791716	0.075876	0.959745
Zn7	Zn	1.002053	-0.416065	0.293083
Zn8	Zn	1.335386	-0.082732	0.626417
Zn9	Zn	1.668720	0.250601	0.959750
Zn10	Zn	1.002039	-0.590732	0.416103
Zn11	Zn	1.335373	-0.257399	0.749436
Zn12	Zn	1.668706	0.075934	1.082770
O13	O	1.063566	-0.503405	0.354600
O14	O	1.396899	-0.170072	0.687933
O15	O	1.730232	0.163262	1.021267
O16	O	1.228095	-0.439223	0.399824
O17	O	1.561429	-0.105890	0.733157
O18	O	1.894762	0.227443	1.066490
O19	O	1.108710	-0.567651	0.190094
O20	O	1.442043	-0.234318	0.523428
O21	O	1.775376	0.099015	0.856761
O22	O	1.018414	-0.269825	0.309422
O23	O	1.351747	0.063508	0.642756
O24	O	1.685080	0.396842	0.976089
O25	O	1.228043	-0.567618	0.309414
O26	O	1.561376	-0.234285	0.642747
O27	O	1.894710	0.099048	0.976080
O28	O	1.108831	-0.269800	0.399829
O29	O	1.442164	0.063534	0.733162
O30	O	1.775498	0.396867	1.066495
O31	O	1.018345	-0.439282	0.190098
O32	O	1.351678	-0.105948	0.523432
O33	O	1.685011	0.227385	0.856765
O34	O	0.899067	-0.439225	0.309391
O35	O	1.232400	-0.105892	0.642724
O36	O	1.565734	0.227441	0.976057
O37	O	1.018390	-0.567519	0.519092
O38	O	1.351724	-0.234186	0.852425
O39	O	1.685057	0.099147	1.185758
O40	O	0.899057	-0.567552	0.399773
O41	O	1.232390	-0.234219	0.733106
O42	O	1.565724	0.099114	1.066439
O43	O	1.108818	-0.439167	0.519116
O44	O	1.442151	-0.105834	0.852449
O45	O	1.775484	0.227500	1.185783
O46	O	1.108696	-0.737019	0.309382
O47	O	1.442030	-0.403685	0.642715
O48	O	1.775363	-0.070352	0.976048
O49	O	1.018321	-0.736976	0.399767
O50	O	1.351655	-0.403643	0.733101
O51	O	1.684988	-0.070309	1.066434
C52	C	0.872359	-0.503387	0.354579
C53	C	1.205693	-0.170054	0.687912
C54	C	1.539026	0.163280	1.021246
C55	C	0.790560	-0.503405	0.354587
C56	C	1.123894	-0.170071	0.687921
C57	C	1.457227	0.163262	1.021254
C58	C	0.602380	-0.570329	0.401590
C59	C	0.935714	-0.236996	0.734924
C60	C	1.269047	0.096337	1.068257
C61	C	0.525522	-0.570333	0.401599
C62	C	0.858855	-0.236999	0.734933
C63	C	1.192188	0.096334	1.068266
C64	C	0.525503	-0.436499	0.307626
C65	C	0.858836	-0.103166	0.640959
C66	C	1.192169	0.230167	0.974293
C67	C	0.602360	-0.436491	0.307621
C68	C	0.935693	-0.103158	0.640954
C69	C	1.269027	0.230175	0.974288
C70	C	0.640797	-0.503413	0.354602
C71	C	0.974130	-0.170079	0.687935
C72	C	1.307464	0.163254	1.021269
C73	C	0.487081	-0.503424	0.354616
C74	C	0.820414	-0.170090	0.687950
C75	C	1.153747	0.163243	1.021283
C76	C	0.403747	-0.503427	0.354626
C77	C	0.737081	-0.170093	0.687959
C78	C	1.070414	0.163240	1.021292
C79	C	0.724136	-0.503408	0.354594
C80	C	1.057469	-0.170075	0.687927
C81	C	1.390803	0.163258	1.021260
C82	C	1.063520	-0.774915	0.354586
C83	C	1.396853	-0.441581	0.687920
C84	C	1.730186	-0.108248	1.021253
C85	C	1.063567	-0.891068	0.354605
C86	C	1.396900	-0.557735	0.687939
C87	C	1.730234	-0.224401	1.021272
C88	C	1.108288	-0.942757	0.399381
C89	C	1.441622	-0.609423	0.732715
C90	C	1.774955	-0.276090	1.066048
C91	C	1.108339	-1.062807	0.399402
C92	C	1.441672	-0.729474	0.732735
C93	C	1.775005	-0.396140	1.066068
C94	C	1.255518	-0.503424	0.354622
C95	C	1.588852	-0.170090	0.687955
C96	C	1.922185	0.163243	1.021288
C97	C	1.337317	-0.503432	0.354631
C98	C	1.670651	-0.170098	0.687964
C99	C	2.003984	0.163235	1.021298
C100	C	1.063610	-0.503333	0.546553
C101	C	1.396944	-0.170000	0.879886
C102	C	1.730277	0.163334	1.213220
C103	C	1.063629	-0.503302	0.628352
C104	C	1.396963	-0.169969	0.961685
C105	C	1.730296	0.163365	1.295019
C106	C	1.063632	-0.230835	0.354630
C107	C	1.396965	0.102499	0.687963
C108	C	1.730298	0.435832	1.021297
C109	C	1.063660	-0.114682	0.354643
C110	C	1.396993	0.218652	0.687976
C111	C	1.730327	0.551985	1.021309
C112	C	1.063563	-0.503401	0.163394
C113	C	1.396897	-0.170068	0.496727
C114	C	1.730230	0.163265	0.830061
C115	C	1.063687	-0.503138	0.081595
C116	C	1.397020	-0.169804	0.414929
C117	C	1.730353	0.163529	0.748262
C118	C	1.110732	-0.436407	0.816560
C119	C	1.444065	-0.103073	1.149893
C120	C	1.777399	0.230260	1.483226
C121	C	1.110741	-0.436376	0.893419
C122	C	1.444074	-0.103043	1.226752
C123	C	1.777407	0.230290	1.560085
C124	C	1.016579	-0.570036	0.893382
C125	C	1.349912	-0.236703	1.226715
C126	C	1.683246	0.096631	1.560049
C127	C	1.016567	-0.570060	0.816525
C128	C	1.349901	-0.236727	1.149858
C129	C	1.683234	0.096606	1.483191
C130	C	1.063648	-0.503247	0.778116
C131	C	1.396981	-0.169914	1.111449
C132	C	1.730314	0.163419	1.444782
C133	C	1.063668	-0.503192	0.931832
C134	C	1.397002	-0.169859	1.265165
C135	C	1.730335	0.163474	1.598498
C136	C	1.063678	-0.503160	1.015165
C137	C	1.397011	-0.169827	1.348499
C138	C	1.730344	0.163507	1.681832
C139	C	1.063638	-0.503278	0.694777
C140	C	1.396971	-0.169945	1.028110
C141	C	1.730304	0.163389	1.361443
H142	H	0.494198	-0.382016	0.269375
H143	H	0.827531	-0.048683	0.602708
H144	H	1.160865	0.284651	0.936041
Br145	Br	0.999845	-1.040607	0.290737
Br146	Br	1.333178	-0.707274	0.624070
Br147	Br	1.666512	-0.373940	0.957404
Br148	Br	0.952656	-0.660770	0.764345
Br149	Br	1.285989	-0.327437	1.097679
Br150	Br	1.619323	0.005897	1.431012
H151	H	1.025313	-0.935692	0.316290
H152	H	1.358647	-0.602358	0.649623
H153	H	1.691980	-0.269025	0.982956
H154	H	1.146537	-0.898135	0.437704
H155	H	1.479870	-0.564802	0.771037
H156	H	1.813203	-0.231469	1.104371
Br157	Br	1.172164	-1.136889	0.463293
Br158	Br	1.505498	-0.803555	0.796626
Br159	Br	1.838831	-0.470222	1.129960
H160	H	1.149066	-0.382000	0.785289
H161	H	1.482399	-0.048667	1.118623
H162	H	1.815733	0.284666	1.451956
H163	H	1.149080	-0.381946	0.924717
H164	H	1.482413	-0.048613	1.258050
H165	H	1.815747	0.284720	1.591383
H166	H	0.978249	-0.624435	0.924664
H167	H	1.311583	-0.291102	1.257998
H168	H	1.644916	0.042232	1.591331
H169	H	0.633674	-0.624818	0.439847
H170	H	0.967007	-0.291485	0.773180
H171	H	1.300340	0.041848	1.106514
Br172	Br	0.654502	-0.345659	0.243854
Br173	Br	0.987835	-0.012325	0.577187
Br174	Br	1.321168	0.321008	0.910520
H175	H	0.494246	-0.624822	0.439863
H176	H	0.827580	-0.291488	0.773196
H177	H	1.160913	0.041845	1.106530
