data_functionalizedCrystal
_audit_creation_method	'MofGen! by Chris Wilmer'
_symmetry_space_group_name_H-M	'P1'
_symmetry_Int_Tables_number	1
_symmetry_cell_setting	triclinic
loop_
_symmetry_equiv_pos_as_xyz
  x,y,z
_cell_length_a	11.792254
_cell_length_b	9.130313
_cell_length_c	11.792253
_cell_angle_alpha	90.006831
_cell_angle_beta	84.198598
_cell_angle_gamma	90.001450
loop_
_atom_site_label
_atom_site_type_symbol
_atom_site_fract_x
_atom_site_fract_y
_atom_site_fract_z
O1	O	-1.506901	-0.121860	-0.155630
O2	O	-1.006901	0.378140	0.344370
O3	O	-1.176562	-0.121856	-0.171648
O4	O	-0.676562	0.378144	0.328352
O5	O	-1.349740	-0.121828	0.001530
O6	O	-0.849740	0.378172	0.501530
O7	O	-1.333723	-0.121888	-0.328809
O8	O	-0.833723	0.378112	0.171191
O9	O	-1.349738	0.121771	0.001525
O10	O	-0.849738	0.621771	0.501525
O11	O	-1.176560	0.121743	-0.171653
O12	O	-0.676560	0.621743	0.328347
O13	O	-1.506899	0.121739	-0.155635
O14	O	-1.006899	0.621739	0.344365
Cu15	Cu	-1.341729	0.143983	-0.163644
Cu16	Cu	-0.841729	0.643983	0.336356
Cu17	Cu	-1.341732	-0.144101	-0.163639
Cu18	Cu	-0.841732	0.355899	0.336361
O19	O	-1.333721	0.121710	-0.328813
O20	O	-0.833721	0.621710	0.171187
C21	C	-1.134271	-0.000056	-0.170642
C22	C	-0.634271	0.499944	0.329358
C23	C	-1.008257	-0.000053	-0.167621
C24	C	-0.508257	0.499947	0.332379
C25	C	-0.905921	-0.000056	-0.165168
C26	C	-0.405921	0.499944	0.334832
C27	C	-0.777534	-0.000052	-0.162099
C28	C	-0.277534	0.499948	0.337901
N29	N	-1.341736	0.346606	-0.163648
N30	N	-0.841736	0.846606	0.336352
C31	C	-1.348730	-0.000024	0.043818
C32	C	-0.848730	0.499976	0.543818
C33	C	-1.345710	-0.000010	0.169832
C34	C	-0.845710	0.499990	0.669832
C35	C	-0.549190	-0.000058	-0.156642
C36	C	-0.049190	0.499942	0.343358
C37	C	-0.675204	-0.000049	-0.159662
C38	C	-0.175204	0.499951	0.340338
N39	N	-1.341734	-0.346723	-0.163627
N40	N	-0.841734	0.153277	0.336373
C41	C	-1.418439	0.423270	-0.086990
C42	C	-0.918439	0.923270	0.413010
C43	C	-1.418436	0.576607	-0.086977
C44	C	-0.918436	1.076607	0.413023
C45	C	-1.265023	0.576601	-0.240287
C46	C	-0.765023	1.076601	0.259713
C47	C	-1.265021	0.423267	-0.240295
C48	C	-0.765021	0.923267	0.259705
C49	C	-1.507014	0.423275	0.001519
C50	C	-1.007014	0.923275	0.501519
C51	C	-1.507011	0.576612	0.001533
C52	C	-1.007011	1.076612	0.501533
C53	C	-1.343256	-0.000003	0.272168
C54	C	-0.843256	0.499997	0.772168
C55	C	-1.340188	-0.000000	0.400555
C56	C	-0.840188	0.500000	0.900555
C57	C	-1.334731	-0.000066	0.628898
C58	C	-0.834731	0.499934	1.128898
C59	C	-1.337751	0.000001	0.502885
C60	C	-0.837751	0.500001	1.002885
H61	H	-1.202554	0.360849	-0.302705
H62	H	-0.702554	0.860849	0.197295
H63	H	-1.594184	0.618223	-0.017696
H64	H	-1.094184	1.118223	0.482304
H65	H	-1.202563	0.639036	-0.302691
H66	H	-0.702563	1.139036	0.197309
H67	H	-1.487854	0.381671	0.088711
H68	H	-0.987854	0.881671	0.588711
H69	H	-1.589352	0.375710	-0.025918
H70	H	-1.089352	0.875710	0.474082
H71	H	-1.479642	0.624174	0.083906
H72	H	-0.979642	1.124174	0.583906
