data_functionalizedCrystal
_audit_creation_method	'MofGen! by Chris Wilmer'
_symmetry_space_group_name_H-M	'P1'
_symmetry_Int_Tables_number	1
_symmetry_cell_setting	triclinic
loop_
_symmetry_equiv_pos_as_xyz
  x,y,z
_cell_length_a	10.489711
_cell_length_b	10.489741
_cell_length_c	10.268362
_cell_angle_alpha	89.995004
_cell_angle_beta	89.993890
_cell_angle_gamma	84.533091
loop_
_atom_site_label
_atom_site_type_symbol
_atom_site_fract_x
_atom_site_fract_y
_atom_site_fract_z
O1	O	1.694076	0.179788	-0.108347
O2	O	1.322875	0.196721	-0.108339
O3	O	1.516922	0.002656	-0.108335
O4	O	1.500029	0.373853	-0.108350
O5	O	1.516905	0.002648	0.108265
O6	O	1.322858	0.196712	0.108262
O7	O	1.694059	0.179780	0.108254
Cu8	Cu	1.508457	0.188246	0.128035
Cu9	Cu	1.508477	0.188255	-0.128120
O10	O	1.500012	0.373845	0.108250
C11	C	1.275334	0.195446	-0.000037
C12	C	1.133703	0.191644	-0.000034
C13	C	0.951317	0.308348	-0.000054
C14	C	1.043471	0.250057	-0.106845
C15	C	1.043427	0.250017	0.106706
C16	C	0.973520	0.126514	-0.106941
C17	C	0.973466	0.126492	0.106706
C18	C	1.065593	0.068111	-0.000111
C19	C	1.515638	-0.044880	-0.000036
C20	C	1.511820	-0.186509	-0.000038
C21	C	1.388354	-0.254636	-0.000045
C22	C	1.446670	-0.346769	0.106749
C23	C	1.446716	-0.346735	-0.106802
C24	C	1.570187	-0.276776	0.106844
C25	C	1.570216	-0.276733	-0.106803
C26	C	1.628622	-0.368839	0.000017
C27	C	1.741600	0.181055	-0.000050
C28	C	1.883231	0.184857	-0.000062
C29	C	1.501296	0.421381	-0.000052
C30	C	1.505114	0.563010	-0.000058
N31	N	1.508452	0.188238	0.308201
N32	N	1.508492	0.188253	-0.308286
C33	C	1.508471	0.188253	0.573872
C34	C	1.508456	0.188248	0.426034
H35	H	1.115050	-0.033484	-0.000161
C36	C	1.640741	-0.234790	-0.228787
N37	N	1.693851	-0.203196	-0.320676
H38	H	1.394421	-0.377778	0.197038
C39	C	0.931533	0.055961	0.228689
N40	N	0.899942	0.002848	0.320578
H41	H	1.074375	0.302287	0.196991
C42	C	0.931912	0.055995	-0.229055
N43	N	0.900570	0.002887	-0.321033
H44	H	1.286841	-0.204974	0.000065
C45	C	1.085364	0.320659	-0.228810
N46	N	1.116918	0.373845	-0.320666
H47	H	1.622376	-0.245953	0.197232
C48	C	1.765880	-0.435636	0.000098
N49	N	1.869260	-0.485953	0.000166
C50	C	1.376124	-0.388572	-0.228774
N51	N	1.322945	-0.420077	-0.320640
H52	H	0.901626	0.409850	-0.000164
