data_functionalizedCrystal
_audit_creation_method	'MofGen! by Chris Wilmer'
_symmetry_space_group_name_H-M	'P1'
_symmetry_Int_Tables_number	1
_symmetry_cell_setting	triclinic
loop_
_symmetry_equiv_pos_as_xyz
  x,y,z
_cell_length_a	12.759401
_cell_length_b	12.759399
_cell_length_c	18.101389
_cell_angle_alpha	89.979990
_cell_angle_beta	89.985314
_cell_angle_gamma	90.021469
loop_
_atom_site_label
_atom_site_type_symbol
_atom_site_fract_x
_atom_site_fract_y
_atom_site_fract_z
Zn1	Zn	-1.606143	0.418394	0.418699
Zn2	Zn	-1.606024	0.594074	0.294863
Zn3	Zn	-1.430459	0.418403	0.294877
Zn4	Zn	-1.430406	0.594025	0.418668
O5	O	-1.518258	0.506224	0.356776
O6	O	-1.753148	0.441715	0.402279
O7	O	-1.582707	0.570795	0.191231
O8	O	-1.453835	0.271381	0.311321
O9	O	-1.753061	0.570786	0.311297
O10	O	-1.582909	0.271374	0.402293
O11	O	-1.453720	0.441731	0.191242
O12	O	-1.283431	0.441683	0.311291
O13	O	-1.453745	0.570703	0.522305
O14	O	-1.283392	0.570712	0.402239
O15	O	-1.582858	0.441668	0.522328
O16	O	-1.582656	0.741089	0.311267
O17	O	-1.453630	0.741053	0.402226
C18	C	-1.245291	0.506194	0.356764
C19	C	-1.128514	0.506207	0.356776
C20	C	-1.073659	0.573497	0.404054
C21	C	-0.963935	0.573506	0.404061
C22	C	-0.963930	0.438931	0.309505
C23	C	-1.073652	0.438918	0.309502
C24	C	-1.128521	0.640786	0.451327
C25	C	-1.073666	0.708083	0.498608
C26	C	-0.963942	0.708092	0.498615
C27	C	-0.909073	0.640804	0.451341
C28	C	-1.518153	0.779192	0.356757
C29	C	-1.518205	0.895968	0.356774
C30	C	-0.792291	0.506245	0.356787
C31	C	-0.909068	0.506229	0.356785
C32	C	-1.585412	1.060467	0.404204
C33	C	-1.585373	0.950743	0.404185
C34	C	-1.451079	0.950923	0.309374
C35	C	-1.451124	1.060645	0.309389
C36	C	-1.652577	1.115236	0.451623
C37	C	-1.719705	1.060289	0.499022
C38	C	-1.719666	0.950565	0.499003
C39	C	-1.652499	0.895788	0.451585
C40	C	-1.518351	1.232191	0.356807
C41	C	-1.518289	1.115414	0.356809
C42	C	-1.518309	0.506179	0.549938
C43	C	-1.518331	0.506159	0.632253
C44	C	-1.518267	0.506194	0.164366
C45	C	-1.518449	0.505917	0.082052
C46	C	-1.518371	0.506078	0.782961
C47	C	-1.437149	0.587247	0.814300
C48	C	-1.436854	0.586962	0.899919
C49	C	-1.518409	0.505999	0.931344
C50	C	-1.488763	0.395207	0.900259
C51	C	-1.488151	0.395722	0.814614
C52	C	-1.629451	0.534715	0.814526
C53	C	-1.628878	0.537112	0.900177
C54	C	-1.518433	0.505948	1.015203
C55	C	-1.518344	0.506121	0.699102
H56	H	-0.919282	0.762881	0.537119
H57	H	-1.455361	0.669105	0.920936
H58	H	-1.652481	0.806443	0.451568
H59	H	-1.774395	1.104895	0.537624
O60	O	-1.328734	0.562411	0.785806
H61	H	-1.332446	0.492506	0.749422
O62	O	-1.246865	0.640778	0.451321
H63	H	-1.275756	0.661900	0.395434
O64	O	-1.652605	1.233581	0.451616
H65	H	-1.673892	1.262506	0.395766
H66	H	-1.406966	0.371492	0.794639
O67	O	-1.132836	0.780634	0.549612
H68	H	-1.218350	0.769325	0.541666
H69	H	-1.455427	0.669669	0.793706
H70	H	-1.692613	0.482315	0.921571
H71	H	-1.354556	0.567957	0.920408
H72	H	-0.819728	0.640808	0.451357
O73	O	-1.563118	0.312848	0.787142
H74	H	-1.599642	0.272575	0.835031
H75	H	-0.919247	0.384149	0.271016
H76	H	-1.396393	0.906317	0.270768
O77	O	-1.378734	1.119930	0.258273
H78	H	-1.296252	1.098943	0.270920
O79	O	-1.564731	0.312866	0.927215
H80	H	-1.624562	0.350123	0.963143
O81	O	-1.132829	0.366351	0.258505
H82	H	-1.076249	0.319577	0.225624
O83	O	-1.382407	0.362531	0.928648
H84	H	-1.350494	0.425012	0.964889
O85	O	-1.792082	0.891294	0.550109
H86	H	-1.838791	0.947816	0.583082
H87	H	-1.656499	0.614158	0.792926
H88	H	-1.651238	0.618651	0.920491
H89	H	-1.689961	0.475592	0.794264
