data_functionalizedCrystal
_audit_creation_method	'MofGen! by Chris Wilmer'
_symmetry_space_group_name_H-M	'P1'
_symmetry_Int_Tables_number	1
_symmetry_cell_setting	triclinic
loop_
_symmetry_equiv_pos_as_xyz
  x,y,z
_cell_length_a	18.050591
_cell_length_b	12.759400
_cell_length_c	12.759393
_cell_angle_alpha	89.968436
_cell_angle_beta	90.029518
_cell_angle_gamma	89.991882
loop_
_atom_site_label
_atom_site_type_symbol
_atom_site_fract_x
_atom_site_fract_y
_atom_site_fract_z
Zn1	Zn	-1.135412	-0.418388	-0.594290
Zn2	Zn	-1.135337	-0.594107	-0.418610
Zn3	Zn	-1.011217	-0.418423	-0.418596
Zn4	Zn	-1.011209	-0.594006	-0.594218
O5	O	-1.073294	-0.506231	-0.506429
O6	O	-1.239327	-0.441726	-0.571022
O7	O	-1.118845	-0.570859	-0.271587
O8	O	-1.027726	-0.271397	-0.441926
O9	O	-1.239272	-0.570826	-0.441951
O10	O	-1.118972	-0.271372	-0.571008
O11	O	-1.027654	-0.441784	-0.271577
O12	O	-0.907291	-0.441686	-0.441856
O13	O	-1.027712	-0.570653	-0.741249
O14	O	-0.907285	-0.570686	-0.570885
O15	O	-1.118964	-0.441627	-0.741302
O16	O	-1.118837	-0.741115	-0.441881
O17	O	-1.027640	-0.741040	-0.570899
C18	C	-0.880342	-0.506180	-0.506362
C19	C	-0.797796	-0.506183	-0.506358
C20	C	-0.548952	-0.435942	-0.436340
C21	C	-0.598388	-0.410345	-0.532224
C22	C	-0.500675	-0.506214	-0.506422
C23	C	-0.598321	-0.531746	-0.410512
C24	C	-0.646660	-0.506196	-0.506386
C25	C	-0.549024	-0.480569	-0.602358
C26	C	-0.548953	-0.602014	-0.480581
C27	C	-0.598367	-0.576454	-0.576531
C28	C	-0.416577	-0.506222	-0.506442
C29	C	-0.730757	-0.506189	-0.506377
C30	C	-1.073250	-0.779198	-0.506407
C31	C	-1.073299	-0.895975	-0.506432
C32	C	-1.120838	-0.950841	-0.439327
C33	C	-1.120883	-1.060565	-0.439359
C34	C	-1.025845	-1.060547	-0.573606
C35	C	-1.025803	-0.950825	-0.573578
C36	C	-1.175705	-0.950852	-0.361818
C37	C	-1.175751	-1.060576	-0.361850
C38	C	-0.266999	-0.506265	-0.506478
C39	C	-0.349545	-0.506231	-0.506451
C40	C	-1.073346	-0.506125	-0.780462
C41	C	-1.073368	-0.506080	-0.897239
C42	C	-1.073358	-0.232198	-0.506474
C43	C	-1.073386	-0.115421	-0.506493
C44	C	-1.120889	-0.438890	-0.952130
C45	C	-1.120907	-0.438852	-1.061854
C46	C	-1.025880	-0.573203	-1.061786
C47	C	-1.025859	-0.573235	-0.952064
C48	C	-1.175755	-0.361327	-0.952170
C49	C	-1.175772	-0.361289	-1.061895
C50	C	-1.073285	-0.506261	-0.233461
C51	C	-1.073406	-0.506010	-0.116685
H52	H	-0.620088	-0.329319	-0.554085
H53	H	-1.155193	-0.283976	-1.095937
N54	N	-1.251951	-0.390187	-1.101381
H55	H	-1.272319	-0.330994	-1.145386
H56	H	-1.285882	-0.403134	-1.039808
N57	N	-1.155381	-0.253551	-0.912737
H58	H	-1.146298	-0.205433	-0.974281
H59	H	-1.108986	-0.258296	-0.868711
H60	H	-0.527223	-0.683013	-0.458704
N61	N	-1.155405	-1.100137	-0.254050
H62	H	-1.155437	-1.179294	-0.254028
H63	H	-1.192719	-1.073699	-0.201364
H64	H	-0.987198	-0.627876	-1.106438
H65	H	-0.527459	-0.458872	-0.683476
N66	N	-0.520200	-0.357186	-0.357954
H67	H	-0.538904	-0.375736	-0.285698
H68	H	-0.538189	-0.284862	-0.377692
N69	N	-1.251861	-0.911305	-0.390805
H70	H	-1.251861	-0.832148	-0.390796
H71	H	-1.289178	-0.937747	-0.338103
N72	N	-0.974615	-1.119702	-0.646022
H73	H	-1.004795	-1.165156	-0.694766
H74	H	-0.940241	-1.165234	-0.603214
H75	H	-0.619926	-0.635874	-0.635850
H76	H	-0.619978	-0.553347	-0.329417
H77	H	-0.987100	-0.906154	-0.628230
H78	H	-1.155118	-0.916901	-0.284486
N79	N	-1.248084	-0.400178	-0.907211
H80	H	-1.289842	-0.353465	-0.931654
H81	H	-1.245422	-0.398905	-0.828155
N82	N	-1.248141	-1.105565	-0.400512
H83	H	-1.283084	-1.046600	-0.419175
H84	H	-1.270964	-1.150148	-0.343628
H85	H	-0.987160	-0.627943	-0.907376
