data_functionalizedCrystal
_audit_creation_method	'MofGen! by Chris Wilmer'
_symmetry_space_group_name_H-M	'P1'
_symmetry_Int_Tables_number	1
_symmetry_cell_setting	triclinic
loop_
_symmetry_equiv_pos_as_xyz
  x,y,z
_cell_length_a	12.759401
_cell_length_b	18.215405
_cell_length_c	12.759393
_cell_angle_alpha	89.963505
_cell_angle_beta	89.979062
_cell_angle_gamma	90.026410
loop_
_atom_site_label
_atom_site_type_symbol
_atom_site_fract_x
_atom_site_fract_y
_atom_site_fract_z
Zn1	Zn	1.606192	-0.292919	-0.593976
Zn2	Zn	1.606052	-0.416003	-0.418278
Zn3	Zn	1.430491	-0.292958	-0.418311
Zn4	Zn	1.430451	-0.415951	-0.593915
O5	O	1.518296	-0.354458	-0.506120
O6	O	1.753194	-0.309251	-0.570681
O7	O	1.582721	-0.399719	-0.271261
O8	O	1.453873	-0.189968	-0.441653
O9	O	1.753091	-0.399681	-0.441596
O10	O	1.582960	-0.189940	-0.570714
O11	O	1.453737	-0.309318	-0.271286
O12	O	1.283465	-0.309268	-0.441594
O13	O	1.453806	-0.399593	-0.740944
O14	O	1.283436	-0.399631	-0.570609
O15	O	1.582922	-0.309201	-0.740989
O16	O	1.582683	-0.518980	-0.441537
O17	O	1.453670	-0.518942	-0.570577
C18	C	1.245329	-0.354449	-0.506099
C19	C	1.128552	-0.354463	-0.506115
C20	C	1.073703	-0.401586	-0.573188
C21	C	0.963979	-0.401589	-0.573209
C22	C	0.963964	-0.307343	-0.439076
C23	C	1.073686	-0.307337	-0.439061
C24	C	1.518186	-0.545664	-0.506070
C25	C	1.518234	-0.627463	-0.506083
C26	C	1.585569	-0.815652	-0.439016
C27	C	1.585616	-0.892511	-0.439041
C28	C	1.451158	-0.892511	-0.573300
C29	C	1.451118	-0.815654	-0.573279
C30	C	1.518321	-0.777226	-0.506131
C31	C	1.518409	-0.930942	-0.506178
C32	C	1.518460	-1.014276	-0.506206
C33	C	1.518272	-0.693887	-0.506104
C34	C	1.792330	-0.354467	-0.506142
C35	C	1.909106	-0.354471	-0.506151
C36	C	1.518375	-0.354387	-0.780154
C37	C	1.518409	-0.354357	-0.896930
C38	C	1.518437	-0.162505	-0.506194
C39	C	1.518496	-0.080706	-0.506225
C40	C	1.585644	-0.307283	-0.951818
C41	C	1.585662	-0.307251	-1.061542
C42	C	1.451206	-0.401374	-1.061482
C43	C	1.451183	-0.401402	-0.951760
C44	C	1.518279	-0.354475	-0.233153
C45	C	1.518449	-0.354298	-0.116377
H46	H	1.118345	-0.268958	-0.384442
O47	O	1.650789	-0.261542	-0.898442
C48	C	1.590991	-0.214011	-0.835006
H49	H	1.511352	-0.239971	-0.818541
H50	H	1.633777	-0.204164	-0.757862
H51	H	1.579489	-0.159465	-0.877317
O52	O	1.650926	-0.261421	-1.114740
C53	C	1.628001	-0.188079	-1.087965
H54	H	1.587597	-0.186576	-1.008294
H55	H	1.703851	-0.155086	-1.084231
H56	H	1.574019	-0.163268	-1.149717
O57	O	1.385728	-0.929760	-0.638468
C58	C	1.281019	-0.911065	-0.615388
H59	H	1.278836	-0.855287	-0.574982
H60	H	1.233865	-0.908418	-0.691168
H61	H	1.245684	-0.954373	-0.561352
O62	O	1.651111	-0.929734	-0.373896
C63	C	1.755782	-0.910856	-0.396997
H64	H	1.757854	-0.855035	-0.437393
H65	H	1.802948	-0.908211	-0.321228
H66	H	1.791182	-0.954057	-0.451049
H67	H	1.640292	-0.784366	-0.384341
H68	H	0.919325	-0.439960	-0.627827
O69	O	0.910501	-0.261638	-0.373974
C70	C	0.801895	-0.271733	-0.388387
H71	H	0.786894	-0.328559	-0.422642
H72	H	0.760158	-0.266672	-0.309710
H73	H	0.770812	-0.228132	-0.444459
H74	H	1.396425	-0.439735	-0.907070
O75	O	1.126839	-0.447380	-0.638429
C76	C	1.054893	-0.488984	-0.697616
H77	H	0.976698	-0.458847	-0.701339
H78	H	1.086630	-0.496900	-0.780370
H79	H	1.043174	-0.544846	-0.659001
O80	O	1.385840	-0.778403	-0.638625
C81	C	1.408769	-0.797095	-0.743365
H82	H	1.449180	-0.852875	-0.745597
H83	H	1.332920	-0.799737	-0.790406
H84	H	1.462746	-0.753788	-0.778787
O85	O	1.386011	-0.447051	-1.114908
C86	C	1.400429	-0.436922	-1.223522
H87	H	1.481530	-0.412821	-1.238531
H88	H	1.393268	-0.492036	-1.265198
H89	H	1.338148	-0.397720	-1.254666
