data_functionalizedCrystal
_audit_creation_method	'MofGen! by Chris Wilmer'
_symmetry_space_group_name_H-M	'P1'
_symmetry_Int_Tables_number	1
_symmetry_cell_setting	triclinic
loop_
_symmetry_equiv_pos_as_xyz
  x,y,z
_cell_length_a	16.109301
_cell_length_b	23.532407
_cell_length_c	15.186229
_cell_angle_alpha	89.991614
_cell_angle_beta	89.999362
_cell_angle_gamma	83.155079
loop_
_atom_site_label
_atom_site_type_symbol
_atom_site_fract_x
_atom_site_fract_y
_atom_site_fract_z
O1	O	1.102555	0.073202	-0.073182
O2	O	0.860421	0.082312	-0.073197
O3	O	0.988790	-0.005148	-0.073173
O4	O	0.974187	0.160662	-0.073206
O5	O	0.988781	-0.005149	0.073284
O6	O	0.860413	0.082311	0.073260
O7	O	1.102547	0.073201	0.073275
Zn8	Zn	0.981478	0.077755	0.096521
Zn9	Zn	0.981490	0.077757	-0.096443
O10	O	0.974178	0.160660	0.073251
C11	C	0.829445	0.081942	0.000030
C12	C	0.737159	0.080836	0.000025
C13	C	0.514498	0.130160	0.000025
C14	C	0.427786	0.129116	0.000031
C15	C	0.448476	0.025348	0.000048
C16	C	0.535187	0.026393	0.000048
C17	C	0.568195	0.078801	0.000032
C18	C	0.394773	0.076712	0.000038
C19	C	0.300755	0.075580	0.000044
C20	C	0.662218	0.079933	0.000028
C21	C	0.988414	-0.026366	0.000058
C22	C	0.987296	-0.089587	0.000064
C23	C	1.056249	-0.488436	0.000021
C24	C	1.055210	-0.547840	0.000014
O25	O	1.119130	-0.584349	-0.000015
N26	N	0.978895	-0.570748	0.000010
C27	C	0.903614	-0.534248	0.000003
O28	O	0.838607	-0.559187	-0.000002
C29	C	0.904654	-0.474845	0.000004
C30	C	0.980973	-0.451941	0.000017
C31	C	1.132562	-0.465531	0.000033
C32	C	1.133601	-0.406131	0.000041
C33	C	1.058325	-0.369636	0.000037
C34	C	0.982012	-0.392541	0.000025
C35	C	0.829373	-0.438346	-0.000009
C36	C	0.830419	-0.378940	-0.000009
C37	C	0.906739	-0.356036	0.000004
C38	C	0.907774	-0.296645	0.000030
N39	N	0.984089	-0.273738	0.000034
C40	C	1.059365	-0.310233	0.000038
C41	C	0.901437	-0.658998	0.000001
C42	C	0.900396	-0.718400	0.000007
C43	C	1.051993	-0.731988	0.000016
C44	C	1.053032	-0.672585	0.000016
C45	C	0.977752	-0.636091	0.000005
C46	C	1.061539	-0.185488	0.000056
C47	C	1.062571	-0.126082	0.000068
C48	C	0.910975	-0.112499	0.000055
C49	C	0.909943	-0.171900	0.000047
C50	C	0.985232	-0.208394	0.000045
O51	O	0.843888	-0.260102	0.000055
O52	O	1.124361	-0.285285	0.000031
C53	C	1.133523	0.073570	0.000046
C54	C	1.225809	0.074677	0.000046
C55	C	0.974554	0.181878	0.000018
C56	C	0.975672	0.245100	0.000006
N57	N	0.981477	0.077754	0.228214
N58	N	0.981498	0.077754	-0.228136
C59	C	1.038337	0.039040	0.453947
C60	C	1.038340	0.039039	0.546137
C61	C	0.924631	0.116470	0.546124
C62	C	0.924625	0.116468	0.453936
C63	C	0.981483	0.077754	0.407850
C64	C	0.981492	0.077754	0.592228
C65	C	0.981494	0.077753	0.692184
C66	C	0.981480	0.077754	0.307888
H67	H	0.578910	-0.015433	0.000057
C68	C	1.145412	-0.101184	0.000259
C69	C	1.150449	-0.067501	0.075623
C70	C	1.226751	-0.044564	0.075832
H71	H	1.149054	-0.078247	-0.050752
H72	H	1.190118	-0.131414	0.000304
H73	H	1.105756	-0.037274	0.075570
H74	H	1.146821	-0.090425	0.126645
H75	H	1.271456	-0.074794	0.075877
H76	H	1.230386	-0.021629	0.024818
H77	H	1.230182	-0.021711	0.126969
H78	H	1.084633	0.007515	0.416426
H79	H	1.084635	0.007514	0.583666
C80	C	0.863002	0.158480	0.596322
C81	C	0.875191	0.150208	0.686924
C82	C	0.818442	0.188904	0.733191
H83	H	0.807529	0.152323	0.581329
H84	H	0.871724	0.196502	0.581251
H85	H	0.866462	0.112195	0.701989
H86	H	0.930652	0.156370	0.701943
H87	H	0.827164	0.226927	0.718120
H88	H	0.762972	0.182744	0.718191
H89	H	0.826709	0.183301	0.794668
C90	C	1.216405	-0.381192	-0.000096
C91	C	1.221429	-0.347469	-0.075434
C92	C	1.297695	-0.324486	-0.075589
H93	H	1.261151	-0.411383	-0.000143
H94	H	1.219979	-0.358275	0.050950
H95	H	1.217863	-0.370385	-0.126467
H96	H	1.176701	-0.317269	-0.075403
H97	H	1.301269	-0.301569	-0.024543
H98	H	1.342435	-0.354681	-0.075634
H99	H	1.301111	-0.301598	-0.126701
C100	C	0.412685	-0.031566	0.000235
C101	C	0.439998	-0.062612	0.075598
C102	C	0.407037	-0.115043	0.075802
H103	H	0.431127	-0.052778	-0.050776
H104	H	0.353349	-0.024859	0.000278
H105	H	0.499321	-0.069322	0.075548
H106	H	0.421556	-0.041418	0.126621
H107	H	0.347702	-0.108335	0.075845
H108	H	0.425482	-0.136249	0.024789
H109	H	0.425558	-0.136111	0.126939
C110	C	0.817594	-0.743341	-0.000136
C111	C	0.812577	-0.777047	-0.075479
C112	C	0.736314	-0.800035	-0.075641
H113	H	0.772845	-0.713152	-0.000182
H114	H	0.814022	-0.766271	0.050907
H115	H	0.816141	-0.754118	-0.126509
H116	H	0.857308	-0.807245	-0.075449
H117	H	0.732742	-0.822965	-0.024598
H118	H	0.691571	-0.769843	-0.075684
H119	H	0.732903	-0.822911	-0.126755
C120	C	1.214388	-0.505054	0.000086
C121	C	1.281432	-0.472268	0.000118
C122	C	1.356827	-0.508652	0.000187
H123	H	1.217268	-0.528520	-0.050970
H124	H	1.217179	-0.528504	0.051182
H125	H	1.278642	-0.448828	-0.050972
H126	H	1.278579	-0.448803	0.051171
H127	H	1.359618	-0.532102	0.051283
H128	H	1.359699	-0.532117	-0.050870
H129	H	1.402325	-0.486412	0.000217
H130	H	0.878323	0.147994	0.416402
H131	H	0.541371	0.172834	0.000019
H132	H	1.122847	-0.215195	0.000051
H133	H	0.384069	0.170939	0.000027
H134	H	1.115179	-0.653941	0.000026
C135	C	1.133699	-0.771645	-0.000173
C136	C	1.137532	-0.806123	-0.075539
C137	C	1.212786	-0.842657	-0.075750
H138	H	1.136524	-0.795163	0.050836
H139	H	1.179327	-0.749519	-0.000218
H140	H	1.091917	-0.828247	-0.075486
H141	H	1.134722	-0.782621	-0.126561
H142	H	1.258414	-0.820531	-0.075795
H143	H	1.215605	-0.866171	-0.024738
H144	H	1.215401	-0.866051	-0.126888
H145	H	0.840130	-0.629287	-0.000001
H146	H	0.767225	-0.456984	-0.000025
H147	H	0.769115	-0.349228	-0.000019
C148	C	0.826997	-0.196661	-0.000010
C149	C	0.761298	-0.151982	-0.000031
C150	C	0.684876	-0.174765	-0.000107
H151	H	0.823313	-0.219554	0.051040
H152	H	0.823403	-0.219523	-0.051112
H153	H	0.764890	-0.129129	0.051066
H154	H	0.764954	-0.129085	-0.051077
H155	H	0.681281	-0.197628	-0.051209
H156	H	0.681200	-0.197658	0.050944
H157	H	0.640289	-0.144455	-0.000129
H158	H	0.849688	-0.082774	0.000055
