data_functionalizedCrystal
_audit_creation_method	'MofGen! by Chris Wilmer'
_symmetry_space_group_name_H-M	'P1'
_symmetry_Int_Tables_number	1
_symmetry_cell_setting	triclinic
loop_
_symmetry_equiv_pos_as_xyz
  x,y,z
_cell_length_a	27.732048
_cell_length_b	16.109301
_cell_length_c	15.186229
_cell_angle_alpha	90.005167
_cell_angle_beta	90.002148
_cell_angle_gamma	96.947932
loop_
_atom_site_label
_atom_site_type_symbol
_atom_site_fract_x
_atom_site_fract_y
_atom_site_fract_z
O1	O	0.641340	-0.098925	-0.073118
O2	O	0.500610	-0.113967	-0.073145
O3	O	0.574841	0.014633	-0.073122
O4	O	0.567109	-0.227525	-0.073141
O5	O	0.574836	0.014634	0.073335
O6	O	0.500605	-0.113965	0.073312
O7	O	0.641335	-0.098924	0.073339
Zn8	Zn	0.570969	-0.106444	0.096579
Zn9	Zn	0.570976	-0.106446	-0.096385
O10	O	0.567104	-0.227523	0.073316
C11	C	0.482599	-0.113650	0.000080
C12	C	0.428940	-0.112700	0.000070
N13	N	0.570969	-0.106442	0.228272
C14	C	0.574526	0.045605	0.000107
C15	C	0.573586	0.137888	0.000108
C16	C	0.090418	-0.182708	0.000103
C17	C	-0.111256	-0.179181	0.000111
O18	O	-0.142244	-0.243198	0.000144
N19	N	-0.130699	-0.102926	0.000115
C20	C	-0.099720	-0.027548	0.000124
O21	O	-0.120885	0.037392	0.000137
C22	C	0.101954	-0.031077	0.000122
C23	C	0.121393	-0.107336	0.000108
C24	C	0.109859	-0.258961	0.000090
C25	C	0.160274	-0.259842	0.000083
C26	C	0.191250	-0.184470	0.000089
C27	C	0.171809	-0.108217	0.000102
C28	C	0.132932	0.044300	0.000137
C29	C	0.183353	0.043411	0.000138
C30	C	0.202793	-0.032848	0.000125
C31	C	0.253200	-0.033726	0.000100
N32	N	0.272643	-0.109981	0.000096
C33	C	0.241668	-0.185353	0.000090
C34	C	-0.205602	-0.025701	0.000123
C35	C	-0.256020	-0.024819	0.000122
C36	C	-0.267553	-0.176451	0.000111
C37	C	-0.217134	-0.177333	0.000106
C38	C	-0.186159	-0.101956	0.000118
C39	C	0.347545	-0.187197	0.000075
C40	C	0.397965	-0.188072	0.000065
C41	C	0.409494	-0.036440	0.000080
C42	C	0.359077	-0.035565	0.000086
C43	C	0.328104	-0.110950	0.000087
O44	O	0.284216	0.030257	0.000077
O45	O	0.262842	-0.250283	0.000097
C46	C	0.040003	-0.181827	0.000110
C47	C	0.020562	-0.105574	0.000122
C48	C	0.051537	-0.030202	0.000128
C49	C	-0.029856	-0.104692	0.000121
C50	C	-0.060831	-0.180064	0.000115
C51	C	-0.041388	-0.256318	0.000111
C52	C	0.009027	-0.257199	0.000104
C53	C	0.032095	0.046052	0.000132
C54	C	-0.018322	0.046927	0.000138
C55	C	-0.049297	-0.028445	0.000133
C56	C	0.659346	-0.099240	0.000112
C57	C	0.713005	-0.100191	0.000116
C58	C	0.567420	-0.258495	0.000085
C59	C	0.568359	-0.350779	0.000078
C60	C	0.615450	0.360679	0.000102
C61	C	0.614564	0.447388	0.000095
C62	C	0.526492	0.426424	0.000082
C63	C	0.527378	0.339716	0.000083
C64	C	0.571859	0.306846	0.000098
C65	C	0.570086	0.480263	0.000089
C66	C	0.569125	0.574277	0.000081
C67	C	0.572820	0.212826	0.000104
N68	N	0.570981	-0.106442	-0.228077
C69	C	0.603849	-0.049517	0.454005
C70	C	0.603851	-0.049515	0.546194
C71	C	0.538096	-0.163370	0.546183
C72	C	0.538093	-0.163367	0.453995
C73	C	0.570972	-0.106442	0.407908
C74	C	0.570977	-0.106442	0.592286
C75	C	0.570979	-0.106441	0.692242
C76	C	0.570970	-0.106442	0.307946
H77	H	0.322331	-0.248584	0.000078
H78	H	-0.180386	0.035684	0.000134
H79	H	0.511318	-0.209722	0.416461
C80	C	0.662514	0.506605	0.000097
H81	H	0.655617	0.562953	0.000083
H82	H	0.680754	0.496711	0.051172
H83	H	0.680751	0.496691	-0.050981
C84	C	-0.039702	0.130816	0.000147
H85	H	-0.074166	0.120555	0.000144
H86	H	-0.029064	0.161821	0.051222
H87	H	-0.029071	0.161820	-0.050930
H88	H	0.084643	-0.320342	0.000089
C89	C	0.477567	0.462584	0.000077
H90	H	0.483281	0.521934	0.000087
H91	H	0.459617	0.444064	-0.050996
H92	H	0.459621	0.444069	0.051156
H93	H	0.117113	0.106398	0.000148
C94	C	0.640015	0.013101	0.596901
H95	H	0.635305	0.004955	0.658406
H96	H	0.672271	0.004456	0.581793
H97	H	0.634771	0.068529	0.581796
C98	C	0.479425	0.280496	0.000080
H99	H	0.452807	0.312489	0.000084
H100	H	0.477942	0.246230	-0.050992
H101	H	0.477942	0.246242	0.051160
H102	H	0.511328	-0.209718	0.583716
C103	C	0.640010	0.013105	0.403312
H104	H	0.659587	0.047013	0.443973
H105	H	0.660125	-0.016558	0.367343
H106	H	0.622623	0.047511	0.367358
H107	H	0.176097	-0.321940	0.000072
C108	C	0.419346	-0.271960	0.000055
H109	H	0.393675	-0.316720	0.000062
H110	H	0.438772	-0.275461	-0.051020
H111	H	0.438776	-0.275455	0.051133
C112	C	-0.195754	-0.261217	0.000098
H113	H	-0.221427	-0.305975	0.000099
H114	H	-0.176325	-0.264718	-0.050972
H115	H	-0.176328	-0.264715	0.051180
H116	H	-0.066617	-0.317688	0.000103
H117	H	0.343249	0.026532	0.000084
C118	C	-0.301631	-0.259359	0.000111
H119	H	-0.334441	-0.247904	0.000119
H120	H	-0.295744	-0.290666	-0.050960
H121	H	-0.295739	-0.290646	0.051193
C122	C	0.443570	0.046465	0.000082
H123	H	0.424774	0.092011	0.000082
H124	H	0.463481	0.049269	0.051152
H125	H	0.463474	0.049267	-0.051000
C126	C	-0.277401	0.059064	0.000121
H127	H	-0.311865	0.048802	0.000112
H128	H	-0.266765	0.090072	0.051195
H129	H	-0.266767	0.090064	-0.050957
C130	C	0.217424	0.126326	0.000150
H131	H	0.250237	0.114886	0.000152
H132	H	0.211528	0.157624	-0.050916
H133	H	0.211532	0.157616	0.051236
C134	C	0.030405	-0.341085	0.000098
H135	H	0.004731	-0.385841	0.000104
H136	H	0.049832	-0.344591	-0.050974
H137	H	0.049833	-0.344583	0.051178
H138	H	0.651670	0.333920	0.000113
C139	C	0.066161	0.128966	0.000131
H140	H	0.047356	0.174501	0.000128
H141	H	0.086075	0.131786	0.051199
H142	H	0.086063	0.131773	-0.050953
