data_functionalizedCrystal
_audit_creation_method	'MofGen! by Chris Wilmer'
_symmetry_space_group_name_H-M	'P1'
_symmetry_Int_Tables_number	1
_symmetry_cell_setting	triclinic
loop_
_symmetry_equiv_pos_as_xyz
  x,y,z
_cell_length_a	29.839134
_cell_length_b	19.805405
_cell_length_c	19.805399
_cell_angle_alpha	90.029301
_cell_angle_beta	89.971645
_cell_angle_gamma	89.978729
loop_
_atom_site_label
_atom_site_type_symbol
_atom_site_fract_x
_atom_site_fract_y
_atom_site_fract_z
Zn1	Zn	0.686795	0.269572	-0.382870
Zn2	Zn	0.686738	0.382760	-0.269678
Zn3	Zn	0.611669	0.269580	-0.269677
Zn4	Zn	0.611645	0.382714	-0.382808
O5	O	0.649212	0.326156	-0.326258
O6	O	0.749654	0.284602	-0.367882
O7	O	0.676767	0.367769	-0.174962
O8	O	0.621669	0.174862	-0.284718
O9	O	0.749613	0.367761	-0.284720
O10	O	0.676863	0.174856	-0.367880
O11	O	0.621614	0.284617	-0.174961
O12	O	0.548799	0.284572	-0.284658
O13	O	0.621627	0.367682	-0.477533
O14	O	0.548781	0.367691	-0.367774
O15	O	0.676840	0.284557	-0.477578
O16	O	0.676743	0.477470	-0.284660
O17	O	0.621572	0.477437	-0.367775
C18	C	0.532489	0.326128	-0.326210
C19	C	0.482555	0.326132	-0.326205
C20	C	0.649161	0.502012	-0.326226
C21	C	0.649181	0.577244	-0.326234
C22	C	0.649237	0.326114	-0.502801
C23	C	0.649248	0.326096	-0.578033
C24	C	0.172912	0.369500	-0.369484
C25	C	-0.014761	0.369519	-0.369514
O26	O	-0.039026	0.406361	-0.406283
N27	N	-0.038230	0.326181	-0.326309
C28	C	-0.014778	0.282832	-0.283097
O29	O	-0.039046	0.245966	-0.246354
C30	C	0.172894	0.282810	-0.283071
C31	C	0.196361	0.326156	-0.326274
C32	C	0.196378	0.412842	-0.412684
C33	C	0.243294	0.412840	-0.412673
C34	C	0.266743	0.369495	-0.369463
C35	C	0.243276	0.326153	-0.326263
C36	C	0.196346	0.239458	-0.239863
C37	C	0.243267	0.239455	-0.239861
C38	C	0.266733	0.282801	-0.283064
C39	C	0.313641	0.282806	-0.283042
N40	N	0.337109	0.326144	-0.326247
C41	C	0.313660	0.369489	-0.369457
C42	C	-0.113309	0.282848	-0.283113
C43	C	-0.160226	0.282854	-0.283119
C44	C	-0.160207	0.369541	-0.369537
C45	C	-0.113288	0.369537	-0.369527
C46	C	-0.089840	0.326186	-0.326318
C47	C	0.412186	0.369481	-0.369432
C48	C	0.459106	0.369476	-0.369415
C49	C	0.459082	0.282787	-0.283000
C50	C	0.412166	0.282794	-0.283013
C51	C	0.388720	0.326143	-0.326235
O52	O	0.337934	0.245978	-0.246298
O53	O	0.337936	0.406339	-0.406205
C54	C	0.125996	0.369503	-0.369495
C55	C	0.102530	0.326161	-0.326295
C56	C	0.125979	0.282817	-0.283084
C57	C	0.055612	0.326167	-0.326300
C58	C	0.032163	0.369512	-0.369511
C59	C	0.055632	0.412850	-0.412716
C60	C	0.102547	0.412847	-0.412705
C61	C	0.102510	0.239478	-0.239880
C62	C	0.055594	0.239485	-0.239893
C63	C	0.032145	0.282830	-0.283104
C64	C	0.766390	0.326186	-0.326308
C65	C	0.816325	0.326198	-0.326329
C66	C	0.649275	0.149614	-0.326306
C67	C	0.649302	0.074382	-0.326326
C68	C	0.677936	0.612584	-0.283001
C69	C	0.677955	0.683272	-0.283016
C70	C	0.649216	0.718620	-0.326261
C71	C	0.620460	0.683276	-0.369499
C72	C	0.620443	0.612589	-0.369487
C73	C	0.620526	0.968349	-0.369549
C74	C	0.620544	1.039041	-0.369557
C75	C	0.678038	1.039033	-0.283079
C76	C	0.678021	0.968345	-0.283066
C77	C	0.649267	0.933007	-0.326306
C78	C	0.649247	0.856359	-0.326291
C79	C	0.649233	0.795267	-0.326274
C80	C	0.677997	0.282810	-0.613402
C81	C	0.678002	0.282791	-0.684091
C82	C	0.649259	0.326060	-0.719409
C83	C	0.620506	0.369348	-0.684035
C84	C	0.620500	0.369363	-0.613348
C85	C	0.620531	0.369284	-0.969108
C86	C	0.620541	0.369267	-1.039801
C87	C	0.678034	0.282712	-1.039851
C88	C	0.678027	0.282727	-0.969164
C89	C	0.649273	0.326012	-0.933796
C90	C	0.649268	0.326032	-0.857148
C91	C	0.649266	0.326044	-0.796056
C92	C	0.649213	0.326150	-0.150402
C93	C	0.649289	0.325978	-0.075171
H94	H	0.393101	0.404778	-0.404628
H95	H	0.177291	0.448139	-0.447875
O96	O	0.592487	0.578185	-0.411390
C97	C	0.563468	0.537365	-0.372804
H98	H	0.579329	0.526790	-0.321533
H99	H	0.557426	0.487647	-0.400358
H100	H	0.530184	0.564648	-0.365318
H101	H	0.036531	0.448145	-0.447897
H102	H	0.393059	0.247499	-0.247833
O103	O	0.266064	0.454869	-0.454745
C104	C	0.254613	0.440169	-0.522227
H105	H	0.241732	0.386099	-0.525736
H106	H	0.285476	0.446042	-0.555661
H107	H	0.227374	0.476476	-0.539853
O108	O	0.592626	0.411513	-0.579014
C109	C	0.602418	0.478969	-0.596285
H110	H	0.638307	0.482385	-0.615742
H111	H	0.598538	0.512417	-0.549785
H112	H	0.578328	0.496652	-0.637293
H113	H	0.701453	1.067813	-0.247873
H114	H	0.262356	0.204148	-0.204678
H115	H	0.597112	0.939582	-0.404755
O116	O	0.705934	0.240714	-0.579202
C117	C	0.731317	0.202516	-0.625581
H118	H	0.712920	0.200158	-0.675960
H119	H	0.736126	0.149193	-0.605177
H120	H	0.765429	0.227309	-0.633111
H121	H	0.597062	0.712062	-0.404713
H122	H	0.597124	0.404539	-0.940320
O123	O	0.592613	1.073274	-0.411635
C124	C	0.567223	1.026927	-0.449788
H125	H	0.585610	0.976516	-0.452154
H126	H	0.562419	1.047325	-0.503111
H127	H	0.533109	1.019464	-0.424951
O128	O	0.481796	0.240665	-0.240960
C129	C	0.451026	0.202395	-0.202839
H130	H	0.417573	0.230112	-0.200447
H131	H	0.464565	0.195106	-0.149522
H132	H	0.446060	0.151022	-0.227719
O133	O	-0.182940	0.411610	-0.411609
C134	C	-0.171457	0.396885	-0.479094
H135	H	-0.137384	0.370870	-0.480539
H136	H	-0.169855	0.445769	-0.509363
H137	H	-0.197845	0.362110	-0.501949
H138	H	0.036492	0.204188	-0.204706
O139	O	0.481831	0.411605	-0.411450
C140	C	0.451070	0.449870	-0.449579
H141	H	0.417633	0.422149	-0.451977
H142	H	0.464645	0.457160	-0.502893
H143	H	0.446057	0.501244	-0.424701
H144	H	0.701414	0.247545	-0.712885
O145	O	0.705962	0.240631	-0.934962
C146	C	0.731347	0.202432	-0.981338
H147	H	0.712952	0.200073	-1.031718
H148	H	0.736155	0.149109	-0.960932
H149	H	0.765459	0.227223	-0.988866
H150	H	0.701370	0.712042	-0.247811
H151	H	0.701445	0.247465	-1.068656
O152	O	-0.182949	0.240689	-0.241124
C153	C	-0.152186	0.202445	-0.202977
H154	H	-0.118731	0.200139	-0.230704
H155	H	-0.165731	0.149107	-0.195855
H156	H	-0.147220	0.227163	-0.151526
O157	O	0.592574	0.411320	-1.074005
C158	C	0.567200	0.449539	-1.027632
H159	H	0.565648	0.421827	-0.977250
H160	H	0.531804	0.456739	-1.048040
H161	H	0.583628	0.500953	-1.020108
O162	O	0.592649	0.411451	-0.718372
C163	C	0.618213	0.455155	-0.759273
H164	H	0.653593	0.459351	-0.737987
H165	H	0.601946	0.507239	-0.760052
H166	H	0.619775	0.434216	-0.812852
O167	O	-0.090445	0.411545	-0.411532
C168	C	-0.063293	0.373063	-0.455331
H169	H	-0.056260	0.321738	-0.431552
H170	H	-0.030303	0.400643	-0.464354
H171	H	-0.081358	0.365693	-0.505502
H172	H	-0.094221	0.247545	-0.247923
O173	O	0.173627	0.197283	-0.197877
C174	C	0.204394	0.159040	-0.159735
H175	H	0.237849	0.156743	-0.187463
H176	H	0.190853	0.105698	-0.152621
H177	H	0.209359	0.183751	-0.108281
O178	O	0.125270	0.454972	-0.454740
C179	C	0.094504	0.493236	-0.492863
H180	H	0.061068	0.465513	-0.495255
H181	H	0.108075	0.500526	-0.546179
H182	H	0.089492	0.544610	-0.467985
H183	H	0.701336	0.583808	-0.247783
O184	O	0.125215	0.197351	-0.197838
C185	C	0.094435	0.159092	-0.159724
H186	H	0.060985	0.186819	-0.157346
H187	H	0.107965	0.151802	-0.106403
H188	H	0.089466	0.107719	-0.184603
H189	H	0.701422	0.939567	-0.247850
