data_functionalizedCrystal
_audit_creation_method	'MofGen! by Chris Wilmer'
_symmetry_space_group_name_H-M	'P1'
_symmetry_Int_Tables_number	1
_symmetry_cell_setting	triclinic
loop_
_symmetry_equiv_pos_as_xyz
  x,y,z
_cell_length_a	10.489716
_cell_length_b	10.489741
_cell_length_c	10.268362
_cell_angle_alpha	89.995004
_cell_angle_beta	89.995798
_cell_angle_gamma	84.534155
loop_
_atom_site_label
_atom_site_type_symbol
_atom_site_fract_x
_atom_site_fract_y
_atom_site_fract_z
O1	O	1.694072	0.179820	-0.108289
O2	O	1.322872	0.196745	-0.108294
O3	O	1.516919	0.002684	-0.108284
O4	O	1.500026	0.373881	-0.108299
O5	O	1.516902	0.002676	0.108317
O6	O	1.322855	0.196737	0.108307
O7	O	1.694055	0.179812	0.108312
Cu8	Cu	1.508453	0.188274	0.128087
Cu9	Cu	1.508474	0.188283	-0.128069
O10	O	1.500009	0.373873	0.108301
C11	C	1.275332	0.195470	0.000006
C12	C	1.133701	0.191665	0.000004
C13	C	1.036027	0.310669	-0.000004
C14	C	0.958672	0.247781	0.106800
C15	C	0.958696	0.247761	-0.106751
C16	C	1.058212	0.128826	0.106896
C17	C	1.058240	0.128823	-0.106751
C18	C	0.980935	0.065848	0.000079
C19	C	1.515634	-0.044852	0.000016
C20	C	1.511817	-0.186481	0.000014
C21	C	1.388351	-0.254610	0.000002
C22	C	1.446667	-0.346742	0.106799
C23	C	1.446713	-0.346708	-0.106753
C24	C	1.570184	-0.276747	0.106898
C25	C	1.570212	-0.276704	-0.106749
C26	C	1.628618	-0.368808	0.000073
C27	C	1.741596	0.181087	0.000009
C28	C	1.883227	0.184892	0.000002
C29	C	1.501293	0.421409	-0.000001
C30	C	1.505110	0.563038	-0.000007
N31	N	1.508449	0.188266	0.308252
N32	N	1.508489	0.188281	-0.308235
C33	C	1.508467	0.188281	0.573923
C34	C	1.508453	0.188276	0.426085
H35	H	1.060696	0.414185	0.000091
F36	F	1.255667	-0.189702	0.000135
H37	H	1.394418	-0.377752	0.197086
H38	H	0.915219	0.298025	-0.197032
F39	F	1.761420	-0.433424	0.000148
F40	F	0.901826	0.313437	0.224814
F41	F	1.378411	-0.387198	-0.224759
F42	F	1.638402	-0.236464	0.225042
H43	H	1.622416	-0.245661	-0.197041
F44	F	0.948993	-0.069550	0.000166
F45	F	1.114814	0.063198	0.225037
H46	H	1.101743	0.078629	-0.197044
