data_functionalizedCrystal
_audit_creation_method	'MofGen! by Chris Wilmer'
_symmetry_space_group_name_H-M	'P1'
_symmetry_Int_Tables_number	1
_symmetry_cell_setting	triclinic
loop_
_symmetry_equiv_pos_as_xyz
  x,y,z
_cell_length_a	12.759401
_cell_length_b	12.759399
_cell_length_c	12.759393
_cell_angle_alpha	89.968020
_cell_angle_beta	89.981504
_cell_angle_gamma	90.015277
loop_
_atom_site_label
_atom_site_type_symbol
_atom_site_fract_x
_atom_site_fract_y
_atom_site_fract_z
Zn1	Zn	1.606252	-0.418200	-0.593978
Zn2	Zn	1.606145	-0.593919	-0.418297
Zn3	Zn	1.430554	-0.418255	-0.418318
Zn4	Zn	1.430542	-0.593838	-0.593939
O5	O	1.518373	-0.506053	-0.506133
O6	O	1.753259	-0.441520	-0.570682
O7	O	1.582813	-0.570673	-0.271279
O8	O	1.453911	-0.271227	-0.441645
O9	O	1.753181	-0.570620	-0.441610
O10	O	1.582996	-0.271186	-0.570702
O11	O	1.453807	-0.441614	-0.271294
O12	O	1.283532	-0.441535	-0.441606
O13	O	1.453890	-0.570482	-0.740965
O14	O	1.283522	-0.570536	-0.570634
O15	O	1.582983	-0.441442	-0.740994
O16	O	1.582801	-0.740929	-0.441571
O17	O	1.453786	-0.740870	-0.570614
C18	C	1.245406	-0.506033	-0.506119
C19	C	1.128629	-0.506050	-0.506138
C20	C	1.073790	-0.573328	-0.573211
C21	C	0.964066	-0.573342	-0.573223
C22	C	0.964030	-0.438796	-0.439078
C23	C	1.073752	-0.438778	-0.439072
C24	C	1.073810	-0.651010	-0.650656
C25	C	0.964086	-0.651024	-0.650667
C26	C	1.518309	-0.779020	-0.506109
C27	C	1.518378	-0.895797	-0.506134
C28	C	1.585633	-0.950655	-0.439018
C29	C	1.585700	-1.060379	-0.439053
C30	C	1.451249	-1.060377	-0.573324
C31	C	1.451187	-0.950655	-0.573293
C32	C	1.709709	-1.210258	-0.401662
C33	C	1.776955	-1.265120	-0.334530
C34	C	1.793120	-1.229581	-0.232019
C35	C	1.742023	-1.139183	-0.196620
C36	C	1.674770	-1.084327	-0.263747
C37	C	1.658625	-1.119864	-0.366273
C38	C	1.327177	-0.800774	-0.610673
C39	C	1.259917	-0.745916	-0.677795
C40	C	1.243742	-0.781452	-0.780308
C41	C	1.294820	-0.871854	-0.815703
C42	C	1.362079	-0.926712	-0.748580
C43	C	1.378256	-0.891168	-0.646069
C44	C	1.792407	-0.506073	-0.506148
C45	C	1.909183	-0.506082	-0.506154
C46	C	1.518447	-0.505947	-0.780166
C47	C	1.518478	-0.505902	-0.896943
C48	C	1.518467	-0.232019	-0.506180
C49	C	1.518506	-0.115243	-0.506200
C50	C	1.585707	-0.438704	-0.951822
C51	C	1.585732	-0.438666	-1.061546
C52	C	1.451297	-0.573033	-1.061503
C53	C	1.451267	-0.573064	-0.951781
C54	C	1.663325	-0.361131	-0.951848
C55	C	1.663350	-0.361093	-1.061572
C56	C	1.518361	-0.506083	-0.233166
C57	C	1.518533	-0.505832	-0.116389
H58	H	1.640345	-0.905992	-0.384334
H59	H	1.744720	-0.382886	-1.091350
C60	C	1.114085	-0.621722	-0.760637
N61	N	1.144419	-0.599672	-0.843476
H62	H	1.755182	-1.110261	-0.113142
H63	H	1.818558	-1.338722	-0.363361
H64	H	1.696564	-1.239195	-0.485138
H65	H	1.188970	-0.736777	-0.834957
C66	C	1.119766	-0.755374	-0.611097
N67	N	1.154380	-0.833982	-0.581299
H68	H	1.396543	-1.105056	-0.628001
C69	C	1.134072	-0.364759	-0.365295
N70	N	1.179504	-0.309004	-0.309723
C71	C	1.618572	-0.984890	-0.224817
N72	N	1.576251	-0.909987	-0.195494
H73	H	1.396520	-0.627780	-0.907102
C74	C	0.923828	-0.760918	-0.621029
N75	N	0.893506	-0.843687	-0.598703
H76	H	1.340350	-0.771826	-0.527201
H77	H	1.281650	-0.900788	-0.899177
H78	H	0.919336	-0.384025	-0.384476
H79	H	1.403674	-1.000319	-0.777409
C80	C	1.377367	-0.646906	-1.121834
N81	N	1.321682	-0.702549	-1.167275
H82	H	0.930088	-0.621980	-0.728019
H83	H	1.740597	-0.390300	-0.917812
C84	C	1.867034	-1.289976	-0.158152
N85	N	1.922689	-1.335482	-0.102512
H86	H	1.218333	-0.672302	-0.648970
H87	H	1.634237	-0.283784	-1.095621
C88	C	1.633909	-0.251217	-0.911645
N89	N	1.611751	-0.168431	-0.881364
