data_functionalizedCrystal
_audit_creation_method	'MofGen! by Chris Wilmer'
_symmetry_space_group_name_H-M	'P1'
_symmetry_Int_Tables_number	1
_symmetry_cell_setting	triclinic
loop_
_symmetry_equiv_pos_as_xyz
  x,y,z
_cell_length_a	15.944545
_cell_length_b	15.944551
_cell_length_c	9.730223
_cell_angle_alpha	89.997716
_cell_angle_beta	90.002580
_cell_angle_gamma	83.497455
loop_
_atom_site_label
_atom_site_type_symbol
_atom_site_fract_x
_atom_site_fract_y
_atom_site_fract_z
O1	O	1.114523	0.108303	-0.114204
O2	O	0.869972	0.121665	-0.114227
O3	O	0.998926	-0.007291	-0.114202
O4	O	0.985569	0.237259	-0.114228
O5	O	0.998924	-0.007288	0.114378
O6	O	0.869971	0.121668	0.114353
O7	O	1.114521	0.108307	0.114376
Zn8	Zn	0.992246	0.114988	0.150657
Zn9	Zn	0.992248	0.114984	-0.150507
O10	O	0.985568	0.237262	0.114352
C11	C	0.838677	0.121113	0.000061
C12	C	0.745431	0.119453	0.000052
C13	C	0.998370	-0.038583	0.000088
C14	C	0.996708	-0.131829	0.000089
C15	C	0.474798	0.034559	0.000076
C16	C	0.525379	0.075490	0.112777
C17	C	0.409787	0.113532	0.000077
C18	C	0.525361	0.075508	-0.112585
C19	C	0.574701	0.116437	0.000062
C20	C	0.459140	0.154441	0.112870
C21	C	0.459119	0.154448	-0.112593
C22	C	0.509667	0.195436	0.000136
C23	C	0.314785	0.111856	0.000086
C24	C	0.669700	0.118119	0.000063
C25	C	0.912803	-0.346684	0.000062
C26	C	0.951765	-0.407700	0.112769
C27	C	0.993701	-0.302555	0.000078
C28	C	0.951786	-0.407687	-0.112593
C29	C	0.990790	-0.467468	0.000061
C30	C	1.032685	-0.362343	0.112878
C31	C	1.032694	-0.362324	-0.112585
C32	C	1.071715	-0.423322	0.000150
C33	C	0.995375	-0.207553	0.000088
C34	C	0.989122	-0.562469	0.000060
C35	C	1.145816	0.108859	0.000086
C36	C	1.239062	0.110519	0.000085
C37	C	0.986123	0.268555	0.000059
C38	C	0.987785	0.361801	0.000049
N39	N	0.992250	0.114990	0.356193
N40	N	0.992250	0.114975	-0.356044
C41	C	1.049366	0.057908	0.428130
C42	C	1.049363	0.057898	0.572013
C43	C	0.935128	0.172060	0.572010
C44	C	0.935127	0.172065	0.428129
C45	C	1.115321	-0.008000	0.428133
C46	C	1.115319	-0.008011	0.572016
H47	H	0.459145	-0.033453	0.000193
H48	H	1.138922	-0.456483	0.000220
C49	C	0.530603	0.287386	0.000217
N50	N	0.546376	0.356642	0.000286
H51	H	0.430173	0.187770	-0.207883
C52	C	1.078867	-0.335339	0.241750
N53	N	1.113647	-0.314996	0.338818
C54	C	1.096694	-0.095055	0.375373
N55	N	1.082662	-0.160622	0.335635
H56	H	1.066882	-0.342195	-0.207869
H57	H	0.430330	0.187770	0.208252
C58	C	0.872361	0.234924	0.349004
N59	N	0.825108	0.282298	0.289407
H60	H	0.888620	0.218528	0.630595
C61	C	1.202335	0.010741	0.624784
N62	N	1.267865	0.024889	0.664528
C63	C	1.197476	0.018919	0.367843
N64	N	1.259356	0.039194	0.322431
H65	H	1.095438	-0.068848	0.616636
H66	H	0.554310	0.042138	0.208064
C67	C	0.822092	-0.301678	0.000207
N68	N	0.753771	-0.267776	0.000326
C69	C	0.564425	0.030432	-0.241300
N70	N	0.593845	-0.003524	-0.338243
H71	H	0.917548	-0.427807	0.208048
H72	H	0.917559	-0.427765	-0.207885
