data_functionalizedCrystal
_audit_creation_method	'MofGen! by Chris Wilmer'
_symmetry_space_group_name_H-M	'P1'
_symmetry_Int_Tables_number	1
_symmetry_cell_setting	triclinic
loop_
_symmetry_equiv_pos_as_xyz
  x,y,z
_cell_length_a	15.944551
_cell_length_b	10.654541
_cell_length_c	9.130307
_cell_angle_alpha	90.000178
_cell_angle_beta	89.995755
_cell_angle_gamma	96.008667
loop_
_atom_site_label
_atom_site_type_symbol
_atom_site_fract_x
_atom_site_fract_y
_atom_site_fract_z
O1	O	0.117965	-1.666312	-0.121758
O2	O	0.129208	-1.300688	-0.121771
O3	O	0.001369	-1.493485	-0.121751
O4	O	0.245804	-1.473516	-0.121778
O5	O	0.001368	-1.493478	0.121848
O6	O	0.129206	-1.300682	0.121828
O7	O	0.117964	-1.666306	0.121841
Cu8	Cu	0.123585	-1.483493	0.144077
Cu9	Cu	0.123587	-1.483501	-0.144007
O10	O	0.245802	-1.473509	0.121821
C11	C	-0.029930	-1.492652	0.000049
C12	C	-0.123190	-1.490167	0.000049
C13	C	0.128382	-1.253897	0.000027
C14	C	0.125914	-1.114486	0.000022
C15	C	0.118790	-1.713097	0.000040
C16	C	0.121258	-1.852508	0.000035
C17	C	-0.338772	-1.364722	0.000025
C18	C	-0.399453	-1.422972	0.120136
C19	C	-0.293942	-1.485671	0.000038
C20	C	-0.399435	-1.423006	-0.120034
C21	C	-0.458880	-1.481319	0.000021
C22	C	-0.353395	-1.543954	0.120248
C23	C	-0.353371	-1.543971	-0.120029
C24	C	-0.414034	-1.602309	0.000111
C25	C	-0.198925	-1.488175	0.000049
C26	C	-0.553896	-1.478825	0.000020
C27	C	0.277102	-1.474342	0.000018
C28	C	0.370362	-1.476827	0.000008
N29	N	0.123584	-1.483497	0.346700
C30	C	0.278779	-1.084537	-0.000013
C31	C	0.354048	-1.004069	-0.000036
C32	C	0.351724	-0.873081	-0.000038
C33	C	0.274122	-0.822560	-0.000011
C34	C	0.198852	-0.903028	0.000012
C35	C	0.201185	-1.034017	0.000009
C36	C	0.045989	-0.932976	0.000058
C37	C	0.048311	-1.063965	0.000049
C38	C	-0.031613	-0.882455	0.000085
C39	C	-0.106885	-0.962924	0.000098
C40	C	-0.104557	-1.093919	0.000097
C41	C	-0.026958	-1.144433	0.000072
N42	N	0.123582	-1.483507	-0.346630
C43	C	0.010416	-1.654288	0.346708
C44	C	-0.046165	-1.739692	0.423378
C45	C	-0.046166	-1.739704	0.576712
C46	C	0.010420	-1.654301	0.653378
C47	C	0.067001	-1.568898	0.576707
C48	C	0.066997	-1.568897	0.423370
C49	C	0.180163	-1.398103	0.576699
C50	C	0.180169	-1.398094	0.423366
C51	C	0.236748	-1.312700	0.653366
C52	C	0.293335	-1.227301	0.576695
C53	C	0.293334	-1.227292	0.423352
C54	C	0.236750	-1.312691	0.346695
H55	H	-0.306045	-1.264329	0.000141
C56	C	-0.108405	-1.833631	0.339051
H57	H	-0.142106	-1.884487	0.406675
H58	H	-0.077861	-1.885895	0.279224
H59	H	-0.143660	-1.788453	0.279248
C60	C	0.355570	-1.133372	0.661027
H61	H	0.347466	-1.145612	0.763327
H62	H	0.345927	-1.049563	0.635903
H63	H	0.411720	-1.147014	0.635898
H64	H	0.280679	-1.191193	-0.000044
C65	C	-0.326002	-1.612998	0.257581
H66	H	-0.374235	-1.640275	0.314862
H67	H	-0.288288	-1.557255	0.313723
H68	H	-0.298593	-1.684079	0.228875
H69	H	-0.165851	-1.159430	0.000122
H70	H	-0.446611	-1.702790	0.000183
H71	H	0.272236	-0.715901	0.000006
H72	H	-0.025055	-1.251088	0.000055
C73	C	0.010411	-1.654295	0.822040
H74	H	0.052208	-1.591198	0.856718
H75	H	0.022404	-1.734551	0.856739
H76	H	-0.043390	-1.637102	0.856717
H77	H	0.339406	-1.157742	0.360935
C78	C	-0.427024	-1.353865	0.257304
H79	H	-0.401012	-1.269466	0.257157
H80	H	-0.410498	-1.396016	0.342595
H81	H	-0.486576	-1.353456	0.256760
C82	C	-0.034172	-0.738373	0.000081
H83	H	0.021769	-0.697682	0.000048
H84	H	-0.062922	-0.714264	0.085035
H85	H	-0.062932	-0.714280	-0.084872
C86	C	0.010424	-1.654283	0.178045
H87	H	0.052230	-1.591196	0.143364
H88	H	-0.043370	-1.637111	0.143356
H89	H	0.022434	-1.734544	0.143362
C90	C	0.439404	-1.059644	-0.000072
H91	H	0.430012	-1.149180	-0.000082
H92	H	0.470436	-1.032025	0.084864
H93	H	0.470419	-1.032025	-0.085043
H94	H	0.236747	-1.312696	0.221843
C95	C	-0.108404	-1.833642	0.661052
H96	H	-0.142102	-1.884507	0.593439
H97	H	-0.143650	-1.788475	0.720881
H98	H	-0.077852	-1.885918	0.720855
H99	H	-0.332944	-1.595086	-0.221575
H100	H	0.236742	-1.312709	0.778218
C101	C	-0.426967	-1.353883	-0.257210
H102	H	-0.400938	-1.269493	-0.257056
H103	H	-0.486514	-1.353467	-0.256709
H104	H	-0.410414	-1.396033	-0.342499
C105	C	0.434517	-0.784564	-0.000072
H106	H	0.481067	-0.833407	-0.000098
H107	H	0.436792	-0.732835	0.084870
H108	H	0.436775	-0.732852	-0.085038
H109	H	-0.170062	-0.921778	0.000118
