data_functionalizedCrystal
_audit_creation_method	'MofGen! by Chris Wilmer'
_symmetry_space_group_name_H-M	'P1'
_symmetry_Int_Tables_number	1
_symmetry_cell_setting	triclinic
loop_
_symmetry_equiv_pos_as_xyz
  x,y,z
_cell_length_a	14.519709
_cell_length_b	11.295483
_cell_length_c	12.837943
_cell_angle_alpha	94.533167
_cell_angle_beta	89.254542
_cell_angle_gamma	85.892680
loop_
_atom_site_label
_atom_site_type_symbol
_atom_site_fract_x
_atom_site_fract_y
_atom_site_fract_z
O1	O	1.241202	-0.098860	0.128949
O2	O	1.741202	0.401140	0.628949
O3	O	0.974110	-0.098895	0.144952
O4	O	1.474110	0.401105	0.644952
O5	O	1.101733	-0.098879	-0.013963
O6	O	1.601733	0.401121	0.486037
O7	O	1.113578	-0.098876	0.287865
O8	O	1.613578	0.401124	0.787865
O9	O	1.090522	0.099170	-0.000027
O10	O	1.590522	0.599170	0.499973
O11	O	0.962898	0.099154	0.158888
O12	O	1.462898	0.599154	0.658888
O13	O	1.229990	0.099189	0.142886
O14	O	1.729990	0.599189	0.642886
Cu15	Cu	1.095421	0.117255	0.152160
Cu16	Cu	1.595421	0.617255	0.652160
Cu17	Cu	1.108679	-0.116961	0.135678
Cu18	Cu	1.608679	0.383039	0.635678
O19	O	1.102367	0.099173	0.301801
O20	O	1.602367	0.599173	0.801801
C21	C	0.934080	0.000125	0.151174
C22	C	1.434080	0.500125	0.651174
C23	C	0.831507	0.000111	0.148938
C24	C	1.331507	0.500111	0.648938
N25	N	1.086102	0.281990	0.163751
N26	N	1.586102	0.781990	0.663751
N27	N	1.118005	-0.281696	0.124079
N28	N	1.618005	0.218304	0.624079
C29	C	0.455897	0.000165	0.140713
C30	C	0.955897	0.500165	0.640713
C31	C	0.560403	0.000150	0.142997
C32	C	1.060403	0.500150	0.642997
C33	C	0.643698	0.000137	0.144825
C34	C	1.143698	0.500137	0.644825
C35	C	0.748211	0.000124	0.147110
C36	C	1.248211	0.500124	0.647110
C37	C	1.270020	0.000167	0.136664
C38	C	1.770020	0.500167	0.636664
C39	C	1.372594	0.000173	0.138899
C40	C	1.872594	0.500173	0.638899
C41	C	1.185082	0.531292	0.040579
C42	C	1.685082	1.031292	0.540579
C43	C	1.178046	0.655955	0.049346
C44	C	1.678046	1.155955	0.549346
C45	C	1.064992	0.655981	0.190047
C46	C	1.564992	1.155981	0.690047
C47	C	1.072027	0.531318	0.181280
C48	C	1.572027	1.031318	0.681280
C49	C	1.132075	0.468978	0.106544
C50	C	1.632075	0.968978	0.606544
C51	C	1.139114	0.344313	0.097783
C52	C	1.639114	0.844313	0.597783
C53	C	1.026056	0.344341	0.238478
C54	C	1.526056	0.844341	0.738478
C55	C	1.019021	0.469004	0.247245
C56	C	1.519021	0.969004	0.747245
C57	C	1.111974	0.000149	0.333461
C58	C	1.611974	0.500149	0.833461
C59	C	1.123908	0.000152	0.448560
C60	C	1.623908	0.500152	0.948560
C61	C	1.092126	0.000142	-0.045623
C62	C	1.592126	0.500142	0.454377
C63	C	1.080193	0.000132	-0.160723
C64	C	1.580193	0.500132	0.339277
C65	C	0.980440	0.000111	0.689250
C66	C	1.480440	0.500111	1.189250
C67	C	0.991649	0.000112	0.797396
C68	C	1.491649	0.500112	1.297396
C69	C	1.157534	0.000147	0.773002
C70	C	1.657534	0.500147	1.273002
C71	C	1.146325	0.000146	0.664855
C72	C	1.646325	0.500146	1.164855
C73	C	1.057775	0.000129	0.622983
C74	C	1.557775	0.500129	1.122983
C75	C	1.046567	0.000137	0.514835
C76	C	1.546567	0.500137	1.014835
C77	C	1.212452	0.000163	0.490442
C78	C	1.712452	0.500163	0.990442
C79	C	1.223661	0.000164	0.598589
C80	C	1.723661	0.500164	1.098589
H81	H	1.188011	0.293557	0.036932
H82	H	1.688011	0.793557	0.536932
H83	H	0.928674	0.000096	0.851347
H84	H	1.428674	0.500096	1.351347
H85	H	1.016096	0.706754	0.250888
H86	H	1.516096	1.206754	0.750888
H87	H	1.229623	0.000235	0.807118
H88	H	1.729623	0.500235	1.307118
H89	H	0.970128	0.519776	0.308091
H90	H	1.470128	1.019776	0.808091
H91	H	1.295756	0.000182	0.632696
H92	H	1.795756	0.500182	1.132696
F93	F	1.294763	0.000185	0.419908
F94	F	1.794763	0.500185	0.919908
H95	H	1.233981	0.480534	-0.020267
H96	H	1.733981	0.980534	0.479733
F97	F	1.234461	0.722270	-0.020866
F98	F	1.734461	1.222270	0.479134
H99	H	0.982897	0.293591	0.292194
H100	H	1.482897	0.793591	0.792194
H101	H	0.974464	0.000134	0.480746
H102	H	1.474464	0.500134	0.980746
F103	F	0.886199	0.000111	0.644685
F104	F	1.386199	0.500111	1.144685
