data_functionalizedCrystal
_audit_creation_method	'MofGen! by Chris Wilmer'
_symmetry_space_group_name_H-M	'P1'
_symmetry_Int_Tables_number	1
_symmetry_cell_setting	triclinic
loop_
_symmetry_equiv_pos_as_xyz
  x,y,z
_cell_length_a	27.440280
_cell_length_b	27.440280
_cell_length_c	27.440280
_cell_angle_alpha	90.008670
_cell_angle_beta	59.997919
_cell_angle_gamma	60.004534
loop_
_atom_site_label
_atom_site_type_symbol
_atom_site_fract_x
_atom_site_fract_y
_atom_site_fract_z
Zr1	Zr	0.533341	0.469562	-0.063891
O2	O	0.635020	0.391745	-0.141718
O3	O	0.431674	0.493407	-0.040034
O4	O	0.533346	0.493407	-0.141707
O5	O	0.533340	0.391757	0.040156
O6	O	0.533337	0.573610	-0.141697
O7	O	0.533348	0.391746	-0.040046
O8	O	0.351464	0.573611	0.040177
O9	O	0.715212	0.391756	-0.141717
O10	O	0.473480	0.563443	-0.029851
O11	O	0.473481	0.503596	0.029996
O12	O	0.593186	0.503596	-0.089711
O13	O	0.593187	0.443749	-0.029864
Zr14	Zr	0.533313	0.597493	0.064038
Zr15	Zr	0.533326	0.597476	-0.063875
Zr16	Zr	0.533328	0.469579	0.064022
Zr17	Zr	0.661239	0.469578	-0.063890
Zr18	Zr	0.405416	0.597477	0.064036
O19	O	0.634980	0.573647	0.040180
O20	O	0.634998	0.573623	-0.141696
O21	O	0.635001	0.391770	0.040158
O22	O	0.431635	0.675309	0.141865
O23	O	0.431653	0.675285	-0.040011
O24	O	0.431656	0.493432	0.141842
O25	O	0.533315	0.675298	-0.040010
O26	O	0.533308	0.573648	0.141853
O27	O	0.533318	0.493445	0.141843
O28	O	0.533307	0.675309	0.040192
O29	O	0.715200	0.493430	-0.141705
O30	O	0.351454	0.573624	0.141851
O31	O	0.351442	0.675299	0.141864
O32	O	0.351453	0.675285	0.040190
O33	O	0.715202	0.391769	-0.040044
O34	O	0.715190	0.493444	-0.040031
O35	O	0.473468	0.563459	0.089857
O36	O	0.473467	0.623305	0.030011
O37	O	0.593173	0.563458	-0.029849
O38	O	0.593174	0.503612	0.029997
C39	C	0.373347	0.533507	0.000071
C40	C	0.319051	0.533500	0.000071
C41	C	0.533346	0.373526	0.000053
C42	C	0.533352	0.319223	0.000046
C43	C	0.533343	0.533506	-0.159927
C44	C	0.533349	0.533498	-0.214229
C45	C	-0.017692	0.564783	-0.031161
C46	C	-0.068716	0.564788	-0.031159
O47	O	-0.095122	0.591374	-0.057709
N48	N	-0.094231	0.533549	0.000079
C49	C	-0.068725	0.502307	0.031322
O50	O	-0.095114	0.475736	0.057893
C51	C	-0.017706	0.502305	0.031324
C52	C	0.007812	0.533542	0.000079
C53	C	0.007826	0.596018	-0.062403
C54	C	0.058847	0.596011	-0.062405
C55	C	0.084351	0.564770	-0.031166
C56	C	0.058833	0.533535	0.000076
C57	C	0.007796	0.471067	0.062570
C58	C	0.058818	0.471068	0.062569
C59	C	0.084336	0.502305	0.031324
C60	C	0.135359	0.502288	0.031313
N61	N	0.160874	0.533527	0.000075
C62	C	0.135370	0.564769	-0.031164
C63	C	-0.175870	0.502313	0.031317
C64	C	-0.226886	0.502311	0.031313
C65	C	-0.226873	0.564794	-0.031168
C66	C	-0.175854	0.564792	-0.031166
C67	C	-0.150355	0.533553	0.000079
C68	C	0.242519	0.564752	-0.031167
C69	C	0.293547	0.564741	-0.031169
C70	C	0.293528	0.502261	0.031314
C71	C	0.242507	0.502269	0.031313
C72	C	0.217002	0.533519	0.000072
O73	O	0.161796	0.475717	0.057851
O74	O	0.161759	0.591341	-0.057724
C75	C	0.693308	0.533548	0.000075
C76	C	0.747604	0.533555	0.000076
C77	C	0.470830	0.013765	0.031336
C78	C	0.470826	-0.037253	0.031341
O79	O	0.417685	-0.037073	0.057933
N80	N	0.533311	-0.094010	0.000094
C81	C	0.595804	-0.099747	-0.031155
O82	O	0.648952	-0.152707	-0.057732
C83	C	0.595807	-0.048729	-0.031156
C84	C	0.533318	0.008027	0.000088
C85	C	0.408346	0.070518	0.062578
C86	C	0.408351	0.121533	0.062572
C87	C	0.470838	0.115795	0.031323
C88	C	0.533322	0.059042	0.000081
C89	C	0.658299	-0.054467	-0.062402
C90	C	0.658297	-0.003443	-0.062400
C91	C	0.595808	0.053313	-0.031156
C92	C	0.595814	0.104318	-0.031173
N93	N	0.533329	0.161074	0.000073
C94	C	0.470841	0.166813	0.031322
C95	C	0.595793	-0.206885	-0.031149
C96	C	0.595790	-0.257903	-0.031151
C97	C	0.470813	-0.195406	0.031346
C98	C	0.470816	-0.144388	0.031345
C99	C	0.533308	-0.150129	0.000098
C100	C	0.470855	0.273945	0.031306
C101	C	0.470864	0.324962	0.031295
C102	C	0.595842	0.262460	-0.031200
C103	C	0.595833	0.211448	-0.031192
C104	C	0.533334	0.217194	0.000066
O105	O	0.648929	0.104184	-0.057750
O106	O	0.417703	0.219775	0.057901
C107	C	0.533308	0.693528	0.000093
C108	C	0.533302	0.747831	0.000100
C109	C	0.533307	0.577728	-0.550921
C110	C	0.533302	0.577733	-0.601939
O111	O	0.533271	0.615324	-0.628309
N112	N	0.533308	0.533548	-0.627462
C113	C	0.533312	0.489359	-0.601961
O114	O	0.533317	0.451777	-0.628355
C115	C	0.533312	0.489356	-0.550942
C116	C	0.533313	0.533541	-0.525425
C117	C	0.533306	0.621909	-0.525403
C118	C	0.533313	0.621903	-0.474390
C119	C	0.533319	0.577716	-0.448894
C120	C	0.533319	0.533535	-0.474411
C121	C	0.533312	0.445170	-0.525440
C122	C	0.533311	0.445172	-0.474417
C123	C	0.533312	0.489356	-0.448899
C124	C	0.533332	0.489341	-0.397901
N125	N	0.533326	0.533526	-0.372378
C126	C	0.533319	0.577713	-0.397874
C127	C	0.533311	0.489368	-0.709105
C128	C	0.533316	0.489367	-0.760126
C129	C	0.533304	0.577742	-0.760099
C130	C	0.533304	0.577740	-0.709080
C131	C	0.533305	0.533552	-0.683582
C132	C	0.533333	0.577697	-0.290742
C133	C	0.533342	0.577686	-0.239725
C134	C	0.533351	0.489312	-0.239755
C135	C	0.533345	0.489322	-0.290769
C136	C	0.533334	0.533519	-0.316260
O137	O	0.533360	0.451772	-0.371497
O138	O	0.533306	0.615294	-0.371470
C139	C	0.533311	0.533549	0.160073
C140	C	0.533306	0.533556	0.214375
C141	C	0.373328	0.693508	0.000091
C142	C	0.319026	0.747804	0.000097
C143	C	0.373331	0.533528	0.160071
C144	C	0.319029	0.533529	0.214373
C145	C	0.373312	0.693529	0.160091
C146	C	0.319004	0.747833	0.214400
C147	C	0.693343	0.373525	-0.159945
C148	C	0.747650	0.319222	-0.214253
C149	C	0.693326	0.373547	0.000055
C150	C	0.747629	0.319251	0.000049
C151	C	0.693324	0.533526	-0.159925
C152	C	0.747625	0.533526	-0.214227
C153	C	0.293532	0.742054	-0.031152
C154	C	0.242516	0.793066	-0.031158
C155	C	0.216992	0.849827	0.000089
C156	C	0.242491	0.855575	0.031339
C157	C	0.293509	0.804564	0.031342
C158	C	0.293522	0.564776	0.271126
C159	C	0.242507	0.564774	0.322153
C160	C	0.216997	0.533528	0.316426
C161	C	0.242509	0.502276	0.259667
C162	C	0.293527	0.502275	0.208641
C163	C	0.293500	0.804579	0.208664
C164	C	0.242479	0.855607	0.259688
C165	C	0.216960	0.849888	0.316447
C166	C	0.242469	0.793137	0.322181
C167	C	0.293492	0.742109	0.271158
C168	C	0.773161	0.262476	-0.208518
C169	C	0.824197	0.211447	-0.259542
C170	C	0.849719	0.217166	-0.316301
C171	C	0.824207	0.273918	-0.322035
C172	C	0.773175	0.324945	-0.271011
C173	C	0.773128	0.325001	0.031293
C174	C	0.824158	0.273989	0.031285
C175	C	0.849684	0.217228	0.000036
C176	C	0.824182	0.211479	-0.031212
C177	C	0.773157	0.262490	-0.031207
C178	C	0.773119	0.564779	-0.208480
C179	C	0.824134	0.564790	-0.259498
C180	C	0.849658	0.533545	-0.316261
C181	C	0.824159	0.502291	-0.322006
C182	C	0.773141	0.502284	-0.270989
H183	H	0.314323	0.590177	-0.056614
N184	N	0.321026	0.598482	0.277317
H185	H	0.342195	0.582094	0.299851
H186	H	0.357189	0.593737	0.236365
N187	N	0.321012	0.810755	0.147450
H188	H	0.297108	0.854450	0.151568
H189	H	0.372230	0.790948	0.124914
N190	N	0.403442	0.280154	0.065013
H191	H	0.400658	0.260374	0.036358
H192	H	0.400678	0.260402	0.096462
H193	H	0.221741	0.590225	0.368364
N194	N	0.086358	0.629708	-0.096104
H195	H	0.047426	0.673413	-0.079705
H196	H	0.122561	0.624926	-0.091361
N197	N	0.851737	0.280076	-0.383257
H198	H	0.812816	0.302603	-0.388040
H199	H	0.872913	0.302600	-0.388005
H200	H	0.752397	0.257801	-0.056648
N201	N	0.904753	0.162129	-0.371332
H202	H	0.947094	0.162100	-0.395893
H203	H	0.916978	0.125344	-0.359034
H204	H	0.221684	0.788489	0.368401
N205	N	0.214971	0.916813	0.253496
H206	H	0.238877	0.912688	0.209796
H207	H	0.163754	0.939343	0.273308
N208	N	0.403414	-0.189223	0.065058
H209	H	0.363825	-0.145528	0.084855
H210	H	0.400694	-0.209038	0.036373
N211	N	0.725702	-0.009639	-0.096110
H212	H	0.716228	0.031291	-0.091376
H213	H	0.752985	-0.032193	-0.079705
N214	N	0.851641	0.598492	-0.253298
H215	H	0.842756	0.629937	-0.273060
H216	H	0.827723	0.618239	-0.209586
H217	H	0.533317	0.453380	-0.688350
N218	N	0.533330	0.625361	-0.318237
H219	H	0.490839	0.665924	-0.288100
H220	H	0.575855	0.623371	-0.330607
N221	N	0.533309	0.669561	-0.446869
H222	H	0.533302	0.697552	-0.470767
H223	H	0.490813	0.692732	-0.404448
N224	N	0.745650	0.386148	-0.277204
H225	H	0.709445	0.417611	-0.236272
H226	H	0.784611	0.390880	-0.299767
N227	N	0.745595	0.598490	-0.147265
H228	H	0.694378	0.629925	-0.124702
H229	H	0.754522	0.569805	-0.124749
N230	N	0.533315	0.669564	-0.552906
H231	H	0.533321	0.697545	-0.528994
H232	H	0.575818	0.650234	-0.595323
N233	N	-0.148336	0.598487	-0.064861
H234	H	-0.097120	0.569831	-0.096306
H235	H	-0.172287	0.618274	-0.084613
H236	H	0.533304	0.613719	-0.688306
H237	H	-0.012973	0.445631	0.088014
H238	H	0.646685	-0.211569	-0.056596
H239	H	0.357458	0.075201	0.088027
N240	N	-0.148367	0.468615	0.065018
H241	H	-0.172276	0.448827	0.084804
H242	H	-0.097149	0.437201	0.036329
N243	N	0.745603	0.386217	0.064999
H244	H	0.769509	0.382110	0.084786
H245	H	0.754481	0.408744	0.036312
N246	N	0.904708	0.162212	0.000046
H247	H	0.917011	0.125379	-0.024488
H248	H	0.947003	0.162250	-0.017716
N249	N	0.745637	0.256299	-0.147304
H250	H	0.769549	0.212604	-0.151422
H251	H	0.754506	0.276116	-0.124769
N252	N	0.663225	0.150228	-0.064893
H253	H	0.690549	0.145434	-0.108604
H254	H	0.690487	0.145494	-0.048460
H255	H	0.314288	0.476831	0.162432
H256	H	0.079578	0.445628	0.088013
H257	H	0.314251	0.695906	0.275836
N258	N	-0.019677	0.629713	-0.096101
H259	H	-0.040840	0.673418	-0.079711
H260	H	0.019291	0.613269	-0.139801
N261	N	0.745659	0.468564	-0.277198
H262	H	0.754546	0.437122	-0.257432
H263	H	0.694451	0.497245	-0.257432
N264	N	-0.254386	0.598491	-0.064863
H265	H	-0.290579	0.593751	-0.060119
H266	H	-0.275517	0.642183	-0.048453
N267	N	0.321054	0.680838	-0.064857
H268	H	0.312169	0.658280	-0.036205
H269	H	0.297143	0.684998	-0.084651
H270	H	0.221732	0.476836	0.255013
N271	N	0.161970	0.533533	0.371464
H272	H	0.149684	0.558073	0.408284
H273	H	0.119668	0.551297	0.371440
N274	N	0.161928	0.904928	0.371477
H275	H	0.149645	0.941742	0.359225
H276	H	0.119625	0.904901	0.396012
H277	H	0.221758	0.590200	-0.056606
N278	N	0.851706	0.150242	-0.253350
H279	H	0.827786	0.154367	-0.209650
H280	H	0.842838	0.127703	-0.273163
H281	H	0.844913	0.278681	0.056733
H282	H	0.533311	0.409191	-0.546208
N283	N	0.161959	0.904845	0.000091
H284	H	0.179708	0.929406	-0.017688
H285	H	0.149703	0.892538	-0.024437
H286	H	0.419976	0.371175	0.056739
H287	H	0.221761	0.788374	-0.056606
N288	N	0.851706	0.150257	-0.064903
H289	H	0.887892	0.118819	-0.060155
H290	H	0.812737	0.145534	-0.048487
H291	H	0.891200	0.533556	-0.357797
H292	H	0.844949	0.476852	-0.368230
H293	H	0.221737	0.476826	0.056748
N294	N	-0.254404	0.468617	0.065009
H295	H	-0.215479	0.424910	0.048617
H296	H	-0.275580	0.485058	0.108709
N297	N	0.321040	0.468566	0.065007
H298	H	0.357231	0.473308	0.060265
H299	H	0.282069	0.484979	0.108702
H300	H	0.357466	0.167742	0.088011
H301	H	0.419932	-0.098178	0.056792
N302	N	0.663237	0.256277	-0.064906
H303	H	0.653752	0.297211	-0.060164
H304	H	0.690520	0.233725	-0.048499
H305	H	0.646675	-0.304112	-0.056601
H306	H	0.709184	-0.100672	-0.087843
H307	H	0.533297	0.613723	-0.780867
N308	N	0.533346	0.625342	-0.212205
H309	H	0.533339	0.653335	-0.236100
H310	H	0.490853	0.648511	-0.169782
H311	H	0.314260	0.809254	0.056792
N312	N	0.533318	0.441710	-0.787648
H313	H	0.575813	0.401146	-0.800025
H314	H	0.490797	0.443694	-0.757490
N315	N	0.533308	0.397514	-0.446913
H316	H	0.533306	0.369527	-0.470823
H317	H	0.575804	0.374337	-0.447000
H318	H	0.221702	0.901797	0.056780
H319	H	0.533355	0.453338	-0.311550
N320	N	0.533358	0.441655	-0.212251
H321	H	0.533358	0.448362	-0.176059
H322	H	0.490861	0.443610	-0.199917
