data_functionalizedCrystal
_audit_creation_method	'MofGen! by Chris Wilmer'
_symmetry_space_group_name_H-M	'P1'
_symmetry_Int_Tables_number	1
_symmetry_cell_setting	triclinic
loop_
_symmetry_equiv_pos_as_xyz
  x,y,z
_cell_length_a	14.446369
_cell_length_b	23.096457
_cell_length_c	23.096457
_cell_angle_alpha	120.001305
_cell_angle_beta	89.993219
_cell_angle_gamma	59.999055
loop_
_atom_site_label
_atom_site_type_symbol
_atom_site_fract_x
_atom_site_fract_y
_atom_site_fract_z
Zr1	Zr	0.891771	0.633714	0.075942
O2	O	0.743936	0.754523	0.168398
O3	O	0.937087	0.512921	0.047602
O4	O	0.937052	0.633731	0.168399
O5	O	0.744003	0.633694	-0.047689
O6	O	1.089389	0.633725	0.168395
O7	O	0.743971	0.633713	0.047601
O8	O	1.089452	0.417618	-0.047688
O9	O	0.743940	0.849801	0.168394
O10	O	1.070106	0.562595	0.035509
O11	O	0.956442	0.562584	-0.035603
O12	O	0.956400	0.704822	0.106620
O13	O	0.842736	0.704812	0.035508
Zr14	Zr	1.134782	0.633675	-0.076042
Zr15	Zr	1.134731	0.633705	0.075936
Zr16	Zr	0.891822	0.633683	-0.076036
Zr17	Zr	0.891777	0.785671	0.075935
Zr18	Zr	1.134776	0.481718	-0.076035
O19	O	1.089466	0.754468	-0.047702
O20	O	1.089394	0.754511	0.168390
O21	O	0.744008	0.754480	-0.047694
O22	O	1.282617	0.512866	-0.168498
O23	O	1.282545	0.512909	0.047594
O24	O	0.937159	0.512878	-0.168490
O25	O	1.282550	0.633695	0.047589
O26	O	1.089501	0.633658	-0.168499
O27	O	0.937164	0.633663	-0.168496
O28	O	1.282582	0.633676	-0.047702
O29	O	0.937061	0.849794	0.168390
O30	O	1.089492	0.417594	-0.168490
O31	O	1.282613	0.417588	-0.168494
O32	O	1.282573	0.417612	-0.047692
O33	O	0.743980	0.849777	0.047592
O34	O	0.937101	0.849770	0.047588
O35	O	1.070153	0.562566	-0.106720
O36	O	1.183817	0.562577	-0.035608
O37	O	1.070111	0.704804	0.035503
O38	O	0.956448	0.704794	-0.035609
C39	C	0.709370	0.633705	-0.000043
C40	C	0.606228	0.633708	-0.000041
C41	C	1.013269	0.443619	-0.000042
C42	C	1.013266	0.379109	-0.000039
C43	C	0.387847	0.723402	0.044583
C44	C	0.495079	0.723463	0.044834
C45	C	0.602891	0.589163	0.032677
C46	C	0.495122	0.589733	0.033004
C47	C	0.496523	0.587864	-0.077439
C48	C	0.602492	0.589554	-0.077317
C49	C	1.072590	0.348813	0.037083
C50	C	1.072601	0.288191	0.037077
C51	C	1.013266	0.257878	-0.000041
C52	C	0.953940	0.288178	-0.037172
C53	C	0.953940	0.348793	-0.037171
N54	N	0.916688	0.195487	0.005108
N55	N	0.916691	0.137906	0.005111
C56	C	1.013265	0.075246	-0.000048
N57	N	1.109836	0.072350	-0.005196
N58	N	1.109831	0.129939	-0.005195
C59	C	1.013260	0.192151	-0.000047
C60	C	1.072606	-0.020784	0.037070
C61	C	1.072620	-0.081411	0.037059
C62	C	0.953949	-0.081417	-0.037185
C63	C	0.953945	-0.020797	-0.037179
C64	C	1.013271	0.009519	-0.000048
C65	C	1.317183	0.633684	-0.000057
C66	C	1.420326	0.633680	-0.000059
C67	C	1.013213	0.633732	0.190051
C68	C	1.013192	0.633745	0.254569
C69	C	1.013284	0.823770	-0.000058
C70	C	1.013287	0.888280	-0.000061
C71	C	1.097117	0.633744	0.284861
C72	C	1.097140	0.633730	0.345470
C73	C	1.013220	0.633732	0.375792
C74	C	0.929287	0.633728	0.345491
C75	C	0.929273	0.633734	0.284879
N76	N	0.913711	0.680083	0.494153
N77	N	0.913729	0.680078	0.551732
C78	C	1.013259	0.633710	0.558411
N79	N	1.112776	0.587357	0.505339
N80	N	1.112758	0.587365	0.447757
C81	C	1.013226	0.633724	0.441515
C82	C	1.097216	0.633692	0.654421
C83	C	1.097239	0.633673	0.715028
C84	C	0.929377	0.633679	0.715051
C85	C	0.929363	0.633691	0.654441
C86	C	1.013281	0.633701	0.624132
C87	C	1.013329	0.633664	0.809853
C88	C	1.013319	0.633673	0.745345
C89	C	1.317175	0.443608	-0.000049
C90	C	1.420315	0.379095	-0.000049
C91	C	1.013332	0.443581	-0.190143
C92	C	1.013351	0.379058	-0.254659
C93	C	1.317238	0.443571	-0.190150
C94	C	1.420400	0.379044	-0.254668
C95	C	0.709315	0.823818	0.190050
C96	C	0.606153	0.888344	0.254568
C97	C	0.709378	0.823780	-0.000051
C98	C	0.606238	0.888294	-0.000051
C99	C	1.013221	0.823808	0.190043
C100	C	1.013202	0.888330	0.254558
C101	C	1.409395	0.348808	0.037080
C102	C	1.506297	0.288199	0.037095
C103	C	1.614118	0.257874	-0.000024
C104	C	1.625036	0.288167	-0.037154
C105	C	1.528135	0.348779	-0.037164
C106	C	1.072716	0.348748	-0.322085
C107	C	1.072729	0.288131	-0.382710
C108	C	1.013384	0.257820	-0.375908
C109	C	0.954012	0.288136	-0.308474
C110	C	0.953992	0.348757	-0.247851
C111	C	1.528188	0.348748	-0.247847
C112	C	1.625128	0.288127	-0.308463
C113	C	1.614279	0.257800	-0.375899
C114	C	1.506480	0.288102	-0.382719
C115	C	1.409542	0.348726	-0.322104
C116	C	0.498366	0.918649	0.247747
C117	C	0.401425	0.979288	0.308362
C118	C	0.412274	1.009618	0.375799
C119	C	0.520073	0.979312	0.382619
C120	C	0.617011	0.918677	0.322004
C121	C	0.617158	0.918587	-0.037174
C122	C	0.520256	0.979212	-0.037172
C123	C	0.412435	1.009540	-0.000051
C124	C	0.401517	0.979244	0.037076
C125	C	0.498418	0.918624	0.037078
C126	C	1.072559	0.918622	0.247733
C127	C	1.072563	0.979240	0.308347
C128	C	1.013203	1.009569	0.375785
C129	C	0.953845	0.979272	0.382609
C130	C	0.953847	0.918651	0.321996
H131	H	0.333900	0.758607	0.022748
H132	H	1.537043	0.373431	-0.192942
N133	N	1.494788	0.255388	-0.455455
H134	H	1.572559	0.212384	-0.492814
H135	H	1.451946	0.230276	-0.461073
N136	N	1.293111	0.381505	0.077116
H137	H	1.284012	0.406670	0.129047
H138	H	1.233443	0.424466	0.071423
H139	H	0.905654	0.373427	-0.192952
N140	N	0.889957	0.381471	-0.077214
H141	H	0.852373	0.353069	-0.100733
H142	H	0.830283	0.442325	-0.043129
N143	N	0.707365	0.502819	-0.125085
H144	H	0.748461	0.496012	-0.165798
H145	H	0.758917	0.490928	-0.097125
N146	N	1.136732	0.381428	-0.329438
H147	H	1.105603	0.406576	-0.356213
H148	H	1.127706	0.424399	-0.280783
N149	N	1.136773	0.255438	-0.455435
H150	H	1.174373	0.283835	-0.450539
H151	H	1.196439	0.194584	-0.482206
N152	N	1.741387	0.255449	-0.301098
H153	H	1.733541	0.283857	-0.249178
H154	H	1.784194	0.194596	-0.324633
H155	H	1.120936	-0.106082	0.067285
H156	H	0.528893	1.004014	0.437533
H157	H	0.489510	0.893961	0.067306
N158	N	0.838868	0.633672	0.747743
H159	H	0.851613	0.633665	0.790736
H160	H	0.761849	0.684164	0.762407
N161	N	0.532038	1.011887	-0.077213
H162	H	0.574854	0.965633	-0.129144
H163	H	0.454253	1.054908	-0.071519
N164	N	1.013412	0.192435	-0.441298
H165	H	1.060031	0.177836	-0.485042
H166	H	1.047162	0.142177	-0.441266
H167	H	1.537043	0.373431	-0.067403
H168	H	0.489510	0.893957	0.192842
H169	H	0.444760	0.621405	0.089945
N170	N	1.718839	0.192412	-0.441274
H171	H	1.788765	0.177824	-0.426713
H172	H	1.718800	0.142149	-0.470424
H173	H	0.446509	0.616563	-0.104770
H174	H	0.333331	1.058991	0.425150
N175	N	0.315030	0.769826	0.119745
H176	H	0.302985	0.732993	0.125002
H177	H	0.354107	0.788427	0.153549
H178	H	0.333541	1.058901	-0.000058
N179	N	0.890014	0.255436	-0.301143
H180	H	0.899048	0.212431	-0.349783
H181	H	0.921175	0.230328	-0.274344
N182	N	1.293287	0.381397	-0.329466
H183	H	1.301135	0.352980	-0.381386
H184	H	1.250489	0.370846	-0.305937
N185	N	0.532900	0.500312	-0.121708
H186	H	0.500213	0.490339	-0.091825
H187	H	0.504473	0.489999	-0.163370
N188	N	0.285166	1.011967	0.300998
H189	H	0.293012	0.983542	0.249078
H190	H	0.242355	1.001431	0.324537
H191	H	0.521783	0.523906	0.002591
H192	H	0.704774	0.894004	0.327566
N193	N	1.718628	0.192501	-0.000009
H194	H	1.695339	0.177920	0.029145
H195	H	1.765248	0.142232	-0.050301
H196	H	0.704943	0.893899	-0.067407
H197	H	0.313716	1.003946	0.067299
N198	N	1.136586	0.885918	0.175002
H199	H	1.174188	0.914310	0.179886
H200	H	1.196249	0.825064	0.148235
N201	N	0.889815	0.885991	0.329369
H202	H	0.806795	0.932255	0.356154
H203	H	0.898901	0.842973	0.280720
H204	H	1.120899	1.003901	0.302777
H205	H	1.013210	1.058931	0.425134
N206	N	0.889819	1.011990	0.455346
H207	H	0.944242	1.001447	0.482150
H208	H	0.830106	1.072833	0.482086
N209	N	0.492949	0.769743	0.015749
H210	H	0.422973	0.827987	0.046289
H211	H	0.562803	0.769813	0.015846
N212	N	0.491813	0.770042	0.120447
H213	H	0.560383	0.732639	0.126799
H214	H	0.492194	0.818080	0.131431
N215	N	0.706574	0.501749	-0.008311
H216	H	0.756826	0.490155	-0.048579
H217	H	0.749718	0.493285	0.024313
H218	H	0.605009	0.620119	0.089077
H219	H	0.601983	0.622033	-0.101759
N220	N	1.136584	0.381501	0.077129
H221	H	1.219606	0.335247	0.057656
H222	H	1.127500	0.424511	0.071489
N223	N	1.136590	0.255504	0.077116
H224	H	1.174173	0.283906	0.100637
H225	H	1.082080	0.266061	0.114432
H226	H	1.120917	0.003898	0.067302
N227	N	0.889950	0.255483	-0.077212
H228	H	0.898949	0.212487	-0.071579
H229	H	0.806954	0.301781	-0.057723
N230	N	1.494507	0.255535	0.077144
H231	H	1.411497	0.283941	0.100649
H232	H	1.532142	0.194680	0.043067
H233	H	0.905638	-0.106097	-0.067408
H234	H	0.905633	0.003873	-0.067405
H235	H	1.165450	0.633750	0.260184
H236	H	0.860960	0.633728	0.370181
N237	N	1.187665	0.633726	0.378151
H238	H	1.240825	0.633732	0.349751
H239	H	1.150953	0.684214	0.428550
H240	H	1.165550	0.633697	0.629740
N241	N	0.838754	0.633731	0.252200
H242	H	0.785595	0.633726	0.280601
H243	H	0.794723	0.684225	0.252305
N244	N	1.187752	0.633690	0.747709
H245	H	1.264816	0.583213	0.711909
H246	H	1.183943	0.684224	0.762409
N247	N	0.838835	0.633694	0.621771
H248	H	0.761782	0.684182	0.657576
H249	H	0.851657	0.633665	0.578767
N250	N	1.741332	0.255456	-0.077187
H251	H	1.801052	0.212462	-0.071545
H252	H	1.750335	0.230333	-0.129101
