data_functionalizedCrystal
_audit_creation_method	'MofGen! by Chris Wilmer'
_symmetry_space_group_name_H-M	'P1'
_symmetry_Int_Tables_number	1
_symmetry_cell_setting	triclinic
loop_
_symmetry_equiv_pos_as_xyz
  x,y,z
_cell_length_a	25.639242
_cell_length_b	19.076808
_cell_length_c	19.076919
_cell_angle_alpha	90.121640
_cell_angle_beta	87.727009
_cell_angle_gamma	92.317999
loop_
_atom_site_label
_atom_site_type_symbol
_atom_site_fract_x
_atom_site_fract_y
_atom_site_fract_z
Zn1	Zn	0.778936	-0.295842	0.386202
Zn2	Zn	0.779156	-0.408636	0.263971
Zn3	Zn	0.695155	-0.291130	0.268694
Zn4	Zn	0.688115	-0.413307	0.381421
O5	O	0.735341	-0.352229	0.325072
O6	O	0.852129	-0.310821	0.370012
O7	O	0.771052	-0.389123	0.166267
O8	O	0.709123	-0.193419	0.288259
O9	O	0.852291	-0.393691	0.280210
O10	O	0.770676	-0.196880	0.374591
O11	O	0.709336	-0.302791	0.169737
O12	O	0.621057	-0.307320	0.283623
O13	O	0.697124	-0.401651	0.480386
O14	O	0.615885	-0.397082	0.366443
O15	O	0.763850	-0.315350	0.483898
O16	O	0.764226	-0.507592	0.275574
O17	O	0.697338	-0.511023	0.361864
C18	C	0.599500	-0.352197	0.325028
C19	C	0.541386	-0.352201	0.325024
C20	C	0.292875	-0.305417	0.282028
C21	C	0.347479	-0.305411	0.282020
O22	O	0.377999	-0.265590	0.245425
N23	N	0.372111	-0.352211	0.325059
C24	C	0.342135	-0.399017	0.368116
O25	O	0.368100	-0.438824	0.404724
C26	C	0.287531	-0.399020	0.368128
C27	C	0.262902	-0.352221	0.325080
C28	C	0.268246	-0.258622	0.238985
C29	C	0.213645	-0.258630	0.238993
C30	C	0.183673	-0.305433	0.282044
C31	C	0.208301	-0.352229	0.325088
C32	C	0.257556	-0.445822	0.411187
C33	C	0.202949	-0.445821	0.411196
C34	C	0.178320	-0.399022	0.368148
C35	C	0.123728	-0.399041	0.368147
N36	N	0.099097	-0.352240	0.325108
C37	C	0.129069	-0.305436	0.282056
C38	C	0.456807	-0.399007	0.368089
C39	C	0.511409	-0.399008	0.368074
C40	C	0.516750	-0.305400	0.281978
C41	C	0.462146	-0.305403	0.281990
C42	C	0.432175	-0.352206	0.325049
C43	C	0.014403	-0.305457	0.282075
C44	C	-0.040204	-0.305471	0.282085
C45	C	-0.045540	-0.399076	0.368183
C46	C	0.009062	-0.399065	0.368171
C47	C	0.039032	-0.352249	0.325115
O48	O	0.093175	-0.438839	0.404725
O49	O	0.103097	-0.265630	0.245461
C50	C	0.730055	-0.534806	0.317703
C51	C	0.727841	-0.612914	0.314574
C52	C	0.871711	-0.352261	0.325117
C53	C	0.929824	-0.352275	0.325136
C54	C	0.758823	-0.651353	0.358089
C55	C	0.756741	-0.724744	0.355150
C56	C	0.723679	-0.759695	0.308692
C57	C	0.692694	-0.721251	0.265176
C58	C	0.694774	-0.647861	0.268118
C59	C	0.714022	-0.978999	0.295070
C60	C	0.711946	-1.052394	0.292129
C61	C	0.775992	-1.055881	0.382105
C62	C	0.778071	-0.982490	0.385041
C63	C	0.747084	-0.944053	0.341527
N64	N	0.721551	-0.834712	0.305686
N65	N	0.749210	-0.869037	0.344538
C66	C	0.740660	-0.168939	0.332485
C67	C	0.742927	-0.090832	0.335644
C68	C	0.729677	-0.359547	0.508351
C69	C	0.727264	-0.362666	0.586453
C70	C	0.741013	-0.344888	0.142508
C71	C	0.743534	-0.341572	0.064414
C72	C	0.760869	-0.319200	0.624976
C73	C	0.758595	-0.322128	0.698362
C74	C	0.722718	-0.368525	0.733223
C75	C	0.689110	-0.411992	0.694696
C76	C	0.691381	-0.409060	0.621311
C77	C	0.712197	-0.382107	0.952502
C78	C	0.709929	-0.385037	1.025892
C79	C	0.779414	-0.295172	1.029553
C80	C	0.781684	-0.292247	0.956167
C81	C	0.748074	-0.335712	0.917646
N82	N	0.720394	-0.371520	0.808235
N83	N	0.750396	-0.332713	0.842635
H84	H	0.442098	-0.267293	0.246939
O85	O	0.806162	-1.093182	0.424310
C86	C	0.859264	-1.074579	0.409771
H87	H	0.864251	-1.052188	0.354445
H88	H	0.872946	-1.033451	0.449169
C89	C	0.885927	-1.167562	0.483356
C90	C	0.892052	-1.140066	0.415401
H91	H	0.906154	-1.207956	0.486832
H92	H	0.850152	-1.180094	0.493154
H93	H	0.897328	-1.133282	0.516181
H94	H	0.880645	-1.174343	0.382579
H95	H	0.927827	-1.127541	0.405598
O96	O	-0.064191	-0.259987	0.240360
C97	C	-0.095693	-0.216252	0.282265
H98	H	-0.106218	-0.243236	0.334478
H99	H	-0.073393	-0.164491	0.292159
C100	C	-0.133082	-0.168810	0.180012
C101	C	-0.146013	-0.201954	0.244139
H102	H	-0.164121	-0.159987	0.156494
H103	H	-0.111858	-0.198273	0.151780
H104	H	-0.114498	-0.125679	0.188266
H105	H	-0.164591	-0.245088	0.235884
H106	H	-0.167242	-0.172499	0.272369
H107	H	0.531457	-0.437124	0.403120
H108	H	0.804992	-0.954035	0.422871
O109	O	0.545926	-0.260025	0.240122
C110	C	0.577742	-0.298145	0.193044
H111	H	0.583624	-0.352426	0.215584
H112	H	0.558076	-0.303701	0.140651
C113	C	0.623892	-0.192287	0.154263
C114	C	0.631120	-0.258953	0.181950
H115	H	0.656817	-0.168111	0.147416
H116	H	0.602456	-0.166604	0.185978
H117	H	0.607502	-0.196927	0.110604
H118	H	0.647503	-0.254313	0.225611
H119	H	0.652560	-0.284635	0.150242
O120	O	0.173781	-0.491319	0.452926
C121	C	0.142125	-0.535065	0.411027
H122	H	0.136286	-0.508080	0.358821
H123	H	0.161910	-0.586814	0.401118
C124	C	0.095881	-0.582547	0.513288
C125	C	0.088705	-0.549399	0.449170
H126	H	0.062929	-0.591392	0.536817
H127	H	0.117209	-0.553076	0.541517
H128	H	0.112369	-0.625666	0.505022
H129	H	0.072223	-0.506277	0.457438
H130	H	0.067373	-0.578864	0.420944
H131	H	0.038798	-0.267332	0.247019
O132	O	0.189808	-0.213096	0.197162
C133	C	0.227980	-0.171800	0.159156
H134	H	0.266089	-0.170569	0.188035
H135	H	0.234682	-0.195313	0.104709
C136	C	0.162337	-0.098103	0.116710
C137	C	0.209143	-0.096586	0.152183
H138	H	0.150718	-0.051708	0.112405
H139	H	0.136620	-0.125926	0.142313
H140	H	0.167929	-0.117701	0.071341
H141	H	0.203549	-0.076997	0.197553
H142	H	0.234859	-0.068758	0.126587
O143	O	-0.074738	-0.444471	0.409983
C144	C	-0.128212	-0.434446	0.400743
H145	H	-0.133397	-0.379265	0.380004
H146	H	-0.143763	-0.474576	0.361581
C147	C	-0.152249	-0.511598	0.497041
C148	C	-0.158616	-0.443822	0.471574
H149	H	-0.171004	-0.517385	0.540732
H150	H	-0.116222	-0.518354	0.503265
H151	H	-0.165207	-0.545032	0.464400
H152	H	-0.145652	-0.410390	0.504211
H153	H	-0.194642	-0.437060	0.465358
H154	H	0.432407	-0.437125	0.403151
H155	H	0.659896	-0.449766	0.723086
O156	O	0.658815	-0.451315	0.583806
C157	C	0.688582	-0.495022	0.539546
H158	H	0.729264	-0.469806	0.529579
H159	H	0.691939	-0.548231	0.565720
C160	C	0.611643	-0.535919	0.481550
C161	C	0.661607	-0.504946	0.469303
H162	H	0.595003	-0.542044	0.438221
H163	H	0.591588	-0.506475	0.511370
H164	H	0.614447	-0.580256	0.503363
H165	H	0.658802	-0.460606	0.447498
H166	H	0.681661	-0.534382	0.439477
H167	H	0.277599	-0.483931	0.446241
O168	O	0.683912	-0.941773	0.252723
C169	C	0.654281	-0.988362	0.211097
H170	H	0.674291	-1.040559	0.206606
H171	H	0.613538	-0.997223	0.236451
C172	C	0.625343	-0.892664	0.142959
C173	C	0.649922	-0.956772	0.137438
H174	H	0.622651	-0.873177	0.097524
H175	H	0.645304	-0.861275	0.171005
H176	H	0.591393	-0.900057	0.164090
H177	H	0.683873	-0.949376	0.116316
H178	H	0.629966	-0.988158	0.109387
O179	O	0.660502	-0.755172	0.220123
C180	C	0.608418	-0.737886	0.236111
H181	H	0.604581	-0.719937	0.293052
H182	H	0.597144	-0.693809	0.200126
C183	C	0.576648	-0.824838	0.155331
C184	C	0.571935	-0.802798	0.225269
H185	H	0.554143	-0.864876	0.148640
H186	H	0.611738	-0.836482	0.144557
H187	H	0.567254	-0.788101	0.125351
H188	H	0.581335	-0.839531	0.255246
H189	H	0.536846	-0.791161	0.236048
O190	O	0.786897	-0.761974	0.397436
C191	C	0.816520	-0.715389	0.439075
H192	H	0.820709	-0.661931	0.412396
H193	H	0.795927	-0.709721	0.492736
C194	C	0.865896	-0.810028	0.480878
C195	C	0.871044	-0.744372	0.448107
H196	H	0.899528	-0.827906	0.486452
H197	H	0.845937	-0.841414	0.452827
H198	H	0.848733	-0.805295	0.525592
H199	H	0.888201	-0.749106	0.403391
H200	H	0.891008	-0.712986	0.476151
O201	O	0.664622	-0.610491	0.225949
C202	C	0.630806	-0.569645	0.267612
H203	H	0.625209	-0.593958	0.322062
H204	H	0.648472	-0.514105	0.272288
C205	C	0.584442	-0.537348	0.166373
C206	C	0.577563	-0.567213	0.233249
H207	H	0.551599	-0.535844	0.145175
H208	H	0.607225	-0.564864	0.138303
H209	H	0.599165	-0.491067	0.170279
H210	H	0.562846	-0.613495	0.229341
H211	H	0.554776	-0.539704	0.261317
O212	O	0.791295	-0.279882	0.735674
C213	C	0.823441	-0.238294	0.689169
H214	H	0.826033	-0.264990	0.635695
H215	H	0.806089	-0.184606	0.683513
C216	C	0.875310	-0.196541	0.783920
C217	C	0.878497	-0.229333	0.718244
H218	H	0.909271	-0.191010	0.801855
H219	H	0.853651	-0.224557	0.815252
H220	H	0.860848	-0.151804	0.779198
H221	H	0.892953	-0.274072	0.722967
H222	H	0.900160	-0.201324	0.686912
H223	H	0.685020	-1.080848	0.254297
H224	H	0.790085	-0.281421	0.596597
O225	O	0.297411	-0.213251	0.197120
C226	C	0.329221	-0.251372	0.150035
H227	H	0.335115	-0.305646	0.172581
H228	H	0.309542	-0.256942	0.097652
C229	C	0.375348	-0.145511	0.111215
C230	C	0.382592	-0.212170	0.138910
H231	H	0.408270	-0.121328	0.104350
H232	H	0.353917	-0.119827	0.142935
H233	H	0.358948	-0.150162	0.067566
H234	H	0.398986	-0.207517	0.182562
H235	H	0.404028	-0.237852	0.107197
H236	H	0.810900	-0.254468	0.927787
H237	H	0.806777	-0.259785	1.060924
H238	H	0.680712	-0.422820	1.054274
O239	O	0.679595	-0.424427	0.915124
C240	C	0.688416	-0.495185	0.930240
H241	H	0.729461	-0.499560	0.950270
H242	H	0.658540	-0.515238	0.972094
C243	C	0.632554	-0.534107	0.838554
C244	C	0.682967	-0.539481	0.863150
H245	H	0.629190	-0.561433	0.797172
H246	H	0.626608	-0.486436	0.828372
H247	H	0.607662	-0.550817	0.873439
H248	H	0.707857	-0.522764	0.828269
H249	H	0.688916	-0.587151	0.873325
H250	H	0.785747	-0.622900	0.395917
H251	H	0.029115	-0.437177	0.403218
