data_functionalizedCrystal
_audit_creation_method	'MofGen! by Chris Wilmer'
_symmetry_space_group_name_H-M	'P1'
_symmetry_Int_Tables_number	1
_symmetry_cell_setting	triclinic
loop_
_symmetry_equiv_pos_as_xyz
  x,y,z
_cell_length_a	10.540539
_cell_length_b	23.532407
_cell_length_c	9.616153
_cell_angle_alpha	89.993077
_cell_angle_beta	89.995174
_cell_angle_gamma	83.687085
loop_
_atom_site_label
_atom_site_type_symbol
_atom_site_fract_x
_atom_site_fract_y
_atom_site_fract_z
O1	O	1.683259	0.080251	-0.115596
O2	O	1.313597	0.087813	-0.115615
O3	O	1.509575	0.001174	-0.115579
O4	O	1.487281	0.166890	-0.115631
O5	O	1.509548	0.001176	0.115712
O6	O	1.313571	0.087814	0.115677
O7	O	1.683232	0.080253	0.115695
Zn8	Zn	1.498397	0.084034	0.152408
Zn9	Zn	1.498432	0.084032	-0.152328
O10	O	1.487254	0.166892	0.115660
C11	C	1.266300	0.087246	0.000029
C12	C	1.125407	0.085550	0.000023
C13	C	0.944114	0.020541	0.000583
C14	C	1.090676	0.022261	0.000047
C15	C	1.062750	0.116006	-0.132060
C16	C	0.916277	0.113846	-0.132156
C17	C	0.915716	0.115136	0.130865
C18	C	1.062678	0.115719	0.132597
C19	C	1.508994	-0.020045	0.000070
C20	C	1.507287	-0.083273	0.000080
C21	C	1.612557	-0.481681	0.000010
C22	C	1.610971	-0.541092	-0.000001
O23	O	1.708557	-0.577192	-0.000048
N24	N	1.494462	-0.564488	-0.000006
C25	C	1.379532	-0.528469	-0.000014
O26	O	1.280287	-0.553824	-0.000021
C27	C	1.381119	-0.469060	-0.000014
C28	C	1.497635	-0.445667	0.000005
C29	C	1.729064	-0.458288	0.000027
C30	C	1.730649	-0.398882	0.000040
C31	C	1.615727	-0.362868	0.000036
C32	C	1.499220	-0.386261	0.000019
C33	C	1.266190	-0.433042	-0.000032
C34	C	1.267787	-0.373629	-0.000032
C35	C	1.384303	-0.350237	-0.000013
C36	C	1.385883	-0.290840	0.000028
N37	N	1.502392	-0.267444	0.000032
C38	C	1.617314	-0.303458	0.000037
C39	C	1.376208	-0.653234	-0.000018
C40	C	1.374620	-0.712642	-0.000009
C41	C	1.606059	-0.725261	0.000002
C42	C	1.607646	-0.665851	0.000002
C43	C	1.492717	-0.629838	-0.000013
C44	C	1.620634	-0.178700	0.000066
C45	C	1.622209	-0.119287	0.000085
C46	C	1.390770	-0.106674	0.000067
C47	C	1.389194	-0.166081	0.000055
C48	C	1.504137	-0.202093	0.000050
O49	O	1.288349	-0.254705	0.000068
O50	O	1.716543	-0.278095	0.000025
C51	C	1.730530	0.080819	0.000049
C52	C	1.871422	0.082516	0.000045
C53	C	1.487835	0.188111	0.000008
C54	C	1.489542	0.251339	-0.000012
N55	N	1.498382	0.084035	0.360383
N56	N	1.498457	0.084026	-0.360302
C57	C	1.393237	0.130226	0.580734
C58	C	1.393459	0.130399	0.419567
C59	C	1.630662	0.097553	0.418834
C60	C	1.630087	0.097880	0.580052
C61	C	1.472575	0.024176	0.580312
C62	C	1.469515	0.024564	0.419085
H63	H	0.866988	0.160849	0.131743
H64	H	0.914735	-0.004357	-0.093599
H65	H	1.378260	0.011310	0.621049
H66	H	1.541225	-0.011468	0.378804
H67	H	1.825528	-0.379842	0.000050
H68	H	1.717094	-0.100245	0.000104
H69	H	1.714231	-0.208014	0.000056
H70	H	1.171310	-0.452077	-0.000056
H71	H	1.174194	-0.344309	-0.000047
H72	H	1.294317	-0.185128	0.000078
C73	C	1.090894	0.178795	-0.138729
N74	N	1.112096	0.226087	-0.143750
H75	H	1.297204	-0.077341	0.000068
H76	H	1.710791	0.064822	0.380495
H77	H	1.282612	-0.623914	-0.000019
C78	C	1.118940	0.085644	0.264607
N79	N	1.161313	0.062986	0.364034
H80	H	1.549315	-0.010211	0.618442
H81	H	1.822652	-0.487605	0.000025
H82	H	1.702524	-0.646810	0.000017
H83	H	1.699635	-0.754594	-0.000000
H84	H	1.279741	-0.731682	-0.000000
C85	C	1.259948	0.119418	0.633195
N86	N	1.159553	0.111279	0.672727
H87	H	1.134065	-0.001703	0.094731
C88	C	0.906577	-0.013237	0.128550
N89	N	0.878293	-0.038679	0.224937
C90	C	1.148161	-0.010342	-0.128072
N91	N	1.191458	-0.034898	-0.224579
H92	H	1.295109	0.122265	0.380050
C93	C	1.093380	0.178052	0.143368
N94	N	1.116513	0.225003	0.151478
H95	H	1.409901	0.174802	0.380974
C96	C	1.662378	0.155880	0.364272
N97	N	1.686256	0.199815	0.323183
H98	H	1.409455	0.174378	0.621220
C99	C	1.661028	0.156873	0.630818
N100	N	1.684323	0.201310	0.669048
C101	C	0.879178	0.083428	-0.265513
N102	N	0.851242	0.060514	-0.365958
C103	C	1.739013	0.054203	0.632746
N104	N	1.821069	0.021313	0.672429
C105	C	1.338059	0.010722	0.367486
N106	N	1.239044	0.000299	0.328616
H107	H	0.866815	0.159363	-0.138165
H108	H	1.106044	0.094848	-0.230346
H109	H	0.884830	0.094655	0.230983
