data_functionalizedCrystal
_audit_creation_method	'MofGen! by Chris Wilmer'
_symmetry_space_group_name_H-M	'P1'
_symmetry_Int_Tables_number	1
_symmetry_cell_setting	triclinic
loop_
_symmetry_equiv_pos_as_xyz
  x,y,z
_cell_length_a	29.839135
_cell_length_b	29.839131
_cell_length_c	25.639233
_cell_angle_alpha	90.027239
_cell_angle_beta	90.016634
_cell_angle_gamma	90.037758
loop_
_atom_site_label
_atom_site_type_symbol
_atom_site_fract_x
_atom_site_fract_y
_atom_site_fract_z
Zn1	Zn	0.686744	-0.178878	0.295634
Zn2	Zn	0.686683	-0.253992	0.208186
Zn3	Zn	0.611625	-0.178880	0.208207
Zn4	Zn	0.611583	-0.253985	0.295584
O5	O	0.649159	-0.216434	0.251903
O6	O	0.749603	-0.188844	0.284046
O7	O	0.676718	-0.244033	0.135023
O8	O	0.621633	-0.116013	0.219834
O9	O	0.749558	-0.244030	0.219798
O10	O	0.676823	-0.116011	0.284067
O11	O	0.621574	-0.188848	0.135039
O12	O	0.548753	-0.188841	0.219785
O13	O	0.621561	-0.244017	0.368756
O14	O	0.548721	-0.244020	0.283981
O15	O	0.676781	-0.188837	0.368793
O16	O	0.676677	-0.316858	0.219749
O17	O	0.621501	-0.316853	0.283961
C18	C	0.532436	-0.216430	0.251880
C19	C	0.482502	-0.216440	0.251883
C20	C	0.172879	-0.187742	0.285406
C21	C	-0.014794	-0.187745	0.285421
O22	O	-0.039042	-0.163335	0.313898
N23	N	-0.038283	-0.216434	0.251922
C24	C	-0.014851	-0.245123	0.218414
O25	O	-0.039136	-0.269522	0.189918
C26	C	0.172821	-0.245117	0.218397
C27	C	0.196308	-0.216429	0.251902
C28	C	0.196365	-0.159056	0.318908
C29	C	0.243281	-0.159057	0.318906
C30	C	0.266710	-0.187744	0.285402
C31	C	0.243223	-0.216430	0.251900
C32	C	0.196252	-0.273803	0.184888
C33	C	0.243173	-0.273798	0.184885
C34	C	0.266660	-0.245110	0.218390
C35	C	0.313567	-0.245119	0.218394
N36	N	0.337056	-0.216429	0.251893
C37	C	0.313628	-0.187742	0.285397
C38	C	-0.113382	-0.245124	0.218426
C39	C	-0.160300	-0.245126	0.218431
C40	C	-0.160239	-0.187748	0.285437
C41	C	-0.113321	-0.187748	0.285435
C42	C	-0.089893	-0.216435	0.251925
C43	C	0.412153	-0.187747	0.285390
C44	C	0.459073	-0.187752	0.285387
C45	C	0.459009	-0.245129	0.218379
C46	C	0.412093	-0.245126	0.218385
C47	C	0.388667	-0.216431	0.251892
O48	O	0.337844	-0.269513	0.189928
O49	O	0.337921	-0.163340	0.313881
C50	C	0.125963	-0.187740	0.285408
C51	C	0.102477	-0.216427	0.251906
C52	C	0.125905	-0.245114	0.218402
C53	C	0.055559	-0.216429	0.251911
C54	C	0.032130	-0.187741	0.285415
C55	C	0.055619	-0.159052	0.318914
C56	C	0.102535	-0.159053	0.318912
C57	C	0.102416	-0.273803	0.184903
C58	C	0.055501	-0.273800	0.184909
C59	C	0.032072	-0.245113	0.218412
C60	C	0.649090	-0.333156	0.251859
C61	C	0.649102	-0.383091	0.251857
C62	C	0.677890	-0.692698	0.285396
C63	C	0.677938	-0.880371	0.285428
O64	O	0.702347	-0.904606	0.313911
N65	N	0.649235	-0.903876	0.251961
C66	C	0.620515	-0.880459	0.218486
O67	O	0.596099	-0.904757	0.190025
C68	C	0.620465	-0.692787	0.218458
C69	C	0.649173	-0.669285	0.251923
C70	C	0.706595	-0.669196	0.318859
C71	C	0.706585	-0.622281	0.318849
C72	C	0.677868	-0.598867	0.285376
C73	C	0.649162	-0.622369	0.251913
C74	C	0.591743	-0.669371	0.184986
C75	C	0.591732	-0.622450	0.184983
C76	C	0.620441	-0.598948	0.218448
C77	C	0.620435	-0.552041	0.218429
N78	N	0.649138	-0.528536	0.251896
C79	C	0.677855	-0.551949	0.285369
C80	C	0.620545	-0.978990	0.218502
C81	C	0.620558	-1.025908	0.218509
C82	C	0.677980	-1.025816	0.285451
C83	C	0.677969	-0.978898	0.285442
C84	C	0.649248	-0.955485	0.251969
C85	C	0.677830	-0.453424	0.285345
C86	C	0.677818	-0.406504	0.285331
C87	C	0.620395	-0.406599	0.218390
C88	C	0.620408	-0.453515	0.218403
C89	C	0.649127	-0.476926	0.251884
O90	O	0.596035	-0.527777	0.189965
O91	O	0.702260	-0.527643	0.313835
C92	C	0.677900	-0.739614	0.285406
C93	C	0.649195	-0.763116	0.251943
C94	C	0.620478	-0.739702	0.218470
C95	C	0.649208	-0.810034	0.251950
C96	C	0.677924	-0.833447	0.285423
C97	C	0.706628	-0.809942	0.318890
C98	C	0.706617	-0.763027	0.318880
C99	C	0.591775	-0.763207	0.185003
C100	C	0.591788	-0.810122	0.185016
C101	C	0.620505	-0.833536	0.218489
C102	C	0.766337	-0.216437	0.251925
C103	C	0.816271	-0.216439	0.251935
C104	C	0.649173	-0.216426	0.388276
C105	C	0.649179	-0.216422	0.446390
C106	C	0.649240	-0.099255	0.251958
C107	C	0.649274	-0.049321	0.251982
C108	C	0.649170	-0.216409	0.116060
C109	C	0.649251	-0.216286	0.057946
C110	C	0.677969	-0.187604	0.806778
C111	C	0.677975	-0.187592	0.861382
O112	O	0.702417	-0.163143	0.889640
N113	N	0.649229	-0.216317	0.888672
C114	C	0.620472	-0.245053	0.861356
O115	O	0.596022	-0.269485	0.889582
C116	C	0.620465	-0.245063	0.806752
C117	C	0.649216	-0.216339	0.779465
C118	C	0.706718	-0.158883	0.779490
C119	C	0.706712	-0.158896	0.724890
C120	C	0.677959	-0.187631	0.697577
C121	C	0.649211	-0.216352	0.724864
C122	C	0.591706	-0.273797	0.779436
C123	C	0.591701	-0.273804	0.724829
C124	C	0.620452	-0.245080	0.697542
C125	C	0.620452	-0.245101	0.642951
N126	N	0.649198	-0.216375	0.615660
C127	C	0.677952	-0.187641	0.642973
C128	C	0.620490	-0.245030	0.976026
C129	C	0.620499	-0.245023	1.030629
C130	C	0.678001	-0.187561	1.030651
C131	C	0.677994	-0.187571	0.976048
C132	C	0.649236	-0.216305	0.948736
C133	C	0.677939	-0.187671	0.528308
C134	C	0.677933	-0.187688	0.473703
C135	C	0.620429	-0.245148	0.473685
C136	C	0.620437	-0.245133	0.528285
C137	C	0.649193	-0.216390	0.555596
O138	O	0.596022	-0.269536	0.614658
O139	O	0.702394	-0.163209	0.614740
H140	H	0.036535	-0.135695	0.346195
H141	H	0.701404	-0.164180	0.953834
H142	H	0.568294	-0.297187	0.801644
N143	N	0.589449	-0.478866	0.182303
H144	H	0.607726	-0.498329	0.158099
H145	H	0.571265	-0.456883	0.161130
N146	N	0.708944	-0.156705	0.444273
H147	H	0.704582	-0.161073	0.405537
H148	H	0.741024	-0.163699	0.453827
H149	H	0.729960	-0.603148	0.346101
H150	H	0.262246	-0.297158	0.157597
N151	N	0.708810	-0.478663	0.321457
H152	H	0.729649	-0.498122	0.300240
H153	H	0.690517	-0.498106	0.345669
H154	H	0.036382	-0.297165	0.157626
H155	H	0.701354	-0.164264	0.550538
H156	H	0.729994	-0.743895	0.346130
N157	N	0.737721	-0.127914	0.695462
H158	H	0.755934	-0.109710	0.721057
H159	H	0.719447	-0.107126	0.672811
N160	N	0.484282	-0.276065	0.182240
H161	H	0.476103	-0.308177	0.190281
H162	H	0.517559	-0.271670	0.187339
N163	N	0.560755	-0.597203	0.148874
H164	H	0.579021	-0.577734	0.124660
H165	H	0.539923	-0.577769	0.170128
N166	N	0.484405	-0.156808	0.321525
H167	H	0.503864	-0.175097	0.345713
H168	H	0.462412	-0.138641	0.342712
N169	N	0.386888	-0.156804	0.321533
H170	H	0.367429	-0.135954	0.300338
H171	H	0.408918	-0.138664	0.342748
N172	N	0.737738	-0.127891	0.808942
H173	H	0.733387	-0.132239	0.847676
H174	H	0.730769	-0.095808	0.799404
H175	H	0.729980	-0.688254	0.346120
H176	H	0.701413	-0.164162	1.052900
N177	N	0.589488	-0.276006	1.060051
H178	H	0.568683	-0.257744	1.082705
H179	H	0.607760	-0.296819	1.082675
H180	H	0.701363	-1.044887	0.312706
N181	N	0.589426	-0.381342	0.182285
H182	H	0.593777	-0.348054	0.187361
H183	H	0.557337	-0.389565	0.190388
N184	N	0.589433	-0.276110	0.557730
H185	H	0.596383	-0.308213	0.548230
H186	H	0.557350	-0.269094	0.548211
H187	H	-0.094201	-0.164387	0.312716
H188	H	0.597071	-0.268431	0.953792
N189	N	0.386753	-0.276068	0.182255
H190	H	0.394896	-0.308178	0.190301
H191	H	0.394924	-0.269006	0.144928
H192	H	-0.179323	-0.164390	0.312718
H193	H	0.568278	-0.297199	0.702595
N194	N	0.589595	-1.051252	0.182411
H195	H	0.593958	-1.084528	0.187491
H196	H	0.596607	-1.043062	0.145078
H197	H	0.701346	-0.959765	0.312693
H198	H	0.701198	-0.387370	0.312582
N199	N	0.127863	-0.128112	0.355050
H200	H	0.105896	-0.109940	0.376271
H201	H	0.147337	-0.107291	0.333816
H202	H	-0.094311	-0.268486	0.191138
H203	H	0.597020	-0.268544	0.451437
H204	H	0.177295	-0.135693	0.346191
N205	N	0.268610	-0.128113	0.355042
H206	H	0.246642	-0.109942	0.376262
H207	H	0.288082	-0.107294	0.333806
N208	N	0.560772	-0.694707	0.148893
H209	H	0.539944	-0.714178	0.170123
H210	H	0.579070	-0.714145	0.124687
N211	N	-0.185629	-0.276074	0.182301
H212	H	-0.163664	-0.294244	0.161076
H213	H	-0.205092	-0.257757	0.158147
N214	N	0.589570	-0.953739	0.182394
H215	H	0.557468	-0.961933	0.190475
H216	H	0.596615	-0.961931	0.145063
N217	N	0.170928	-0.304744	0.148748
H218	H	0.192896	-0.322911	0.127523
H219	H	0.151468	-0.286423	0.124594
N220	N	0.737602	-0.835194	0.354998
H221	H	0.758438	-0.854655	0.333780
H222	H	0.719300	-0.854636	0.379202
N223	N	0.560825	-0.835469	0.148914
H224	H	0.542633	-0.813513	0.127710
H225	H	0.540026	-0.854940	0.170178
H226	H	0.568390	-0.744147	0.157746
N227	N	0.127682	-0.304744	0.148763
H228	H	0.105679	-0.322916	0.127545
H229	H	0.147140	-0.325564	0.169996
