data_functionalizedCrystal
_audit_creation_method	'MofGen! by Chris Wilmer'
_symmetry_space_group_name_H-M	'P1'
_symmetry_Int_Tables_number	1
_symmetry_cell_setting	triclinic
loop_
_symmetry_equiv_pos_as_xyz
  x,y,z
_cell_length_a	16.992694
_cell_length_b	16.776229
_cell_length_c	17.699092
_cell_angle_alpha	89.998992
_cell_angle_beta	86.977295
_cell_angle_gamma	90.001719
loop_
_atom_site_label
_atom_site_type_symbol
_atom_site_fract_x
_atom_site_fract_y
_atom_site_fract_z
O1	O	1.040094	0.066184	0.160462
O2	O	0.811812	0.066207	0.158702
O3	O	0.932399	0.066193	0.049795
O4	O	0.919507	0.066198	0.269370
O5	O	0.932382	-0.066384	0.049800
O6	O	0.811795	-0.066369	0.158707
O7	O	1.040077	-0.066393	0.160468
Zn8	Zn	0.925933	-0.087431	0.159588
Zn9	Zn	0.925956	0.087245	0.159581
O10	O	0.919489	-0.066379	0.269375
C11	C	0.782595	-0.000078	0.156440
C12	C	0.695563	-0.000069	0.149683
N13	N	0.925923	-0.206642	0.159593
C14	C	0.979375	-0.751813	0.111366
C15	C	0.979371	-0.668361	0.111371
C16	C	0.925960	-0.626641	0.159578
C17	C	0.872555	-0.668378	0.207789
C18	C	0.872563	-0.751829	0.207787
C19	C	0.872522	-0.331831	0.207798
C20	C	0.872516	-0.248375	0.207794
C21	C	0.979329	-0.248363	0.111382
C22	C	0.979337	-0.331813	0.111380
C23	C	0.925935	-0.373543	0.159593
C24	C	0.925941	-0.464032	0.159588
C25	C	0.925950	-0.536154	0.159580
C26	C	0.645201	-0.000068	0.214880
C27	C	0.563426	-0.000079	0.208527
C28	C	0.532016	-0.000086	0.136975
C29	C	0.582385	-0.000089	0.071772
C30	C	0.664158	-0.000083	0.078127
C31	C	0.288467	-0.000108	0.110639
C32	C	0.206688	-0.000111	0.104289
C33	C	0.187735	-0.000103	0.241044
C34	C	0.269510	-0.000092	0.247392
C35	C	0.319872	-0.000100	0.182190
N36	N	0.448429	-0.000095	0.130479
N37	N	0.403457	-0.000097	0.188687
C38	C	1.069294	-0.000106	0.162730
C39	C	1.156325	-0.000110	0.169487
C40	C	0.931927	-0.000094	0.021572
C41	C	0.930538	-0.000090	-0.062533
N42	N	0.925972	0.206456	0.159571
C43	C	0.929897	0.072178	-0.102043
C44	C	0.928587	0.072179	-0.181068
C45	C	0.927923	-0.000089	-0.220581
C46	C	0.928562	-0.072363	-0.181064
C47	C	0.929867	-0.072363	-0.102041
C48	C	0.923300	-0.072364	-0.499757
C49	C	0.921997	-0.072358	-0.578786
C50	C	0.922019	0.072179	-0.578784
C51	C	0.923324	0.072179	-0.499761
C52	C	0.923959	-0.000095	-0.460251
C53	C	0.925378	-0.000095	-0.374563
C54	C	0.926510	-0.000090	-0.306267
C55	C	0.919961	-0.000090	0.297598
C56	C	0.921350	-0.000089	0.381702
H57	H	1.022855	-0.634383	0.072120
H58	H	0.146722	-0.000098	0.294128
O59	O	0.921206	-0.142586	-0.617123
C60	C	0.853648	-0.186543	-0.593334
H61	H	0.806578	-0.144246	-0.568491
H62	H	0.829999	-0.219318	-0.643804
H63	H	0.869737	-0.231610	-0.548473
O64	O	0.514469	-0.000212	0.271835
C65	C	0.466588	-0.068866	0.272254
H66	H	0.496611	-0.116864	0.235378
H67	H	0.457273	-0.091902	0.332661
H68	H	0.407161	-0.053350	0.249063
H69	H	0.928068	0.131027	-0.213234
H70	H	0.829079	-0.785806	0.247041
H71	H	0.670768	-0.000063	0.273145
H72	H	0.923868	0.131027	-0.467593
H73	H	0.930378	-0.131212	-0.069871
O74	O	0.921250	0.142364	-0.617195
C75	C	0.852628	0.146681	-0.658450
H76	H	0.805578	0.105676	-0.631507
H77	H	0.829837	0.210602	-0.657853
H78	H	0.866978	0.127258	-0.719349
H79	H	0.829039	-0.365801	0.247053
O80	O	0.820701	-0.627731	0.254546
C81	C	0.832154	-0.545126	0.244224
H82	H	0.861571	-0.533723	0.185845
H83	H	0.772764	-0.513420	0.249018
H84	H	0.871388	-0.521438	0.289460
O85	O	0.923789	-0.142550	-0.461348
C86	C	0.856681	-0.146879	-0.411159
H87	H	0.808848	-0.105862	-0.431842
H88	H	0.833911	-0.210798	-0.408776
H89	H	0.873017	-0.127478	-0.352274
O90	O	0.712971	-0.000045	0.014717
C91	C	0.667715	-0.000069	-0.049800
H92	H	0.606645	0.025027	-0.034286
H93	H	0.697971	0.038421	-0.095787
H94	H	0.661935	-0.063674	-0.071497
H95	H	0.930441	0.131027	-0.069878
H96	H	0.928017	-0.131205	-0.213242
H97	H	0.181117	-0.000115	0.046020
O98	O	0.299889	-0.000126	0.316956
C99	C	0.237901	-0.000108	0.373141
H100	H	0.182389	-0.025212	0.348569
H101	H	0.254901	-0.038596	0.422800
H102	H	0.226289	0.063495	0.393486
O103	O	0.337270	-0.000076	0.047227
C104	C	0.292008	-0.000101	-0.017286
H105	H	0.230940	0.025000	-0.001768
H106	H	0.322262	0.038386	-0.063277
H107	H	0.286221	-0.063706	-0.038980
O108	O	0.551745	-0.000061	0.002324
C109	C	0.468770	-0.000083	0.010694
H110	H	0.449455	0.025019	0.068588
H111	H	0.443746	0.038404	-0.035391
H112	H	0.446014	-0.063688	0.005654
O113	O	1.031297	-0.372215	0.064529
C114	C	1.078420	-0.317486	0.021969
H115	H	1.079239	-0.257999	0.053050
H116	H	1.141052	-0.341590	0.014249
H117	H	1.053074	-0.308614	-0.035805
H118	H	0.829021	-0.214408	0.247053
O119	O	1.031223	-0.792250	0.064430
C120	C	1.018606	-0.771870	-0.011263
H121	H	0.988383	-0.711282	-0.013011
H122	H	1.077605	-0.769008	-0.044937
H123	H	0.979629	-0.818839	-0.037049
O124	O	1.031152	-0.207702	0.064593
C125	C	1.019669	-0.125100	0.074900
H126	H	0.990297	-0.113694	0.133295
H127	H	1.079043	-0.093363	0.070049
H128	H	0.980384	-0.101448	0.029690
