data_functionalizedCrystal
_audit_creation_method	'MofGen! by Chris Wilmer'
_symmetry_space_group_name_H-M	'P1'
_symmetry_Int_Tables_number	1
_symmetry_cell_setting	triclinic
loop_
_symmetry_equiv_pos_as_xyz
  x,y,z
_cell_length_a	6.817900
_cell_length_b	11.102244
_cell_length_c	11.102193
_cell_angle_alpha	91.948308
_cell_angle_beta	108.604059
_cell_angle_gamma	108.604870
loop_
_atom_site_label
_atom_site_type_symbol
_atom_site_fract_x
_atom_site_fract_y
_atom_site_fract_z
V1	V	-4.111508	-0.175848	-0.396254
O2	O	-4.070548	0.008441	-0.388715
O3	O	-4.088279	-0.348667	-0.393541
O4	O	-4.088283	-0.173147	-0.569076
O5	O	-4.070544	-0.168295	-0.211964
V6	V	-4.588613	-0.153804	-0.374212
O7	O	-4.386847	-0.224202	-0.444605
O8	O	-4.763472	-0.105450	-0.325861
O9	O	-4.388635	0.019015	-0.376925
O10	O	-4.746970	-0.338092	-0.381752
O11	O	-4.746973	-0.161357	-0.558502
O12	O	-4.388632	-0.156505	-0.201390
C13	C	-3.938589	-0.390797	-0.387289
C14	C	-4.001051	-0.532079	-0.386222
C15	C	-3.970229	-0.580311	-0.269342
C16	C	-4.028934	-0.713063	-0.268354
C17	C	-4.149274	-0.749341	-0.501139
C18	C	-4.090584	-0.616591	-0.502125
C19	C	-3.900743	-0.559367	-0.134945
C20	C	-3.959448	-0.692119	-0.133958
C21	C	-3.938592	-0.166901	-0.611200
C22	C	-4.001052	-0.165837	-0.752482
C23	C	-4.121373	-0.398614	-0.788805
C24	C	-4.210868	-0.514497	-0.873339
C25	C	-4.269554	-0.513490	-1.006085
C26	C	-4.238746	-0.396587	-1.054298
C27	C	-4.149251	-0.280703	-0.969764
C28	C	-4.090563	-0.281723	-0.837017
C29	C	-4.028946	-0.047929	-0.933442
C30	C	-3.970244	-0.048934	-0.800695
C31	C	-3.998138	0.068974	-0.981656
C32	C	-3.908626	0.184860	-0.897121
C33	C	-3.849937	0.183848	-0.764368
C34	C	-3.880749	0.066950	-0.716162
C35	C	-4.201668	0.061138	-0.383174
C36	C	-4.118445	0.202419	-0.384249
C37	C	-4.201664	-0.162754	-0.159260
C38	C	-4.118441	-0.163813	-0.017976
H39	H	-4.073562	-0.399445	-0.680717
H40	H	-3.999404	-0.520271	-0.088473
H41	H	-3.807429	-0.715137	-0.077229
O42	O	-3.878662	0.298517	-0.943744
C43	C	-3.753036	0.529303	-0.893718
C44	C	-3.786894	0.400675	-0.840741
H45	H	-3.678795	0.611933	-0.810465
H46	H	-3.918767	0.530796	-0.959868
H47	H	-3.636330	0.540403	-0.950051
H48	H	-3.903518	0.389491	-0.784349
H49	H	-3.621077	0.399240	-0.774660
H50	H	-4.342431	-0.607852	-1.074914
H51	H	-3.777076	0.278214	-0.695546
O52	O	-4.240567	-0.628153	-0.826705
C53	C	-4.364896	-0.858891	-0.876702
C54	C	-4.331719	-0.730282	-0.929693
H55	H	-4.438552	-0.941494	-0.959940
H56	H	-4.481669	-0.870420	-0.820360
H57	H	-4.198857	-0.859956	-0.810556
H58	H	-4.497649	-0.729127	-0.995892
H59	H	-4.214844	-0.718805	-0.985960
O60	O	-4.295799	-0.395834	-1.183279
C61	C	-4.446190	-0.522112	-1.393711
C62	C	-4.381624	-0.523151	-1.247668
H63	H	-4.515636	-0.625038	-1.445813
H64	H	-4.294228	-0.465455	-1.416823
H65	H	-4.576656	-0.475062	-1.426618
H66	H	-4.251215	-0.570222	-1.214658
H67	H	-4.533695	-0.579767	-1.224638
O68	O	-4.236174	-0.831613	-0.613601
C69	C	-4.380065	-1.052203	-0.715255
C70	C	-4.281629	-0.959177	-0.587795
H71	H	-4.416887	-1.155359	-0.694437
H72	H	-4.256941	-1.030177	-0.767996
H73	H	-4.539398	-1.039935	-0.777709
H74	H	-4.122320	-0.971393	-0.525242
H75	H	-4.404899	-0.981227	-0.535155
H76	H	-3.715226	-0.506565	-0.088529
O77	O	-3.823537	0.066198	-0.587175
C78	C	-3.673458	0.192454	-0.376749
C79	C	-3.738094	0.193499	-0.522794
H80	H	-3.604407	0.295364	-0.324656
H81	H	-3.542801	0.145554	-0.343705
H82	H	-3.825484	0.135649	-0.353775
H83	H	-3.586203	0.250320	-0.545877
H84	H	-3.868829	0.240352	-0.555761
H85	H	-4.115703	-0.577328	-0.597301
H86	H	-4.045944	0.069785	-1.089746
H87	H	-4.101851	-0.731920	-0.096966
