data_functionalizedCrystal
_audit_creation_method	'MofGen! by Chris Wilmer'
_symmetry_space_group_name_H-M	'P1'
_symmetry_Int_Tables_number	1
_symmetry_cell_setting	triclinic
loop_
_symmetry_equiv_pos_as_xyz
  x,y,z
_cell_length_a	11.804365
_cell_length_b	11.026607
_cell_length_c	11.026607
_cell_angle_alpha	108.586017
_cell_angle_beta	104.484635
_cell_angle_gamma	75.502485
loop_
_atom_site_label
_atom_site_type_symbol
_atom_site_fract_x
_atom_site_fract_y
_atom_site_fract_z
O1	O	0.099024	-1.746857	-0.513518
O2	O	0.099026	-1.380277	-0.452754
O3	O	0.099021	-1.533184	-0.299847
O4	O	0.099029	-1.593949	-0.666425
O5	O	-0.099034	-1.492918	-0.340050
O6	O	-0.099028	-1.340011	-0.492957
O7	O	-0.099030	-1.706591	-0.553721
Cu8	Cu	-0.117113	-1.519624	-0.527010
Cu9	Cu	0.117109	-1.567243	-0.479465
O10	O	-0.099025	-1.553684	-0.706628
C11	C	-0.000001	-1.312485	-0.461646
C12	C	-0.000000	-1.170471	-0.428228
N13	N	-0.281853	-1.486141	-0.560451
C14	C	-0.000005	-1.501842	-0.272288
C15	C	-0.000000	-1.468426	-0.130273
C16	C	-0.655808	-1.681136	-0.365686
C17	C	-0.531147	-1.706464	-0.340382
C18	C	-0.468817	-1.651385	-0.395397
C19	C	-0.531161	-1.570974	-0.475721
C20	C	-0.655834	-1.545652	-0.501036
C21	C	-0.468843	-1.515901	-0.530746
C22	C	-0.531187	-1.435491	-0.611070
C23	C	-0.655847	-1.410172	-0.636380
C24	C	-0.718177	-1.465251	-0.581365
C25	C	-0.344170	-1.541223	-0.505431
C26	C	-0.344196	-1.405740	-0.640780
C27	C	-0.468857	-1.380412	-0.666085
N28	N	0.281849	-1.600735	-0.446016
C29	C	-0.000001	-1.774384	-0.544829
C30	C	0.000006	-1.916399	-0.578244
C31	C	0.000003	-1.116822	-0.520497
C32	C	0.000004	-0.970043	-0.485962
C33	C	0.000003	-1.585027	-0.734186
C34	C	0.000007	-1.618444	-0.876199
C35	C	0.000001	-1.560696	-0.076624
C36	C	0.000005	-1.526161	0.070156
H37	H	-0.293421	-1.606693	-0.440032
O38	O	-0.000007	-0.886967	-0.347444
H39	H	0.080720	-0.842104	-0.311424
H40	H	0.000028	-1.107743	-0.323660
H41	H	-0.000002	-1.179554	-0.625061
O42	O	-0.723112	-1.323471	-0.723033
H43	H	-0.779882	-1.379142	-0.808239
H44	H	-0.000007	-1.665257	-0.139359
O45	O	-0.000005	-1.329916	-0.047184
H46	H	0.080721	-1.298227	-0.051450
H47	H	0.000014	-1.421593	0.132886
O48	O	0.000013	-0.999473	-0.716763
H49	H	0.000021	-1.101724	-0.722154
O50	O	-0.000001	-1.756963	0.040727
H51	H	-0.000013	-1.762353	-0.061525
O52	O	-0.334361	-1.678676	-0.368090
H53	H	-0.301481	-1.743828	-0.302980
O54	O	-0.536114	-1.293707	-0.752736
H55	H	-0.512173	-1.336506	-0.850771
H56	H	-0.480392	-1.771934	-0.274985
H57	H	-0.706565	-1.725982	-0.320908
O58	O	-0.852638	-1.437944	-0.608656
H59	H	-0.885526	-1.331611	-0.574088
O60	O	-0.276988	-1.346303	-0.700108
H61	H	-0.179827	-1.377401	-0.668994
