data_functionalizedCrystal
_audit_creation_method	'MofGen! by Chris Wilmer'
_symmetry_space_group_name_H-M	'P1'
_symmetry_Int_Tables_number	1
_symmetry_cell_setting	triclinic
loop_
_symmetry_equiv_pos_as_xyz
  x,y,z
_cell_length_a	13.032831
_cell_length_b	21.295417
_cell_length_c	13.033109
_cell_angle_alpha	97.148977
_cell_angle_beta	76.665514
_cell_angle_gamma	82.834379
loop_
_atom_site_label
_atom_site_type_symbol
_atom_site_fract_x
_atom_site_fract_y
_atom_site_fract_z
Zn1	Zn	1.699936	-0.442513	-0.806304
Zn2	Zn	1.677232	-0.532462	-0.628666
Zn3	Zn	1.499773	-0.411896	-0.606204
Zn4	Zn	1.522247	-0.532406	-0.783710
O5	O	1.599797	-0.479819	-0.706221
O6	O	1.845556	-0.467281	-0.801596
O7	O	1.634785	-0.503679	-0.477057
O8	O	1.526421	-0.327880	-0.632804
O9	O	1.828875	-0.533366	-0.671086
O10	O	1.673480	-0.350374	-0.779816
O11	O	1.504406	-0.415100	-0.460555
O12	O	1.354123	-0.415046	-0.610895
O13	O	1.564725	-0.533272	-0.935336
O14	O	1.370635	-0.503584	-0.741307
O15	O	1.695273	-0.467227	-0.951935
O16	O	1.656577	-0.620532	-0.649177
O17	O	1.542710	-0.620491	-0.763087
C18	C	1.323841	-0.455987	-0.671213
C19	C	1.205789	-0.445809	-0.656261
C20	C	1.599650	-0.643354	-0.706144
C21	C	1.599689	-0.713326	-0.706159
C22	C	1.161342	-0.485131	-0.714024
C23	C	1.039329	-0.474613	-0.698572
C24	C	1.659049	-0.746204	-0.646924
C25	C	1.659102	-0.811953	-0.646954
C26	C	1.599775	-0.844819	-0.706206
C27	C	1.540412	-0.811933	-0.765455
C28	C	1.540369	-0.746187	-0.765431
N29	N	1.507889	-0.940762	-0.702516
N30	N	1.507932	-1.003218	-0.702532
C31	C	1.599901	-1.042909	-0.706282
N32	N	1.691826	-1.017783	-0.709995
N33	N	1.691782	-0.955320	-0.709973
C34	C	1.599815	-0.916110	-0.706239
C35	C	1.659324	-1.147080	-0.647076
C36	C	1.659379	-1.212830	-0.647114
C37	C	1.540679	-1.212808	-0.765608
C38	C	1.540634	-1.147060	-0.765577
C39	C	1.599954	-1.114199	-0.706305
C40	C	1.876831	-0.503745	-0.741366
C41	C	1.994887	-0.513941	-0.756343
C42	C	1.635039	-0.503658	-0.983251
C43	C	1.650057	-0.513817	-1.101304
C44	C	1.599976	-0.315651	-0.706324
C45	C	1.600053	-0.245692	-0.706369
C46	C	1.592243	-0.474519	-1.145772
C47	C	1.607763	-0.485018	-1.267786
C48	C	1.564754	-0.456033	-0.430276
C49	C	1.549942	-0.445714	-0.312249
H50	H	0.987056	-0.433155	-0.637680
H51	H	1.531253	-0.433105	-1.093510
H52	H	1.668753	-0.526438	-1.320043
H53	H	1.707630	-1.120324	-0.598817
H54	H	1.707354	-0.719451	-0.598664
C55	C	1.476023	-0.847720	-0.829675
C56	C	1.488740	-0.912332	-0.816993
C57	C	1.429433	-0.945315	-0.876132
H58	H	1.500522	-0.844471	-0.903046
H59	H	1.402656	-0.829518	-0.805005
H60	H	1.562092	-0.930528	-0.841668
H61	H	1.464236	-0.915599	-0.743636
H62	H	1.356066	-0.927114	-0.851463
H63	H	1.453937	-0.942062	-0.949500
H64	H	1.438046	-0.989157	-0.867528
C65	C	1.064541	-0.569151	-0.837717
C66	C	1.051059	-0.562278	-0.939468
C67	C	1.115216	-0.613120	-1.014456
H68	H	1.044454	-0.608567	-0.819903
H69	H	1.137305	-0.568879	-0.837387
H70	H	0.978311	-0.562557	-0.939795
H71	H	1.071153	-0.522872	-0.957315
H72	H	1.187980	-0.612847	-1.014127
H73	H	1.095123	-0.652532	-0.996633
H74	H	1.106084	-0.608460	-1.083504
C75	C	1.231006	-0.540338	-0.795392
C76	C	1.217528	-0.533465	-0.897146
C77	C	1.281694	-0.584304	-0.972133
H78	H	1.210923	-0.579755	-0.777581
H79	H	1.303768	-0.540061	-0.795059
H80	H	1.144782	-0.533747	-0.897477
H81	H	1.237618	-0.494058	-0.914990
H82	H	1.354456	-0.584028	-0.971799
H83	H	1.261605	-0.623718	-0.954312
H84	H	1.272566	-0.579645	-1.041182
H85	H	1.492031	-0.719417	-0.813669
C86	C	1.723573	-0.847539	-0.582520
C87	C	1.775493	-0.804685	-0.530589
C88	C	1.834879	-0.837439	-0.471211
H89	H	1.775088	-0.880644	-0.628951
H90	H	1.677112	-0.865713	-0.531020
H91	H	1.821949	-0.786521	-0.582083
H92	H	1.724003	-0.771579	-0.484141
H93	H	1.788418	-0.855614	-0.419711
H94	H	1.886388	-0.870544	-0.517649
H95	H	1.870106	-0.808367	-0.435961
C96	C	1.468705	-0.390503	-1.242405
C97	C	1.469482	-0.391052	-1.135273
C98	C	1.394672	-0.340197	-1.070904
H99	H	1.399562	-0.395045	-1.251340
H100	H	1.486587	-0.351086	-1.262468
H101	H	1.451593	-0.430459	-1.115216
H102	H	1.538607	-0.386500	-1.126304
H103	H	1.412555	-0.300780	-1.090967
H104	H	1.325535	-0.344744	-1.079848
H105	H	1.395197	-0.340559	-0.998209
H106	H	1.711042	-0.555235	-1.153565
H107	H	1.707724	-1.239600	-0.598880
C108	C	1.135905	-0.390597	-0.575067
C109	C	1.028775	-0.391158	-0.575850
C110	C	0.964369	-0.340313	-0.501051
H111	H	1.155911	-0.351172	-0.592927
H112	H	1.144869	-0.395159	-0.505927
H113	H	1.019816	-0.386591	-0.644975
H114	H	1.008737	-0.430571	-0.557978
H115	H	0.973333	-0.344875	-0.431910
H116	H	0.984384	-0.300892	-0.518918
H117	H	0.891674	-0.340691	-0.501565
C118	C	1.476296	-1.248590	-0.829836
C119	C	1.489020	-1.313204	-0.817164
C120	C	1.429720	-1.346188	-0.876310
H121	H	1.500796	-1.245338	-0.903205
H122	H	1.402927	-1.230392	-0.805167
H123	H	1.562374	-1.331397	-0.841838
H124	H	1.464515	-1.316475	-0.743807
H125	H	1.356351	-1.327989	-0.851641
H126	H	1.454224	-1.342931	-0.949676
H127	H	1.438337	-1.390030	-0.867712
H128	H	1.492292	-1.120288	-0.813807
