data_functionalizedCrystal
_audit_creation_method	'MofGen! by Chris Wilmer'
_symmetry_space_group_name_H-M	'P1'
_symmetry_Int_Tables_number	1
_symmetry_cell_setting	triclinic
loop_
_symmetry_equiv_pos_as_xyz
  x,y,z
_cell_length_a	10.685904
_cell_length_b	10.686285
_cell_length_c	12.759393
_cell_angle_alpha	85.604170
_cell_angle_beta	85.604225
_cell_angle_gamma	89.665902
loop_
_atom_site_label
_atom_site_type_symbol
_atom_site_fract_x
_atom_site_fract_y
_atom_site_fract_z
Zn1	Zn	1.956350	-0.352387	-0.696637
Zn2	Zn	1.972347	-0.562196	-0.508606
Zn3	Zn	1.746560	-0.368521	-0.506530
Zn4	Zn	1.762658	-0.578175	-0.669818
O5	O	1.859479	-0.465320	-0.595398
O6	O	2.134026	-0.366779	-0.683786
O7	O	1.942354	-0.536569	-0.361302
O8	O	1.760957	-0.190833	-0.542104
O9	O	2.145779	-0.520925	-0.545640
O10	O	1.915089	-0.178980	-0.681774
O11	O	1.776469	-0.394277	-0.359778
O12	O	1.573141	-0.409771	-0.516099
O13	O	1.788394	-0.548159	-0.820403
O14	O	1.584968	-0.563803	-0.636065
O15	O	1.930699	-0.382273	-0.840107
O16	O	1.957964	-0.739863	-0.519635
O17	O	1.803906	-0.751602	-0.638077
C18	C	1.533536	-0.490272	-0.572947
C19	C	1.394098	-0.500978	-0.563366
C20	C	1.884451	-0.791247	-0.576196
C21	C	1.895249	-0.930672	-0.568025
C22	C	2.186694	-0.440270	-0.617936
C23	C	2.326134	-0.429596	-0.627541
C24	C	1.859557	-0.465199	-0.869444
C25	C	1.859591	-0.465147	-0.986226
C26	C	1.834443	-0.138117	-0.614699
C27	C	1.823774	0.001318	-0.622924
C28	C	1.945969	-0.539203	-1.041888
C29	C	1.946001	-0.539138	-1.151618
C30	C	1.773266	-0.390959	-1.150014
C31	C	1.773241	-0.391018	-1.040287
C32	C	2.097416	-0.572556	-1.309131
C33	C	2.183784	-0.646632	-1.364795
C34	C	2.212400	-0.767582	-1.323298
C35	C	2.154632	-0.814482	-1.226135
C36	C	2.068255	-0.740413	-1.170476
C37	C	2.039661	-0.619444	-1.211975
C38	C	1.621825	-0.357614	-0.882771
C39	C	1.535441	-0.283551	-0.827109
C40	C	1.506812	-0.162600	-0.868604
C41	C	1.564558	-0.115706	-0.965768
C42	C	1.650942	-0.189769	-1.021430
C43	C	1.679573	-0.310718	-0.979928
C44	C	1.859466	-0.465344	-0.322428
C45	C	1.859648	-0.465023	-0.205684
H46	H	1.345611	-0.570275	-0.501092
F47	F	1.986024	-0.993986	-0.498401
H48	H	2.016291	-0.599552	-0.997876
F49	F	1.389512	-0.339002	-0.708936
H50	H	1.754321	-0.950246	-0.676179
F51	F	2.006785	-0.790315	-1.067070
F52	F	1.534088	0.013024	-1.009934
H53	H	2.230820	-0.608433	-1.443905
F54	F	2.185080	-0.943222	-1.181984
F55	F	2.304318	-0.846418	-1.382545
H56	H	2.074135	-0.474063	-1.342922
F57	F	1.681368	-0.312074	-1.207559
F58	F	1.712406	-0.139854	-1.124840
F59	F	1.414868	-0.083779	-0.809359
H60	H	1.488411	-0.321748	-0.747998
F61	F	1.652295	-0.486345	-0.838599
