data_functionalizedCrystal
_audit_creation_method	'MofGen! by Chris Wilmer'
_symmetry_space_group_name_H-M	'P1'
_symmetry_Int_Tables_number	1
_symmetry_cell_setting	triclinic
loop_
_symmetry_equiv_pos_as_xyz
  x,y,z
_cell_length_a	6.817900
_cell_length_b	11.102288
_cell_length_c	9.582906
_cell_angle_alpha	90.973434
_cell_angle_beta	111.207526
_cell_angle_gamma	108.605689
loop_
_atom_site_label
_atom_site_type_symbol
_atom_site_fract_x
_atom_site_fract_y
_atom_site_fract_z
V1	V	-4.142625	-0.175309	-0.466603
O2	O	-4.101066	0.008969	-0.457721
O3	O	-4.119190	-0.348133	-0.463412
O4	O	-4.132968	-0.172373	-0.670105
O5	O	-4.087192	-0.168007	-0.249597
V6	V	-4.617998	-0.153296	-0.440647
O7	O	-4.421761	-0.223598	-0.523539
O8	O	-4.789059	-0.105007	-0.383711
O9	O	-4.418227	0.019528	-0.443838
O10	O	-4.776955	-0.337575	-0.449530
O11	O	-4.790828	-0.160598	-0.657653
O12	O	-4.404449	-0.156232	-0.237146
C13	C	-3.969010	-0.390271	-0.456051
C14	C	-4.031394	-0.531556	-0.454798
C15	C	-4.245207	-0.604396	-0.461676
C16	C	-4.303817	-0.737149	-0.460511
C17	C	-3.934776	-0.724208	-0.445584
C18	C	-3.876175	-0.591459	-0.446760
C19	C	-3.986584	-0.166071	-0.719706
C20	C	-4.060137	-0.164814	-0.886070
C21	C	-4.231749	0.061660	-0.451195
C22	C	-4.148606	0.202943	-0.452457
C23	C	-4.214174	-0.162538	-0.187536
C24	C	-4.119859	-0.163789	-0.021171
H25	H	-3.702059	-0.532150	-0.441164
H26	H	-4.477921	-0.796451	-0.466114
H27	H	-3.808409	-0.772997	-0.439036
F28	F	-4.410412	-0.540649	-0.470241
