data_functionalizedCrystal
_audit_creation_method	'MofGen! by Chris Wilmer'
_symmetry_space_group_name_H-M	'P1'
_symmetry_Int_Tables_number	1
_symmetry_cell_setting	triclinic
loop_
_symmetry_equiv_pos_as_xyz
  x,y,z
_cell_length_a	19.288864
_cell_length_b	19.288857
_cell_length_c	17.766277
_cell_angle_alpha	89.991474
_cell_angle_beta	89.976791
_cell_angle_gamma	83.134677
loop_
_atom_site_label
_atom_site_type_symbol
_atom_site_fract_x
_atom_site_fract_y
_atom_site_fract_z
O1	O	0.921351	0.086649	-0.062839
O2	O	1.254684	0.419982	0.270494
O3	O	1.588017	0.753316	0.603828
O4	O	0.719090	0.098338	-0.062788
O5	O	1.052423	0.431671	0.270545
O6	O	1.385756	0.765005	0.603879
O7	O	0.826067	-0.008637	-0.062806
O8	O	1.159401	0.324696	0.270527
O9	O	1.492734	0.658029	0.603861
O10	O	0.814373	0.193624	-0.062821
O11	O	1.147706	0.526957	0.270512
O12	O	1.481040	0.860291	0.603846
O13	O	0.826049	-0.008643	0.062382
O14	O	1.159382	0.324691	0.395716
O15	O	1.492715	0.658024	0.729049
O16	O	0.719071	0.098332	0.062400
O17	O	1.052404	0.431666	0.395734
O18	O	1.385738	0.764999	0.729067
O19	O	0.921332	0.086644	0.062349
O20	O	1.254665	0.419977	0.395683
O21	O	1.587999	0.753310	0.729016
Cu22	Cu	0.820200	0.092488	0.073806
Cu23	Cu	1.153533	0.425821	0.407139
Cu24	Cu	1.486866	0.759154	0.740472
Cu25	Cu	0.820222	0.092494	-0.074244
Cu26	Cu	1.153555	0.425827	0.259089
Cu27	Cu	1.486889	0.759161	0.592422
O28	O	0.814354	0.193619	0.062367
O29	O	1.147688	0.526952	0.395701
O30	O	1.481021	0.860285	0.729034
C31	C	0.693204	0.097959	-0.000187
C32	C	1.026537	0.431292	0.333146
C33	C	1.359871	0.764626	0.666479
C34	C	0.616100	0.096830	-0.000167
C35	C	0.949434	0.430163	0.333166
C36	C	1.282767	0.763497	0.666499
C37	C	0.571402	0.159598	-0.000184
C38	C	0.904736	0.492931	0.333149
C39	C	1.238069	0.826265	0.666483
C40	C	0.498955	0.158537	-0.000192
C41	C	0.832289	0.491871	0.333141
C42	C	1.165622	0.825204	0.666474
C43	C	0.471210	0.094705	-0.000199
C44	C	0.804543	0.428038	0.333134
C45	C	1.137876	0.761372	0.666468
C46	C	0.515917	0.031929	-0.000178
C47	C	0.849251	0.365262	0.333155
C48	C	1.182584	0.698595	0.666488
C49	C	0.588363	0.032991	-0.000162
C50	C	0.921696	0.366325	0.333171
C51	C	1.255029	0.699658	0.666504
C52	C	0.362955	0.044528	-0.044080
C53	C	0.696289	0.377861	0.289254
C54	C	1.029622	0.711194	0.622587
C55	C	0.290511	0.043468	-0.044100
C56	C	0.623844	0.376801	0.289233
C57	C	0.957178	0.710134	0.622567
C58	C	0.247764	0.091425	-0.000244
C59	C	0.581097	0.424759	0.333089
C60	C	0.914431	0.758092	0.666422
C61	C	0.277469	0.140455	0.043622
C62	C	0.610802	0.473788	0.376955
C63	C	0.944135	0.807121	0.710289
C64	C	0.349914	0.141517	0.043638
C65	C	0.683248	0.474851	0.376971
C66	C	1.016581	0.808184	0.710305
C67	C	0.392656	0.093546	-0.000216
C68	C	0.725989	0.426879	0.333118
C69	C	1.059322	0.760213	0.666451
C70	C	0.124510	0.153048	-0.000269
C71	C	0.457843	0.486381	0.333065
C72	C	0.791177	0.819714	0.666398
C73	C	0.052062	0.151984	-0.000272
C74	C	0.385395	0.485318	0.333061
C75	C	0.718729	0.818651	0.666394
C76	C	0.069026	0.025374	-0.000266
C77	C	0.402359	0.358707	0.333067
C78	C	0.735692	0.692041	0.666401
C79	C	0.141472	0.026439	-0.000255
C80	C	0.474805	0.359772	0.333079
C81	C	0.808139	0.693106	0.666412
C82	C	0.169210	0.090278	-0.000260
C83	C	0.502543	0.423611	0.333074
C84	C	0.835876	0.756945	0.666407
C85	C	0.825683	-0.034516	-0.000211
C86	C	1.159016	0.298817	0.333122
C87	C	1.492349	0.632150	0.666456
C88	C	0.824556	-0.111620	-0.000209
C89	C	1.157889	0.221713	0.333125
C90	C	1.491222	0.555046	0.666458
C91	C	0.824040	-0.147828	-0.068449
C92	C	1.157373	0.185505	0.264885
C93	C	1.490707	0.518839	0.598218
C94	C	0.822971	-0.220274	-0.068454
C95	C	1.156305	0.113059	0.264879
C96	C	1.489638	0.446393	0.598213
C97	C	0.822432	-0.256511	-0.000215
C98	C	1.155766	0.076822	0.333118
C99	C	1.489099	0.410155	0.666451
C100	C	0.822944	-0.220295	0.068034
C101	C	1.156278	0.113039	0.401367
C102	C	1.489611	0.446372	0.734701
C103	C	0.824006	-0.147849	0.068037
C104	C	1.157339	0.185484	0.401371
C105	C	1.490673	0.518818	0.734704
C106	C	0.861426	-0.376745	0.052050
C107	C	1.194759	-0.043412	0.385383
C108	C	1.528093	0.289921	0.718716
C109	C	0.860369	-0.449190	0.052044
C110	C	1.193702	-0.115857	0.385377
C111	C	1.527035	0.217477	0.718710
C112	C	0.819155	-0.479957	-0.000223
C113	C	1.152488	-0.146624	0.333110
C114	C	1.485821	0.186709	0.666444
C115	C	0.779007	-0.438272	-0.052496
C116	C	1.112340	-0.104939	0.280837
C117	C	1.445674	0.228395	0.614171
C118	C	0.780069	-0.365827	-0.052493
C119	C	1.113402	-0.032493	0.280841
C120	C	1.446735	0.300840	0.614174
C121	C	0.821281	-0.335066	-0.000211
C122	C	1.154614	-0.001733	0.333122
C123	C	1.487947	0.331600	0.666455
C124	C	0.817479	-0.594719	-0.068474
C125	C	1.150812	-0.261386	0.264860
C126	C	1.484146	0.071948	0.598193
C127	C	0.816406	-0.667166	-0.068476
C128	C	1.149739	-0.333833	0.264857
C129	C	1.483073	-0.000499	0.598190
C130	C	0.816386	-0.667186	0.068014
C131	C	1.149719	-0.333853	0.401347
C132	C	1.483053	-0.000519	0.734680
C133	C	0.817452	-0.594740	0.068014
C134	C	1.150785	-0.261406	0.401348
C135	C	1.484119	0.071927	0.734681
C136	C	0.818002	-0.558511	-0.000232
C137	C	1.151335	-0.225178	0.333102
C138	C	1.484668	0.108156	0.666435
C139	C	0.947218	0.087022	-0.000253
C140	C	1.280551	0.420356	0.333080
C141	C	1.613884	0.753689	0.666414
C142	C	1.024321	0.088151	-0.000278
C143	C	1.357655	0.421485	0.333055
C144	C	1.690988	0.754818	0.666389
C145	C	0.814739	0.219498	-0.000229
C146	C	1.148072	0.552831	0.333104
C147	C	1.481406	0.886165	0.666437
C148	C	0.815866	0.296602	-0.000237
C149	C	1.149199	0.629935	0.333097
C150	C	1.482533	0.963269	0.666430
N151	N	0.820189	0.092483	0.177936
N152	N	1.153523	0.425816	0.511269
N153	N	1.486856	0.759149	0.844603
N154	N	0.820238	0.092493	-0.178375
N155	N	1.153571	0.425827	0.154959
N156	N	1.486905	0.759160	0.488292
C157	C	0.867574	0.045137	0.217315
C158	C	1.200908	0.378471	0.550648
C159	C	1.534241	0.711804	0.883982
C160	C	0.867578	0.045134	0.296117
C161	C	1.200912	0.378467	0.629450
C162	C	1.534245	0.711801	0.962783
C163	C	0.820204	0.092488	0.335537
C164	C	1.153537	0.425821	0.668870
C165	C	1.486871	0.759155	1.002203
C166	C	0.772810	0.139837	0.296148
C167	C	1.106143	0.473171	0.629481
C168	C	1.439477	0.806504	0.962815
C169	C	0.772803	0.139834	0.217348
C170	C	1.106136	0.473168	0.550681
C171	C	1.439469	0.806501	0.884014
C172	C	0.810903	0.155776	0.460371
C173	C	1.144237	0.489109	0.793705
C174	C	1.477570	0.822443	1.127038
C175	C	0.810915	0.155780	0.539170
C176	C	1.144249	0.489113	0.872503
C177	C	1.477582	0.822446	1.205837
C178	C	0.820222	0.092496	0.578583
C179	C	1.153556	0.425830	0.911916
C180	C	1.486889	0.759163	1.245250
C181	C	0.829532	0.029207	0.539187
C182	C	1.162865	0.362540	0.872520
C183	C	1.496199	0.695873	1.205854
C184	C	0.829525	0.029204	0.460387
C185	C	1.162858	0.362537	0.793720
C186	C	1.496191	0.695871	1.127054
C187	C	0.820206	0.092496	0.420982
C188	C	1.153540	0.425829	0.754316
C189	C	1.486873	0.759163	1.087649
C190	C	0.867614	0.045144	0.703408
C191	C	1.200948	0.378477	1.036741
C192	C	1.534281	0.711810	1.370074
C193	C	0.867614	0.045139	0.782211
C194	C	1.200947	0.378473	1.115544
C195	C	1.534280	0.711806	1.448878
C196	C	0.772849	0.139849	0.782241
C197	C	1.106182	0.473182	1.115574
C198	C	1.439515	0.806515	1.448907
C199	C	0.772846	0.139847	0.703439
C200	C	1.106180	0.473180	1.036772
C201	C	1.439513	0.806514	1.370106
C202	C	0.820233	0.092495	0.664027
C203	C	1.153566	0.425828	0.997361
C204	C	1.486899	0.759162	1.330694
H205	H	0.046436	-0.026600	-0.000318
H206	H	0.379769	0.306734	0.333015
H207	H	0.713103	0.640067	0.666349
H208	H	0.824486	-0.118335	-0.124020
H209	H	1.157819	0.214998	0.209313
H210	H	1.491152	0.548332	0.542647
H211	H	0.906157	0.006579	0.185228
H212	H	1.239491	0.339912	0.518561
H213	H	1.572824	0.673246	0.851895
Cl214	Cl	0.927154	-0.014391	0.345630
Cl215	Cl	1.260487	0.318942	0.678963
Cl216	Cl	1.593821	0.652276	1.012297
Cl217	Cl	0.387256	0.203148	0.098785
Cl218	Cl	0.720589	0.536481	0.432118
Cl219	Cl	1.053923	0.869814	0.765452
Cl220	Cl	0.910842	-0.501587	0.117755
Cl221	Cl	1.244175	-0.168254	0.451088
Cl222	Cl	1.577509	0.165080	0.784421
H223	H	0.824423	-0.118369	0.123608
H224	H	1.157756	0.214965	0.456942
H225	H	1.491090	0.548298	0.790275
Cl226	Cl	0.841219	-0.050356	0.410863
Cl227	Cl	1.174553	0.282977	0.744197
Cl228	Cl	1.507886	0.616311	1.077530
H229	H	0.177867	-0.024674	-0.000245
H230	H	0.511200	0.308660	0.333088
H231	H	0.844533	0.641993	0.666421
Cl232	Cl	0.818100	-0.549219	0.153807
Cl233	Cl	1.151433	-0.215885	0.487141
Cl234	Cl	1.484767	0.117448	0.820474
H235	H	0.734273	0.178403	0.814336
H236	H	1.067606	0.511736	1.147669
H237	H	1.400940	0.845069	1.481002
H238	H	0.147095	0.205029	-0.000262
H239	H	0.480428	0.538362	0.333072
H240	H	0.813762	0.871696	0.666405
H241	H	0.906198	0.006581	0.814274
H242	H	1.239531	0.339915	1.147607
H243	H	1.572865	0.673248	1.480941
Cl244	Cl	0.841238	-0.050355	0.588725
Cl245	Cl	1.174572	0.282978	0.922059
Cl246	Cl	1.507905	0.616312	1.255392
H247	H	0.734264	0.178403	0.671375
H248	H	1.067597	0.511736	1.004708
H249	H	1.400930	0.845069	1.338041
Cl250	Cl	0.822261	-0.265848	0.153820
Cl251	Cl	1.155594	0.067485	0.487153
Cl252	Cl	1.488928	0.400818	0.820487
Cl253	Cl	0.799267	0.235342	0.410832
Cl254	Cl	1.132600	0.568675	0.744165
Cl255	Cl	1.465934	0.902009	1.077499
H256	H	0.397755	0.005473	-0.079797
H257	H	0.731088	0.338807	0.253537
H258	H	1.064422	0.672140	0.586870
Cl259	Cl	0.799217	0.235343	0.588688
Cl260	Cl	1.132551	0.568676	0.922021
Cl261	Cl	1.465884	0.902009	1.255355
Cl262	Cl	0.913262	-0.338077	0.117746
Cl263	Cl	1.246595	-0.004744	0.451079
Cl264	Cl	1.579929	0.328590	0.784413
Cl265	Cl	0.822323	-0.265802	-0.154248
Cl266	Cl	1.155656	0.067531	0.179085
Cl267	Cl	1.488989	0.400865	0.512418
H268	H	0.734236	0.178393	0.328248
H269	H	1.067569	0.511726	0.661581
H270	H	1.400903	0.845059	0.994914
H271	H	0.906197	0.006585	0.671317
H272	H	1.239531	0.339918	1.004651
H273	H	1.572864	0.673251	1.337984
Cl274	Cl	-0.004132	0.230901	-0.000289
Cl275	Cl	0.329202	0.564234	0.333044
Cl276	Cl	0.662535	0.897567	0.666377
H277	H	0.242665	0.179506	0.079334
H278	H	0.575999	0.512839	0.412668
H279	H	0.909332	0.846173	0.746001
Cl280	Cl	0.818165	-0.549170	-0.154266
Cl281	Cl	1.151498	-0.215837	0.179067
Cl282	Cl	1.484831	0.117496	0.512400
H283	H	0.734215	0.178389	0.185285
H284	H	1.067549	0.511723	0.518618
H285	H	1.400882	0.845056	0.851951
H286	H	0.593981	0.211581	-0.000189
H287	H	0.927314	0.544914	0.333144
H288	H	1.260648	0.878247	0.666477
Cl289	Cl	0.815753	-0.712684	-0.154272
Cl290	Cl	1.149086	-0.379351	0.179061
Cl291	Cl	1.482419	-0.046018	0.512394
H292	H	0.266331	0.003548	-0.079822
H293	H	0.599664	0.336881	0.253512
H294	H	0.932998	0.670215	0.586845
Cl295	Cl	0.442753	0.237452	-0.000211
Cl296	Cl	0.776086	0.570785	0.333122
Cl297	Cl	1.109420	0.904119	0.666455
H298	H	0.624757	-0.018124	-0.000149
H299	H	0.958090	0.315209	0.333184
H300	H	1.291423	0.648543	0.666517
H301	H	0.493322	-0.020044	-0.000194
H302	H	0.826656	0.313289	0.333139
H303	H	1.159989	0.646623	0.666473
H304	H	0.747378	-0.331889	-0.095054
H305	H	1.080711	0.001444	0.238280
H306	H	1.414044	0.334778	0.571613
H307	H	0.815942	-0.696689	0.123575
H308	H	1.149275	-0.363356	0.456909
H309	H	1.482608	-0.030022	0.790242
Cl310	Cl	0.727188	-0.476942	-0.118204
Cl311	Cl	1.060521	-0.143608	0.215129
Cl312	Cl	1.393854	0.189725	0.548463
