data_functionalizedCrystal
_audit_creation_method	'MofGen! by Chris Wilmer'
_symmetry_space_group_name_H-M	'P1'
_symmetry_Int_Tables_number	1
_symmetry_cell_setting	triclinic
loop_
_symmetry_equiv_pos_as_xyz
  x,y,z
_cell_length_a	17.077404
_cell_length_b	16.959454
_cell_length_c	17.077396
_cell_angle_alpha	89.975265
_cell_angle_beta	89.980499
_cell_angle_gamma	90.020300
loop_
_atom_site_label
_atom_site_type_symbol
_atom_site_fract_x
_atom_site_fract_y
_atom_site_fract_z
Zn1	Zn	1.200070	-0.314677	-0.443863
Zn2	Zn	1.199983	-0.446865	-0.312606
Zn3	Zn	1.068802	-0.314705	-0.312611
Zn4	Zn	1.068776	-0.446818	-0.443829
O5	O	1.134408	-0.380766	-0.378227
O6	O	1.309905	-0.332220	-0.426463
O7	O	1.182556	-0.429365	-0.202759
O8	O	1.086262	-0.204090	-0.330038
O9	O	1.309842	-0.429338	-0.330029
O10	O	1.182704	-0.204070	-0.426469
O11	O	1.086178	-0.332267	-0.202763
O12	O	0.958951	-0.332222	-0.330006
O13	O	1.086218	-0.429258	-0.553681
O14	O	0.958933	-0.429285	-0.426411
O15	O	1.182679	-0.332174	-0.553706
O16	O	1.182532	-0.557469	-0.329996
O17	O	1.086134	-0.557435	-0.426406
C18	C	0.930460	-0.380752	-0.378206
C19	C	0.843210	-0.380764	-0.378215
C20	C	0.802231	-0.431381	-0.428333
C21	C	0.720250	-0.431383	-0.428345
C22	C	0.679251	-0.380771	-0.378236
C23	C	0.720236	-0.330149	-0.328116
C24	C	0.802215	-0.330144	-0.328108
C25	C	0.549366	-0.330164	-0.328134
C26	C	0.467381	-0.330170	-0.328141
C27	C	0.467401	-0.431404	-0.428372
C28	C	0.549380	-0.431399	-0.428364
C29	C	0.590360	-0.380777	-0.378243
C30	C	1.134342	-0.586132	-0.378214
C31	C	1.134386	-0.673989	-0.378235
C32	C	1.084287	-1.045476	-0.428422
C33	C	1.184748	-1.045452	-0.328112
C34	C	1.184720	-0.962906	-0.328105
C35	C	1.134474	-0.921642	-0.378256
C36	C	1.084256	-0.962923	-0.428415
C37	C	1.234932	-0.921619	-0.277942
C38	C	1.234906	-0.839068	-0.277932
C39	C	1.184664	-0.797802	-0.328088
C40	C	1.134444	-0.839088	-0.378249
C41	C	1.084198	-0.797823	-0.428400
C42	C	1.033981	-0.839108	-0.478566
C43	C	1.034013	-0.921657	-0.478571
C44	C	1.184632	-0.715254	-0.328083
C45	C	1.084167	-0.715270	-0.428393
C46	C	1.339152	-0.380781	-0.378250
C47	C	1.426402	-0.380787	-0.378259
C48	C	1.134455	-0.380708	-0.582972
C49	C	1.134476	-0.380683	-0.670222
C50	C	1.134495	-0.174598	-0.378258
C51	C	1.134533	-0.086741	-0.378271
C52	C	1.184705	-0.330127	-0.711226
C53	C	1.184714	-0.330101	-0.793206
C54	C	1.134498	-0.380635	-0.834181
C55	C	1.084263	-0.431193	-0.793171
C56	C	1.084250	-0.431214	-0.711192
C57	C	1.084295	-0.431145	-0.964041
C58	C	1.084309	-0.431125	-1.046026
C59	C	1.184759	-0.330032	-1.046056
C60	C	1.184746	-0.330053	-0.964077
C61	C	1.134512	-0.380613	-0.923072
C62	C	1.134406	-0.380767	-0.174279
C63	C	1.134538	-0.380569	-0.087030
H64	H	0.434032	-0.472620	-0.469185
C65	C	1.029698	-0.670328	-0.482816
C66	C	1.040428	-0.589199	-0.472087
C67	C	0.990273	-0.547775	-0.522214
H68	H	0.976936	-0.683809	-0.471333
H69	H	1.041172	-0.683773	-0.535586
H70	H	1.028949	-0.575759	-0.419328
H71	H	1.093179	-0.575695	-0.483575
H72	H	1.001746	-0.561220	-0.574985
H73	H	0.937514	-0.561262	-0.510727
H74	H	0.997551	-0.492724	-0.514947
H75	H	0.993067	-0.805501	-0.519396
C76	C	1.289500	-0.966504	-0.223582
C77	C	1.339823	-1.013868	-0.268023
C78	C	1.390077	-1.055242	-0.217954
H79	H	1.259518	-0.998784	-0.189383
H80	H	1.319449	-0.930156	-0.193678
H81	H	1.309878	-1.050212	-0.297914
H82	H	1.369823	-0.981608	-0.302221
H83	H	1.420025	-1.018894	-0.188050
H84	H	1.360087	-1.087518	-0.183757
H85	H	1.424231	-1.087378	-0.248101
C86	C	1.239361	-1.090311	-0.273776
C87	C	1.289677	-1.137652	-0.318250
C88	C	1.339992	-1.178990	-0.268214
H89	H	1.209423	-1.122603	-0.239549
H90	H	1.269313	-1.053941	-0.243901
H91	H	1.259729	-1.174018	-0.348112
H92	H	1.319632	-1.105380	-0.352475
H93	H	1.369944	-1.142620	-0.238338
H94	H	1.310048	-1.211278	-0.233989
H95	H	1.374142	-1.211110	-0.298382
C96	C	1.029796	-1.090437	-0.482799
C97	C	1.040561	-1.171562	-0.472065
C98	C	0.990371	-1.213004	-0.522136
H99	H	1.041198	-1.076963	-0.535582
H100	H	0.977039	-1.076999	-0.471252
H101	H	1.093306	-1.184995	-0.483618
H102	H	1.029154	-1.185059	-0.419293
H103	H	0.937614	-1.199567	-0.510588
H104	H	1.001777	-1.199525	-0.574915
H105	H	0.997663	-1.268052	-0.514854
H106	H	0.582760	-0.472616	-0.469164
H107	H	1.225514	-0.681643	-0.287235
H108	H	1.275796	-0.805459	-0.237085
C109	C	0.979590	-0.966440	-0.533158
C110	C	0.996642	-0.946331	-0.610842
C111	C	0.946531	-0.987582	-0.661147
H112	H	0.926822	-0.952991	-0.521725
H113	H	0.986812	-1.021520	-0.526028
H114	H	0.989414	-0.891263	-0.617969
H115	H	1.049401	-0.959782	-0.622300
H116	H	0.953752	-1.042661	-0.654017
H117	H	0.893765	-0.974129	-0.649707
H118	H	0.958098	-0.973948	-0.713861
H119	H	1.225599	-0.288979	-0.677870
H120	H	1.043341	-0.472374	-0.677807
H121	H	0.434002	-0.288948	-0.287347
H122	H	0.582729	-0.288936	-0.287327
H123	H	0.686848	-0.288936	-0.287319
H124	H	1.225617	-0.288936	-0.826589
H125	H	0.686889	-0.472601	-0.469156
H126	H	0.835579	-0.288922	-0.287301
C127	C	1.239296	-0.275103	-0.919729
C128	C	1.283277	-0.230806	-0.973183
C129	C	1.333528	-0.180168	-0.932359
H130	H	1.273548	-0.305265	-0.887747
H131	H	1.209294	-0.240629	-0.887766
H132	H	1.313277	-0.265276	-1.005132
H133	H	1.249046	-0.200628	-1.005167
H134	H	1.303525	-0.145694	-0.900397
H135	H	1.367774	-0.210336	-0.900378
H136	H	1.363369	-0.150101	-0.968621
H137	H	1.225659	-0.288863	-1.079445
H138	H	0.835607	-0.472598	-0.469136
H139	H	1.043416	-0.472272	-1.079385
C140	C	1.029742	-0.486140	-0.919662
C141	C	0.985790	-0.530415	-0.973090
C142	C	0.935547	-0.581100	-0.932236
H143	H	0.995472	-0.456014	-0.887669
H144	H	1.059749	-0.520627	-0.887707
H145	H	0.955785	-0.495932	-1.005031
H146	H	1.020039	-0.560557	-1.005085
H147	H	0.965554	-0.615587	-0.900282
H148	H	0.901282	-0.550967	-0.900244
H149	H	0.905725	-0.611152	-0.968481
H150	H	1.043373	-0.472335	-0.826539
