data_functionalizedCrystal
_audit_creation_method	'MofGen! by Chris Wilmer'
_symmetry_space_group_name_H-M	'P1'
_symmetry_Int_Tables_number	1
_symmetry_cell_setting	triclinic
loop_
_symmetry_equiv_pos_as_xyz
  x,y,z
_cell_length_a	8.597366
_cell_length_b	7.088929
_cell_length_c	14.971486
_cell_angle_alpha	83.768586
_cell_angle_beta	95.521357
_cell_angle_gamma	76.045470
loop_
_atom_site_label
_atom_site_type_symbol
_atom_site_fract_x
_atom_site_fract_y
_atom_site_fract_z
O1	O	2.101595	-0.187202	-0.122833
O2	O	1.636941	-0.110657	-0.137437
O3	O	1.881724	-0.150995	0.000083
O4	O	1.856813	-0.146864	-0.260353
O5	O	1.914436	-0.474361	0.018503
O6	O	1.669654	-0.434023	-0.119017
O7	O	2.134308	-0.510568	-0.104414
Cu8	Cu	1.904968	-0.501821	-0.110033
Cu9	Cu	1.866281	-0.119404	-0.131817
O10	O	1.889526	-0.470230	-0.241933
C11	C	1.593834	-0.262544	-0.127685
C12	C	1.416650	-0.233356	-0.126060
N13	N	1.932189	-0.770795	-0.094712
C14	C	2.177415	-0.358677	-0.114165
C15	C	2.354598	-0.387852	-0.115791
C16	C	1.896966	-0.312494	0.042616
C17	C	1.893628	-0.311942	0.141908
N18	N	1.839072	0.149568	-0.147132
C19	C	1.874283	-0.308727	-0.284467
C20	C	1.877620	-0.309266	-0.383760
C21	C	2.037430	-0.335633	0.199333
C22	C	2.034282	-0.335095	0.292627
C23	C	1.887331	-0.310880	0.328495
C24	C	1.743518	-0.287182	0.271063
C25	C	1.746666	-0.287706	0.177770
C26	C	1.736966	-0.286096	0.465516
C27	C	1.733818	-0.285575	0.558815
C28	C	2.024582	-0.333485	0.580373
C29	C	2.027731	-0.334009	0.487080
C30	C	1.883916	-0.310314	0.429654
H31	H	1.742567	-0.752882	-0.201454
H32	H	1.629567	-0.268414	0.131015
H33	H	2.151381	-0.354391	0.339380
H34	H	1.619857	-0.266796	0.418761
C35	C	1.306876	-0.027148	-0.135942
C36	C	1.354295	0.069650	-0.065446
C37	C	1.253186	0.259605	-0.074513
H38	H	1.314603	0.043069	-0.192410
H39	H	1.198388	-0.034176	-0.133429
H40	H	1.462756	0.076688	-0.067967
H41	H	1.346561	-0.000507	-0.008969
H42	H	1.144698	0.252577	-0.072000
H43	H	1.260921	0.329803	-0.130984
H44	H	1.285336	0.325300	-0.026680
C45	C	2.196986	-0.361526	0.160422
C46	C	2.267070	-0.209449	0.180118
C47	C	2.414045	-0.233212	0.144279
H48	H	2.267796	-0.483942	0.186536
H49	H	2.178326	-0.358353	0.096626
H50	H	2.285738	-0.212640	0.243901
H51	H	2.196307	-0.087013	0.154003
H52	H	2.395385	-0.230039	0.080483
H53	H	2.484841	-0.355633	0.170396
H54	H	2.461609	-0.130024	0.157630
C55	C	1.574187	-0.258847	0.597690
C56	C	1.470449	-0.078121	0.559034
C57	C	1.323392	-0.053415	0.594835
H58	H	1.526145	-0.361675	0.584418
H59	H	1.592846	-0.261819	0.661474
H60	H	1.451787	-0.075167	0.495265
H61	H	1.518440	0.024741	0.572303
H62	H	1.342051	-0.056386	0.658618
H63	H	1.275365	-0.156252	0.581561
H64	H	1.252993	0.069216	0.568618
H65	H	1.437033	-0.542476	-0.108242
C66	C	2.187132	-0.359978	0.447997
C67	C	2.180582	-0.195334	0.385568
C68	C	2.327385	-0.219193	0.349538
H69	H	2.272457	-0.373933	0.495460
H70	H	2.205817	-0.473887	0.418424
H71	H	2.161916	-0.081458	0.415141
H72	H	2.095287	-0.181350	0.338089
H73	H	2.346070	-0.333101	0.319965
H74	H	2.412699	-0.233151	0.397007
H75	H	2.322956	-0.107496	0.307170
H76	H	2.028712	-0.868358	-0.040392
C77	C	2.180638	-0.358783	0.642733
C78	C	2.170520	-0.193486	0.687417
C79	C	2.314250	-0.216714	0.744863
H80	H	2.197005	-0.472226	0.686084
H81	H	2.268638	-0.373188	0.608033
H82	H	2.082545	-0.179102	0.722115
H83	H	2.154177	-0.080021	0.644089
H84	H	2.402251	-0.231120	0.710163
H85	H	2.330606	-0.330162	0.788208
H86	H	2.307410	-0.104559	0.775181
H87	H	1.623867	-0.267453	0.300273
