data_functionalizedCrystal
_audit_creation_method	'MofGen! by Chris Wilmer'
_symmetry_space_group_name_H-M	'P1'
_symmetry_Int_Tables_number	1
_symmetry_cell_setting	triclinic
loop_
_symmetry_equiv_pos_as_xyz
  x,y,z
_cell_length_a	10.654541
_cell_length_b	18.266242
_cell_length_c	10.654545
_cell_angle_alpha	89.997265
_cell_angle_beta	95.515322
_cell_angle_gamma	90.007592
loop_
_atom_site_label
_atom_site_type_symbol
_atom_site_fract_x
_atom_site_fract_y
_atom_site_fract_z
O1	O	1.667853	0.060854	-0.176384
O2	O	1.302374	0.060860	-0.193193
O3	O	1.493516	0.060857	-0.002050
O4	O	1.476711	0.060858	-0.367528
O5	O	1.493483	-0.060905	-0.002044
O6	O	1.302341	-0.060902	-0.193188
O7	O	1.667820	-0.060908	-0.176378
Zn8	Zn	1.485075	-0.080237	-0.184782
Zn9	Zn	1.485119	0.080190	-0.184790
O10	O	1.476678	-0.060904	-0.367522
C11	C	1.255559	-0.000020	-0.191957
C12	C	1.116116	-0.000017	-0.188266
N13	N	1.485055	-0.189724	-0.184776
C14	C	1.088146	-0.000007	-0.416831
C15	C	1.008652	0.000001	-0.529374
C16	C	0.877634	0.000001	-0.525898
C17	C	0.826108	-0.000008	-0.409867
C18	C	0.905602	-0.000016	-0.297324
C19	C	1.036622	-0.000015	-0.300812
C20	C	0.933572	-0.000031	-0.068763
C21	C	1.064590	-0.000027	-0.072235
C22	C	0.882046	-0.000041	0.047269
C23	C	0.961540	-0.000044	0.159814
C24	C	1.092565	-0.000043	0.156334
C25	C	1.144084	-0.000035	0.040308
C26	C	1.561877	-0.228028	-0.261662
C27	C	1.561898	-0.304673	-0.261659
C28	C	1.485073	-0.343011	-0.184784
C29	C	1.408246	-0.304698	-0.107883
C30	C	1.408237	-0.228054	-0.107879
N31	N	1.375041	-0.463361	-0.180397
N32	N	1.375053	-0.536170	-0.180408
C33	C	1.485098	-0.573933	-0.184789
N34	N	1.595132	-0.536138	-0.189183
N35	N	1.595119	-0.463323	-0.189179
C36	C	1.485075	-0.426118	-0.184779
C37	C	1.561950	-0.695344	-0.261675
C38	C	1.561973	-0.771990	-0.261663
C39	C	1.408309	-0.772014	-0.107894
C40	C	1.408297	-0.695369	-0.107899
C41	C	1.485116	-0.657039	-0.184797
C42	C	1.714634	-0.000026	-0.177615
C43	C	1.854078	-0.000023	-0.181306
C44	C	1.492265	-0.000023	0.044751
C45	C	1.488572	-0.000019	0.184195
N46	N	1.485149	0.189677	-0.184786
C47	C	1.477929	-0.000023	-0.414323
C48	C	1.481621	-0.000022	-0.553766
C49	C	1.488623	0.132730	0.184197
C50	C	1.486919	0.199104	0.249708
C51	C	1.483450	0.199105	0.380726
C52	C	1.481681	0.132725	0.446237
C53	C	1.483386	0.066351	0.380726
C54	C	1.486859	0.066357	0.249704
C55	C	1.483326	-0.066396	0.380723
C56	C	1.486804	-0.066399	0.249705
C57	C	1.481557	-0.132777	0.446233
C58	C	1.483271	-0.199152	0.380723
C59	C	1.486742	-0.199150	0.249696
C60	C	1.488509	-0.132773	0.184194
H61	H	1.194826	0.000008	-0.419672
H62	H	0.775363	-0.000044	0.050090
C63	C	1.288205	-0.000037	0.036469
N64	N	1.396759	-0.000042	0.033572
C65	C	1.646463	-0.814124	-0.346274
N66	N	1.710091	-0.845860	-0.410016
C67	C	0.790188	0.000010	-0.649700
N68	N	0.724325	0.000017	-0.742949
C69	C	1.323803	-0.814182	-0.023328
N70	N	1.260152	-0.845946	0.040371
H71	H	1.481822	-0.253194	0.434071
H72	H	0.719425	-0.000016	-0.407048
H73	H	0.919576	-0.000051	0.254278
H74	H	1.491340	-0.132765	0.077512
H75	H	1.157283	-0.000053	0.247981
C76	C	1.492475	0.132735	0.040077
N77	N	1.495384	0.132741	-0.068475
H78	H	1.050619	0.000006	-0.623844
H79	H	1.345676	-0.196868	-0.045268
C80	C	1.646411	-0.346815	-0.346243
N81	N	1.710067	-0.378555	-0.409953
H82	H	1.624433	-0.196824	-0.324273
H83	H	1.345735	-0.664182	-0.045295
C84	C	1.323734	-0.346871	-0.023324
N85	N	1.260080	-0.378636	0.040370
H86	H	1.624500	-0.664134	-0.324289
H87	H	1.488357	0.253150	0.196355
H88	H	1.478726	-0.132771	0.552914
C89	C	1.481578	0.272119	0.452791
N90	N	1.480172	0.327114	0.507070
C91	C	1.477832	0.132730	0.590357
N92	N	1.474927	0.132733	0.698909
C93	C	1.488615	-0.272169	0.177644
N94	N	1.490028	-0.327168	0.123380
