data_functionalizedCrystal
_audit_creation_method	'MofGen! by Chris Wilmer'
_symmetry_space_group_name_H-M	'P1'
_symmetry_Int_Tables_number	1
_symmetry_cell_setting	triclinic
loop_
_symmetry_equiv_pos_as_xyz
  x,y,z
_cell_length_a	12.759401
_cell_length_b	16.120484
_cell_length_c	12.759393
_cell_angle_alpha	92.864008
_cell_angle_beta	89.980404
_cell_angle_gamma	92.925678
loop_
_atom_site_label
_atom_site_type_symbol
_atom_site_fract_x
_atom_site_fract_y
_atom_site_fract_z
Zn1	Zn	1.584983	-0.331860	-0.615147
Zn2	Zn	1.575931	-0.471295	-0.448360
Zn3	Zn	1.409279	-0.331901	-0.439489
Zn4	Zn	1.400335	-0.471234	-0.623997
O5	O	1.492632	-0.401572	-0.531749
O6	O	1.730802	-0.350364	-0.593031
O7	O	1.553779	-0.452847	-0.300165
O8	O	1.440118	-0.215230	-0.455374
O9	O	1.724152	-0.452807	-0.470493
O10	O	1.569206	-0.215200	-0.584430
O11	O	1.431341	-0.350435	-0.293648
O12	O	1.261072	-0.350375	-0.463956
O13	O	1.424874	-0.452702	-0.769842
O14	O	1.254501	-0.452742	-0.599513
O15	O	1.560534	-0.350305	-0.763340
O16	O	1.545107	-0.587952	-0.479075
O17	O	1.416097	-0.587907	-0.608115
C18	C	1.219665	-0.401557	-0.531733
C19	C	1.102888	-0.401571	-0.531753
C20	C	0.934895	-0.454967	-0.602245
C21	C	1.044619	-0.454958	-0.602233
C22	C	1.051426	-0.348196	-0.461272
C23	C	0.941703	-0.348210	-0.461279
C24	C	1.478677	-0.618180	-0.545541
C25	C	1.472804	-0.710845	-0.551477
C26	C	1.462086	-0.880506	-0.562335
C27	C	1.523366	-0.921798	-0.501179
C28	C	1.517402	-1.016203	-0.507221
C29	C	1.468048	-0.786092	-0.556295
C30	C	1.766664	-0.401588	-0.531765
C31	C	1.883440	-0.401594	-0.531772
C32	C	1.492716	-0.401492	-0.805777
C33	C	1.492751	-0.401458	-0.922551
C34	C	1.506669	-0.184119	-0.517925
C35	C	1.512651	-0.091454	-0.512034
C36	C	1.563395	-0.348131	-0.974029
C37	C	1.563415	-0.348095	-1.083751
C38	C	1.422144	-0.454720	-1.090509
C39	C	1.422120	-0.454751	-0.980788
C40	C	1.492613	-0.401592	-0.258782
C41	C	1.492796	-0.401391	-0.141993
H42	H	1.086508	-0.498420	-0.659619
C43	C	1.385160	-0.928526	-0.639187
C44	C	1.298994	-0.988504	-0.597338
C45	C	1.222068	-1.036536	-0.674186
C46	C	1.231307	-1.024589	-0.792883
C47	C	1.317477	-0.964608	-0.834737
C48	C	1.394403	-0.916576	-0.757890
H49	H	1.292152	-0.997350	-0.509467
H50	H	1.158279	-1.080938	-0.643202
H51	H	1.174362	-1.060146	-0.849770
H52	H	1.324320	-0.955763	-0.922609
H53	H	1.458192	-0.872175	-0.788874
H54	H	1.098877	-0.304731	-0.403881
C55	C	1.344403	-0.513409	-0.924150
C56	C	1.385677	-0.578881	-0.852873
C57	C	1.307959	-0.637530	-0.796231
C58	C	1.188967	-0.630705	-0.810866
C59	C	1.147688	-0.565230	-0.882145
C60	C	1.225405	-0.506582	-0.938787
H61	H	1.473767	-0.583936	-0.842037
H62	H	1.338518	-0.685999	-0.743465
H63	H	1.131436	-0.674120	-0.768936
H64	H	1.059597	-0.560176	-0.892981
H65	H	1.194847	-0.458113	-0.991553
C66	C	1.641079	-0.289504	-0.909966
C67	C	1.638623	-0.194723	-0.919026
C68	C	1.716306	-0.136092	-0.854967
C69	C	1.796445	-0.172241	-0.781847
C70	C	1.798904	-0.267027	-0.772783
C71	C	1.721221	-0.325658	-0.836843
H72	H	1.579296	-0.167959	-0.973157
H73	H	1.714485	-0.065925	-0.861676
H74	H	1.853951	-0.128839	-0.734426
H75	H	1.858231	-0.293791	-0.718653
H76	H	1.723042	-0.395825	-0.830133
H77	H	0.887460	-0.498437	-0.659644
H78	H	0.899808	-0.304746	-0.403886
H79	H	1.580307	-0.886248	-0.444284
C80	C	1.641126	-0.289436	-1.140376
C81	C	1.718812	-0.230816	-1.076313
C82	C	1.796525	-0.172153	-1.132938
C83	C	1.796552	-0.172108	-1.253625
C84	C	1.718863	-0.230730	-1.317695
C85	C	1.641150	-0.289394	-1.261070
H86	H	1.718794	-0.230847	-0.986967
H87	H	1.854035	-0.128757	-1.085508
H88	H	1.854080	-0.128682	-1.295542
H89	H	1.718881	-0.230699	-1.407041
H90	H	1.583640	-0.332789	-1.308499
H91	H	1.364641	-0.498112	-1.137938
