data_functionalizedCrystal
_audit_creation_method	'MofGen! by Chris Wilmer'
_symmetry_space_group_name_H-M	'P1'
_symmetry_Int_Tables_number	1
_symmetry_cell_setting	triclinic
loop_
_symmetry_equiv_pos_as_xyz
  x,y,z
_cell_length_a	17.766277
_cell_length_b	27.731988
_cell_length_c	19.288865
_cell_angle_alpha	97.122694
_cell_angle_beta	89.988397
_cell_angle_gamma	89.997486
loop_
_atom_site_label
_atom_site_type_symbol
_atom_site_fract_x
_atom_site_fract_y
_atom_site_fract_z
O1	O	-0.062394	-0.641198	0.082452
O2	O	0.437606	-0.141198	0.582452
O3	O	-0.062443	-0.500439	0.095062
O4	O	0.437557	-0.000439	0.595062
O5	O	-0.062402	-0.574886	-0.012400
O6	O	0.437598	-0.074886	0.487600
O7	O	-0.062435	-0.566751	0.189914
O8	O	0.437565	-0.066751	0.689914
O9	O	0.062786	-0.574873	-0.012405
O10	O	0.562786	-0.074873	0.487595
O11	O	0.062746	-0.500426	0.095057
O12	O	0.562746	-0.000426	0.595057
O13	O	0.062794	-0.641185	0.082447
O14	O	0.562794	-0.141185	0.582447
Cu15	Cu	0.074201	-0.570804	0.088752
Cu16	Cu	0.574201	-0.070804	0.588752
Cu17	Cu	-0.073849	-0.570820	0.088758
Cu18	Cu	0.426151	-0.070820	0.588758
O19	O	0.062754	-0.566738	0.189909
O20	O	0.562754	-0.066738	0.689909
C21	C	0.000146	-0.482424	0.094801
C22	C	0.500146	0.017576	0.594801
C23	C	0.000128	-0.428765	0.094024
C24	C	0.500128	0.071235	0.594024
N25	N	0.178331	-0.570797	0.088747
N26	N	0.678331	-0.070797	0.588747
C27	C	0.000194	-0.574618	-0.038277
C28	C	0.500194	-0.074618	0.461723
C29	C	0.000201	-0.573832	-0.115375
C30	C	0.500201	-0.073832	0.384625
N31	N	-0.177979	-0.570831	0.088757
N32	N	0.322021	-0.070831	0.588757
C33	C	0.217736	-0.603773	0.041186
C34	C	0.717736	-0.103773	0.541186
C35	C	0.296538	-0.603776	0.041182
C36	C	0.796538	-0.103776	0.541182
C37	C	0.335932	-0.570807	0.088752
C38	C	0.835932	-0.070807	0.588752
C39	C	0.296517	-0.537825	0.136317
C40	C	0.796517	-0.037825	0.636317
C41	C	0.217717	-0.537820	0.136314
C42	C	0.717717	-0.037820	0.636314
C43	C	0.460758	-0.564336	0.152082
C44	C	0.960758	-0.064336	0.652082
C45	C	0.539557	-0.564344	0.152086
C46	C	1.039557	-0.064344	0.652086
C47	C	0.578978	-0.570820	0.088760
C48	C	1.078978	-0.070820	0.588760
C49	C	0.539591	-0.577298	0.025429
C50	C	1.039591	-0.077298	0.525429
C51	C	0.460790	-0.577293	0.025426
C52	C	0.960790	-0.077293	0.525426
C53	C	0.421377	-0.570809	0.088760
C54	C	0.921377	-0.070809	0.588760
C55	C	0.703829	-0.603801	0.041192
C56	C	1.203829	-0.103801	0.541192
C57	C	0.782632	-0.603800	0.041188
C58	C	1.282632	-0.103800	0.541188
C59	C	0.782610	-0.537852	0.136328
C60	C	1.282610	-0.037852	0.636328
C61	C	0.703808	-0.537851	0.136326
C62	C	1.203808	-0.037851	0.636326
C63	C	0.664423	-0.570827	0.088759
C64	C	1.164423	-0.070827	0.588759
C65	C	-0.068079	-0.045594	0.088388
C66	C	0.431921	0.454406	0.588388
C67	C	-0.068098	-0.247261	0.091353
C68	C	0.431902	0.252739	0.591353
O69	O	-0.126134	-0.273342	0.091711
O70	O	0.373866	0.226658	0.591711
N71	N	0.000141	-0.272476	0.091721
N72	N	0.500141	0.227524	0.591721
C73	C	0.068390	-0.247271	0.091344
C74	C	0.568390	0.252729	0.591344
O75	O	0.126431	-0.273345	0.091717
O76	O	0.626431	0.226655	0.591717
C77	C	0.068408	-0.045605	0.088374
C78	C	0.568408	0.454395	0.588374
C79	C	0.000165	-0.020393	0.088013
C80	C	0.500165	0.479607	0.588013
C81	C	-0.136316	-0.020382	0.088026
C82	C	0.363684	0.479618	0.588026
C83	C	-0.136311	0.030032	0.087289
C84	C	0.363689	0.530032	0.587289
C85	C	-0.068068	0.055234	0.086913
C86	C	0.431932	0.555234	0.586913
C87	C	0.000170	0.030021	0.087275
C88	C	0.500170	0.530021	0.587275
C89	C	0.136656	-0.020401	0.087991
C90	C	0.636656	0.479599	0.587991
C91	C	0.136654	0.030018	0.087246
C92	C	0.636654	0.530018	0.587246
C93	C	0.068411	0.055230	0.086885
C94	C	0.568411	0.555230	0.586885
C95	C	0.068419	0.105637	0.086162
C96	C	0.568419	0.605637	0.586162
N97	N	0.000180	0.130851	0.085794
N98	N	0.500180	0.630851	0.585794
C99	C	-0.068063	0.105650	0.086170
C100	C	0.431937	0.605650	0.586170
C101	C	0.068375	-0.353148	0.092904
C102	C	0.568375	0.146852	0.592904
C103	C	0.068371	-0.403564	0.093648
C104	C	0.568371	0.096436	0.593648
C105	C	-0.068117	-0.403551	0.093656
C106	C	0.431883	0.096449	0.593656
C107	C	-0.068111	-0.353134	0.092918
C108	C	0.431889	0.146866	0.592918
C109	C	0.000137	-0.327933	0.092536
C110	C	0.500137	0.172067	0.592536
C111	C	-0.068047	0.211523	0.084622
C112	C	0.431953	0.711523	0.584622
C113	C	-0.068035	0.261942	0.083887
C114	C	0.431965	0.761942	0.583887
C115	C	0.068452	0.261924	0.083875
C116	C	0.568452	0.761924	0.583875
C117	C	0.068441	0.211510	0.084613
C118	C	0.568441	0.711510	0.584613
C119	C	0.000185	0.186311	0.084984
C120	C	0.500185	0.686311	0.584984
O121	O	0.126425	0.131748	0.085796
O122	O	0.626425	0.631748	0.585796
O123	O	-0.126096	0.131731	0.085780
O124	O	0.373904	0.631731	0.585780
C125	C	-0.068084	-0.096008	0.089126
C126	C	0.431916	0.403992	0.589126
C127	C	0.000154	-0.121221	0.089487
C128	C	0.500154	0.378779	0.589487
C129	C	0.068397	-0.096019	0.089112
C130	C	0.568397	0.403981	0.589112
C131	C	0.000149	-0.171637	0.090231
C132	C	0.500149	0.328363	0.590231
C133	C	-0.068094	-0.196838	0.090607
C134	C	0.431906	0.303162	0.590607
C135	C	-0.136333	-0.171624	0.090239
C136	C	0.363667	0.328376	0.590239
C137	C	-0.136327	-0.121210	0.089501
C138	C	0.363673	0.378790	0.589501
C139	C	0.136636	-0.121233	0.089480
C140	C	0.636636	0.378767	0.589480
C141	C	0.136625	-0.171647	0.090218
C142	C	0.636625	0.328353	0.590218
C143	C	0.068382	-0.196849	0.090594
C144	C	0.568382	0.303151	0.590594
C145	C	0.000202	0.340800	0.082714
C146	C	0.500202	0.840800	0.582714
C147	C	0.000208	0.287143	0.083511
C148	C	0.500208	0.787143	0.583511
C149	C	0.000219	-0.617514	-0.160358
C150	C	0.500219	-0.117514	0.339642
C151	C	0.000207	-0.616776	-0.232800
C152	C	0.500207	-0.116776	0.267200
C153	C	0.000191	-0.572353	-0.260257
C154	C	0.500191	-0.072353	0.239743
C155	C	0.000169	-0.528665	-0.215265
C156	C	0.500169	-0.028665	0.284735
C157	C	0.000173	-0.529405	-0.142824
C158	C	0.500173	-0.029405	0.357176
C159	C	0.044030	-0.537427	-0.368317
C160	C	0.544030	-0.037427	0.131683
C161	C	0.044030	-0.536690	-0.440757
C162	C	0.544030	-0.036690	0.059243
C163	C	0.000174	-0.570071	-0.483687
C164	C	0.500174	-0.070071	0.016313
C165	C	-0.043673	-0.604198	-0.454171
C166	C	0.456327	-0.104198	0.045829
C167	C	-0.043668	-0.604937	-0.381730
C168	C	0.456332	-0.104937	0.118270
C169	C	0.000186	-0.571547	-0.338805
C170	C	0.500186	-0.071547	0.161195
C171	C	0.000178	-0.612956	-0.607220
C172	C	0.500178	-0.112956	-0.107220
C173	C	0.000162	-0.612216	-0.679663
C174	C	0.500162	-0.112216	-0.179663
C175	C	0.000130	-0.524104	-0.662127
C176	C	0.500130	-0.024104	-0.162127
C177	C	0.000140	-0.524845	-0.589685
C178	C	0.500140	-0.024845	-0.089685
C179	C	0.000167	-0.569272	-0.562236
C180	C	0.500167	-0.069272	-0.062236
C181	C	0.000156	-0.567007	0.215786
C182	C	0.500156	-0.067007	0.715786
C183	C	0.000144	-0.567792	0.292885
C184	C	0.500144	-0.067792	0.792885
H185	H	0.185670	-0.630623	0.002452
H186	H	0.685670	-0.130623	0.502452
H187	H	-0.123681	-0.332609	0.092624
H188	H	0.376319	0.167391	0.592624
H189	H	-0.123683	-0.424079	0.093964
H190	H	0.376317	0.075921	0.593964
N191	N	0.138087	-0.429305	0.094034
N192	N	0.638087	0.070695	0.594034
N193	N	0.199010	-0.406792	0.093699
N194	N	0.699010	0.093208	0.593699
H195	H	0.248250	-0.424970	0.093970
H196	H	0.748250	0.075030	0.593970
H197	H	0.079748	-0.510243	-0.333368
H198	H	0.579748	-0.010243	0.166632
H199	H	0.814716	-0.630652	0.002454
H200	H	1.314716	-0.130652	0.502454
N201	N	0.206351	-0.095495	0.089120
N202	N	0.706351	0.404505	0.589120
N203	N	0.221573	-0.062804	0.137697
N204	N	0.721573	0.437196	0.637697
H205	H	0.270815	-0.044628	0.137450
H206	H	0.770815	0.455372	0.637450
N207	N	0.000234	-0.662890	-0.132309
N208	N	0.500234	-0.162890	0.367691
N209	N	0.000236	-0.663546	-0.067630
N210	N	0.500236	-0.163546	0.432370
H211	H	0.000246	-0.695593	-0.047818
H212	H	0.500246	-0.195593	0.452182
N213	N	0.138101	-0.327418	0.092513
N214	N	0.638101	0.172582	0.592513
N215	N	0.199018	-0.349942	0.092842
N216	N	0.699018	0.150058	0.592842
H217	H	0.248263	-0.331773	0.092567
H218	H	0.748263	0.168227	0.592567
H219	H	0.814684	-0.511007	0.175058
H220	H	1.314684	-0.011007	0.675058
H221	H	0.000114	-0.487934	-0.684481
H222	H	0.500114	0.012066	-0.184481
H223	H	-0.123610	0.282468	0.083595
H224	H	0.376390	0.782468	0.583595
N225	N	0.000226	-0.661403	-0.278749
N226	N	0.500226	-0.161403	0.221251
N227	N	0.000248	-0.701065	-0.254232
N228	N	0.500248	-0.201065	0.245768
H229	H	0.000262	-0.732583	-0.286681
H230	H	0.500262	-0.232583	0.213319
H231	H	-0.079371	-0.632724	-0.357701
H232	H	0.420629	-0.132724	0.142299
H233	H	0.124010	0.190983	0.084921
H234	H	0.624010	0.690983	0.584921
H235	H	0.000158	-0.493832	-0.106199
H236	H	0.500158	0.006168	0.393801
N237	N	-0.206014	0.055788	0.086900
N238	N	0.293986	0.555788	0.586900
N239	N	-0.206014	0.100801	0.086231
N240	N	0.293986	0.600801	0.586231
H241	H	-0.255245	0.118989	0.085953
H242	H	0.244755	0.618989	0.585953
N243	N	0.206364	0.055767	0.086868
N244	N	0.706364	0.555767	0.586868
N245	N	0.206365	0.100781	0.086212
N246	N	0.706365	0.600781	0.586212
H247	H	0.255597	0.118967	0.085947
H248	H	0.755597	0.618967	0.585947
N249	N	-0.088488	-0.638291	-0.498015
N250	N	0.411512	-0.138291	0.001985
N251	N	-0.158283	-0.639079	-0.490047
N252	N	0.341717	-0.139079	0.009953
H253	H	-0.189931	-0.663156	-0.521015
H254	H	0.310069	-0.163156	-0.021015
H255	H	0.192201	-0.192171	0.090518
H256	H	0.692201	0.307829	0.590518
N257	N	0.000208	-0.658339	-0.579188
N258	N	0.500208	-0.158339	-0.079188
N259	N	0.000220	-0.697339	-0.619363
N260	N	0.500220	-0.197339	-0.119363
H261	H	0.000243	-0.729392	-0.599568
H262	H	0.500243	-0.229392	-0.099568
N263	N	0.206373	-0.046140	0.088350
N264	N	0.706373	0.453860	0.588350
N265	N	0.267292	-0.023624	0.088002
N266	N	0.767292	0.476376	0.588002
H267	H	0.316535	-0.041802	0.088251
H268	H	0.816535	0.458198	0.588251
N269	N	0.138151	0.287680	0.083494
N270	N	0.638151	0.787680	0.583494
N271	N	0.138137	0.332694	0.082832
N272	N	0.638137	0.832694	0.582832
H273	H	0.187362	0.350886	0.082558
H274	H	0.687362	0.850886	0.582558
H275	H	-0.191898	-0.100687	0.089207
H276	H	0.308102	0.399313	0.589207
N277	N	0.579853	-0.583899	-0.039260
N278	N	1.079853	-0.083899	0.460740
N279	N	0.623819	-0.551638	-0.054519
N280	N	1.123819	-0.051638	0.445481
H281	H	0.652256	-0.556298	-0.100205
H282	H	1.152256	-0.056298	0.399795
H283	H	-0.191899	-0.192152	0.090549
H284	H	0.308101	0.307848	0.590549
H285	H	0.671723	-0.511000	0.175058
H286	H	1.171723	-0.011000	0.675058
N287	N	0.663540	-0.637444	-0.007410
N288	N	1.163540	-0.137444	0.492590
N289	N	0.619581	-0.622149	-0.050328
N290	N	1.119581	-0.122149	0.449672
H291	H	0.591109	-0.645897	-0.084656
H292	H	1.091109	-0.145897	0.415344
N293	N	0.336789	-0.637463	-0.007409
N294	N	0.836789	-0.137463	0.492591
N295	N	0.301614	-0.666901	-0.049877
N296	N	0.801614	-0.166901	0.450123
H297	H	0.330038	-0.690693	-0.084195
H298	H	0.830038	-0.190693	0.415805
N299	N	0.336742	-0.504148	0.184917
N300	N	0.836742	-0.004148	0.684917
N301	N	0.301545	-0.474707	0.227381
N302	N	0.801545	0.025293	0.727381
H303	H	0.329952	-0.450920	0.261705
H304	H	0.829952	0.049080	0.761705
H305	H	0.428668	-0.559054	0.203653
H306	H	0.928668	-0.059054	0.703653
H307	H	0.000173	-0.647788	-0.716288
H308	H	0.500173	-0.147788	-0.216288
N309	N	0.000123	-0.480219	-0.543742
N310	N	0.500123	0.019781	-0.043742
N311	N	0.000106	-0.440559	-0.568263
N312	N	0.500106	0.059441	-0.068263
H313	H	0.000092	-0.409039	-0.535816
H314	H	0.500092	0.090961	-0.035816
N315	N	0.088850	-0.501845	-0.470896
N316	N	0.588850	-0.001845	0.029104
N317	N	0.128013	-0.472047	-0.432562
N318	N	0.628013	0.027953	0.067438
H319	H	0.159678	-0.447441	-0.453846
H320	H	0.659678	0.052559	0.046154
N321	N	0.579775	-0.557734	0.216780
N322	N	1.079775	-0.057734	0.716780
N323	N	0.544572	-0.551948	0.273316
N324	N	1.044572	-0.051948	0.773316
H325	H	0.572973	-0.547280	0.319009
H326	H	1.072973	-0.047280	0.819009
H327	H	0.000154	-0.492496	-0.237625
H328	H	0.500154	0.007504	0.262375
H329	H	0.428724	-0.582566	-0.026141
H330	H	0.928724	-0.082566	0.473859
H331	H	-0.123627	0.191011	0.084925
H332	H	0.376373	0.691011	0.584925
N333	N	0.177474	-0.504130	0.184902
N334	N	0.677474	-0.004130	0.684902
N335	N	0.212651	-0.474693	0.227369
N336	N	0.712651	0.025307	0.727369
H337	H	0.184229	-0.450898	0.261685
H338	H	0.684229	0.049102	0.761685
H339	H	-0.191891	-0.040896	0.088330
H340	H	0.308109	0.459104	0.588330
