data_functionalizedCrystal
_audit_creation_method	'MofGen! by Chris Wilmer'
_symmetry_space_group_name_H-M	'P1'
_symmetry_Int_Tables_number	1
_symmetry_cell_setting	triclinic
loop_
_symmetry_equiv_pos_as_xyz
  x,y,z
_cell_length_a	12.759399
_cell_length_b	17.077404
_cell_length_c	17.077396
_cell_angle_alpha	90.021457
_cell_angle_beta	89.973998
_cell_angle_gamma	89.985780
loop_
_atom_site_label
_atom_site_type_symbol
_atom_site_fract_x
_atom_site_fract_y
_atom_site_fract_z
Zn1	Zn	-0.418291	-1.200097	-0.443897
Zn2	Zn	-0.593992	-1.200022	-0.312637
Zn3	Zn	-0.418325	-1.068829	-0.312641
Zn4	Zn	-0.593926	-1.068815	-0.443856
O5	O	-0.506134	-1.134441	-0.378258
O6	O	-0.441612	-1.309934	-0.426501
O7	O	-0.570731	-1.182593	-0.202790
O8	O	-0.271299	-1.086279	-0.330071
O9	O	-0.570698	-1.309879	-0.330065
O10	O	-0.271275	-1.182721	-0.426505
O11	O	-0.441669	-1.086206	-0.202793
O12	O	-0.441605	-0.958980	-0.330031
O13	O	-0.570586	-1.086255	-0.553708
O14	O	-0.570619	-0.958970	-0.426434
O15	O	-0.441548	-1.182708	-0.553739
O16	O	-0.741004	-1.182580	-0.330025
O17	O	-0.740956	-1.086182	-0.426431
C18	C	-0.506109	-0.930493	-0.378229
C19	C	-0.506124	-0.843243	-0.378235
C20	C	-0.573402	-0.802268	-0.428351
C21	C	-0.573402	-0.720287	-0.428361
C22	C	-0.506129	-0.679284	-0.378250
C23	C	-0.438844	-0.720264	-0.328133
C24	C	-0.438839	-0.802243	-0.328128
C25	C	-0.438860	-0.549394	-0.328146
C26	C	-0.438866	-0.467410	-0.328150
C27	C	-0.573423	-0.467438	-0.428379
C28	C	-0.573418	-0.549417	-0.428374
C29	C	-0.506134	-0.590393	-0.378255
C30	C	-0.779101	-1.134392	-0.378240
C31	C	-0.895878	-1.134444	-0.378258
C32	C	-0.950730	-1.184695	-0.328117
C33	C	-1.060454	-1.184746	-0.328143
C34	C	-1.060464	-1.084286	-0.428455
C35	C	-0.950742	-1.084240	-0.428432
C36	C	-1.210331	-1.277400	-0.300215
C37	C	-1.265187	-1.327645	-0.250061
C38	C	-1.229639	-1.339725	-0.173471
C39	C	-1.139236	-1.301549	-0.147020
C40	C	-1.084385	-1.251299	-0.197169
C41	C	-1.119932	-1.239233	-0.273770
C42	C	-0.800862	-0.991585	-0.456352
C43	C	-0.746010	-0.941330	-0.506498
C44	C	-0.781557	-0.929242	-0.583089
C45	C	-0.871963	-0.967404	-0.609538
C46	C	-0.926815	-1.017658	-0.559392
C47	C	-0.891261	-1.029748	-0.482802
C48	C	-0.232100	-1.134510	-0.378293
C49	C	-0.115324	-1.134540	-0.378308
C50	C	-0.506056	-1.134488	-0.583002
C51	C	-0.506023	-1.134508	-0.670252
C52	C	-0.506152	-0.339185	-0.378278
C53	C	-0.506143	-0.426435	-0.378265
C54	C	-0.438827	-1.184733	-0.711259
C55	C	-0.438792	-1.184742	-0.793240
C56	C	-0.505959	-1.134531	-0.834211
C57	C	-0.573158	-1.084300	-0.793198
C58	C	-0.573187	-1.084288	-0.711219
C59	C	-0.573095	-1.084332	-0.964069
C60	C	-0.573068	-1.084346	-1.046053
C61	C	-0.438700	-1.184787	-1.046089
C62	C	-0.438729	-1.184774	-0.964110
C63	C	-0.505930	-1.134545	-0.923102
C64	C	-0.506135	-1.134438	-0.174310
C65	C	-0.505872	-1.134570	-0.087060
H66	H	-0.906062	-1.225575	-0.287264
H67	H	-0.627894	-1.043381	-0.677832
H68	H	-0.384049	-0.835604	-0.287323
H69	H	-1.274310	-1.380636	-0.132636
C70	C	-0.364936	-1.239970	-0.666198
N71	N	-0.309275	-1.281574	-0.632260
H72	H	-0.383982	-1.225684	-1.079481
H73	H	-0.384077	-1.225642	-0.826624
H74	H	-0.384061	-0.582754	-0.287341
H75	H	-0.627800	-1.043418	-0.930683
C76	C	-0.911067	-0.954108	-0.693793
N77	N	-0.940518	-0.944090	-0.757256
H78	H	-0.384074	-0.434026	-0.287355
H79	H	-0.627843	-1.043414	-0.826564
C80	C	-1.100130	-1.314850	-0.062767
N81	N	-1.070666	-1.324876	0.000690
C82	C	-0.364840	-0.675157	-0.273013
N83	N	-0.309101	-0.641183	-0.231494
H84	H	-0.736886	-0.888317	-0.623917
C85	C	-0.364840	-1.240008	-0.919042
N86	N	-0.309181	-1.281608	-0.885098
H87	H	-0.628187	-0.835647	-0.469154
C88	C	-0.984943	-1.209312	-0.168079
N89	N	-0.910037	-1.177692	-0.146167
H90	H	-0.672392	-0.910261	-0.484959
C91	C	-1.249440	-1.264120	-0.384470
N92	N	-1.278904	-1.254115	-0.447931
H93	H	-0.771905	-1.001429	-0.393987
H94	H	-1.338793	-1.358728	-0.271605
H95	H	-0.627758	-1.043457	-1.079410
C96	C	-0.647433	-0.675219	-0.483476
N97	N	-0.703203	-0.641273	-0.524987
H98	H	-1.105147	-1.043411	-0.469303
H99	H	-1.000426	-1.048735	-0.580934
H100	H	-0.628203	-0.582801	-0.469173
H101	H	-0.628205	-0.434073	-0.469190
