data_functionalizedCrystal
_audit_creation_method	'MofGen! by Chris Wilmer'
_symmetry_space_group_name_H-M	'P1'
_symmetry_Int_Tables_number	1
_symmetry_cell_setting	triclinic
loop_
_symmetry_equiv_pos_as_xyz
  x,y,z
_cell_length_a	12.645331
_cell_length_b	12.645330
_cell_length_c	12.759387
_cell_angle_alpha	90.029414
_cell_angle_beta	90.016150
_cell_angle_gamma	90.016927
loop_
_atom_site_label
_atom_site_type_symbol
_atom_site_fract_x
_atom_site_fract_y
_atom_site_fract_z
Zn1	Zn	1.620736	-0.422005	0.593893
Zn2	Zn	1.620616	-0.599307	0.418218
Zn3	Zn	1.443449	-0.422056	0.418243
Zn4	Zn	1.443432	-0.599225	0.593870
O5	O	1.532058	-0.510648	0.506056
O6	O	1.769067	-0.445538	0.570588
O7	O	1.597071	-0.575850	0.271200
O8	O	1.467023	-0.273702	0.441564
O9	O	1.768979	-0.575801	0.441520
O10	O	1.597275	-0.273665	0.570613
O11	O	1.466907	-0.445624	0.271219
O12	O	1.295099	-0.445544	0.441542
O13	O	1.466995	-0.575660	0.740894
O14	O	1.295087	-0.575710	0.570574
O15	O	1.597259	-0.445458	0.740911
O16	O	1.597055	-0.747644	0.441498
O17	O	1.466879	-0.747583	0.570549
C18	C	1.256628	-0.510624	0.506059
C19	C	1.138798	-0.510640	0.506085
C20	C	0.971262	-0.592975	0.586836
C21	C	1.093822	-0.592710	0.587173
C22	C	1.094320	-0.398982	0.536333
C23	C	0.971722	-0.399485	0.536902
C24	C	0.971552	-0.539062	0.394829
C25	C	1.094158	-0.541503	0.395429
C26	C	1.531981	-0.786078	0.506041
C27	C	1.532045	-0.903908	0.506070
C28	C	1.450488	-1.071478	0.587506
C29	C	1.450071	-0.948919	0.587245
C30	C	1.501798	-0.948511	0.395351
C31	C	1.501301	-1.071109	0.395845
C32	C	1.644346	-1.070997	0.534455
C33	C	1.643658	-0.948389	0.536877
C34	C	1.808563	-0.510673	0.506054
C35	C	1.926393	-0.510684	0.506053
C36	C	1.532138	-0.510544	0.780090
C37	C	1.532172	-0.510500	0.896866
C38	C	1.532165	-0.234143	0.506094
C39	C	1.532210	-0.116313	0.506110
C40	C	1.532039	-0.510675	0.233089
C41	C	1.532211	-0.510421	0.116312
C42	C	1.667826	-0.374929	0.896904
C43	C	1.735667	-0.307128	0.951783
C44	C	1.735693	-0.307089	1.061505
C45	C	1.667868	-0.374857	1.116350
C46	C	1.600026	-0.442658	1.061470
C47	C	1.600010	-0.442692	0.951746
C48	C	1.464369	-0.578222	1.061433
C49	C	1.464347	-0.578268	0.951711
C50	C	1.396544	-0.645990	1.116278
C51	C	1.328706	-0.713798	1.061398
C52	C	1.328684	-0.713835	0.951670
C53	C	1.396506	-0.646069	0.896832
H54	H	0.942534	-0.479121	0.334639
O55	O	1.475055	-0.908954	0.696008
H56	H	1.487550	-0.977193	0.749266
O57	O	1.728543	-0.907826	0.464031
H58	H	1.731280	-0.820187	0.468099
O59	O	1.341049	-1.112387	0.562951
H60	H	1.344607	-1.164511	0.493025
O61	O	1.339963	-0.910178	0.562344
H62	H	1.286808	-0.979011	0.550434
H63	H	0.943148	-0.375416	0.618212
O64	O	1.133668	-0.702386	0.562069
H65	H	1.104246	-0.758794	0.621972
O66	O	1.474932	-1.110937	0.696520
H67	H	1.545637	-1.162860	0.693871
H68	H	1.396499	-0.646097	0.807490
H69	H	1.123171	-0.573928	0.669586
O70	O	0.930490	-0.568416	0.695370
H71	H	0.962633	-0.626968	0.751778
O72	O	1.255503	-0.786963	0.892486
H73	H	1.266871	-0.775604	0.806975
H74	H	0.940630	-0.619094	0.367335
O75	O	1.667800	-0.374994	0.778561
H76	H	1.646403	-0.295049	0.749626
H77	H	1.419328	-1.099801	0.371831
H78	H	1.558240	-1.100772	0.333131
O79	O	1.396571	-0.645946	1.234620
H80	H	1.316632	-0.624486	1.263548
O81	O	1.578130	-0.909897	0.312810
H82	H	1.638576	-0.858379	0.349915
H83	H	1.666467	-0.919233	0.618360
H84	H	0.942041	-0.335973	0.480762
O85	O	1.394346	-0.907979	0.362957
H86	H	1.362311	-0.856083	0.425529
H87	H	1.667886	-0.374810	1.205691
O88	O	1.680893	-1.111825	0.639589
H89	H	1.685545	-1.199440	0.637094
O90	O	1.725057	-1.109637	0.456104
H91	H	1.685559	-1.160838	0.397234
O92	O	1.255552	-0.786879	1.120546
H93	H	1.266965	-0.775458	1.206062
O94	O	1.134703	-0.467872	0.311416
H95	H	1.109812	-0.385726	0.329610
O96	O	0.932192	-0.703022	0.562022
H97	H	0.880371	-0.700245	0.491852
H98	H	1.790887	-0.251951	0.907116
H99	H	1.790929	-0.251873	1.106187
H100	H	1.123453	-0.336002	0.479333
H101	H	1.123240	-0.623667	0.372615
O102	O	1.135045	-0.366488	0.642851
H103	H	1.186944	-0.429680	0.674421
