data_functionalizedCrystal
_audit_creation_method	'MofGen! by Chris Wilmer'
_symmetry_space_group_name_H-M	'P1'
_symmetry_Int_Tables_number	1
_symmetry_cell_setting	triclinic
loop_
_symmetry_equiv_pos_as_xyz
  x,y,z
_cell_length_a	16.120484
_cell_length_b	16.120530
_cell_length_c	16.120297
_cell_angle_alpha	89.871860
_cell_angle_beta	95.614431
_cell_angle_gamma	89.832673
loop_
_atom_site_label
_atom_site_type_symbol
_atom_site_fract_x
_atom_site_fract_y
_atom_site_fract_z
Zn1	Zn	-0.422264	-1.224987	-0.554813
Zn2	Zn	0.077736	-0.724987	-0.054813
Zn3	Zn	-0.554948	-1.224883	-0.422118
Zn4	Zn	-0.054948	-0.724883	0.077882
Zn5	Zn	-0.408180	-1.093726	-0.408056
Zn6	Zn	0.091820	-0.593726	0.091944
Zn7	Zn	-0.554181	-1.078880	-0.554051
Zn8	Zn	-0.054181	-0.578880	-0.054051
O9	O	-0.484893	-1.155619	-0.484760
O10	O	0.015107	-0.655619	0.015240
O11	O	-0.446081	-1.341009	-0.543415
O12	O	0.053919	-0.841009	-0.043415
O13	O	-0.529906	-1.213654	-0.303620
O14	O	-0.029906	-0.713654	0.196380
O15	O	-0.293418	-1.117395	-0.421958
O16	O	0.206582	-0.617395	0.078042
O17	O	-0.543563	-1.340932	-0.445925
O18	O	-0.043563	-0.840932	0.054075
O19	O	-0.303765	-1.213832	-0.529780
O20	O	0.196235	-0.713832	-0.029780
O21	O	-0.422076	-1.117294	-0.293289
O22	O	0.077924	-0.617294	0.206711
O23	O	-0.421332	-0.975721	-0.421218
O24	O	0.078668	-0.475721	0.078782
O25	O	-0.542255	-1.092092	-0.670785
O26	O	-0.042255	-0.592092	-0.170785
O27	O	-0.528598	-0.964814	-0.528480
O28	O	-0.028598	-0.464814	-0.028480
O29	O	-0.445336	-1.199436	-0.671345
O30	O	0.054664	-0.699436	-0.171345
O31	O	-0.671477	-1.199258	-0.445185
O32	O	-0.171477	-0.699258	0.054815
O33	O	-0.670913	-1.091990	-0.542116
O34	O	-0.170913	-0.591990	-0.042116
C35	C	-0.701438	-1.144023	-0.495113
C36	C	-0.201438	-0.644023	0.004887
C37	C	-0.794083	-1.139137	-0.499574
C38	C	-0.294083	-0.639137	0.000426
C39	C	-0.473354	-0.940181	-0.473241
C40	C	0.026646	-0.440181	0.026759
C41	C	-0.468438	-0.848013	-0.468334
C42	C	0.031562	-0.348013	0.031666
C43	C	-0.495281	-1.144119	-0.702152
C44	C	0.004719	-0.644119	-0.202152
C45	C	-0.499708	-1.139219	-0.794791
C46	C	0.000292	-0.639219	-0.294791
C47	C	-0.963706	-1.130220	-0.507736
C48	C	-0.463706	-0.630220	-0.007736
C49	C	-1.005249	-1.181166	-0.461804
C50	C	-0.505249	-0.681166	0.038196
C51	C	-1.099633	-1.176204	-0.466346
C52	C	-0.599633	-0.676204	0.033654
C53	C	-0.869313	-1.135180	-0.503196
C54	C	-0.369313	-0.635180	-0.003196
C55	C	-0.267505	-1.167282	-0.474385
C56	C	0.232495	-0.667282	0.025615
C57	C	-0.174867	-1.172251	-0.469964
C58	C	0.325133	-0.672251	0.030036
C59	C	-0.496479	-1.371899	-0.496324
C60	C	0.003521	-0.871899	0.003676
C61	C	-0.501416	-1.464064	-0.501252
C62	C	-0.001416	-0.964064	-0.001252
C63	C	-0.459445	-0.679262	-0.459381
C64	C	0.040555	-0.179262	0.040619
C65	C	-0.510407	-0.632810	-0.510202
C66	C	-0.010407	-0.132810	-0.010202
C67	C	-0.505403	-0.538911	-0.505220
C68	C	-0.005403	-0.038911	-0.005220
C69	C	-0.464448	-0.773169	-0.464361
C70	C	0.035552	-0.273169	0.035639
C71	C	-0.507770	-1.130243	-0.964403
C72	C	-0.007770	-0.630243	-0.464403
C73	C	-0.461776	-1.181172	-1.005965
C74	C	0.038224	-0.681172	-0.505965
C75	C	-0.466262	-1.176177	-1.100342
C76	C	0.033738	-0.676177	-0.600342
C77	C	-0.503285	-1.135236	-0.870017
C78	C	-0.003285	-0.635236	-0.370017
C79	C	-0.474489	-1.167125	-0.268213
C80	C	0.025511	-0.667125	0.231787
C81	C	-0.469836	-1.172198	-0.175571
C82	C	0.030164	-0.672198	0.324429
H83	H	-0.969931	-1.228508	-0.419069
H84	H	-0.469931	-0.728508	0.080931
H85	H	-0.557794	-0.663563	-0.557453
H86	H	-0.057794	-0.163563	-0.057453
H87	H	-0.412060	-0.648511	-0.412135
H88	H	0.087940	-0.148511	0.087865
H89	H	-0.550512	-1.082894	-0.999698
H90	H	-0.050512	-0.582894	-0.499698
H91	H	-0.419031	-1.228524	-0.970668
H92	H	0.080969	-0.728524	-0.470668
Br93	Br	-1.022568	-1.051316	-0.578960
Br94	Br	-0.522568	-0.551316	-0.078960
