data_functionalizedCrystal
_audit_creation_method	'MofGen! by Chris Wilmer'
_symmetry_space_group_name_H-M	'P1'
_symmetry_Int_Tables_number	1
_symmetry_cell_setting	triclinic
loop_
_symmetry_equiv_pos_as_xyz
  x,y,z
_cell_length_a	21.295417
_cell_length_b	13.032831
_cell_length_c	13.032268
_cell_angle_alpha	90.886977
_cell_angle_beta	82.859352
_cell_angle_gamma	97.165621
loop_
_atom_site_label
_atom_site_type_symbol
_atom_site_fract_x
_atom_site_fract_y
_atom_site_fract_z
Zn1	Zn	-0.425102	-1.498336	0.780728
Zn2	Zn	-0.518887	-1.520047	0.608724
Zn3	Zn	-0.398806	-1.348204	0.586976
Zn4	Zn	-0.515483	-1.326296	0.758850
O5	O	-0.464570	-1.423221	0.683820
O6	O	-0.449972	-1.645133	0.776169
O7	O	-0.493377	-1.515506	0.461925
O8	O	-0.314216	-1.368201	0.612731
O9	O	-0.518875	-1.661084	0.649799
O10	O	-0.333535	-1.478503	0.755080
O11	O	-0.405155	-1.389253	0.445946
O12	O	-0.401855	-1.201381	0.591517
O13	O	-0.513075	-1.330864	0.905667
O14	O	-0.487577	-1.185286	0.717793
O15	O	-0.446672	-1.457261	0.921740
O16	O	-0.606514	-1.494263	0.628585
O17	O	-0.604014	-1.351916	0.738882
C18	C	-0.441494	-1.156018	0.649922
C19	C	-0.431638	-1.041704	0.635445
C20	C	-0.628106	-1.423093	0.683746
C21	C	-0.698078	-1.423128	0.683760
C22	C	-0.482427	-1.389197	0.952062
C23	C	-0.490036	-1.374697	1.066371
C24	C	-0.732235	-1.497299	0.626403
C25	C	-0.797983	-1.497344	0.626433
C26	C	-0.829569	-1.423202	0.683806
C27	C	-0.795405	-1.349025	0.741175
C28	C	-0.729659	-1.348989	0.741152
N29	N	-0.925592	-1.332239	0.680232
N30	N	-0.988048	-1.332278	0.680248
C31	C	-1.027658	-1.423310	0.683879
N32	N	-1.002451	-1.514306	0.687474
N33	N	-0.939990	-1.514267	0.687452
C34	C	-0.900860	-1.423234	0.683837
C35	C	-1.133107	-1.497535	0.626551
C36	C	-1.198857	-1.497581	0.626588
C37	C	-1.196276	-1.349254	0.741323
C38	C	-1.130528	-1.349216	0.741293
C39	C	-1.098947	-1.423356	0.683901
C40	C	-0.300399	-1.423374	0.683920
C41	C	-0.230439	-1.423439	0.683963
C42	C	-0.487736	-1.691467	0.717850
C43	C	-0.497609	-1.805778	0.732352
C44	C	-0.469713	-0.982815	0.691375
C45	C	-0.459528	-0.864665	0.676414
C46	C	-0.446742	-1.457172	0.416628
C47	C	-0.438972	-1.471870	0.302345
C48	C	-0.460574	-1.430772	1.125287
C49	C	-0.468438	-1.415788	1.243431
H50	H	-0.706524	-1.557670	0.579675
C51	C	-0.397028	-1.551716	1.252343
H52	H	-0.397247	-1.551319	1.179497
H53	H	-0.354599	-1.534496	1.268016
H54	H	-0.413373	-1.618601	1.278658
C55	C	-0.510385	-1.335947	1.293436
H56	H	-0.510172	-1.336356	1.366283
H57	H	-0.494050	-1.269064	1.267123
H58	H	-0.552817	-1.353182	1.277766
C59	C	-0.531977	-1.294854	1.116375
H60	H	-0.549438	-1.261611	1.064091
H61	H	-0.565568	-1.328890	1.163260
H62	H	-0.506794	-1.244785	1.152609
C63	C	-0.551847	-0.855818	0.811989
H64	H	-0.551586	-0.928665	0.811586
H65	H	-0.545816	-0.829524	0.878919
H66	H	-0.591607	-0.840151	0.794569
H67	H	-0.419386	-0.827617	0.617453
H68	H	-0.825800	-1.557746	0.579727
H69	H	-0.701847	-1.288589	0.787860
H70	H	-0.391498	-1.004651	0.576488
C71	C	-0.830146	-1.267470	0.804281
H72	H	-0.874193	-1.278107	0.796072
H73	H	-0.825240	-1.273691	0.875291
H74	H	-0.812442	-1.200290	0.780399
H75	H	-1.107393	-1.557907	0.579823
H76	H	-0.429526	-1.489869	1.088260
C77	C	-0.523936	-1.032859	0.771029
H78	H	-0.523671	-1.105705	0.770631
H79	H	-0.517892	-1.006556	0.837951
H80	H	-0.563704	-1.017202	0.753632
H81	H	-1.221993	-1.288890	0.788043
C82	C	-1.236430	-1.579172	0.563491
H83	H	-1.208202	-1.623312	0.529303
H84	H	-1.268528	-1.618977	0.608553
H85	H	-1.255734	-1.545559	0.513673
C86	C	-1.092952	-1.267617	0.804372
H87	H	-1.121177	-1.223460	0.838539
H88	H	-1.073645	-1.301214	0.854191
H89	H	-1.060855	-1.227817	0.759294
