data_functionalizedCrystal
_audit_creation_method	'MofGen! by Chris Wilmer'
_symmetry_space_group_name_H-M	'P1'
_symmetry_Int_Tables_number	1
_symmetry_cell_setting	triclinic
loop_
_symmetry_equiv_pos_as_xyz
  x,y,z
_cell_length_a	19.121321
_cell_length_b	19.121063
_cell_length_c	16.959447
_cell_angle_alpha	92.406624
_cell_angle_beta	92.425678
_cell_angle_gamma	89.929715
loop_
_atom_site_label
_atom_site_type_symbol
_atom_site_fract_x
_atom_site_fract_y
_atom_site_fract_z
Zn1	Zn	1.059784	-0.324740	-0.411576
Zn2	Zn	1.054698	-0.441984	-0.285261
Zn3	Zn	0.942559	-0.319775	-0.284805
Zn4	Zn	0.937513	-0.436947	-0.422786
O5	O	0.998639	-0.380862	-0.351107
O6	O	1.157211	-0.344479	-0.390319
O7	O	1.039806	-0.425804	-0.174592
O8	O	0.962349	-0.222330	-0.296740
O9	O	1.153474	-0.430618	-0.297516
O10	O	1.048474	-0.225978	-0.389878
O11	O	0.957417	-0.336017	-0.174257
O12	O	0.843788	-0.331132	-0.307610
O13	O	0.953750	-0.422032	-0.531908
O14	O	0.840081	-0.417218	-0.408983
O15	O	1.043582	-0.339594	-0.523672
O16	O	1.034913	-0.539420	-0.308386
O17	O	0.948818	-0.535719	-0.409425
C18	C	0.816498	-0.373090	-0.359464
C19	C	0.738577	-0.369782	-0.363059
C20	C	0.297969	-0.348772	-0.385851
C21	C	0.371184	-0.351893	-0.382470
C22	C	0.405840	-0.398228	-0.332376
C23	C	0.367277	-0.441449	-0.285666
C24	C	0.294063	-0.438331	-0.289052
C25	C	0.626800	-0.409886	-0.319735
C26	C	0.700019	-0.412999	-0.316351
C27	C	0.703921	-0.323443	-0.413156
C28	C	0.630706	-0.320327	-0.416534
C29	C	0.592149	-0.363550	-0.369827
C30	C	0.480677	-0.401418	-0.328917
C31	C	0.517313	-0.360364	-0.373291
C32	C	0.990785	-0.563007	-0.360188
C33	C	0.987490	-0.640933	-0.364096
C34	C	1.030801	-0.679448	-0.313367
C35	C	1.027706	-0.752667	-0.317047
C36	C	0.981295	-0.787370	-0.371453
C37	C	0.937981	-0.748850	-0.422187
C38	C	0.941081	-0.675632	-0.418511
C39	C	0.969696	-1.008345	-0.385188
C40	C	0.966598	-1.081568	-0.388859
C41	C	1.056324	-1.085380	-0.283719
C42	C	1.059416	-1.012161	-0.280044
C43	C	1.016105	-0.973647	-0.330781
C44	C	0.978128	-0.862212	-0.375214
C45	C	1.019276	-0.898807	-0.327023
C46	C	1.181491	-0.388664	-0.342718
C47	C	1.259411	-0.391989	-0.339143
C48	C	0.998670	-0.380805	-0.557271
C49	C	0.998684	-0.380781	-0.645126
C50	C	1.006542	-0.198005	-0.342008
C51	C	1.009910	-0.120083	-0.338130
C52	C	0.951999	-0.423632	-1.020885
C53	C	1.045542	-0.337789	-1.012304
C54	C	1.045523	-0.337803	-0.929759
C55	C	0.998742	-0.380733	-0.892774
C56	C	0.951980	-0.423649	-0.938333
C57	C	1.092289	-0.294893	-0.884195
C58	C	1.092272	-0.294906	-0.801645
C59	C	1.045487	-0.337833	-0.764658
C60	C	0.998722	-0.380750	-0.810222
C61	C	0.951941	-0.423680	-0.773237
C62	C	0.905173	-0.466594	-0.818799
C63	C	0.905195	-0.466575	-0.901346
C64	C	1.045465	-0.337851	-0.682111
C65	C	0.951922	-0.423697	-0.690685
C66	C	0.998650	-0.380869	-0.145741
C67	C	0.998780	-0.380702	-0.057870
H68	H	0.728233	-0.450733	-0.275557
H69	H	0.913920	-0.458569	-1.057985
H70	H	0.905813	-0.644274	-0.459821
H71	H	0.913821	-0.458649	-0.660578
H72	H	1.130379	-0.259946	-0.914314
H73	H	0.395499	-0.479179	-0.244882
H74	H	1.130353	-0.259962	-0.764555
H75	H	0.940339	-0.890475	-0.419510
H76	H	1.097208	-0.983907	-0.235742
H77	H	1.057067	-0.870550	-0.282728
H78	H	0.595416	-0.445080	-0.281701
H79	H	0.900195	-0.777111	-0.466489
H80	H	1.091586	-1.116745	-0.242412
H81	H	0.402574	-0.316704	-0.420507
H82	H	0.602494	-0.282598	-0.457329
H83	H	0.928813	-1.109822	-0.433176
H84	H	1.083545	-0.302913	-0.645018
H85	H	0.262670	-0.473524	-0.251019
H86	H	0.934429	-0.976993	-0.426499
H87	H	0.269758	-0.311037	-0.426638
H88	H	1.083633	-0.302841	-1.042423
H89	H	0.867121	-0.501516	-0.938450
H90	H	0.735321	-0.288254	-0.451182
H91	H	0.508902	-0.439141	-0.288127
H92	H	0.867087	-0.501550	-0.788675
H93	H	1.068591	-0.651197	-0.269060
H94	H	1.062975	-0.784022	-0.275737
H95	H	0.489093	-0.322641	-0.414080
