data_functionalizedCrystal
_audit_creation_method	'MofGen! by Chris Wilmer'
_symmetry_space_group_name_H-M	'P1'
_symmetry_Int_Tables_number	1
_symmetry_cell_setting	triclinic
loop_
_symmetry_equiv_pos_as_xyz
  x,y,z
_cell_length_a	17.640112
_cell_length_b	13.897448
_cell_length_c	13.897441
_cell_angle_alpha	90.030599
_cell_angle_beta	78.825410
_cell_angle_gamma	101.242525
loop_
_atom_site_label
_atom_site_type_symbol
_atom_site_fract_x
_atom_site_fract_y
_atom_site_fract_z
Zn1	Zn	1.208346	-0.085573	0.247765
Zn2	Zn	1.708346	0.414427	0.747765
Zn3	Zn	1.208259	-0.246916	0.086488
Zn4	Zn	1.708259	0.253084	0.586488
Zn5	Zn	1.076171	-0.118257	0.119038
Zn6	Zn	1.576171	0.381743	0.619038
Zn7	Zn	1.076156	-0.279473	0.280278
Zn8	Zn	1.576156	0.220527	0.780278
O9	O	1.142233	-0.182555	0.183392
O10	O	1.642233	0.317445	0.683392
O11	O	1.318936	-0.079672	0.199142
O12	O	1.818936	0.420328	0.699142
O13	O	1.190707	-0.229902	-0.044169
O14	O	1.690707	0.270098	0.455831
O15	O	1.093747	0.021071	0.136130
O16	O	1.593747	0.521071	0.636130
O17	O	1.318872	-0.198210	0.080652
O18	O	1.818872	0.301790	0.580652
O19	O	1.190855	0.045084	0.230705
O20	O	1.690855	0.545084	0.730705
O21	O	1.093662	-0.135377	-0.020254
O22	O	1.593662	0.364623	0.479746
O23	O	0.965567	-0.166946	0.167656
O24	O	1.465567	0.333054	0.667656
O25	O	1.093721	-0.253699	0.410939
O26	O	1.593721	0.246301	0.910939
O27	O	0.965556	-0.285391	0.286118
O28	O	1.465556	0.214609	0.786118
O29	O	1.190841	-0.111241	0.387052
O30	O	1.690841	0.388759	0.887052
O31	O	1.190693	-0.386227	0.112179
O32	O	1.690693	0.113773	0.612179
O33	O	1.093637	-0.410146	0.254555
O34	O	1.593637	0.089854	0.754555
C35	C	0.936884	-0.233249	0.233948
C36	C	1.436884	0.266751	0.733948
C37	C	0.849035	-0.254959	0.255599
C38	C	1.349035	0.245041	0.755599
C39	C	1.142175	-0.433183	0.183378
C40	C	1.642175	0.066817	0.683378
C41	C	1.142223	-0.540385	0.183387
C42	C	1.642223	-0.040385	0.683387
C43	C	0.560028	-0.017606	0.018922
C44	C	1.060028	0.482394	0.518922
C45	C	0.477481	-0.038026	0.039279
C46	C	0.977481	0.461974	0.539279
C47	C	0.477524	-0.161532	0.162420
C48	C	0.977524	0.338468	0.662420
C49	C	0.560073	-0.141119	0.142077
C50	C	1.060073	0.358881	0.642077
C51	C	0.601319	-0.069156	0.070326
C52	C	1.101319	0.430844	0.570326
C53	C	0.601363	-0.192670	0.193481
C54	C	1.101363	0.307330	0.693481
C55	C	0.683906	-0.172262	0.173135
C56	C	1.183906	0.327738	0.673135
C57	C	0.725157	-0.100304	0.101385
C58	C	1.225157	0.399696	0.601385
C59	C	0.683861	-0.048748	0.049980
C60	C	1.183861	0.451252	0.549980
C61	C	0.560116	-0.264637	0.265227
C62	C	1.060116	0.235363	0.765227
C63	C	0.601406	-0.316187	0.316631
C64	C	1.101406	0.183813	0.816631
C65	C	0.683950	-0.295775	0.296290
C66	C	1.183950	0.204225	0.796290
C67	C	0.725202	-0.223817	0.224540
C68	C	1.225202	0.276183	0.724540
C69	C	0.725246	-0.347331	0.347696
C70	C	1.225246	0.152669	0.847696
C71	C	0.807789	-0.326923	0.327350
C72	C	1.307789	0.173077	0.827350
C73	C	0.807744	-0.203409	0.204194
C74	C	1.307744	0.296591	0.704194
C75	C	1.142306	-0.736660	0.183427
C76	C	1.642306	-0.236660	0.683427
C77	C	1.142257	-0.627440	0.183408
C78	C	1.642257	-0.127440	0.683408
C79	C	1.348384	-0.131663	0.132640
C80	C	1.848384	0.368337	0.632640
C81	C	1.436233	-0.109976	0.111012
C82	C	1.936233	0.390024	0.611012
C83	C	1.142289	-0.182456	0.434971
C84	C	1.642289	0.317544	0.934971
C85	C	1.142313	-0.182413	0.542180
C86	C	1.642313	0.317587	1.042180
C87	C	1.142312	0.069058	0.183422
C88	C	1.642312	0.569058	0.683422
C89	C	1.142346	0.176280	0.183434
C90	C	1.642346	0.676280	0.683434
C91	C	1.142222	-0.182573	-0.067220
C92	C	1.642222	0.317427	0.432780
C93	C	1.142352	-0.182305	-0.174465
C94	C	1.642352	0.317695	0.325535
C95	C	1.142334	-0.182343	0.738470
C96	C	1.642334	0.317657	1.238470
C97	C	1.142320	-0.182385	0.629241
C98	C	1.642320	0.317615	1.129241
H99	H	0.841329	-0.144795	0.145782
H100	H	1.341329	0.355205	0.645782
H101	H	0.841408	-0.368899	0.369209
H102	H	1.341408	0.131101	0.869209
H103	H	0.792369	-0.083691	0.084819
H104	H	1.292369	0.416309	0.584819
H105	H	0.443930	-0.220127	0.220837
H106	H	0.943930	0.279873	0.720837
H107	H	0.443865	0.003965	-0.002579
H108	H	0.943865	0.503965	0.497421
H109	H	0.717446	0.009866	-0.008433
H110	H	1.217446	0.509866	0.491567
H111	H	0.691652	-0.405930	0.406108
H112	H	1.191652	0.094070	0.906108
H113	H	0.492905	-0.281251	0.281790
H114	H	0.992905	0.218749	0.781790
H115	H	0.593613	0.041008	-0.039491
H116	H	1.093613	0.541008	0.460509
H117	H	0.567813	-0.374783	0.375048
H118	H	1.067813	0.125217	0.875048
