data_functionalizedCrystal
_audit_creation_method	'MofGen! by Chris Wilmer'
_symmetry_space_group_name_H-M	'P1'
_symmetry_Int_Tables_number	1
_symmetry_cell_setting	triclinic
loop_
_symmetry_equiv_pos_as_xyz
  x,y,z
_cell_length_a	9.065215
_cell_length_b	14.519709
_cell_length_c	8.140239
_cell_angle_alpha	89.995533
_cell_angle_beta	89.997810
_cell_angle_gamma	84.347421
loop_
_atom_site_label
_atom_site_type_symbol
_atom_site_fract_x
_atom_site_fract_y
_atom_site_fract_z
O1	O	1.957866	0.135212	-0.136599
O2	O	2.457866	0.635212	0.363401
O3	O	1.528373	0.146307	-0.136606
O4	O	2.028373	0.646307	0.363394
O5	O	1.754507	0.006605	-0.136588
O6	O	2.254507	0.506605	0.363412
O7	O	1.731732	0.274915	-0.136618
O8	O	2.231732	0.774915	0.363382
O9	O	1.754495	0.006603	0.136640
O10	O	2.254495	0.506603	0.636640
O11	O	1.528361	0.146305	0.136621
O12	O	2.028361	0.646305	0.636621
O13	O	1.957854	0.135211	0.136628
O14	O	2.457854	0.635211	0.636628
Zn15	Zn	1.743105	0.140758	0.180005
Zn16	Zn	2.243105	0.640758	0.680005
Zn17	Zn	1.743122	0.140760	-0.179983
Zn18	Zn	2.243122	0.640760	0.320017
O19	O	1.731720	0.274913	0.136610
O20	O	2.231720	0.774913	0.636610
C21	C	1.473400	0.145241	0.000006
C22	C	1.973400	0.645241	0.500006
C23	C	1.309617	0.142054	0.000004
C24	C	1.809617	0.642054	0.500004
C25	C	1.753439	-0.027764	0.000026
C26	C	2.253439	0.472236	0.500026
C27	C	1.750259	-0.130168	0.000027
C28	C	2.250259	0.369832	0.500027
C29	C	1.738550	-0.505150	-0.000016
C30	C	2.238550	-0.005150	0.499984
C31	C	1.741801	-0.400818	-0.000003
C32	C	2.241801	0.099182	0.499997
C33	C	1.744404	-0.317662	0.000007
C34	C	2.244404	0.182338	0.500007
C35	C	1.747656	-0.213324	0.000017
C36	C	2.247656	0.286676	0.500017
C37	C	2.012827	0.136277	0.000012
C38	C	2.512827	0.636277	0.500012
C39	C	2.176610	0.139464	0.000004
C40	C	2.676610	0.639464	0.500004
C41	C	1.732788	0.309282	-0.000008
C42	C	2.232788	0.809282	0.499992
C43	C	1.735968	0.411686	-0.000019
C44	C	2.235968	0.911686	0.499981
N45	N	1.743105	0.140756	0.425688
N46	N	2.243105	0.640756	0.925688
N47	N	1.743134	0.140755	-0.425666
N48	N	2.243134	0.640755	0.074334
