data_functionalizedCrystal
_audit_creation_method	'MofGen! by Chris Wilmer'
_symmetry_space_group_name_H-M	'P1'
_symmetry_Int_Tables_number	1
_symmetry_cell_setting	triclinic
loop_
_symmetry_equiv_pos_as_xyz
  x,y,z
_cell_length_a	12.759401
_cell_length_b	16.959454
_cell_length_c	16.959447
_cell_angle_alpha	89.973264
_cell_angle_beta	89.987743
_cell_angle_gamma	90.020236
loop_
_atom_site_label
_atom_site_type_symbol
_atom_site_fract_x
_atom_site_fract_y
_atom_site_fract_z
Zn1	Zn	1.606151	-0.314663	-0.446885
Zn2	Zn	1.606048	-0.446855	-0.314715
Zn3	Zn	1.430473	-0.314695	-0.314727
Zn4	Zn	1.430426	-0.446803	-0.446858
O5	O	1.518275	-0.380754	-0.380796
O6	O	1.753159	-0.332206	-0.429358
O7	O	1.582734	-0.429359	-0.204105
O8	O	1.453839	-0.204080	-0.332275
O9	O	1.753083	-0.429328	-0.332253
O10	O	1.582910	-0.204056	-0.429370
O11	O	1.453740	-0.332261	-0.204115
O12	O	1.283445	-0.332211	-0.332249
O13	O	1.453759	-0.429239	-0.557472
O14	O	1.283411	-0.429271	-0.429324
O15	O	1.582864	-0.332156	-0.557492
O16	O	1.582689	-0.557459	-0.332227
O17	O	1.453660	-0.557421	-0.429312
C18	C	1.245307	-0.380739	-0.380785
C19	C	1.128531	-0.380752	-0.380800
C20	C	1.073678	-0.431372	-0.431263
C21	C	0.963954	-0.431382	-0.431272
C22	C	0.963945	-0.330150	-0.330346
C23	C	1.073667	-0.330137	-0.330342
C24	C	1.073683	-0.489820	-0.489530
C25	C	0.963958	-0.489830	-0.489538
C26	C	1.518186	-0.586120	-0.380783
C27	C	1.518245	-0.673977	-0.380803
C28	C	1.451186	-1.045463	-0.431343
C29	C	1.585655	-1.045442	-0.330330
C30	C	1.585619	-0.962896	-0.330323
C31	C	1.518364	-0.921630	-0.380825
C32	C	1.451145	-0.962909	-0.431336
C33	C	1.652828	-0.921611	-0.279808
C34	C	1.652793	-0.839060	-0.279798
C35	C	1.585543	-0.797792	-0.330305
C36	C	1.518323	-0.839076	-0.380818
C37	C	1.451068	-0.797810	-0.431321
C38	C	1.383852	-0.839093	-0.481838
C39	C	1.383895	-0.921641	-0.481843
C40	C	1.585500	-0.715243	-0.330300
C41	C	1.451027	-0.715256	-0.431314
C42	C	1.792308	-0.380769	-0.380807
C43	C	1.909084	-0.380776	-0.380812
C44	C	1.518318	-0.380689	-0.586964
C45	C	1.518337	-0.380661	-0.674821
C46	C	1.518391	-0.174586	-0.380827
C47	C	1.518441	-0.086729	-0.380840
C48	C	1.451243	-0.431124	-1.046289
C49	C	1.585682	-0.330031	-1.046305
C50	C	1.585654	-0.330047	-0.963759
C51	C	1.518421	-0.380604	-0.922474
C52	C	1.451215	-0.431144	-0.963735
C53	C	1.652865	-0.279514	-0.922491
C54	C	1.652840	-0.279529	-0.839940
C55	C	1.585601	-0.330083	-0.798654
C56	C	1.518393	-0.380624	-0.839921
C57	C	1.451160	-0.431181	-0.798636
C58	C	1.383945	-0.481719	-0.839901
C59	C	1.383976	-0.481697	-0.922449
C60	C	1.585570	-0.330104	-0.716106
C61	C	1.451132	-0.431201	-0.716082
C62	C	1.518291	-0.380762	-0.175430
C63	C	1.518476	-0.380567	-0.087574
H64	H	0.934158	-0.551032	-0.473039
N65	N	1.311320	-0.794578	-0.536310
H66	H	1.268746	-0.833251	-0.568316
H67	H	1.262711	-0.760375	-0.504097
H68	H	1.103484	-0.473499	-0.550776
N69	N	1.658184	-1.089958	-0.275865
H70	H	1.733235	-1.075550	-0.288188
H71	H	1.641822	-1.075617	-0.219397
N72	N	1.118735	-0.566803	-0.460346
H73	H	1.094313	-0.611213	-0.495498
H74	H	1.197785	-0.563914	-0.461401
N75	N	1.725316	-0.225016	-0.795432
H76	H	1.773974	-0.257145	-0.761170
H77	H	1.767842	-0.192995	-0.834160
H78	H	1.640298	-0.288959	-0.682512
H79	H	1.707576	-0.955216	-0.238685
N80	N	1.132831	-0.275520	-0.275934
H81	H	1.081424	-0.243456	-0.243975
H82	H	1.178344	-0.307627	-0.239290
H83	H	1.396263	-0.681662	-0.472442
H84	H	0.929955	-0.467983	-0.547734
H85	H	1.329171	-0.955261	-0.522971
N86	N	1.658191	-0.275507	-1.090834
H87	H	1.641900	-0.219033	-1.076485
H88	H	1.733218	-0.287856	-1.076445
H89	H	1.329257	-0.522845	-0.956055
H90	H	1.396464	-1.079079	-0.472475
H91	H	1.707524	-0.805452	-0.238665
N92	N	1.657979	-0.670716	-0.275816
H93	H	1.700586	-0.709384	-0.243821
H94	H	1.706560	-0.636423	-0.308017
N95	N	1.378598	-0.485718	-0.671556
H96	H	1.336022	-0.517724	-0.710224
H97	H	1.421319	-0.522314	-0.637293
N98	N	1.378760	-0.485636	-1.090791
H99	H	1.336168	-0.517666	-1.052109
H100	H	1.330165	-0.453451	-1.125049
H101	H	1.329208	-0.522885	-0.806276
N102	N	1.725377	-0.224991	-0.967020
H103	H	1.767956	-0.192983	-0.928355
H104	H	1.773983	-0.257167	-1.001262
H105	H	0.919261	-0.288940	-0.289266
