data_functionalizedCrystal
_audit_creation_method	'MofGen! by Chris Wilmer'
_symmetry_space_group_name_H-M	'P1'
_symmetry_Int_Tables_number	1
_symmetry_cell_setting	triclinic
loop_
_symmetry_equiv_pos_as_xyz
  x,y,z
_cell_length_a	27.732048
_cell_length_b	27.732048
_cell_length_c	7.088929
_cell_angle_alpha	96.157200
_cell_angle_beta	83.823277
_cell_angle_gamma	82.642655
loop_
_atom_site_label
_atom_site_type_symbol
_atom_site_fract_x
_atom_site_fract_y
_atom_site_fract_z
O1	O	0.062516	0.635935	-0.158766
O2	O	0.312516	0.885935	0.091234
O3	O	0.562516	1.135935	0.341234
O4	O	0.812516	1.385935	0.591234
O5	O	0.071264	0.495139	-0.158827
O6	O	0.321264	0.745139	0.091173
O7	O	0.571264	0.995139	0.341173
O8	O	0.821264	1.245139	0.591173
O9	O	-0.003508	0.569911	-0.158758
O10	O	0.246492	0.819911	0.091242
O11	O	0.496492	1.069911	0.341242
O12	O	0.746492	1.319911	0.591242
O13	O	0.137288	0.561163	-0.158835
O14	O	0.387288	0.811163	0.091165
O15	O	0.637288	1.061163	0.341165
O16	O	0.887288	1.311163	0.591165
O17	O	-0.013523	0.579904	0.159226
O18	O	0.236477	0.829904	0.409226
O19	O	0.486477	1.079904	0.659226
O20	O	0.736477	1.329904	0.909226
O21	O	0.061249	0.505132	0.159158
O22	O	0.311249	0.755132	0.409158
O23	O	0.561249	1.005132	0.659158
O24	O	0.811249	1.255132	0.909158
O25	O	0.052501	0.645927	0.159218
O26	O	0.302501	0.895927	0.409218
O27	O	0.552501	1.145927	0.659218
O28	O	0.802501	1.395927	0.909218
Cu29	Cu	0.055961	0.576442	0.188222
Cu30	Cu	0.305961	0.826442	0.438222
Cu31	Cu	0.555961	1.076442	0.688222
Cu32	Cu	0.805961	1.326442	0.938222
Cu33	Cu	0.067804	0.564625	-0.187831
Cu34	Cu	0.317804	0.814625	0.062169
Cu35	Cu	0.567804	1.064625	0.312169
Cu36	Cu	0.817804	1.314625	0.562169
O37	O	0.127273	0.571156	0.159150
O38	O	0.377273	0.821156	0.409150
O39	O	0.627273	1.071156	0.659150
O40	O	0.877273	1.321156	0.909150
C41	C	0.066073	0.482129	0.000158
C42	C	0.316073	0.732129	0.250158
C43	C	0.566073	0.982129	0.500158
C44	C	0.816073	1.232129	0.750158
C45	C	0.065521	0.428473	0.000137
C46	C	0.315521	0.678473	0.250137
C47	C	0.565521	0.928473	0.500137
C48	C	0.815521	1.178473	0.750137
C49	C	-0.026523	0.574724	0.000239
C50	C	0.223477	0.824724	0.250239
C51	C	0.473477	1.074724	0.500239
C52	C	0.723477	1.324724	0.750239
C53	C	-0.080178	0.574172	0.000255
C54	C	0.169822	0.824172	0.250255
C55	C	0.419822	1.074172	0.500255
C56	C	0.669822	1.324172	0.750255
C57	C	0.106223	0.089660	0.000197
C58	C	0.356223	0.339660	0.250197
C59	C	0.606223	0.589660	0.500197
C60	C	0.856223	0.839660	0.750197
C61	C	0.104171	-0.111999	0.000215
C62	C	0.354171	0.138001	0.250215
C63	C	0.604171	0.388001	0.500215
C64	C	0.854171	0.638001	0.750215
O65	O	0.141390	-0.143253	0.000278
O66	O	0.391390	0.106747	0.250278
O67	O	0.641390	0.356747	0.500278
O68	O	0.891390	0.606747	0.750278
N69	N	0.059835	-0.131122	0.000236
N70	N	0.309835	0.118878	0.250236
N71	N	0.559835	0.368878	0.500236
N72	N	0.809835	0.618878	0.750236
C73	C	0.016009	-0.099827	0.000265
C74	C	0.266009	0.150173	0.250265
C75	C	0.516009	0.400173	0.500265
C76	C	0.766009	0.650173	0.750265
O77	O	-0.021749	-0.120719	0.000303
O78	O	0.228251	0.129281	0.250303
O79	O	0.478251	0.379281	0.500303
O80	O	0.728251	0.629281	0.750303
C81	C	0.018060	0.101832	0.000260
C82	C	0.268060	0.351832	0.250260
C83	C	0.518060	0.601832	0.500260
C84	C	0.768060	0.851832	0.750260
C85	C	0.062400	0.120951	0.000220
C86	C	0.312400	0.370951	0.250220
C87	C	0.562400	0.620951	0.500220
C88	C	0.812400	0.870951	0.750220
C89	C	0.150558	0.108780	0.000159
C90	C	0.400558	0.358780	0.250159
C91	C	0.650558	0.608780	0.500159
C92	C	0.900558	0.858780	0.750159
C93	C	0.151071	0.159191	0.000144
C94	C	0.401071	0.409191	0.250144
C95	C	0.651071	0.659191	0.500144
C96	C	0.901071	0.909191	0.750144
C97	C	0.107248	0.190483	0.000167
C98	C	0.357248	0.440483	0.250167
C99	C	0.607248	0.690483	0.500167
C100	C	0.857248	0.940483	0.750167
C101	C	0.062912	0.171363	0.000205
C102	C	0.312912	0.421363	0.250205
C103	C	0.562912	0.671363	0.500205
C104	C	0.812912	0.921363	0.750205
C105	C	-0.025766	0.133127	0.000303
C106	C	0.224234	0.383127	0.250303
C107	C	0.474234	0.633127	0.500303
C108	C	0.724234	0.883127	0.750303
C109	C	-0.025249	0.183544	0.000306
C110	C	0.224751	0.433544	0.250306
C111	C	0.474751	0.683544	0.500306
C112	C	0.724751	0.933544	0.750306
C113	C	0.019090	0.202664	0.000266
C114	C	0.269090	0.452664	0.250266
C115	C	0.519090	0.702664	0.500266
C116	C	0.769090	0.952664	0.750266
C117	C	0.019602	0.253066	0.000213
C118	C	0.269602	0.503066	0.250213
C119	C	0.519602	0.753066	0.500213
C120	C	0.769602	1.003066	0.750213
N121	N	0.063938	0.272189	0.000193
N122	N	0.313938	0.522189	0.250193
N123	N	0.563938	0.772189	0.500193
N124	N	0.813938	1.022189	0.750193
C125	C	0.107761	0.240897	0.000170
C126	C	0.357761	0.490897	0.250170
C127	C	0.607761	0.740897	0.500170
C128	C	0.857761	0.990897	0.750170
C129	C	0.014935	-0.205701	0.000263
C130	C	0.264935	0.044299	0.250263
C131	C	0.514935	0.294299	0.500263
C132	C	0.764935	0.544299	0.750263
C133	C	0.014422	-0.256115	0.000261
C134	C	0.264422	-0.006115	0.250261
C135	C	0.514422	0.243885	0.500261
C136	C	0.764422	0.493885	0.750261
C137	C	0.102584	-0.268284	0.000215
C138	C	0.352584	-0.018284	0.250215
C139	C	0.602584	0.231716	0.500215
C140	C	0.852584	0.481716	0.750215
C141	C	0.103097	-0.217869	0.000204
C142	C	0.353097	0.032131	0.250204
C143	C	0.603097	0.282131	0.500204
C144	C	0.853097	0.532131	0.750204
C145	C	0.059271	-0.186578	0.000243
C146	C	0.309271	0.063422	0.250243
C147	C	0.559271	0.313422	0.500243
C148	C	0.809271	0.563422	0.750243
C149	C	0.108834	0.346765	0.000136
C150	C	0.358834	0.596765	0.250136
C151	C	0.608834	0.846765	0.500136
C152	C	0.858834	1.096765	0.750136
C153	C	0.109344	0.397182	0.000114
C154	C	0.359344	0.647182	0.250114
C155	C	0.609344	0.897182	0.500114
C156	C	0.859344	1.147182	0.750114
C157	C	0.021181	0.409346	0.000169
C158	C	0.271181	0.659346	0.250169
C159	C	0.521181	0.909346	0.500169
C160	C	0.771181	1.159346	0.750169
C161	C	0.020672	0.358934	0.000182
C162	C	0.270672	0.608934	0.250182
C163	C	0.520672	0.858934	0.500182
C164	C	0.770672	1.108934	0.750182
C165	C	0.064502	0.327645	0.000172
C166	C	0.314502	0.577645	0.250172
C167	C	0.564502	0.827645	0.500172
C168	C	0.814502	1.077645	0.750172
O169	O	-0.017597	0.284348	0.000172
O170	O	0.232403	0.534348	0.250172
O171	O	0.482403	0.784348	0.500172
O172	O	0.732403	1.034348	0.750172
O173	O	0.145512	0.261800	0.000174
O174	O	0.395512	0.511800	0.250174
O175	O	0.645512	0.761800	0.500174
O176	O	0.895512	1.011800	0.750174
C177	C	0.105710	0.039248	0.000212
C178	C	0.355710	0.289248	0.250212
C179	C	0.605710	0.539248	0.500212
C180	C	0.855710	0.789248	0.750212
C181	C	0.061374	0.020128	0.000250
C182	C	0.311374	0.270128	0.250250
C183	C	0.561374	0.520128	0.500250
C184	C	0.811374	0.770128	0.750250
C185	C	0.017551	0.051420	0.000273
C186	C	0.267551	0.301420	0.250273
C187	C	0.517551	0.551420	0.500273
C188	C	0.767551	0.801420	0.750273
C189	C	0.060861	-0.030286	0.000248
C190	C	0.310861	0.219714	0.250248
C191	C	0.560861	0.469714	0.500248
C192	C	0.810861	0.719714	0.750248
C193	C	0.104684	-0.061578	0.000225
C194	C	0.354684	0.188422	0.250225
C195	C	0.604684	0.438422	0.500225
C196	C	0.854684	0.688422	0.750225
C197	C	0.149020	-0.042455	0.000204
C198	C	0.399020	0.207545	0.250204
C199	C	0.649020	0.457545	0.500204
C200	C	0.899020	0.707545	0.750204
C201	C	0.149533	0.007957	0.000189
C202	C	0.399533	0.257957	0.250189
C203	C	0.649533	0.507957	0.500189
C204	C	0.899533	0.757957	0.750189
C205	C	-0.026785	0.032297	0.000294
C206	C	0.223215	0.282297	0.250294
C207	C	0.473215	0.532297	0.500294
C208	C	0.723215	0.782297	0.750294
C209	C	-0.027294	-0.018116	0.000307
C210	C	0.222706	0.231884	0.250307
C211	C	0.472706	0.481884	0.500307
C212	C	0.722706	0.731884	0.750307
C213	C	0.016529	-0.049407	0.000284
C214	C	0.266529	0.200593	0.250284
C215	C	0.516529	0.450593	0.500284
C216	C	0.766529	0.700593	0.750284
C217	C	-0.418990	0.614873	0.000174
C218	C	-0.168990	0.864873	0.250174
C219	C	0.081010	1.114873	0.500174
C220	C	0.331010	1.364873	0.750174
C221	C	-0.620649	0.612821	0.000147
C222	C	-0.370649	0.862821	0.250147
C223	C	-0.120649	1.112821	0.500147
C224	C	0.129351	1.362821	0.750147
O225	O	-0.651903	0.650040	0.000079
O226	O	-0.401903	0.900040	0.250079
O227	O	-0.151903	1.150040	0.500079
O228	O	0.098097	1.400040	0.750079
N229	N	-0.639772	0.568485	0.000129
N230	N	-0.389772	0.818485	0.250129
N231	N	-0.139772	1.068485	0.500129
N232	N	0.110228	1.318485	0.750129
C233	C	-0.608477	0.524659	0.000106
C234	C	-0.358477	0.774659	0.250106
C235	C	-0.108477	1.024659	0.500106
C236	C	0.141523	1.274659	0.750106
O237	O	-0.629369	0.486901	0.000071
O238	O	-0.379369	0.736901	0.250071
O239	O	-0.129369	0.986901	0.500071
O240	O	0.120631	1.236901	0.750071
C241	C	-0.406819	0.526711	0.000120
C242	C	-0.156819	0.776711	0.250120
C243	C	0.093181	1.026711	0.500120
C244	C	0.343181	1.276711	0.750120
C245	C	-0.387699	0.571050	0.000157
C246	C	-0.137699	0.821050	0.250157
C247	C	0.112301	1.071050	0.500157
C248	C	0.362301	1.321050	0.750157
C249	C	-0.399870	0.659208	0.000209
C250	C	-0.149870	0.909208	0.250209
C251	C	0.100130	1.159208	0.500209
C252	C	0.350130	1.409208	0.750209
C253	C	-0.349459	0.659721	0.000226
C254	C	-0.099459	0.909721	0.250226
C255	C	0.150541	1.159721	0.500226
C256	C	0.400541	1.409721	0.750226
C257	C	-0.318168	0.615898	0.000209
C258	C	-0.068168	0.865898	0.250209
C259	C	0.181832	1.115898	0.500209
C260	C	0.431832	1.365898	0.750209
C261	C	-0.337288	0.571563	0.000174
C262	C	-0.087288	0.821563	0.250174
C263	C	0.162712	1.071563	0.500174
C264	C	0.412712	1.321563	0.750174
C265	C	-0.375524	0.482885	0.000083
C266	C	-0.125524	0.732885	0.250083
C267	C	0.124476	0.982885	0.500083
C268	C	0.374476	1.232885	0.750083
C269	C	-0.325107	0.483401	0.000082
C270	C	-0.075107	0.733401	0.250082
C271	C	0.174893	0.983401	0.500082
C272	C	0.424893	1.233401	0.750082
C273	C	-0.305987	0.527741	0.000119
C274	C	-0.055987	0.777741	0.250119
C275	C	0.194013	1.027741	0.500119
C276	C	0.444013	1.277741	0.750119
C277	C	-0.255585	0.528253	0.000174
C278	C	-0.005585	0.778253	0.250174
C279	C	0.244415	1.028253	0.500174
C280	C	0.494415	1.278253	0.750174
N281	N	-0.236462	0.572589	0.000191
N282	N	0.013538	0.822589	0.250191
N283	N	0.263538	1.072589	0.500191
N284	N	0.513538	1.322589	0.750191
C285	C	-0.267753	0.616411	0.000209
C286	C	-0.017753	0.866411	0.250209
C287	C	0.232247	1.116411	0.500209
C288	C	0.482247	1.366411	0.750209
C289	C	-0.714351	0.523585	0.000103
C290	C	-0.464351	0.773585	0.250103
C291	C	-0.214351	1.023585	0.500103
C292	C	0.035649	1.273585	0.750103
C293	C	-0.764765	0.523072	0.000103
C294	C	-0.514765	0.773072	0.250103
C295	C	-0.264765	1.023072	0.500103
C296	C	-0.014765	1.273072	0.750103
C297	C	-0.776934	0.611234	0.000139
C298	C	-0.526934	0.861234	0.250139
C299	C	-0.276934	1.111234	0.500139
C300	C	-0.026934	1.361234	0.750139
C301	C	-0.726519	0.611747	0.000153
C302	C	-0.476519	0.861747	0.250153
C303	C	-0.226519	1.111747	0.500153
C304	C	0.023481	1.361747	0.750153
C305	C	-0.695228	0.567921	0.000120
C306	C	-0.445228	0.817921	0.250120
C307	C	-0.195228	1.067921	0.500120
C308	C	0.054772	1.317921	0.750120
C309	C	-0.161885	0.617485	0.000247
C310	C	0.088115	0.867485	0.250247
C311	C	0.338115	1.117485	0.500247
C312	C	0.588115	1.367485	0.750247
C313	C	-0.111469	0.617994	0.000272
C314	C	0.138531	0.867994	0.250272
C315	C	0.388531	1.117994	0.500272
C316	C	0.638531	1.367994	0.750272
C317	C	-0.099305	0.529832	0.000225
C318	C	0.150695	0.779832	0.250225
C319	C	0.400695	1.029832	0.500225
C320	C	0.650695	1.279832	0.750225
C321	C	-0.149717	0.529323	0.000210
C322	C	0.100283	0.779323	0.250210
C323	C	0.350283	1.029323	0.500210
C324	C	0.600283	1.279323	0.750210
C325	C	-0.181006	0.573153	0.000214
C326	C	0.068994	0.823153	0.250214
C327	C	0.318994	1.073153	0.500214
C328	C	0.568994	1.323153	0.750214
O329	O	-0.224303	0.491054	0.000220
O330	O	0.025697	0.741054	0.250220
O331	O	0.275697	0.991054	0.500220
O332	O	0.525697	1.241054	0.750220
O333	O	-0.246850	0.654163	0.000201
O334	O	0.003150	0.904163	0.250201
O335	O	0.253150	1.154163	0.500201
O336	O	0.503150	1.404163	0.750201
C337	C	-0.469402	0.614360	0.000157
C338	C	-0.219402	0.864360	0.250157
C339	C	0.030598	1.114360	0.500157
C340	C	0.280598	1.364360	0.750157
C341	C	-0.488522	0.570024	0.000122
C342	C	-0.238522	0.820024	0.250122
C343	C	0.011478	1.070024	0.500122
C344	C	0.261478	1.320024	0.750122
C345	C	-0.457231	0.526202	0.000105
C346	C	-0.207231	0.776202	0.250105
C347	C	0.042769	1.026202	0.500105
C348	C	0.292769	1.276202	0.750105
C349	C	-0.538936	0.569511	0.000122
C350	C	-0.288936	0.819511	0.250122
C351	C	-0.038936	1.069511	0.500122
C352	C	0.211064	1.319511	0.750122
C353	C	-0.570228	0.613334	0.000139
C354	C	-0.320228	0.863334	0.250139
C355	C	-0.070228	1.113334	0.500139
C356	C	0.179772	1.363334	0.750139
C357	C	-0.551105	0.657670	0.000157
C358	C	-0.301105	0.907670	0.250157
C359	C	-0.051105	1.157670	0.500157
C360	C	0.198895	1.407670	0.750157
C361	C	-0.500693	0.658183	0.000174
C362	C	-0.250693	0.908183	0.250174
C363	C	-0.000693	1.158183	0.500174
C364	C	0.249307	1.408183	0.750174
C365	C	-0.476354	0.481866	0.000088
C366	C	-0.226354	0.731866	0.250088
C367	C	0.023646	0.981866	0.500088
C368	C	0.273646	1.231866	0.750088
C369	C	-0.526766	0.481357	0.000072
C370	C	-0.276766	0.731357	0.250072
C371	C	-0.026766	0.981357	0.500072
C372	C	0.223234	1.231357	0.750072
C373	C	-0.558057	0.525180	0.000090
C374	C	-0.308057	0.775180	0.250090
C375	C	-0.058057	1.025180	0.500090
C376	C	0.191943	1.275180	0.750090
C377	C	0.150288	0.566343	0.000148
C378	C	0.400288	0.816343	0.250148
C379	C	0.650288	1.066343	0.500148
C380	C	0.900288	1.316343	0.750148
C381	C	0.203943	0.566895	0.000120
C382	C	0.453943	0.816895	0.250120
C383	C	0.703943	1.066895	0.500120
C384	C	0.953943	1.316895	0.750120
C385	C	0.057692	0.658938	0.000229
C386	C	0.307692	0.908938	0.250229
C387	C	0.557692	1.158938	0.500229
C388	C	0.807692	1.408938	0.750229
C389	C	0.058245	0.712593	0.000238
C390	C	0.308245	0.962593	0.250238
C391	C	0.558245	1.212593	0.500238
C392	C	0.808245	1.462593	0.750238
N393	N	0.047630	0.584757	0.452718
N394	N	0.297630	0.834757	0.702718
N395	N	0.547630	1.084757	0.952718
N396	N	0.797630	1.334757	1.202718
N397	N	0.076131	0.556313	-0.452327
N398	N	0.326131	0.806313	-0.202327
N399	N	0.576131	1.056313	0.047673
N400	N	0.826131	1.306313	0.297673
H401	H	0.145452	0.412745	0.000080
H402	H	0.395452	0.662745	0.250080
H403	H	0.645452	0.912745	0.500080
H404	H	0.895452	1.162745	0.750080
H405	H	-0.688877	0.487894	0.000076
H406	H	-0.438877	0.737894	0.250076
H407	H	-0.188877	0.987894	0.500076
H408	H	0.061123	1.237894	0.750076
Br409	Br	-0.044550	-0.163240	0.000316
Br410	Br	0.205450	0.086760	0.250316
Br411	Br	0.455450	0.336760	0.500316
Br412	Br	0.705450	0.586760	0.750316
Br413	Br	-0.323517	0.719897	0.000222
Br414	Br	-0.073517	0.969897	0.250222
Br415	Br	0.176483	1.219897	0.500222
Br416	Br	0.426483	1.469897	0.750222
Br417	Br	-0.001595	0.633902	0.588848
Br418	Br	0.248405	0.883902	0.838848
Br419	Br	0.498405	1.133902	1.088848
Br420	Br	0.748405	1.383902	1.338848
Br421	Br	-0.085525	0.678173	0.000324
Br422	Br	0.164475	0.928173	0.250324
Br423	Br	0.414475	1.178173	0.500324
Br424	Br	0.664475	1.428173	0.750324
Br425	Br	0.168319	0.304309	0.000126
Br426	Br	0.418319	0.554309	0.250126
Br427	Br	0.668319	0.804309	0.500126
Br428	Br	0.918319	1.054309	0.750126
H429	H	0.105666	0.526834	0.466000
H430	H	0.355666	0.776834	0.716000
H431	H	0.605666	1.026834	0.966000
H432	H	0.855666	1.276834	1.216000
Br433	Br	-0.056829	0.470361	0.000202
Br434	Br	0.193171	0.720361	0.250202
Br435	Br	0.443171	0.970361	0.500202
Br436	Br	0.693171	1.220361	0.750202
H437	H	0.139202	-0.202306	0.000182
H438	H	0.389202	0.047694	0.250182
H439	H	0.639202	0.297694	0.500182
H440	H	0.889202	0.547694	0.750182
Br441	Br	-0.045754	-0.282059	0.000258
Br442	Br	0.204246	-0.032059	0.250258
Br443	Br	0.454246	0.217941	0.500258
Br444	Br	0.704246	0.467941	0.750258
H445	H	-0.425343	0.694896	0.000216
H446	H	-0.175343	0.944896	0.250216
H447	H	0.074657	1.194896	0.500216
H448	H	0.324657	1.444896	0.750216
H449	H	-0.802420	0.646916	0.000155
H450	H	-0.552420	0.896916	0.250155
H451	H	-0.302420	1.146916	0.500155
H452	H	-0.052420	1.396916	0.750155
Br453	Br	-0.700577	0.671924	0.000207
Br454	Br	-0.450577	0.921924	0.250207
Br455	Br	-0.200577	1.171924	0.500207
Br456	Br	0.049423	1.421924	0.750207
Br457	Br	-0.401458	0.422706	0.000026
Br458	Br	-0.151458	0.672706	0.250026
Br459	Br	0.098542	0.922706	0.500026
Br460	Br	0.348542	1.172706	0.750026
H461	H	-0.165286	0.493220	0.000233
H462	H	0.084714	0.743220	0.250233
H463	H	0.334714	0.993220	0.500233
H464	H	0.584714	1.243220	0.750233
Br465	Br	-0.474753	0.718360	0.000212
Br466	Br	-0.224753	0.968360	0.250212
Br467	Br	0.025247	1.218360	0.500212
Br468	Br	0.275247	1.468360	0.750212
Br469	Br	0.211249	0.185131	0.000099
Br470	Br	0.461249	0.435131	0.250099
Br471	Br	0.711249	0.685131	0.500099
Br472	Br	0.961249	0.935131	0.750099
H473	H	0.138267	-0.293771	0.000197
H474	H	0.388267	-0.043771	0.250197
H475	H	0.638267	0.206229	0.500197
H476	H	0.888267	0.456229	0.750197
Br477	Br	0.210041	0.066321	0.000128
Br478	Br	0.460041	0.316321	0.250128
Br479	Br	0.710041	0.566321	0.500128
Br480	Br	0.960041	0.816321	0.750128
Br481	Br	-0.790708	0.462896	0.000098
Br482	Br	-0.540708	0.712896	0.250098
Br483	Br	-0.290708	0.962896	0.500098
Br484	Br	-0.040708	1.212896	0.750098
Br485	Br	-0.552707	0.421177	0.000038
Br486	Br	-0.302707	0.671177	0.250038
Br487	Br	-0.052707	0.921177	0.500038
Br488	Br	0.197293	1.171177	0.750038
H489	H	0.184702	-0.067941	0.000178
H490	H	0.434702	0.182059	0.250178
H491	H	0.684702	0.432059	0.500178
H492	H	0.934702	0.682059	0.750178
Br493	Br	-0.085943	0.107191	0.000315
Br494	Br	0.164057	0.357191	0.250315
Br495	Br	0.414057	0.607191	0.500315
Br496	Br	0.664057	0.857191	0.750315
Br497	Br	-0.282642	0.423919	0.000028
Br498	Br	-0.032642	0.673919	0.250028
Br499	Br	0.217358	0.923919	0.500028
Br500	Br	0.467358	1.173919	0.750028
H501	H	0.185638	0.023519	0.000159
H502	H	0.435638	0.273519	0.250159
H503	H	0.685638	0.523519	0.500159
H504	H	0.935638	0.773519	0.750159
H505	H	-0.576591	0.693352	0.000179
H506	H	-0.326591	0.943352	0.250179
H507	H	-0.076591	1.193352	0.500179
H508	H	0.173409	1.443352	0.750179
Br509	Br	-0.087473	-0.044057	0.000329
Br510	Br	0.162527	0.205943	0.250329
Br511	Br	0.412527	0.455943	0.500329
Br512	Br	0.662527	0.705943	0.750329
H513	H	-0.450881	0.446179	0.000069
H514	H	-0.200881	0.696179	0.250069
H515	H	0.049119	0.946179	0.500069
H516	H	0.299119	1.196179	0.750069
H517	H	-0.015432	0.343366	0.000187
H518	H	0.234568	0.593366	0.250187
H519	H	0.484568	0.843366	0.500187
H520	H	0.734568	1.093366	0.750187
Br521	Br	-0.084732	0.226009	0.000369
Br522	Br	0.165268	0.476009	0.250369
Br523	Br	0.415268	0.726009	0.500369
Br524	Br	0.665268	0.976009	0.750369
H525	H	-0.014498	0.434833	0.000181
H526	H	0.235502	0.684833	0.250181
H527	H	0.485502	0.934833	0.500181
H528	H	0.735502	1.184833	0.750181
H529	H	-0.062472	0.057770	0.000317
H530	H	0.187528	0.307770	0.250317
H531	H	0.437528	0.557770	0.500317
H532	H	0.687528	0.807770	0.750317
H533	H	-0.187356	0.653176	0.000243
H534	H	0.062644	0.903176	0.250243
H535	H	0.312644	1.153176	0.500243
H536	H	0.562644	1.403176	0.750243
