data_functionalizedCrystal
_audit_creation_method	'MofGen! by Chris Wilmer'
_symmetry_space_group_name_H-M	'P1'
_symmetry_Int_Tables_number	1
_symmetry_cell_setting	triclinic
loop_
_symmetry_equiv_pos_as_xyz
  x,y,z
_cell_length_a	16.109301
_cell_length_b	16.109301
_cell_length_c	14.586319
_cell_angle_alpha	90.005214
_cell_angle_beta	90.000787
_cell_angle_gamma	83.461481
loop_
_atom_site_label
_atom_site_type_symbol
_atom_site_fract_x
_atom_site_fract_y
_atom_site_fract_z
O1	O	-1.103131	-0.106866	-0.076185
O2	O	-0.861069	-0.120165	-0.076200
O3	O	-0.988749	0.007515	-0.076183
O4	O	-0.975450	-0.234547	-0.076203
O5	O	-0.988741	0.007517	0.076298
O6	O	-0.861060	-0.120164	0.076281
O7	O	-1.103122	-0.106864	0.076295
Cu8	Cu	-0.982090	-0.113514	0.090211
Cu9	Cu	-0.982101	-0.113516	-0.090115
O10	O	-0.975441	-0.234545	0.076278
C11	C	-0.988206	0.038491	0.000058
C12	C	-0.986591	0.130786	0.000059
C13	C	-0.830090	-0.119626	0.000038
C14	C	-0.737794	-0.118011	0.000033
C15	C	-1.134101	-0.107404	0.000055
C16	C	-1.226397	-0.109019	0.000054
C17	C	-0.515522	-0.190018	0.000038
C18	C	-0.428801	-0.188494	0.000044
C19	C	-0.448676	-0.037006	0.000052
C20	C	-0.535394	-0.038530	0.000053
C21	C	-0.568815	-0.115039	0.000041
C22	C	-0.395376	-0.111990	0.000046
C23	C	-0.301350	-0.110337	0.000053
C24	C	-0.662847	-0.116693	0.000036
C25	C	-0.975984	-0.265521	0.000035
C26	C	-0.977600	-0.357816	0.000028
N27	N	-0.982089	-0.113512	0.217042
C28	C	-1.058599	0.353059	0.000049
C29	C	-1.057075	0.439779	0.000041
C30	C	-0.905586	0.419905	0.000036
C31	C	-0.907111	0.333186	0.000037
C32	C	-0.983620	0.299766	0.000048
C33	C	-0.980571	0.473205	0.000039
C34	C	-0.978918	0.567231	0.000031
C35	C	-0.985273	0.205734	0.000055
N36	N	-0.982109	-0.113511	-0.216947
C37	C	-1.038644	-0.056994	0.452057
C38	C	-1.038647	-0.056992	0.548038
C39	C	-0.925547	-0.170032	0.548032
C40	C	-0.925541	-0.170030	0.452052
C41	C	-0.982095	-0.113511	0.404067
C42	C	-0.982103	-0.113512	0.596028
C43	C	-0.982105	-0.113510	0.700095
C44	C	-0.982092	-0.113512	0.299993
H45	H	-0.385413	-0.249550	0.000043
H46	H	-0.879503	-0.216049	0.587111
C47	C	-1.100845	0.005181	0.399272
C48	C	-1.100846	0.005189	0.293699
C49	C	-1.163047	0.067368	0.240918
C50	C	-1.225247	0.129539	0.293710
C51	C	-1.225248	0.129534	0.399290
C52	C	-1.163047	0.067355	0.452071
H53	H	-1.054800	-0.040837	0.254613
H54	H	-1.163046	0.067371	0.162760
H55	H	-1.271292	0.175568	0.254639
H56	H	-1.271294	0.175559	0.438376
H57	H	-1.163049	0.067352	0.530228
C58	C	-0.863333	-0.232203	0.399256
C59	C	-0.801157	-0.294403	0.452032
C60	C	-0.738950	-0.356571	0.399234
C61	C	-0.738919	-0.356539	0.293660
C62	C	-0.801098	-0.294337	0.240878
C63	C	-0.863305	-0.232169	0.293676
H64	H	-0.801177	-0.294429	0.530189
H65	H	-0.692921	-0.402617	0.438307
H66	H	-0.692870	-0.402559	0.254576
H67	H	-0.801077	-0.294311	0.162721
H68	H	-0.909334	-0.186123	0.254603
H69	H	-0.542730	-0.252317	0.000035
H70	H	-0.421454	0.025285	0.000067
H71	H	-1.084694	-0.010969	0.587108
H72	H	-0.578788	0.022530	0.000058
C73	C	-1.142756	0.316295	0.000052
C74	C	-1.225231	0.374921	0.000048
C75	C	-1.309391	0.338160	0.000049
C76	C	-1.311075	0.242774	0.000053
C77	C	-1.228597	0.184142	0.000057
C78	C	-1.144437	0.220903	0.000057
H79	H	-1.223987	0.445536	0.000045
H80	H	-1.370447	0.381563	0.000046
H81	H	-1.373375	0.215561	0.000053
H82	H	-1.229841	0.113526	0.000060
H83	H	-1.083382	0.177500	0.000060
H84	H	-1.118130	0.483168	0.000040
C85	C	-0.824629	0.274556	0.000039
C86	C	-0.740472	0.311313	0.000039
C87	C	-0.657994	0.252683	0.000038
C88	C	-0.659673	0.157297	0.000036
C89	C	-0.743833	0.120534	0.000035
C90	C	-0.826311	0.179164	0.000037
H91	H	-0.739226	0.381929	0.000040
H92	H	-0.595693	0.279898	0.000038
H93	H	-0.598618	0.113895	0.000035
H94	H	-0.745079	0.049919	0.000034
H95	H	-0.888612	0.151950	0.000036
H96	H	-0.843295	0.447127	0.000028
