data_functionalizedCrystal
_audit_creation_method	'MofGen! by Chris Wilmer'
_symmetry_space_group_name_H-M	'P1'
_symmetry_Int_Tables_number	1
_symmetry_cell_setting	triclinic
loop_
_symmetry_equiv_pos_as_xyz
  x,y,z
_cell_length_a	18.101398
_cell_length_b	18.101397
_cell_length_c	21.395356
_cell_angle_alpha	89.970896
_cell_angle_beta	89.970615
_cell_angle_gamma	90.018196
loop_
_atom_site_label
_atom_site_type_symbol
_atom_site_fract_x
_atom_site_fract_y
_atom_site_fract_z
Zn1	Zn	1.132209	-0.294893	-0.354352
Zn2	Zn	1.465543	0.038440	-0.021019
Zn3	Zn	1.798876	0.371774	0.312315
Zn4	Zn	1.132118	-0.418736	-0.249572
Zn5	Zn	1.465452	-0.085403	0.083761
Zn6	Zn	1.798785	0.247930	0.417095
Zn7	Zn	1.008358	-0.294908	-0.249578
Zn8	Zn	1.341692	0.038425	0.083755
Zn9	Zn	1.675025	0.371758	0.417088
Zn10	Zn	1.008342	-0.418692	-0.354302
Zn11	Zn	1.341675	-0.085359	-0.020968
Zn12	Zn	1.675009	0.247974	0.312365
O13	O	1.070257	-0.356807	-0.301951
O14	O	1.403590	-0.023474	0.031382
O15	O	1.736924	0.309859	0.364716
O16	O	1.235830	-0.311333	-0.340471
O17	O	1.569163	0.022000	-0.007138
O18	O	1.902497	0.355333	0.326195
O19	O	1.115670	-0.402335	-0.161895
O20	O	1.449003	-0.069001	0.171438
O21	O	1.782337	0.264332	0.504772
O22	O	1.024832	-0.191273	-0.263500
O23	O	1.358166	0.142060	0.069833
O24	O	1.691499	0.475393	0.403166
O25	O	1.235763	-0.402320	-0.263490
O26	O	1.569097	-0.068987	0.069843
O27	O	1.902430	0.264346	0.403177
O28	O	1.115825	-0.191262	-0.340477
O29	O	1.449158	0.142071	-0.007144
O30	O	1.782492	0.475404	0.326189
O31	O	1.024744	-0.311359	-0.161899
O32	O	1.358077	0.021974	0.171434
O33	O	1.691411	0.355308	0.504767
O34	O	0.904723	-0.311316	-0.263451
O35	O	1.238057	0.022017	0.069882
O36	O	1.571390	0.355350	0.403215
O37	O	1.024804	-0.402246	-0.441986
O38	O	1.358138	-0.068912	-0.108653
O39	O	1.691471	0.264421	0.224680
O40	O	0.904711	-0.402260	-0.340391
O41	O	1.238045	-0.068927	-0.007058
O42	O	1.571378	0.264406	0.326275
O43	O	1.115809	-0.311291	-0.442023
O44	O	1.449143	0.022043	-0.108690
O45	O	1.782476	0.355376	0.224643
O46	O	1.115654	-0.522363	-0.263441
O47	O	1.448987	-0.189030	0.069892
O48	O	1.782321	0.144303	0.403226
O49	O	1.024716	-0.522331	-0.340385
O50	O	1.358050	-0.188998	-0.007052
O51	O	1.691383	0.144336	0.326281
C52	C	0.877846	-0.356786	-0.301917
C53	C	1.211180	-0.023452	0.031416
C54	C	1.544513	0.309881	0.364750
C55	C	0.795532	-0.356794	-0.301917
C56	C	1.128866	-0.023461	0.031416
C57	C	1.462199	0.309872	0.364749
C58	C	0.644824	-0.356809	-0.301945
C59	C	0.978157	-0.023476	0.031388
C60	C	1.311491	0.309857	0.364721
C61	C	0.613453	-0.299508	-0.253618
C62	C	0.946786	0.033825	0.079716
C63	C	1.280120	0.367159	0.413049
C64	C	0.527835	-0.299292	-0.253776
C65	C	0.861168	0.034041	0.079557
C66	C	1.194501	0.367374	0.412890
C67	C	0.496441	-0.356824	-0.301972
C68	C	0.829775	-0.023491	0.031361
C69	C	1.163108	0.309842	0.364695
C70	C	0.527584	-0.335994	-0.368079
C71	C	0.860917	-0.002661	-0.034745
C72	C	1.194250	0.330672	0.298588
C73	C	0.613228	-0.335570	-0.367784
C74	C	0.946562	-0.002236	-0.034450
C75	C	1.279895	0.331097	0.298883
C76	C	0.613233	-0.435089	-0.284750
C77	C	0.946566	-0.101756	0.048584
C78	C	1.279900	0.231578	0.381917
C79	C	0.527581	-0.434677	-0.283309
C80	C	0.860915	-0.101343	0.050024
C81	C	1.194248	0.231990	0.383358
C82	C	0.412582	-0.356834	-0.301991
C83	C	0.745915	-0.023501	0.031342
C84	C	1.079249	0.309833	0.364675
C85	C	0.728683	-0.356798	-0.301931
C86	C	1.062017	-0.023465	0.031403
C87	C	1.395350	0.309869	0.364736
C88	C	1.070194	-0.549218	-0.301921
C89	C	1.403527	-0.215885	0.031413
C90	C	1.736860	0.117449	0.364746
C91	C	1.070234	-0.631532	-0.301929
C92	C	1.403568	-0.298199	0.031405
C93	C	1.736901	0.035135	0.364738
C94	C	1.070329	-0.930623	-0.301986
C95	C	1.403662	-0.597290	0.031348
C96	C	1.736995	-0.263956	0.364681
C97	C	1.127385	-0.899287	-0.253445
C98	C	1.460718	-0.565954	0.079889
C99	C	1.794051	-0.232621	0.413222
C100	C	1.127583	-0.813669	-0.253571
C101	C	1.460916	-0.480335	0.079763
C102	C	1.794249	-0.147002	0.413096
C103	C	1.070282	-0.782241	-0.301957
C104	C	1.403615	-0.448907	0.031376
C105	C	1.736949	-0.115574	0.364710
C106	C	1.091444	-0.813251	-0.368001
C107	C	1.424777	-0.479917	-0.034668
C108	C	1.758111	-0.146584	0.298665
C109	C	1.091886	-0.898896	-0.367737
C110	C	1.425219	-0.565562	-0.034404
C111	C	1.758552	-0.232229	0.298930
C112	C	0.991958	-0.899128	-0.285054
C113	C	1.325292	-0.565795	0.048279
C114	C	1.658625	-0.232462	0.381613
C115	C	0.992345	-0.813479	-0.283580
C116	C	1.325679	-0.480146	0.049754
C117	C	1.659012	-0.146812	0.383087
C118	C	1.070254	-0.698381	-0.301945
C119	C	1.403587	-0.365048	0.031389
C120	C	1.736921	-0.031714	0.364722
C121	C	1.070358	-1.014483	-0.302002
C122	C	1.403692	-0.681149	0.031331
C123	C	1.737025	-0.347816	0.364664
C124	C	1.263419	-0.356830	-0.301986
C125	C	1.596752	-0.023497	0.031348
C126	C	1.930086	0.309837	0.364681
C127	C	1.345733	-0.356839	-0.302000
C128	C	1.679066	-0.023506	0.031333
C129	C	2.012400	0.309827	0.364666
C130	C	1.070315	-0.356762	-0.465374
C131	C	1.403649	-0.023428	-0.132041
C132	C	1.736982	0.309905	0.201292
C133	C	1.070340	-0.356742	-0.535016
C134	C	1.403673	-0.023409	-0.201682
C135	C	1.737007	0.309925	0.131651
C136	C	1.070341	-0.163646	-0.301995
C137	C	1.403674	0.169688	0.031338
C138	C	1.737007	0.503021	0.364671
C139	C	1.070376	-0.081331	-0.302014
C140	C	1.403710	0.252002	0.031319
C141	C	1.737043	0.585335	0.364653
C142	C	1.023008	-0.309366	-0.567721
C143	C	1.356341	0.023968	-0.234388
C144	C	1.689674	0.357301	0.098945
C145	C	1.023005	-0.309352	-0.633157
C146	C	1.356338	0.023981	-0.299823
C147	C	1.689672	0.357315	0.033510
C148	C	1.070348	-0.356707	-0.665884
C149	C	1.403682	-0.023373	-0.332551
C150	C	1.737015	0.309960	0.000783
C151	C	1.117684	-0.404093	-0.633170
C152	C	1.451017	-0.070759	-0.299837
C153	C	1.784351	0.262574	0.033496
C154	C	1.117680	-0.404110	-0.567736
C155	C	1.451013	-0.070777	-0.234403
C156	C	1.784347	0.262557	0.098930
C157	C	1.137074	-0.362532	-0.769576
C158	C	1.470407	-0.029198	-0.436243
C159	C	1.803741	0.304135	-0.102909
C160	C	1.137079	-0.362509	-0.835009
C161	C	1.470413	-0.029176	-0.501676
C162	C	1.803746	0.304158	-0.168342
C163	C	1.070360	-0.356657	-0.867705
C164	C	1.403694	-0.023323	-0.534372
C165	C	1.737027	0.310010	-0.201038
C166	C	1.003634	-0.350812	-0.834960
C167	C	1.336967	-0.017479	-0.501626
C168	C	1.670301	0.315855	-0.168293
C169	C	1.003630	-0.350830	-0.769526
C170	C	1.336963	-0.017496	-0.436192
C171	C	1.670297	0.315837	-0.102859
C172	C	1.070358	-0.356693	-0.736836
C173	C	1.403691	-0.023360	-0.403503
C174	C	1.737024	0.309973	-0.070170
C175	C	1.023021	-0.309263	-0.971363
C176	C	1.356355	0.024070	-0.638030
C177	C	1.689688	0.357404	-0.304696
C178	C	1.023017	-0.309254	-1.036800
C179	C	1.356351	0.024079	-0.703466
C180	C	1.689684	0.357412	-0.370133
C181	C	1.117703	-0.403991	-1.036812
C182	C	1.451036	-0.070658	-0.703479
C183	C	1.784370	0.262675	-0.370146
C184	C	1.117700	-0.404004	-0.971377
C185	C	1.451033	-0.070670	-0.638044
C186	C	1.784367	0.262663	-0.304710
C187	C	1.070360	-0.356636	-0.938656
C188	C	1.403694	-0.023302	-0.605323
C189	C	1.737027	0.310031	-0.271990
C190	C	1.070242	-0.356800	-0.139163
C191	C	1.403575	-0.023466	0.194170
C192	C	1.736908	0.309867	0.527503
C193	C	1.070360	-0.356611	-0.069523
C194	C	1.403694	-0.023277	0.263811
C195	C	1.737027	0.310056	0.597144
H196	H	0.507363	-0.241292	-0.265193
H197	H	0.840696	0.092042	0.068140
H198	H	1.174030	0.425375	0.401473
H199	H	1.185635	-0.793128	-0.264774
H200	H	1.518968	-0.459795	0.068559
H201	H	1.852301	-0.126461	0.401893
Cl202	Cl	1.107197	-0.931160	-0.177609
Cl203	Cl	1.440530	-0.597826	0.155725
Cl204	Cl	1.773863	-0.264493	0.489058
Cl205	Cl	0.644103	-0.247242	-0.390223
Cl206	Cl	0.977437	0.086092	-0.056890
Cl207	Cl	1.310770	0.419425	0.276443
Cl208	Cl	0.644577	-0.501003	-0.339078
Cl209	Cl	0.977910	-0.167669	-0.005745
Cl210	Cl	1.311244	0.165664	0.327588
Cl211	Cl	0.496199	-0.398466	-0.425215
Cl212	Cl	0.829532	-0.065133	-0.091881
Cl213	Cl	1.162866	0.268201	0.241452
H214	H	1.149171	-0.918817	-0.382079
H215	H	1.482504	-0.585484	-0.048745
H216	H	1.815838	-0.252151	0.284588
Cl217	Cl	0.923177	-0.780463	-0.334167
Cl218	Cl	1.256510	-0.447130	-0.000834
Cl219	Cl	1.589844	-0.113796	0.332500
Cl220	Cl	0.646702	-0.210459	-0.271016
Cl221	Cl	0.980035	0.122875	0.062317
Cl222	Cl	1.313369	0.456208	0.395650
Cl223	Cl	0.963487	-0.249711	-1.077916
Cl224	Cl	1.296820	0.083623	-0.744583
Cl225	Cl	1.630154	0.416956	-0.411249
Cl226	Cl	0.494500	-0.248643	-0.390917
Cl227	Cl	0.827834	0.084690	-0.057584
Cl228	Cl	1.161167	0.418023	0.275749
Cl229	Cl	0.967702	-0.782193	-0.208542
Cl230	Cl	1.301036	-0.448860	0.124791
Cl231	Cl	1.634369	-0.115527	0.458125
Cl232	Cl	0.919753	-0.343450	-0.876056
Cl233	Cl	1.253086	-0.010117	-0.542722
Cl234	Cl	1.586420	0.323216	-0.209389
H235	H	0.507224	-0.450389	-0.234657
H236	H	0.840557	-0.117056	0.098676
H237	H	1.173890	0.216277	0.432009
H238	H	1.156227	-0.442689	-0.541108
H239	H	1.489560	-0.109356	-0.207774
H240	H	1.822894	0.223978	0.125559
H241	H	1.052149	-0.919622	-0.405151
H242	H	1.385482	-0.586289	-0.071817
H243	H	1.718816	-0.252955	0.261516
H244	H	0.949447	-0.919394	-0.320408
H245	H	1.282781	-0.586060	0.012925
H246	H	1.616114	-0.252727	0.346258
H247	H	1.156252	-0.442547	-1.063458
H248	H	1.489586	-0.109214	-0.730125
H249	H	1.822919	0.224120	-0.396791
Cl250	Cl	0.645191	-0.319319	-0.177702
Cl251	Cl	0.978525	0.014015	0.155632
Cl252	Cl	1.311858	0.347348	0.488965
Cl253	Cl	1.107093	-0.781299	-0.177973
Cl254	Cl	1.440426	-0.447966	0.155361
Cl255	Cl	1.773759	-0.114632	0.488694
H256	H	0.506205	-0.479633	-0.315919
H257	H	0.839538	-0.146300	0.017415
H258	H	1.172872	0.187034	0.350748
H259	H	0.984463	-0.270769	-0.659791
H260	H	1.317796	0.062565	-0.326457
H261	H	1.651129	0.395898	0.006876
Cl262	Cl	0.646515	-0.464457	-0.211565
Cl263	Cl	0.979849	-0.131123	0.121768
Cl264	Cl	1.313182	0.202210	0.455101
Cl265	Cl	0.963491	-0.249821	-0.526590
Cl266	Cl	1.296824	0.083512	-0.193257
Cl267	Cl	1.630158	0.416846	0.140077
Cl268	Cl	1.220957	-0.369895	-0.728479
Cl269	Cl	1.554290	-0.036562	-0.395146
Cl270	Cl	1.887624	0.296772	-0.061813
H271	H	1.156245	-0.442581	-0.944748
H272	H	1.489579	-0.109248	-0.611414
H273	H	1.822912	0.224086	-0.278081
H274	H	0.949299	-0.346072	-0.742867
H275	H	1.282633	-0.012739	-0.409534
H276	H	1.615966	0.320595	-0.076201
H277	H	0.984474	-0.270694	-0.944721
H278	H	1.317807	0.062640	-0.611387
H279	H	1.651140	0.395973	-0.278054
H280	H	1.185120	-0.920758	-0.264519
H281	H	1.518453	-0.587425	0.068814
H282	H	1.851787	-0.254091	0.402147
H283	H	0.633985	-0.375508	-0.405039
H284	H	0.967319	-0.042175	-0.071705
H285	H	1.300652	0.291158	0.261628
Cl286	Cl	1.220962	-0.369865	-0.876167
Cl287	Cl	1.554295	-0.036532	-0.542834
Cl288	Cl	1.887628	0.296802	-0.209501
H289	H	1.156231	-0.442649	-0.659821
H290	H	1.489564	-0.109316	-0.326488
H291	H	1.822898	0.224017	0.006845
H292	H	0.506775	-0.312288	-0.204767
H293	H	0.840109	0.021045	0.128566
H294	H	1.173442	0.354379	0.461899
H295	H	1.051158	-0.792891	-0.405141
H296	H	1.384491	-0.459558	-0.071808
H297	H	1.717825	-0.126224	0.261526
H298	H	1.148088	-0.791746	-0.382585
H299	H	1.481421	-0.458413	-0.049252
H300	H	1.814755	-0.125079	0.284081
Cl301	Cl	0.962236	-0.932567	-0.211988
Cl302	Cl	1.295569	-0.599233	0.121345
Cl303	Cl	1.628902	-0.265900	0.454679
