data_functionalizedCrystal
_audit_creation_method	'MofGen! by Chris Wilmer'
_symmetry_space_group_name_H-M	'P1'
_symmetry_Int_Tables_number	1
_symmetry_cell_setting	triclinic
loop_
_symmetry_equiv_pos_as_xyz
  x,y,z
_cell_length_a	18.050583
_cell_length_b	12.827893
_cell_length_c	12.827892
_cell_angle_alpha	89.984638
_cell_angle_beta	89.971674
_cell_angle_gamma	90.016239
loop_
_atom_site_label
_atom_site_type_symbol
_atom_site_fract_x
_atom_site_fract_y
_atom_site_fract_z
Zn1	Zn	-0.419894	-1.597638	-0.415998
Zn2	Zn	0.080106	-1.097638	0.084002
Zn3	Zn	-0.295713	-1.597542	-0.590771
Zn4	Zn	0.204287	-1.097542	-0.090771
Zn5	Zn	-0.295723	-1.422889	-0.416045
Zn6	Zn	0.204277	-0.922889	0.083955
Zn7	Zn	-0.419866	-1.422865	-0.590698
Zn8	Zn	0.080134	-0.922865	-0.090698
O9	O	-0.357799	-1.510233	-0.503378
O10	O	0.142201	-1.010233	-0.003378
O11	O	-0.403429	-1.743862	-0.439194
O12	O	0.096571	-1.243862	0.060806
O13	O	-0.191790	-1.574343	-0.567643
O14	O	0.308210	-1.074343	-0.067643
O15	O	-0.312210	-1.446120	-0.269803
O16	O	0.187790	-0.946120	0.230197
O17	O	-0.312194	-1.743791	-0.567598
O18	O	0.187806	-1.243791	-0.067598
O19	O	-0.403439	-1.574508	-0.269768
O20	O	0.096561	-1.074508	0.230232
O21	O	-0.191797	-1.446027	-0.439273
O22	O	0.308203	-0.946027	0.060727
O23	O	-0.312183	-1.276650	-0.439202
O24	O	0.187817	-0.776650	0.060798
O25	O	-0.523795	-1.446079	-0.567474
O26	O	-0.023795	-0.946079	-0.067474
O27	O	-0.403390	-1.276632	-0.567519
O28	O	0.096610	-0.776632	-0.067519
O29	O	-0.523815	-1.574485	-0.439122
O30	O	-0.023815	-1.074485	0.060878
O31	O	-0.312167	-1.574320	-0.736998
O32	O	0.187833	-1.074320	-0.236998
O33	O	-0.403381	-1.445986	-0.736944
O34	O	0.096619	-0.945986	-0.236944
C35	C	-0.357786	-1.510168	-0.774888
C36	C	0.142214	-1.010168	-0.274888
C37	C	-0.357805	-1.510236	-0.891041
C38	C	0.142195	-1.010236	-0.391041
C39	C	-0.357785	-1.238724	-0.503358
C40	C	0.142215	-0.738724	-0.003358
C41	C	-0.357797	-1.122570	-0.503374
C42	C	0.142203	-0.622570	-0.003374
C43	C	-0.551505	-1.510290	-0.503285
C44	C	-0.051505	-1.010290	-0.003285
C45	C	-0.634051	-1.510314	-0.503245
C46	C	-0.134051	-1.010314	-0.003245
C47	C	-0.882888	-1.580206	-0.433377
C48	C	-0.382888	-1.080206	0.066623
C49	C	-0.833478	-1.605728	-0.528729
C50	C	-0.333478	-1.105728	-0.028729
C51	C	-0.931171	-1.510382	-0.503178
C52	C	-0.431171	-1.010382	-0.003178
C53	C	-0.833499	-1.484876	-0.407865
C54	C	-0.333499	-0.984876	0.092135
C55	C	-0.785186	-1.510351	-0.503206
C56	C	-0.285186	-1.010351	-0.003206
C57	C	-0.882849	-1.535953	-0.598581
C58	C	-0.382849	-1.035953	-0.098581
C59	C	-0.882874	-1.415057	-0.477652
C60	C	-0.382874	-0.915057	0.022348
C61	C	-0.833487	-1.440542	-0.573070
C62	C	-0.333487	-0.940542	-0.073070
C63	C	-1.015270	-1.510402	-0.503161
C64	C	-0.515270	-1.010402	-0.003161
C65	C	-0.701089	-1.510331	-0.503234
C66	C	-0.201089	-1.010331	-0.003234
C67	C	-0.164847	-1.510237	-0.503396
C68	C	0.335153	-1.010237	-0.003396
C69	C	-0.082302	-1.510415	-0.503141
C70	C	0.417698	-1.010415	-0.003141
C71	C	-0.357814	-1.782804	-0.503399
C72	C	0.142186	-1.282804	-0.003399
C73	C	-0.357820	-1.898957	-0.503408
C74	C	0.142180	-1.398957	-0.003408
C75	C	-0.402859	-1.070805	-0.566969
C76	C	0.097141	-0.570805	-0.066969
C77	C	-0.402872	-0.950754	-0.566987
C78	C	0.097128	-0.450754	-0.066987
C79	C	-0.312720	-1.573815	-0.942818
C80	C	0.187280	-1.073815	-0.442818
C81	C	-0.312738	-1.573886	-1.062868
C82	C	0.187262	-1.073886	-0.562868
C83	C	-0.357829	-1.510328	-0.230808
C84	C	0.142171	-1.010328	0.269192
C85	C	-0.357841	-1.510368	-0.114655
C86	C	0.142159	-1.010368	0.385345
H87	H	-0.904578	-1.639313	-0.374410
H88	H	-0.404578	-1.139313	0.125590
H89	H	-0.396440	-1.455928	-1.070136
H90	H	0.103560	-0.955928	-0.570136
N91	N	-0.806306	-1.457799	-0.306740
N92	N	-0.306306	-0.957799	0.193260
N93	N	-0.766700	-1.378677	-0.295331
N94	N	-0.266700	-0.878677	0.204669
H95	H	-0.747497	-1.359558	-0.223910
H96	H	-0.247497	-0.859558	0.276090
H97	H	-0.904436	-1.557628	-0.679215
H98	H	-0.404436	-1.057628	-0.179215
H99	H	-0.319229	-1.078012	-0.448938
H100	H	0.180771	-0.578012	0.051062
N101	N	-0.451284	-0.894915	-0.635278
N102	N	0.048716	-0.394915	-0.135278
N103	N	-0.519826	-0.907062	-0.628468
N104	N	-0.019826	-0.407062	-0.128468
H105	H	-0.554019	-0.867624	-0.676699
H106	H	-0.054019	-0.367624	-0.176699
N107	N	-0.264291	-1.642045	-0.886927
N108	N	0.235709	-1.142045	-0.386927
N109	N	-0.264349	-1.641898	-0.789485
N110	N	0.235651	-1.141898	-0.289485
H111	H	-0.230147	-1.690090	-0.750012
H112	H	0.269853	-1.190090	-0.250012
H113	H	-0.274137	-1.628316	-1.107395
H114	H	0.225863	-1.128316	-0.607395
N115	N	-0.406238	-1.442011	-0.946933
N116	N	0.093762	-0.942011	-0.446933
N117	N	-0.380034	-1.375538	-1.007945
N118	N	0.119966	-0.875538	-0.507945
H119	H	-0.414239	-1.327352	-1.047418
H120	H	0.085761	-0.827352	-0.547418
N121	N	-0.806253	-1.706842	-0.555818
N122	N	-0.306253	-1.206842	-0.055818
N123	N	-0.765770	-1.755621	-0.493634
N124	N	-0.265770	-1.255621	0.006366
H125	H	-0.746545	-1.827037	-0.512757
H126	H	-0.246545	-1.327037	-0.012757
N127	N	-0.806454	-1.366453	-0.647226
N128	N	-0.306454	-0.866453	-0.147226
N129	N	-0.822415	-1.375992	-0.741550
N130	N	-0.322415	-0.875992	-0.241550
H131	H	-0.803323	-1.323670	-0.793926
H132	H	-0.303323	-0.823670	-0.293926
H133	H	-0.904589	-1.334480	-0.456014
H134	H	-0.404589	-0.834480	0.043986
N135	N	-0.451239	-1.126710	-0.635256
N136	N	0.048761	-0.626710	-0.135256
N137	N	-0.424982	-1.187616	-0.701733
N138	N	0.075018	-0.687616	-0.201733
H139	H	-0.459150	-1.227100	-0.749963
H140	H	0.040850	-0.727100	-0.249963
N141	N	-0.309428	-0.954805	-0.435099
N142	N	0.190572	-0.454805	0.064901
N143	N	-0.335673	-1.015757	-0.368602
N144	N	0.164327	-0.515757	0.131398
H145	H	-0.301497	-1.055209	-0.320358
H146	H	0.198503	-0.555209	0.179642
