data_functionalizedCrystal
_audit_creation_method	'MofGen! by Chris Wilmer'
_symmetry_space_group_name_H-M	'P1'
_symmetry_Int_Tables_number	1
_symmetry_cell_setting	triclinic
loop_
_symmetry_equiv_pos_as_xyz
  x,y,z
_cell_length_a	13.897449
_cell_length_b	16.120444
_cell_length_c	13.897441
_cell_angle_alpha	92.867240
_cell_angle_beta	89.978743
_cell_angle_gamma	92.927498
loop_
_atom_site_label
_atom_site_type_symbol
_atom_site_fract_x
_atom_site_fract_y
_atom_site_fract_z
Zn1	Zn	1.455153	-0.331871	-0.564897
Zn2	Zn	1.705153	-0.081871	-0.314897
Zn3	Zn	1.955153	0.168129	-0.064897
Zn4	Zn	2.205153	0.418129	0.185103
Zn5	Zn	1.446848	-0.471301	-0.411769
Zn6	Zn	1.696848	-0.221301	-0.161769
Zn7	Zn	1.946848	0.028699	0.088231
Zn8	Zn	2.196848	0.278699	0.338231
Zn9	Zn	1.293846	-0.331908	-0.403610
Zn10	Zn	1.543846	-0.081908	-0.153610
Zn11	Zn	1.793846	0.168092	0.096390
Zn12	Zn	2.043846	0.418092	0.346390
Zn13	Zn	1.285622	-0.471248	-0.573011
Zn14	Zn	1.535622	-0.221248	-0.323011
Zn15	Zn	1.785622	0.028752	-0.073011
Zn16	Zn	2.035622	0.278752	0.176989
O17	O	1.370367	-0.401582	-0.488322
O18	O	1.620367	-0.151582	-0.238322
O19	O	1.870367	0.098418	0.011678
O20	O	2.120367	0.348418	0.261678
O21	O	1.589033	-0.350374	-0.544603
O22	O	1.839033	-0.100374	-0.294603
O23	O	2.089033	0.149626	-0.044603
O24	O	2.339033	0.399626	0.205397
O25	O	1.426518	-0.452848	-0.275707
O26	O	1.676518	-0.202848	-0.025707
O27	O	1.926518	0.047152	0.224293
O28	O	2.176518	0.297152	0.474293
O29	O	1.322161	-0.215237	-0.418195
O30	O	1.572161	0.034763	-0.168195
O31	O	1.822161	0.284763	0.081805
O32	O	2.072161	0.534763	0.331805
O33	O	1.582931	-0.452813	-0.432101
O34	O	1.832931	-0.202813	-0.182101
O35	O	2.082931	0.047187	0.067899
O36	O	2.332931	0.297187	0.317899
O37	O	1.440673	-0.215210	-0.536692
O38	O	1.690673	0.034790	-0.286692
O39	O	1.940673	0.284790	-0.036692
O40	O	2.190673	0.534790	0.213308
O41	O	1.314108	-0.350436	-0.269713
O42	O	1.564108	-0.100436	-0.019713
O43	O	1.814108	0.149564	0.230287
O44	O	2.064108	0.399564	0.480287
O45	O	1.157774	-0.350384	-0.426063
O46	O	1.407774	-0.100384	-0.176063
O47	O	1.657774	0.149616	0.073937
O48	O	1.907774	0.399616	0.323937
O49	O	1.308145	-0.452722	-0.706914
O50	O	1.558145	-0.202722	-0.456914
O51	O	1.808145	0.047278	-0.206914
O52	O	2.058145	0.297278	0.043086
O53	O	1.151732	-0.452757	-0.550521
O54	O	1.401732	-0.202757	-0.300521
O55	O	1.651732	0.047243	-0.050521
O56	O	1.901732	0.297243	0.199479
O57	O	1.432698	-0.350322	-0.700953
O58	O	1.682698	-0.100322	-0.450953
O59	O	1.932698	0.149678	-0.200953
O60	O	2.182698	0.399678	0.049047
O61	O	1.418544	-0.587960	-0.439968
O62	O	1.668544	-0.337960	-0.189968
O63	O	1.918544	-0.087960	0.060032
O64	O	2.168544	0.162040	0.310032
O65	O	1.300092	-0.587921	-0.558432
O66	O	1.550092	-0.337921	-0.308432
O67	O	1.800092	-0.087921	-0.058432
O68	O	2.050092	0.162079	0.191568
C69	C	1.119754	-0.401569	-0.488288
C70	C	1.369754	-0.151569	-0.238288
C71	C	1.619754	0.098431	0.011712
C72	C	1.869754	0.348431	0.261712
C73	C	1.012539	-0.401584	-0.488297
C74	C	1.262539	-0.151584	-0.238297
C75	C	1.512539	0.098416	0.011703
C76	C	1.762539	0.348416	0.261703
C77	C	0.925469	-0.401586	-0.488313
C78	C	1.175469	-0.151586	-0.238313
C79	C	1.425469	0.098414	0.011687
C80	C	1.675469	0.348414	0.261687
C81	C	0.816236	-0.401592	-0.488343
C82	C	1.066236	-0.151592	-0.238343
C83	C	1.316236	0.098408	0.011657
C84	C	1.566236	0.348408	0.261657
C85	C	1.357550	-0.618191	-0.500987
C86	C	1.607550	-0.368191	-0.250987
C87	C	1.857550	-0.118191	-0.000987
C88	C	2.107550	0.131809	0.249013
C89	C	1.352156	-0.710857	-0.506438
C90	C	1.602156	-0.460857	-0.256438
C91	C	1.852156	-0.210857	-0.006438
C92	C	2.102156	0.039143	0.243562
C93	C	1.398590	-0.921799	-0.460255
C94	C	1.648590	-0.671799	-0.210255
C95	C	1.898590	-0.421799	0.039745
C96	C	2.148590	-0.171799	0.289745
C97	C	1.342324	-0.880514	-0.516399
C98	C	1.592324	-0.630514	-0.266399
C99	C	1.842324	-0.380514	-0.016399
C100	C	2.092324	-0.130514	0.233601
C101	C	1.347796	-0.786108	-0.510855
C102	C	1.597796	-0.536108	-0.260855
C103	C	1.847796	-0.286108	-0.010855
C104	C	2.097796	-0.036108	0.239145
C105	C	1.393119	-1.016213	-0.465798
C106	C	1.643119	-0.766213	-0.215798
C107	C	1.893119	-0.516213	0.034202
C108	C	2.143119	-0.266213	0.284202
C109	C	1.621959	-0.401595	-0.488357
C110	C	1.871959	-0.151595	-0.238357
C111	C	2.121959	0.098405	0.011643
C112	C	2.371959	0.348405	0.261643
C113	C	1.729173	-0.401601	-0.488372
C114	C	1.979173	-0.151601	-0.238372
C115	C	2.229173	0.098399	0.011628
C116	C	2.479173	0.348399	0.261628
C117	C	1.370431	-0.401512	-0.739911
C118	C	1.620431	-0.151512	-0.489911
C119	C	1.870431	0.098488	-0.239911
C120	C	2.120431	0.348488	0.010089
C121	C	1.370457	-0.401482	-0.847123
C122	C	1.620457	-0.151482	-0.597123
C123	C	1.870457	0.098518	-0.347123
C124	C	2.120457	0.348518	-0.097123
C125	C	1.383261	-0.184127	-0.475628
C126	C	1.633261	0.065873	-0.225628
C127	C	1.883261	0.315873	0.024372
C128	C	2.133261	0.565873	0.274372
C129	C	1.388755	-0.091461	-0.470219
C130	C	1.638755	0.158539	-0.220219
C131	C	1.888755	0.408539	0.029781
C132	C	2.138755	0.658539	0.279781
C133	C	1.370479	-0.401459	-0.934192
C134	C	1.620479	-0.151459	-0.684192
C135	C	1.870479	0.098541	-0.434192
C136	C	2.120479	0.348541	-0.184192
C137	C	1.370508	-0.401421	-1.043422
C138	C	1.620508	-0.151421	-0.793422
C139	C	1.870508	0.098579	-0.543422
C140	C	2.120508	0.348579	-0.293422
C141	C	1.370363	-0.401592	-0.237708
C142	C	1.620363	-0.151592	0.012292
C143	C	1.870363	0.098408	0.262292
C144	C	2.120363	0.348408	0.512292
C145	C	1.370537	-0.401386	-0.130483
C146	C	1.620537	-0.151386	0.119517
C147	C	1.870537	0.098614	0.369517
C148	C	2.120537	0.348614	0.619517
H149	H	1.290043	-0.916069	-0.568630
H150	H	1.540043	-0.666069	-0.318630
H151	H	1.790043	-0.416069	-0.068630
H152	H	2.040043	-0.166069	0.181370
H153	H	1.450866	-0.886247	-0.408027
H154	H	1.700866	-0.636247	-0.158027
H155	H	1.950866	-0.386247	0.091973
H156	H	2.200866	-0.136247	0.341973
