data_functionalizedCrystal
_audit_creation_method	'MofGen! by Chris Wilmer'
_symmetry_space_group_name_H-M	'P1'
_symmetry_Int_Tables_number	1
_symmetry_cell_setting	triclinic
loop_
_symmetry_equiv_pos_as_xyz
  x,y,z
_cell_length_a	9.065218
_cell_length_b	15.186229
_cell_length_c	9.065218
_cell_angle_alpha	90.001593
_cell_angle_beta	94.984115
_cell_angle_gamma	90.005739
loop_
_atom_site_label
_atom_site_type_symbol
_atom_site_fract_x
_atom_site_fract_y
_atom_site_fract_z
O1	O	1.960405	0.073227	-0.216347
O2	O	1.531120	0.073228	-0.234093
O3	O	1.754636	0.073226	-0.010578
O4	O	1.736889	0.073229	-0.439863
O5	O	1.754609	-0.073232	-0.010590
O6	O	1.531094	-0.073229	-0.234106
O7	O	1.960379	-0.073230	-0.216359
Zn8	Zn	1.745732	-0.096483	-0.225235
Zn9	Zn	1.745767	0.096481	-0.225218
O10	O	1.736863	-0.073228	-0.439875
C11	C	1.476120	-0.000001	-0.232394
C12	C	1.312277	-0.000000	-0.227294
N13	N	1.745719	-0.228176	-0.225245
C14	C	1.836430	-0.453898	-0.315964
C15	C	1.836446	-0.546088	-0.315954
C16	C	1.655076	-0.546098	-0.134467
C17	C	1.655069	-0.453910	-0.134471
C18	C	1.745744	-0.407812	-0.225228
C19	C	1.745767	-0.592190	-0.225214
C20	C	1.745783	-0.692146	-0.225202
C21	C	1.745729	-0.307850	-0.225238
C22	C	2.015378	0.000000	-0.218059
C23	C	2.179221	0.000005	-0.223158
C24	C	1.752917	-0.000002	0.044403
C25	C	1.747817	0.000003	0.208245
N26	N	1.745791	0.228173	-0.225196
C27	C	1.738582	0.000001	-0.494855
C28	C	1.743681	0.000003	-0.658698
H29	H	1.910263	-0.416368	-0.389864
O30	O	1.924746	-0.590757	-0.404018
C31	C	2.073966	-0.568227	-0.365199
H32	H	2.079526	-0.501290	-0.308060
H33	H	2.127266	-0.620103	-0.286794
C34	C	2.150625	-0.646173	-0.576070
C35	C	2.157455	-0.563957	-0.505903
H36	H	2.202128	-0.643543	-0.662861
H37	H	2.050093	-0.661355	-0.602221
H38	H	2.195040	-0.689394	-0.510718
H39	H	2.113024	-0.520739	-0.571248
H40	H	2.257981	-0.548767	-0.479766
O41	O	1.566872	-0.409044	-0.046543
C42	C	1.467368	-0.355751	-0.135134
H43	H	1.514759	-0.341939	-0.245252
H44	H	1.356766	-0.391294	-0.156190
C45	C	1.385860	-0.285146	0.080539
C46	C	1.444072	-0.268176	-0.054705
H47	H	1.371483	-0.231127	0.130152
H48	H	1.452893	-0.321053	0.140226
H49	H	1.293697	-0.314768	0.062973
H50	H	1.536241	-0.238565	-0.037137
H51	H	1.377053	-0.232262	-0.114387
O52	O	1.567029	-0.591013	-0.046457
C53	C	1.586415	-0.682264	-0.065961
H54	H	1.629916	-0.694840	-0.178337
H55	H	1.669248	-0.708464	0.025370
C56	C	1.383502	-0.714119	0.079181
C57	C	1.436920	-0.729564	-0.058846
H58	H	1.291289	-0.743297	0.083577
H59	H	1.370444	-0.652641	0.092328
H60	H	1.452543	-0.735952	0.155276
H61	H	1.367888	-0.707721	-0.134936
H62	H	1.449962	-0.791039	-0.072005
