data_functionalizedCrystal
_audit_creation_method	'MofGen! by Chris Wilmer'
_symmetry_space_group_name_H-M	'P1'
_symmetry_Int_Tables_number	1
_symmetry_cell_setting	triclinic
loop_
_symmetry_equiv_pos_as_xyz
  x,y,z
_cell_length_a	8.597340
_cell_length_b	7.088929
_cell_length_c	8.597304
_cell_angle_alpha	103.967090
_cell_angle_beta	86.359595
_cell_angle_gamma	76.039802
loop_
_atom_site_label
_atom_site_type_symbol
_atom_site_fract_x
_atom_site_fract_y
_atom_site_fract_z
O1	O	2.101079	-0.151022	0.219217
O2	O	1.636355	-0.070174	0.245268
O3	O	1.881740	-0.151023	-0.000124
O4	O	1.855694	-0.070173	0.464609
O5	O	1.914557	-0.479815	-0.032970
O6	O	1.669171	-0.398966	0.212422
O7	O	2.133895	-0.479814	0.186372
Cu8	Cu	1.904530	-0.469411	0.196398
Cu9	Cu	1.865721	-0.080576	0.235241
O10	O	1.888510	-0.398965	0.431764
C11	C	1.593301	-0.224933	0.227877
C12	C	1.416121	-0.196223	0.224974
C13	C	1.897180	-0.325051	-0.076010
C14	C	1.894274	-0.353749	-0.253192
C15	C	2.176949	-0.325050	0.203763
C16	C	2.354128	-0.353747	0.206667
N17	N	1.931838	-0.742899	0.169077
N18	N	1.838426	0.192907	0.262550
C19	C	1.873070	-0.224932	0.507650
C20	C	1.875975	-0.196221	0.684833
H21	H	1.436602	-0.510583	0.193203
N22	N	1.858159	0.011506	-0.205863
H23	H	1.948745	0.066819	-0.239968
H24	H	1.750905	0.103522	-0.213871
N25	N	1.912083	-0.561516	-0.362451
H26	H	1.812841	-0.562156	-0.419242
H27	H	2.010688	-0.598912	-0.445301
N28	N	1.306884	0.011540	0.242784
H29	H	1.191550	0.003304	0.238116
H30	H	1.315017	0.103598	0.349983
H31	H	2.028660	-0.856451	0.072222
H32	H	1.741608	-0.693529	0.359422
