data_functionalizedCrystal
_audit_creation_method	'MofGen! by Chris Wilmer'
_symmetry_space_group_name_H-M	'P1'
_symmetry_Int_Tables_number	1
_symmetry_cell_setting	triclinic
loop_
_symmetry_equiv_pos_as_xyz
  x,y,z
_cell_length_a	10.967926
_cell_length_b	11.792254
_cell_length_c	9.482900
_cell_angle_alpha	99.398945
_cell_angle_beta	92.549900
_cell_angle_gamma	84.460570
loop_
_atom_site_label
_atom_site_type_symbol
_atom_site_fract_x
_atom_site_fract_y
_atom_site_fract_z
O1	O	1.611521	0.200404	0.282842
O2	O	2.111521	0.700404	0.782842
O3	O	1.262324	0.202894	0.195354
O4	O	1.762324	0.702894	0.695354
O5	O	1.445387	0.036809	0.241229
O6	O	1.945387	0.536809	0.741229
O7	O	1.428458	0.366489	0.236967
O8	O	1.928458	0.866489	0.736967
O9	O	1.408203	0.070687	0.473704
O10	O	1.908203	0.570687	0.973704
O11	O	1.225140	0.236771	0.427829
O12	O	1.725140	0.736771	0.927829
O13	O	1.574338	0.234282	0.515317
O14	O	2.074338	0.734282	1.015317
Cu15	Cu	1.396344	0.238620	0.492799
Cu16	Cu	1.896344	0.738620	0.992799
Cu17	Cu	1.440317	0.198556	0.217871
Cu18	Cu	1.940317	0.698556	0.717871
O19	O	1.391274	0.400366	0.469442
O20	O	1.891274	0.900366	0.969442
C21	C	1.199027	0.217091	0.300391
C22	C	1.699027	0.717091	0.800391
C23	C	1.065820	0.208911	0.267017
C24	C	1.565820	0.708911	0.767017
C25	C	0.987170	0.222813	0.372567
C26	C	1.487170	0.722813	0.872567
C27	C	0.849493	0.214358	0.338076
C28	C	1.349493	0.714358	0.838076
C29	C	1.425729	0.011416	0.357199
C30	C	1.925729	0.511416	0.857199
C31	C	1.422536	-0.114721	0.356398
C32	C	1.922536	0.385279	0.856398
C33	C	1.419943	-0.217159	0.355743
C34	C	1.919943	0.282841	0.855743
C35	C	1.416702	-0.345673	0.354917
C36	C	1.916702	0.154327	0.854917
C37	C	1.637635	0.220083	0.410277
C38	C	2.137635	0.720083	0.910277
C39	C	1.770843	0.228263	0.443641
C40	C	2.270843	0.728263	0.943641
C41	C	1.410933	0.425759	0.353469
C42	C	1.910933	0.925759	0.853469
C43	C	1.414127	0.551895	0.354261
C44	C	1.914127	1.051895	0.854261
N45	N	1.365424	0.266798	0.686171
N46	N	1.865424	0.766798	1.186171
N47	N	1.471247	0.170368	0.024502
N48	N	1.971247	0.670368	0.524502
C49	C	1.431189	0.206861	0.774851
C50	C	1.931189	0.706861	1.274851
C51	C	1.405472	0.230315	0.935824
C52	C	1.905472	0.730315	1.435824
H53	H	1.031229	0.190746	0.151118
H54	H	1.531229	0.690746	0.651118
N55	N	1.525695	0.120696	0.720583
N56	N	2.025695	0.620696	1.220583
N57	N	1.546448	0.101762	0.589895
N58	N	2.046448	0.601762	1.089895
H59	H	1.613194	0.040905	0.551569
H60	H	2.113194	0.540905	1.051569
N61	N	1.310942	0.316465	0.990080
N62	N	1.810942	0.816465	1.490080
N63	N	1.290181	0.335392	1.120766
N64	N	1.790181	0.835392	1.620766
H65	H	1.223419	0.396233	1.159088
H66	H	1.723419	0.896233	1.659088
H67	H	1.546590	0.101681	0.981259
H68	H	2.046590	0.601681	1.481259
H69	H	0.805427	0.246422	0.559549
H70	H	1.305427	0.746422	1.059549
H71	H	1.290076	0.335473	0.729419
H72	H	1.790076	0.835473	1.229419
H73	H	1.021761	0.240968	0.488466
H74	H	1.521761	0.740968	0.988466
H75	H	0.814908	0.196193	0.222170
H76	H	1.314908	0.696193	0.722170
