data_functionalizedCrystal
_audit_creation_method	'MofGen! by Chris Wilmer'
_symmetry_space_group_name_H-M	'P1'
_symmetry_Int_Tables_number	1
_symmetry_cell_setting	triclinic
loop_
_symmetry_equiv_pos_as_xyz
  x,y,z
_cell_length_a	18.050590
_cell_length_b	18.215405
_cell_length_c	18.215399
_cell_angle_alpha	89.969449
_cell_angle_beta	89.995989
_cell_angle_gamma	90.014052
loop_
_atom_site_label
_atom_site_type_symbol
_atom_site_fract_x
_atom_site_fract_y
_atom_site_fract_z
Zn1	Zn	1.135345	-0.293205	-0.415792
Zn2	Zn	1.635345	0.206795	0.084208
Zn3	Zn	1.135252	-0.416276	-0.292720
Zn4	Zn	1.635252	0.083724	0.207280
Zn5	Zn	1.011154	-0.293205	-0.292773
Zn6	Zn	1.511154	0.206795	0.207227
Zn7	Zn	1.011119	-0.416211	-0.415779
Zn8	Zn	1.511119	0.083789	0.084221
O9	O	1.073217	-0.354724	-0.354266
O10	O	1.573217	0.145276	0.145734
O11	O	1.239257	-0.309558	-0.399449
O12	O	1.739257	0.190442	0.100551
O13	O	1.118766	-0.399977	-0.189743
O14	O	1.618766	0.100023	0.310257
O15	O	1.027681	-0.190220	-0.309120
O16	O	1.527681	0.309780	0.190880
O17	O	1.239189	-0.399978	-0.309029
O18	O	1.739189	0.100022	0.190971
O19	O	1.118924	-0.190220	-0.399501
O20	O	1.618924	0.309780	0.100499
O21	O	1.027591	-0.309557	-0.189782
O22	O	1.527591	0.190443	0.310218
O23	O	0.907224	-0.309494	-0.309107
O24	O	1.407224	0.190506	0.190893
O25	O	1.027622	-0.399867	-0.518765
O26	O	1.527622	0.100133	-0.018765
O27	O	0.907199	-0.399866	-0.399479
O28	O	1.407199	0.100134	0.100521
O29	O	1.118890	-0.309495	-0.518774
O30	O	1.618890	0.190505	-0.018774
O31	O	1.118733	-0.519252	-0.309016
O32	O	1.618733	-0.019252	0.190984
O33	O	1.027533	-0.519204	-0.399427
O34	O	1.527533	-0.019204	0.100573
C35	C	1.073139	-0.545930	-0.354231
C36	C	1.573139	-0.045930	0.145769
C37	C	1.073173	-0.627729	-0.354240
C38	C	1.573173	-0.127729	0.145760
C39	C	0.880265	-0.354674	-0.354298
C40	C	1.380265	0.145326	0.145702
C41	C	0.797719	-0.354670	-0.354329
C42	C	1.297719	0.145330	0.145671
C43	C	1.120773	-0.815924	-0.307250
C44	C	1.620773	-0.315924	0.192750
C45	C	1.120806	-0.892782	-0.307267
C46	C	1.620806	-0.392782	0.192733
C47	C	1.025757	-0.892772	-0.401335
C48	C	1.525757	-0.392772	0.098665
C49	C	1.025728	-0.815915	-0.401320
C50	C	1.525728	-0.315915	0.098680
C51	C	1.073235	-0.777493	-0.354274
C52	C	1.573235	-0.277493	0.145726
C53	C	1.073297	-0.931209	-0.354306
C54	C	1.573297	-0.431209	0.145694
C55	C	1.073333	-1.014542	-0.354326
C56	C	1.573333	-0.514542	0.145674
C57	C	1.073200	-0.694154	-0.354255
C58	C	1.573200	-0.194154	0.145745
C59	C	0.598277	-0.403955	-0.403356
C60	C	1.098277	0.096045	0.096644
C61	C	0.548881	-0.336851	-0.421469
C62	C	1.048881	0.163149	0.078531
C63	C	0.646589	-0.354711	-0.354293
C64	C	1.146589	0.145289	0.145707
C65	C	0.548903	-0.421853	-0.336179
C66	C	1.048903	0.078147	0.163821
C67	C	0.500604	-0.354757	-0.354259
C68	C	1.000604	0.145243	0.145741
C69	C	0.598281	-0.287571	-0.372441
C70	C	1.098281	0.212429	0.127559
C71	C	0.598307	-0.372619	-0.287120
C72	C	1.098307	0.127381	0.212880
C73	C	0.548934	-0.305469	-0.305207
C74	C	1.048934	0.194531	0.194793
C75	C	0.730687	-0.354686	-0.354314
C76	C	1.230687	0.145314	0.145686
C77	C	0.416507	-0.354774	-0.354238
C78	C	0.916507	0.145226	0.145762
C79	C	1.266923	-0.354775	-0.354235
C80	C	1.766923	0.145225	0.145765
C81	C	1.349469	-0.354797	-0.354221
C82	C	1.849469	0.145203	0.145779
C83	C	1.073263	-0.354673	-0.546219
C84	C	1.573263	0.145327	-0.046219
C85	C	1.073282	-0.354652	-0.628018
C86	C	1.573282	0.145348	-0.128018
C87	C	1.073316	-0.162771	-0.354318
C88	C	1.573316	0.337229	0.145682
C89	C	1.073358	-0.080972	-0.354340
C90	C	1.573358	0.419028	0.145660
C91	C	1.120822	-0.307551	-0.816218
C92	C	1.620822	0.192449	-0.316218
C93	C	1.120831	-0.307529	-0.893077
C94	C	1.620831	0.192471	-0.393077
C95	C	1.025794	-0.401639	-0.893056
C96	C	1.525794	0.098361	-0.393056
C97	C	1.025782	-0.401656	-0.816198
C98	C	1.525782	0.098344	-0.316198
C99	C	1.073300	-0.354613	-0.777781
C100	C	1.573300	0.145387	-0.277781
C101	C	1.073321	-0.354574	-0.931498
C102	C	1.573321	0.145426	-0.431498
C103	C	1.073330	-0.354551	-1.014831
C104	C	1.573330	0.145449	-0.514831
C105	C	1.073290	-0.354635	-0.694442
C106	C	1.573290	0.145365	-0.194442
C107	C	1.073215	-0.354721	-0.163060
C108	C	1.573215	0.145279	0.336940
C109	C	1.073340	-0.354536	-0.081261
C110	C	1.573340	0.145464	0.418739
H111	H	1.159457	-0.784642	-0.268942
H112	H	1.659457	-0.284642	0.231058
H113	H	1.159513	-0.269244	-0.784941
H114	H	1.659513	0.230756	-0.284941
H115	H	0.987108	-0.439941	-0.924344
H116	H	1.487108	0.060059	-0.424344
F117	F	0.975196	-0.451745	-0.775289
F118	F	1.475196	0.048255	-0.275289
F119	F	1.171404	-0.933680	-0.257220
F120	F	1.671404	-0.433680	0.242780
H121	H	0.987078	-0.924065	-0.439638
H122	H	1.487078	-0.424065	0.060362
H123	H	0.987017	-0.784622	-0.439616
H124	H	1.487017	-0.284622	0.060384
H125	H	0.619944	-0.445526	-0.444894
H126	H	1.119944	0.054474	0.055106
H127	H	0.620034	-0.387771	-0.230343
H128	H	1.120034	0.112229	0.269657
H129	H	1.159527	-0.269206	-0.924368
H130	H	1.659527	0.230794	-0.424368
F131	F	0.520552	-0.496045	-0.316171
F132	F	1.020552	0.003955	0.183829
F133	F	0.626509	-0.213357	-0.392532
F134	F	1.126509	0.286643	0.107468
F135	F	0.520503	-0.317071	-0.495700
F136	F	1.020503	0.182929	0.004300
H137	H	0.527405	-0.263796	-0.263702
H138	H	1.027405	0.236204	0.236298
