data_functionalizedCrystal
_audit_creation_method	'MofGen! by Chris Wilmer'
_symmetry_space_group_name_H-M	'P1'
_symmetry_Int_Tables_number	1
_symmetry_cell_setting	triclinic
loop_
_symmetry_equiv_pos_as_xyz
  x,y,z
_cell_length_a	12.645330
_cell_length_b	19.077241
_cell_length_c	19.076919
_cell_angle_alpha	90.113904
_cell_angle_beta	92.276250
_cell_angle_gamma	87.690224
loop_
_atom_site_label
_atom_site_type_symbol
_atom_site_fract_x
_atom_site_fract_y
_atom_site_fract_z
Zn1	Zn	-0.384843	-1.058320	-0.440586
Zn2	Zn	-0.554731	-1.062973	-0.323089
Zn3	Zn	-0.384285	-0.945535	-0.318363
Zn4	Zn	-0.568871	-0.940793	-0.435825
O5	O	-0.473183	-1.001905	-0.379466
O6	O	-0.401696	-1.157270	-0.428970
O7	O	-0.525970	-1.051326	-0.224131
O8	O	-0.236010	-0.960534	-0.334592
O9	O	-0.526511	-1.160689	-0.342645
O10	O	-0.236421	-1.043396	-0.424388
O11	O	-0.400743	-0.965046	-0.220659
O12	O	-0.414454	-0.846573	-0.329975
O13	O	-0.550611	-0.952451	-0.534787
O14	O	-0.550069	-0.843089	-0.416273
O15	O	-0.415406	-1.038798	-0.538285
O16	O	-0.704955	-1.046728	-0.338028
O17	O	-0.715344	-0.956963	-0.420855
C18	C	-0.483736	-0.819334	-0.372095
C19	C	-0.488278	-0.741229	-0.368959
C20	C	-0.425538	-0.702753	-0.412498
C21	C	-0.429800	-0.629365	-0.409545
C22	C	-0.496807	-0.594454	-0.363055
C23	C	-0.559549	-0.632936	-0.319511
C24	C	-0.555281	-0.706322	-0.322461
C25	C	-0.516523	-0.375163	-0.349402
C26	C	-0.520789	-0.301771	-0.346457
C27	C	-0.391038	-0.298205	-0.436491
C28	C	-0.386780	-0.371593	-0.439440
C29	C	-0.449518	-0.410068	-0.395893
N30	N	-0.501168	-0.519440	-0.360037
N31	N	-0.445151	-0.485081	-0.398908
C32	C	-0.748615	-1.001854	-0.379454
C33	C	-0.866443	-1.001896	-0.379475
C34	C	-1.040584	-0.945642	-0.431758
C35	C	-0.918030	-0.945373	-0.431571
C36	C	-0.907532	-0.984830	-0.304614
C37	C	-1.030170	-0.984486	-0.304932
C38	C	-1.030418	-1.075571	-0.401465
C39	C	-0.907940	-1.075050	-0.403066
C40	C	-0.196675	-1.001975	-0.379494
C41	C	-0.078844	-1.002005	-0.379506
C42	C	-0.484648	-0.994577	-0.562745
C43	C	-0.489534	-0.991454	-0.640848
C44	C	-0.462582	-0.185189	-0.386860
C45	C	-0.458049	-0.263295	-0.389997
C46	C	-0.421439	-1.034940	-0.679364
C47	C	-0.426026	-1.031997	-0.752749
C48	C	-0.498715	-0.985571	-0.787618
C49	C	-0.566812	-0.942079	-0.749098
C50	C	-0.562219	-0.945019	-0.675713
C51	C	-0.519995	-0.971954	-1.006899
C52	C	-0.524585	-0.969019	-1.080288
C53	C	-0.383797	-1.058936	-1.083935
C54	C	-0.379215	-1.061874	-1.010549
C55	C	-0.447309	-1.018381	-0.972035
N56	N	-0.503407	-0.982563	-0.862630
N57	N	-0.442610	-1.021385	-0.897024
C58	C	-0.461683	-1.009246	-0.196901
C59	C	-0.456490	-1.012505	-0.118804
H60	H	-0.378713	-0.598041	-0.445001
C61	C	-0.594498	-0.263370	-0.295315
H62	H	-0.631245	-0.296794	-0.269798
H63	H	-0.644095	-0.233671	-0.320993
H64	H	-0.553618	-0.235961	-0.263594
H65	H	-0.891195	-0.890773	-0.416787
H66	H	-1.063548	-1.091722	-0.455283
H67	H	-1.054998	-1.023918	-0.264512
H68	H	-0.328358	-1.094345	-1.115301
H69	H	-0.614103	-0.604506	-0.281654
C70	C	-0.604536	-0.917944	-1.118647
H71	H	-0.597524	-0.922429	-1.167868
H72	H	-0.590991	-0.871216	-1.104715
H73	H	-0.674424	-0.928689	-1.107029
H74	H	-0.339959	-0.266871	-0.471943
H75	H	-0.362251	-1.072747	-0.650979
C76	C	-0.585540	-0.417479	-0.301510
H77	H	-0.573399	-0.466186	-0.309918
H78	H	-0.658128	-0.405037	-0.311233
H79	H	-0.567658	-0.407330	-0.253829
C80	C	-0.869011	-0.913080	-0.279588
H81	H	-0.894282	-0.903221	-0.234234
H82	H	-0.895200	-0.877665	-0.311413
H83	H	-0.793779	-0.914094	-0.277668
H84	H	-0.606370	-0.737649	-0.287006
C85	C	-0.872003	-1.092520	-0.477506
H86	H	-0.831873	-1.055393	-0.494143
H87	H	-0.932383	-1.098172	-0.507917
H88	H	-0.829557	-1.134770	-0.476377
H89	H	-0.370976	-0.731172	-0.450357
H90	H	-0.890610	-0.955705	-0.486986
C91	C	-0.351127	-1.079835	-0.795113
H92	H	-0.307189	-1.107913	-0.763836
H93	H	-0.308277	-1.051824	-0.822658
H94	H	-0.391711	-1.109296	-0.824974
C95	C	-0.860088	-1.134448	-0.355723
H96	H	-0.886521	-1.177999	-0.371185
H97	H	-0.879079	-1.126059	-0.308673
H98	H	-0.785133	-1.135939	-0.358111
H99	H	-0.332220	-0.400012	-0.477299
C100	C	-1.084167	-0.959366	-0.506838
H101	H	-1.126078	-0.999597	-0.506996
H102	H	-1.026908	-0.967104	-0.537047
H103	H	-1.126467	-0.919847	-0.522782
H104	H	-1.073875	-0.891381	-0.417148
C105	C	-1.071820	-0.911957	-0.280278
H106	H	-1.013778	-0.882979	-0.270167
H107	H	-1.110891	-0.917216	-0.239231
H108	H	-1.116472	-0.890924	-0.316238
H109	H	-0.617659	-0.909601	-0.644355
C110	C	-0.861602	-1.038700	-0.250402
H111	H	-0.816848	-1.072155	-0.272995
H112	H	-0.917807	-1.061910	-0.229897
H113	H	-0.821793	-1.015265	-0.214874
H114	H	-1.054570	-1.117526	-0.363444
C115	C	-0.299258	-1.112944	-0.972198
H116	H	-0.259355	-1.138419	-1.005647
H117	H	-0.336254	-1.144695	-0.944805
H118	H	-0.252825	-1.087220	-0.942488
C119	C	-0.594901	-0.924119	-0.964539
H120	H	-0.581752	-0.932511	-0.915839
H121	H	-0.666286	-0.933904	-0.976975
H122	H	-0.582861	-0.876426	-0.974661
C123	C	-0.646769	-0.891012	-0.787452
H124	H	-0.639761	-0.895494	-0.836674
H125	H	-0.633233	-0.844284	-0.773519
H126	H	-0.716652	-0.901766	-0.775832
