data_functionalizedCrystal
_audit_creation_method	'MofGen! by Chris Wilmer'
_symmetry_space_group_name_H-M	'P1'
_symmetry_Int_Tables_number	1
_symmetry_cell_setting	triclinic
loop_
_symmetry_equiv_pos_as_xyz
  x,y,z
_cell_length_a	10.967916
_cell_length_b	22.010155
_cell_length_c	23.532357
_cell_angle_alpha	90.001303
_cell_angle_beta	96.208076
_cell_angle_gamma	102.120453
loop_
_atom_site_label
_atom_site_type_symbol
_atom_site_fract_x
_atom_site_fract_y
_atom_site_fract_z
O1	O	-1.654612	-0.122707	0.079885
O2	O	-1.291233	-0.084659	0.087526
O3	O	-1.483913	-0.104846	0.000843
O4	O	-1.461932	-0.102520	0.166568
O5	O	-1.483878	-0.205893	0.000856
O6	O	-1.291198	-0.185706	0.087539
O7	O	-1.654577	-0.223754	0.079898
Cu8	Cu	-1.472884	-0.213956	0.083720
Cu9	Cu	-1.472926	-0.094457	0.083704
O10	O	-1.461897	-0.203567	0.166581
C11	C	-1.244735	-0.130316	0.086976
C12	C	-1.106239	-0.115815	0.085310
C13	C	-1.044475	-0.161695	0.084573
C14	C	-0.901332	-0.146708	0.082851
N15	N	-1.472864	-0.298007	0.083730
C16	C	-1.558249	-0.726732	0.045327
C17	C	-1.558255	-0.790340	0.045323
O18	O	-1.630802	-0.830832	0.012678
N19	N	-1.472925	-0.813220	0.083693
C20	C	-1.387575	-0.772487	0.122065
O21	O	-1.314995	-0.797789	0.154700
C22	C	-1.387564	-0.708879	0.122065
C23	C	-1.472908	-0.686004	0.083697
C24	C	-1.643585	-0.703856	0.006961
C25	C	-1.643580	-0.640252	0.006966
C26	C	-1.558240	-0.599524	0.045336
C27	C	-1.472904	-0.622401	0.083702
C28	C	-1.302210	-0.668147	0.160434
C29	C	-1.302206	-0.604536	0.160431
C30	C	-1.387550	-0.581661	0.122063
C31	C	-1.387559	-0.518069	0.122077
N32	N	-1.472888	-0.495189	0.083707
C33	C	-1.558229	-0.535917	0.045337
C34	C	-1.387603	-0.906068	0.122060
C35	C	-1.387619	-0.969675	0.122062
C36	C	-1.558297	-0.987523	0.045319
C37	C	-1.558286	-0.923916	0.045320
C38	C	-1.472933	-0.883188	0.083690
C39	C	-1.558214	-0.402344	0.045350
C40	C	-1.558205	-0.338734	0.045360
C41	C	-1.387523	-0.320891	0.122100
C42	C	-1.387535	-0.384495	0.122093
C43	C	-1.472886	-0.425221	0.083713
O44	O	-1.315045	-0.477540	0.154703
O45	O	-1.630786	-0.510605	0.012702
C46	C	-0.701075	-0.178096	0.080449
C47	C	-0.839571	-0.192595	0.082115
C48	C	-1.483345	-0.155314	-0.020370
C49	C	-1.481692	-0.155147	-0.083600
N50	N	-1.472955	-0.010407	0.083689
C51	C	-1.471334	-0.098947	-0.475685
C52	C	-1.469763	-0.098779	-0.535095
O53	O	-1.468924	-0.051845	-0.565823
N54	N	-1.468964	-0.153777	-0.564804
C55	C	-1.469725	-0.208945	-0.535100
O56	O	-1.468900	-0.255710	-0.565825
C57	C	-1.471287	-0.209112	-0.475691
C58	C	-1.472098	-0.154111	-0.445986
C59	C	-1.472144	-0.043951	-0.445980
C60	C	-1.473717	-0.044119	-0.386574
C61	C	-1.474481	-0.099284	-0.356875
C62	C	-1.473672	-0.154280	-0.386580
C63	C	-1.472039	-0.264279	-0.445987
C64	C	-1.473600	-0.264440	-0.386574
C65	C	-1.474411	-0.209440	-0.356869
C66	C	-1.476009	-0.209613	-0.297475
N67	N	-1.476808	-0.154615	-0.267766
C68	C	-1.476044	-0.099450	-0.297466
C69	C	-1.466442	-0.208591	-0.659863
C70	C	-1.464888	-0.208427	-0.719271
C71	C	-1.464924	-0.098259	-0.719262
C72	C	-1.466486	-0.098426	-0.659853
C73	C	-1.467240	-0.153593	-0.630154
C74	C	-1.479349	-0.099808	-0.172710
C75	C	-1.480928	-0.099982	-0.113300
C76	C	-1.480886	-0.210148	-0.113314
C77	C	-1.479314	-0.209975	-0.172719
C78	C	-1.478541	-0.154800	-0.202416
O79	O	-1.476844	-0.256522	-0.266709
O80	O	-1.476852	-0.052692	-0.266732
C81	C	-1.462464	-0.153098	0.187794
C82	C	-1.464117	-0.153261	0.251024
H83	H	-1.627706	-0.320113	0.014116
F84	F	-1.467347	-0.039887	-0.628244
F85	F	-1.464048	-0.266968	-0.750881
F86	F	-1.474572	0.014421	-0.354967
F87	F	-1.296760	-0.862727	0.162904
F88	F	-0.831946	-0.080861	0.082005
F89	F	-1.734422	-0.747194	-0.033882
H90	H	-1.467059	-0.253519	-0.635686
F91	F	-1.296703	-0.277536	0.162936
F92	F	-1.481795	-0.041441	-0.081688
H93	H	-1.318053	-0.403121	0.153341
F94	F	-1.211355	-0.561193	0.201270
F95	F	-1.113867	-0.227539	0.085414
F96	F	-1.296800	-0.994015	0.162906
H97	H	-1.471517	0.000974	-0.470155
F98	F	-0.908957	-0.258444	0.082951
F99	F	-1.036849	-0.049970	0.084463
F100	F	-1.478527	-0.041084	-0.204307
F101	F	-1.464103	-0.039547	-0.750881
F102	F	-1.649053	-0.445678	0.004502
H103	H	-1.471380	-0.309066	-0.470163
F104	F	-1.211374	-0.692480	0.201270
H105	H	-1.474195	-0.309363	-0.362395
F106	F	-1.734408	-0.615912	-0.033873
H107	H	-1.478665	-0.254762	-0.196907
F108	F	-1.481702	-0.268855	-0.081694
H109	H	-1.627784	-1.020695	0.014075
F110	F	-1.649119	-0.899576	0.004483
