data_functionalizedCrystal
_audit_creation_method	'MofGen! by Chris Wilmer'
_symmetry_space_group_name_H-M	'P1'
_symmetry_Int_Tables_number	1
_symmetry_cell_setting	triclinic
loop_
_symmetry_equiv_pos_as_xyz
  x,y,z
_cell_length_a	23.096457
_cell_length_b	14.560432
_cell_length_c	23.096457
_cell_angle_alpha	119.997810
_cell_angle_beta	89.999456
_cell_angle_gamma	59.999119
loop_
_atom_site_label
_atom_site_type_symbol
_atom_site_fract_x
_atom_site_fract_y
_atom_site_fract_z
Zr1	Zr	0.557760	1.005291	0.075987
O2	O	0.465307	1.196890	0.168430
O3	O	0.586102	0.813690	0.047650
O4	O	0.586097	1.005293	0.168438
O5	O	0.465317	1.005287	-0.047639
O6	O	0.681377	1.005295	0.168441
O7	O	0.465313	1.005288	0.047643
O8	O	0.681386	0.662554	-0.047626
O9	O	0.465307	1.348028	0.168428
O10	O	0.669296	0.892501	0.035565
O11	O	0.598192	0.892498	-0.035545
O12	O	0.598186	1.118085	0.106667
O13	O	0.527082	1.118082	0.035556
Zr14	Zr	0.709728	1.005293	-0.075971
Zr15	Zr	0.709721	1.005295	0.075993
Zr16	Zr	0.557766	1.005289	-0.075976
Zr17	Zr	0.557760	1.246338	0.075983
Zr18	Zr	0.709728	0.764245	-0.075967
O19	O	0.681386	1.196893	-0.047634
O20	O	0.681377	1.196896	0.168438
O21	O	0.465316	1.196887	-0.047642
O22	O	0.802180	0.813693	-0.168414
O23	O	0.802171	0.813696	0.047658
O24	O	0.586111	0.813688	-0.168422
O25	O	0.802171	1.005297	0.047655
O26	O	0.681391	1.005291	-0.168421
O27	O	0.586111	1.005288	-0.168425
O28	O	0.802175	1.005296	-0.047626
O29	O	0.586096	1.348031	0.168433
O30	O	0.681391	0.662552	-0.168416
O31	O	0.802180	0.662556	-0.168412
O32	O	0.802175	0.662557	-0.047621
O33	O	0.465312	1.348027	0.047638
O34	O	0.586101	1.348030	0.047642
O35	O	0.669302	0.892499	-0.106650
O36	O	0.740405	0.892502	-0.035540
O37	O	0.669295	1.118086	0.035562
O38	O	0.598192	1.118083	-0.035548
C39	C	0.633744	0.703778	0.000013
C40	C	0.633744	0.601447	0.000014
C41	C	0.707970	0.601444	0.074261
C42	C	0.745080	0.553371	0.111385
C43	C	0.745078	0.457221	0.111384
C44	C	0.707964	0.409140	0.074252
C45	C	0.670855	0.457213	0.037128
C46	C	0.670859	0.553367	0.037135
C47	C	0.596634	0.457210	-0.037122
C48	C	0.596631	0.553366	-0.037117
C49	C	0.559520	0.409128	-0.074254
C50	C	0.522405	0.457208	-0.111375
C51	C	0.522408	0.553364	-0.111371
C52	C	0.559521	0.601439	-0.074242
C53	C	0.443663	1.005287	0.000001
C54	C	0.379152	1.005285	-0.000001
C55	C	0.385965	0.887536	-0.037109
C56	C	0.325349	0.887534	-0.037112
C57	C	0.257921	1.005288	0.000007
C58	C	0.251111	1.123053	0.037116
C59	C	0.311726	1.123051	0.037112
N60	N	0.135123	1.092939	0.060416
N61	N	0.077544	1.092933	0.060419
C62	C	0.075289	1.005300	0.000019
N63	N	0.132795	0.917654	-0.060382
N64	N	0.190381	0.917657	-0.060383
C65	C	0.192190	1.005303	0.000015
C66	C	0.016378	0.887541	-0.037095
C67	C	-0.044240	0.887544	-0.037100
C68	C	-0.118479	1.123066	0.037134
C69	C	-0.057861	1.123059	0.037132
C70	C	0.009565	1.005293	0.000019
C71	C	0.823824	1.005297	0.000015
C72	C	0.888336	1.005299	0.000018
C73	C	0.633736	1.005294	0.190091
C74	C	0.633733	1.005295	0.254603
C75	C	0.633743	1.306806	0.000004
C76	C	0.633743	1.409137	0.000002
C77	C	0.581242	1.005311	0.715118
C78	C	0.581243	1.005301	0.654499
C79	C	0.633734	1.005304	0.624188
C80	C	0.686239	1.005283	0.654491
C81	C	0.686240	1.005279	0.715105
N82	N	0.649627	1.078836	0.552194
N83	N	0.649621	1.078842	0.494614
C84	C	0.633733	1.005311	0.441562
N85	N	0.617837	0.931791	0.448269
N86	N	0.617840	0.931791	0.505856
C87	C	0.633738	1.005307	0.558463
C88	C	0.581236	1.005312	0.345533
C89	C	0.581241	1.005295	0.284910
C90	C	0.686234	1.005289	0.284908
C91	C	0.686231	1.005294	0.345525
C92	C	0.633728	1.005312	0.375836
C93	C	0.633747	1.005292	0.809926
C94	C	0.633738	1.005297	0.745416
C95	C	0.823825	0.703783	0.000020
C96	C	0.888336	0.601454	0.000024
C97	C	0.633752	0.703776	-0.190070
C98	C	0.633755	0.601444	-0.254581
C99	C	0.823832	0.703781	-0.190063
C100	C	0.888347	0.601451	-0.254571
C101	C	0.443655	1.306803	0.190079
C102	C	0.379141	1.409133	0.254588
C103	C	0.443663	1.306801	-0.000003
C104	C	0.379151	1.409130	-0.000007
C105	C	0.633735	1.306808	0.190086
C106	C	0.633733	1.409140	0.254597
C107	C	0.881513	0.553398	0.037148
C108	C	0.942123	0.457262	0.037166
C109	C	1.009555	0.409177	0.000055
C110	C	1.016377	0.457242	-0.037071
C111	C	0.955768	0.553383	-0.037084
C112	C	0.670875	0.553388	-0.321998
C113	C	0.670875	0.457250	-0.382619
C114	C	0.633759	0.409163	-0.375820
C115	C	0.596634	0.457228	-0.308396
C116	C	0.596631	0.553371	-0.247777
C117	C	0.955765	0.553397	-0.247746
C118	C	1.016389	0.457260	-0.308353
C119	C	1.009593	0.409172	-0.375784
C120	C	0.942168	0.457236	-0.382608
C121	C	0.881545	0.553377	-0.322002
C122	C	0.311722	1.457199	0.247763
C123	C	0.251098	1.553365	0.308370
C124	C	0.257894	1.601458	0.375801
C125	C	0.325320	1.553388	0.382624
C126	C	0.385942	1.457230	0.322018
C127	C	0.385974	1.457195	-0.037125
C128	C	0.325365	1.553358	-0.037126
C129	C	0.257933	1.601447	-0.000013
C130	C	0.251111	1.553377	0.037110
C131	C	0.311720	1.457223	0.037114
C132	C	0.670856	1.457197	0.247776
C133	C	0.670867	1.553336	0.308385
C134	C	0.633750	1.601423	0.375814
C135	C	0.596626	1.553356	0.382634
C136	C	0.596619	1.457212	0.322026
H137	H	0.775299	0.418075	0.141610
N138	N	0.524625	1.005302	0.747799
H139	H	0.532590	1.005296	0.790796
H140	H	0.476458	1.085386	0.762448
N141	N	0.178378	1.605230	0.077122
H142	H	0.151565	1.701750	0.114469
H143	H	0.151652	1.588394	0.043011
N144	N	0.710931	0.405404	-0.455333
H145	H	0.705304	0.337202	-0.492709
H146	H	0.691450	0.478840	-0.460944
N147	N	1.074982	0.305477	-0.441149
H148	H	1.118720	0.282336	-0.426587
H149	H	1.074954	0.225754	-0.470297
N150	N	0.332728	1.605210	-0.077157
H151	H	0.309230	1.588504	-0.114508
H152	H	0.309249	1.701707	-0.043058
H153	H	0.538494	1.005312	0.629826
H154	H	0.961312	0.592536	-0.192846
H155	H	0.306173	1.218940	0.067328
N156	N	0.742854	1.005291	0.747797
H157	H	0.776107	1.005296	0.719401
H158	H	0.719887	1.085383	0.798184
H159	H	0.728975	1.005284	0.260227
N160	N	0.785102	0.605240	0.151437
H161	H	0.765622	0.645127	0.203359
H162	H	0.837019	0.531830	0.131921
H163	H	0.306154	1.418091	0.067338
H164	H	1.071284	0.418137	-0.302785
H165	H	0.707968	0.679745	0.074273
H166	H	0.707973	0.330839	0.074247
N167	N	-0.036886	0.760530	-0.077126
H168	H	-0.060385	0.755291	-0.043080
H169	H	-0.060367	0.755346	-0.114481
N170	N	0.556615	0.405336	-0.301072
H171	H	0.533097	0.450358	-0.249165
H172	H	0.519303	0.422063	-0.324609
N173	N	0.482389	0.605202	-0.151419
H174	H	0.458881	0.560148	-0.174941
H175	H	0.445068	0.701720	-0.117344
N176	N	0.934747	0.405432	0.077205
H177	H	0.958245	0.308914	0.043168
H178	H	0.958217	0.422266	0.114569
N179	N	-0.191197	1.250075	0.077164
H180	H	-0.228564	1.232211	0.071534
H181	H	-0.196812	1.301502	0.129070
H182	H	0.936645	0.418069	-0.437518
H183	H	0.961333	0.592497	-0.067319
N184	N	-0.065203	1.250060	0.077167
H185	H	-0.091983	1.301550	0.057702
H186	H	-0.091958	1.301429	0.129082
N187	N	0.808830	0.605196	-0.329368
H188	H	0.813731	0.560135	-0.381283
H189	H	0.782066	0.588449	-0.305844
H190	H	0.728978	1.005282	0.629809
N191	N	0.524613	1.005329	0.378230
H192	H	0.491359	1.005326	0.349832
H193	H	0.547567	0.925251	0.378142
H194	H	0.440876	1.418049	-0.067352
H195	H	0.538495	1.005298	0.260239
H196	H	0.492194	0.418047	-0.141607
N197	N	0.458659	1.405364	0.329380
H198	H	0.485480	1.422077	0.305888
H199	H	0.453703	1.450441	0.381306
N200	N	0.742836	1.005328	0.378224
H201	H	0.776085	1.005342	0.349830
H202	H	0.719863	1.085422	0.428612
H203	H	0.208586	1.679742	-0.000023
H204	H	0.566405	0.592485	-0.192885
N205	N	0.304382	1.405334	0.175039
H206	H	0.252470	1.450390	0.179922
H207	H	0.327920	1.422058	0.148270
N208	N	0.808787	0.605247	0.077176
H209	H	0.813673	0.560209	0.100696
H210	H	0.782020	0.701768	0.114487
N211	N	0.178382	1.605197	0.301001
H212	H	0.183281	1.560123	0.249086
H213	H	0.151609	1.588474	0.324536
H214	H	0.633761	1.679709	0.425160
H215	H	0.208526	1.679756	0.425144
H216	H	0.633767	0.330877	-0.425186
N217	N	0.556563	1.405408	0.329391
H218	H	0.562184	1.337206	0.280769
H219	H	0.576048	1.365594	0.356200
N220	N	0.559520	0.705150	-0.074234
H221	H	0.588661	0.728310	-0.045079
H222	H	0.580636	0.671611	-0.124522
H223	H	1.058901	0.330892	0.000071
N224	N	0.710891	1.405346	0.175054
H225	H	0.734409	1.450385	0.179940
H226	H	0.748205	1.308826	0.148291
H227	H	1.071288	0.418077	-0.067285
H228	H	0.330845	1.592558	0.437534
N229	N	0.710912	1.605164	0.301021
H230	H	0.734416	1.560115	0.249106
H231	H	0.676835	1.701684	0.324552
H232	H	0.566406	1.592523	0.437543
H233	H	0.559525	0.330833	-0.074256
N234	N	0.710912	0.605239	-0.329341
H235	H	0.734422	0.560199	-0.381252
H236	H	0.676829	0.701759	-0.305807
H237	H	0.440862	0.791641	-0.067324
H238	H	0.196207	1.218929	0.067337
N239	N	0.332682	0.760535	-0.077121
H240	H	0.309186	0.755274	-0.114473
H241	H	0.384605	0.686000	-0.100588
N242	N	0.089104	0.760530	-0.077124
H243	H	0.084221	0.685933	-0.100638
H244	H	0.115871	0.755401	-0.114439
