data_functionalizedCrystal
_audit_creation_method	'MofGen! by Chris Wilmer'
_symmetry_space_group_name_H-M	'P1'
_symmetry_Int_Tables_number	1
_symmetry_cell_setting	triclinic
loop_
_symmetry_equiv_pos_as_xyz
  x,y,z
_cell_length_a	12.759401
_cell_length_b	12.827892
_cell_length_c	12.759393
_cell_angle_alpha	89.970218
_cell_angle_beta	89.980404
_cell_angle_gamma	90.015669
loop_
_atom_site_label
_atom_site_type_symbol
_atom_site_fract_x
_atom_site_fract_y
_atom_site_fract_z
Zn1	Zn	1.606261	-0.415975	-0.593988
Zn2	Zn	2.106261	0.084025	-0.093988
Zn3	Zn	1.606150	-0.590752	-0.418310
Zn4	Zn	2.106150	-0.090752	0.081690
Zn5	Zn	1.430560	-0.416027	-0.418327
Zn6	Zn	1.930560	0.083973	0.081673
Zn7	Zn	1.430550	-0.590675	-0.593951
Zn8	Zn	1.930550	-0.090675	-0.093951
O9	O	1.518380	-0.503357	-0.506144
O10	O	2.018380	-0.003357	-0.006144
O11	O	1.753268	-0.439170	-0.570692
O12	O	2.253268	0.060830	-0.070692
O13	O	1.582816	-0.567628	-0.271291
O14	O	2.082816	-0.067628	0.228709
O15	O	1.453918	-0.269784	-0.441651
O16	O	1.953918	0.230216	0.058349
O17	O	1.753186	-0.567578	-0.441622
O18	O	2.253186	-0.067578	0.058378
O19	O	1.583005	-0.269746	-0.570708
O20	O	2.083005	0.230254	-0.070708
O21	O	1.453810	-0.439258	-0.271304
O22	O	1.953810	0.060742	0.228696
O23	O	1.283538	-0.439184	-0.441616
O24	O	1.783538	0.060816	0.058384
O25	O	1.453900	-0.567447	-0.740977
O26	O	1.953900	-0.067447	-0.240977
O27	O	1.283530	-0.567497	-0.570646
O28	O	1.783530	-0.067497	-0.070646
O29	O	1.582995	-0.439095	-0.741004
O30	O	2.082995	0.060905	-0.241004
O31	O	1.582806	-0.736978	-0.441587
O32	O	2.082806	-0.236978	0.058413
O33	O	1.453793	-0.736922	-0.570630
O34	O	1.953793	-0.236922	-0.070630
C35	C	1.245413	-0.503338	-0.506130
C36	C	1.745413	-0.003338	-0.006130
C37	C	1.128636	-0.503356	-0.506148
C38	C	1.628636	-0.003356	-0.006148
C39	C	0.964067	-0.570286	-0.573236
C40	C	1.464067	-0.070286	-0.073236
C41	C	1.073791	-0.570274	-0.573225
C42	C	1.573791	-0.070274	-0.073225
C43	C	1.073752	-0.436452	-0.439071
C44	C	1.573752	0.063548	0.060929
C45	C	0.964030	-0.436469	-0.439077
C46	C	1.464030	0.063531	0.060923
C47	C	1.518315	-0.774867	-0.506125
C48	C	2.018315	-0.274867	-0.006125
C49	C	1.518383	-0.891020	-0.506153
C50	C	2.018383	-0.391020	-0.006153
C51	C	1.582298	-0.942798	-0.442369
C52	C	2.082298	-0.442798	0.057631
C53	C	1.582370	-1.062849	-0.442396
C54	C	2.082370	-0.562849	0.057604
C55	C	1.792414	-0.503377	-0.506159
C56	C	2.292414	-0.003377	-0.006159
C57	C	1.909190	-0.503385	-0.506166
C58	C	2.409190	-0.003385	-0.006166
C59	C	1.518459	-0.503257	-0.780177
C60	C	2.018459	-0.003257	-0.280177
C61	C	1.518492	-0.503214	-0.896954
C62	C	2.018492	-0.003214	-0.396954
C63	C	1.518475	-0.230787	-0.506186
C64	C	2.018475	0.269213	-0.006186
C65	C	1.518515	-0.114634	-0.506203
C66	C	2.018515	0.385366	-0.006203
C67	C	1.585717	-0.436371	-0.951832
C68	C	2.085717	0.063629	-0.451832
C69	C	1.585735	-0.436326	-1.061556
C70	C	2.085735	0.063674	-0.561556
C71	C	1.451301	-0.569976	-1.061515
C72	C	1.951301	-0.069976	-0.561515
C73	C	1.451278	-0.570015	-0.951793
C74	C	1.951278	-0.070015	-0.451793
C75	C	1.518362	-0.503382	-0.233177
C76	C	2.018362	-0.003382	0.266823
C77	C	1.518533	-0.503130	-0.116400
C78	C	2.018533	-0.003130	0.383600
H79	H	1.118467	-0.624753	-0.627839
H80	H	1.618467	-0.124753	-0.127839
H81	H	1.118416	-0.381970	-0.384451
H82	H	1.618416	0.118030	0.115549
H83	H	1.463720	-0.935568	-0.560784
H84	H	1.963720	-0.435568	-0.060784
H85	H	1.640444	-0.381974	-0.907185
H86	H	2.140444	0.118026	-0.407185
H87	H	0.919348	-0.381989	-0.384455
H88	H	1.419348	0.118011	0.115545
H89	H	1.396529	-0.624447	-0.907111
H90	H	1.896529	-0.124447	-0.407111
H91	H	1.396580	-0.624366	-1.106178
H92	H	1.896580	-0.124366	-0.606178
H93	H	1.640474	-0.381893	-1.106232
H94	H	2.140474	0.118107	-0.606232
H95	H	1.636970	-0.898253	-0.387745
H96	H	2.136970	-0.398253	0.112255
H97	H	1.637087	-1.107376	-0.387785
H98	H	2.137087	-0.607376	0.112215
H99	H	1.463788	-1.070114	-0.560810
H100	H	1.963788	-0.570114	-0.060810
H101	H	0.919420	-0.624774	-0.627863
H102	H	1.419420	-0.124774	-0.127863
