data_functionalizedCrystal
_audit_creation_method	'MofGen! by Chris Wilmer'
_symmetry_space_group_name_H-M	'P1'
_symmetry_Int_Tables_number	1
_symmetry_cell_setting	triclinic
loop_
_symmetry_equiv_pos_as_xyz
  x,y,z
_cell_length_a	19.288862
_cell_length_b	13.930277
_cell_length_c	19.288865
_cell_angle_alpha	90.009791
_cell_angle_beta	96.864237
_cell_angle_gamma	89.976134
loop_
_atom_site_label
_atom_site_type_symbol
_atom_site_fract_x
_atom_site_fract_y
_atom_site_fract_z
O1	O	-0.921352	0.080212	0.086639
O2	O	-0.719091	0.080134	0.098330
O3	O	-0.826066	0.080156	-0.008646
O4	O	-0.814377	0.080190	0.193615
O5	O	-0.826051	-0.079505	-0.008648
O6	O	-0.719076	-0.079528	0.098328
O7	O	-0.921337	-0.079450	0.086637
Zn8	Zn	-0.820205	-0.104838	0.092482
Zn9	Zn	-0.820224	0.105523	0.092485
O10	O	-0.814363	-0.079472	0.193613
C11	C	-0.693207	0.000293	0.097953
C12	C	-0.616104	0.000263	0.096824
C13	C	-0.571407	0.000285	0.159593
C14	C	-0.498960	0.000291	0.158533
C15	C	-0.471213	0.000293	0.094701
C16	C	-0.515919	0.000265	0.031924
C17	C	-0.588364	0.000250	0.032986
C18	C	-0.362956	0.056246	0.044523
C19	C	-0.290511	0.056267	0.043464
C20	C	-0.247767	0.000335	0.091423
C21	C	-0.277474	-0.055605	0.140453
C22	C	-0.349920	-0.055620	0.141515
C23	C	-0.392659	0.000309	0.093542
C24	C	-0.124514	0.000363	0.153046
C25	C	-0.052066	0.000362	0.151983
C26	C	-0.069027	0.000346	0.025373
C27	C	-0.141473	0.000336	0.026438
C28	C	-0.169212	0.000349	0.090276
N29	N	-0.820196	-0.248405	0.092480
C30	C	-0.772854	-0.700684	0.139835
C31	C	-0.867613	-0.700633	0.045129
C32	C	-0.867605	-0.600138	0.045127
C33	C	-0.820221	-0.549910	0.092480
C34	C	-0.772846	-0.600179	0.139836
C35	C	-0.914985	-0.549862	-0.002223
C36	C	-0.914979	-0.449360	-0.002226
C37	C	-0.867591	-0.399131	0.045124
C38	C	-0.820213	-0.449405	0.092481
C39	C	-0.772829	-0.399178	0.139834
C40	C	-0.725447	-0.449451	0.187189
C41	C	-0.725458	-0.549949	0.187186
C42	C	-0.867580	-0.298632	0.045126
C43	C	-0.772821	-0.298673	0.139835
C44	C	0.052779	0.000377	0.087016
C45	C	-0.024324	0.000363	0.088151
C46	C	-0.825683	0.000322	-0.034523
C47	C	-0.824554	0.000314	-0.111627
N48	N	-0.820238	0.249089	0.092482
C49	C	-0.887322	0.000333	-0.156324
C50	C	-0.886261	0.000348	-0.228771
C51	C	-0.822429	0.000324	-0.256518
C52	C	-0.759652	0.000310	-0.211811
C53	C	-0.760715	0.000305	-0.139366
C54	C	-0.772244	-0.055622	-0.364806
C55	C	-0.771184	-0.055622	-0.437250
C56	C	-0.819149	0.000344	-0.479963
C57	C	-0.868186	0.056299	-0.450225
C58	C	-0.869248	0.056294	-0.377779
C59	C	-0.821270	0.000330	-0.335072
C60	C	-0.880771	0.000381	-0.603216
C61	C	-0.879708	0.000402	-0.675664
C62	C	-0.753098	0.000354	-0.658703
C63	C	-0.754163	0.000343	-0.586257
C64	C	-0.818001	0.000352	-0.558518
C65	C	-0.814746	0.000364	0.219490
C66	C	-0.815875	0.000379	0.296594
H67	H	-0.493322	0.000280	-0.020048
C68	C	-0.637535	0.000232	-0.036060
H69	H	-0.684654	0.000220	-0.026285
H70	H	-0.629168	0.055906	-0.062245
H71	H	-0.629127	-0.055456	-0.062243
C72	C	-0.673329	-0.394198	0.239278
H73	H	-0.645114	-0.438527	0.267483
H74	H	-0.644498	-0.355013	0.214365
H75	H	-0.698228	-0.354976	0.268130
C76	C	-0.717248	-0.117170	-0.469956
H77	H	-0.688825	-0.150488	-0.434143
H78	H	-0.740839	-0.162142	-0.501439
H79	H	-0.688792	-0.076841	-0.494455
C80	C	-0.682881	0.000331	-0.689212
H81	H	-0.645650	0.000322	-0.652213
H82	H	-0.679828	-0.055342	-0.717132
H83	H	-0.679843	0.056020	-0.717109
H84	H	-0.906195	-0.741532	0.006579
C85	C	-0.689437	0.000287	-0.242326
H86	H	-0.652205	0.000283	-0.205327
H87	H	-0.686382	-0.055388	-0.270244
H88	H	-0.686401	0.055974	-0.270226
H89	H	-0.686882	-0.590888	0.225741
H90	H	-0.734274	-0.741618	0.178389
C91	C	-0.720699	-0.243430	0.191926
H92	H	-0.692487	-0.287766	0.220129
H93	H	-0.691864	-0.204247	0.167016
H94	H	-0.745594	-0.204206	0.220782
C95	C	-0.967103	-0.605111	-0.054305
H96	H	-0.960315	-0.672164	-0.047528
H97	H	-1.013432	-0.588611	-0.046879
H98	H	-0.959704	-0.588657	-0.100647
H99	H	-0.930823	0.000423	-0.712056
H100	H	-0.266329	0.101821	0.003544
H101	H	-0.907243	0.101873	-0.485001
C102	C	-0.967090	-0.394069	-0.054319
H103	H	-0.995307	-0.438377	-0.082523
H104	H	-0.995919	-0.354830	-0.029411
H105	H	-0.942185	-0.354897	-0.083172
C106	C	-0.919693	-0.243336	-0.006956
H107	H	-0.947913	-0.287643	-0.035159
H108	H	-0.948519	-0.204100	0.017957
H109	H	-0.894793	-0.204161	-0.035812
H110	H	-0.703050	0.000322	-0.549863
H111	H	-0.939304	0.000344	-0.133744
C112	C	-0.923179	0.117841	-0.345065
H113	H	-0.916943	0.109814	-0.295803
H114	H	-0.916909	0.183479	-0.356108
H115	H	-0.968961	0.098185	-0.363095
H116	H	-0.593988	0.000298	0.211575
C117	C	-0.719482	-0.117189	-0.317824
H118	H	-0.727133	-0.109173	-0.270419
H119	H	-0.725408	-0.182824	-0.330526
H120	H	-0.673351	-0.097536	-0.323537
C121	C	-0.449785	0.000330	0.227580
H122	H	-0.476682	0.000344	0.265751
H123	H	-0.421143	-0.055335	0.229805
H124	H	-0.421202	0.056027	0.229786
C125	C	-0.955308	0.000362	-0.277946
H126	H	-0.993479	0.000361	-0.251050
H127	H	-0.957535	0.056040	-0.306555
H128	H	-0.957511	-0.055323	-0.306564
C129	C	-0.950989	0.000402	-0.572700
H130	H	-0.988221	0.000430	-0.609699
H131	H	-0.954031	-0.055279	-0.544802
H132	H	-0.954039	0.056084	-0.544782
C133	C	-0.691667	0.000274	-0.090197
H134	H	-0.653497	0.000258	-0.117095
H135	H	-0.689455	0.055945	-0.061571
H136	H	-0.689447	-0.055417	-0.061597
H137	H	-0.374105	-0.101172	0.181435
H138	H	-0.242673	-0.101151	0.179505
H139	H	-0.147101	0.000359	0.205027
H140	H	-0.015674	0.000375	0.203099
H141	H	-0.046435	0.000407	-0.026600
C142	C	-0.190641	0.000326	-0.042608
H143	H	-0.163742	0.000336	-0.080777
H144	H	-0.219234	-0.055355	-0.044829
H145	H	-0.219274	0.056007	-0.044822
H146	H	-0.397753	0.101798	0.005468
