data_functionalizedCrystal
_audit_creation_method	'MofGen! by Chris Wilmer'
_symmetry_space_group_name_H-M	'P1'
_symmetry_Int_Tables_number	1
_symmetry_cell_setting	triclinic
loop_
_symmetry_equiv_pos_as_xyz
  x,y,z
_cell_length_a	21.295417
_cell_length_b	19.077300
_cell_length_c	19.077271
_cell_angle_alpha	85.516085
_cell_angle_beta	87.667972
_cell_angle_gamma	92.264088
loop_
_atom_site_label
_atom_site_type_symbol
_atom_site_fract_x
_atom_site_fract_y
_atom_site_fract_z
Zn1	Zn	-0.275948	-1.061621	-0.355285
Zn2	Zn	0.057385	-0.728287	-0.021952
Zn3	Zn	0.390718	-0.394954	0.311381
Zn4	Zn	-0.385622	-1.066262	-0.237393
Zn5	Zn	-0.052289	-0.732928	0.095940
Zn6	Zn	0.281045	-0.399595	0.429274
Zn7	Zn	-0.275973	-0.948477	-0.242147
Zn8	Zn	0.057360	-0.615144	0.091186
Zn9	Zn	0.390694	-0.281811	0.424519
Zn10	Zn	-0.376783	-0.943695	-0.359975
Zn11	Zn	-0.043450	-0.610362	-0.026642
Zn12	Zn	0.289884	-0.277029	0.306691
O13	O	-0.328582	-1.005014	-0.298700
O14	O	0.004752	-0.671680	0.034633
O15	O	0.338085	-0.338347	0.367966
O16	O	-0.294186	-1.160882	-0.335694
O17	O	0.039148	-0.827548	-0.002361
O18	O	0.372481	-0.494215	0.330972
O19	O	-0.374786	-1.054581	-0.139374
O20	O	-0.041453	-0.721248	0.193959
O21	O	0.291880	-0.387914	0.527293
O22	O	-0.187881	-0.963545	-0.257182
O23	O	0.145452	-0.630212	0.076151
O24	O	0.478785	-0.296878	0.409484
O25	O	-0.374762	-1.164291	-0.249079
O26	O	-0.041429	-0.830958	0.084254
O27	O	0.291904	-0.497625	0.417587
O28	O	-0.187863	-1.046671	-0.340304
O29	O	0.145470	-0.713337	-0.006971
O30	O	0.478803	-0.380004	0.326362
O31	O	-0.294227	-0.968045	-0.142867
O32	O	0.039106	-0.634712	0.190466
O33	O	0.372439	-0.301379	0.523800
O34	O	-0.285657	-0.849198	-0.261730
O35	O	0.047677	-0.515864	0.071603
O36	O	0.381010	-0.182531	0.404937
O37	O	-0.359698	-0.955395	-0.458003
O38	O	-0.026364	-0.622062	-0.124670
O39	O	0.306969	-0.288728	0.208664
O40	O	-0.359722	-0.845684	-0.348298
O41	O	-0.026388	-0.512351	-0.014964
O42	O	0.306945	-0.179018	0.318369
O43	O	-0.285615	-1.042034	-0.454557
O44	O	0.047718	-0.708701	-0.121224
O45	O	0.381052	-0.375367	0.212109
O46	O	-0.472538	-1.049944	-0.253627
O47	O	-0.139204	-0.716611	0.079706
O48	O	0.194129	-0.383278	0.413040
O49	O	-0.466044	-0.959895	-0.343688
O50	O	-0.132711	-0.626562	-0.010354
O51	O	0.200623	-0.293229	0.322979
C52	C	-0.321733	-0.821863	-0.306039
C53	C	0.011600	-0.488530	0.027294
C54	C	0.344934	-0.155197	0.360628
C55	C	-0.318818	-0.743510	-0.309195
C56	C	0.014515	-0.410177	0.024138
C57	C	0.347849	-0.076844	0.357471
C58	C	-0.297860	-0.302273	-0.331844
C59	C	0.035474	0.031060	0.001489
C60	C	0.368807	0.364393	0.334823
C61	C	-0.300611	-0.375895	-0.328874
C62	C	0.032723	-0.042561	0.004459
C63	C	0.366056	0.290772	0.337792
C64	C	-0.343875	-0.414474	-0.282221
C65	C	-0.010541	-0.081141	0.051113
C66	C	0.322792	0.252192	0.384446
C67	C	-0.384395	-0.379429	-0.238539
C68	C	-0.051061	-0.046096	0.094795
C69	C	0.282272	0.287238	0.428128
C70	C	-0.381646	-0.305809	-0.241512
C71	C	-0.048313	0.027524	0.091821
C72	C	0.285020	0.360858	0.425154
C73	C	-0.356589	-0.634845	-0.268487
C74	C	-0.023256	-0.301512	0.064846
C75	C	0.310077	0.031822	0.398180
C76	C	-0.359333	-0.708470	-0.265515
C77	C	-0.026000	-0.375137	0.067818
C78	C	0.307333	-0.041803	0.401151
C79	C	-0.275550	-0.704930	-0.355852
C80	C	0.057783	-0.371597	-0.022519
C81	C	0.391117	-0.038264	0.310815
C82	C	-0.272803	-0.631309	-0.358819
C83	C	0.060531	-0.297976	-0.025485
C84	C	0.393864	0.035358	0.307848
C85	C	-0.313325	-0.596270	-0.315139
C86	C	0.020008	-0.262937	0.018194
C87	C	0.353342	0.070397	0.351527
N88	N	-0.346686	-0.489727	-0.279183
N89	N	-0.013353	-0.156394	0.054151
N90	N	0.319980	0.176939	0.387484
N91	N	-0.310516	-0.521018	-0.318182
N92	N	0.022818	-0.187685	0.015152
N93	N	0.356151	0.145648	0.348485
C94	C	-0.492131	-1.004923	-0.298665
C95	C	-0.158798	-0.671590	0.034668
C96	C	0.174535	-0.338256	0.368002
C97	C	-0.562100	-1.004948	-0.298671
C98	C	-0.228767	-0.671614	0.034663
C99	C	0.104567	-0.338281	0.367996
C100	C	-0.598327	-1.051874	-0.251821
C101	C	-0.264994	-0.718541	0.081513
C102	C	0.068340	-0.385208	0.414846
C103	C	-0.664070	-1.051907	-0.251835
C104	C	-0.330737	-0.718573	0.081498
C105	C	0.002597	-0.385240	0.414831
C106	C	-0.693584	-1.005000	-0.298693
C107	C	-0.360250	-0.671667	0.034640
C108	C	-0.026917	-0.338334	0.367974
C109	C	-0.657348	-0.958070	-0.345552
C110	C	-0.324015	-0.624737	-0.012219
C111	C	0.009318	-0.291403	0.321115
C112	C	-0.591607	-0.958044	-0.345541
C113	C	-0.258273	-0.624710	-0.012207
C114	C	0.075060	-0.291377	0.321126
N115	N	-0.794347	-0.943118	-0.306538
N116	N	-0.461013	-0.609784	0.026795
N117	N	-0.127680	-0.276451	0.360128
N118	N	-0.856799	-0.943145	-0.306545
N119	N	-0.523466	-0.609812	0.026789
N120	N	-0.190132	-0.276478	0.360122
C121	C	-0.891660	-1.005078	-0.298730
C122	C	-0.558326	-0.671744	0.034603
C123	C	-0.224993	-0.338411	0.367936
N124	N	-0.861710	-1.066984	-0.290896
N125	N	-0.528376	-0.733651	0.042438
N126	N	-0.195043	-0.400317	0.375771
N127	N	-0.799252	-1.066956	-0.290886
N128	N	-0.465919	-0.733623	0.042448
N129	N	-0.132585	-0.400289	0.375781
C130	C	-0.764869	-1.005024	-0.298711
C131	C	-0.431536	-0.671690	0.034623
C132	C	-0.098202	-0.338357	0.367956
C133	C	-0.999173	-1.052043	-0.251893
C134	C	-0.665840	-0.718710	0.081440
C135	C	-0.332506	-0.385377	0.414773
C136	C	-1.064917	-1.052077	-0.251913
C137	C	-0.731584	-0.718743	0.081420
C138	C	-0.398251	-0.385410	0.414754
C139	C	-1.058194	-0.958234	-0.345626
C140	C	-0.724861	-0.624900	-0.012293
C141	C	-0.391528	-0.291567	0.321041
C142	C	-0.992451	-0.958206	-0.345610
C143	C	-0.659118	-0.624873	-0.012277
C144	C	-0.325785	-0.291540	0.321057
C145	C	-0.962945	-1.005110	-0.298740
C146	C	-0.629611	-0.671777	0.034593
C147	C	-0.296278	-0.338444	0.367927
C148	C	-0.164393	-1.005124	-0.298750
C149	C	0.168940	-0.671790	0.034583
C150	C	0.502273	-0.338457	0.367916
C151	C	-0.094426	-1.005170	-0.298772
C152	C	0.238907	-0.671837	0.034562
C153	C	0.572240	-0.338504	0.367895
C154	C	-0.321668	-0.997663	-0.482574
C155	C	0.011666	-0.664330	-0.149241
C156	C	0.344999	-0.330997	0.184092
C157	C	-0.318721	-0.994531	-0.560930
C158	C	0.014612	-0.661198	-0.227597
C159	C	0.347945	-0.327864	0.105736
C160	C	-0.335454	-0.188880	-0.291326
C161	C	-0.002121	0.144454	0.042008
C162	C	0.331212	0.477787	0.375341
C163	C	-0.338375	-0.267233	-0.288164
C164	C	-0.005042	0.066100	0.045169
C165	C	0.328291	0.399434	0.378503
C166	C	-0.297640	-0.972065	-1.002188
C167	C	0.035694	-0.638731	-0.668854
C168	C	0.369027	-0.305398	-0.335521
C169	C	-0.300406	-0.975011	-0.928564
C170	C	0.032928	-0.641678	-0.595230
C171	C	0.366261	-0.308345	-0.261897
C172	C	-0.343735	-1.021535	-0.889932
C173	C	-0.010401	-0.688202	-0.556599
C174	C	0.322932	-0.354869	-0.223266
C175	C	-0.384295	-1.065121	-0.924929
C176	C	-0.050962	-0.731787	-0.591595
C177	C	0.282371	-0.398454	-0.258262
C178	C	-0.381526	-1.062177	-0.998551
C179	C	-0.048193	-0.728844	-0.665218
C180	C	0.285141	-0.395510	-0.331885
C181	C	-0.356513	-1.035173	-0.669549
C182	C	-0.023179	-0.701839	-0.336216
C183	C	0.310154	-0.368506	-0.002882
C184	C	-0.359281	-1.038111	-0.595922
C185	C	-0.025947	-0.704778	-0.262588
C186	C	0.307386	-0.371445	0.070745
C187	C	-0.275390	-0.948003	-0.599562
C188	C	0.057944	-0.614669	-0.266228
C189	C	0.391277	-0.281336	0.067105
C190	C	-0.272626	-0.945060	-0.673186
C191	C	0.060707	-0.611727	-0.339852
C192	C	0.394040	-0.278394	-0.006519
C193	C	-0.313185	-0.988648	-0.708175
C194	C	0.020148	-0.655315	-0.374842
C195	C	0.353482	-0.321982	-0.041509
N196	N	-0.346564	-1.024547	-0.814677
N197	N	-0.013231	-0.691213	-0.481344
N198	N	0.320102	-0.357880	-0.148010
N199	N	-0.310352	-0.985640	-0.783429
N200	N	0.022982	-0.652307	-0.450096
N201	N	0.356315	-0.318973	-0.116763
C202	C	-0.335425	-1.012376	-0.115540
C203	C	-0.002091	-0.679043	0.217793
C204	C	0.331242	-0.345710	0.551127
C205	C	-0.338199	-1.015645	-0.037179
C206	C	-0.004865	-0.682312	0.296154
C207	C	0.328468	-0.348979	0.629488
H208	H	-0.414640	-0.277280	-0.205945
H209	H	-0.081306	0.056053	0.127388
H210	H	0.252027	0.389386	0.460722
H211	H	-0.681382	-0.919880	-0.383705
H212	H	-0.348049	-0.586546	-0.050372
H213	H	-0.014716	-0.253213	0.282962
C214	C	-1.104770	-1.103689	-0.200368
C215	C	-0.771437	-0.770356	0.132965
C216	C	-0.438103	-0.437023	0.466298
H217	H	-1.148150	-1.096992	-0.207089
H218	H	-0.814817	-0.763658	0.126244
H219	H	-0.481483	-0.430325	0.459577
H220	H	-1.095419	-1.095288	-0.153408
H221	H	-0.762086	-0.761955	0.179925
H222	H	-0.428752	-0.428622	0.513258
H223	H	-1.095335	-1.150633	-0.208816
H224	H	-0.762001	-0.817299	0.124517
H225	H	-0.428668	-0.483966	0.457851
H226	H	-0.237575	-0.599902	-0.396811
H227	H	0.095759	-0.266569	-0.063478
H228	H	0.429092	0.066765	0.269855
H229	H	-0.242368	-0.912517	-0.571065
H230	H	0.090965	-0.579184	-0.237732
H231	H	0.424298	-0.245850	0.095602
H232	H	-0.267621	-0.404421	-0.364446
H233	H	0.065713	-0.071087	-0.031112
H234	H	0.399046	0.262246	0.302221
H235	H	-0.394554	-1.076013	-0.564469
H236	H	-0.061220	-0.742680	-0.231136
H237	H	0.272113	-0.409346	0.102198
C238	C	-0.249983	-0.920884	-1.044679
C239	C	0.083351	-0.587551	-0.711346
C240	C	0.416684	-0.254218	-0.378012
H241	H	-0.254146	-0.925366	-1.093538
H242	H	0.079188	-0.592032	-0.760205
H243	H	0.412521	-0.258699	-0.426872
H244	H	-0.208527	-0.931710	-1.032214
H245	H	0.124806	-0.598377	-0.698881
H246	H	0.458140	-0.265043	-0.365548
H247	H	-0.257883	-0.873996	-1.034505
H248	H	0.075450	-0.540663	-0.701172
H249	H	0.408783	-0.207329	-0.367838
H250	H	-0.394567	-0.739880	-0.227523
H251	H	-0.061233	-0.406547	0.105810
H252	H	0.272100	-0.073213	0.439144
C253	C	-0.255788	-0.927076	-0.890076
C254	C	0.077545	-0.593742	-0.556743
C255	C	0.410879	-0.260409	-0.223409
H256	H	-0.229591	-0.898942	-0.923628
H257	H	0.103742	-0.565608	-0.590295
H258	H	0.437076	-0.232275	-0.256961
H259	H	-0.230450	-0.955211	-0.860287
H260	H	0.102883	-0.621878	-0.526953
H261	H	0.436217	-0.288545	-0.193620
H262	H	-0.279799	-0.897489	-0.862577
H263	H	0.053535	-0.564156	-0.529244
H264	H	0.386868	-0.230823	-0.195910
H265	H	-0.414553	-1.097666	-1.027040
H266	H	-0.081219	-0.764333	-0.693707
H267	H	0.252114	-0.431000	-0.360373
C268	C	-0.224961	-0.893889	-0.715675
C269	C	0.108372	-0.560555	-0.382341
C270	C	0.441706	-0.227222	-0.049008
H271	H	-0.201197	-0.868359	-0.684290
H272	H	0.132137	-0.535026	-0.350956
H273	H	0.465470	-0.201693	-0.017623
H274	H	-0.246808	-0.862008	-0.745620
H275	H	0.086525	-0.528675	-0.412287
H276	H	0.419858	-0.195342	-0.078954
H277	H	-0.197462	-0.919733	-0.743320
H278	H	0.135871	-0.586400	-0.409987
H279	H	0.469205	-0.253066	-0.076653
H280	H	-0.242560	-0.733467	-0.391414
H281	H	0.090774	-0.400134	-0.058080
H282	H	0.424107	-0.066800	0.275253
C283	C	-0.401136	-1.083105	-0.708029
C284	C	-0.067803	-0.749772	-0.374696
C285	C	0.265531	-0.416438	-0.041363
H286	H	-0.427343	-1.111225	-0.674476
H287	H	-0.094010	-0.777892	-0.341143
H288	H	0.239324	-0.444558	-0.007809
H289	H	-0.377135	-1.112694	-0.735529
H290	H	-0.043802	-0.779360	-0.402196
H291	H	0.289532	-0.446027	-0.068862
H292	H	-0.426474	-1.054961	-0.737818
H293	H	-0.093140	-0.721628	-0.404485
H294	H	0.240193	-0.388294	-0.071151
H295	H	-0.419572	-1.103004	-0.893469
H296	H	-0.086239	-0.769671	-0.560136
H297	H	0.247095	-0.436338	-0.226802
C298	C	-0.431983	-0.421865	-0.187220
C299	C	-0.098650	-0.088532	0.146114
C300	C	0.234684	0.244802	0.479447
H301	H	-0.427813	-0.470730	-0.191698
H302	H	-0.094480	-0.137396	0.141635
H303	H	0.238853	0.195937	0.474969
H304	H	-0.473458	-0.409372	-0.197932
H305	H	-0.140125	-0.076038	0.135401
H306	H	0.193209	0.257295	0.468735
H307	H	-0.424026	-0.411680	-0.140360
H308	H	-0.090693	-0.078347	0.192974
H309	H	0.242640	0.254986	0.526307
C310	C	-0.250271	-0.259842	-0.383166
C311	C	0.083062	0.073492	-0.049833
C312	C	0.416395	0.406825	0.283500
H313	H	-0.226541	-0.291257	-0.408760
H314	H	0.106793	0.042076	-0.075427
H315	H	0.440126	0.375410	0.257907
H316	H	-0.222743	-0.232203	-0.357423
H317	H	0.110591	0.101130	-0.024089
H318	H	0.443924	0.434464	0.309244
H319	H	-0.272177	-0.229895	-0.414993
H320	H	0.061157	0.103438	-0.081659
H321	H	0.394490	0.436772	0.251674
H322	H	-0.389584	-0.606325	-0.232918
H323	H	-0.056250	-0.272992	0.100415
H324	H	0.277083	0.060341	0.433748
H325	H	-0.574305	-1.090068	-0.213658
H326	H	-0.240971	-0.756735	0.119675
H327	H	0.092362	-0.423401	0.453008
H328	H	-0.693572	-1.090123	-0.213685
H329	H	-0.360238	-0.756789	0.119649
H330	H	-0.026905	-0.423456	0.452982
H331	H	-0.562110	-0.919830	-0.383693
H332	H	-0.228776	-0.586496	-0.050359
H333	H	0.104557	-0.253163	0.282974
H334	H	-1.082223	-0.920044	-0.383781
H335	H	-0.748890	-0.586711	-0.050448
H336	H	-0.415557	-0.253378	0.282885
C337	C	-0.966713	-1.103641	-0.200347
C338	C	-0.633380	-0.770308	0.132986
C339	C	-0.300046	-0.436975	0.466320
H340	H	-0.997707	-1.131603	-0.172453
H341	H	-0.664374	-0.798269	0.160880
H342	H	-0.331040	-0.464936	0.494213
H343	H	-0.941253	-1.077921	-0.170682
H344	H	-0.607919	-0.744588	0.162651
H345	H	-0.274586	-0.411255	0.495984
H346	H	-0.941162	-1.133245	-0.226110
H347	H	-0.607828	-0.799911	0.107223
H348	H	-0.274495	-0.466578	0.440556
C349	C	-0.952600	-0.906578	-0.397137
C350	C	-0.619267	-0.573245	-0.063804
C351	C	-0.285933	-0.239911	0.269530
H352	H	-0.979591	-0.878641	-0.425042
H353	H	-0.646258	-0.545308	-0.091709
H354	H	-0.312924	-0.211975	0.241624
H355	H	-0.926767	-0.932276	-0.426792
H356	H	-0.593434	-0.598942	-0.093458
H357	H	-0.260100	-0.265609	0.239875
H358	H	-0.926862	-0.876953	-0.371363
H359	H	-0.593529	-0.543619	-0.038030
H360	H	-0.260195	-0.210286	0.295304
