data_functionalizedCrystal
_audit_creation_method	'MofGen! by Chris Wilmer'
_symmetry_space_group_name_H-M	'P1'
_symmetry_Int_Tables_number	1
_symmetry_cell_setting	triclinic
loop_
_symmetry_equiv_pos_as_xyz
  x,y,z
_cell_length_a	18.215407
_cell_length_b	19.120786
_cell_length_c	18.215385
_cell_angle_alpha	87.466553
_cell_angle_beta	89.937984
_cell_angle_gamma	92.462700
loop_
_atom_site_label
_atom_site_type_symbol
_atom_site_fract_x
_atom_site_fract_y
_atom_site_fract_z
Zn1	Zn	1.112905	-0.279246	-0.403565
Zn2	Zn	1.612905	0.220754	0.096435
Zn3	Zn	1.107454	-0.396847	-0.275236
Zn4	Zn	1.607454	0.103153	0.224764
Zn5	Zn	0.989734	-0.279396	-0.280511
Zn6	Zn	1.489734	0.220604	0.219489
Zn7	Zn	0.984549	-0.396668	-0.398276
Zn8	Zn	1.484549	0.103332	0.101724
O9	O	1.048661	-0.338039	-0.339397
O10	O	1.548661	0.161961	0.160603
O11	O	1.215166	-0.294858	-0.386547
O12	O	1.715166	0.205142	0.113453
O13	O	1.091727	-0.381405	-0.172945
O14	O	1.591727	0.118595	0.327055
O15	O	1.010524	-0.181082	-0.301256
O16	O	1.510524	0.318918	0.198744
O17	O	1.211161	-0.381259	-0.292265
O18	O	1.711161	0.118741	0.207735
O19	O	1.101017	-0.180971	-0.391663
O20	O	1.601017	0.319029	0.108337
O21	O	1.005238	-0.295114	-0.176821
O22	O	1.505238	0.204886	0.323179
O23	O	0.886062	-0.294941	-0.296127
O24	O	1.386062	0.205059	0.203873
O25	O	1.001687	-0.380954	-0.501968
O26	O	1.501687	0.119046	-0.001968
O27	O	0.882253	-0.381100	-0.382648
O28	O	1.382253	0.118900	0.117352
O29	O	1.095990	-0.294684	-0.505854
O30	O	1.595990	0.205316	-0.005854
O31	O	1.086700	-0.495118	-0.287136
O32	O	1.586700	0.004882	0.212864
O33	O	0.996402	-0.494987	-0.377533
O34	O	1.496402	0.005013	0.122467
C35	C	0.857455	-0.338018	-0.339387
C36	C	1.357455	0.161982	0.160613
C37	C	0.775656	-0.338025	-0.339399
C38	C	1.275656	0.161975	0.160601
C39	C	0.508630	-0.382976	-0.384381
C40	C	1.008630	0.117024	0.115619
C41	C	0.585489	-0.382970	-0.384377
C42	C	1.085489	0.117030	0.115623
C43	C	0.589431	-0.293118	-0.294426
C44	C	1.089431	0.206882	0.205574
C45	C	0.512574	-0.293128	-0.294426
C46	C	1.012574	0.206872	0.205574
C47	C	0.472175	-0.338056	-0.339407
C48	C	0.972175	0.161944	0.160593
C49	C	0.625892	-0.338040	-0.339404
C50	C	1.125892	0.161960	0.160596
C51	C	0.709226	-0.338033	-0.339400
C52	C	1.209226	0.161967	0.160600
C53	C	0.388836	-0.338064	-0.339410
C54	C	0.888836	0.161936	0.160590
C55	C	1.040417	-0.520539	-0.331204
C56	C	1.540417	-0.020539	0.168796
C57	C	1.036958	-0.598613	-0.327724
C58	C	1.536958	-0.098613	0.172276
C59	C	1.082413	-0.635175	-0.373197
C60	C	1.582413	-0.135175	0.126803
C61	C	1.079159	-0.708534	-0.369929
C62	C	1.579159	-0.208534	0.130071
C63	C	1.030454	-0.745330	-0.321183
C64	C	1.530454	-0.245330	0.178817
C65	C	0.984994	-0.708763	-0.275708
C66	C	1.484994	-0.208763	0.224292
C67	C	0.988245	-0.635406	-0.278980
C68	C	1.488245	-0.135406	0.221020
C69	C	1.018282	-0.966828	-0.308947
C70	C	1.518282	-0.466828	0.191053
C71	C	1.015037	-1.040191	-0.305676
C72	C	1.515037	-0.540191	0.194324
C73	C	1.109201	-1.039956	-0.399899
C74	C	1.609201	-0.539956	0.100101
C75	C	1.112450	-0.966597	-0.403164
C76	C	1.612450	-0.466597	0.096836
C77	C	1.066988	-0.930037	-0.357692
C78	C	1.566988	-0.430037	0.142308
C79	C	1.027129	-0.820315	-0.317839
C80	C	1.527129	-0.320315	0.182161
C81	C	1.070309	-0.855054	-0.361040
C82	C	1.570309	-0.355054	0.138960
C83	C	1.240613	-0.338061	-0.339408
C84	C	1.740613	0.161939	0.160592
C85	C	1.322411	-0.338071	-0.339412
C86	C	1.822411	0.161929	0.160588
C87	C	1.048868	-0.337782	-0.531362
C88	C	1.548868	0.162218	-0.031362
C89	C	1.048957	-0.337673	-0.613166
C90	C	1.548957	0.162327	-0.113166
C91	C	1.056957	-0.154827	-0.347638
C92	C	1.556957	0.345173	0.152362
C93	C	1.060492	-0.076753	-0.351149
C94	C	1.560492	0.423247	0.148851
C95	C	1.048499	-0.338245	-0.148181
C96	C	1.548499	0.161755	0.351819
C97	C	1.048562	-0.338156	-0.066386
C98	C	1.548562	0.161844	0.433614
C99	C	1.003342	-0.293355	0.119760
C100	C	1.503342	0.206645	0.619760
C101	C	1.003410	-0.293272	0.196615
C102	C	1.503410	0.206728	0.696615
C103	C	1.094181	-0.382476	0.200682
C104	C	1.594181	0.117524	0.700682
C105	C	1.094116	-0.382555	0.123828
C106	C	1.594116	0.117445	0.623828
C107	C	1.048693	-0.337996	0.083370
C108	C	1.548693	0.162004	0.583370
C109	C	1.048825	-0.337833	0.237078
C110	C	1.548825	0.162167	0.737078
C111	C	1.048900	-0.337742	0.320407
C112	C	1.548900	0.162258	0.820407
C113	C	1.048620	-0.338086	0.000035
C114	C	1.548620	0.161914	0.500035
H115	H	0.622333	-0.256539	-0.257804
H116	H	1.122333	0.243461	0.242196
H117	H	0.615168	-0.419549	-0.420998
H118	H	1.115168	0.080451	0.079002
H119	H	1.131050	-0.418908	0.094199
H120	H	1.631050	0.081092	0.594199
H121	H	1.109962	-0.825092	-0.400732
H122	H	1.609962	-0.325092	0.099268
O123	O	0.477273	-0.249424	-0.250716
O124	O	0.977273	0.250576	0.249284
C125	C	0.529408	-0.209775	-0.211005
C126	C	1.029408	0.290225	0.288995
H127	H	0.584338	-0.207334	-0.241260
H128	H	1.084338	0.292666	0.258740
H129	H	0.509680	-0.154436	-0.205729
H130	H	1.009680	0.345564	0.294271
H131	H	0.536364	-0.235493	-0.153916
H132	H	1.036364	0.264507	0.346084
H133	H	0.966358	-0.257070	0.086821
H134	H	1.466358	0.242930	0.586821
H135	H	0.475740	-0.419559	-0.421007
H136	H	0.975740	0.080441	0.078993
O137	O	0.959286	-0.249887	0.231850
O138	O	1.459286	0.250113	0.731850
C139	C	0.919198	-0.210565	0.179656
C140	C	1.419198	0.289435	0.679656
H141	H	0.915518	-0.239412	0.126248
H142	H	1.415518	0.260588	0.626248
H143	H	0.861499	-0.203444	0.201633
H144	H	1.361499	0.296556	0.701633
H145	H	0.948158	-0.157044	0.168883
H146	H	1.448158	0.342956	0.668883
O147	O	1.138230	-0.425740	0.240098
O148	O	1.638230	0.074260	0.740098
C149	C	1.128576	-0.416088	0.315735
C150	C	1.628576	0.083912	0.815735
H151	H	1.072642	-0.393457	0.325261
H152	H	1.572642	0.106543	0.825261
H153	H	1.131608	-0.468638	0.347434
H154	H	1.631608	0.031362	0.847434
H155	H	1.173669	-0.378365	0.335670
H156	H	1.673669	0.121635	0.835670
O157	O	1.129644	-0.599464	-0.420655
O158	O	1.629644	-0.099464	0.079345
C159	C	1.112793	-0.617294	-0.493192
C160	C	1.612793	-0.117294	0.006808
H161	H	1.053107	-0.637500	-0.495950
H162	H	1.553107	-0.137500	0.004050
H163	H	1.121278	-0.568986	-0.531712
H164	H	1.621278	-0.068986	-0.031712
H165	H	1.150369	-0.659812	-0.510568
H166	H	1.650369	-0.159812	-0.010568
O167	O	1.123349	-0.744132	-0.413989
O168	O	1.623349	-0.244132	0.086011
C169	C	1.168995	-0.786585	-0.370227
C170	C	1.668995	-0.286585	0.129773
H171	H	1.142527	-0.797683	-0.313940
H172	H	1.642527	-0.297683	0.186060
H173	H	1.176580	-0.838116	-0.397908
H174	H	1.676580	-0.338116	0.102092
H175	H	1.224786	-0.758289	-0.363446
H176	H	1.724786	-0.258289	0.136554
H177	H	1.146213	-1.069731	-0.436920
H178	H	1.646213	-0.569731	0.063080
H179	H	1.152109	-0.936639	-0.442857
H180	H	1.652109	-0.436639	0.057143
H181	H	0.981266	-0.937067	-0.271920
H182	H	1.481266	-0.437067	0.228080
O183	O	0.967654	-1.075828	-0.258306
O184	O	1.467654	-0.575828	0.241694
C185	C	0.928236	-1.027830	-0.218860
C186	C	1.428236	-0.527830	0.281140
H187	H	0.928011	-0.975489	-0.251335
H188	H	1.428011	-0.475489	0.248665
H189	H	0.869310	-1.049088	-0.210017
H190	H	1.369310	-0.549088	0.289983
H191	H	0.955510	-1.020100	-0.163333
H192	H	1.455510	-0.520100	0.336667
O193	O	0.979720	-0.856030	-0.270563
O194	O	1.479720	-0.356030	0.229437
C195	C	0.907166	-0.838126	-0.287361
C196	C	1.407166	-0.338126	0.212639
H197	H	0.904354	-0.817858	-0.347051
H198	H	1.404354	-0.317858	0.152949
H199	H	0.868673	-0.886412	-0.278840
H200	H	1.368673	-0.386412	0.221160
H201	H	0.889802	-0.795633	-0.249777
H202	H	1.389802	-0.295633	0.250223
O203	O	0.937578	-0.744474	-0.228436
O204	O	1.437578	-0.244474	0.271564
C205	C	0.865027	-0.726568	-0.245242
C206	C	1.365027	-0.226568	0.254758
H207	H	0.862221	-0.706308	-0.304935
H208	H	1.362221	-0.206308	0.195065
H209	H	0.826530	-0.774851	-0.236716
H210	H	1.326530	-0.274851	0.263284
H211	H	0.847664	-0.684068	-0.207666
H212	H	1.347664	-0.184068	0.292334
O213	O	0.944014	-0.599855	-0.234914
O214	O	1.444014	-0.099855	0.265086
C215	C	0.898387	-0.557378	-0.278670
C216	C	1.398387	-0.057378	0.221330
H217	H	0.892880	-0.579394	-0.335645
H218	H	1.392880	-0.079394	0.164355
H219	H	0.841777	-0.556632	-0.252039
H220	H	1.341777	-0.056632	0.247961
H221	H	0.923606	-0.501760	-0.283708
H222	H	1.423606	-0.001760	0.216292
