data_functionalizedCrystal
_audit_creation_method	'MofGen! by Chris Wilmer'
_symmetry_space_group_name_H-M	'P1'
_symmetry_Int_Tables_number	1
_symmetry_cell_setting	triclinic
loop_
_symmetry_equiv_pos_as_xyz
  x,y,z
_cell_length_a	13.339070
_cell_length_b	11.804365
_cell_length_c	13.339070
_cell_angle_alpha	74.887832
_cell_angle_beta	115.629294
_cell_angle_gamma	105.124870
loop_
_atom_site_label
_atom_site_type_symbol
_atom_site_fract_x
_atom_site_fract_y
_atom_site_fract_z
O1	O	-1.512774	-0.099059	-0.534576
O2	O	-1.197964	-0.099053	-0.462317
O3	O	-1.319238	-0.099052	-0.341042
O4	O	-1.391499	-0.099060	-0.655850
O5	O	-1.287299	0.099004	-0.372924
O6	O	-1.166024	0.099002	-0.494199
O7	O	-1.480834	0.098997	-0.566458
Cu8	Cu	-1.320513	0.117083	-0.533239
Cu9	Cu	-1.358285	-0.117140	-0.495535
O10	O	-1.359560	0.098995	-0.687732
C11	C	-1.140878	-0.000025	-0.466052
C12	C	-1.018364	-0.000023	-0.429669
N13	N	-1.293954	0.281824	-0.559760
C14	C	-1.537920	-0.000034	-0.562722
C15	C	-1.660436	-0.000044	-0.599104
C16	C	-1.291062	-0.000026	-0.315868
C17	C	-1.254680	-0.000030	-0.193353
C18	C	-0.732981	-0.000049	-0.712563
C19	C	-0.848090	-0.000055	-0.746750
C20	C	-0.890664	-0.000046	-0.667483
C21	C	-0.818118	-0.000033	-0.554023
C22	C	-0.702998	-0.000037	-0.519831
C23	C	-0.860682	-0.000034	-0.474750
C24	C	-0.788135	-0.000021	-0.361290
C25	C	-0.673027	-0.000023	-0.327105
C26	C	-0.630453	-0.000032	-0.406372
C27	C	-0.975801	-0.000030	-0.508942
C28	C	-0.945819	-0.000018	-0.316210
C29	C	-0.830709	-0.000012	-0.282023
N30	N	-1.384850	-0.281880	-0.469008
C31	C	-1.448622	0.655774	-0.405301
C32	C	-1.468712	0.531113	-0.385233
C33	C	-1.425024	0.468784	-0.428863
C34	C	-1.361243	0.531130	-0.492564
C35	C	-1.341160	0.655803	-0.512642
C36	C	-1.317561	0.468814	-0.536204
C37	C	-1.253781	0.531159	-0.599906
C38	C	-1.233699	0.655820	-0.619979
C39	C	-1.277387	0.718149	-0.576349
C40	C	-1.337645	0.344140	-0.516126
C41	C	-1.230182	0.344169	-0.623468
C42	C	-1.210092	0.468830	-0.643536
C43	C	-1.387736	-0.000034	-0.712906
C44	C	-1.424120	-0.000037	-0.835420
C45	C	-1.537579	-0.000034	0.092035
C46	C	-1.571765	-0.000023	-0.023075
C47	C	-1.492497	-0.000025	-0.065650
C48	C	-1.379036	-0.000037	0.006896
C49	C	-1.344846	-0.000039	0.122016
C50	C	-1.299763	-0.000030	-0.035669
C51	C	-1.186303	-0.000042	0.036878
C52	C	-1.152118	-0.000044	0.151986
C53	C	-1.231386	-0.000042	0.194561
C54	C	-1.333954	-0.000029	-0.150789
C55	C	-1.141220	-0.000033	-0.120808
C56	C	-1.107035	-0.000044	-0.005698
H57	H	-1.034858	-0.000036	-0.601322
H58	H	-1.181777	0.706582	-0.671859
H59	H	-1.194609	0.293422	-0.658998
O60	O	-0.760370	-0.000168	-0.171753
C61	C	-0.716021	-0.102806	0.019946
C62	C	-0.795782	-0.102763	-0.104888
H63	H	-0.744609	-0.185758	0.074039
H64	H	-0.717908	-0.019975	0.047482
H65	H	-0.626438	-0.102752	0.030721
H66	H	-0.885402	-0.102859	-0.115757
H67	H	-0.793798	-0.185587	-0.132365
H68	H	-1.059730	-0.000044	0.211050
O69	O	-0.987005	0.000151	-0.239122
C70	C	-0.980110	0.102800	-0.101425
C71	C	-0.933340	0.102749	-0.188663
H72	H	-0.936759	0.185754	-0.060621
H73	H	-0.963417	0.019970	-0.033770
H74	H	-1.074853	0.102746	-0.145368
H75	H	-0.838591	0.102844	-0.144820
H76	H	-0.950121	0.185571	-0.256312
O77	O	-0.996843	-0.000260	0.064768
C78	C	-0.838189	-0.102839	0.142085
C79	C	-0.962991	-0.102754	0.062264
H80	H	-0.810774	-0.185684	0.140070
H81	H	-0.827324	-0.102918	0.231705
H82	H	-0.784050	-0.019916	0.113511
H83	H	-1.017208	-0.185663	0.090736
H84	H	-0.973767	-0.102613	-0.027338
H85	H	-0.698307	-0.000066	-0.777089
H86	H	-0.984393	-0.000054	-0.695324
H87	H	-0.907152	-0.000075	-0.839127
H88	H	-0.536722	-0.000027	-0.378543
H89	H	-0.613964	-0.000026	-0.234716
H90	H	-1.389575	0.293389	-0.464261
H91	H	-1.158161	0.519608	-0.695404
H92	H	-1.441383	0.367279	-0.412520
H93	H	-1.520642	0.480356	-0.333369
H94	H	-1.426334	-0.000019	-0.209846
O95	O	-1.490979	0.716194	-0.362736
C96	C	-1.495529	0.754421	-0.196029
C97	C	-1.447498	0.685896	-0.244090
H98	H	-1.460376	0.729970	-0.100096
H99	H	-1.591464	0.729877	-0.231032
H100	H	-1.470245	0.854223	-0.221385
H101	H	-1.472699	0.586078	-0.218752
H102	H	-1.351572	0.710539	-0.209091
H103	H	-1.076672	-0.000029	-0.155472
H104	H	-1.261027	0.819658	-0.592684
H105	H	-1.520338	-0.000017	-0.159379
H106	H	-1.664144	-0.000012	-0.082135
H107	H	-1.602105	-0.000023	0.126710
H108	H	-1.203558	-0.000055	0.288293
