data_functionalizedCrystal
_audit_creation_method	'MofGen! by Chris Wilmer'
_symmetry_space_group_name_H-M	'P1'
_symmetry_Int_Tables_number	1
_symmetry_cell_setting	triclinic
loop_
_symmetry_equiv_pos_as_xyz
  x,y,z
_cell_length_a	11.026607
_cell_length_b	15.538191
_cell_length_c	9.482900
_cell_angle_alpha	95.622696
_cell_angle_beta	78.636152
_cell_angle_gamma	77.929055
loop_
_atom_site_label
_atom_site_type_symbol
_atom_site_fract_x
_atom_site_fract_y
_atom_site_fract_z
O1	O	1.472126	0.356312	-0.120861
O2	O	1.137231	0.314516	-0.120867
O3	O	1.369870	0.209339	-0.120870
O4	O	1.239487	0.461490	-0.120859
O5	O	1.322567	0.230813	0.120923
O6	O	1.089928	0.335990	0.120926
O7	O	1.424823	0.377786	0.120932
Cu8	Cu	1.253057	0.358849	0.143006
Cu9	Cu	1.308998	0.333454	-0.142942
O10	O	1.192184	0.482963	0.120934
C11	C	1.071765	0.317542	0.000028
C12	C	0.947176	0.294556	0.000025
C13	C	0.845415	0.358024	0.000027
C14	C	0.716645	0.334268	0.000024
C15	C	1.359861	0.187293	0.000022
C16	C	1.400496	0.089608	0.000008
C17	C	0.996815	-0.266633	0.000032
C18	C	1.035024	-0.358419	0.000036
C19	C	1.249941	-0.344417	0.000039
C20	C	1.211752	-0.252629	0.000028
C21	C	1.085187	-0.213744	0.000026
C22	C	1.300124	-0.199740	0.000022
C23	C	1.261936	-0.107958	0.000019
C24	C	1.135376	-0.069066	0.000021
C25	C	1.046999	-0.121963	0.000023
C26	C	1.426686	-0.238625	0.000035
C27	C	1.515058	-0.185736	0.000029
C28	C	1.476872	-0.093954	0.000015
C29	C	1.350312	-0.055062	0.000017
C30	C	1.565249	-0.041058	0.000013
C31	C	1.527061	0.050724	0.000010
C32	C	1.312124	0.036719	0.000014
C33	C	1.490290	0.374760	0.000033
C34	C	1.614881	0.397745	0.000026
C35	C	1.202194	0.505009	0.000039
C36	C	1.161561	0.602693	0.000043
N37	N	1.213720	0.376711	0.344127
N38	N	1.348347	0.315586	-0.344063
C39	C	1.297389	0.338716	0.416325
C40	C	1.264665	0.353586	0.583743
H41	H	1.104284	0.005669	0.000027
O42	O	1.411679	0.286655	0.342249
C43	C	1.424051	0.200050	0.379321
H44	H	1.325598	0.188129	0.421302
H45	H	1.475737	0.149394	0.279120
H46	H	1.480823	0.192592	0.467513
O47	O	1.150271	0.405415	0.658008
C48	C	1.083905	0.354537	0.746039
H49	H	1.154481	0.295478	0.768675
H50	H	1.029215	0.397597	0.853144
H51	H	1.014353	0.329396	0.687485
O52	O	0.924059	-0.084300	-0.000186
C53	C	0.892527	-0.122091	-0.125438
H54	H	0.958971	-0.190452	-0.167180
H55	H	0.790007	-0.129127	-0.097287
H56	H	0.903105	-0.077256	-0.213127
H57	H	1.444210	0.272042	0.593812
H58	H	1.117858	0.420244	0.406258
H59	H	1.457777	-0.313361	0.000024
H60	H	0.853624	0.429947	0.000039
H61	H	0.708449	0.262337	-0.000016
H62	H	0.623080	0.469674	0.000039
H63	H	1.668295	-0.072730	0.000029
O64	O	0.937382	0.208740	-0.000239
C65	C	0.896994	0.180558	-0.125448
H66	H	0.921892	0.223292	-0.212970
H67	H	0.946785	0.107954	-0.167488
H68	H	0.789651	0.187639	-0.097134
H69	H	1.209065	0.068380	0.000002
O70	O	0.873810	-0.228991	0.000078
C71	C	0.804001	-0.295356	0.000031
H72	H	0.853758	-0.354663	0.045818
H73	H	0.704068	-0.267494	0.070214
H74	H	0.797726	-0.317575	-0.115975
H75	H	0.963047	-0.401478	0.000062
O76	O	1.372844	-0.382343	-0.000025
C77	C	1.387595	-0.474689	0.000021
H78	H	1.309405	-0.497310	-0.045747
H79	H	1.484472	-0.511337	-0.070180
H80	H	1.380837	-0.490095	0.116023
H81	H	1.618106	-0.217408	0.000036
H82	H	1.599022	0.093788	0.000007
