data_functionalizedCrystal
_audit_creation_method	'MofGen! by Chris Wilmer'
_symmetry_space_group_name_H-M	'P1'
_symmetry_Int_Tables_number	1
_symmetry_cell_setting	triclinic
loop_
_symmetry_equiv_pos_as_xyz
  x,y,z
_cell_length_a	23.532407
_cell_length_b	17.038272
_cell_length_c	15.500227
_cell_angle_alpha	93.043705
_cell_angle_beta	92.805592
_cell_angle_gamma	93.019883
loop_
_atom_site_label
_atom_site_type_symbol
_atom_site_fract_x
_atom_site_fract_y
_atom_site_fract_z
O1	O	0.121159	-1.040103	-0.071851
O2	O	0.621159	-0.540103	0.428149
O3	O	0.119196	-0.812488	-0.071876
O4	O	0.619196	-0.312488	0.428124
O5	O	0.037607	-0.933158	-0.071847
O6	O	0.537607	-0.433158	0.428153
O7	O	0.202748	-0.919432	-0.071880
O8	O	0.702748	-0.419432	0.428120
O9	O	0.042537	-0.925836	0.072040
O10	O	0.542537	-0.425836	0.572040
O11	O	0.124126	-0.805165	0.072011
O12	O	0.624126	-0.305165	0.572011
O13	O	0.126090	-1.032780	0.072036
O14	O	0.626090	-0.532780	0.572036
Cu15	Cu	0.125558	-0.918304	0.085162
Cu16	Cu	0.625558	-0.418304	0.585162
Cu17	Cu	0.119727	-0.926964	-0.085001
Cu18	Cu	0.619727	-0.426964	0.414999
O19	O	0.207678	-0.912110	0.072007
O20	O	0.707678	-0.412110	0.572007
C21	C	0.119875	-0.779712	0.000065
C22	C	0.619875	-0.279712	0.500065
C23	C	0.114548	-0.692959	0.000056
C24	C	0.614548	-0.192959	0.500056
C25	C	0.018838	-0.929147	0.000099
C26	C	0.518838	-0.429147	0.500099
C27	C	-0.044434	-0.928096	0.000105
C28	C	0.455566	-0.428096	0.500105
N29	N	0.129659	-0.912219	0.204845
N30	N	0.629659	-0.412219	0.704845
C31	C	-0.440131	-0.992917	0.000065
C32	C	0.059869	-0.492917	0.500065
C33	C	-0.499583	-0.991941	0.000058
C34	C	0.000417	-0.491941	0.500058
O35	O	-0.533169	-1.052030	0.000033
O36	O	-0.033169	-0.552030	0.500033
N37	N	-0.525981	-0.920202	0.000051
N38	N	-0.025981	-0.420202	0.500051
C39	C	-0.492924	-0.849435	0.000042
C40	C	0.007076	-0.349435	0.500042
O41	O	-0.520836	-0.788325	0.000034
O42	O	-0.020836	-0.288325	0.500034
C43	C	-0.433473	-0.850412	0.000042
C44	C	0.066527	-0.350412	0.500042
C45	C	-0.407078	-0.922155	0.000058
C46	C	0.092922	-0.422155	0.500058
C47	C	-0.413736	-1.064654	0.000080
C48	C	0.086264	-0.564654	0.500080
C49	C	-0.354288	-1.065630	0.000089
C50	C	0.145712	-0.565630	0.500089
C51	C	-0.321235	-0.994868	0.000082
C52	C	0.178765	-0.494868	0.500082
C53	C	-0.347631	-0.923131	0.000067
C54	C	0.152369	-0.423131	0.500067
C55	C	-0.400418	-0.779646	0.000027
C56	C	0.099582	-0.279646	0.500027
C57	C	-0.340963	-0.780629	0.000026
C58	C	0.159037	-0.280629	0.500026
C59	C	-0.314569	-0.852372	0.000043
C60	C	0.185431	-0.352372	0.500043
C61	C	-0.255130	-0.853344	0.000068
C62	C	0.244870	-0.353344	0.500068
N63	N	-0.228732	-0.925083	0.000075
N64	N	0.271268	-0.425083	0.500075
C65	C	-0.261785	-0.995845	0.000082
C66	C	0.238215	-0.495845	0.500082
C67	C	-0.617774	-0.847388	0.000039
C68	C	-0.117774	-0.347388	0.500039
C69	C	-0.677223	-0.846410	0.000045
C70	C	-0.177223	-0.346410	0.500045
C71	C	-0.683878	-0.988916	0.000060
C72	C	-0.183878	-0.488916	0.500060
C73	C	-0.624428	-0.989894	0.000061
C74	C	-0.124428	-0.489894	0.500061
C75	C	-0.591376	-0.919127	0.000047
C76	C	-0.091376	-0.419127	0.500047
C77	C	-0.136940	-0.997889	0.000100
C78	C	0.363060	-0.497889	0.500100
C79	C	-0.077487	-0.998858	0.000112
C80	C	0.422513	-0.498858	0.500112
C81	C	-0.070837	-0.856352	0.000093
C82	C	0.429163	-0.356352	0.500093
C83	C	-0.130285	-0.855382	0.000085
C84	C	0.369715	-0.355382	0.500085
C85	C	-0.163336	-0.926157	0.000086
C86	C	0.336664	-0.426157	0.500086
O87	O	-0.221508	-0.793287	0.000090
O88	O	0.278492	-0.293287	0.500090
O89	O	-0.233865	-1.056945	0.000078
O90	O	0.266135	-0.556945	0.500078
C91	C	0.226447	-0.916121	0.000059
C92	C	0.726447	-0.416121	0.500059
C93	C	0.289719	-0.917172	0.000047
C94	C	0.789719	-0.417172	0.500047
C95	C	0.125410	-1.065556	0.000094
C96	C	0.625410	-0.565556	0.500094
C97	C	0.130737	-1.152310	0.000097
C98	C	0.630737	-0.652310	0.500097
C99	C	0.163453	-0.642483	0.000046
C100	C	0.663453	-0.142483	0.500046
C101	C	0.158445	-0.560969	0.000059
C102	C	0.658445	-0.060969	0.500059
C103	C	0.104532	-0.529932	0.000075
C104	C	0.604532	-0.029932	0.500075
C105	C	0.055624	-0.580414	0.000087
C106	C	0.555624	-0.080414	0.500087
C107	C	0.060632	-0.661927	0.000080
C108	C	0.560632	-0.161927	0.500080
C109	C	0.086837	-0.284304	0.000102
C110	C	0.586837	0.215696	0.500102
C111	C	0.081832	-0.202786	0.000106
C112	C	0.581832	0.297214	0.500106
C113	C	0.184654	-0.183345	0.000080
C114	C	0.684654	0.316655	0.500080
C115	C	0.189658	-0.264860	0.000068
C116	C	0.689658	0.235140	0.500068
C117	C	0.140750	-0.315335	0.000084
C118	C	0.640750	0.184665	0.500084
C119	C	0.099412	-0.446612	0.000086
C120	C	0.599412	0.053388	0.500086
C121	C	0.145871	-0.398653	0.000080
C122	C	0.645871	0.101347	0.500080
N123	N	0.115622	-0.933055	-0.204685
N124	N	0.615622	-0.433055	0.295315
C125	C	0.095101	-0.963369	0.250134
C126	C	0.595101	-0.463369	0.750134
C127	C	0.098208	-0.958774	0.340706
C128	C	0.598208	-0.458774	0.840706
C129	C	0.135876	-0.903033	0.385987
C130	C	0.635876	-0.403033	0.885987
C131	C	0.170435	-0.851877	0.340691
C132	C	0.670435	-0.351877	0.840691
C133	C	0.167324	-0.856469	0.250121
C134	C	0.667324	-0.356469	0.750121
C135	C	0.147071	-0.886491	0.659450
C136	C	0.647071	-0.386491	1.159450
C137	C	0.150180	-0.881905	0.750026
C138	C	0.650180	-0.381905	1.250026
C139	C	0.077952	-0.988801	0.750034
C140	C	0.577952	-0.488801	1.250034
C141	C	0.074848	-0.993391	0.659462
C142	C	0.574848	-0.493391	1.159462
C143	C	0.109404	-0.942233	0.614175
C144	C	0.609404	-0.442233	1.114175
C145	C	0.139054	-0.898336	0.478566
C146	C	0.639054	-0.398336	0.978566
C147	C	0.106223	-0.946927	0.521598
C148	C	0.606223	-0.446927	1.021598
H149	H	-0.055999	-1.057282	0.000128
H150	H	0.444001	-0.557282	0.500128
H151	H	0.169725	-0.852952	0.515441
H152	H	0.669725	-0.352952	1.015441
H153	H	0.180855	-0.836511	0.786890
H154	H	0.680855	-0.336511	1.286890
H155	H	-0.314056	-0.723001	0.000014
H156	H	0.185944	-0.223001	0.500014
H157	H	-0.710801	-1.046535	0.000062
H158	H	-0.210801	-0.546535	0.500062
H159	H	0.055516	-0.421332	0.000123
H160	H	0.555516	0.078668	0.500123
H161	H	0.064431	-1.008763	0.213272
H162	H	0.564431	-0.508763	0.713272
H163	H	0.070069	-1.000424	0.377580
H164	H	0.570069	-0.500424	0.877580
H165	H	-0.421898	-0.721225	0.000008
H166	H	0.078102	-0.221225	0.500008
H167	H	-0.151776	-0.796962	0.000096
H168	H	0.348224	-0.296962	0.500096
H169	H	-0.698708	-0.787989	0.000047
H170	H	-0.198708	-0.287989	0.500047
H171	H	0.175209	-0.844838	0.622584
H172	H	0.675209	-0.344838	1.122584
H173	H	0.201102	-0.806487	0.377565
H174	H	0.701102	-0.306487	0.877565
H175	H	-0.602941	-1.048313	0.000073
H176	H	-0.102941	-0.548313	0.500073
H177	H	0.075552	-0.992309	0.484727
H178	H	0.575552	-0.492309	0.984727
H179	H	-0.043915	-0.798739	0.000090
H180	H	0.456085	-0.298739	0.500090
H181	H	-0.163843	-1.055521	0.000098
H182	H	0.336157	-0.555521	0.500098
H183	H	-0.440642	-1.122281	0.000083
H184	H	0.059358	-0.622281	0.500083
H185	H	-0.332803	-1.124051	0.000098
H186	H	0.167197	-0.624051	0.500098
H187	H	0.189767	-0.423926	0.000072
H188	H	0.689767	0.076074	0.500072
H189	H	0.020809	-0.703024	0.000087
H190	H	0.520809	-0.203024	0.500087
H191	H	0.207354	-0.667745	0.000033
H192	H	0.707354	-0.167745	0.500033
H193	H	0.195464	-0.814816	0.213248
H194	H	0.695464	-0.314816	0.713248
H195	H	0.198268	-0.519874	0.000051
H196	H	0.698268	-0.019874	0.500051
H197	H	-0.590866	-0.789757	0.000035
H198	H	-0.090866	-0.289757	0.500035
H199	H	0.037928	-0.177520	0.000118
H200	H	0.537928	0.322480	0.500118
H201	H	0.233559	-0.290124	0.000045
H202	H	0.733559	0.209876	0.500045
H203	H	0.224472	-0.142240	0.000069
H204	H	0.724472	0.357760	0.500069
H205	H	0.047013	-0.325391	0.000116
H206	H	0.547013	0.174609	0.500116
H207	H	0.011727	-0.555138	0.000112
H208	H	0.511727	-0.055138	0.500112
H209	H	0.044176	-1.038780	0.622596
H210	H	0.544176	-0.538780	1.122596
H211	H	0.049817	-1.030451	0.786915
H212	H	0.549817	-0.530451	1.286915
