data_functionalizedCrystal
_audit_creation_method	'MofGen! by Chris Wilmer'
_symmetry_space_group_name_H-M	'P1'
_symmetry_Int_Tables_number	1
_symmetry_cell_setting	triclinic
loop_
_symmetry_equiv_pos_as_xyz
  x,y,z
_cell_length_a	15.944545
_cell_length_b	15.021413
_cell_length_c	15.944493
_cell_angle_alpha	89.990110
_cell_angle_beta	83.485608
_cell_angle_gamma	90.004532
loop_
_atom_site_label
_atom_site_type_symbol
_atom_site_fract_x
_atom_site_fract_y
_atom_site_fract_z
O1	O	1.114510	0.073963	0.108299
O2	O	1.447843	0.407296	0.441632
O3	O	1.781176	0.740629	0.774965
O4	O	0.869956	0.073976	0.121661
O5	O	1.203290	0.407309	0.454994
O6	O	1.536623	0.740642	0.788327
O7	O	0.998937	0.073976	-0.007299
O8	O	1.332270	0.407310	0.326035
O9	O	1.665603	0.740643	0.659368
O10	O	0.985529	0.073962	0.237258
O11	O	1.318863	0.407295	0.570591
O12	O	1.652196	0.740629	0.903925
O13	O	0.998916	-0.074088	-0.007280
O14	O	1.332249	0.259245	0.326053
O15	O	1.665583	0.592579	0.659387
O16	O	0.869936	-0.074089	0.121679
O17	O	1.203269	0.259245	0.455013
O18	O	1.536603	0.592578	0.788346
O19	O	1.114489	-0.074102	0.108317
O20	O	1.447822	0.259232	0.441650
O21	O	1.781156	0.592565	0.774984
Zn22	Zn	0.992209	-0.097603	0.115001
Zn23	Zn	1.325543	0.235730	0.448334
Zn24	Zn	1.658876	0.569063	0.781668
Zn25	Zn	0.992236	0.097478	0.114977
Zn26	Zn	1.325570	0.430811	0.448310
Zn27	Zn	1.658903	0.764144	0.781643
O28	O	0.985509	-0.074102	0.237276
O29	O	1.318842	0.259231	0.570610
O30	O	1.652176	0.592565	0.903943
C31	C	0.838652	-0.000055	0.121116
C32	C	1.171986	0.333279	0.454450
C33	C	1.505319	0.666612	0.787783
C34	C	0.745406	-0.000049	0.119456
C35	C	1.078740	0.333284	0.452789
C36	C	1.412073	0.666618	0.786123
N37	N	0.992197	-0.230741	0.115017
N38	N	1.325530	0.102592	0.448350
N39	N	1.658864	0.435926	0.781684
C40	C	0.474791	-0.000054	0.034560
C41	C	0.808125	0.333280	0.367893
C42	C	1.141458	0.666613	0.701227
C43	C	0.525354	-0.073061	0.075499
C44	C	0.858688	0.260272	0.408832
C45	C	1.192021	0.593605	0.742166
C46	C	0.409764	-0.000064	0.113535
C47	C	0.743097	0.333269	0.446869
C48	C	1.076430	0.666603	0.780202
C49	C	0.525355	0.072918	0.075502
C50	C	0.858688	0.406252	0.408835
C51	C	1.192022	0.739585	0.742169
C52	C	0.574677	-0.000055	0.116440
C53	C	0.908010	0.333278	0.449773
C54	C	1.241343	0.666612	0.783107
C55	C	0.459098	-0.073132	0.154453
C56	C	0.792432	0.260201	0.487786
C57	C	1.125765	0.593535	0.821120
C58	C	0.459096	0.072913	0.154445
C59	C	0.792429	0.406246	0.487778
C60	C	1.125763	0.739580	0.821111
C61	C	0.509626	-0.000113	0.195442
C62	C	0.842959	0.333221	0.528775
C63	C	1.176293	0.666554	0.862108
C64	C	0.314762	-0.000070	0.111860
C65	C	0.648095	0.333264	0.445193
C66	C	0.981429	0.666597	0.778526
C67	C	0.669676	-0.000056	0.118122
C68	C	1.003009	0.333278	0.451455
C69	C	1.336342	0.666611	0.784788
C70	C	0.932547	-0.470425	0.174620
C71	C	1.265881	-0.137091	0.507953
C72	C	1.599214	0.196242	0.841287
C73	C	1.008445	-0.529764	0.190926
C74	C	1.341778	-0.196431	0.524259
C75	C	1.675111	0.136902	0.857592
C76	C	0.992218	-0.412348	0.114996
C77	C	1.325552	-0.079015	0.448329
C78	C	1.658885	0.254319	0.781663
C79	C	0.916342	-0.529750	0.098709
C80	C	1.249675	-0.196417	0.432042
C81	C	1.583008	0.136917	0.765376
C82	C	0.992232	-0.587772	0.114978
C83	C	1.325566	-0.254439	0.448311
C84	C	1.658899	0.078895	0.781644
C85	C	1.068154	-0.470381	0.131340
C86	C	1.401487	-0.137048	0.464673
C87	C	1.734821	0.196285	0.798006
C88	C	0.976001	-0.470362	0.039090
C89	C	1.309335	-0.137028	0.372424
C90	C	1.642668	0.196305	0.705757
C91	C	1.051953	-0.529675	0.055364
C92	C	1.385287	-0.196341	0.388697
C93	C	1.718620	0.136992	0.722030
C94	C	0.992209	-0.311291	0.115009
C95	C	1.325542	0.022043	0.448342
C96	C	1.658876	0.355376	0.781676
C97	C	0.992250	-0.688827	0.114964
C98	C	1.325584	-0.355494	0.448298
C99	C	1.658917	-0.022161	0.781631
C100	C	1.145793	-0.000069	0.108862
C101	C	1.479127	0.333264	0.442195
C102	C	1.812460	0.666597	0.775528
C103	C	1.239039	-0.000069	0.110522
C104	C	1.572373	0.333264	0.443855
C105	C	1.905706	0.666598	0.777189
C106	C	0.998378	-0.000052	-0.038584
C107	C	1.331712	0.333281	0.294749
C108	C	1.665045	0.666615	0.628083
C109	C	0.996735	-0.000041	-0.131833
C110	C	1.330069	0.333293	0.201501
C111	C	1.663402	0.666626	0.534834
N112	N	0.992255	0.230615	0.114954
N113	N	1.325589	0.563948	0.448287
N114	N	1.658922	0.897282	0.781621
C115	C	1.072656	-0.000062	-0.367594
C116	C	1.405990	0.333272	-0.034261
C117	C	1.739323	0.666605	0.299072
C118	C	1.031725	0.072944	-0.418171
C119	C	1.365058	0.406277	-0.084837
C120	C	1.698392	0.739610	0.248496
C121	C	0.993691	-0.000051	-0.302554
C122	C	1.327025	0.333282	0.030780
C123	C	1.660358	0.666615	0.364113
C124	C	1.031687	-0.073036	-0.418128
C125	C	1.365020	0.260297	-0.084795
C126	C	1.698353	0.593630	0.248538
C127	C	0.990757	-0.000066	-0.467463
C128	C	1.324090	0.333268	-0.134130
C129	C	1.657424	0.666601	0.199203
C130	C	0.952782	0.073014	-0.351902
C131	C	1.286115	0.406347	-0.018568
C132	C	1.619448	0.739681	0.314765
C133	C	0.952755	-0.073031	-0.351856
C134	C	1.286088	0.260302	-0.018523
C135	C	1.619421	0.593635	0.314810
C136	C	0.911766	-0.000008	-0.402400
C137	C	1.245099	0.333325	-0.069066
C138	C	1.578432	0.666658	0.264267
C139	C	0.995384	-0.000042	-0.207554
C140	C	1.328718	0.333291	0.125780
C141	C	1.662051	0.666624	0.459113
C142	C	0.989058	-0.000068	-0.562460
C143	C	1.322391	0.333265	-0.229127
C144	C	1.655725	0.666598	0.104206
C145	C	0.986067	-0.000072	0.268562
C146	C	1.319400	0.333261	0.601895
C147	C	1.652734	0.666595	0.935229
C148	C	0.987710	-0.000077	0.361811
C149	C	1.321043	0.333256	0.695144
C150	C	1.654377	0.666589	1.028477
H151	H	0.459152	-0.000121	-0.033454
H152	H	0.792485	0.333213	0.299879
H153	H	1.125819	0.666546	0.633213
H154	H	0.554288	0.134637	0.042128
H155	H	0.887621	0.467970	0.375461
H156	H	1.220955	0.801303	0.708794
F157	F	0.866657	-0.436416	0.240576
F158	F	1.199991	-0.103083	0.573909
F159	F	1.533324	0.230251	0.907242
H160	H	1.022174	-0.555856	0.255110
H161	H	1.355507	-0.222523	0.588443
H162	H	1.688841	0.110811	0.921776
F163	F	0.563166	-0.153733	0.031916
F164	F	0.896499	0.179600	0.365250
F165	F	1.229832	0.512933	0.698583
H166	H	0.430273	-0.134921	0.187789
H167	H	0.763607	0.198413	0.521122
H168	H	1.096940	0.531746	0.854456
F169	F	0.909232	0.153775	-0.314245
F170	F	1.242565	0.487109	0.019088
F171	F	1.575899	0.820442	0.352422
H172	H	0.843695	0.000035	-0.417864
H173	H	1.177028	0.333369	-0.084531
H174	H	1.510361	0.666702	0.248803
H175	H	0.525104	-0.000159	0.263508
H176	H	0.858437	0.333174	0.596842
H177	H	1.191770	0.666507	0.930175
F178	F	0.909206	-0.153705	-0.313974
F179	F	1.242539	0.179629	0.019359
F180	F	1.575873	0.512962	0.352692
H181	H	0.430151	0.134634	0.187761
H182	H	0.763485	0.467967	0.521094
H183	H	1.096818	0.801301	0.854428
F184	F	1.117988	-0.563470	-0.010555
F185	F	1.451322	-0.230137	0.322778
F186	F	1.784655	0.103196	0.656112
F187	F	1.161559	0.000027	-0.347167
F188	F	1.494893	0.333360	-0.013833
F189	F	1.828226	0.666693	0.319500
H190	H	1.132341	-0.444413	0.145184
H191	H	1.465675	-0.111079	0.478517
H192	H	1.799008	0.222254	0.811851
F193	F	0.958026	-0.436228	-0.044777
F194	F	1.291359	-0.102895	0.288557
F195	F	1.624692	0.230438	0.621890
F196	F	1.075283	-0.153705	-0.455933
F197	F	1.408616	0.179628	-0.122599
F198	F	1.741949	0.512962	0.210734
H199	H	0.852169	-0.555830	0.084942
H200	H	1.185502	-0.222497	0.418275
H201	H	1.518835	0.110836	0.751609
F202	F	1.075323	0.153612	-0.456018
F203	F	1.408656	0.486945	-0.122685
F204	F	1.741990	0.820279	0.210649
