data_functionalizedCrystal
_audit_creation_method	'MofGen! by Chris Wilmer'
_symmetry_space_group_name_H-M	'P1'
_symmetry_Int_Tables_number	1
_symmetry_cell_setting	triclinic
loop_
_symmetry_equiv_pos_as_xyz
  x,y,z
_cell_length_a	19.121241
_cell_length_b	21.295417
_cell_length_c	19.120904
_cell_angle_alpha	87.590581
_cell_angle_beta	90.124528
_cell_angle_gamma	92.463828
loop_
_atom_site_label
_atom_site_type_symbol
_atom_site_fract_x
_atom_site_fract_y
_atom_site_fract_z
Zn1	Zn	1.054849	-0.227282	0.442178
Zn2	Zn	1.554849	0.272718	0.942178
Zn3	Zn	1.059760	-0.327881	0.324935
Zn4	Zn	1.559760	0.172119	0.824935
Zn5	Zn	0.942615	-0.226908	0.319948
Zn6	Zn	1.442615	0.273092	0.819948
Zn7	Zn	0.937568	-0.336799	0.437121
Zn8	Zn	1.437568	0.163201	0.937121
O9	O	0.998698	-0.279717	0.381045
O10	O	1.498698	0.220283	0.881045
O11	O	1.153608	-0.237051	0.430829
O12	O	1.653608	0.262949	0.930829
O13	O	1.048388	-0.310598	0.226169
O14	O	1.548388	0.189402	0.726169
O15	O	0.957560	-0.138867	0.336192
O16	O	1.457560	0.361133	0.836192
O17	O	1.157216	-0.310960	0.344691
O18	O	1.657216	0.189040	0.844691
O19	O	1.040018	-0.139142	0.425994
O20	O	1.540018	0.360858	0.925994
O21	O	0.962322	-0.236414	0.222505
O22	O	1.462322	0.263586	0.722505
O23	O	0.843838	-0.245061	0.331288
O24	O	1.343838	0.254939	0.831288
O25	O	0.948957	-0.326160	0.535896
O26	O	1.448957	0.173840	1.035896
O27	O	0.840129	-0.325797	0.417374
O28	O	1.340129	0.174203	0.917374
O29	O	1.035123	-0.245698	0.539612
O30	O	1.535123	0.254302	1.039612
O31	O	1.043493	-0.417154	0.339786
O32	O	1.543493	0.082846	0.839786
O33	O	0.953719	-0.423706	0.422209
O34	O	1.453719	0.076294	0.922209
C35	C	0.816545	-0.286357	0.373241
C36	C	1.316545	0.213643	0.873241
C37	C	0.738619	-0.289213	0.369919
C38	C	1.238619	0.210787	0.869919
C39	C	0.700128	-0.252141	0.413275
C40	C	1.200128	0.247859	0.913275
C41	C	0.626908	-0.254822	0.410147
C42	C	1.126908	0.245178	0.910147
C43	C	0.592180	-0.294578	0.363667
C44	C	1.092180	0.205422	0.863667
C45	C	0.630677	-0.331652	0.320307
C46	C	1.130677	0.168348	0.820307
C47	C	0.703895	-0.328967	0.323432
C48	C	1.203895	0.171033	0.823432
C49	C	0.371202	-0.304601	0.351983
C50	C	0.871202	0.195399	0.851983
C51	C	0.297978	-0.307284	0.348864
C52	C	0.797978	0.192716	0.848864
C53	C	0.294215	-0.230453	0.438703
C54	C	0.794215	0.269547	0.938703
C55	C	0.367435	-0.227775	0.441827
C56	C	0.867435	0.272225	0.941827
C57	C	0.405925	-0.264846	0.398464
C58	C	0.905925	0.235154	0.898464
C59	C	0.517338	-0.297320	0.360471
C60	C	1.017338	0.202680	0.860471
C61	C	0.480766	-0.262100	0.401657
C62	C	0.980766	0.237900	0.901657
C63	C	0.998610	-0.443271	0.381006
C64	C	1.498610	0.056729	0.881006
C65	C	0.998635	-0.513238	0.381015
C66	C	1.498635	-0.013238	0.881015
C67	C	1.041544	-0.546193	0.427806
C68	C	1.541544	-0.046193	0.927806
C69	C	1.041568	-0.611935	0.427825
C70	C	1.541568	-0.111935	0.927825
C71	C	0.998691	-0.644720	0.381040
C72	C	1.498691	-0.144720	0.881040
C73	C	0.955774	-0.611757	0.334246
C74	C	1.455774	-0.111757	0.834246
C75	C	0.955746	-0.546017	0.334233
C76	C	1.455746	-0.046017	0.834233
N77	N	0.996017	-0.745728	0.319460
N78	N	1.496017	-0.245728	0.819460
N79	N	0.996047	-0.808179	0.319474
N80	N	1.496047	-0.308179	0.819474
C81	C	0.998772	-0.842793	0.381075
C82	C	1.498772	-0.342793	0.881075
N83	N	1.001479	-0.812595	0.442664
N84	N	1.501479	-0.312595	0.942664
N85	N	1.001452	-0.750139	0.442649
N86	N	1.501452	-0.250139	0.942649
C87	C	0.998717	-0.716004	0.381048
C88	C	1.498717	-0.216004	0.881048
C89	C	1.041709	-0.947033	0.427890
C90	C	1.541709	-0.447033	0.927890
C91	C	1.041728	-1.012776	0.427909
C92	C	1.541728	-0.512776	0.927909
C93	C	0.955938	-1.012597	0.334324
C94	C	1.455938	-0.512597	0.834324
C95	C	0.955915	-0.946855	0.334311
C96	C	1.455915	-0.446855	0.834311
C97	C	0.998804	-0.914076	0.381093
C98	C	1.498804	-0.414076	0.881093
C99	C	1.181561	-0.273052	0.388880
C100	C	1.681561	0.226948	0.888880
C101	C	1.259487	-0.270212	0.392219
C102	C	1.759487	0.229788	0.892219
C103	C	0.990930	-0.286965	0.563902
C104	C	1.490930	0.213035	1.063902
C105	C	0.987619	-0.290054	0.641825
C106	C	1.487619	0.209946	1.141825
C107	C	0.998804	-0.115525	0.381101
C108	C	1.498804	0.384475	0.881101
C109	C	0.998850	-0.045556	0.381125
C110	C	1.498850	0.454444	0.881125
C111	C	1.006476	-0.272451	0.198902
C112	C	1.506476	0.227549	0.698902
C113	C	1.009922	-0.269180	0.120985
C114	C	1.509922	0.230820	0.620985
C115	C	1.030924	-0.249615	0.680369
C116	C	1.530924	0.250385	1.180369
C117	C	1.027805	-0.252515	0.753585
C118	C	1.527805	0.247485	1.253585
C119	C	0.981384	-0.295857	0.788256
C120	C	1.481384	0.204143	1.288256
C121	C	0.938075	-0.336298	0.749707
C122	C	1.438075	0.163702	1.249707
C123	C	0.941191	-0.333395	0.676492
C124	C	1.441191	0.166605	1.176492
C125	C	0.969729	-0.306717	1.009221
C126	C	1.469729	0.193283	1.509221
C127	C	0.966618	-0.309619	1.082441
C128	C	1.466618	0.190381	1.582441
C129	C	1.056347	-0.225834	1.086315
C130	C	1.556347	0.274166	1.586315
C131	C	1.059461	-0.222937	1.013098
C132	C	1.559461	0.277063	1.513098
C133	C	1.016150	-0.263376	0.974555
C134	C	1.516150	0.236624	1.474555
C135	C	0.978197	-0.298824	0.863095
C136	C	1.478197	0.201176	1.363095
C137	C	1.019334	-0.260406	0.899718
C138	C	1.519334	0.239594	1.399718
H139	H	0.262869	-0.200271	0.474006
H140	H	0.762869	0.299729	0.974006
H141	H	0.269705	-0.339662	0.311014
H142	H	0.769705	0.160338	0.811014
H143	H	1.076629	-0.920344	0.465985
H144	H	1.576629	-0.420344	0.965985
H145	H	1.076669	-1.039607	0.466015
H146	H	1.576669	-0.539607	0.966015
C147	C	0.953306	-0.397913	1.164336
C148	C	1.453306	0.102087	1.664336
C149	C	0.915583	-0.357258	1.120557
C150	C	1.415583	0.142742	1.620557
H151	H	0.921800	-0.427322	1.187864
H152	H	1.421800	0.072678	1.687864
H153	H	0.978651	-0.374244	1.197761
H154	H	1.478651	0.125756	1.697761
H155	H	0.985041	-0.419752	1.137068
H156	H	1.485041	0.080248	1.637068
H157	H	0.883851	-0.335415	1.147826
H158	H	1.383851	0.164585	1.647826
H159	H	0.890226	-0.380929	1.087127
H160	H	1.390226	0.119071	1.587127
H161	H	0.920804	-0.519184	0.296130
H162	H	1.420804	-0.019184	0.796130
C163	C	0.880710	-0.389812	1.012757
C164	C	1.380710	0.110188	1.512757
C165	C	0.922112	-0.351159	0.966861
C166	C	1.422112	0.148841	1.466861
H167	H	0.851312	-0.417248	0.986601
H168	H	1.351312	0.082752	1.486601
H169	H	0.852711	-0.364490	1.040179
H170	H	1.352711	0.135510	1.540179
H171	H	0.910031	-0.413919	1.042609
H172	H	1.410031	0.086081	1.542609
H173	H	0.892792	-0.327049	0.937012
H174	H	1.392792	0.172951	1.437012
H175	H	0.950114	-0.376484	0.939426
H176	H	1.450114	0.123516	1.439426
H177	H	1.097264	-0.187645	0.984874
H178	H	1.597264	0.312355	1.484874
H179	H	0.489054	-0.329690	0.322627
H180	H	0.989054	0.170310	0.822627
C181	C	1.047174	-0.475609	0.522520
C182	C	1.547174	0.024391	1.022520
C183	C	1.088681	-0.510165	0.479235
C184	C	1.588681	-0.010165	0.979235
H185	H	1.076275	-0.453364	0.554267
H186	H	1.576275	0.046636	1.054267
H187	H	1.015486	-0.503450	0.548003
H188	H	1.515486	-0.003450	1.048003
H189	H	1.021620	-0.446571	0.494643
H190	H	1.521620	0.053429	0.994643
H191	H	1.114231	-0.539206	0.507112
H192	H	1.614231	-0.039206	1.007112
H193	H	1.120381	-0.482322	0.453750
H194	H	1.620381	0.017678	0.953750
C195	C	0.367556	-0.380817	0.262872
C196	C	0.867556	0.119183	0.762872
C197	C	0.413503	-0.345353	0.304323
C198	C	0.913503	0.154647	0.804323
H199	H	0.393675	-0.405979	0.233451
H200	H	0.893675	0.094021	0.733451
H201	H	0.340142	-0.353338	0.234898
H202	H	0.840142	0.146662	0.734898
H203	H	0.337699	-0.407193	0.292159
H204	H	0.837699	0.092807	0.792159
H205	H	0.443358	-0.318973	0.275036
H206	H	0.943358	0.181027	0.775036
H207	H	0.440930	-0.372835	0.332300
H208	H	0.940930	0.127165	0.832300
H209	H	1.076503	-0.638773	0.465935
H210	H	1.576503	-0.138773	0.965935
H211	H	0.920862	-0.638455	0.296155
H212	H	1.420862	-0.138455	0.796155
C213	C	0.917781	-0.846000	0.292742
C214	C	1.417781	-0.346000	0.792742
C215	C	0.908753	-0.910625	0.282872
C216	C	1.408753	-0.410625	0.782872
H217	H	0.888659	-0.823636	0.260987
H218	H	1.388659	-0.323636	0.760987
H219	H	0.965319	-0.833070	0.284534
H220	H	1.465319	-0.333070	0.784534
H221	H	0.905476	-0.837467	0.339396
H222	H	1.405476	-0.337467	0.839396
H223	H	0.921063	-0.919160	0.236219
H224	H	1.421063	-0.419160	0.736219
H225	H	0.861205	-0.923560	0.291074
H226	H	1.361205	-0.423560	0.791074
C227	C	0.917883	-1.113289	0.292794
C228	C	1.417883	-0.613289	0.792794
C229	C	0.908801	-1.048626	0.282901
C230	C	1.408801	-0.548626	0.782901
H231	H	0.888782	-1.135533	0.261045
H232	H	1.388782	-0.635533	0.761045
H233	H	0.905591	-1.126289	0.339446
H234	H	1.405591	-0.626289	0.839446
H235	H	0.965436	-1.121900	0.284587
H236	H	1.465436	-0.621900	0.784587
H237	H	0.861249	-1.040015	0.291112
H238	H	1.361249	-0.540015	0.791112
H239	H	0.921089	-1.035622	0.236237
H240	H	1.421089	-0.535622	0.736237
H241	H	1.068726	-0.214323	0.652145
H242	H	1.568726	0.285677	1.152145
C243	C	1.091408	-0.193077	1.200267
C244	C	1.591408	0.306923	1.700267
C245	C	1.103946	-0.181380	1.128682
C246	C	1.603946	0.318620	1.628682
H247	H	1.120792	-0.165626	1.226421
H248	H	1.620792	0.334374	1.726421
H249	H	1.101136	-0.235468	1.212689
H250	H	1.601136	0.264532	1.712689
H251	H	1.043796	-0.186057	1.210240
H252	H	1.543796	0.313943	1.710240
H253	H	1.151557	-0.188404	1.118709
H254	H	1.651557	0.311596	1.618709
H255	H	1.094223	-0.138979	1.116255
H256	H	1.594223	0.361021	1.616255
C257	C	0.520110	-0.369886	0.275631
C258	C	1.020110	0.130114	0.775631
C259	C	0.592505	-0.375354	0.269216
C260	C	1.092505	0.124646	0.769216
H261	H	0.496547	-0.396871	0.244093
H262	H	0.996547	0.103129	0.744093
H263	H	0.508561	-0.327618	0.264945
H264	H	1.008561	0.172382	0.764945
H265	H	0.506123	-0.381471	0.322207
H266	H	1.006123	0.118529	0.822207
H267	H	0.606492	-0.363764	0.222641
H268	H	1.106492	0.136236	0.722641
H269	H	0.604059	-0.417631	0.279898
H270	H	1.104059	0.082369	0.779898
H271	H	0.940404	-0.334117	0.891332
H272	H	1.440404	0.165883	1.391332
H273	H	1.063070	-0.219587	0.784964
H274	H	1.563070	0.280413	1.284964
H275	H	0.900276	-0.371586	0.777942
H276	H	1.400276	0.128414	1.277942
H277	H	0.395705	-0.195404	0.479678
H278	H	0.895705	0.304596	0.979678
C279	C	0.852205	-0.416520	0.680013
C280	C	1.352205	0.083480	1.180013
C281	C	0.893602	-0.377857	0.634122
C282	C	1.393602	0.122143	1.134122
H283	H	0.822830	-0.443973	0.653855
H284	H	1.322830	0.056027	1.153855
H285	H	0.824184	-0.391206	0.707422
H286	H	1.324184	0.108794	1.207422
H287	H	0.881531	-0.440609	0.709879
H288	H	1.381531	0.059391	1.209879
H289	H	0.864276	-0.353764	0.604260
H290	H	1.364276	0.146236	1.104260
H291	H	0.921626	-0.403174	0.606701
H292	H	1.421626	0.096826	1.106701
H293	H	1.057127	-0.225114	0.871485
H294	H	1.557127	0.274886	1.371485
H295	H	0.728398	-0.219769	0.451126
H296	H	1.228398	0.280231	0.951126
H297	H	0.595572	-0.224635	0.445453
H298	H	1.095572	0.275365	0.945453
H299	H	0.735234	-0.359155	0.288126
H300	H	1.235234	0.140845	0.788126
H301	H	0.509045	-0.229728	0.439498
H302	H	1.009045	0.270272	0.939498
