data_functionalizedCrystal
_audit_creation_method	'MofGen! by Chris Wilmer'
_symmetry_space_group_name_H-M	'P1'
_symmetry_Int_Tables_number	1
_symmetry_cell_setting	triclinic
loop_
_symmetry_equiv_pos_as_xyz
  x,y,z
_cell_length_a	16.992694
_cell_length_b	17.699083
_cell_length_c	16.053810
_cell_angle_alpha	87.428156
_cell_angle_beta	92.738518
_cell_angle_gamma	86.975619
loop_
_atom_site_label
_atom_site_type_symbol
_atom_site_fract_x
_atom_site_fract_y
_atom_site_fract_z
O1	O	-1.043381	-0.157473	-0.069327
O2	O	-0.543381	0.342527	0.430673
O3	O	-0.815100	-0.155711	-0.069352
O4	O	-0.315100	0.344289	0.430648
O5	O	-0.935690	-0.046805	-0.069331
O6	O	-0.435690	0.453195	0.430669
O7	O	-0.922791	-0.266379	-0.069347
O8	O	-0.422791	0.233621	0.430653
O9	O	-0.929079	-0.052799	0.069526
O10	O	-0.429079	0.447201	0.569526
O11	O	-0.808490	-0.161705	0.069506
O12	O	-0.308490	0.338295	0.569506
O13	O	-1.036770	-0.163467	0.069530
O14	O	-0.536770	0.336533	0.569530
Zn15	Zn	-0.921580	-0.163538	0.091565
Zn16	Zn	-0.421580	0.336462	0.591565
Zn17	Zn	-0.930290	-0.155640	-0.091386
Zn18	Zn	-0.430290	0.344360	0.408614
O19	O	-0.916181	-0.272373	0.069510
O20	O	-0.416181	0.227627	0.569510
C21	C	-0.782587	-0.156443	0.000074
C22	C	-0.282587	0.343557	0.500074
C23	C	-0.695556	-0.149686	0.000065
C24	C	-0.195556	0.350314	0.500065
C25	C	-0.931922	-0.021576	0.000098
C26	C	-0.431922	0.478424	0.500098
C27	C	-0.930536	0.062529	0.000098
C28	C	-0.430536	0.562529	0.500098
C29	C	-1.069284	-0.162734	0.000103
C30	C	-0.569284	0.337266	0.500103
C31	C	-1.156315	-0.169492	0.000107
C32	C	-0.656315	0.330508	0.500107
C33	C	-0.645191	-0.214883	0.000061
C34	C	-0.145191	0.285117	0.500061
C35	C	-0.563416	-0.208530	0.000073
C36	C	-0.063416	0.291470	0.500073
C37	C	-0.532008	-0.136979	0.000083
C38	C	-0.032008	0.363021	0.500083
C39	C	-0.582378	-0.071776	0.000090
C40	C	-0.082378	0.428224	0.500090
C41	C	-0.664152	-0.078130	0.000084
C42	C	-0.164152	0.421870	0.500084
C43	C	-0.288459	-0.110644	0.000107
C44	C	0.211541	0.389356	0.500107
C45	C	-0.206679	-0.104294	0.000111
C46	C	0.293321	0.395706	0.500111
C47	C	-0.187723	-0.241049	0.000095
C48	C	0.312277	0.258951	0.500095
C49	C	-0.269499	-0.247396	0.000084
C50	C	0.230501	0.252604	0.500084
C51	C	-0.319862	-0.182194	0.000095
C52	C	0.180138	0.317806	0.500095
N53	N	-0.448421	-0.130483	0.000093
N54	N	0.051579	0.369517	0.500093
N55	N	-0.403447	-0.188691	0.000092
N56	N	0.096553	0.311309	0.500092
C57	C	-0.919948	-0.297602	0.000079
C58	C	-0.419948	0.202398	0.500079
C59	C	-0.921335	-0.381706	0.000074
C60	C	-0.421335	0.118294	0.500074
N61	N	-0.915642	-0.168927	0.216424
N62	N	-0.415642	0.331073	0.716424
C63	C	-1.001319	0.106742	0.000106
C64	C	-0.501319	0.606742	0.500106
C65	C	-1.000012	0.185767	0.000099
C66	C	-0.500012	0.685767	0.500099
C67	C	-0.927920	0.220577	0.000089
C68	C	-0.427920	0.720577	0.500089
C69	C	-0.857131	0.176358	0.000077
C70	C	-0.357131	0.676358	0.500077
C71	C	-0.858439	0.097334	0.000079
C72	C	-0.358439	0.597334	0.500079
C73	C	-0.851853	0.495050	0.000070
C74	C	-0.351853	0.995050	0.500070
C75	C	-0.850550	0.574079	0.000071
C76	C	-0.350550	1.074079	0.500071
C77	C	-0.993426	0.583482	0.000090
C78	C	-0.493426	1.083482	0.500090
C79	C	-0.994734	0.504459	0.000092
C80	C	-0.494734	1.004459	0.500092
C81	C	-0.923946	0.460247	0.000076
C82	C	-0.423946	0.960247	0.500076
C83	C	-0.925364	0.374559	0.000082
C84	C	-0.425364	0.874559	0.500082
C85	C	-0.926501	0.306263	0.000088
C86	C	-0.426501	0.806263	0.500088
N87	N	-0.936235	-0.150245	-0.216245
N88	N	-0.436235	0.349755	0.283755
C89	C	-0.884911	-0.196572	0.740051
C90	C	-0.384911	0.303428	1.240051
C91	C	-0.889082	-0.192817	0.652645
C92	C	-0.389082	0.307183	1.152645
C93	C	-0.944581	-0.142739	0.608944
C94	C	-0.444581	0.357261	1.108944
C95	C	-0.995907	-0.096406	0.652654
C96	C	-0.495907	0.403594	1.152654
C97	C	-0.991731	-0.100158	0.740059
C98	C	-0.491731	0.399842	1.240059
C99	C	-0.962792	-0.126347	0.347538
C100	C	-0.462792	0.373653	0.847538
C101	C	-0.966965	-0.122600	0.260128
C102	C	-0.466965	0.377400	0.760128
C103	C	-0.860140	-0.219011	0.260124
C104	C	-0.360140	0.280989	0.760124
C105	C	-0.855972	-0.222761	0.347531
C106	C	-0.355972	0.277239	0.847531
C107	C	-0.907295	-0.176426	0.391233
C108	C	-0.407295	0.323574	0.891233
N109	N	-0.948847	-0.138901	0.519602
N110	N	-0.448847	0.361099	1.019602
N111	N	-0.903024	-0.180260	0.480574
N112	N	-0.403024	0.319740	0.980574
H113	H	-0.670757	-0.273148	0.000052
H114	H	-0.170757	0.226852	0.500052
O115	O	-1.041556	-0.055046	0.782426
O116	O	-0.541556	0.444954	1.282426
C117	C	-1.029965	0.021565	0.761059
C118	C	-0.529965	0.521565	1.261059
H119	H	-1.002784	0.026039	0.697585
H120	H	-0.502784	0.526039	1.197585
H121	H	-1.089108	0.055367	0.758084
H122	H	-0.589108	0.555367	1.258084
H123	H	-0.988633	0.045239	0.810229
H124	H	-0.488633	0.545239	1.310229
H125	H	-0.181110	-0.046026	0.000118
H126	H	0.318890	0.453974	0.500118
H127	H	-0.522412	-0.261621	0.000068
H128	H	-0.022412	0.238379	0.500068
H129	H	-0.818354	-0.256734	0.224534
H130	H	-0.318354	0.243266	0.724534
H131	H	-0.800800	0.061336	0.000072
H132	H	-0.300800	0.561336	0.500072
O133	O	-0.337457	-0.047356	-0.000004
O134	O	0.162543	0.452644	0.499996
C135	C	-0.388725	-0.043822	-0.071933
C136	C	0.111275	0.456178	0.428067
H137	H	-0.393890	-0.103105	-0.095911
H138	H	0.106110	0.396895	0.404089
H139	H	-0.449470	-0.020040	-0.055763
H140	H	0.050530	0.479960	0.444237
H141	H	-0.364272	-0.005463	-0.122288
H142	H	0.135728	0.494537	0.377712
O143	O	-1.062250	0.626357	-0.000016
O144	O	-0.562250	1.126357	0.499984
C145	C	-1.109447	0.613018	-0.071934
C146	C	-0.609447	1.113018	0.428066
H147	H	-1.091222	0.555337	-0.095910
H148	H	-0.591222	1.055337	0.404090
H149	H	-1.174075	0.613918	-0.055750
H150	H	-0.674075	1.113918	0.444250
H151	H	-1.101209	0.659010	-0.122297
H152	H	-0.601209	1.159010	0.377703
O153	O	-0.780449	0.607774	0.000017
O154	O	-0.280449	1.107774	0.500017
C155	C	-0.718249	0.551806	0.000021
C156	C	-0.218249	1.051806	0.500021
H157	H	-0.741374	0.497987	-0.026263
H158	H	-0.241374	0.997987	0.473737
H159	H	-0.669833	0.573092	-0.040305
H160	H	-0.169833	1.073092	0.459695
H161	H	-0.693242	0.539084	0.066633
H162	H	-0.193242	1.039084	0.566633
O163	O	-1.068713	0.228794	0.000218
O164	O	-0.568713	0.728794	0.500218
C165	C	-1.068814	0.271678	0.072139
C166	C	-0.568814	0.771678	0.572139
H167	H	-1.005449	0.278397	0.096107
H168	H	-0.505449	0.778397	0.596107
H169	H	-1.098896	0.329936	0.055963
H170	H	-0.598896	0.829936	0.555963
H171	H	-1.102176	0.241379	0.122505
H172	H	-0.602176	0.741379	0.622505
H173	H	-1.004583	-0.088620	0.383114
H174	H	-0.504583	0.411380	0.883114
H175	H	-0.794213	0.459061	0.000057
H176	H	-0.294213	0.959061	0.500057
H177	H	-0.556799	-0.013518	0.000110
H178	H	-0.056799	0.486482	0.500110
O179	O	-1.049729	-0.047743	0.610099
O180	O	-0.549729	0.452257	1.110099
C181	C	-1.010282	0.003696	0.559506
C182	C	-0.510282	0.503696	1.059506
H183	H	-0.949488	-0.022110	0.546414
H184	H	-0.449488	0.477890	1.046414
H185	H	-1.045967	0.016265	0.498046
H186	H	-0.545967	0.516265	0.998046
H187	H	-1.003493	0.058528	0.593148
H188	H	-0.503493	0.558528	1.093148
O189	O	-0.712969	-0.014719	0.000046
O190	O	-0.212969	0.485281	0.500046
C191	C	-0.667713	0.049797	0.000075
C192	C	-0.167713	0.549797	0.500075
H193	H	-0.607890	0.035416	-0.026211
H194	H	-0.107890	0.535416	0.473789
H195	H	-0.699884	0.097523	-0.040237
H196	H	-0.199884	0.597523	0.459763
H197	H	-0.658770	0.068620	0.066694
H198	H	-0.158770	0.568620	0.566694
O199	O	-0.830892	-0.245134	0.782462
O200	O	-0.330892	0.254866	1.282462
C201	C	-0.754336	-0.227179	0.761058
C202	C	-0.254336	0.272821	1.261058
H203	H	-0.755228	-0.165533	0.737015
H204	H	-0.255228	0.334467	1.237015
H205	H	-0.712228	-0.235943	0.818528
H206	H	-0.212228	0.264057	1.318528
H207	H	-0.733647	-0.265541	0.710327
H208	H	-0.233647	0.234459	1.210327
H209	H	-1.053439	0.476121	0.000104
H210	H	-0.553439	0.976121	0.500104
O211	O	-1.020803	-0.073898	0.217637
O212	O	-0.520803	0.426102	0.717637
C213	C	-1.007288	0.000927	0.238871
C214	C	-0.507288	0.500927	0.738871
H215	H	-0.943401	0.004180	0.262927
H216	H	-0.443401	0.504180	0.762927
H217	H	-1.019110	0.040739	0.181312
H218	H	-0.519110	0.540739	0.681312
H219	H	-1.048424	0.018367	0.289541
H220	H	-0.548424	0.518367	0.789541
O221	O	-0.299907	-0.316944	-0.000039
O222	O	0.200093	0.183056	0.499961
C223	C	-0.277573	-0.353862	-0.071971
C224	C	0.222427	0.146138	0.428029
H225	H	-0.222039	-0.328755	-0.095934
H226	H	0.277961	0.171245	0.404066
H227	H	-0.265320	-0.416894	-0.055810
H228	H	0.234680	0.083106	0.444190
H229	H	-0.327298	-0.345790	-0.122334
H230	H	0.172702	0.154210	0.377666
O231	O	-0.787167	0.210289	0.000104
O232	O	-0.287167	0.710289	0.500104
C233	C	-0.801189	0.289519	0.000086
C234	C	-0.301189	0.789519	0.500086
H235	H	-0.861155	0.303222	0.026382
H236	H	-0.361155	0.803222	0.526382
H237	H	-0.753148	0.314809	0.040396
H238	H	-0.253148	0.814809	0.540396
H239	H	-0.800603	0.314595	-0.066531
H240	H	-0.300603	0.814595	0.433469
H241	H	-0.847290	-0.230540	0.617062
H242	H	-0.347290	0.269460	1.117062
H243	H	-0.146708	-0.294132	0.000088
H244	H	0.353292	0.205868	0.500088
O245	O	-1.071421	0.073055	0.000077
O246	O	-0.571421	0.573055	0.500077
C247	C	-1.133614	0.129028	0.000102
C248	C	-0.633614	0.629028	0.500102
H249	H	-1.112987	0.185112	-0.026188
H250	H	-0.612987	0.685112	0.473812
H251	H	-1.185874	0.111225	-0.040210
H252	H	-0.685874	0.611225	0.459790
H253	H	-1.152273	0.136007	0.066720
H254	H	-0.652273	0.636007	0.566720
O255	O	-0.801993	-0.271428	0.389849
O256	O	-0.301993	0.228572	0.889849
C257	C	-0.757602	-0.311530	0.332531
C258	C	-0.257602	0.188470	0.832531
H259	H	-0.759748	-0.277772	0.270220
H260	H	-0.259748	0.222228	0.770220
H261	H	-0.693768	-0.320341	0.357773
H262	H	-0.193768	0.179659	0.857773
H263	H	-0.783394	-0.368903	0.323253
H264	H	-0.283394	0.131097	0.823253
