data_functionalizedCrystal
_audit_creation_method	'MofGen! by Chris Wilmer'
_symmetry_space_group_name_H-M	'P1'
_symmetry_Int_Tables_number	1
_symmetry_cell_setting	triclinic
loop_
_symmetry_equiv_pos_as_xyz
  x,y,z
_cell_length_a	13.033409
_cell_length_b	19.120786
_cell_length_c	13.032268
_cell_angle_alpha	85.590044
_cell_angle_beta	74.837427
_cell_angle_gamma	85.590070
loop_
_atom_site_label
_atom_site_type_symbol
_atom_site_fract_x
_atom_site_fract_y
_atom_site_fract_z
Zn1	Zn	1.522530	-0.440936	0.369055
Zn2	Zn	1.539150	-0.544169	0.185636
Zn3	Zn	1.368961	-0.414769	0.215538
Zn4	Zn	1.339069	-0.544143	0.385789
O5	O	1.442427	-0.486004	0.289004
O6	O	1.672738	-0.465592	0.325206
O7	O	1.536039	-0.516064	0.041591
O8	O	1.394886	-0.320893	0.241413
O9	O	1.684949	-0.541437	0.190450
O10	O	1.507712	-0.340119	0.354201
O11	O	1.411002	-0.420994	0.063560
O12	O	1.216992	-0.420969	0.257639
O13	O	1.343940	-0.541393	0.531581
O14	O	1.195030	-0.516019	0.382722
O15	O	1.478728	-0.465567	0.519286
O16	O	1.507055	-0.641512	0.206676
O17	O	1.360056	-0.641493	0.353727
C18	C	1.167635	-0.465652	0.325242
C19	C	1.050074	-0.456964	0.340768
C20	C	0.882210	-0.481565	0.296968
C21	C	1.003717	-0.490547	0.280915
C22	C	1.432141	-0.666747	0.278792
C23	C	1.427832	-0.744080	0.274445
C24	C	1.484493	-0.790360	0.331188
C25	C	1.480441	-0.863022	0.327106
C26	C	1.419732	-0.889402	0.266276
C27	C	1.363065	-0.843116	0.209532
C28	C	1.367112	-0.770455	0.213620
C29	C	1.404571	-1.108292	0.250997
C30	C	1.400530	-1.180958	0.246911
C31	C	1.517905	-1.200859	0.364487
C32	C	1.521952	-1.128196	0.368565
C33	C	1.465280	-1.081917	0.311825
C34	C	1.415591	-0.963674	0.262100
C35	C	1.469416	-1.007646	0.316008
C36	C	1.718292	-0.506437	0.252626
C37	C	1.835850	-0.515144	0.237124
C38	C	1.406145	-0.506396	0.564884
C39	C	1.390684	-0.515086	0.682448
C40	C	1.452779	-0.304559	0.299276
C41	C	1.457191	-0.227238	0.303653
C42	C	1.478632	-0.465646	0.014192
C43	C	1.494309	-0.456776	-0.103387
C44	C	1.450481	-0.481443	0.728778
C45	C	1.434503	-0.490423	0.850286
H46	H	0.999814	-0.421566	0.403896
C47	C	1.544455	-1.240197	0.535606
C48	C	1.580176	-1.251733	0.426870
H49	H	1.582901	-1.271603	0.574123
H50	H	1.470695	-1.248019	0.559709
H51	H	1.555563	-1.193147	0.546731
H52	H	1.569061	-1.298782	0.415745
H53	H	1.653955	-1.243916	0.402760
C54	C	1.253361	-0.592334	0.684255
C55	C	1.305599	-0.562945	0.750327
H56	H	1.200828	-0.621877	0.726162
H57	H	1.303550	-0.619195	0.633591
H58	H	1.220264	-0.555860	0.648217
H59	H	1.338703	-0.599419	0.786360
H60	H	1.255402	-0.536083	0.801010
H61	H	1.526589	-0.900701	0.373303
C62	C	1.231349	-0.677207	0.222169
C63	C	1.304828	-0.719580	0.151248
H64	H	1.192890	-0.645802	0.183664
H65	H	1.268087	-0.651102	0.258972
H66	H	1.183226	-0.705981	0.271959
H67	H	1.352956	-0.690806	0.101463
H68	H	1.268089	-0.745687	0.114428
H69	H	0.886112	-0.550545	0.174009
H70	H	0.831945	-0.446171	0.360092
C71	C	1.522375	-1.058040	0.513532
C72	C	1.588682	-1.099204	0.435437
H73	H	1.563577	-1.040140	0.554809
H74	H	1.469375	-1.085977	0.558433
H75	H	1.489217	-1.020077	0.480311
H76	H	1.621833	-1.137170	0.468658
H77	H	1.641701	-1.071266	0.390530
H78	H	1.533934	-0.768887	0.380717
H79	H	1.053976	-0.525951	0.217797
C80	C	1.284891	-1.153991	0.131116
C81	C	1.333785	-1.209956	0.180050
H82	H	1.243684	-1.171896	0.089847
H83	H	1.337892	-1.126059	0.086205
H84	H	1.239921	-1.126071	0.184114
H85	H	1.378761	-1.237874	0.127051
H86	H	1.280777	-1.237900	0.224964
C87	C	1.189553	-0.848536	0.180217
C88	C	1.296331	-0.872113	0.142668
H89	H	1.148356	-0.866441	0.138938
H90	H	1.183859	-0.798645	0.174526
H91	H	1.164024	-0.864544	0.252650
H92	H	1.321862	-0.856100	0.070237
H93	H	1.302030	-0.922014	0.148349
C94	C	1.679805	-0.433629	0.840681
C95	C	1.579389	-0.408910	0.828732
H96	H	1.732324	-0.404075	0.798775
H97	H	1.694970	-0.480184	0.817939
H98	H	1.680225	-0.433381	0.913433
H99	H	1.578967	-0.409163	0.755981
H100	H	1.564220	-0.362343	0.851468
H101	H	1.358428	-1.070616	0.204795
C102	C	1.469833	-0.937483	0.460961
C103	C	1.536145	-0.978648	0.382870
H104	H	1.511034	-0.919574	0.502231
H105	H	1.416842	-0.965424	0.505870
H106	H	1.436664	-0.899528	0.427738
H107	H	1.569308	-1.016607	0.416094
H108	H	1.589155	-0.950707	0.337955
H109	H	1.366166	-0.985161	0.212568
C110	C	1.513190	-0.364953	0.694423
C111	C	1.535563	-0.433583	0.660895
H112	H	1.565714	-0.335406	0.652509
H113	H	1.513623	-0.364713	0.767162
H114	H	1.445062	-0.348192	0.686317
H115	H	1.603688	-0.450346	0.669008
H116	H	1.535141	-0.433826	0.588138
H117	H	1.371468	-0.525872	0.900575
