data_functionalizedCrystal
_audit_creation_method	'MofGen! by Chris Wilmer'
_symmetry_space_group_name_H-M	'P1'
_symmetry_Int_Tables_number	1
_symmetry_cell_setting	triclinic
loop_
_symmetry_equiv_pos_as_xyz
  x,y,z
_cell_length_a	14.044220
_cell_length_b	17.699083
_cell_length_c	16.176319
_cell_angle_alpha	89.998611
_cell_angle_beta	90.005330
_cell_angle_gamma	91.764054
loop_
_atom_site_label
_atom_site_type_symbol
_atom_site_fract_x
_atom_site_fract_y
_atom_site_fract_z
O1	O	-0.119850	1.012346	-0.068628
O2	O	0.380150	1.512346	0.431372
O3	O	-0.135443	0.793044	-0.068655
O4	O	0.364557	1.293044	0.431345
O5	O	0.010330	0.899403	-0.068638
O6	O	0.510330	1.399403	0.431362
O7	O	-0.265624	0.905987	-0.068645
O8	O	0.234376	1.405987	0.431355
O9	O	0.010340	0.899387	0.068855
O10	O	0.510340	1.399387	0.568855
O11	O	-0.135434	0.793027	0.068838
O12	O	0.364566	1.293027	0.568838
O13	O	-0.119841	1.012330	0.068865
O14	O	0.380159	1.512330	0.568865
Cu15	Cu	-0.127637	0.902677	0.081406
Cu16	Cu	0.372363	1.402677	0.581406
Cu17	Cu	-0.127648	0.902696	-0.081196
Cu18	Cu	0.372352	1.402696	0.418804
O19	O	-0.265614	0.905970	0.068848
O20	O	0.234386	1.405970	0.568848
C21	C	-0.134880	0.764800	0.000088
C22	C	0.365120	1.264800	0.500088
C23	C	-0.133204	0.680666	0.000078
C24	C	0.366796	1.180666	0.500078
C25	C	-0.218769	0.637948	0.000076
C26	C	0.281231	1.137948	0.500076
C27	C	-0.217189	0.558895	0.000087
C28	C	0.282811	1.058895	0.500087
C29	C	-0.130041	0.522563	0.000094
C30	C	0.369959	1.022563	0.500094
C31	C	-0.044469	0.565287	0.000098
C32	C	0.455531	1.065287	0.500098
C33	C	-0.046050	0.644338	0.000093
C34	C	0.453950	1.144338	0.500093
C35	C	-0.038089	0.246484	0.000118
C36	C	0.461911	0.746484	0.500118
C37	C	-0.036514	0.167427	0.000121
C38	C	0.463486	0.667427	0.500121
C39	C	-0.209227	0.161041	0.000112
C40	C	0.290773	0.661041	0.500112
C41	C	-0.210809	0.240092	0.000108
C42	C	0.289191	0.740092	0.500108
C43	C	-0.125237	0.282809	0.000116
C44	C	0.374763	0.782809	0.500116
C45	C	-0.126952	0.368527	0.000106
C46	C	0.373048	0.868527	0.500106
C47	C	-0.128325	0.436847	0.000098
C48	C	0.371675	0.936847	0.500098
C49	C	-0.300927	0.908860	0.000101
C50	C	0.199073	1.408860	0.500101
C51	C	-0.406133	0.917456	0.000099
C52	C	0.093867	1.417456	0.500099
C53	C	-0.598758	0.933171	0.000105
C54	C	-0.098758	1.433171	0.500105
C55	C	-0.656532	0.872205	0.000098
C56	C	-0.156532	1.372205	0.500098
C57	C	-0.763715	0.880949	0.000101
C58	C	-0.263715	1.380949	0.500101
C59	C	-0.491565	0.924428	0.000102
C60	C	0.008435	1.424428	0.500102
C61	C	0.045643	0.896513	0.000107
C62	C	0.545643	1.396513	0.500107
C63	C	0.150849	0.887917	0.000104
C64	C	0.650849	1.387917	0.500104
C65	C	-0.120404	1.040574	0.000120
C66	C	0.379596	1.540574	0.500120
C67	C	-0.122081	1.124707	0.000125
C68	C	0.377919	1.624707	0.500125
N69	N	-0.127628	0.902668	0.195771
N70	N	0.372372	1.402668	0.695771
N71	N	-0.127648	0.902710	-0.195561
N72	N	0.372352	1.402710	0.304439
C73	C	-0.063106	0.949782	0.239043
C74	C	0.436894	1.449782	0.739043
C75	C	-0.063105	0.949786	0.325590
C76	C	0.436895	1.449786	0.825590
C77	C	-0.127632	0.902679	0.368864
C78	C	0.372368	1.402679	0.868864
C79	C	-0.192157	0.855561	0.325586
C80	C	0.307843	1.355561	0.825586
C81	C	-0.192153	0.855554	0.239041
C82	C	0.307847	1.355554	0.739041
C83	C	-0.192175	0.855588	0.674614
C84	C	0.307825	1.355588	1.174614
C85	C	-0.192176	0.855600	0.761166
C86	C	0.307824	1.355600	1.261166
C87	C	-0.063127	0.949820	0.761164
C88	C	0.436873	1.449820	1.261164
C89	C	-0.063123	0.949813	0.674618
C90	C	0.436877	1.449813	1.174618
C91	C	-0.127644	0.902692	0.631348
C92	C	0.372356	1.402692	1.131348
C93	C	-0.127643	0.902687	0.537504
C94	C	0.372357	1.402687	1.037504
C95	C	-0.127638	0.902687	0.462706
C96	C	0.372362	1.402687	0.962706
H97	H	-0.286865	0.524117	0.000085
H98	H	0.213135	1.024117	0.500085
H99	H	-0.244723	0.817238	0.796398
H100	H	0.255277	1.317238	1.296398
H101	H	-0.010583	0.988174	0.639387
H102	H	0.489417	1.488174	1.139387
H103	H	-0.625496	0.813444	0.000092
H104	H	-0.125496	1.313444	0.500092
H105	H	-0.244692	0.817202	0.360825
H106	H	0.255308	1.317202	0.860825
H107	H	-0.629792	0.991928	0.000115
H108	H	-0.129792	1.491928	0.500115
H109	H	0.023626	0.679119	0.000094
H110	H	0.523626	1.179119	0.500094
O111	O	-0.295547	0.275264	0.000138
O112	O	0.204453	0.775264	0.500138
C113	C	-0.370733	0.220607	0.000120
C114	C	0.129267	0.720607	0.500120
H115	H	-0.344288	0.165194	0.026153
H116	H	0.155712	0.665194	0.526153
H117	H	-0.431584	0.241215	0.040037
H118	H	0.068416	0.741215	0.540037
H119	H	-0.397125	0.211217	-0.065842
H120	H	0.102875	0.711217	0.434158
H121	H	-0.244692	0.817188	0.203810
H122	H	0.255308	1.317188	0.703810
H123	H	-0.010565	0.988144	0.203815
H124	H	0.489435	1.488144	0.703815
H125	H	-0.010566	0.988148	0.360821
H126	H	0.489434	1.488148	0.860821
H127	H	-0.010587	0.988186	0.796403
H128	H	0.489413	1.488186	1.296403
H129	H	-0.244712	0.817222	0.639391
H130	H	0.255288	1.317222	1.139391
H131	H	0.034456	0.137848	0.000127
H132	H	0.534456	0.637848	0.500127
O133	O	-0.303486	0.673151	-0.000041
O134	O	0.196514	1.173151	0.499959
C135	C	-0.355630	0.651900	-0.071261
C136	C	0.144370	1.151900	0.428739
H137	H	-0.329925	0.595413	-0.094996
H138	H	0.170075	1.095413	0.405004
H139	H	-0.434577	0.646269	-0.055247
H140	H	0.065423	1.146269	0.444753
H141	H	-0.344555	0.696832	-0.121127
H142	H	0.155445	1.196832	0.378873
O143	O	-0.292292	0.119463	0.000002
O144	O	0.207708	0.619463	0.500002
C145	C	-0.296559	0.073556	-0.071213
C146	C	0.203441	0.573556	0.428787
H147	H	-0.221344	0.064483	-0.094946
H148	H	0.278656	0.564483	0.405054
H149	H	-0.332000	0.016616	-0.055195
H150	H	0.168000	0.516616	0.444805
H151	H	-0.339783	0.102443	-0.121083
H152	H	0.160217	0.602443	0.378917
O153	O	0.045060	0.287937	-0.000025
O154	O	0.545060	0.787937	0.499975
C155	C	0.097986	0.270545	-0.071222
C156	C	0.597986	0.770545	0.428778
H157	H	0.047884	0.246950	-0.120994
H158	H	0.547884	0.746950	0.379006
H159	H	0.136127	0.323977	-0.095123
H160	H	0.636127	0.823977	0.404877
H161	H	0.152743	0.226645	-0.055120
H162	H	0.652743	0.726645	0.444880
O163	O	0.040104	0.529876	0.000069
O164	O	0.540104	1.029876	0.500069
C165	C	0.023155	0.450943	0.000091
C166	C	0.523155	0.950943	0.500091
H167	H	-0.050848	0.437399	-0.025942
H168	H	0.449152	0.937399	0.474058
H169	H	0.078907	0.422940	-0.039823
H170	H	0.578907	0.922940	0.460177
H171	H	0.027700	0.428662	0.066055
H172	H	0.527700	0.928662	0.566055
