data_functionalizedCrystal
_audit_creation_method	'MofGen! by Chris Wilmer'
_symmetry_space_group_name_H-M	'P1'
_symmetry_Int_Tables_number	1
_symmetry_cell_setting	triclinic
loop_
_symmetry_equiv_pos_as_xyz
  x,y,z
_cell_length_a	11.792254
_cell_length_b	14.519709
_cell_length_c	10.268362
_cell_angle_alpha	89.993769
_cell_angle_beta	89.995475
_cell_angle_gamma	83.939371
loop_
_atom_site_label
_atom_site_type_symbol
_atom_site_fract_x
_atom_site_fract_y
_atom_site_fract_z
O1	O	1.506199	0.126460	-0.108302
O2	O	1.839533	0.459794	0.225031
O3	O	2.172866	0.793127	0.558365
O4	O	1.175788	0.139475	-0.108305
O5	O	1.509121	0.472809	0.225028
O6	O	1.842455	0.806142	0.558361
O7	O	1.349754	-0.001238	-0.108292
O8	O	1.683087	0.332095	0.225041
O9	O	2.016421	0.665428	0.558375
O10	O	1.332233	0.267174	-0.108316
O11	O	1.665566	0.600507	0.225018
O12	O	1.998900	0.933840	0.558351
O13	O	1.349739	-0.001244	0.108309
O14	O	1.683072	0.332089	0.441642
O15	O	2.016405	0.665422	0.774975
O16	O	1.175773	0.139469	0.108295
O17	O	1.509106	0.472803	0.441629
O18	O	1.842439	0.806136	0.774962
O19	O	1.506184	0.126454	0.108298
O20	O	1.839517	0.459788	0.441632
O21	O	2.172851	0.793121	0.774965
Cu22	Cu	1.340977	0.132961	0.128074
Cu23	Cu	1.674310	0.466295	0.461408
Cu24	Cu	2.007644	0.799628	0.794741
Cu25	Cu	1.340995	0.132968	-0.128081
Cu26	Cu	1.674328	0.466302	0.205252
Cu27	Cu	2.007662	0.799635	0.538586
O28	O	1.332218	0.267168	0.108285
O29	O	1.665551	0.600501	0.441618
O30	O	1.998885	0.933835	0.774952
C31	C	1.133494	0.138652	-0.000005
C32	C	1.466827	0.471986	0.333328
C33	C	1.800161	0.805319	0.666661
C34	C	1.007495	0.136199	-0.000006
C35	C	1.340828	0.469532	0.333327
C36	C	1.674161	0.802865	0.666661
C37	C	1.348930	-0.035604	0.000009
C38	C	1.682263	0.297729	0.333342
C39	C	2.015596	0.631063	0.666675
C40	C	1.346483	-0.137994	0.000009
C41	C	1.679816	0.195339	0.333343
C42	C	2.013150	0.528672	0.666676
C43	C	0.905169	0.134205	-0.000012
C44	C	1.238503	0.467538	0.333322
C45	C	1.571836	0.800871	0.666655
C46	C	0.776796	0.131711	-0.000012
C47	C	1.110130	0.465045	0.333321
C48	C	1.443463	0.798378	0.666655
C49	C	1.337475	-0.512923	-0.000025
C50	C	1.670808	-0.179590	0.333309
C51	C	2.004142	0.153743	0.666642
C52	C	1.339976	-0.408606	-0.000015
C53	C	1.673310	-0.075273	0.333319
C54	C	2.006643	0.258060	0.666652
C55	C	1.341979	-0.325462	-0.000006
C56	C	1.675312	0.007871	0.333327
C57	C	2.008645	0.341204	0.666660
C58	C	1.344481	-0.221138	0.000001
C59	C	1.677814	0.112195	0.333334
C60	C	2.011147	0.445528	0.666668
C61	C	1.548478	0.127277	-0.000004
C62	C	1.881811	0.460610	0.333329
C63	C	2.215144	0.793944	0.666662
C64	C	1.674477	0.129731	-0.000012
C65	C	2.007811	0.463064	0.333321
C66	C	2.341144	0.796398	0.666655
C67	C	1.333042	0.301534	-0.000018
C68	C	1.666375	0.634867	0.333315
C69	C	1.999709	0.968200	0.666648
C70	C	1.335489	0.403924	-0.000028
C71	C	1.668822	0.737257	0.333306
C72	C	2.002156	1.070591	0.666639
N73	N	1.340973	0.132956	0.308240
N74	N	1.674306	0.466289	0.641573
N75	N	2.007639	0.799623	0.974907
N76	N	1.341008	0.132966	-0.308247
N77	N	1.674342	0.466300	0.025086
N78	N	2.007675	0.799633	0.358420
C79	C	1.340989	0.132966	0.573911
C80	C	1.674323	0.466300	0.907244
C81	C	2.007656	0.799633	1.240577
C82	C	1.340976	0.132963	0.426073
C83	C	1.674310	0.466297	0.759406
C84	C	2.007643	0.799630	1.092739
