data_functionalizedCrystal
_audit_creation_method	'MofGen! by Chris Wilmer'
_symmetry_space_group_name_H-M	'P1'
_symmetry_Int_Tables_number	1
_symmetry_cell_setting	triclinic
loop_
_symmetry_equiv_pos_as_xyz
  x,y,z
_cell_length_a	6.817900
_cell_length_b	19.275516
_cell_length_c	12.200875
_cell_angle_alpha	88.649746
_cell_angle_beta	72.856407
_cell_angle_gamma	109.077597
loop_
_atom_site_label
_atom_site_type_symbol
_atom_site_fract_x
_atom_site_fract_y
_atom_site_fract_z
V1	V	-4.095076	-0.101450	0.354567
O2	O	-4.053799	0.004704	0.350996
O3	O	-4.072566	-0.200993	0.349085
O4	O	-4.064408	-0.099964	0.510600
O5	O	-4.062013	-0.097024	0.188362
V6	V	-4.573052	-0.088743	0.335059
O7	O	-4.368503	-0.129321	0.397359
O8	O	-4.749822	-0.060872	0.292266
O9	O	-4.372356	0.010800	0.340541
O10	O	-4.731727	-0.194897	0.338630
O11	O	-4.723512	-0.093169	0.501263
O12	O	-4.380514	-0.090229	0.179025
C13	C	-3.923291	-0.225257	0.342702
C14	C	-3.986290	-0.306635	0.339260
C15	C	-3.912883	-0.096384	0.548730
C16	C	-3.969263	-0.095828	0.676269
C17	C	-4.184988	0.035060	0.346921
C18	C	-4.099665	0.117966	0.350452
C19	C	-4.101598	-0.455629	0.332967
C20	C	-4.037425	-0.372718	0.336469
V21	V	-4.219181	0.252836	0.345701
O22	O	-4.145899	0.360850	0.339351
O23	O	-4.229986	0.149154	0.346427
O24	O	-4.221196	0.250153	0.507988
O25	O	-4.154750	0.259152	0.176672
V26	V	-4.649826	0.286319	0.294942
O27	O	-4.487615	0.234670	0.373883
O28	O	-4.794530	0.323312	0.238438
O29	O	-4.434188	0.380666	0.308258
O30	O	-4.830841	0.183214	0.293907
O31	O	-4.821990	0.284912	0.456586
O32	O	-4.442978	0.279667	0.146697
C33	C	-4.195381	-0.093811	0.140889
C34	C	-4.118238	-0.094364	0.013350
C35	C	-4.255553	0.397775	0.325400
C36	C	-4.152763	0.478282	0.330172
C37	C	-4.088463	0.246798	0.556548
C38	C	-4.165068	0.247331	0.684106
C39	C	-4.072446	-0.094811	0.909774
C40	C	-4.015019	-0.095377	0.779835
C41	C	-4.266766	0.268941	0.119311
C42	C	-4.171105	0.267544	-0.006943
C43	C	-4.280665	0.180538	0.758329
C44	C	-4.352683	0.181028	0.878186
C45	C	-4.309090	0.248313	0.923817
C46	C	-4.193488	0.315111	0.849584
C47	C	-4.121485	0.314620	0.729730
C48	C	-4.223628	0.200656	-0.053149
C49	C	-4.133742	0.199329	-0.171773
C50	C	-3.991345	0.264892	-0.244190
C51	C	-3.938816	0.331785	-0.197976
C52	C	-4.028690	0.333110	-0.079353
H53	H	-4.446801	0.126631	0.938612
C54	C	-4.146270	0.388081	0.899364
C55	C	-4.234019	0.374201	1.020215
C56	C	-4.190527	0.441401	1.066117
H57	H	-4.211102	0.418040	0.870471
H58	H	-3.992390	0.413116	0.877430
H59	H	-4.387868	0.349178	1.042139
H60	H	-4.169202	0.344252	1.049140
H61	H	-4.036648	0.466436	1.044182
H62	H	-4.255362	0.471356	1.037215
H63	H	-4.250040	0.431992	1.148118
H64	H	-3.822868	0.385164	-0.256956
H65	H	-4.339567	0.147263	0.005800
C66	C	-3.995889	0.387219	0.649345
C67	C	-3.973082	0.446241	0.714974
C68	C	-3.857370	0.513133	0.640971
H69	H	-4.073673	0.392360	0.598448
H70	H	-3.855051	0.387422	0.605534
H71	H	-4.113894	0.446039	0.758766
H72	H	-3.895277	0.441125	0.765868
H73	H	-3.716532	0.513336	0.597160
H74	H	-3.935167	0.518266	0.590078
H75	H	-3.841863	0.553187	0.685490
H76	H	-4.367722	0.248702	1.021413
C77	C	-3.894111	0.263302	-0.372963
C78	C	-3.970656	0.190690	-0.397922
C79	C	-3.881172	0.189194	-0.516536
H80	H	-3.738894	0.280354	-0.394024
H81	H	-3.936742	0.294484	-0.415436
H82	H	-3.928011	0.159518	-0.355464
H83	H	-4.125862	0.173624	-0.376889
H84	H	-3.923804	0.220376	-0.559009
H85	H	-3.725958	0.206248	-0.537586
H86	H	-3.933110	0.139929	-0.533488
C87	C	-4.328295	0.107405	0.709027
C88	C	-4.444986	0.049025	0.799698
C89	C	-4.488929	-0.018359	0.754334
H90	H	-4.194303	0.101890	0.666406
H91	H	-4.412982	0.106808	0.659379
H92	H	-4.360300	0.049620	0.849326
H93	H	-4.579000	0.054514	0.842327
H94	H	-4.573617	-0.018956	0.704687
H95	H	-4.354928	-0.023866	0.711714
H96	H	-4.568126	-0.057978	0.815847
H97	H	-4.176542	0.144856	-0.209382
H98	H	-3.985916	0.387581	-0.041744
