data_functionalizedCrystal
_audit_creation_method	'MofGen! by Chris Wilmer'
_symmetry_space_group_name_H-M	'P1'
_symmetry_Int_Tables_number	1
_symmetry_cell_setting	triclinic
loop_
_symmetry_equiv_pos_as_xyz
  x,y,z
_cell_length_a	16.109301
_cell_length_b	12.376897
_cell_length_c	16.109301
_cell_angle_alpha	77.330855
_cell_angle_beta	83.461481
_cell_angle_gamma	77.337599
loop_
_atom_site_label
_atom_site_type_symbol
_atom_site_fract_x
_atom_site_fract_y
_atom_site_fract_z
O1	O	1.088929	0.093931	0.092649
O2	O	0.846864	0.093949	0.105946
O3	O	0.974548	0.093928	-0.021732
O4	O	0.961245	0.093952	0.220326
O5	O	1.002963	-0.094070	0.006721
O6	O	0.875279	-0.094048	0.134398
O7	O	1.117344	-0.094067	0.121102
Zn8	Zn	1.000823	-0.123906	0.132268
Zn9	Zn	0.963385	0.123789	0.094780
O10	O	0.989660	-0.094046	0.248779
C11	C	0.830097	-0.000047	0.119633
C12	C	0.737800	-0.000041	0.118017
N13	N	1.026380	-0.292952	0.157851
C14	C	0.515529	-0.000047	0.190025
C15	C	0.428810	-0.000054	0.188502
C16	C	0.448686	-0.000064	0.037015
C17	C	0.535404	-0.000065	0.038540
C18	C	0.568823	-0.000050	0.115047
C19	C	0.395384	-0.000057	0.111999
C20	C	0.301360	-0.000065	0.110347
C21	C	0.662854	-0.000045	0.116699
C22	C	0.878480	-0.648011	0.009794
C23	C	0.860580	-0.529680	-0.008114
C24	C	0.902028	-0.470492	0.033376
C25	C	0.961380	-0.529647	0.092777
C26	C	0.979287	-0.647989	0.110682
C27	C	1.002835	-0.470471	0.134264
C28	C	1.062187	-0.529625	0.193665
C29	C	1.080091	-0.647956	0.211567
C30	C	1.038643	-0.707144	0.170077
C31	C	0.984928	-0.352128	0.116359
C32	C	1.085735	-0.352106	0.217247
C33	C	1.103636	-0.470437	0.235155
C34	C	1.134111	-0.000068	0.107414
C35	C	1.226407	-0.000067	0.109029
C36	C	0.988217	-0.000071	-0.038480
C37	C	0.986602	-0.000073	-0.130775
N38	N	0.937835	0.292834	0.069189
C39	C	1.058608	-0.000060	-0.353050
C40	C	1.057083	-0.000051	-0.439771
C41	C	0.905593	-0.000044	-0.419898
C42	C	0.907118	-0.000045	-0.333179
C43	C	0.983629	-0.000059	-0.299757
C44	C	0.980578	-0.000048	-0.473197
C45	C	0.978924	-0.000038	-0.567225
C46	C	0.985283	-0.000067	-0.205723
C47	C	0.975991	-0.000044	0.265527
C48	C	0.977605	-0.000035	0.357821
H49	H	0.542736	-0.000043	0.252323
H50	H	0.578799	-0.000071	-0.022520
Br51	Br	0.822242	-0.728341	-0.046513
H52	H	0.936602	-0.303976	0.067995
Br53	Br	0.356485	-0.000054	0.290264
Br54	Br	1.184180	-0.550731	0.315771
H55	H	0.812257	-0.481525	-0.056480
H56	H	1.120908	-0.000069	-0.325841
Br57	Br	0.877734	-0.309898	0.009071
H58	H	1.053211	-0.803499	0.184659
H59	H	1.128427	-0.696116	0.259928
H60	H	1.119487	-0.303916	0.251031
Br61	Br	1.158844	-0.000046	-0.512096
Br62	Br	0.801761	-0.000021	-0.465264
H63	H	0.846056	-0.000041	-0.289786
H64	H	0.421466	-0.000083	-0.025273
