data_functionalizedCrystal
_audit_creation_method	'MofGen! by Chris Wilmer'
_symmetry_space_group_name_H-M	'P1'
_symmetry_Int_Tables_number	1
_symmetry_cell_setting	triclinic
loop_
_symmetry_equiv_pos_as_xyz
  x,y,z
_cell_length_a	21.295417
_cell_length_b	13.897449
_cell_length_c	13.897441
_cell_angle_alpha	89.976606
_cell_angle_beta	89.963577
_cell_angle_gamma	90.031333
loop_
_atom_site_label
_atom_site_type_symbol
_atom_site_fract_x
_atom_site_fract_y
_atom_site_fract_z
Zn1	Zn	-0.250575	1.474617	-0.545411
Zn2	Zn	0.249425	1.974617	-0.045411
Zn3	Zn	-0.355854	1.474475	-0.384096
Zn4	Zn	0.144146	1.974475	0.115904
Zn5	Zn	-0.250604	1.313306	-0.384121
Zn6	Zn	0.249396	1.813306	0.115879
Zn7	Zn	-0.355812	1.313252	-0.545341
Zn8	Zn	0.144188	1.813252	-0.045341
O9	O	-0.303211	1.393912	-0.464742
O10	O	0.196789	1.893912	0.035258
O11	O	-0.264546	1.609580	-0.524030
O12	O	0.235454	2.109580	-0.024030
O13	O	-0.341922	1.453059	-0.249117
O14	O	0.158078	1.953059	0.250883
O15	O	-0.162511	1.334786	-0.405557
O16	O	0.337489	1.834786	0.094443
O17	O	-0.341894	1.609475	-0.405513
O18	O	0.158106	2.109475	0.094487
O19	O	-0.162490	1.453301	-0.524055
O20	O	0.337510	1.953301	-0.024055
O21	O	-0.264596	1.334649	-0.249136
O22	O	0.235404	1.834649	0.250864
O23	O	-0.264555	1.178317	-0.405489
O24	O	0.235445	1.678317	0.094511
O25	O	-0.341822	1.334694	-0.680332
O26	O	0.158178	1.834694	-0.180332
O27	O	-0.341851	1.178277	-0.523936
O28	O	0.158149	1.678277	-0.023936
O29	O	-0.264505	1.453248	-0.680383
O30	O	0.235495	1.953248	-0.180383
O31	O	-0.443938	1.453006	-0.405445
O32	O	0.056062	1.953006	0.094555
O33	O	-0.443907	1.334556	-0.523911
O34	O	0.056093	1.834556	-0.023911
C35	C	-0.303202	1.143298	-0.464708
C36	C	0.196798	1.643298	0.035292
C37	C	-0.303213	1.036084	-0.464717
C38	C	0.196787	1.536084	0.035283
C39	C	-0.303215	0.949014	-0.464733
C40	C	0.196785	1.449014	0.035267
C41	C	-0.303219	0.839782	-0.464762
C42	C	0.196781	1.339782	0.035238
C43	C	-0.466763	1.393786	-0.464689
C44	C	0.033237	1.893786	0.035311
C45	C	-0.536731	1.393820	-0.464698
C46	C	-0.036731	1.893820	0.035302
C47	C	-0.569593	1.455552	-0.403076
C48	C	-0.069593	1.955552	0.096924
C49	C	-0.635336	1.455597	-0.403098
C50	C	-0.135336	1.955597	0.096902
C51	C	-0.668214	1.393893	-0.464731
C52	C	-0.168214	1.893893	0.035269
C53	C	-0.635344	1.332157	-0.526365
C54	C	-0.135344	1.832157	-0.026365
C55	C	-0.569603	1.332120	-0.526349
C56	C	-0.069603	1.832120	-0.026349
N57	N	-0.771480	1.309512	-0.472074
N58	N	-0.271480	1.809512	0.027926
N59	N	-0.833931	1.309550	-0.472084
N60	N	-0.333931	1.809550	0.027916
C61	C	-0.866288	1.394001	-0.464787
C62	C	-0.366288	1.894001	0.035213
N63	N	-0.833835	1.478416	-0.457460
N64	N	-0.333835	1.978416	0.042540
N65	N	-0.771378	1.478377	-0.457445
N66	N	-0.271378	1.978377	0.042555
C67	C	-0.739499	1.393926	-0.464757
C68	C	-0.239499	1.893926	0.035243
C69	C	-0.970436	1.455787	-0.403185
C70	C	-0.470436	1.955787	0.096815
C71	C	-1.036179	1.455834	-0.403213
C72	C	-0.536179	1.955834	0.096787
C73	C	-1.036187	1.332386	-0.526476
C74	C	-0.536187	1.832386	-0.026476
C75	C	-0.970444	1.332347	-0.526453
C76	C	-0.470444	1.832347	-0.026453
C77	C	-0.937573	1.394047	-0.464802
C78	C	-0.437573	1.894047	0.035198
C79	C	-0.139021	1.394065	-0.464817
C80	C	0.360979	1.894065	0.035183
C81	C	-0.069053	1.394131	-0.464849
C82	C	0.430947	1.894131	0.035151
C83	C	-0.303222	1.645505	-0.464776
C84	C	0.196778	2.145505	0.035224
C85	C	-0.303226	1.752719	-0.464791
C86	C	0.196774	2.252719	0.035209
C87	C	-0.303156	1.393981	-0.716335
C88	C	0.196844	1.893981	-0.216335
C89	C	-0.303132	1.394010	-0.823549
C90	C	0.196868	1.894010	-0.323549
C91	C	-0.303090	1.394036	-1.019845
C92	C	0.196910	1.894036	-0.519845
C93	C	-0.303115	1.394018	-0.910612
C94	C	0.196885	1.894018	-0.410612
C95	C	-0.303221	1.393900	-0.214128
C96	C	0.196779	1.893900	0.285872
C97	C	-0.303068	1.394057	-0.106914
C98	C	0.196932	1.894057	0.393086
H99	H	-0.542831	1.505793	-0.352879
H100	H	-0.042831	2.005793	0.147121
O101	O	-0.938421	1.272463	-0.586274
O102	O	-0.438421	1.772463	-0.086274
C103	C	-0.873347	1.285643	-0.573025
C104	C	-0.373347	1.785643	-0.073025
H105	H	-0.864340	1.360096	-0.541503
H106	H	-0.364340	1.860096	-0.041503
H107	H	-0.848327	1.279046	-0.645264
H108	H	-0.348327	1.779046	-0.145264
H109	H	-0.854752	1.228446	-0.521598
H110	H	-0.354752	1.728446	-0.021598
H111	H	-1.062955	1.282149	-0.576664
H112	H	-0.562955	1.782149	-0.076664
O113	O	-0.667348	1.272351	-0.586283
O114	O	-0.167348	1.772351	-0.086283
C115	C	-0.705300	1.327257	-0.648658
C116	C	-0.205300	1.827257	-0.148658
H117	H	-0.715123	1.400380	-0.614707
H118	H	-0.215123	1.900380	-0.114707
H119	H	-0.751546	1.287986	-0.661558
H120	H	-0.251546	1.787986	-0.161558
H121	H	-0.679922	1.337805	-0.720145
H122	H	-0.179922	1.837805	-0.220145
H123	H	-1.062935	1.506109	-0.353035
H124	H	-0.562935	2.006109	0.146965
H125	H	-0.542846	1.281850	-0.576530
H126	H	-0.042846	1.781850	-0.076530
O127	O	-0.938597	1.515813	-0.343274
O128	O	-0.438597	2.015813	0.156726
C129	C	-0.981703	1.570299	-0.288875
C130	C	-0.481703	2.070299	0.211125
H131	H	-1.028541	1.573651	-0.328404
H132	H	-0.528541	2.073651	0.171596
H133	H	-0.962666	1.646291	-0.278647
H134	H	-0.462666	2.146291	0.221353
H135	H	-0.988759	1.535017	-0.215587
H136	H	-0.488759	2.035017	0.284413
O137	O	-0.667169	1.515593	-0.343140
O138	O	-0.167169	2.015593	0.156860
C139	C	-0.624059	1.570060	-0.288743
C140	C	-0.124059	2.070060	0.211257
H141	H	-0.577219	1.530532	-0.285358
H142	H	-0.077219	2.030532	0.214642
H143	H	-0.643088	1.580389	-0.212758
H144	H	-0.143088	2.080389	0.287242
H145	H	-0.617009	1.643301	-0.324124
H146	H	-0.117009	2.143301	0.175876
