data_functionalizedCrystal
_audit_creation_method	'MofGen! by Chris Wilmer'
_symmetry_space_group_name_H-M	'P1'
_symmetry_Int_Tables_number	1
_symmetry_cell_setting	triclinic
loop_
_symmetry_equiv_pos_as_xyz
  x,y,z
_cell_length_a	10.654548
_cell_length_b	10.654542
_cell_length_c	9.730223
_cell_angle_alpha	90.008022
_cell_angle_beta	90.000020
_cell_angle_gamma	95.516920
loop_
_atom_site_label
_atom_site_type_symbol
_atom_site_fract_x
_atom_site_fract_y
_atom_site_fract_z
O1	O	1.667836	-0.176388	-0.114198
O2	O	1.302357	-0.193196	-0.114224
O3	O	1.493504	-0.002052	-0.114189
O4	O	1.476689	-0.367532	-0.114233
O5	O	1.493492	-0.002047	0.114391
O6	O	1.302344	-0.193191	0.114355
O7	O	1.667824	-0.176382	0.114382
Zn8	Zn	1.485082	-0.184786	0.150661
Zn9	Zn	1.485098	-0.184793	-0.150503
O10	O	1.476676	-0.367527	0.114347
C11	C	1.255553	-0.191960	0.000062
C12	C	1.116109	-0.188269	0.000053
C13	C	1.492265	0.044749	0.000104
C14	C	1.488577	0.184192	0.000112
N15	N	1.485080	-0.184780	0.356197
C16	C	1.714628	-0.177619	0.000092
C17	C	1.854071	-0.181310	0.000093
C18	C	2.050620	-0.186528	0.124663
C19	C	1.919600	-0.183043	0.124684
C20	C	1.919570	-0.183047	-0.124527
C21	C	2.050589	-0.186522	-0.124546
C22	C	1.597645	0.394708	0.000128
C23	C	1.601120	0.263687	0.000128
C24	C	1.372550	0.235724	0.000110
C25	C	1.369076	0.366743	0.000120
C26	C	1.477921	0.585673	0.000073
C27	C	1.481628	0.446232	0.000122
N28	N	1.485110	-0.184788	-0.356039
C29	C	1.569749	-0.100178	0.428139
C30	C	1.569762	-0.100178	0.572022
C31	C	1.400432	-0.269395	0.572009
C32	C	1.400414	-0.269387	0.428128
H33	H	2.103963	-0.187950	0.226120
F34	F	1.724602	0.208859	0.000131
H35	H	1.866207	-0.181627	-0.225971
H36	H	1.280915	0.170988	0.000105
F37	F	1.849907	-0.181191	0.257311
H38	H	1.638705	-0.031286	0.630593
F39	F	1.310332	-0.359439	0.648572
H40	H	1.689292	0.459426	0.000130
H41	H	1.331460	-0.338282	0.369549
F42	F	1.659855	-0.010128	0.351590
F43	F	2.120293	-0.188368	-0.257180
F44	F	1.245588	0.421580	0.000121
