data_functionalizedCrystal
_audit_creation_method	'MofGen! by Chris Wilmer'
_symmetry_space_group_name_H-M	'P1'
_symmetry_Int_Tables_number	1
_symmetry_cell_setting	triclinic
loop_
_symmetry_equiv_pos_as_xyz
  x,y,z
_cell_length_a	13.032831
_cell_length_b	13.897448
_cell_length_c	13.032268
_cell_angle_alpha	97.148041
_cell_angle_beta	90.886977
_cell_angle_gamma	82.822399
loop_
_atom_site_label
_atom_site_type_symbol
_atom_site_fract_x
_atom_site_fract_y
_atom_site_fract_z
Zn1	Zn	1.498483	-0.651422	-0.780818
Zn2	Zn	1.520226	-0.795137	-0.608835
Zn3	Zn	1.348341	-0.611127	-0.587060
Zn4	Zn	1.326474	-0.789922	-0.758960
O5	O	1.423381	-0.711902	-0.683918
O6	O	1.645288	-0.689533	-0.776265
O7	O	1.515676	-0.756047	-0.462030
O8	O	1.368309	-0.481501	-0.612798
O9	O	1.661262	-0.795119	-0.649909
O10	O	1.478618	-0.511106	-0.755151
O11	O	1.389393	-0.620856	-0.446032
O12	O	1.201520	-0.615798	-0.591603
O13	O	1.331040	-0.786231	-0.905776
O14	O	1.185454	-0.747158	-0.717897
O15	O	1.457414	-0.684476	-0.921835
O16	O	1.494472	-0.929417	-0.628714
O17	O	1.352124	-0.925585	-0.739010
C18	C	1.156170	-0.676541	-0.650016
C19	C	1.041852	-0.661439	-0.635536
C20	C	0.982977	-0.719784	-0.691475
C21	C	0.864824	-0.704177	-0.676511
C22	C	1.423310	-0.962504	-0.683879
C23	C	1.423369	-1.069728	-0.683909
C24	C	1.423469	-1.266044	-0.683987
C25	C	1.423410	-1.156800	-0.683946
C26	C	1.691635	-0.747403	-0.717954
C27	C	1.805950	-0.762531	-0.732458
C28	C	1.389363	-0.739266	-0.952165
C29	C	1.374866	-0.750927	-1.066476
C30	C	1.423478	-0.460328	-0.683984
C31	C	1.423519	-0.353122	-0.684012
C32	C	1.430931	-0.705779	-1.125385
C33	C	1.415949	-0.717831	-1.243531
C34	C	1.457326	-0.684583	-0.416723
C35	C	1.472021	-0.672677	-0.302438
H36	H	0.827761	-0.642663	-0.617542
C37	C	1.032189	-0.801822	-0.770199
C38	C	0.954972	-0.852610	-0.818925
C39	C	1.000262	-0.928182	-0.891463
H40	H	1.079075	-0.845364	-0.736165
H41	H	1.068393	-0.775086	-0.820402
H42	H	0.918785	-0.879346	-0.768730
H43	H	0.908081	-0.809095	-0.852979
H44	H	1.036466	-0.901446	-0.941666
H45	H	1.047148	-0.971716	-0.857421
H46	H	0.947877	-0.962645	-0.924539
C47	C	1.509876	-0.642433	-1.076172
C48	C	1.608341	-0.679528	-1.115155
C49	C	1.681090	-0.621190	-1.069859
H50	H	1.509617	-0.642718	-1.003328
H51	H	1.492698	-0.577408	-1.091867
H52	H	1.625514	-0.744536	-1.099453
H53	H	1.608633	-0.679240	-1.187994
H54	H	1.663913	-0.556165	-1.085554
H55	H	1.680822	-0.621479	-0.997016
H56	H	1.747905	-0.646345	-1.096309
C57	C	0.992251	-0.579518	-0.556907
C58	C	0.884926	-0.580352	-0.557664
C59	C	0.839205	-0.504913	-0.485228
H60	H	1.007778	-0.518513	-0.574192
H61	H	1.018505	-0.588797	-0.489961
H62	H	0.858682	-0.571067	-0.624595
H63	H	0.869370	-0.641340	-0.540368
H64	H	0.865458	-0.514192	-0.418282
H65	H	0.854739	-0.443914	-0.502519
H66	H	0.766381	-0.505475	-0.485725
C67	C	1.337245	-0.781273	-1.293094
C68	C	1.338060	-0.780643	-1.400427
C69	C	1.265585	-0.839086	-1.446121
H70	H	1.270299	-0.756309	-1.266896
H71	H	1.354491	-0.846320	-1.277492
H72	H	1.320808	-0.715609	-1.416020
H73	H	1.404988	-0.805615	-1.426654
H74	H	1.282831	-0.904133	-1.430519
H75	H	1.198644	-0.814117	-1.419915
H76	H	1.266135	-0.838674	-1.518951
H77	H	0.843009	-0.824037	-0.791438
H78	H	1.531110	-0.625093	-1.265411
H79	H	1.315770	-0.798494	-1.103508
