data_functionalizedCrystal
_audit_creation_method	'MofGen! by Chris Wilmer'
_symmetry_space_group_name_H-M	'P1'
_symmetry_Int_Tables_number	1
_symmetry_cell_setting	triclinic
loop_
_symmetry_equiv_pos_as_xyz
  x,y,z
_cell_length_a	10.540535
_cell_length_b	13.596369
_cell_length_c	14.519709
_cell_angle_alpha	89.993066
_cell_angle_beta	95.898106
_cell_angle_gamma	90.002927
loop_
_atom_site_label
_atom_site_type_symbol
_atom_site_fract_x
_atom_site_fract_y
_atom_site_fract_z
O1	O	1.684565	0.081740	-0.129949
O2	O	2.184565	0.581740	0.370051
O3	O	1.315027	0.081754	-0.142199
O4	O	1.815027	0.581754	0.357801
O5	O	1.509594	0.081738	-0.001889
O6	O	2.009594	0.581738	0.498111
O7	O	1.489998	0.081756	-0.270260
O8	O	1.989998	0.581756	0.229740
O9	O	1.509574	-0.081845	-0.001881
O10	O	2.009574	0.418155	0.498119
O11	O	1.315007	-0.081829	-0.142192
O12	O	1.815007	0.418171	0.357808
O13	O	1.684546	-0.081843	-0.129942
O14	O	2.184546	0.418157	0.370058
Zn15	Zn	1.499773	-0.107808	-0.136065
Zn16	Zn	1.999773	0.392192	0.363935
Zn17	Zn	1.499799	0.107719	-0.136076
Zn18	Zn	1.999799	0.607719	0.363924
O19	O	1.489979	-0.081827	-0.270252
O20	O	1.989979	0.418173	0.229748
C21	C	1.267723	-0.000036	-0.141278
C22	C	1.767723	0.499964	0.358722
C23	C	1.126803	-0.000031	-0.138532
C24	C	1.626803	0.499969	0.361468
N25	N	1.499765	-0.254900	-0.136058
N26	N	1.999765	0.245100	0.363942
C27	C	1.499797	-0.656191	-0.136076
C28	C	1.999797	-0.156191	0.363924
C29	C	1.499785	-0.544540	-0.136074
C30	C	1.999785	-0.044540	0.363926
C31	C	1.499782	-0.455549	-0.136068
C32	C	1.999782	0.044451	0.363932
C33	C	1.499768	-0.343891	-0.136065
C34	C	1.999768	0.156109	0.363935
C35	C	1.091178	-0.000042	-0.036088
C36	C	1.591178	0.499958	0.463912
C37	C	0.944607	-0.000423	-0.033198
C38	C	1.444607	0.499577	0.466802
C39	C	0.916978	-0.093271	-0.185291
C40	C	1.416978	0.406729	0.314709
C41	C	1.063722	-0.093340	-0.187471
C42	C	1.563722	0.406660	0.312529
C43	C	1.063612	0.092691	-0.188970
C44	C	1.563612	0.592691	0.311030
C45	C	0.917315	0.093907	-0.184233
C46	C	1.417315	0.593907	0.315767
C47	C	1.731849	-0.000051	-0.130863
C48	C	2.231849	0.499949	0.369137
C49	C	1.872770	-0.000050	-0.133609
C50	C	2.372770	0.499950	0.366391
C51	C	1.508671	-0.000054	0.032480
C52	C	2.008671	0.499946	0.532480
C53	C	1.505934	-0.000054	0.134876
C54	C	2.005934	0.499946	0.634876
N55	N	1.499817	0.254811	-0.136076
N56	N	1.999817	0.754811	0.363924
C57	C	1.490902	-0.000033	-0.304621
C58	C	1.990902	0.499967	0.195379
C59	C	1.493638	-0.000026	-0.407017
C60	C	1.993638	0.499974	0.092983
C61	C	1.495859	-0.000028	0.509826
C62	C	1.995859	0.499972	1.009826
C63	C	1.498657	-0.000036	0.405503
C64	C	1.998657	0.499964	0.905503
C65	C	1.500896	-0.000042	0.322354
C66	C	2.000896	0.499958	0.822354
C67	C	1.503695	-0.000048	0.218025
C68	C	2.003695	0.499952	0.718025
H69	H	0.915690	0.066388	0.007221
H70	H	1.415690	0.566388	0.507221
H71	H	1.106406	0.163375	-0.157007
H72	H	1.606406	0.663375	0.342993
C73	C	1.148456	0.090237	0.017066
C74	C	1.648456	0.590237	0.517066
H75	H	1.194615	0.128746	-0.022738
H76	H	1.694615	0.628746	0.477262
H77	H	1.081794	0.128636	0.037973
H78	H	1.581794	0.628636	0.537973
H79	H	1.204336	0.069018	0.068753
H80	H	1.704336	0.569018	0.568753
H81	H	0.868867	-0.096470	-0.259222
H82	H	1.368867	0.403530	0.240778
C83	C	0.906702	-0.091243	0.021134
C84	C	1.406702	0.408757	0.521134
H85	H	0.980925	-0.128054	0.041516
H86	H	1.480925	0.371946	0.541516
H87	H	0.865897	-0.070611	0.073212
H88	H	1.365897	0.429389	0.573212
H89	H	0.849912	-0.131111	-0.017820
H90	H	1.349912	0.368889	0.482180
C91	C	0.850086	0.101895	-0.283244
C92	C	1.350086	0.601895	0.216756
H93	H	0.793726	0.047789	-0.295059
H94	H	1.293726	0.547789	0.204941
H95	H	0.803043	0.161538	-0.289389
H96	H	1.303043	0.661538	0.210611
H97	H	0.912023	0.101262	-0.326375
H98	H	1.412023	0.601262	0.173625
C99	C	1.092555	0.093929	-0.290787
C100	C	1.592555	0.593929	0.209213
H101	H	1.142899	0.038245	-0.302539
H102	H	1.642899	0.538245	0.197461
H103	H	1.014820	0.092025	-0.330144
H104	H	1.514820	0.592025	0.169856
H105	H	1.137835	0.152273	-0.302484
H106	H	1.637835	0.652273	0.197516
H107	H	1.135023	-0.066800	0.002596
H108	H	1.635023	0.433200	0.502596
C109	C	1.118469	-0.187836	-0.140303
C110	C	1.618469	0.312164	0.359697
H111	H	1.050995	-0.225819	-0.119988
H112	H	1.550995	0.274181	0.380012
H113	H	1.161062	-0.225028	-0.183178
H114	H	1.661062	0.274972	0.316822
H115	H	1.177109	-0.170954	-0.088622
H116	H	1.677109	0.329046	0.411378
H117	H	1.085985	-0.097318	-0.262570
H118	H	1.585985	0.402682	0.237430
H119	H	0.886430	-0.162919	-0.149827
H120	H	1.386430	0.337081	0.350173
C121	C	0.879193	0.187078	-0.133436
C122	C	1.379193	0.687078	0.366564
H123	H	0.836302	0.168805	-0.081595
H124	H	1.336302	0.668805	0.418405
H125	H	0.953541	0.223684	-0.112958
H126	H	1.453541	0.723684	0.387042
H127	H	0.824185	0.226218	-0.174418
H128	H	1.324185	0.726218	0.325582
