data_functionalizedCrystal
_audit_creation_method	'MofGen! by Chris Wilmer'
_symmetry_space_group_name_H-M	'P1'
_symmetry_Int_Tables_number	1
_symmetry_cell_setting	triclinic
loop_
_symmetry_equiv_pos_as_xyz
  x,y,z
_cell_length_a	12.827893
_cell_length_b	12.827892
_cell_length_c	12.759393
_cell_angle_alpha	89.968904
_cell_angle_beta	89.980340
_cell_angle_gamma	90.015172
loop_
_atom_site_label
_atom_site_type_symbol
_atom_site_fract_x
_atom_site_fract_y
_atom_site_fract_z
Zn1	Zn	1.597675	-0.415972	-0.594019
Zn2	Zn	2.097675	0.084028	-0.094019
Zn3	Zn	1.597568	-0.590752	-0.418341
Zn4	Zn	2.097568	-0.090752	0.081659
Zn5	Zn	1.422915	-0.416026	-0.418355
Zn6	Zn	1.922915	0.083974	0.081645
Zn7	Zn	1.422902	-0.590671	-0.593978
Zn8	Zn	1.922902	-0.090671	-0.093978
O9	O	1.510265	-0.503355	-0.506173
O10	O	2.010265	-0.003355	-0.006173
O11	O	1.743897	-0.439168	-0.570726
O12	O	2.243897	0.060832	-0.070726
O13	O	1.574361	-0.567631	-0.271321
O14	O	2.074361	-0.067631	0.228679
O15	O	1.446147	-0.269783	-0.441680
O16	O	1.946147	0.230217	0.058320
O17	O	1.743819	-0.567579	-0.441656
O18	O	2.243819	-0.067579	0.058344
O19	O	1.574543	-0.269743	-0.570740
O20	O	2.074543	0.230257	-0.070740
O21	O	1.446044	-0.439261	-0.271332
O22	O	1.946044	0.060739	0.228668
O23	O	1.276677	-0.439182	-0.441640
O24	O	1.776677	0.060818	0.058360
O25	O	1.446125	-0.567440	-0.741005
O26	O	1.946125	-0.067440	-0.241005
O27	O	1.276668	-0.567493	-0.570670
O28	O	1.776668	-0.067493	-0.070670
O29	O	1.574530	-0.439089	-0.741035
O30	O	2.074530	0.060911	-0.241035
O31	O	1.574349	-0.736978	-0.441617
O32	O	2.074349	-0.236978	0.058383
O33	O	1.446022	-0.736918	-0.570657
O34	O	1.946022	-0.236918	-0.070657
C35	C	1.238755	-0.503335	-0.506153
C36	C	1.738755	-0.003335	-0.006153
C37	C	1.122602	-0.503352	-0.506170
C38	C	1.622602	-0.003352	-0.006170
C39	C	1.070840	-0.566943	-0.569919
C40	C	1.570840	-0.066943	-0.069919
C41	C	0.950790	-0.566962	-0.569938
C42	C	1.450790	-0.066962	-0.069938
C43	C	1.510201	-0.774865	-0.506154
C44	C	2.010201	-0.274865	-0.006154
C45	C	1.510269	-0.891018	-0.506181
C46	C	2.010269	-0.391018	-0.006181
C47	C	1.446754	-0.942808	-0.569987
C48	C	1.946754	-0.442808	-0.069987
C49	C	1.446823	-1.062858	-0.570016
C50	C	1.946823	-0.562858	-0.070016
C51	C	1.782835	-0.503376	-0.506194
C52	C	2.282835	-0.003376	-0.006194
C53	C	1.898988	-0.503385	-0.506203
C54	C	2.398988	-0.003385	-0.006203
C55	C	1.510338	-0.503250	-0.780207
C56	C	2.010338	-0.003250	-0.280207
C57	C	1.510369	-0.503205	-0.896983
C58	C	2.010369	-0.003205	-0.396983
C59	C	1.510358	-0.230785	-0.506216
C60	C	2.010358	0.269215	-0.006216
C61	C	1.510398	-0.114632	-0.506234
C62	C	2.010398	0.385368	-0.006234
C63	C	1.443579	-0.436350	-0.951850
C64	C	1.943579	0.063650	-0.451850
C65	C	1.443603	-0.436318	-1.061574
C66	C	1.943603	0.063682	-0.561574
C67	C	1.577218	-0.569998	-1.061555
C68	C	2.077218	-0.069998	-0.561555
C69	C	1.577187	-0.570035	-0.951833
C70	C	2.077187	-0.070035	-0.451833
C71	C	1.510253	-0.503385	-0.233206
C72	C	2.010253	-0.003385	0.266794
C73	C	1.510424	-0.503136	-0.116430
C74	C	2.010424	-0.003136	0.383570
H75	H	1.115402	-0.621369	-0.624488
H76	H	1.615402	-0.121369	-0.124488
H77	H	1.631579	-0.624480	-0.907159
H78	H	2.131579	-0.124480	-0.407159
F79	F	1.064363	-0.432201	-0.434852
F80	F	1.564363	0.067799	0.065148
F81	F	0.892611	-0.638131	-0.641273
F82	F	1.392611	-0.138131	-0.141273
F83	F	0.957161	-0.432224	-0.434854
F84	F	1.457161	0.067776	0.065146
F85	F	1.372504	-0.365173	-1.119963
F86	F	1.872504	0.134827	-0.619963
F87	F	1.375750	-1.121069	-0.641426
F88	F	1.875750	-0.621069	-0.141426
F89	F	1.375608	-0.884600	-0.641362
F90	F	1.875608	-0.384600	-0.141362
F91	F	1.372462	-0.365226	-0.893479
F92	F	1.872462	0.134774	-0.393479
F93	F	1.648328	-0.641118	-1.119939
F94	F	2.148328	-0.141118	-0.619939
H95	H	1.564783	-1.070102	-0.451608
H96	H	2.064783	-0.570102	0.048392
H97	H	1.564694	-0.935556	-0.451572
H98	H	2.064694	-0.435556	0.048428
