data_functionalizedCrystal
_audit_creation_method	'MofGen! by Chris Wilmer'
_symmetry_space_group_name_H-M	'P1'
_symmetry_Int_Tables_number	1
_symmetry_cell_setting	triclinic
loop_
_symmetry_equiv_pos_as_xyz
  x,y,z
_cell_length_a	18.050591
_cell_length_b	18.050590
_cell_length_c	18.050591
_cell_angle_alpha	90.023400
_cell_angle_beta	90.001519
_cell_angle_gamma	90.017393
loop_
_atom_site_label
_atom_site_type_symbol
_atom_site_fract_x
_atom_site_fract_y
_atom_site_fract_z
Zn1	Zn	1.135276	-0.295729	0.419822
Zn2	Zn	1.135227	-0.419913	0.295630
Zn3	Zn	1.011115	-0.295738	0.295655
Zn4	Zn	1.011064	-0.419879	0.419788
O5	O	1.073171	-0.357815	0.357724
O6	O	1.239194	-0.312212	0.403351
O7	O	1.118764	-0.403458	0.191709
O8	O	1.027627	-0.191813	0.312151
O9	O	1.239158	-0.403449	0.312108
O10	O	1.118848	-0.191806	0.403375
O11	O	1.027580	-0.312228	0.191727
O12	O	0.907184	-0.312196	0.312118
O13	O	1.027541	-0.403393	0.523717
O14	O	0.907147	-0.403402	0.403318
O15	O	1.118798	-0.312180	0.523742
O16	O	1.118715	-0.523833	0.312075
O17	O	1.027493	-0.523808	0.403293
C18	C	0.880219	-0.357797	0.357718
C19	C	0.797673	-0.357807	0.357733
C20	C	0.548849	-0.407507	0.407260
C21	C	0.598232	-0.425578	0.339473
C22	C	0.500552	-0.357830	0.357731
C23	C	0.598250	-0.339783	0.425514
C24	C	0.646538	-0.357821	0.357736
C25	C	0.548849	-0.375936	0.289909
C26	C	0.548863	-0.290109	0.375996
C27	C	0.598224	-0.308155	0.308163
C28	C	0.416454	-0.357838	0.357730
C29	C	0.730634	-0.357813	0.357729
C30	C	1.073114	-0.550767	0.357694
C31	C	1.073157	-0.633313	0.357706
C32	C	1.122867	-0.832750	0.308171
C33	C	1.140992	-0.882089	0.375950
C34	C	1.073199	-0.784443	0.357736
C35	C	1.055150	-0.882186	0.289988
C36	C	1.073241	-0.930428	0.357759
C37	C	1.091359	-0.832695	0.425550
C38	C	1.005486	-0.832788	0.339542
C39	C	1.023585	-0.882104	0.407368
C40	C	1.073177	-0.700345	0.357722
C41	C	1.073264	-1.014525	0.357780
C42	C	1.266876	-0.357834	0.357730
C43	C	1.349422	-0.357842	0.357733
C44	C	1.073169	-0.357782	0.551429
C45	C	1.073169	-0.357768	0.633975
C46	C	1.073248	-0.164109	0.357770
C47	C	1.073281	-0.081563	0.357789
C48	C	1.122809	-0.308190	0.833439
C49	C	1.055064	-0.290024	0.882839
C50	C	1.073172	-0.357791	0.785105
C51	C	1.140919	-0.375945	0.882787
C52	C	1.073181	-0.357812	0.931091
C53	C	1.005391	-0.339590	0.833418
C54	C	1.091291	-0.425542	0.833362
C55	C	1.023499	-0.407402	0.882740
C56	C	1.073168	-0.357777	0.701007
C57	C	1.073177	-0.357826	1.015187
C58	C	1.073171	-0.357854	1.164772
C59	C	1.073183	-0.357837	1.082226
H60	H	0.619767	-0.266140	0.266232
O61	O	0.522999	-0.221835	0.394580
C62	C	0.548140	-0.203017	0.466110
H63	H	0.562001	-0.255686	0.498057
H64	H	0.599809	-0.166978	0.461488
C65	C	0.470059	-0.095310	0.468095
C66	C	0.487077	-0.159999	0.507335
H67	H	0.432395	-0.068771	0.493524
H68	H	0.453123	-0.107985	0.419903
H69	H	0.513122	-0.065285	0.464246
H70	H	0.444017	-0.190026	0.511175
H71	H	0.504005	-0.147327	0.555529
O72	O	0.624052	-0.321659	0.493952
C73	C	0.598909	-0.374198	0.545982
H74	H	0.546900	-0.402459	0.523927
H75	H	0.643886	-0.417461	0.555617
C76	C	0.644821	-0.300262	0.646681
C77	C	0.580939	-0.334968	0.619596
H78	H	0.633739	-0.276064	0.692091
H79	H	0.661763	-0.264866	0.611628
H80	H	0.682296	-0.336320	0.654705
H81	H	0.543469	-0.298909	0.611564
H82	H	0.563990	-0.370357	0.654650
H83	H	1.106586	-0.811048	0.482903
O84	O	1.109551	-0.493828	0.807285
C85	C	1.108639	-0.493010	0.729185
H86	H	1.071531	-0.446048	0.709077
H87	H	1.167317	-0.484222	0.707534
C88	C	1.124082	-0.625107	0.724976
C89	C	1.078500	-0.567431	0.700280
H90	H	1.105495	-0.671013	0.707145
H91	H	1.124700	-0.625658	0.777594
H92	H	1.172977	-0.617773	0.706932
H93	H	1.029609	-0.574760	0.718331
H94	H	1.077874	-0.566882	0.647664
O95	O	1.173089	-0.806924	0.258301
C96	C	1.244426	-0.832060	0.277768
H97	H	1.245780	-0.845879	0.339372
H98	H	1.258394	-0.883754	0.244264
C99	C	1.299990	-0.754049	0.185411
C100	C	1.301655	-0.771015	0.261076
H101	H	1.335292	-0.716396	0.175112
H102	H	1.251928	-0.737116	0.172294
H103	H	1.311628	-0.797132	0.157500
H104	H	1.290008	-0.727935	0.288985
H105	H	1.349716	-0.787939	0.274198
O106	O	1.036998	-0.908031	0.221571
C107	C	1.089500	-0.882899	0.169488
H108	H	1.117756	-0.830868	0.191508
H109	H	1.132773	-0.927866	0.159820
C110	C	1.015525	-0.928891	0.068865
C111	C	1.050224	-0.864983	0.095908
H112	H	0.991299	-0.917843	0.023476
H113	H	0.980154	-0.945826	0.103954
H114	H	1.051592	-0.966358	0.060814
H115	H	1.014156	-0.827520	0.103967
H116	H	1.085588	-0.848041	0.060818
O117	O	1.209381	-0.907801	0.394303
C118	C	1.257481	-0.847465	0.406540
H119	H	1.235617	-0.796625	0.376145
H120	H	1.260637	-0.835239	0.468428
C121	C	1.362144	-0.929195	0.414697
C122	C	1.335294	-0.866753	0.377360
H123	H	1.410144	-0.941093	0.396701
H124	H	1.329739	-0.969845	0.406456
H125	H	1.364768	-0.918999	0.466269
H126	H	1.332662	-0.876954	0.325792
H127	H	1.367701	-0.826106	0.385592
H128	H	0.981601	-0.903638	0.449341
O129	O	0.937192	-0.806959	0.321016
C130	C	0.918345	-0.832148	0.249509
H131	H	0.971002	-0.846007	0.217515
H132	H	0.882327	-0.883828	0.254173
C133	C	0.810608	-0.754108	0.247609
C134	C	0.875282	-0.771124	0.208312
H135	H	0.784041	-0.716467	0.222197
H136	H	0.823303	-0.737139	0.295786
H137	H	0.780601	-0.797179	0.251493
H138	H	0.905291	-0.728055	0.204436
H139	H	0.862590	-0.788084	0.160133
O140	O	0.973473	-0.457534	0.908451
C141	C	1.010290	-0.511352	0.951420
H142	H	1.071152	-0.513594	0.934711
H143	H	1.005794	-0.496159	1.012564
C144	C	0.899613	-0.584878	0.958854
C145	C	0.974364	-0.587637	0.938328
H146	H	0.877450	-0.631934	0.950782
H147	H	0.874807	-0.548619	0.929907
H148	H	0.895876	-0.572215	1.009807
H149	H	0.978099	-0.600291	0.887374
H150	H	0.999169	-0.623900	0.967266
O151	O	1.172735	-0.258003	0.807640
C152	C	1.153363	-0.186658	0.832869
H153	H	1.091764	-0.185254	0.846727
H154	H	1.186897	-0.172742	0.884558
C155	C	1.245770	-0.131145	0.754863
C156	C	1.170112	-0.129419	0.771878
H157	H	1.256104	-0.095836	0.717244
H158	H	1.258824	-0.179212	0.737868
H159	H	1.273706	-0.119551	0.797943
H160	H	1.142178	-0.141023	0.728802
H161	H	1.157053	-0.081353	0.788865
O162	O	1.036889	-0.221689	0.908862
C163	C	1.095259	-0.194198	0.952912
H164	H	1.129801	-0.242425	0.974538
H165	H	1.131734	-0.156099	0.918174
C166	C	1.020662	-0.091251	0.992183
C167	C	1.063084	-0.150486	1.018749
H168	H	1.000816	-0.064285	1.032792
H169	H	0.981338	-0.109771	0.962503
H170	H	1.051065	-0.059510	0.963234
H171	H	1.032679	-0.182230	1.047688
H172	H	1.102403	-0.131970	1.048435
O173	O	0.936973	-0.321218	0.807787
C174	C	0.889125	-0.308366	0.868176
H175	H	0.911054	-0.338447	0.919178
H176	H	0.886232	-0.246377	0.879942
C177	C	0.784212	-0.300485	0.786708
C178	C	0.811142	-0.337436	0.849349
H179	H	0.736107	-0.318413	0.775095
H180	H	0.816448	-0.309141	0.746023
H181	H	0.781808	-0.248830	0.796521
H182	H	0.813554	-0.389089	0.839532
H183	H	0.778904	-0.328790	0.890032
O184	O	0.523013	-0.457765	0.457079
C185	C	0.548185	-0.529083	0.437551
H186	H	0.562039	-0.530399	0.375948
H187	H	0.599865	-0.543050	0.471052
C188	C	0.470142	-0.584724	0.529843
C189	C	0.487151	-0.586342	0.454180
H190	H	0.432495	-0.620045	0.540103
H191	H	0.453184	-0.536675	0.543001
H192	H	0.513214	-0.596361	0.557751
H193	H	0.444082	-0.574696	0.426273
H194	H	0.504100	-0.634390	0.441017
O195	O	0.624196	-0.493887	0.321140
C196	C	0.668230	-0.521480	0.379441
H197	H	0.689901	-0.473312	0.414094
H198	H	0.633464	-0.559634	0.415830
C199	C	0.707405	-0.624310	0.304598
C200	C	0.734026	-0.565149	0.347155
H201	H	0.747989	-0.651250	0.284684
H202	H	0.677736	-0.605722	0.265320
H203	H	0.678433	-0.656097	0.334929
H204	H	0.762989	-0.533359	0.316822
H205	H	0.763701	-0.583732	0.386427
H206	H	0.527240	-0.391266	0.232572
O207	O	1.209318	-0.394171	0.908571
C208	C	1.261461	-0.341705	0.883468
H209	H	1.239466	-0.313407	0.831482
H210	H	1.271193	-0.298460	0.928479
C211	C	1.362001	-0.415793	0.929316
C212	C	1.334989	-0.381041	0.865463
H213	H	1.407358	-0.440056	0.918213
H214	H	1.326872	-0.451139	0.946231
H215	H	1.370105	-0.379749	0.966819
H216	H	1.326877	-0.417086	0.827965
H217	H	1.370119	-0.345702	0.848541
