data_functionalizedCrystal
_audit_creation_method	'MofGen! by Chris Wilmer'
_symmetry_space_group_name_H-M	'P1'
_symmetry_Int_Tables_number	1
_symmetry_cell_setting	triclinic
loop_
_symmetry_equiv_pos_as_xyz
  x,y,z
_cell_length_a	13.185408
_cell_length_b	16.992695
_cell_length_c	15.455301
_cell_angle_alpha	87.173129
_cell_angle_beta	93.612142
_cell_angle_gamma	108.679139
loop_
_atom_site_label
_atom_site_type_symbol
_atom_site_fract_x
_atom_site_fract_y
_atom_site_fract_z
O1	O	1.433929	0.198459	0.072061
O2	O	1.933929	0.698459	0.572061
O3	O	1.123234	0.120415	0.072078
O4	O	1.623234	0.620415	0.572078
O5	O	1.277336	0.273317	0.072063
O6	O	1.777336	0.773317	0.572063
O7	O	1.279828	0.045557	0.072077
O8	O	1.779828	0.545557	0.572077
O9	O	1.268429	0.277567	-0.072199
O10	O	1.768429	0.777567	0.427801
O11	O	1.114327	0.124665	-0.072184
O12	O	1.614327	0.624665	0.427816
O13	O	1.425022	0.202709	-0.072201
O14	O	1.925022	0.702709	0.427799
Cu15	Cu	1.268861	0.164075	-0.085365
Cu16	Cu	1.768861	0.664075	0.414635
Cu17	Cu	1.279395	0.159049	0.085242
Cu18	Cu	1.779395	0.659049	0.585242
O19	O	1.270920	0.049807	-0.072186
O20	O	1.770920	0.549807	0.427814
C21	C	1.078842	0.114628	-0.000051
C22	C	1.578842	0.614628	0.499949
C23	C	0.959836	0.091062	-0.000044
C24	C	1.459836	0.591062	0.499956
C25	C	0.897279	0.007155	-0.000037
C26	C	1.397279	0.507155	0.499963
C27	C	0.785465	-0.014989	-0.000044
C28	C	1.285465	0.485011	0.499956
C29	C	0.736199	0.046772	-0.000050
C30	C	1.236199	0.546772	0.499950
C31	C	0.798756	0.130680	-0.000051
C32	C	1.298756	0.630680	0.499949
C33	C	0.910580	0.152826	-0.000051
C34	C	1.410580	0.652826	0.499949
C35	C	0.749500	0.192443	-0.000064
C36	C	1.249500	0.692443	0.499936
C37	C	0.812058	0.276352	-0.000065
C38	C	1.312058	0.776352	0.499935
C39	C	0.923871	0.298494	-0.000065
C40	C	1.423871	0.798494	0.499935
C41	C	0.973137	0.236733	-0.000058
C42	C	1.473137	0.736733	0.499942
C43	C	0.637677	0.170297	-0.000064
C44	C	1.137677	0.670297	0.499936
C45	C	0.650978	0.315969	-0.000078
C46	C	1.150978	0.815969	0.499922
C47	C	0.762791	0.338113	-0.000071
C48	C	1.262791	0.838113	0.499929
C49	C	1.269678	0.303978	-0.000068
C50	C	1.769678	0.803978	0.499932
C51	C	1.260116	0.389005	-0.000067
C52	C	1.760116	0.889005	0.499933
C53	C	1.469415	0.208496	-0.000070
C54	C	1.969415	0.708496	0.499930
C55	C	1.588421	0.232062	-0.000071
C56	C	2.088421	0.732062	0.499929
C57	C	1.278579	0.019145	-0.000053
C58	C	1.778579	0.519145	0.499947
C59	C	1.288140	-0.065881	-0.000048
C60	C	1.788140	0.434119	0.499952
N61	N	1.261460	0.167613	-0.205361
N62	N	1.761460	0.667613	0.294639
C63	C	1.352370	0.458713	-0.000073
C64	C	1.852370	0.958713	0.499927
C65	C	1.343380	0.538602	-0.000064
C66	C	1.843380	1.038602	0.499936
C67	C	1.242136	0.548782	-0.000056
C68	C	1.742136	1.048782	0.499944
C69	C	1.149875	0.479066	-0.000047
C70	C	1.649875	0.979066	0.499953
C71	C	1.158867	0.399178	-0.000050
C72	C	1.658867	0.899178	0.499950
C73	C	1.204871	0.784515	-0.000042
C74	C	1.704871	1.284515	0.499958
C75	C	1.195887	0.864411	-0.000042
C76	C	1.695887	1.364411	0.499958
C77	C	1.389393	0.923942	-0.000058
C78	C	1.889393	1.423942	0.499942
C79	C	1.398374	0.844050	-0.000065
C80	C	1.898374	1.344050	0.499935
C81	C	1.306115	0.774341	-0.000052
C82	C	1.806115	1.274341	0.499948
N83	N	1.232944	0.630441	-0.000050
N84	N	1.732944	1.130441	0.499950
N85	N	1.315307	0.692684	-0.000052
N86	N	1.815307	1.192684	0.499948
C87	C	1.327675	0.135928	-0.250752
C88	C	1.827675	0.635928	0.249248
C89	C	1.322092	0.138611	-0.341560
C90	C	1.822092	0.638611	0.158440
C91	C	1.250287	0.172974	-0.386975
C92	C	1.750287	0.672974	0.113025
C93	C	1.184070	0.204663	-0.341578
C94	C	1.684070	0.704663	0.158422
C95	C	1.189659	0.201985	-0.250771
C96	C	1.689659	0.701985	0.249229
C97	C	1.226176	0.184530	-0.658558
C98	C	1.726176	0.684530	-0.158558
C99	C	1.220589	0.187204	-0.749371
C100	C	1.720589	0.687204	-0.249371
C101	C	1.358613	0.121153	-0.749347
C102	C	1.858613	0.621153	-0.249347
C103	C	1.364192	0.118473	-0.658539
C104	C	1.864192	0.618473	-0.158539
C105	C	1.297978	0.150166	-0.613149
C106	C	1.797978	0.650166	-0.113149
N107	N	1.244576	0.175715	-0.479796
N108	N	1.744576	0.675715	0.020204
N109	N	1.303695	0.147430	-0.520330
N110	N	1.803695	0.647430	-0.020330
N111	N	1.286804	0.155519	0.205238
N112	N	1.786804	0.655519	0.705238
H113	H	0.813741	0.406432	-0.000072
H114	H	1.313741	0.906432	0.499928
H115	H	1.376013	0.112812	-0.378514
H116	H	1.876013	0.612812	0.121486
C117	C	1.509751	0.832861	-0.000076
C118	C	2.009751	1.332861	0.499924
N119	N	1.593641	0.824434	-0.000087
N120	N	2.093641	1.324434	0.499913
H121	H	0.610868	0.366258	-0.000043
H122	H	1.110868	0.866258	0.499957
H123	H	1.129746	0.727766	-0.000031
H124	H	1.629746	1.227766	0.499969
C125	C	1.153329	0.219385	-0.608641
C126	C	1.653329	0.719385	-0.108641
N127	N	1.098455	0.245637	-0.571041
N128	N	1.598455	0.745637	-0.071041
C129	C	1.463747	0.447526	-0.000083
C130	C	1.963747	0.947526	0.499917
N131	N	1.547640	0.439102	-0.000086
N132	N	2.047640	0.939102	0.499914
H133	H	1.162112	0.215184	-0.786345
H134	H	1.662112	0.715184	-0.286345
C135	C	1.084506	0.875603	-0.000026
C136	C	1.584506	1.375603	0.499974
N137	N	1.000618	0.884034	-0.000014
N138	N	1.500618	1.384034	0.499986
H139	H	1.125610	0.232647	-0.378562
H140	H	1.625610	0.732647	0.121438
H141	H	1.418503	0.595358	-0.000071
H142	H	1.918503	1.095358	0.499929
H143	H	1.135740	0.227786	-0.213815
H144	H	1.635740	0.727786	0.286185
C145	C	1.443189	0.080678	-0.608589
C146	C	1.943189	0.580678	-0.108589
N147	N	1.502691	0.052210	-0.570966
N148	N	2.002691	0.552210	-0.070966
H149	H	0.734539	-0.083307	-0.000043
H150	H	1.234539	0.416693	0.499957
H151	H	1.464505	0.980706	-0.000067
H152	H	1.964505	1.480706	0.499933
C153	C	1.096138	0.261088	-0.000060
C154	C	1.596138	0.761088	0.499940
N155	N	1.188784	0.279429	-0.000065
N156	N	1.688784	0.779429	0.499935
H157	H	0.974802	0.366818	-0.000076
H158	H	1.474802	0.866818	0.499924
C159	C	1.038505	0.490266	-0.000045
C160	C	1.538505	0.990266	0.499955
N161	N	0.954617	0.498701	-0.000050
N162	N	1.454617	0.998701	0.499950
H163	H	1.083744	0.342420	-0.000045
H164	H	1.583744	0.842420	0.499955
H165	H	0.645155	0.028737	-0.000057
H166	H	1.145155	0.528737	0.499943
C167	C	1.431451	0.086301	-0.799283
C168	C	1.931451	0.586301	-0.299283
N169	N	1.486320	0.060053	-0.836895
N170	N	1.986320	0.560053	-0.336895
H171	H	0.586753	0.101978	-0.000065
H172	H	1.086753	0.601978	0.499935
C173	C	1.406667	0.098127	-0.200804
C174	C	1.906667	0.598127	0.299196
N175	N	1.466169	0.069657	-0.163185
N176	N	1.966169	0.569657	0.336815
H177	H	0.937402	-0.043121	-0.000039
H178	H	1.437402	0.456879	0.499961
