data_functionalizedCrystal
_audit_creation_method	'MofGen! by Chris Wilmer'
_symmetry_space_group_name_H-M	'P1'
_symmetry_Int_Tables_number	1
_symmetry_cell_setting	triclinic
loop_
_symmetry_equiv_pos_as_xyz
  x,y,z
_cell_length_a	19.902436
_cell_length_b	14.809374
_cell_length_c	14.809374
_cell_angle_alpha	60.797835
_cell_angle_beta	89.997995
_cell_angle_gamma	52.842408
loop_
_atom_site_label
_atom_site_type_symbol
_atom_site_fract_x
_atom_site_fract_y
_atom_site_fract_z
Zr1	Zr	-0.061367	0.758624	1.086096
O2	O	-0.197947	0.979770	0.949553
O3	O	-0.010284	0.562179	1.111827
O4	O	-0.163756	0.747728	1.135078
O5	O	0.066106	0.794202	0.926306
O6	O	-0.147267	0.711036	1.299768
O7	O	-0.044474	0.794221	0.926302
O8	O	0.127267	0.379121	1.258177
O9	O	-0.208428	1.126117	0.967897
O10	O	0.012676	0.606448	1.265191
O11	O	0.082896	0.633817	1.142288
O12	O	-0.097798	0.852278	1.169663
O13	O	-0.027579	0.879648	1.046759
Zr14	Zr	0.141295	0.700075	1.348764
Zr15	Zr	-0.035068	0.700104	1.348758
Zr16	Zr	0.114997	0.758595	1.086102
Zr17	Zr	-0.078082	0.992030	1.115353
Zr18	Zr	0.158011	0.466669	1.319507
O19	O	0.090212	0.896520	1.323032
O20	O	-0.160554	0.896562	1.323024
O21	O	0.052819	0.979728	0.949562
O22	O	0.277875	0.478928	1.485307
O23	O	0.027109	0.478971	1.485298
O24	O	0.240482	0.562136	1.111836
O25	O	0.013822	0.664497	1.508554
O26	O	0.243685	0.710970	1.299782
O27	O	0.227195	0.747663	1.135092
O28	O	0.124403	0.664478	1.508558
O29	O	-0.187524	1.079601	1.176678
O30	O	0.267452	0.379098	1.258182
O31	O	0.288356	0.332582	1.466963
O32	O	0.148171	0.332606	1.466958
O33	O	-0.068242	1.126093	0.967902
O34	O	-0.047338	1.079578	1.176683
O35	O	0.177727	0.606420	1.265197
O36	O	0.107507	0.579051	1.388101
O37	O	-0.002967	0.824881	1.292572
O38	O	0.067252	0.852251	1.169668
C39	C	0.060873	0.437395	1.180834
C40	C	0.067969	0.338308	1.168413
C41	C	0.036300	0.280555	1.223844
C42	C	0.043633	0.178143	1.211008
C43	C	-0.180639	0.729386	1.217422
C44	C	-0.255510	0.729399	1.217420
C45	C	-0.527505	0.729332	1.217434
C46	C	-0.568742	0.884490	1.156801
C47	C	-0.490877	0.884502	1.157143
C48	C	-0.392566	0.729366	1.217426
C49	C	-0.376705	0.631177	1.342399
C50	C	-0.455037	0.632152	1.342088
C51	C	-0.472639	0.671138	1.154045
C52	C	-0.396175	0.674332	1.151661
C53	C	-0.316300	0.729377	1.217428
C54	C	-0.603769	0.729316	1.217441
C55	C	0.260568	0.729312	1.217438
C56	C	0.335439	0.729300	1.217440
C57	C	0.007069	0.802549	0.888880
C58	C	-0.004096	0.827392	0.777374
C59	C	0.019055	1.021304	1.254026
C60	C	0.011959	1.120391	1.266447
C61	C	0.045730	0.716520	0.775049
C62	C	0.034192	0.742194	0.659802
C63	C	0.072860	0.656150	1.545979
C64	C	0.084024	0.631306	1.657486
C65	C	0.093769	0.364195	1.509383
C66	C	0.112029	0.240265	1.608469
C67	C	0.281477	0.437358	1.180841
C68	C	0.363444	0.338258	1.168423
C69	C	0.314372	0.364158	1.509391
C70	C	0.407504	0.240215	1.608480
C71	C	-0.234444	1.094541	0.925469
C72	C	-0.327575	1.218484	0.826380
C73	C	-0.013840	1.094504	0.925477
C74	C	-0.032101	1.218434	0.826391
C75	C	-0.201548	1.021341	1.254019
C76	C	-0.283515	1.120441	1.266436
C77	C	0.071097	0.196367	1.590844
C78	C	0.088236	0.079936	1.683938
C79	C	0.146314	0.007400	1.794655
C80	C	0.187247	0.051307	1.812279
C81	C	0.170102	0.167742	1.719187
C82	C	0.451445	0.277419	1.226749
C83	C	0.528467	0.184319	1.215078
C84	C	0.517488	0.152052	1.145087
C85	C	0.429477	0.212901	1.086755
C86	C	0.352456	0.306008	1.098420
C87	C	0.414587	0.167721	1.719178
C88	C	0.502087	0.051275	1.812294
C89	C	0.582504	0.007318	1.794709
C90	C	0.575417	0.079824	1.683999
C91	C	0.487918	0.196274	1.590886
C92	C	-0.334659	1.290989	0.715683
C93	C	-0.422161	1.407464	0.622571
C94	C	-0.502578	1.451426	0.640157
C95	C	-0.495492	1.378914	0.750866
C96	C	-0.407991	1.262448	0.843977
C97	C	0.008824	1.262342	0.844017
C98	C	-0.008337	1.378798	0.750927
C99	C	-0.066417	1.451338	0.640210
C100	C	-0.107347	1.407426	0.622585
C101	C	-0.090191	1.290978	0.715676
C102	C	-0.272506	1.152676	1.336436
C103	C	-0.349513	1.245772	1.348126
C104	C	-0.437529	1.306640	1.289810
C105	C	-0.448536	1.274397	1.219807
C106	C	-0.371529	1.181293	1.208124
H107	H	-0.505749	0.960118	1.065531
C108	C	-0.085275	1.579426	0.537818
N109	N	-0.099472	1.675898	0.460701
H110	H	0.600122	0.134783	1.262586
C111	C	0.602225	0.049614	1.132279
N112	N	0.666055	-0.027551	1.122642
H113	H	-0.520210	1.323969	1.172329
H114	H	0.056123	1.203287	0.934160
C115	C	-0.135205	1.242680	0.696265
N116	N	-0.169112	1.206307	0.681636
C117	C	-0.007687	0.316208	1.300773
N118	N	-0.040827	0.343072	1.358709
C119	C	-0.171220	1.487219	0.500784
N120	N	-0.219320	1.547312	0.409040
H121	H	-0.427914	1.466486	0.532435
C122	C	-0.175694	1.085728	1.400604
N123	N	-0.102775	1.035299	1.448946
C124	C	0.417416	0.177384	1.009774
N125	N	0.408336	0.150622	0.951798
C126	C	-0.383658	1.145868	1.131099
N127	N	-0.392801	1.119196	1.073078
H128	H	0.076181	0.151770	1.154048
C129	C	-0.583961	1.427279	0.770190
N130	N	-0.650598	1.463703	0.784741
H131	H	-0.340534	1.272014	1.405127
H132	H	-0.402233	1.203414	0.934109
H133	H	0.460402	0.303679	1.283742
C134	C	-0.522231	1.409057	1.302672
N135	N	-0.586026	1.486199	1.312361
H136	H	0.100515	0.311931	1.111457
C137	C	-0.032004	0.156003	1.343408
N138	N	-0.065117	0.182827	1.401375
C139	C	-0.301949	0.523139	1.203339
N140	N	-0.230977	0.409247	1.242279
H141	H	0.096932	0.602591	0.858380
H142	H	0.160267	-0.087408	1.870446
H143	H	-0.017009	0.856131	0.576472
H144	H	0.203442	0.203468	1.733553
C145	C	-0.640235	0.987245	1.032764
N146	N	-0.694091	1.064643	0.939336
H147	H	-0.422322	0.517415	1.390614
C148	C	0.255658	0.372906	1.034265
N149	N	0.182752	0.423287	0.985940
H150	H	0.349117	0.203492	1.733518
H151	H	-0.608749	0.929952	1.201046
H152	H	0.025000	1.414530	0.765299
C153	C	-0.493380	0.946089	1.217439
N154	N	-0.495265	0.992472	1.262862
H155	H	0.135231	0.517368	0.740815
C156	C	0.509862	-0.028473	1.934064
N157	N	0.515715	-0.088539	2.025777
H158	H	-0.055293	0.941322	0.694043
C159	C	0.678750	-0.120794	1.897147
N160	N	0.751242	-0.217293	1.974308
H161	H	-0.490690	0.671053	1.391870
C162	C	0.043210	0.031650	1.664524
N163	N	0.009298	-0.004718	1.649898
C164	C	0.251139	-0.028509	1.934077
N165	N	0.299268	-0.088637	2.025817
H166	H	-0.306568	0.516324	1.390257
C167	C	0.480142	0.276004	1.469118
N168	N	0.474291	0.336053	1.377403
C169	C	-0.373270	0.682153	1.409878
N170	N	-0.370691	0.720560	1.460697
C171	C	-0.539060	0.759878	1.030662
N172	N	-0.589094	0.826732	0.937728
H173	H	0.640905	0.044016	1.669697
H174	H	-0.573821	1.546263	0.564330
C175	C	-0.428266	0.517003	1.213144
N176	N	-0.394851	0.400911	1.257663
C177	C	-0.414819	0.771353	1.027189
N178	N	-0.428859	0.844432	0.933438
H179	H	0.023795	0.255425	1.500701
H180	H	-0.269189	1.255205	0.701341
