data_functionalizedCrystal
_audit_creation_method	'MofGen! by Chris Wilmer'
_symmetry_space_group_name_H-M	'P1'
_symmetry_Int_Tables_number	1
_symmetry_cell_setting	triclinic
loop_
_symmetry_equiv_pos_as_xyz
  x,y,z
_cell_length_a	23.532355
_cell_length_b	23.532357
_cell_length_c	18.266242
_cell_angle_alpha	89.988103
_cell_angle_beta	89.996779
_cell_angle_gamma	82.827896
loop_
_atom_site_label
_atom_site_type_symbol
_atom_site_fract_x
_atom_site_fract_y
_atom_site_fract_z
O1	O	0.755270	0.068997	-0.060790
O2	O	1.255270	0.568997	0.439210
O3	O	0.589401	0.079031	-0.060815
O4	O	1.089401	0.579031	0.439185
O5	O	0.677352	-0.008921	-0.060787
O6	O	1.177352	0.491079	0.439213
O7	O	0.667319	0.156949	-0.060818
O8	O	1.167319	0.656949	0.439182
O9	O	0.677337	-0.008925	0.060975
O10	O	1.177337	0.491075	0.560975
O11	O	0.589386	0.079027	0.060947
O12	O	1.089386	0.579027	0.560947
O13	O	0.755255	0.068992	0.060972
O14	O	1.255255	0.568992	0.560972
Zn15	Zn	0.672318	0.074009	0.080292
Zn16	Zn	1.172318	0.574009	0.580292
Zn17	Zn	0.672338	0.074015	-0.080135
Zn18	Zn	1.172338	0.574015	0.419865
O19	O	0.667304	0.156944	0.060944
O20	O	1.167304	0.656944	0.560944
C21	C	0.568177	0.078778	0.000063
C22	C	1.068177	0.578778	0.500063
C23	C	0.504958	0.078024	0.000055
C24	C	1.004958	0.578024	0.500055
C25	C	0.677094	-0.030140	0.000097
C26	C	1.177094	0.469860	0.500097
C27	C	0.676339	-0.093358	0.000103
C28	C	1.176339	0.406642	0.500103
C29	C	0.112937	0.073283	0.066459
C30	C	0.612937	0.573283	0.566459
C31	C	0.053538	0.072566	0.066462
C32	C	0.553538	0.572566	0.566462
O33	O	0.022812	0.072173	0.122908
O34	O	0.522812	0.572173	0.622908
N35	N	0.023837	0.072212	0.000090
N36	N	0.523837	0.572212	0.500090
C37	C	0.053540	0.072571	-0.066290
C38	C	0.553540	0.572571	0.433710
O39	O	0.022824	0.072204	-0.122744
O40	O	0.522824	0.572204	0.377256
C41	C	0.112939	0.073284	-0.066292
C42	C	0.612939	0.573284	0.433708
C43	C	0.142636	0.073643	0.000084
C44	C	0.642636	0.573643	0.500084
C45	C	0.142634	0.073642	0.132830
C46	C	0.642634	0.573642	0.632830
C47	C	0.202029	0.074360	0.132827
C48	C	0.702029	0.574360	0.632827
C49	C	0.231727	0.074720	0.066452
C50	C	0.731727	0.574720	0.566452
C51	C	0.202031	0.074362	0.000081
C52	C	0.702031	0.574362	0.500081
C53	C	0.142641	0.073638	-0.132671
C54	C	0.642641	0.573638	0.367329
C55	C	0.202044	0.074351	-0.132667
C56	C	0.702044	0.574351	0.367333
C57	C	0.231741	0.074711	-0.066291
C58	C	0.731741	0.574711	0.433709
C59	C	0.291124	0.075440	-0.066296
C60	C	0.791124	0.575440	0.433704
N61	N	0.320824	0.075794	0.000076
N62	N	0.820824	0.575794	0.500076
C63	C	0.291126	0.075434	0.066450
C64	C	0.791126	0.575434	0.566450
C65	C	-0.071201	0.071072	-0.066280
C66	C	0.428799	0.571072	0.433720
C67	C	-0.130599	0.070362	-0.066279
C68	C	0.369401	0.570362	0.433721
C69	C	-0.130597	0.070356	0.066473
C70	C	0.369403	0.570356	0.566473
C71	C	-0.071199	0.071070	0.066471
C72	C	0.428801	0.571070	0.566471
C73	C	-0.041501	0.071425	0.000092
C74	C	0.458499	0.571425	0.500092
C75	C	0.415860	0.076943	0.066438
C76	C	0.915860	0.576943	0.566438
C77	C	0.475260	0.077664	0.066429
C78	C	0.975260	0.577664	0.566429
C79	C	0.475253	0.077667	-0.066322
C80	C	0.975253	0.577667	0.433678
C81	C	0.415858	0.076949	-0.066314
C82	C	0.915858	0.576949	0.433686
C83	C	0.386163	0.076585	0.000073
C84	C	0.886163	0.576585	0.500073
O85	O	0.321887	0.075831	-0.122714
O86	O	0.821887	0.575831	0.377286
O87	O	0.321851	0.075793	0.122895
O88	O	0.821851	0.575793	0.622895
C89	C	0.671610	-0.485366	-0.066309
C90	C	1.171610	0.014634	0.433691
C91	C	0.670893	-0.544765	-0.066314
C92	C	1.170893	-0.044765	0.433686
O93	O	0.670510	-0.575479	-0.122761
O94	O	1.170510	-0.075479	0.377239
N95	N	0.670529	-0.574479	0.000058
N96	N	1.170529	-0.074479	0.500058
C97	C	0.670877	-0.544789	0.066438
C98	C	1.170877	-0.044789	0.566438
O99	O	0.670501	-0.575517	0.122892
O100	O	1.170501	-0.075517	0.622892
C101	C	0.671590	-0.485390	0.066442
C102	C	1.171590	0.014610	0.566442
C103	C	0.671960	-0.455681	0.000066
C104	C	1.171960	0.044319	0.500066
C105	C	0.671979	-0.455656	-0.132680
C106	C	1.171979	0.044344	0.367320
C107	C	0.672697	-0.396261	-0.132675
C108	C	1.172697	0.103739	0.367325
C109	C	0.673047	-0.366576	-0.066300
C110	C	1.173047	0.133424	0.433700
C111	C	0.672678	-0.396286	0.000070
C112	C	1.172678	0.103714	0.500070
C113	C	0.671934	-0.455701	0.132821
C114	C	1.171934	0.044299	0.632821
C115	C	0.672646	-0.396298	0.132819
C116	C	1.172646	0.103702	0.632819
C117	C	0.673016	-0.366589	0.066443
C118	C	1.173016	0.133411	0.566443
C119	C	0.673746	-0.307205	0.066450
C120	C	1.173746	0.192795	0.566450
N121	N	0.674109	-0.277492	0.000078
N122	N	1.174109	0.222508	0.500078
C123	C	0.673760	-0.307177	-0.066297
C124	C	1.173760	0.192823	0.433703
C125	C	0.669378	-0.669530	0.066426
C126	C	1.169378	-0.169530	0.566426
C127	C	0.668669	-0.728929	0.066423
C128	C	1.168669	-0.228929	0.566423
C129	C	0.668684	-0.728901	-0.066329
C130	C	1.168684	-0.228901	0.433671
C131	C	0.669397	-0.669502	-0.066326
C132	C	1.169397	-0.169502	0.433674
C133	C	0.669742	-0.639817	0.000054
C134	C	1.169742	-0.139817	0.500054
C135	C	0.675269	-0.182443	-0.066282
C136	C	1.175269	0.317557	0.433718
C137	C	0.675990	-0.123043	-0.066272
C138	C	1.175990	0.376957	0.433728
C139	C	0.675972	-0.123076	0.066480
C140	C	1.175972	0.376924	0.566480
C141	C	0.675254	-0.182471	0.066470
C142	C	1.175254	0.317529	0.566470
C143	C	0.674901	-0.212153	0.000083
C144	C	1.174901	0.287847	0.500083
O145	O	0.674127	-0.276453	0.122868
O146	O	1.174127	0.223547	0.622868
O147	O	0.674128	-0.276441	-0.122741
O148	O	1.174128	0.223559	0.377259
C149	C	0.776479	0.069245	0.000092
C150	C	1.276479	0.569245	0.500092
C151	C	0.839698	0.069999	0.000096
C152	C	1.339698	0.569999	0.500096
C153	C	0.667562	0.178163	0.000059
C154	C	1.167562	0.678163	0.500059
C155	C	0.668317	0.241381	0.000047
C156	C	1.168317	0.741381	0.500047
N157	N	0.672309	0.074004	0.189779
N158	N	1.172309	0.574004	0.689779
N159	N	0.672351	0.074014	-0.189622
N160	N	1.172351	0.574014	0.310378
C161	C	0.711266	0.035078	0.228100
C162	C	1.211266	0.535078	0.728100
C163	C	0.711270	0.035076	0.304745
C164	C	1.211270	0.535076	0.804745
C165	C	0.672322	0.074009	0.343066
C166	C	1.172322	0.574009	0.843066
C167	C	0.633357	0.112938	0.304735
C168	C	1.133357	0.612938	0.804735
C169	C	0.633351	0.112936	0.228092
C170	C	1.133351	0.612936	0.728092
N171	N	0.664778	0.124446	0.463388
N172	N	1.164778	0.624446	0.963388
N173	N	0.664788	0.124447	0.536196
N174	N	1.164788	0.624447	1.036196
C175	C	0.672338	0.074017	0.573988
C176	C	1.172338	0.574017	1.073988
N177	N	0.679889	0.023585	0.536222
N178	N	1.179889	0.523585	1.036222
N179	N	0.679882	0.023586	0.463407
N180	N	1.179882	0.523586	0.963407
C181	C	0.672324	0.074015	0.426173
C182	C	1.172324	0.574015	0.926173
C183	C	0.711301	0.035085	0.695417
C184	C	1.211301	0.535085	1.195417
C185	C	0.711301	0.035081	0.772063
C186	C	1.211301	0.535081	1.272063
C187	C	0.633390	0.112949	0.772052
C188	C	1.133390	0.612949	1.272052
C189	C	0.633388	0.112947	0.695407
C190	C	1.133388	0.612947	1.195407
C191	C	0.672346	0.074016	0.657094
C192	C	1.172346	0.574016	1.157094
H193	H	0.499436	0.077958	0.120483
H194	H	0.999436	0.577958	0.620483
C195	C	0.590572	0.155811	0.653252
C196	C	1.090572	0.655811	1.153252
N197	N	0.558334	0.188110	0.621501
N198	N	1.058334	0.688110	1.121501
C199	C	0.671619	-0.488304	-0.205704
C200	C	1.171619	0.011696	0.294296
N201	N	0.671361	-0.512892	-0.260711
N202	N	1.171361	-0.012892	0.239289
C203	C	0.668268	-0.761603	0.139441
C204	C	1.168268	-0.261603	0.639441
N205	N	0.667962	-0.786211	0.194442
N206	N	1.167962	-0.286211	0.694442
H207	H	0.742987	0.003377	0.196908
H208	H	1.242987	0.503377	0.696908
C209	C	0.109974	0.073254	0.205854
C210	C	0.609974	0.573254	0.705854
N211	N	0.085377	0.072968	0.260860
N212	N	0.585377	0.572968	0.760860
C213	C	-0.038537	0.071459	0.139489
C214	C	0.461463	0.571459	0.639489
N215	N	-0.013939	0.071750	0.194490
N216	N	0.486061	0.571750	0.694490
H217	H	0.391677	0.076666	-0.120363
H218	H	0.891677	0.576666	0.379637
H219	H	0.742995	0.003376	0.335952
H220	H	1.242995	0.503376	0.835952
H221	H	0.601644	0.144637	0.335940
H222	H	1.101644	0.644637	0.835940
H223	H	0.668398	-0.753081	-0.120375
H224	H	1.168398	-0.253081	0.379625
C225	C	0.754150	-0.007752	0.814216
C226	C	1.254150	0.492248	1.314216
N227	N	0.786422	-0.040018	0.845967
N228	N	1.286422	0.459982	1.345967
H229	H	0.499444	0.077962	-0.120363
H230	H	0.999444	0.577962	0.379637
C231	C	0.383203	0.076549	0.139466
C232	C	0.883203	0.576549	0.639466
N233	N	0.358606	0.076256	0.194471
N234	N	0.858606	0.576256	0.694471
H235	H	-0.047025	0.071366	-0.120337
H236	H	0.452975	0.571366	0.379663
H237	H	0.674978	-0.206603	-0.120341
H238	H	1.174978	0.293397	0.379659
C239	C	0.669766	-0.636884	0.139453
C240	C	1.169766	-0.136884	0.639453
N241	N	0.670059	-0.612297	0.194458
N242	N	1.170059	-0.112297	0.694458
H243	H	0.743022	0.003383	0.664221
H244	H	1.243022	0.503383	1.164221
H245	H	0.676259	-0.098896	0.120521
H246	H	1.176259	0.401104	0.620521
H247	H	-0.154774	0.070079	-0.120329
H248	H	0.345226	0.570079	0.379671
C249	C	0.676394	-0.090366	-0.139293
C250	C	1.176394	0.409634	0.360707
N251	N	0.676697	-0.065755	-0.194292
N252	N	1.176697	0.434245	0.305708
C253	C	0.234688	0.074747	0.205847
C254	C	0.734688	0.574747	0.705847
N255	N	0.259284	0.075035	0.260849
N256	N	0.759284	0.575035	0.760849
C257	C	-0.163276	0.069954	0.139487
C258	C	0.336724	0.569954	0.639487
N259	N	-0.187892	0.069651	0.194477
N260	N	0.312108	0.569651	0.694477
H261	H	0.671634	-0.479881	0.186871
H262	H	1.171634	0.020119	0.686871
H263	H	0.118473	0.073345	-0.186722
H264	H	0.618473	0.573345	0.313278
C265	C	0.234708	0.074744	-0.205691
C266	C	0.734708	0.574744	0.294309
N267	N	0.259309	0.075042	-0.260693
N268	N	0.759309	0.575042	0.239307
C269	C	0.673028	-0.363649	0.205844
C270	C	1.173028	0.136351	0.705844
N271	N	0.673317	-0.339059	0.260846
N272	N	1.173317	0.160941	0.760846
C273	C	0.669799	-0.636826	-0.139343
C274	C	1.169799	-0.136826	0.360657
N275	N	0.670099	-0.612217	-0.194344
N276	N	1.170099	-0.112217	0.305656
H277	H	0.672996	-0.372076	-0.186725
H278	H	1.172996	0.127924	0.313275
H279	H	0.601676	0.144647	0.803252
H280	H	1.101676	0.644647	1.303252
C281	C	0.674853	-0.215154	0.139486
C282	C	1.174853	0.284846	0.639486
N283	N	0.674545	-0.239765	0.194484
N284	N	1.174545	0.260235	0.694484
H285	H	0.601626	0.144635	0.196890
H286	H	1.101626	0.644635	0.696890
