data_functionalizedCrystal
_audit_creation_method	'MofGen! by Chris Wilmer'
_symmetry_space_group_name_H-M	'P1'
_symmetry_Int_Tables_number	1
_symmetry_cell_setting	triclinic
loop_
_symmetry_equiv_pos_as_xyz
  x,y,z
_cell_length_a	10.968094
_cell_length_b	10.654545
_cell_length_c	9.482900
_cell_angle_alpha	99.427550
_cell_angle_beta	92.548310
_cell_angle_gamma	84.599231
loop_
_atom_site_label
_atom_site_type_symbol
_atom_site_fract_x
_atom_site_fract_y
_atom_site_fract_z
O1	O	1.612028	0.221735	0.282928
O2	O	1.262843	0.224498	0.195454
O3	O	1.445463	0.040701	0.241203
O4	O	1.429408	0.405533	0.237179
O5	O	1.408370	0.078191	0.473703
O6	O	1.225750	0.261989	0.427955
O7	O	1.574935	0.259226	0.515428
Cu8	Cu	1.396956	0.264031	0.492921
Cu9	Cu	1.440823	0.219694	0.217962
O10	O	1.392315	0.443024	0.469680
C11	C	1.199585	0.240211	0.300504
C12	C	1.066358	0.231161	0.267129
C13	C	0.850044	0.237180	0.338189
C14	C	0.987737	0.246545	0.372697
C15	C	1.425738	0.012600	0.357155
C16	C	1.422211	-0.126986	0.356263
C17	C	1.462666	-0.167868	0.102788
C18	C	1.481240	-0.253885	-0.024363
C19	C	1.477926	-0.385037	-0.025195
C20	C	1.456032	-0.430173	0.101137
C21	C	1.437457	-0.344156	0.228288
C22	C	1.440777	-0.213003	0.229107
C23	C	1.396995	-0.303274	0.481758
C24	C	1.400317	-0.172122	0.482595
C25	C	1.375101	-0.348410	0.608090
C26	C	1.356535	-0.262393	0.735246
C27	C	1.359851	-0.131234	0.736073
C28	C	1.381743	-0.086105	0.609746
C29	C	1.638194	0.243512	0.410376
C30	C	1.771423	0.252561	0.443741
C31	C	1.412041	0.471124	0.353724
C32	C	1.415569	0.610709	0.354607
N33	N	1.366111	0.295215	0.686314
N34	N	1.471677	0.188500	0.024571
C35	C	1.431716	0.228884	0.774948
C36	C	1.406062	0.254840	0.935939
H37	H	1.031738	0.211060	0.151206
N38	N	1.033584	0.273165	0.526253
H39	H	1.125448	0.276080	0.529139
H40	H	0.993843	0.357965	0.573885
N41	N	0.817275	0.279180	0.597290
H42	H	0.909139	0.282095	0.600176
H43	H	0.777534	0.363980	0.644922
N44	N	1.497968	-0.477819	-0.162330
H45	H	1.571745	-0.539655	-0.149697
H46	H	1.423186	-0.526545	-0.186859
H47	H	1.465380	-0.061080	0.103456
N48	N	1.531281	0.128201	0.717630
H49	H	1.512445	0.042482	0.739343
H50	H	1.535461	0.124026	0.610766
N51	N	0.804186	0.210565	0.184642
H52	H	0.875571	0.201589	0.118942
H53	H	0.762197	0.128801	0.168454
H54	H	1.372397	-0.455202	0.607402
N55	N	1.306488	0.355515	0.993269
H56	H	1.302273	0.359784	1.100148
H57	H	1.325371	0.441186	0.971470
N58	N	1.571236	0.087808	0.967240
H59	H	1.575452	0.083534	0.860361
H60	H	1.652499	0.110410	1.014104
N61	N	1.332929	-0.311074	0.871492
H62	H	1.333644	-0.407209	0.851670
H63	H	1.398937	-0.285746	0.945580
N64	N	1.339809	-0.038460	0.873215
H65	H	1.325436	-0.086960	0.953109
H66	H	1.414556	0.010329	0.897696
N67	N	1.266542	0.395884	0.743651
H68	H	1.262327	0.400154	0.850530
H69	H	1.285426	0.481556	0.721852
N70	N	1.504698	-0.205191	-0.160655
H71	H	1.503932	-0.109051	-0.140854
H72	H	1.587177	-0.243510	-0.197668
H73	H	1.384451	0.020683	0.610409
N74	N	1.452474	-0.571630	0.100249
H75	H	1.467568	-0.619272	0.000533
H76	H	1.517990	-0.601579	0.168484
