data_functionalizedCrystal
_audit_creation_method	'MofGen! by Chris Wilmer'
_symmetry_space_group_name_H-M	'P1'
_symmetry_Int_Tables_number	1
_symmetry_cell_setting	triclinic
loop_
_symmetry_equiv_pos_as_xyz
  x,y,z
_cell_length_a	19.077105
_cell_length_b	19.121111
_cell_length_c	19.077174
_cell_angle_alpha	85.193718
_cell_angle_beta	85.483752
_cell_angle_gamma	89.735527
loop_
_atom_site_label
_atom_site_type_symbol
_atom_site_fract_x
_atom_site_fract_y
_atom_site_fract_z
Zn1	Zn	1.079653	0.341256	-0.455855
Zn2	Zn	1.070204	0.453789	-0.342588
Zn3	Zn	0.957442	0.331438	-0.332850
Zn4	Zn	0.957100	0.453743	-0.455704
O5	O	1.016100	0.395056	-0.396749
O6	O	1.176880	0.360311	-0.444969
O7	O	1.051435	0.433469	-0.242478
O8	O	0.977752	0.234459	-0.345154
O9	O	1.169938	0.442989	-0.361752
O10	O	1.067539	0.241672	-0.435526
O11	O	0.968589	0.343578	-0.235324
O12	O	0.858917	0.343534	-0.345008
O13	O	0.977168	0.442911	-0.554542
O14	O	0.858665	0.433391	-0.435268
O15	O	1.067207	0.360267	-0.554653
O16	O	1.051103	0.552064	-0.361605
O17	O	0.968005	0.552030	-0.444711
C18	C	0.833256	0.387392	-0.389065
C19	C	0.755035	0.384131	-0.385795
C20	C	0.718168	0.429448	-0.431185
C21	C	0.644671	0.426375	-0.428115
C22	C	0.608042	0.377988	-0.379653
C23	C	0.644914	0.332667	-0.334261
C24	C	0.718410	0.335737	-0.337335
C25	C	0.388246	0.363778	-0.365433
C26	C	0.314745	0.360713	-0.362361
C27	C	0.314508	0.454421	-0.456217
C28	C	0.388004	0.457490	-0.459283
C29	C	0.424870	0.412166	-0.413894
N30	N	0.532917	0.374847	-0.376513
N31	N	0.499995	0.415304	-0.417038
C32	C	1.008511	0.577532	-0.404215
C33	C	1.005330	0.655599	-0.407435
C34	C	1.047136	0.692273	-0.365718
C35	C	1.044148	0.765626	-0.368751
C36	C	0.999351	0.802303	-0.413497
C37	C	0.957543	0.765625	-0.455219
C38	C	0.960535	0.692274	-0.452189
C39	C	0.988155	1.023777	-0.424811
C40	C	0.985164	1.097134	-0.427836
C41	C	1.071771	1.097130	-0.341368
C42	C	1.074756	1.023777	-0.338339
C43	C	1.032951	0.987105	-0.380064
C44	C	0.996294	0.877282	-0.416597
C45	C	1.036012	0.912128	-0.376967
C46	C	1.199657	0.402751	-0.404464
C47	C	1.277879	0.406030	-0.407751
C48	C	1.023203	0.402679	-0.580936
C49	C	1.026230	0.405927	-0.659425
C50	C	1.023732	1.211870	-0.389279
C51	C	1.026971	1.133807	-0.386119
C52	C	0.984521	0.360653	-0.692574
C53	C	0.987363	0.363711	-0.766324
C54	C	1.031917	0.412040	-0.806923
C55	C	1.073628	0.457319	-0.773769
C56	C	1.070782	0.454264	-0.700021
C57	C	1.045049	0.426198	-1.027885
C58	C	1.047893	0.429248	-1.101638
C59	C	0.961626	0.335640	-1.094188
C60	C	0.958788	0.332587	-1.020439
C61	C	1.000496	0.377868	-0.987291
N62	N	1.034824	0.415165	-0.882306
N63	N	0.997585	0.374746	-0.911909
C64	C	1.009066	0.387414	-0.213279
C65	C	1.006184	0.383974	-0.134787
H66	H	0.417823	0.496893	-0.498745
H67	H	0.615085	0.293266	-0.294805
H68	H	0.748426	0.298832	-0.300377
H69	H	0.926493	0.662415	-0.486161
H70	H	1.105808	1.126996	-0.307399
H71	H	0.927670	0.298775	-1.121185
H72	H	1.072489	0.882263	-0.340537
H73	H	0.948694	1.126996	-0.464287
H74	H	1.109901	0.496674	-0.806830
H75	H	0.418253	0.326878	-0.328469
H76	H	0.953396	0.326846	-0.793310
H77	H	0.284484	0.491320	-0.493171
H78	H	1.079003	0.463077	-1.000906
H79	H	0.922505	0.293234	-0.987388
H80	H	1.084178	0.468605	-1.134692
H81	H	1.104752	0.491127	-0.673032
H82	H	1.083612	0.662414	-0.329277
H83	H	0.954114	0.993925	-0.458783
H84	H	0.614657	0.463277	-0.465076
H85	H	0.747986	0.468852	-0.470646
H86	H	0.921071	0.795494	-0.491656
H87	H	0.284925	0.321302	-0.322901
H88	H	1.078191	0.795482	-0.334780
H89	H	0.948244	0.321294	-0.659523
H90	H	1.111234	0.993915	-0.301903
H91	H	0.959818	0.907153	-0.453028
