data_functionalizedCrystal
_audit_creation_method	'MofGen! by Chris Wilmer'
_symmetry_space_group_name_H-M	'P1'
_symmetry_Int_Tables_number	1
_symmetry_cell_setting	triclinic
loop_
_symmetry_equiv_pos_as_xyz
  x,y,z
_cell_length_a	15.995350
_cell_length_b	10.868271
_cell_length_c	11.792241
_cell_angle_alpha	90.005281
_cell_angle_beta	96.157105
_cell_angle_gamma	89.999330
loop_
_atom_site_label
_atom_site_type_symbol
_atom_site_fract_x
_atom_site_fract_y
_atom_site_fract_z
O1	O	1.111649	-0.102218	-0.146296
O2	O	1.611649	0.397782	0.353704
O3	O	0.867956	-0.102244	-0.164362
O4	O	1.367956	0.397756	0.335638
O5	O	0.995716	-0.102222	0.009891
O6	O	1.495716	0.397778	0.509891
O7	O	0.983889	-0.102240	-0.320549
O8	O	1.483889	0.397760	0.179451
O9	O	0.995706	0.102423	0.009898
O10	O	1.495706	0.602423	0.509898
O11	O	0.867946	0.102401	-0.164355
O12	O	1.367946	0.602401	0.335645
O13	O	1.111639	0.102426	-0.146289
O14	O	1.611639	0.602426	0.353711
Zn15	Zn	0.989790	0.134905	-0.155321
Zn16	Zn	1.489790	0.634905	0.344679
Zn17	Zn	0.989804	-0.134723	-0.155330
Zn18	Zn	1.489804	0.365277	0.344670
O19	O	0.983878	0.102404	-0.320542
O20	O	1.483878	0.602404	0.179458
C21	C	0.836753	0.000075	-0.163612
C22	C	1.336753	0.500075	0.336388
C23	C	0.743792	0.000066	-0.161372
C24	C	1.243792	0.500066	0.338628
C25	C	0.406008	0.000092	-0.153331
C26	C	0.906008	0.500092	0.346669
C27	C	0.452879	0.000555	-0.029232
C28	C	0.952879	0.500555	0.470768
C29	C	0.549579	0.000085	-0.031471
C30	C	1.049579	0.500085	0.468529
C31	C	0.573587	0.000080	-0.157320
C32	C	1.073587	0.500080	0.342680
C33	C	0.532784	-0.116781	-0.218534
C34	C	1.032784	0.383219	0.281466
C35	C	0.436134	-0.116870	-0.215416
C36	C	0.936134	0.383130	0.284584
C37	C	0.435794	0.115849	-0.217973
C38	C	0.935794	0.615849	0.282027
C39	C	0.532740	0.117385	-0.217943
C40	C	1.032740	0.617385	0.282057
C41	C	0.668295	0.000069	-0.159581
C42	C	1.168295	0.500069	0.340419
C43	C	0.311300	0.000095	-0.151074
C44	C	0.811300	0.500095	0.348926
C45	C	0.994968	0.000100	0.052179
C46	C	1.494968	0.500100	0.552179
C47	C	0.992745	0.000099	0.178174
C48	C	1.492745	0.500099	0.678174
C49	C	1.142842	0.000104	-0.147040
C50	C	1.642842	0.500104	0.352960
C51	C	1.235803	0.000106	-0.149279
C52	C	1.735803	0.500106	0.350721
N53	N	0.989787	0.318919	-0.155314
N54	N	1.489787	0.818919	0.344686
N55	N	0.989814	-0.318737	-0.155328
N56	N	1.489814	0.181263	0.344672
C57	C	0.989800	0.569925	-0.155328
C58	C	1.489800	1.069925	0.344672
C59	C	0.989790	0.430248	-0.155324
C60	C	1.489790	0.930248	0.344676
C61	C	0.984627	0.000080	-0.362830
C62	C	1.484627	0.500080	0.137170
C63	C	0.986850	0.000073	-0.488825
C64	C	1.486850	0.500073	0.011175
C65	C	0.988655	0.000078	0.408852
C66	C	1.488655	0.500078	0.908852
C67	C	0.990927	0.000089	0.280486
C68	C	1.490927	0.500089	0.780486
H69	H	0.548521	0.124439	-0.309716
H70	H	1.048521	0.624439	0.190284
H71	H	0.560969	-0.203747	-0.176023
H72	H	1.060969	0.296253	0.323977
H73	H	0.404448	0.116635	-0.309470
H74	H	0.904448	0.616635	0.190530
H75	H	0.559849	0.203838	-0.173257
H76	H	1.059849	0.703838	0.326743
H77	H	0.577785	0.083857	0.016646
H78	H	1.077785	0.583857	0.516646
O79	O	0.552038	-0.122555	-0.341010
O80	O	1.052038	0.377445	0.158990
H81	H	0.586906	-0.208619	-0.354825
H82	H	1.086906	0.291381	0.145175
O83	O	0.428039	0.111567	0.036482
O84	O	0.928039	0.611567	0.536482
H85	H	0.399160	0.080793	0.113137
H86	H	0.899160	0.580793	0.613137
H87	H	0.433065	-0.082783	0.020143
H88	H	0.933065	0.417217	0.520143
H89	H	0.415070	0.204427	-0.177399
H90	H	0.915070	0.704427	0.322601
O91	O	0.586202	-0.111066	0.032684
O92	O	1.086202	0.388934	0.532684
H93	H	0.619241	-0.169494	-0.025558
H94	H	1.119241	0.330506	0.474442
H95	H	0.417627	-0.204222	-0.170782
H96	H	0.917627	0.295778	0.329218
H97	H	0.404299	-0.122178	-0.306528
H98	H	0.904299	0.377822	0.193472
