data_functionalizedCrystal
_audit_creation_method	'MofGen! by Chris Wilmer'
_symmetry_space_group_name_H-M	'P1'
_symmetry_Int_Tables_number	1
_symmetry_cell_setting	triclinic
loop_
_symmetry_equiv_pos_as_xyz
  x,y,z
_cell_length_a	11.792241
_cell_length_b	10.723024
_cell_length_c	9.198806
_cell_angle_alpha	89.996352
_cell_angle_beta	89.998200
_cell_angle_gamma	95.669358
loop_
_atom_site_label
_atom_site_type_symbol
_atom_site_fract_x
_atom_site_fract_y
_atom_site_fract_z
O1	O	-0.159192	1.656767	-0.120865
O2	O	-0.174430	1.293574	-0.120869
O3	O	-0.001660	1.483984	-0.120876
O4	O	-0.331962	1.466357	-0.120858
O5	O	-0.001659	1.483969	0.120909
O6	O	-0.174430	1.293559	0.120916
O7	O	-0.159192	1.656751	0.120920
Cu8	Cu	-0.166811	1.475154	0.142995
Cu9	Cu	-0.166811	1.475172	-0.142944
O10	O	-0.331962	1.466341	0.120927
C11	C	-0.173321	1.247070	0.000023
C12	C	-0.170003	1.108524	0.000021
C13	C	-0.266676	1.033286	0.000025
C14	C	-0.263249	0.890091	0.000023
C15	C	-0.374255	1.467456	0.000036
C16	C	-0.500276	1.470770	0.000043
C17	C	-0.731002	1.476865	0.000006
C18	C	-0.602609	1.473478	0.000026
C19	C	0.040634	1.482869	0.000011
C20	C	0.166655	1.479555	-0.000004
C21	C	-0.160301	1.703256	0.000025
C22	C	-0.163619	1.841801	0.000017
N23	N	-0.166810	1.475150	0.344109
N24	N	-0.166803	1.475185	-0.344058
C25	C	-0.093948	1.555099	0.416303
C26	C	-0.093944	1.555118	0.583715
H27	H	-0.346009	0.825440	0.000021
H28	H	-0.031569	1.623570	0.645799
O29	O	-0.241338	1.393474	0.582122
C30	C	-0.309060	1.319135	0.681795
H31	H	-0.310714	1.370244	0.790322
H32	H	-0.399538	1.301010	0.637715
H33	H	-0.271691	1.226038	0.697946
O34	O	-0.241071	1.393452	0.418379
C35	C	-0.179788	1.315913	0.506406
H36	H	-0.091265	1.364778	0.529040
H37	H	-0.226952	1.296730	0.613509
H38	H	-0.171593	1.223532	0.447855
H39	H	-0.031567	1.623528	0.354174
H40	H	-0.351978	1.074882	0.000038
O41	O	-0.068135	1.059119	0.000077
C42	C	0.021086	1.156878	0.000032
H43	H	-0.011304	1.245572	0.045811
H44	H	0.094184	1.129068	0.070222
H45	H	0.052527	1.175044	-0.115967
H46	H	-0.080854	0.906445	0.000004
