data_functionalizedCrystal
_audit_creation_method	'MofGen! by Chris Wilmer'
_symmetry_space_group_name_H-M	'P1'
_symmetry_Int_Tables_number	1
_symmetry_cell_setting	triclinic
loop_
_symmetry_equiv_pos_as_xyz
  x,y,z
_cell_length_a	14.519709
_cell_length_b	15.538191
_cell_length_c	14.184742
_cell_angle_alpha	108.258488
_cell_angle_beta	75.247073
_cell_angle_gamma	114.523881
loop_
_atom_site_label
_atom_site_type_symbol
_atom_site_fract_x
_atom_site_fract_y
_atom_site_fract_z
O1	O	1.194609	-0.142482	-0.083291
O2	O	1.694609	0.357518	0.416709
O3	O	0.921248	-0.157022	-0.083321
O4	O	1.421248	0.342978	0.416679
O5	O	1.111141	-0.012712	-0.083305
O6	O	1.611141	0.487288	0.416695
O7	O	1.004716	-0.286792	-0.083307
O8	O	1.504716	0.213208	0.416693
O9	O	1.086585	0.025491	0.083550
O10	O	1.586585	0.525491	0.583550
O11	O	0.896692	-0.118820	0.083534
O12	O	1.396692	0.381180	0.583534
O13	O	1.170053	-0.104279	0.083564
O14	O	1.670053	0.395721	0.583564
Cu15	Cu	1.031130	-0.108061	0.098784
Cu16	Cu	1.531130	0.391939	0.598784
Cu17	Cu	1.060170	-0.153240	-0.098541
Cu18	Cu	1.560170	0.346760	0.401459
O19	O	0.980159	-0.248589	0.083548
O20	O	1.480159	0.251411	0.583548
C21	C	0.874838	-0.137245	0.000102
C22	C	1.374838	0.362755	0.500102
C23	C	0.773141	-0.135218	0.000091
C24	C	1.273141	0.364782	0.500091
C25	C	1.109998	0.041466	0.000120
C26	C	1.609998	0.541466	0.500120
C27	C	1.143166	0.145982	0.000114
C28	C	1.643166	0.645982	0.500114
N29	N	1.010711	-0.076284	0.237572
N30	N	1.510711	0.423716	0.737572
C31	C	0.400752	-0.127735	0.000137
C32	C	0.900752	0.372265	0.500137
C33	C	0.504364	-0.129813	0.000123
C34	C	1.004364	0.370187	0.500123
C35	C	0.586944	-0.131476	0.000113
C36	C	1.086944	0.368524	0.500113
C37	C	0.690562	-0.133554	0.000102
C38	C	1.190562	0.366446	0.500102
C39	C	1.216462	-0.124058	0.000138
C40	C	1.716462	0.375942	0.500138
C41	C	1.318160	-0.126086	0.000143
C42	C	1.818160	0.373914	0.500143
C43	C	0.981303	-0.302768	0.000120
C44	C	1.481303	0.197232	0.500120
C45	C	0.948135	-0.407286	0.000120
C46	C	1.448135	0.092714	0.500120
C47	C	0.813660	0.434324	0.000099
C48	C	1.313660	0.934324	0.500099
C49	C	0.844848	0.532539	0.000105
C50	C	1.344848	1.032539	0.500105
C51	C	1.020276	0.554690	0.000124
C52	C	1.520276	1.054690	0.500124
C53	C	0.989103	0.456475	0.000113
C54	C	1.489103	0.956475	0.500113
C55	C	0.885794	0.396299	0.000102
C56	C	1.385794	0.896299	0.500102
C57	C	1.061237	0.418450	0.000116
C58	C	1.561237	0.918450	0.500116
C59	C	1.030066	0.320244	0.000111
C60	C	1.530066	0.820244	0.500111
C61	C	0.926761	0.260063	0.000103
C62	C	1.426761	0.760063	0.500103
C63	C	0.854623	0.298093	0.000097
C64	C	1.354623	0.798093	0.500097
C65	C	1.164545	0.478628	0.000134
C66	C	1.664545	0.978628	0.500134
C67	C	1.236679	0.440603	0.000137
C68	C	1.736679	0.940603	0.500137
C69	C	1.205509	0.342394	0.000125
C70	C	1.705509	0.842394	0.500125
C71	C	1.102204	0.282213	0.000117
C72	C	1.602204	0.782213	0.500117
C73	C	1.277647	0.304364	0.000130
C74	C	1.777647	0.804364	0.500130
C75	C	1.246476	0.206158	0.000125
C76	C	1.746476	0.706158	0.500125
C77	C	1.071032	0.184007	0.000111
C78	C	1.571032	0.684007	0.500111
N79	N	1.080599	-0.185010	-0.237329
N80	N	1.580599	0.314990	0.262671
C81	C	0.950785	0.017015	0.395129
C82	C	1.450785	0.517015	0.895129
C83	C	0.966229	-0.007041	0.290094
C84	C	1.466229	0.492959	0.790094
C85	C	1.039763	-0.121502	0.290072
C86	C	1.539763	0.378498	0.790072
C87	C	1.024322	-0.097458	0.395109
C88	C	1.524322	0.402542	0.895109
C89	C	0.979833	-0.028198	0.447629
C90	C	1.479833	0.471802	0.947629
C91	C	1.053370	-0.142672	0.447609
C92	C	1.553370	0.357328	0.947609
C93	C	1.037934	-0.118627	0.552636
C94	C	1.537934	0.381373	1.052636
C95	C	0.993450	-0.049368	0.605163
C96	C	1.493450	0.450632	1.105163
C97	C	0.964398	-0.004153	0.552656
C98	C	1.464398	0.495847	1.052656
C99	C	1.097864	-0.211927	0.395087
C100	C	1.597864	0.288073	0.895087
C101	C	1.126913	-0.257141	0.447587
C102	C	1.626913	0.242859	0.947587
C103	C	1.111470	-0.233101	0.552616
C104	C	1.611470	0.266899	1.052616
C105	C	1.066986	-0.163842	0.605143
C106	C	1.566986	0.336158	1.105143
C107	C	1.140523	-0.278316	0.605123
C108	C	1.640523	0.221684	1.105123
C109	C	1.125087	-0.254270	0.710151
C110	C	1.625087	0.245730	1.210151
C111	C	1.051551	-0.139796	0.710171
C112	C	1.551551	0.360204	1.210171
H113	H	0.986909	0.135006	0.000095
H114	H	1.486909	0.635006	0.500095
Cl115	Cl	0.887569	0.136604	0.000105
Cl116	Cl	1.387569	0.636604	0.500105
Cl117	Cl	0.754152	0.580339	0.000108
Cl118	Cl	1.254152	1.080339	0.500108
H119	H	1.189923	0.558591	0.000130
H120	H	1.689923	1.058591	0.500130
H121	H	0.980889	-0.029786	0.690683
H122	H	1.480889	0.470214	1.190683
H123	H	0.770499	0.249092	0.000080
H124	H	1.270499	0.749092	0.500080
H125	H	0.914547	0.073405	0.437893
H126	H	1.414547	0.573405	0.937893
H127	H	1.320793	0.489612	0.000150
H128	H	1.820793	0.989612	0.500150
H129	H	0.729536	0.385323	0.000083
H130	H	1.229536	0.885323	0.500083
Cl131	Cl	1.407513	0.380028	0.000164
Cl132	Cl	1.907513	0.880028	0.500164
Cl133	Cl	1.150145	0.630349	0.000146
Cl134	Cl	1.650145	1.130349	0.500146
Cl135	Cl	1.337156	0.158354	0.000147
Cl136	Cl	1.837156	0.658354	0.500147
H137	H	0.928159	0.052236	0.595421
H138	H	1.428159	0.552236	1.095421
H139	H	1.075990	-0.177891	0.247296
H140	H	1.575990	0.322109	0.747296
H141	H	0.942568	0.029781	0.247353
H142	H	1.442568	0.529781	0.747353
H143	H	1.015312	-0.083407	0.752936
H144	H	1.515312	0.416593	1.252936
H145	H	1.110432	-0.231502	0.309567
H146	H	1.610432	0.268498	0.809567
Cl147	Cl	1.182841	-0.344206	0.381552
Cl148	Cl	1.682841	0.155794	0.881552
H149	H	1.176755	-0.334701	0.562346
H150	H	1.676755	0.165299	1.062346
H151	H	1.148741	-0.291089	0.752897
H152	H	1.648741	0.208911	1.252897
