data_functionalizedCrystal
_audit_creation_method	'MofGen! by Chris Wilmer'
_symmetry_space_group_name_H-M	'P1'
_symmetry_Int_Tables_number	1
_symmetry_cell_setting	triclinic
loop_
_symmetry_equiv_pos_as_xyz
  x,y,z
_cell_length_a	10.489741
_cell_length_b	14.044220
_cell_length_c	8.965430
_cell_angle_alpha	89.992017
_cell_angle_beta	89.999363
_cell_angle_gamma	88.864026
loop_
_atom_site_label
_atom_site_type_symbol
_atom_site_fract_x
_atom_site_fract_y
_atom_site_fract_z
O1	O	-1.707626	-0.133839	0.123951
O2	O	-1.207626	0.366161	0.623951
O3	O	-1.337704	-0.146402	0.123975
O4	O	-0.837704	0.353598	0.623975
O5	O	-1.517112	-0.002098	0.123948
O6	O	-1.017112	0.497902	0.623948
O7	O	-1.528217	-0.278143	0.123977
O8	O	-1.028217	0.221857	0.623977
O9	O	-1.517100	-0.002087	-0.124130
O10	O	-1.017100	0.497913	0.375870
O11	O	-1.337691	-0.146390	-0.124104
O12	O	-0.837691	0.353610	0.375896
O13	O	-1.707613	-0.133828	-0.124128
O14	O	-1.207613	0.366172	0.375872
Cu15	Cu	-1.522651	-0.140108	-0.146768
Cu16	Cu	-1.022651	0.359892	0.353232
Cu17	Cu	-1.522666	-0.140121	0.146614
Cu18	Cu	-1.022666	0.359879	0.646614
O19	O	-1.528205	-0.278132	-0.124102
O20	O	-1.028205	0.221868	0.375898
C21	C	-1.290070	-0.145447	-0.000062
C22	C	-0.790070	0.354553	0.499938
C23	C	-1.148152	-0.142609	-0.000053
C24	C	-0.648152	0.357391	0.499947
C25	C	-1.512245	0.033255	-0.000091
C26	C	-1.012245	0.533255	0.499909
C27	C	-1.497745	0.138580	-0.000092
C28	C	-0.997745	0.638580	0.499908
C29	C	-1.755247	-0.134782	-0.000088
C30	C	-1.255247	0.365218	0.499912
C31	C	-1.897165	-0.137621	-0.000087
C32	C	-1.397165	0.362379	0.499913
C33	C	-1.070700	-0.050792	-0.000077
C34	C	-0.570700	0.449208	0.499923
C35	C	-0.982979	-0.094171	0.122240
C36	C	-0.482979	0.405829	0.622240
C37	C	-0.983002	-0.094182	-0.122346
C38	C	-0.483002	0.405818	0.377654
C39	C	-1.062300	-0.186025	0.122365
C40	C	-0.562300	0.313975	0.622365
C41	C	-1.062332	-0.186023	-0.122331
C42	C	-0.562332	0.313977	0.377669
C43	C	-0.974645	-0.229468	0.000016
C44	C	-0.474645	0.270532	0.500016
C45	C	-1.533072	-0.313485	-0.000059
C46	C	-1.033072	0.186515	0.499941
C47	C	-1.547572	-0.418810	-0.000048
C48	C	-1.047572	0.081190	0.499952
N49	N	-1.522649	-0.140098	-0.353117
N50	N	-1.022649	0.359902	0.146883
C51	C	-1.471237	0.331422	-0.000069
C52	C	-0.971237	0.831422	0.499931
C53	C	-1.574075	0.388354	-0.000071
C54	C	-1.074075	0.888354	0.499929
C55	C	-1.559325	0.495658	-0.000058
C56	C	-1.059325	0.995658	0.499942
C57	C	-1.485985	0.224108	-0.000082
C58	C	-0.985985	0.724108	0.499918
N59	N	-1.522677	-0.140124	0.352964
N60	N	-1.022677	0.359876	0.852964
C61	C	-1.605841	-0.073503	0.450208
C62	C	-1.105841	0.426497	0.950208
C63	C	-1.640077	-0.159444	0.549685
C64	C	-1.140077	0.340556	1.049685
C65	C	-1.488471	-0.054164	0.549614
C66	C	-0.988471	0.445836	1.049614
C67	C	-1.556974	-0.226109	0.450252
C68	C	-1.056974	0.273891	0.950252
C69	C	-1.405313	-0.120773	0.450172
C70	C	-0.905313	0.379227	0.950172
C71	C	-1.439506	-0.206776	0.549604
C72	C	-0.939506	0.293224	1.049604
H73	H	-1.112734	0.024687	0.000068
H74	H	-0.612734	0.524687	0.500068
F75	F	-1.450664	0.040839	0.606655
F76	F	-0.950664	0.540839	1.106655
F77	F	-0.937354	-0.043378	-0.257513
F78	F	-0.437354	0.456622	0.242487
H79	H	-1.673194	0.356506	0.000023
H80	H	-1.173194	0.856506	0.500023
F81	F	-1.341688	0.373047	-0.000053
F82	F	-0.841688	0.873047	0.499947
F83	F	-1.697854	0.000037	0.393159
F84	F	-1.197854	0.500037	0.893159
H85	H	-0.948029	-0.055326	0.225645
H86	H	-0.448029	0.444674	0.725645
H87	H	-1.739317	-0.175808	0.593396
H88	H	-1.239317	0.324192	1.093396
H89	H	-1.369167	-0.263167	0.592971
H90	H	-0.869167	0.236833	1.092971
F91	F	-1.594930	-0.321135	0.393448
F92	F	-1.094930	0.178865	0.893448
F93	F	-1.275632	-0.099351	0.392992
F94	F	-0.775632	0.400649	0.892992
H95	H	-1.097310	-0.224836	-0.225740
H96	H	-0.597310	0.275164	0.274260
H97	H	-1.097071	-0.224849	0.225891
H98	H	-0.597071	0.275151	0.725891
H99	H	-0.932885	-0.305027	0.000090
H100	H	-0.432885	0.194973	0.500090
