data_functionalizedCrystal
_audit_creation_method	'MofGen! by Chris Wilmer'
_symmetry_space_group_name_H-M	'P1'
_symmetry_Int_Tables_number	1
_symmetry_cell_setting	triclinic
loop_
_symmetry_equiv_pos_as_xyz
  x,y,z
_cell_length_a	21.295420
_cell_length_b	21.295417
_cell_length_c	16.959447
_cell_angle_alpha	89.964807
_cell_angle_beta	89.984500
_cell_angle_gamma	90.026289
loop_
_atom_site_label
_atom_site_type_symbol
_atom_site_fract_x
_atom_site_fract_y
_atom_site_fract_z
Zn1	Zn	0.962299	-0.250668	-0.446907
Zn2	Zn	1.212299	-0.000668	-0.196907
Zn3	Zn	1.462299	0.249332	0.053093
Zn4	Zn	1.712299	0.499332	0.303093
Zn5	Zn	0.962218	-0.355944	-0.314717
Zn6	Zn	1.212218	-0.105944	-0.064717
Zn7	Zn	1.462218	0.144056	0.185283
Zn8	Zn	1.712218	0.394056	0.435283
Zn9	Zn	0.857039	-0.250685	-0.314742
Zn10	Zn	1.107039	-0.000685	-0.064742
Zn11	Zn	1.357039	0.249315	0.185258
Zn12	Zn	1.607039	0.499315	0.435258
Zn13	Zn	0.856991	-0.355895	-0.446853
Zn14	Zn	1.106991	-0.105895	-0.196853
Zn15	Zn	1.356991	0.144105	0.053147
Zn16	Zn	1.606991	0.394105	0.303147
O17	O	0.909637	-0.303298	-0.380804
O18	O	1.159637	-0.053298	-0.130804
O19	O	1.409637	0.196702	0.119196
O20	O	1.659637	0.446702	0.369196
O21	O	1.050377	-0.264646	-0.429384
O22	O	1.300377	-0.014646	-0.179384
O23	O	1.550377	0.235354	0.070616
O24	O	1.800377	0.485354	0.320616
O25	O	0.948252	-0.342009	-0.204109
O26	O	1.198252	-0.092009	0.045891
O27	O	1.448252	0.157991	0.295891
O28	O	1.698252	0.407991	0.545891
O29	O	0.871055	-0.162594	-0.332306
O30	O	1.121055	0.087406	-0.082306
O31	O	1.371055	0.337406	0.167694
O32	O	1.621055	0.587406	0.417694
O33	O	1.050318	-0.341992	-0.332264
O34	O	1.300318	-0.091992	-0.082264
O35	O	1.550318	0.158008	0.167736
O36	O	1.800318	0.408008	0.417736
O37	O	0.948390	-0.162581	-0.429408
O38	O	1.198390	0.087419	-0.179408
O39	O	1.448390	0.337419	0.070592
O40	O	1.698390	0.587419	0.320592
O41	O	0.870977	-0.264676	-0.204127
O42	O	1.120977	-0.014676	0.045873
O43	O	1.370977	0.235324	0.295873
O44	O	1.620977	0.485324	0.545873
O45	O	0.768943	-0.264628	-0.332254
O46	O	1.018943	-0.014628	-0.082254
O47	O	1.268943	0.235372	0.167746
O48	O	1.518943	0.485372	0.417746
O49	O	0.870975	-0.341909	-0.557471
O50	O	1.120975	-0.091909	-0.307471
O51	O	1.370975	0.158091	-0.057471
O52	O	1.620975	0.408091	0.192529
O53	O	0.768908	-0.341926	-0.429316
O54	O	1.018908	-0.091926	-0.179316
O55	O	1.268908	0.158074	0.070684
O56	O	1.518908	0.408074	0.320684
O57	O	0.948344	-0.264598	-0.557511
O58	O	1.198344	-0.014598	-0.307511
O59	O	1.448344	0.235402	-0.057511
O60	O	1.698344	0.485402	0.192489
O61	O	0.948206	-0.444027	-0.332212
O62	O	1.198206	-0.194027	-0.082212
O63	O	1.448206	0.055973	0.167788
O64	O	1.698206	0.305973	0.417788
O65	O	0.870896	-0.443991	-0.429292
O66	O	1.120896	-0.193991	-0.179292
O67	O	1.370896	0.056009	0.070708
O68	O	1.620896	0.306009	0.320708
C69	C	0.746085	-0.303274	-0.380782
C70	C	0.996085	-0.053274	-0.130782
C71	C	1.246085	0.196726	0.119218
C72	C	1.496085	0.446726	0.369218
C73	C	0.676117	-0.303279	-0.380791
C74	C	0.926117	-0.053279	-0.130791
C75	C	1.176117	0.196721	0.119209
C76	C	1.426117	0.446721	0.369209
C77	C	0.176689	-0.263119	-0.431469
C78	C	0.426689	-0.013119	-0.181469
C79	C	0.676689	0.236881	0.068531
C80	C	0.926689	0.486881	0.318531
C81	C	0.242432	-0.263114	-0.431468
C82	C	0.492432	-0.013114	-0.181468
C83	C	0.742432	0.236886	0.068532
C84	C	0.992432	0.486886	0.318532
C85	C	0.275278	-0.303317	-0.380823
C86	C	0.525278	-0.053317	-0.130823
C87	C	0.775278	0.196683	0.119177
C88	C	1.025278	0.446683	0.369177
C89	C	0.242375	-0.343540	-0.330188
C90	C	0.492375	-0.093540	-0.080188
C91	C	0.742375	0.156460	0.169812
C92	C	0.992375	0.406460	0.419812
C93	C	0.176634	-0.343548	-0.330195
C94	C	0.426634	-0.093548	-0.080195
C95	C	0.676634	0.156452	0.169805
C96	C	0.926634	0.406452	0.419805
N97	N	0.378476	-0.308066	-0.311611
N98	N	0.628476	-0.058066	-0.061611
N99	N	0.878476	0.191934	0.188389
N100	N	1.128476	0.441934	0.438389
N101	N	0.440928	-0.308055	-0.311606
N102	N	0.690928	-0.058055	-0.061606
N103	N	0.940928	0.191945	0.188394
N104	N	1.190928	0.441945	0.438394
C105	C	0.473352	-0.303297	-0.380800
C106	C	0.723352	-0.053297	-0.130800
C107	C	0.973352	0.196703	0.119200
C108	C	1.223352	0.446703	0.369200
N109	N	0.440966	-0.298538	-0.449999
N110	N	0.690966	-0.048538	-0.199999
N111	N	0.940966	0.201462	0.050001
N112	N	1.190966	0.451462	0.300001
N113	N	0.378509	-0.298546	-0.450003
N114	N	0.628509	-0.048546	-0.200003
N115	N	0.878509	0.201454	0.049997
N116	N	1.128509	0.451454	0.299997
C117	C	0.346563	-0.303313	-0.380810
C118	C	0.596563	-0.053313	-0.130810
C119	C	0.846563	0.196687	0.119190
C120	C	1.096563	0.446687	0.369190
C121	C	0.577532	-0.263075	-0.431435
C122	C	0.827532	-0.013075	-0.181435
C123	C	1.077532	0.236925	0.068565
C124	C	1.327532	0.486925	0.318565
C125	C	0.643276	-0.263075	-0.431436
C126	C	0.893276	-0.013075	-0.181436
C127	C	1.143276	0.236925	0.068564
C128	C	1.393276	0.486925	0.318564
C129	C	0.643218	-0.343497	-0.330149
C130	C	0.893218	-0.093497	-0.080149
C131	C	1.143218	0.156503	0.169851
C132	C	1.393218	0.406503	0.419851
C133	C	0.577476	-0.343500	-0.330155
C134	C	0.827476	-0.093500	-0.080155
C135	C	1.077476	0.156500	0.169845
C136	C	1.327476	0.406500	0.419845
C137	C	0.544637	-0.303286	-0.380797
C138	C	0.794637	-0.053286	-0.130797
C139	C	1.044637	0.196714	0.119203
C140	C	1.294637	0.446714	0.369203
C141	C	0.909554	-0.466850	-0.380761
C142	C	1.159554	-0.216850	-0.130761
C143	C	1.409554	0.033150	0.119239
C144	C	1.659554	0.283150	0.369239
C145	C	0.909577	-0.536818	-0.380768
C146	C	1.159577	-0.286818	-0.130768
C147	C	1.409577	-0.036818	0.119232
C148	C	1.659577	0.213182	0.369232
C149	C	0.949867	-0.569682	-0.330271
C150	C	1.199867	-0.319682	-0.080271
C151	C	1.449867	-0.069682	0.169729
C152	C	1.699867	0.180318	0.419729
C153	C	0.949897	-0.635425	-0.330289
C154	C	1.199897	-0.385425	-0.080289
C155	C	1.449897	-0.135425	0.169711
C156	C	1.699897	0.114575	0.419711
C157	C	0.909624	-0.668300	-0.380796
C158	C	1.159624	-0.418300	-0.130796
C159	C	1.409624	-0.168300	0.119204
C160	C	1.659624	0.081700	0.369204
C161	C	0.869331	-0.635428	-0.431303
C162	C	1.119331	-0.385428	-0.181303
C163	C	1.369331	-0.135428	0.068697
C164	C	1.619331	0.114572	0.318697
C165	C	0.869307	-0.569687	-0.431289
C166	C	1.119307	-0.319687	-0.181289
C167	C	1.369307	-0.069687	0.068711
C168	C	1.619307	0.180313	0.318711
N169	N	0.854557	-0.771562	-0.386814
N170	N	1.104557	-0.521562	-0.136814
N171	N	1.354557	-0.271562	0.113186
N172	N	1.604557	-0.021562	0.363186
N173	N	0.854581	-0.834013	-0.386822
N174	N	1.104581	-0.584013	-0.136822
N175	N	1.354581	-0.334013	0.113178
N176	N	1.604581	-0.084013	0.363178
C177	C	0.909695	-0.866375	-0.380841
C178	C	1.159695	-0.616375	-0.130841
C179	C	1.409695	-0.366375	0.119159
C180	C	1.659695	-0.116375	0.369159
N181	N	0.964784	-0.833926	-0.374836
N182	N	1.214784	-0.583926	-0.124836
N183	N	1.464784	-0.333926	0.125164
N184	N	1.714784	-0.083926	0.375164
N185	N	0.964759	-0.771469	-0.374823
N186	N	1.214759	-0.521469	-0.124823
N187	N	1.464759	-0.271469	0.125177
N188	N	1.714759	-0.021469	0.375177
C189	C	0.909646	-0.739586	-0.380816
C190	C	1.159646	-0.489586	-0.130816
C191	C	1.409646	-0.239586	0.119184
C192	C	1.659646	0.010414	0.369184
C193	C	0.950021	-0.970525	-0.330360
C194	C	1.200021	-0.720525	-0.080360
C195	C	1.450021	-0.470525	0.169640
C196	C	1.700021	-0.220525	0.419640
C197	C	0.950052	-1.036269	-0.330383
C198	C	1.200052	-0.786269	-0.080383
C199	C	1.450052	-0.536269	0.169617
C200	C	1.700052	-0.286269	0.419617
C201	C	0.869480	-1.036270	-0.431394
C202	C	1.119480	-0.786270	-0.181394
C203	C	1.369480	-0.536270	0.068606
C204	C	1.619480	-0.286270	0.318606
C205	C	0.869455	-0.970528	-0.431374
C206	C	1.119455	-0.720528	-0.181374
C207	C	1.369455	-0.470528	0.068626
C208	C	1.619455	-0.220528	0.318626
C209	C	0.909725	-0.937659	-0.380853
C210	C	1.159725	-0.687659	-0.130853
C211	C	1.409725	-0.437659	0.119147
C212	C	1.659725	-0.187659	0.369147
C213	C	1.073827	-0.303323	-0.380827
C214	C	1.323827	-0.053323	-0.130827
C215	C	1.573827	0.196677	0.119173
C216	C	1.823827	0.446677	0.369173
C217	C	1.143795	-0.303333	-0.380837
C218	C	1.393795	-0.053333	-0.130837
C219	C	1.643795	0.196667	0.119163
C220	C	1.893795	0.446667	0.369163
C221	C	0.909663	-0.303246	-0.586973
C222	C	1.159663	-0.053246	-0.336973
C223	C	1.409663	0.196754	-0.086973
C224	C	1.659663	0.446754	0.163027
C225	C	0.909674	-0.303224	-0.674829
C226	C	1.159674	-0.053224	-0.424829
C227	C	1.409674	0.196776	-0.174829
C228	C	1.659674	0.446776	0.075171
C229	C	0.909737	-0.139108	-0.380866
C230	C	1.159737	0.110892	-0.130866
C231	C	1.409737	0.360892	0.119134
C232	C	1.659737	0.610892	0.369134
C233	C	0.909779	-0.069140	-0.380892
C234	C	1.159779	0.180860	-0.130892
C235	C	1.409779	0.430860	0.119108
C236	C	1.659779	0.680860	0.369108
C237	C	0.869467	-0.343409	-1.046287
C238	C	1.119467	-0.093409	-0.796287
C239	C	1.369467	0.156591	-0.546287
C240	C	1.619467	0.406591	-0.296287
C241	C	0.950032	-0.262906	-1.046323
C242	C	1.200032	-0.012906	-0.796323
C243	C	1.450032	0.237094	-0.546323
C244	C	1.700032	0.487094	-0.296323
C245	C	0.950015	-0.262919	-0.963778
C246	C	1.200015	-0.012919	-0.713778
C247	C	1.450015	0.237081	-0.463778
C248	C	1.700015	0.487081	-0.213778
C249	C	0.909724	-0.303179	-0.922483
C250	C	1.159724	-0.053179	-0.672483
C251	C	1.409724	0.196821	-0.422483
C252	C	1.659724	0.446821	-0.172483
C253	C	0.869450	-0.343425	-0.963734
C254	C	1.119450	-0.093425	-0.713734
C255	C	1.369450	0.156575	-0.463734
C256	C	1.619450	0.406575	-0.213734
C257	C	0.990293	-0.222678	-0.922520
C258	C	1.240293	0.027322	-0.672520
C259	C	1.490293	0.277322	-0.422520
C260	C	1.740293	0.527322	-0.172520
C261	C	0.990278	-0.222690	-0.839969
C262	C	1.240278	0.027310	-0.589969
C263	C	1.490278	0.277310	-0.339969
C264	C	1.740278	0.527310	-0.089969
C265	C	0.949984	-0.262947	-0.798673
C266	C	1.199984	-0.012947	-0.548673
C267	C	1.449984	0.237053	-0.298673
C268	C	1.699984	0.487053	-0.048673
C269	C	0.909708	-0.303195	-0.839929
C270	C	1.159708	-0.053195	-0.589929
C271	C	1.409708	0.196805	-0.339929
C272	C	1.659708	0.446805	-0.089929
C273	C	0.869417	-0.343454	-0.798634
C274	C	1.119417	-0.093454	-0.548634
C275	C	1.369417	0.156546	-0.298634
C276	C	1.619417	0.406546	-0.048634
C277	C	0.829137	-0.383699	-0.839889
C278	C	1.079137	-0.133699	-0.589889
C279	C	1.329137	0.116301	-0.339889
C280	C	1.579137	0.366301	-0.089889
C281	C	0.829156	-0.383682	-0.922437
C282	C	1.079156	-0.133682	-0.672437
C283	C	1.329156	0.116318	-0.422437
C284	C	1.579156	0.366318	-0.172437
C285	C	0.949965	-0.262964	-0.716124
C286	C	1.199965	-0.012964	-0.466124
C287	C	1.449965	0.237036	-0.216124
C288	C	1.699965	0.487036	0.033876
C289	C	0.869400	-0.343470	-0.716080
C290	C	1.119400	-0.093470	-0.466080
C291	C	1.369400	0.156530	-0.216080
C292	C	1.619400	0.406530	0.033920
C293	C	0.909647	-0.303305	-0.175438
C294	C	1.159647	-0.053305	0.074562
C295	C	1.409647	0.196695	0.324562
C296	C	1.659647	0.446695	0.574562
C297	C	0.909758	-0.303149	-0.087582
C298	C	1.159758	-0.053149	0.162418
C299	C	1.409758	0.196851	0.412418
C300	C	1.659758	0.446851	0.662418
H301	H	0.670057	-0.230329	-0.472672
H302	H	0.920057	0.019671	-0.222672
H303	H	1.170057	0.269671	0.027328
H304	H	1.420057	0.519671	0.277328
H305	H	0.836670	-0.376174	-1.079880
H306	H	1.086670	-0.126174	-0.829880
H307	H	1.336670	0.123826	-0.579880
H308	H	1.586670	0.373826	-0.329880
H309	H	0.982813	-0.943762	-0.289225
H310	H	1.232813	-0.693762	-0.039225
H311	H	1.482813	-0.443762	0.210775
H312	H	1.732813	-0.193762	0.460775
H313	H	0.269220	-0.230364	-0.472698
H314	H	0.519220	0.019636	-0.222698
H315	H	0.769220	0.269636	0.027302
H316	H	1.019220	0.519636	0.277302
H317	H	0.836692	-1.063037	-0.472521
H318	H	1.086692	-0.813037	-0.222521
H319	H	1.336692	-0.563037	0.027479
H320	H	1.586692	-0.313037	0.277479
F321	F	0.992781	-0.670409	-0.276539
F322	F	1.242781	-0.420409	-0.026539
F323	F	1.492781	-0.170409	0.223461
F324	F	1.742781	0.079591	0.473461
H325	H	0.836644	-0.943768	-0.472491
H326	H	1.086644	-0.693768	-0.222491
H327	H	1.336644	-0.443768	0.027509
H328	H	1.586644	-0.193768	0.277509
H329	H	0.982838	-0.230131	-1.079951
H330	H	1.232838	0.019869	-0.829951
H331	H	1.482838	0.269869	-0.579951
H332	H	1.732838	0.519869	-0.329951
F333	F	0.542580	-0.220278	-0.485334
F334	F	0.792580	0.029722	-0.235334
F335	F	1.042580	0.279722	0.014666
F336	F	1.292580	0.529722	0.264666
F337	F	0.786293	-0.426512	-0.966348
F338	F	1.036293	-0.176512	-0.716348
F339	F	1.286293	0.073488	-0.466348
F340	F	1.536293	0.323488	-0.216348
F341	F	0.826422	-0.534709	-0.485038
F342	F	1.076422	-0.284709	-0.235038
F343	F	1.326422	-0.034709	0.014962
F344	F	1.576422	0.215291	0.264962
F345	F	0.826472	-0.670417	-0.485059
F346	F	1.076472	-0.420417	-0.235059
F347	F	1.326472	-0.170417	0.014941
F348	F	1.576472	0.079583	0.264941
F349	F	0.678171	-0.386289	-0.276253
F350	F	0.928171	-0.136289	-0.026253
F351	F	1.178171	0.113711	0.223747
F352	F	1.428171	0.363711	0.473747
H353	H	0.550693	-0.376245	-0.288922
H354	H	0.800693	-0.126245	-0.038922
H355	H	1.050693	0.123755	0.211078
H356	H	1.300693	0.373755	0.461078
F357	F	0.992733	-0.534705	-0.276510
F358	F	1.242733	-0.284705	-0.026510
F359	F	1.492733	-0.034705	0.223490
F360	F	1.742733	0.215295	0.473490
H361	H	0.982865	-1.063026	-0.289264
H362	H	1.232865	-0.813026	-0.039264
H363	H	1.482865	-0.563026	0.210736
H364	H	1.732865	-0.313026	0.460736
F365	F	1.033174	-0.179838	-0.966473
F366	F	1.283174	0.070162	-0.716473
F367	F	1.533174	0.320162	-0.466473
F368	F	1.783174	0.570162	-0.216473
F369	F	0.826513	-0.386318	-0.672138
F370	F	1.076513	-0.136318	-0.422138
F371	F	1.326513	0.113682	-0.172138
F372	F	1.576513	0.363682	0.077862
H373	H	1.023076	-0.189920	-0.806387
H374	H	1.273076	0.060080	-0.556387
H375	H	1.523076	0.310080	-0.306387
H376	H	1.773076	0.560080	-0.056387
H377	H	0.796335	-0.416482	-0.806255
H378	H	1.046335	-0.166482	-0.556255
H379	H	1.296335	0.083518	-0.306255
H380	H	1.546335	0.333518	-0.056255
H381	H	0.149956	-0.230376	-0.472709
H382	H	0.399956	0.019624	-0.222709
H383	H	0.649956	0.269624	0.027291
H384	H	0.899956	0.519624	0.277291
F385	F	0.277333	-0.386329	-0.276290
F386	F	0.527333	-0.136329	-0.026290
F387	F	0.777333	0.113671	0.223710
F388	F	1.027333	0.363671	0.473710
H389	H	0.149852	-0.376296	-0.288964
H390	H	0.399852	-0.126296	-0.038964
H391	H	0.649852	0.123704	0.211036
H392	H	0.899852	0.373704	0.461036
F393	F	0.992834	-0.220140	-0.672222
F394	F	1.242834	0.029860	-0.422222
F395	F	1.492834	0.279860	-0.172222
F396	F	1.742834	0.529860	0.077778
