data_functionalizedCrystal
_audit_creation_method	'MofGen! by Chris Wilmer'
_symmetry_space_group_name_H-M	'P1'
_symmetry_Int_Tables_number	1
_symmetry_cell_setting	triclinic
loop_
_symmetry_equiv_pos_as_xyz
  x,y,z
_cell_length_a	12.837943
_cell_length_b	12.837942
_cell_length_c	11.892095
_cell_angle_alpha	94.302569
_cell_angle_beta	85.689438
_cell_angle_gamma	94.828940
loop_
_atom_site_label
_atom_site_type_symbol
_atom_site_fract_x
_atom_site_fract_y
_atom_site_fract_z
O1	O	1.408367	0.266110	-0.093982
O2	O	1.105234	0.252667	-0.093989
O3	O	1.250078	0.107822	-0.093979
O4	O	1.263522	0.410955	-0.093992
O5	O	1.237999	0.119879	0.094028
O6	O	1.093155	0.264723	0.094018
O7	O	1.396288	0.278167	0.094025
Zn8	Zn	1.242803	0.273359	0.123871
Zn9	Zn	1.258718	0.257474	-0.123836
O10	O	1.251443	0.423011	0.094014
C11	C	1.060125	0.254153	0.000014
C12	C	0.943710	0.240609	0.000011
C13	C	0.718835	0.403439	0.000020
C14	C	0.609453	0.390717	0.000019
C15	C	0.615561	0.202446	0.000015
C16	C	0.724943	0.215167	0.000017
C17	C	0.776577	0.315667	0.000017
C18	C	0.885961	0.328387	0.000011
C19	C	0.892066	0.140117	0.000015
C20	C	0.782684	0.127395	0.000014
C21	C	1.239497	0.074781	0.000024
C22	C	1.225953	-0.041634	0.000022
C23	C	1.388784	-0.266509	0.000002
C24	C	1.376062	-0.375892	-0.000000
C25	C	1.187791	-0.369784	0.000007
C26	C	1.200512	-0.260402	0.000009
C27	C	1.301011	-0.208768	0.000008
C28	C	1.313731	-0.099383	0.000019
C29	C	1.125461	-0.093278	0.000018
C30	C	1.112740	-0.202660	0.000016
C31	C	1.441397	0.276680	0.000020
C32	C	1.557812	0.290224	0.000015
C33	C	1.262024	0.456052	0.000009
C34	C	1.275569	0.572467	0.000004
N35	N	1.231950	0.284200	0.292925
N36	N	1.269579	0.246626	-0.292889
C37	C	1.345098	0.171130	0.529580
C38	C	1.337519	0.178716	0.647922
C39	C	1.209210	0.306952	0.647951
C40	C	1.216788	0.299366	0.529610
C41	C	1.284736	0.231454	0.470428
C42	C	1.292319	0.223874	0.352085
C43	C	1.164005	0.352104	0.352116
C44	C	1.156426	0.359690	0.470458
H45	H	0.928000	0.410219	0.000013
H46	H	1.114857	0.401227	0.303941
C47	C	0.954717	0.044759	-0.000220
C48	C	0.936179	-0.021309	-0.096961
C49	C	0.993884	-0.109154	-0.097229
H50	H	0.933889	0.008072	0.065264
H51	H	1.027273	0.066677	-0.000283
H52	H	0.863639	-0.043227	-0.096888
H53	H	0.957011	0.015346	-0.162461
H54	H	1.066440	-0.087236	-0.097292
H55	H	0.973052	-0.145832	-0.031741
H56	H	0.981322	-0.153987	-0.162871
H57	H	1.101102	0.414980	0.518656
H58	H	1.030916	-0.244716	0.000012
C59	C	0.774707	0.512636	0.000070
C60	C	0.700725	0.586784	0.000092
C61	C	0.752152	0.687389	0.000152
H62	H	0.821460	0.517454	-0.065474
H63	H	0.813012	0.525772	0.065659
H64	H	0.662437	0.573652	-0.065490
H65	H	0.653969	0.582001	0.065631
H66	H	0.790458	0.700526	0.065740
H67	H	0.798904	0.692196	-0.065394
H68	H	0.701963	0.737712	0.000177
H69	H	0.562444	0.462191	0.000024
C70	C	1.078678	-0.425820	-0.000238
C71	C	1.031205	-0.403588	-0.096978
C72	C	0.930697	-0.455204	-0.097254
H73	H	1.037740	-0.402498	0.065247
H74	H	1.083642	-0.499246	-0.000309
H75	H	1.026235	-0.330178	-0.096897
H76	H	1.072112	-0.426913	-0.162479
H77	H	0.935662	-0.528629	-0.097324
H78	H	0.889769	-0.431878	-0.031765
H79	H	0.898478	-0.440134	-0.162895
H80	H	0.573495	0.120630	0.000108
H81	H	1.386671	0.129593	0.696080
C82	C	1.135364	0.380508	0.712369
C83	C	1.061445	0.322723	0.780338
C84	C	0.993409	0.390447	0.839710
H85	H	1.100385	0.415384	0.660330
H86	H	1.174337	0.430765	0.758597
H87	H	1.022476	0.272486	0.734113
H88	H	1.096393	0.287850	0.832398
H89	H	1.032382	0.440704	0.885939
H90	H	0.958438	0.425319	0.787663
H91	H	0.943253	0.351252	0.885842
H92	H	0.740628	0.045572	0.000026
H93	H	1.395563	-0.057344	0.000022
H94	H	1.470613	-0.224468	0.000012
H95	H	1.400430	0.115841	0.481394
C96	C	1.366106	0.150041	0.288032
C97	C	1.417323	0.098814	0.365171
C98	C	1.485292	0.030778	0.306211
H99	H	1.416451	0.188950	0.241852
H100	H	1.327116	0.099713	0.241901
H101	H	1.456311	0.149135	0.411282
H102	H	1.367004	0.059885	0.411353
H103	H	1.446302	-0.019550	0.260080
H104	H	1.535630	0.069695	0.260033
H105	H	1.520043	-0.003995	0.358540
H106	H	1.447536	-0.422901	-0.000009
H107	H	1.053990	-0.046252	0.000033
