data_functionalizedCrystal
_audit_creation_method	'MofGen! by Chris Wilmer'
_symmetry_space_group_name_H-M	'P1'
_symmetry_Int_Tables_number	1
_symmetry_cell_setting	triclinic
loop_
_symmetry_equiv_pos_as_xyz
  x,y,z
_cell_length_a	25.639239
_cell_length_b	15.297475
_cell_length_c	15.299448
_cell_angle_alpha	69.206248
_cell_angle_beta	80.298679
_cell_angle_gamma	80.340538
loop_
_atom_site_label
_atom_site_type_symbol
_atom_site_fract_x
_atom_site_fract_y
_atom_site_fract_z
Zn1	Zn	-0.282718	1.512696	-0.771442
Zn2	Zn	-0.383037	1.485600	-0.615885
Zn3	Zn	-0.282702	1.330244	-0.589069
Zn4	Zn	-0.357196	1.357091	-0.744504
O5	O	-0.326413	1.421408	-0.680225
O6	O	-0.306846	1.639240	-0.773303
O7	O	-0.380536	1.442417	-0.482177
O8	O	-0.209544	1.354550	-0.613312
O9	O	-0.380551	1.619333	-0.659016
O10	O	-0.209556	1.488597	-0.747300
O11	O	-0.306820	1.328277	-0.462475
O12	O	-0.281762	1.203667	-0.587191
O13	O	-0.336508	1.400308	-0.878229
O14	O	-0.336493	1.223392	-0.701389
O15	O	-0.281789	1.514630	-0.898020
O16	O	-0.452769	1.468450	-0.632896
O17	O	-0.433783	1.374035	-0.727392
C18	C	-0.306322	1.179786	-0.638457
C19	C	-0.297738	1.076423	-0.620611
C20	C	-0.387770	0.826177	-0.807777
C21	C	-0.395839	0.923291	-0.824542
C22	C	-0.371314	0.961579	-0.773561
C23	C	-0.338719	0.902743	-0.705812
C24	C	-0.330652	0.805618	-0.689040
C25	C	-0.314197	0.941020	-0.654824
C26	C	-0.281601	0.882184	-0.587075
C27	C	-0.273536	0.785069	-0.570307
C28	C	-0.298060	0.746781	-0.621288
C29	C	-0.322264	1.038145	-0.671596
C30	C	-0.265146	1.017586	-0.552859
C31	C	-0.257077	0.920472	-0.536094
C32	C	-0.462246	1.421244	-0.680155
C33	C	-0.520361	1.421264	-0.680171
C34	C	-0.890610	1.470742	-0.631149
C35	C	-0.945217	1.470781	-0.631168
O36	O	-0.981850	1.512678	-0.589413
N37	N	-0.962661	1.421582	-0.680315
C38	C	-0.925495	1.372350	-0.729454
O39	O	-0.945346	1.330506	-0.771260
C40	C	-0.870890	1.372317	-0.729440
C41	C	-0.853449	1.421512	-0.680282
C42	C	-0.873169	1.519933	-0.581996
C43	C	-0.818567	1.519894	-0.581976
C44	C	-0.781405	1.470663	-0.631109
C45	C	-0.798847	1.421472	-0.680263
C46	C	-0.833725	1.323091	-0.778585
C47	C	-0.779117	1.323064	-0.778567
C48	C	-0.761676	1.372258	-0.729409
C49	C	-0.707083	1.372201	-0.729376
N50	N	-0.689639	1.421400	-0.680229
C51	C	-0.726800	1.470631	-0.631096
C52	C	-1.040170	1.372422	-0.729481
C53	C	-1.094774	1.372448	-0.729489
C54	C	-1.114492	1.470881	-0.631204
C55	C	-1.059887	1.470849	-0.631191
C56	C	-1.022726	1.421621	-0.680334
C57	C	-0.612130	1.470543	-0.631057
C58	C	-0.557522	1.470495	-0.631038
C59	C	-0.537809	1.372067	-0.729327
C60	C	-0.592412	1.372110	-0.729342
C61	C	-0.629572	1.421355	-0.680205
O62	O	-0.670419	1.330328	-0.771113
O63	O	-0.706941	1.512477	-0.589307
C64	C	-0.190050	1.421601	-0.680320
C65	C	-0.131940	1.421683	-0.680360
C66	C	-0.306268	1.463486	-0.922815
C67	C	-0.297683	1.481417	-1.026192
C68	C	-0.346583	1.663973	-0.722156
C69	C	-0.355178	1.767340	-0.740025
C70	C	-0.265159	1.549363	-1.085060
C71	C	-0.257086	1.566202	-1.182187
C72	C	-0.281539	1.515103	-1.220456
C73	C	-0.314066	1.447160	-1.161588
C74	C	-0.322137	1.430314	-1.064451
C75	C	-0.338516	1.396053	-1.199847
C76	C	-0.371044	1.328110	-1.140979
C77	C	-0.379113	1.311268	-1.043851
C78	C	-0.354660	1.362368	-1.005583
C79	C	-0.330445	1.412899	-1.296984
C80	C	-0.387423	1.293850	-1.276374
C81	C	-0.395496	1.277011	-1.179248
C82	C	-0.346447	1.379547	-0.438588
C83	C	-0.354899	1.361796	-0.335243
H84	H	-0.230537	0.872554	-0.480932
H85	H	-0.421980	1.221691	-1.131304
C86	C	-0.653001	1.524706	-0.577000
C87	C	-0.693203	1.604722	-0.629975
C88	C	-0.734073	1.658878	-0.575912
C89	C	-0.734741	1.633018	-0.468876
C90	C	-0.694537	1.552997	-0.415895
C91	C	-0.653667	1.498841	-0.469958
H92	H	-0.692710	1.623869	-0.709215
H93	H	-0.763834	1.718114	-0.615133
H94	H	-0.764995	1.673107	-0.428856
H95	H	-0.695030	1.533851	-0.336655
H96	H	-0.623906	1.439605	-0.430737
H97	H	-0.422380	0.971188	-0.879701
C98	C	-0.237689	0.720351	-0.495768
C99	C	-0.178726	0.735109	-0.505857
C100	C	-0.142882	0.670395	-0.431314
C101	C	-0.166001	0.590923	-0.346682
C102	C	-0.224967	0.576162	-0.336590
C103	C	-0.260811	0.640876	-0.411133
H104	H	-0.161609	0.793942	-0.568509
H105	H	-0.099231	0.681323	-0.438785
H106	H	-0.139467	0.543018	-0.291501
H107	H	-0.242084	0.517329	-0.273938
H108	H	-0.304462	0.629948	-0.403662
H109	H	-0.407738	0.794992	-0.849273
C110	C	-0.238265	1.605565	-1.042961
C111	C	-0.199419	1.553739	-0.969239
C112	C	-0.172522	1.609945	-0.927139
C113	C	-0.184471	1.717976	-0.958761
C114	C	-0.223318	1.769807	-1.032488
C115	C	-0.250215	1.713602	-1.074588
H116	H	-0.190573	1.473763	-0.945826
H117	H	-0.143765	1.571575	-0.872561
H118	H	-0.164560	1.759583	-0.927596
H119	H	-0.232164	1.849784	-1.055900
H120	H	-0.278972	1.751972	-1.129165
H121	H	-0.291491	0.667704	-0.607643
C122	C	-0.852902	1.268979	-0.832661
C123	C	-0.887679	1.321912	-0.912683
C124	C	-0.906856	1.267796	-0.966762
C125	C	-0.891255	1.160747	-0.940818
C126	C	-0.856476	1.107808	-0.860792
C127	C	-0.837299	1.161924	-0.806713
H128	H	-0.899229	1.401161	-0.931891
H129	H	-0.932602	1.306986	-1.026003
H130	H	-0.905451	1.120688	-0.980851
H131	H	-0.844926	1.028559	-0.841583
H132	H	-0.811554	1.122734	-0.747472
H133	H	-0.377886	1.040654	-0.787215
C134	C	-0.538338	1.524614	-0.576964
C135	C	-0.503459	1.604567	-0.629924
C136	C	-0.484277	1.658685	-0.575852
C137	C	-0.499974	1.632849	-0.468821
C138	C	-0.534855	1.552891	-0.415856
C139	C	-0.554037	1.498774	-0.469927
H140	H	-0.491838	1.623696	-0.709160
H141	H	-0.458456	1.717875	-0.615062
H142	H	-0.485774	1.672910	-0.428795
H143	H	-0.546476	1.533762	-0.336619
H144	H	-0.579858	1.439584	-0.430717
C145	C	-0.238165	1.059690	-0.496773
C146	C	-0.199342	1.133516	-0.548744
C147	C	-0.172365	1.175625	-0.492660
C148	C	-0.184210	1.143908	-0.384605
C149	C	-0.223035	1.070078	-0.332628
C150	C	-0.250012	1.027969	-0.388712
H151	H	-0.190572	1.156998	-0.628738
H152	H	-0.143624	1.230279	-0.531138
H153	H	-0.164240	1.175079	-0.343089
H154	H	-0.231806	1.046595	-0.252634
H155	H	-0.278753	0.973315	-0.350235
H156	H	-0.804371	1.559955	-0.541951
H157	H	-0.407331	1.252234	-1.307531
C158	C	-1.040705	1.524970	-0.577124
C159	C	-1.056398	1.499132	-0.470092
C160	C	-1.037220	1.553257	-0.416025
C161	C	-1.002348	1.633221	-0.468990
C162	C	-0.986653	1.659063	-0.576028
C163	C	-1.005832	1.604937	-0.630095
H164	H	-1.082214	1.439934	-0.430879
H165	H	-1.048838	1.534127	-0.336788
H166	H	-0.988151	1.673288	-0.428966
H167	H	-0.960838	1.718260	-0.615241
H168	H	-0.994213	1.624068	-0.709332
H169	H	-0.903422	1.560028	-0.541986
H170	H	-0.348803	1.086040	-0.726758
H171	H	-1.144759	1.510971	-0.591201
C172	C	-1.113955	1.318325	-0.783556
C173	C	-1.073071	1.264175	-0.837598
C174	C	-1.092249	1.210055	-0.891672
C175	C	-1.152311	1.210086	-0.891703
C176	C	-1.193198	1.264239	-0.837658
C177	C	-1.174020	1.318358	-0.783585
H178	H	-1.028607	1.264150	-0.837577
H179	H	-1.061981	1.169968	-0.931679
H180	H	-1.166507	1.170024	-0.931731
H181	H	-1.237662	1.264263	-0.837679
H182	H	-1.204288	1.358445	-0.743577
H183	H	-0.361233	1.348663	-0.926495
C184	C	-0.738240	1.268906	-0.832622
C185	C	-0.737665	1.161866	-0.806676
C186	C	-0.696789	1.107707	-0.860726
C187	C	-0.656487	1.160588	-0.940724
C188	C	-0.657060	1.267634	-0.966674
C189	C	-0.697936	1.321793	-0.912624
H190	H	-0.767500	1.122715	-0.747453
H191	H	-0.696365	1.028464	-0.841516
H192	H	-0.626228	1.120496	-0.980735
H193	H	-0.627225	1.306785	-1.025897
H194	H	-0.698360	1.401036	-0.931834
H195	H	-0.303960	1.468217	-1.344905
H196	H	-0.606612	1.332055	-0.769374
C197	C	-0.496923	1.317919	-0.783374
C198	C	-0.456716	1.237921	-0.730388
C199	C	-0.415829	1.183779	-0.784441
C200	C	-0.415149	1.209636	-0.891480
C201	C	-0.455357	1.289638	-0.944472
C202	C	-0.496244	1.343779	-0.890419
H203	H	-0.457219	1.218776	-0.651146
H204	H	-0.386064	1.124556	-0.745213
H205	H	-0.384881	1.169557	-0.931494
H206	H	-0.454854	1.308782	-1.023714
H207	H	-0.526009	1.403002	-0.929647
H208	H	-0.230603	1.621523	-1.230111
H209	H	-1.009914	1.332327	-0.769495
H210	H	-0.405597	1.255942	-0.995923
C211	C	-0.272663	1.533632	-1.327297
C212	C	-0.320455	1.566776	-1.384827
C213	C	-0.311581	1.585314	-1.491674
C214	C	-0.254915	1.570707	-1.540991
C215	C	-0.207119	1.537561	-1.483462
C216	C	-0.215993	1.519023	-1.376614
H217	H	-0.362406	1.577591	-1.348319
H218	H	-0.346963	1.609851	-1.534261
H219	H	-0.248346	1.584430	-1.620086
H220	H	-0.165168	1.526746	-1.519969
H221	H	-0.180612	1.494486	-1.334027
