data_functionalizedCrystal
_audit_creation_method	'MofGen! by Chris Wilmer'
_symmetry_space_group_name_H-M	'P1'
_symmetry_Int_Tables_number	1
_symmetry_cell_setting	triclinic
loop_
_symmetry_equiv_pos_as_xyz
  x,y,z
_cell_length_a	13.897449
_cell_length_b	29.839131
_cell_length_c	13.897441
_cell_angle_alpha	89.964857
_cell_angle_beta	89.976606
_cell_angle_gamma	90.042247
loop_
_atom_site_label
_atom_site_type_symbol
_atom_site_fract_x
_atom_site_fract_y
_atom_site_fract_z
Zn1	Zn	1.474544	-0.178829	-0.545419
Zn2	Zn	1.474371	-0.253964	-0.384108
Zn3	Zn	1.313233	-0.178850	-0.384130
Zn4	Zn	1.313148	-0.253934	-0.545353
O5	O	1.393824	-0.216394	-0.464752
O6	O	1.609502	-0.188800	-0.524039
O7	O	1.452959	-0.244021	-0.249129
O8	O	1.334739	-0.115980	-0.405562
O9	O	1.609375	-0.244001	-0.405524
O10	O	1.453253	-0.115965	-0.524061
O11	O	1.334571	-0.188835	-0.249145
O12	O	1.178240	-0.188806	-0.405498
O13	O	1.334594	-0.243950	-0.680343
O14	O	1.178177	-0.243970	-0.523948
O15	O	1.453171	-0.188771	-0.680392
O16	O	1.452876	-0.316827	-0.405460
O17	O	1.334426	-0.316805	-0.523926
C18	C	1.143209	-0.216387	-0.464719
C19	C	1.035995	-0.216395	-0.464727
C20	C	0.948926	-0.216397	-0.464743
C21	C	0.839693	-0.216400	-0.464773
C22	C	1.393650	-0.333117	-0.464705
C23	C	1.393663	-0.383051	-0.464716
C24	C	1.455613	-0.692693	-0.403157
C25	C	1.455732	-0.880366	-0.403195
O26	O	1.508265	-0.904630	-0.350818
N27	N	1.394024	-0.903836	-0.464825
C28	C	1.332286	-0.880385	-0.526455
O29	O	1.279809	-0.904654	-0.578884
C30	C	1.332172	-0.692713	-0.526422
C31	C	1.393878	-0.669245	-0.464780
C32	C	1.517314	-0.669226	-0.341522
C33	C	1.517280	-0.622311	-0.341509
C34	C	1.455545	-0.598863	-0.403132
C35	C	1.393844	-0.622330	-0.464768
C36	C	1.270440	-0.669262	-0.588056
C37	C	1.270419	-0.622341	-0.588044
C38	C	1.332124	-0.598874	-0.526403
C39	C	1.332074	-0.551966	-0.526379
N40	N	1.393783	-0.528497	-0.464748
C41	C	1.455518	-0.551945	-0.403125
C42	C	1.332349	-0.978915	-0.526467
C43	C	1.332376	-1.025833	-0.526474
C44	C	1.455823	-1.025812	-0.403215
C45	C	1.455790	-0.978893	-0.403203
C46	C	1.394057	-0.955446	-0.464836
C47	C	1.455441	-0.453419	-0.403103
C48	C	1.455398	-0.406499	-0.403093
C49	C	1.331955	-0.406525	-0.526356
C50	C	1.331993	-0.453441	-0.526362
C51	C	1.393744	-0.476886	-0.464733
O52	O	1.279576	-0.527674	-0.578735
O53	O	1.508002	-0.527668	-0.350720
C54	C	1.455647	-0.739609	-0.403170
C55	C	1.393946	-0.763076	-0.464805
C56	C	1.332211	-0.739628	-0.526429
C57	C	1.393973	-0.809994	-0.464813
C58	C	1.455708	-0.833442	-0.403189
C59	C	1.517416	-0.809972	-0.341559
C60	C	1.517382	-0.763057	-0.341547
C61	C	1.270503	-0.763098	-0.588059
C62	C	1.270541	-0.810013	-0.588066
C63	C	1.332276	-0.833462	-0.526442
C64	C	1.645417	-0.216401	-0.464787
C65	C	1.752631	-0.216405	-0.464801
C66	C	1.393892	-0.216355	-0.716346
C67	C	1.393921	-0.216338	-0.823560
C68	C	1.394025	-0.099216	-0.464822
C69	C	1.394111	-0.049281	-0.464851
C70	C	1.393948	-0.216307	-1.019855
C71	C	1.393930	-0.216325	-0.910622
C72	C	1.393811	-0.216401	-0.214138
C73	C	1.393969	-0.216292	-0.106925
H74	H	1.505646	-0.387394	-0.352894
O75	O	1.515957	-1.048530	-0.343406
C76	C	1.612058	-1.037005	-0.364636
H77	H	1.613971	-1.002929	-0.401724
H78	H	1.655375	-1.035389	-0.295081
H79	H	1.644537	-1.063377	-0.414270
O80	O	1.210480	-0.740274	-0.647785
C81	C	1.148171	-0.713195	-0.592799
H82	H	1.182230	-0.706170	-0.519733
H83	H	1.135187	-0.680198	-0.632071
H84	H	1.076713	-0.731320	-0.582129
O85	O	1.272131	-0.383721	-0.586319
C86	C	1.327016	-0.356527	-0.648635
H87	H	1.402988	-0.370634	-0.654660
H88	H	1.292100	-0.355980	-0.722839
H89	H	1.330341	-0.320979	-0.618797
H90	H	1.220189	-0.688361	-0.638247
O91	O	1.577286	-0.832740	-0.281571
C92	C	1.556289	-0.821323	-0.185400
H93	H	1.479231	-0.808458	-0.180429
H94	H	1.564639	-0.852199	-0.137785
H95	H	1.608016	-0.794082	-0.160218
H96	H	1.282120	-1.044936	-0.576660
O97	O	1.272278	-0.956212	-0.586365
C98	C	1.217840	-0.986993	-0.640769
H99	H	1.214557	-1.020450	-0.601255
H100	H	1.141822	-0.973475	-0.650978
H101	H	1.253120	-0.991943	-0.714065
O102	O	1.210564	-0.832737	-0.648039
C103	C	1.156057	-0.801975	-0.702406
H104	H	1.195544	-0.768510	-0.705760
H105	H	1.145743	-0.815505	-0.778404
H106	H	1.082811	-0.797034	-0.667018
H107	H	1.220149	-0.603253	-0.638236
O108	O	1.272021	-0.476170	-0.586327
C109	C	1.217505	-0.445411	-0.640693
H110	H	1.256984	-0.411944	-0.644051
H111	H	1.207191	-0.458942	-0.716690
H112	H	1.144259	-0.440474	-0.605303
H113	H	1.567628	-0.743953	-0.291353
H114	H	1.567528	-0.603206	-0.291318
O115	O	1.515561	-0.476136	-0.343281
C116	C	1.611675	-0.464617	-0.364471
H117	H	1.613613	-0.430541	-0.401561
H118	H	1.654962	-0.463001	-0.294896
H119	H	1.644169	-0.490991	-0.414087
O120	O	1.577317	-0.691930	-0.281562
C121	C	1.631779	-0.661147	-0.227187
H122	H	1.592243	-0.627724	-0.223823
H123	H	1.642114	-0.674715	-0.151193
H124	H	1.705017	-0.656110	-0.262574
O125	O	1.515686	-0.956148	-0.343196
C126	C	1.494644	-0.967646	-0.247041
H127	H	1.457578	-1.001728	-0.245016
H128	H	1.564283	-0.969237	-0.203854
H129	H	1.445060	-0.941272	-0.214499
