data_functionalizedCrystal
_audit_creation_method	'MofGen! by Chris Wilmer'
_symmetry_space_group_name_H-M	'P1'
_symmetry_Int_Tables_number	1
_symmetry_cell_setting	triclinic
loop_
_symmetry_equiv_pos_as_xyz
  x,y,z
_cell_length_a	18.050589
_cell_length_b	11.169417
_cell_length_c	11.169409
_cell_angle_alpha	90.021683
_cell_angle_beta	89.967150
_cell_angle_gamma	89.972841
loop_
_atom_site_label
_atom_site_type_symbol
_atom_site_fract_x
_atom_site_fract_y
_atom_site_fract_z
Zn1	Zn	-0.295620	-1.834813	-0.678598
Zn2	Zn	-0.419835	-1.834640	-0.477913
Zn3	Zn	-0.295661	-1.634099	-0.477926
Zn4	Zn	-0.419771	-1.634044	-0.678551
O5	O	-0.357722	-1.734399	-0.578247
O6	O	-0.312108	-2.002740	-0.651991
O7	O	-0.403408	-1.807988	-0.309965
O8	O	-0.191731	-1.660820	-0.504570
O9	O	-0.403368	-2.002613	-0.504548
O10	O	-0.191701	-1.808284	-0.652003
O11	O	-0.312178	-1.660652	-0.309974
O12	O	-0.312115	-1.466142	-0.504525
O13	O	-0.403258	-1.660726	-0.846507
O14	O	-0.403297	-1.466102	-0.651924
O15	O	-0.312045	-1.808230	-0.846542
O16	O	-0.523751	-1.807935	-0.504503
O17	O	-0.523704	-1.660558	-0.651911
C18	C	-0.357704	-1.422574	-0.578221
C19	C	-0.357714	-1.289174	-0.578239
C20	C	-0.550674	-1.734254	-0.578227
C21	C	-0.633220	-1.734302	-0.578259
C22	C	-0.832672	-1.654237	-0.658391
C23	C	-0.882123	-1.624974	-0.548875
C24	C	-0.784350	-1.734420	-0.578274
C25	C	-0.881981	-1.763742	-0.687803
C26	C	-0.930335	-1.734532	-0.578299
C27	C	-0.832714	-1.705099	-0.468700
C28	C	-0.832568	-1.843918	-0.607702
C29	C	-0.881997	-1.814697	-0.498110
C30	C	-0.700252	-1.734353	-0.578262
C31	C	-1.014432	-1.734599	-0.578299
C32	C	-0.164016	-1.734577	-0.578293
C33	C	-0.081471	-1.734653	-0.578313
C34	C	-0.357640	-1.734491	-0.891290
C35	C	-0.357604	-1.734531	-1.024690
C36	C	-0.357734	-1.047441	-0.578264
C37	C	-0.357723	-1.180841	-0.578247
C38	C	-0.357751	-1.734376	-0.266422
C39	C	-0.357576	-1.734570	-0.133023
H40	H	-0.811013	-1.586330	-0.726048
H41	H	-0.810787	-1.936444	-0.632622
O42	O	-0.807134	-1.675464	-0.358092
C43	C	-0.867558	-1.654774	-0.280744
H44	H	-0.918535	-1.703392	-0.316248
H45	H	-0.879351	-1.554605	-0.275939
C46	C	-0.786161	-1.642099	-0.111174
C47	C	-0.848770	-1.701821	-0.154776
H48	H	-0.774572	-1.671113	-0.033469
H49	H	-0.745452	-1.656033	-0.163285
H50	H	-0.795997	-1.558628	-0.107181
H51	H	-0.838931	-1.785287	-0.158783
H52	H	-0.889478	-1.687901	-0.102662
H53	H	-0.903622	-1.788498	-0.780420
O54	O	-0.907805	-1.895631	-0.417297
C55	C	-0.985908	-1.895468	-0.418862
H56	H	-1.006220	-1.859743	-0.508631
H57	H	-1.007542	-1.835872	-0.343680
C58	C	-0.989616	-2.067928	-0.290612
C59	C	-1.014563	-2.024060	-0.400872
H60	H	-1.007293	-2.147249	-0.279509
H61	H	-0.936996	-2.068037	-0.289553
H62	H	-1.007647	-2.018255	-0.227972
H63	H	-0.996525	-2.073725	-0.463509
H64	H	-1.067181	-2.023963	-0.401940
H65	H	-0.903906	-1.532427	-0.524007
