data_functionalizedCrystal
_audit_creation_method	'MofGen! by Chris Wilmer'
_symmetry_space_group_name_H-M	'P1'
_symmetry_Int_Tables_number	1
_symmetry_cell_setting	triclinic
loop_
_symmetry_equiv_pos_as_xyz
  x,y,z
_cell_length_a	17.699083
_cell_length_b	14.853567
_cell_length_c	16.176319
_cell_angle_alpha	89.996997
_cell_angle_beta	89.998611
_cell_angle_gamma	83.458972
loop_
_atom_site_label
_atom_site_type_symbol
_atom_site_fract_x
_atom_site_fract_y
_atom_site_fract_z
O1	O	1.004375	0.114008	-0.068624
O2	O	0.784035	0.128841	-0.068650
O3	O	0.900090	-0.009827	-0.068639
O4	O	0.888319	0.252676	-0.068635
O5	O	0.900074	-0.009836	0.068855
O6	O	0.784019	0.128832	0.068843
O7	O	1.004359	0.113999	0.068869
Cu8	Cu	0.894187	0.121415	0.081411
Cu9	Cu	0.894206	0.121425	-0.081191
O10	O	0.888303	0.252667	0.068858
C11	C	0.755828	0.128305	0.000093
C12	C	0.671806	0.126711	0.000083
C13	C	0.899549	-0.043418	0.000106
C14	C	0.897951	-0.143496	0.000098
C15	C	0.623396	0.208106	0.000084
C16	C	0.544449	0.206602	0.000095
C17	C	0.513913	0.123703	0.000098
C18	C	0.562329	0.042301	0.000099
C19	C	0.641275	0.043806	0.000095
C20	C	0.243950	0.036232	0.000120
C21	C	0.164999	0.034734	0.000122
C22	C	0.147125	0.199028	0.000120
C23	C	0.226070	0.200533	0.000115
C24	C	0.274479	0.119132	0.000121
C25	C	0.360083	0.120763	0.000111
C26	C	0.428311	0.122070	0.000102
C27	C	0.822255	-0.555751	0.000105
C28	C	0.960131	-0.577539	0.000121
C29	C	0.961634	-0.483511	0.000117
C30	C	0.893446	-0.425598	0.000107
C31	C	0.823756	-0.461714	0.000103
C32	C	1.031324	-0.447389	0.000129
C33	C	1.032829	-0.353355	0.000126
C34	C	0.964641	-0.295441	0.000111
C35	C	0.894947	-0.331561	0.000105
C36	C	0.826759	-0.273648	0.000096
C37	C	0.757065	-0.309767	0.000084
C38	C	0.755567	-0.403799	0.000088
C39	C	0.966139	-0.201409	0.000107
C40	C	0.828260	-0.179611	0.000094
C41	C	1.032565	0.114535	0.000125
C42	C	1.116587	0.116130	0.000129
C43	C	0.888844	0.286258	0.000112
C44	C	0.890443	0.386336	0.000114
N45	N	0.894179	0.121407	0.195776
N46	N	0.894220	0.121426	-0.195556
C47	C	0.945584	0.060030	0.239045
C48	C	0.945588	0.060029	0.325592
C49	C	0.894190	0.121410	0.368868
C50	C	0.842780	0.182790	0.325593
C51	C	0.842773	0.182786	0.239048
C52	C	0.842806	0.182807	0.674621
C53	C	0.842818	0.182808	0.761173
C54	C	0.945621	0.060050	0.761166
C55	C	0.945614	0.060046	0.674620
C56	C	0.894201	0.121422	0.631353
C57	C	0.894197	0.121422	0.537508
C58	C	0.894198	0.121416	0.462711
H59	H	0.505037	0.272882	0.000095
N60	N	1.001059	-0.006149	0.372250
H61	H	0.992303	-0.070132	0.357196
H62	H	1.054744	0.004269	0.357141
H63	H	0.107700	0.265309	0.000120
H64	H	0.680690	-0.022475	0.000093
N65	N	1.001053	-0.006153	0.627944
H66	H	1.033619	-0.045038	0.668488
H67	H	0.972035	-0.045967	0.592043
N68	N	0.258996	0.289951	0.000114
H69	H	0.291354	0.294234	0.051081
H70	H	0.291312	0.294191	-0.050890
H71	H	1.022883	-0.172005	0.000122
H72	H	0.800945	0.232783	0.639400
H73	H	0.765511	-0.585163	0.000092
H74	H	0.701546	-0.262602	0.000083
N75	N	0.680404	-0.442758	0.000090
H76	H	0.637433	-0.391805	0.000082
H77	H	0.676783	-0.481302	-0.050877
H78	H	0.140140	-0.032777	0.000126
N79	N	1.107996	-0.314405	0.000121
H80	H	1.098603	-0.246048	0.000114
H81	H	1.137836	-0.335596	0.051095
H82	H	1.086839	-0.494548	0.000145
N83	N	1.001075	-0.006153	0.807833
H84	H	0.993281	0.003158	0.869226
H85	H	0.992271	-0.070098	0.792709
N86	N	0.754716	-0.117143	0.000095
H87	H	0.752270	-0.077637	-0.050871
H88	H	0.710381	-0.154353	0.000122
N89	N	0.787375	0.249010	0.807853
H90	H	0.754801	0.287888	0.767311
H91	H	0.753893	0.214535	0.843769
H92	H	1.015647	-0.624697	0.000135
N93	N	1.001026	-0.006169	0.192371
H94	H	1.033590	-0.045052	0.232918
H95	H	0.972010	-0.045985	0.156470
H96	H	0.800927	0.232765	0.360834
H97	H	0.800913	0.232764	0.203819
N98	N	0.296148	-0.051567	0.000126
H99	H	0.286314	-0.087739	-0.050842
H100	H	0.350775	-0.037975	0.000159
N101	N	0.656329	0.297520	0.000071
H102	H	0.613679	0.348854	0.000074
H103	H	0.688698	0.301723	0.051038
N104	N	0.529399	-0.047114	0.000116
H105	H	0.472041	-0.035718	0.000119
H106	H	0.547100	-0.082727	-0.050852
