data_functionalizedCrystal
_audit_creation_method	'MofGen! by Chris Wilmer'
_symmetry_space_group_name_H-M	'P1'
_symmetry_Int_Tables_number	1
_symmetry_cell_setting	triclinic
loop_
_symmetry_equiv_pos_as_xyz
  x,y,z
_cell_length_a	19.077068
_cell_length_b	19.805407
_cell_length_c	19.805399
_cell_angle_alpha	89.980427
_cell_angle_beta	87.730571
_cell_angle_gamma	87.672914
loop_
_atom_site_label
_atom_site_type_symbol
_atom_site_fract_x
_atom_site_fract_y
_atom_site_fract_z
Zn1	Zn	-0.280218	-1.023904	0.393534
Zn2	Zn	0.219782	-0.523904	0.893534
Zn3	Zn	-0.397917	-1.019269	0.284888
Zn4	Zn	0.102083	-0.519269	0.784888
Zn5	Zn	-0.280237	-0.910718	0.280359
Zn6	Zn	0.219763	-0.410718	0.780359
Zn7	Zn	-0.397880	-0.906134	0.398033
Zn8	Zn	0.102120	-0.406134	0.898033
O9	O	-0.339063	-0.965006	0.339204
O10	O	0.160937	-0.465006	0.839204
O11	O	-0.295839	-1.118005	0.379134
O12	O	0.204161	-0.618005	0.879134
O13	O	-0.382330	-1.004848	0.189571
O14	O	0.117670	-0.504848	0.689571
O15	O	-0.181744	-0.929590	0.291594
O16	O	0.318256	-0.429590	0.791594
O17	O	-0.382312	-1.114600	0.299312
O18	O	0.117688	-0.614600	0.799312
O19	O	-0.181729	-1.012748	0.374743
O20	O	0.318271	-0.512748	0.874743
O21	O	-0.295872	-0.925096	0.186244
O22	O	0.204128	-0.425096	0.686244
O23	O	-0.295835	-0.815394	0.295957
O24	O	0.204165	-0.315394	0.795957
O25	O	-0.382248	-0.921778	0.492152
O26	O	0.117752	-0.421778	0.992152
O27	O	-0.382267	-0.812026	0.382411
O28	O	0.117733	-0.312026	0.882411
O29	O	-0.295802	-1.008303	0.488846
O30	O	0.204198	-0.508303	0.988846
O31	O	-0.496403	-1.000404	0.303675
O32	O	0.003597	-0.500404	0.803675
O33	O	-0.496376	-0.917284	0.386802
O34	O	0.003624	-0.417284	0.886802
C35	C	-0.339050	-0.789151	0.339181
C36	C	0.160950	-0.289151	0.839181
C37	C	-0.339061	-0.713918	0.339188
C38	C	0.160939	-0.213918	0.839188
C39	C	-0.521927	-0.957862	0.346233
C40	C	-0.021927	-0.457862	0.846233
C41	C	-0.600157	-0.954867	0.349263
C42	C	-0.100157	-0.454867	0.849263
C43	C	-0.339019	-0.965046	0.515745
C44	C	0.160981	-0.465046	1.015745
C45	C	-0.339000	-0.965063	0.590976
C46	C	0.161000	-0.465063	1.090976
C47	C	-0.636901	-0.996770	0.307443
C48	C	-0.136901	-0.496770	0.807443
C49	C	-0.710406	-0.993957	0.310296
C50	C	-0.210406	-0.493957	0.810296
C51	C	-0.747167	-0.949238	0.354968
C52	C	-0.247167	-0.449238	0.854968
C53	C	-0.710418	-0.907333	0.396793
C54	C	-0.210418	-0.407333	0.896793
C55	C	-0.636914	-0.910150	0.393942
C56	C	-0.136914	-0.410150	0.893942
C57	C	-0.967002	-0.936174	0.368135
C58	C	-0.467002	-0.436174	0.868135
C59	C	-1.040511	-0.933359	0.370981
C60	C	-0.540511	-0.433359	0.870981
C61	C	-1.040494	-1.019984	0.284485
C62	C	-0.540494	-0.519984	0.784485
C63	C	-0.966989	-1.022794	0.281635
C64	C	-0.466989	-0.522794	0.781635
C65	C	-0.930246	-0.980892	0.323463
C66	C	-0.430246	-0.480892	0.823463
N67	N	-0.822301	-0.946361	0.357884
N68	N	-0.322301	-0.446361	0.857884
N69	N	-0.855113	-0.983773	0.320549
N70	N	-0.355113	-0.483773	0.820549
C71	C	-0.155485	-0.972197	0.332161
C72	C	0.344515	-0.472197	0.832161
C73	C	-0.077255	-0.975262	0.329160
C74	C	0.422745	-0.475262	0.829160
C75	C	-0.339077	-1.141548	0.339226
C76	C	0.160923	-0.641548	0.839226
C77	C	-0.339083	-1.216780	0.339236
C78	C	0.160917	-0.716780	0.839236
C79	C	-0.384133	-0.676836	0.384138
C80	C	0.115867	-0.176836	0.884138
C81	C	-0.384135	-0.606147	0.384147
C82	C	0.115865	-0.106147	0.884147
C83	C	-0.339066	-0.572543	0.339204
C84	C	0.160934	-0.072543	0.839204
C85	C	-0.293989	-0.609630	0.294252
C86	C	0.206011	-0.109630	0.794252
C87	C	-0.293985	-0.680318	0.294246
C88	C	0.206015	-0.180318	0.794246
C89	C	-0.294004	-0.324556	0.294275
C90	C	0.205996	0.175444	0.794275
C91	C	-0.294014	-0.253864	0.294283
C92	C	0.205986	0.246136	0.794283
C93	C	-0.384154	-0.250386	0.384176
C94	C	0.115846	0.249614	0.884176
C95	C	-0.384150	-0.321073	0.384170
C96	C	0.115850	0.178927	0.884170
C97	C	-0.339070	-0.358155	0.339221
C98	C	0.160930	0.141845	0.839221
C99	C	-0.339069	-0.434804	0.339212
C100	C	0.160931	0.065196	0.839212
C101	C	-0.339071	-0.495895	0.339209
C102	C	0.160929	0.004105	0.839209
C103	C	-0.339056	-0.965008	0.163347
C104	C	0.160944	-0.465008	0.663347
C105	C	-0.338877	-0.965130	0.088109
C106	C	0.161123	-0.465130	0.588109
C107	C	-0.293985	-1.010118	0.624600
C108	C	0.206015	-0.510118	1.124600
C109	C	-0.293965	-1.010125	0.695288
C110	C	0.206035	-0.510125	1.195288
C111	C	-0.338963	-0.965081	0.732350
C112	C	0.161037	-0.465081	1.232350
C113	C	-0.383980	-0.920022	0.698721
C114	C	0.116020	-0.420022	1.198721
C115	C	-0.383996	-0.920011	0.628035
C116	C	0.116004	-0.420011	1.128035
C117	C	-0.383914	-0.920062	0.983792
C118	C	0.116086	-0.420062	1.483792
C119	C	-0.383896	-0.920078	1.054484
C120	C	0.116104	-0.420078	1.554484
C121	C	-0.293883	-1.010177	1.051045
C122	C	0.206117	-0.510177	1.551045
C123	C	-0.293899	-1.010166	0.980358
C124	C	0.206101	-0.510166	1.480358
C125	C	-0.338913	-0.965104	0.946736
C126	C	0.161087	-0.465104	1.446736
C127	C	-0.338934	-0.965096	0.870088
C128	C	0.161066	-0.465096	1.370088
C129	C	-0.338947	-0.965093	0.808997
C130	C	0.161053	-0.465093	1.308997
H131	H	-0.606975	-1.033182	0.271063
H132	H	-0.106975	-0.533182	0.771063
Cl133	Cl	-0.237326	-0.567385	0.237755
Cl134	Cl	0.262674	-0.067385	0.737755
Cl135	Cl	-1.086689	-1.072662	0.231909
Cl136	Cl	-0.586689	-0.572662	0.731909
H137	H	-0.420644	-0.883316	0.600659
H138	H	0.079356	-0.383316	1.100659
Cl139	Cl	-0.756632	-0.851118	0.452956
Cl140	Cl	-0.256632	-0.351118	0.952956
H141	H	-0.606998	-0.876029	0.427998
H142	H	-0.106998	-0.376029	0.927998
Cl143	Cl	-0.237318	-0.726936	0.237738
Cl144	Cl	0.262682	-0.226936	0.737738
H145	H	-0.420836	-0.704191	0.420734
H146	H	0.079164	-0.204191	0.920734
Cl147	Cl	-0.440800	-0.559532	0.440658
Cl148	Cl	0.059200	-0.059532	0.940658
Cl149	Cl	-1.086724	-0.877127	0.427135
Cl150	Cl	-0.586724	-0.377127	0.927135
H151	H	-0.420852	-0.348430	0.420766
H152	H	0.079148	0.151570	0.920766
Cl153	Cl	-0.440827	-0.203765	0.440685
Cl154	Cl	0.059173	0.296235	0.940685
H155	H	-0.257311	-1.046815	0.722661
H156	H	0.242689	-0.546815	1.222661
H157	H	-0.257309	-0.226505	0.257684
H158	H	0.242691	0.273495	0.757684
H159	H	-0.257345	-1.046800	0.594428
H160	H	0.242655	-0.546800	1.094428
Cl161	Cl	-0.237291	-1.066824	1.093318
Cl162	Cl	0.262709	-0.566824	1.593318
H163	H	-0.257260	-1.046848	0.950185
H164	H	0.242740	-0.546848	1.450185
H165	H	-0.420540	-0.883394	1.084658
H166	H	0.079460	-0.383394	1.584658
H167	H	-0.740320	-1.028079	0.276241
H168	H	-0.240320	-0.528079	0.776241
Cl169	Cl	-0.237331	-0.371164	0.237770
Cl170	Cl	0.262669	0.128836	0.737770
Cl171	Cl	-0.920781	-1.079024	0.225484
Cl172	Cl	-0.420781	-0.579024	0.725484
H173	H	-0.937092	-0.902054	0.402191
H174	H	-0.437092	-0.402054	0.902191
H175	H	-0.420577	-0.883380	0.956426
H176	H	0.079423	-0.383380	1.456426
H177	H	-0.420615	-0.883343	0.728903
H178	H	0.079385	-0.383343	1.228903
