data_functionalizedCrystal
_audit_creation_method	'MofGen! by Chris Wilmer'
_symmetry_space_group_name_H-M	'P1'
_symmetry_Int_Tables_number	1
_symmetry_cell_setting	triclinic
loop_
_symmetry_equiv_pos_as_xyz
  x,y,z
_cell_length_a	17.637015
_cell_length_b	16.625548
_cell_length_c	17.640968
_cell_angle_alpha	78.773498
_cell_angle_beta	109.664735
_cell_angle_gamma	78.774635
loop_
_atom_site_label
_atom_site_type_symbol
_atom_site_fract_x
_atom_site_fract_y
_atom_site_fract_z
Zn1	Zn	-0.233959	-1.266869	0.399638
Zn2	Zn	-0.399710	-1.198411	0.233904
Zn3	Zn	-0.261861	-1.097850	0.261815
Zn4	Zn	-0.371793	-1.097817	0.371693
O5	O	-0.316831	-1.165237	0.316762
O6	O	-0.255952	-1.370622	0.377668
O7	O	-0.404784	-1.156435	0.122261
O8	O	-0.142785	-1.148935	0.303473
O9	O	-0.377728	-1.320326	0.255903
O10	O	-0.122285	-1.273113	0.404732
O11	O	-0.303507	-1.082554	0.142767
O12	O	-0.276438	-0.985012	0.276376
O13	O	-0.330149	-1.148878	0.490745
O14	O	-0.357205	-0.984987	0.357103
O15	O	-0.228883	-1.273080	0.511276
O16	O	-0.511381	-1.156403	0.228806
O17	O	-0.490871	-1.082497	0.330039
C18	C	-0.531038	-1.112044	0.273379
C19	C	-0.622671	-1.089368	0.254847
C20	C	-0.316820	-0.955743	0.316736
C21	C	-0.316832	-0.866120	0.316740
C22	C	-0.762575	-0.992776	0.175955
C23	C	-0.676471	-1.014090	0.193375
C24	C	-0.654962	-1.143364	0.298922
C25	C	-0.741067	-1.122062	0.281508
C26	C	-0.794867	-1.046767	0.220024
C27	C	-0.773360	-1.176053	0.325577
C28	C	-0.859457	-1.154750	0.308167
C29	C	-0.913261	-1.079457	0.246688
C30	C	-0.880964	-1.025464	0.202614
C31	C	-0.719557	-1.251345	0.387064
C32	C	-0.751849	-1.305335	0.431134
C33	C	-0.837949	-1.284036	0.413720
C34	C	-0.891754	-1.208743	0.352241
C35	C	-0.870246	-1.338029	0.457794
C36	C	-0.956343	-1.316727	0.440384
C37	C	-0.977851	-1.187441	0.334831
C38	C	-0.316825	-0.537951	0.316766
C39	C	-0.316825	-0.629257	0.316756
C40	C	-0.316829	-0.702032	0.316752
C41	C	-0.316828	-0.793345	0.316745
C42	C	-0.101783	-1.218664	0.360333
C43	C	-0.010143	-1.241431	0.378900
C44	C	-0.273290	-1.218612	0.531755
C45	C	-0.254735	-1.241357	0.623371
C46	C	-0.316838	-0.375548	0.316782
C47	C	-0.316831	-0.465169	0.316773
C48	C	-0.360143	-1.112131	0.102619
C49	C	-0.378465	-1.089599	0.011050
C50	C	-0.457339	-0.992865	0.871238
C51	C	-0.439894	-1.014257	0.957329
C52	C	-0.334454	-1.143578	0.978695
C53	C	-0.351887	-1.122194	0.892606
C54	C	-0.413332	-1.046837	0.838884
C55	C	-0.307880	-1.176167	0.860251
C56	C	-0.325316	-1.154787	0.774169
C57	C	-0.386759	-1.079435	0.720441
C58	C	-0.430767	-1.025457	0.752801
C59	C	-0.246440	-1.251526	0.913974
C60	C	-0.202433	-1.305499	0.881620
C61	C	-0.219864	-1.284117	0.795537
C62	C	-0.281307	-1.208764	0.741809
C63	C	-0.175855	-1.338094	0.763176
C64	C	-0.193291	-1.316714	0.677094
C65	C	-0.298742	-1.187384	0.655726
H66	H	-1.021659	-1.126131	0.284761
C67	C	-0.108268	-1.420983	0.822282
N68	N	-0.057358	-1.483415	0.866801
C69	C	-0.134839	-1.388384	0.940725
N70	N	-0.083921	-1.450812	0.985243
H71	H	-0.157454	-1.360663	0.650751
H72	H	-0.650184	-0.970118	0.157484
H73	H	-0.826430	-1.399331	0.507859
H74	H	-0.806384	-0.931466	0.125884
C75	C	-0.498359	-0.942560	0.693701
N76	N	-0.549268	-0.880126	0.649187
C77	C	-1.007972	-1.056024	0.227536
N78	N	-1.079308	-1.038376	0.213110
C79	C	-0.692661	-1.388160	0.498761
N80	N	-0.648081	-1.450547	0.549696
C81	C	-0.624848	-1.274778	0.406211
N82	N	-0.553514	-1.292428	0.420630
H83	H	-0.982633	-1.360685	0.476279
H84	H	-0.924773	-0.964154	0.152544
H85	H	-0.611148	-1.204668	0.348984
H86	H	-0.400957	-1.062031	0.650347
C87	C	-0.366334	-1.104487	0.596626
N88	N	-0.417243	-1.042053	0.552112
H89	H	-0.507353	-0.931487	0.827498
H90	H	-0.475735	-0.970300	0.983667
C91	C	-0.266860	-1.226463	1.037800
N92	N	-0.215943	-1.288890	1.082319
H93	H	-0.232248	-1.268933	0.984067
