data_functionalizedCrystal
_audit_creation_method	'MofGen! by Chris Wilmer'
_symmetry_space_group_name_H-M	'P1'
_symmetry_Int_Tables_number	1
_symmetry_cell_setting	triclinic
loop_
_symmetry_equiv_pos_as_xyz
  x,y,z
_cell_length_a	11.792254
_cell_length_b	11.792254
_cell_length_c	12.503572
_cell_angle_alpha	93.547393
_cell_angle_beta	86.456155
_cell_angle_gamma	84.198598
loop_
_atom_site_label
_atom_site_type_symbol
_atom_site_fract_x
_atom_site_fract_y
_atom_site_fract_z
O1	O	-1.513414	-0.149108	0.089352
O2	O	-1.263414	0.100892	0.339352
O3	O	-1.013414	0.350892	0.589352
O4	O	-0.763414	0.600892	0.839352
O5	O	-1.183075	-0.165126	0.089347
O6	O	-0.933075	0.084874	0.339347
O7	O	-0.683075	0.334874	0.589347
O8	O	-0.433075	0.584874	0.839347
O9	O	-1.356253	0.008052	0.089342
O10	O	-1.106253	0.258052	0.339342
O11	O	-0.856253	0.508052	0.589342
O12	O	-0.606253	0.758052	0.839342
O13	O	-1.340236	-0.322285	0.089357
O14	O	-1.090236	-0.072285	0.339357
O15	O	-0.840236	0.177715	0.589357
O16	O	-0.590236	0.427715	0.839357
O17	O	-1.343229	-0.004994	-0.089300
O18	O	-1.093229	0.245006	0.160700
O19	O	-0.843229	0.495006	0.410700
O20	O	-0.593229	0.745006	0.660700
O21	O	-1.170051	-0.178171	-0.089294
O22	O	-0.920051	0.071829	0.160706
O23	O	-0.670051	0.321829	0.410706
O24	O	-0.420051	0.571829	0.660706
O25	O	-1.500390	-0.162153	-0.089290
O26	O	-1.250390	0.087847	0.160710
O27	O	-1.000390	0.337847	0.410710
O28	O	-0.750390	0.587847	0.660710
Cu29	Cu	-1.334031	-0.171354	-0.105604
Cu30	Cu	-1.084031	0.078646	0.144396
Cu31	Cu	-0.834031	0.328646	0.394396
Cu32	Cu	-0.584031	0.578646	0.644396
Cu33	Cu	-1.349434	-0.155925	0.105661
Cu34	Cu	-1.099434	0.094075	0.355661
Cu35	Cu	-0.849434	0.344075	0.605661
Cu36	Cu	-0.599434	0.594075	0.855661
O37	O	-1.327212	-0.335331	-0.089285
O38	O	-1.077212	-0.085331	0.160715
O39	O	-0.827212	0.164669	0.410715
O40	O	-0.577212	0.414669	0.660715
C41	C	-1.134272	-0.170640	0.000026
C42	C	-0.884272	0.079360	0.250026
C43	C	-0.634272	0.329360	0.500026
C44	C	-0.384272	0.579360	0.750026
C45	C	-1.008259	-0.167620	0.000024
C46	C	-0.758259	0.082380	0.250024
C47	C	-0.508259	0.332380	0.500024
C48	C	-0.258259	0.582380	0.750024
C49	C	-0.905923	-0.165166	0.000026
C50	C	-0.655923	0.084834	0.250026
C51	C	-0.405923	0.334834	0.500026
C52	C	-0.155923	0.584834	0.750026
C53	C	-0.777536	-0.162097	0.000024
C54	C	-0.527536	0.087903	0.250024
C55	C	-0.277536	0.337903	0.500024
C56	C	-0.027536	0.587903	0.750024
N57	N	-1.323207	-0.182204	-0.254196
N58	N	-1.073207	0.067796	-0.004196
N59	N	-0.823207	0.317796	0.245804
N60	N	-0.573207	0.567796	0.495804
C61	C	-1.348732	0.043820	0.000021
C62	C	-1.098732	0.293820	0.250021
C63	C	-0.848732	0.543820	0.500021
C64	C	-0.598732	0.793820	0.750021
C65	C	-1.345712	0.169833	0.000022
C66	C	-1.095712	0.419833	0.250022
C67	C	-0.845712	0.669833	0.500022
C68	C	-0.595712	0.919833	0.750022
C69	C	-0.549193	-0.156640	0.000029
C70	C	-0.299193	0.093360	0.250029
C71	C	-0.049193	0.343360	0.500029
C72	C	0.200807	0.593360	0.750029
C73	C	-0.675205	-0.159660	0.000022
C74	C	-0.425205	0.090340	0.250022
C75	C	-0.175205	0.340340	0.500022
C76	C	0.074795	0.590340	0.750022
C77	C	-1.334733	-0.371099	0.000038
C78	C	-1.084733	-0.121099	0.250038
C79	C	-0.834733	0.128901	0.500038
C80	C	-0.584733	0.378901	0.750038
C81	C	-1.337754	-0.497111	0.000044
C82	C	-1.087754	-0.247111	0.250044
C83	C	-0.837754	0.002889	0.500044
C84	C	-0.587754	0.252889	0.750044
C85	C	-1.343258	0.272170	0.000026
C86	C	-1.093258	0.522170	0.250026
C87	C	-0.843258	0.772170	0.500026
C88	C	-0.593258	1.022170	0.750026
C89	C	-1.340191	0.400558	0.000036
C90	C	-1.090191	0.650558	0.250036
C91	C	-0.840191	0.900558	0.500036
C92	C	-0.590191	1.150558	0.750036
C93	C	-1.307283	-0.198175	-0.473310
C94	C	-1.057283	0.051825	-0.223310
C95	C	-0.807283	0.301825	0.026690
C96	C	-0.557283	0.551825	0.276690
C97	C	-1.376187	-0.129098	-0.526640
C98	C	-1.126187	0.120902	-0.276640
C99	C	-0.876187	0.370902	-0.026640
C100	C	-0.626187	0.620902	0.223360
C101	C	-1.367327	-0.137985	-0.648562
C102	C	-1.117327	0.112015	-0.398562
C103	C	-0.867327	0.362015	-0.148562
C104	C	-0.617327	0.612015	0.101438
C105	C	-1.316142	-0.189290	-0.351376
C106	C	-1.066142	0.060710	-0.101376
C107	C	-0.816142	0.310710	0.148624
C108	C	-0.566142	0.560710	0.398624
N109	N	-1.360267	-0.145066	0.254253
N110	N	-1.110267	0.104934	0.504253
N111	N	-0.860267	0.354934	0.754253
N112	N	-0.610267	0.604934	1.004253
H113	H	-1.441833	-0.063287	-0.480729
H114	H	-1.191833	0.186713	-0.230729
H115	H	-0.941833	0.436713	0.019271
H116	H	-0.691833	0.686713	0.269271
Cl117	Cl	-1.205940	-0.299784	-0.544187
Cl118	Cl	-0.955940	-0.049784	-0.294187
Cl119	Cl	-0.705940	0.200216	-0.044187
Cl120	Cl	-0.455940	0.450216	0.205813
