data_functionalizedCrystal
_audit_creation_method	'MofGen! by Chris Wilmer'
_symmetry_space_group_name_H-M	'P1'
_symmetry_Int_Tables_number	1
_symmetry_cell_setting	triclinic
loop_
_symmetry_equiv_pos_as_xyz
  x,y,z
_cell_length_a	27.732064
_cell_length_b	27.732048
_cell_length_c	12.996460
_cell_angle_alpha	89.988908
_cell_angle_beta	90.002042
_cell_angle_gamma	82.646040
loop_
_atom_site_label
_atom_site_type_symbol
_atom_site_fract_x
_atom_site_fract_y
_atom_site_fract_z
O1	O	0.640923	0.057556	-0.085394
O2	O	0.500130	0.066293	-0.085438
O3	O	0.574899	-0.008472	-0.085395
O4	O	0.566154	0.132321	-0.085437
O5	O	0.574891	-0.008476	0.085739
O6	O	0.500123	0.066289	0.085696
O7	O	0.640915	0.057552	0.085740
Cu8	Cu	0.570518	0.061920	0.101344
Cu9	Cu	0.570527	0.061925	-0.101042
O10	O	0.566146	0.132317	0.085697
C11	C	0.482120	0.066106	0.000123
C12	C	0.428465	0.065551	0.000108
C13	C	0.051392	0.017583	0.000180
C14	C	0.253053	0.019630	0.000153
O15	O	0.284305	-0.017591	0.000203
N16	N	0.272180	0.063964	0.000135
C17	C	0.240889	0.107790	0.000131
O18	O	0.261785	0.145546	0.000126
C19	C	0.039230	0.105743	0.000166
C20	C	0.020105	0.061406	0.000173
C21	C	0.032267	-0.026750	0.000189
C22	C	-0.018145	-0.027261	0.000190
C23	C	-0.049432	0.016561	0.000183
C24	C	-0.030307	0.060895	0.000174
C25	C	0.007940	0.149568	0.000169
C26	C	-0.042478	0.149053	0.000180
C27	C	-0.061602	0.104716	0.000188
C28	C	-0.112006	0.104206	0.000168
N29	N	-0.131134	0.059872	0.000186
C30	C	-0.099846	0.016049	0.000193
C31	C	0.346763	0.108861	0.000111
C32	C	0.397178	0.109373	0.000100
C33	C	0.409338	0.021213	0.000124
C34	C	0.358923	0.020701	0.000127
C35	C	0.327636	0.064527	0.000129
C36	C	-0.205716	0.014979	0.000195
C37	C	-0.256133	0.014472	0.000192
C38	C	-0.268289	0.102632	0.000174
C39	C	-0.217876	0.103140	0.000171
C40	C	-0.186590	0.059309	0.000185
O41	O	-0.143287	0.141407	0.000131
O42	O	-0.120752	-0.021701	0.000221
C43	C	0.101805	0.018094	0.000179
C44	C	0.120930	0.062428	0.000171
C45	C	0.089642	0.106250	0.000163
C46	C	0.171344	0.062940	0.000160
C47	C	0.202631	0.019117	0.000167
C48	C	0.183504	-0.025217	0.000185
C49	C	0.133092	-0.025728	0.000186
C50	C	0.108770	0.150585	0.000146
C51	C	0.159183	0.151092	0.000143
C52	C	0.190470	0.107270	0.000151
C53	C	0.574712	-0.026481	0.000174
C54	C	0.574159	-0.080136	0.000183
C55	C	0.614862	-0.418948	0.000143
C56	C	0.612811	-0.620608	0.000128
O57	O	0.650032	-0.651862	0.000094
N58	N	0.568476	-0.639735	0.000115
C59	C	0.524651	-0.608442	0.000099
O60	O	0.486895	-0.629338	0.000077
C61	C	0.526703	-0.406784	0.000107
C62	C	0.571040	-0.387660	0.000130
C63	C	0.659196	-0.399824	0.000165
C64	C	0.659709	-0.349412	0.000174
C65	C	0.615887	-0.318124	0.000161
C66	C	0.571553	-0.337248	0.000139
C67	C	0.482878	-0.375493	0.000083
C68	C	0.483395	-0.325075	0.000083
C69	C	0.527733	-0.305952	0.000106
C70	C	0.528243	-0.255548	0.000136
N71	N	0.572578	-0.236422	0.000149
C72	C	0.616400	-0.267710	0.000161
C73	C	0.523577	-0.714317	0.000097
C74	C	0.523064	-0.764731	0.000097
C75	C	0.611225	-0.776893	0.000124
C76	C	0.611737	-0.726478	0.000131
C77	C	0.567912	-0.695190	0.000110
C78	C	0.617472	-0.161841	0.000182
C79	C	0.617981	-0.111424	0.000196
C80	C	0.529821	-0.099266	0.000163
C81	C	0.529312	-0.149679	0.000155
C82	C	0.573142	-0.180965	0.000161
O83	O	0.491043	-0.224267	0.000158
O84	O	0.654151	-0.246805	0.000160
C85	C	0.614350	-0.469360	0.000133
C86	C	0.570016	-0.488484	0.000111
C87	C	0.526194	-0.457196	0.000098
C88	C	0.569503	-0.538899	0.000111
C89	C	0.613325	-0.570187	0.000124
C90	C	0.657660	-0.551060	0.000137
C91	C	0.658172	-0.500648	0.000146
C92	C	0.481859	-0.476323	0.000085
C93	C	0.481351	-0.526735	0.000077
C94	C	0.525172	-0.558023	0.000090
C95	C	0.658925	0.057739	0.000176
C96	C	0.712580	0.058295	0.000185
C97	C	0.566333	0.150326	0.000125
C98	C	0.566886	0.203981	0.000110
N99	N	0.570515	0.061916	0.243691
N100	N	0.570534	0.061925	-0.243389
C101	C	0.570526	0.061925	0.663505
C102	C	0.570522	0.061925	0.546700
C103	C	0.570521	0.061921	0.453601
C104	C	0.570516	0.061920	0.336789
H105	H	-0.033711	-0.063365	0.000200
H106	H	0.693341	-0.576544	0.000152
H107	H	0.057737	-0.062438	0.000198
H108	H	-0.202304	0.139243	0.000164
H109	H	-0.180248	-0.020712	0.000206
H110	H	0.493209	-0.165249	0.000165
H111	H	0.321293	0.144551	0.000110
H112	H	-0.271701	-0.021634	0.000195
H113	H	-0.293772	0.138311	0.000163
C114	C	0.083459	-0.077455	-0.087773
C115	C	0.112076	-0.074466	0.000198
H116	H	0.070490	-0.107547	-0.087766
H117	H	0.057607	-0.051437	-0.087768
H118	H	0.102875	-0.075416	-0.147446
H119	H	0.092659	-0.076502	0.059872
H120	H	0.137931	-0.100491	0.000203
C121	C	0.376018	-0.066388	0.000149
C122	C	0.337904	-0.028035	0.000146
H123	H	0.363042	-0.096476	0.000168
H124	H	0.395421	-0.064350	-0.059532
H125	H	0.395434	-0.064351	0.059825
H126	H	0.318490	-0.030070	-0.059534
H127	H	0.318492	-0.030074	0.059833
C128	C	0.471330	-0.814370	0.088055
C129	C	0.474327	-0.785748	0.000083
H130	H	0.441239	-0.827340	0.088042
H131	H	0.497349	-0.840220	0.088056
H132	H	0.473361	-0.794956	0.147728
H133	H	0.472299	-0.805162	-0.059590
H134	H	0.448300	-0.759894	0.000072
H135	H	0.412744	0.145477	0.000080
H136	H	0.494142	-0.073782	0.000157
H137	H	0.023502	0.185672	0.000158
H138	H	0.654087	-0.095857	0.000217
H139	H	-0.067950	0.184742	0.000186
H140	H	0.694276	-0.485083	0.000165
C141	C	0.266188	-0.063569	0.000197
C142	C	0.217902	-0.073388	0.000198
H143	H	0.287425	-0.093306	0.000215
H144	H	0.271945	-0.045376	-0.059485
H145	H	0.271945	-0.045372	0.059872
H146	H	0.212144	-0.091581	-0.059481
H147	H	0.212143	-0.091589	0.059886
C148	C	0.394258	-0.509636	0.000032
C149	C	0.432610	-0.547751	0.000048
H150	H	0.364169	-0.522611	0.000001
H151	H	0.396287	-0.490237	0.059715
H152	H	0.396304	-0.490217	-0.059642
H153	H	0.430565	-0.567169	0.059727
H154	H	0.430579	-0.567159	-0.059640
C155	C	0.431283	-0.412567	-0.087895
C156	C	0.433685	-0.441936	0.000074
H157	H	0.401538	-0.391342	-0.087899
H158	H	0.457752	-0.393957	-0.087877
H159	H	0.432921	-0.432484	-0.147570
H160	H	0.432051	-0.422019	0.059749
H161	H	0.407208	-0.460547	0.000065
C162	C	0.473092	-0.029353	-0.087834
C163	C	0.443736	-0.026958	0.000139
H164	H	0.494331	-0.059089	-0.087814
H165	H	0.453170	-0.027727	-0.147500
H166	H	0.491691	-0.002870	-0.087840
H167	H	0.425134	-0.053439	0.000141
H168	H	0.463661	-0.028588	0.059820
H169	H	0.174748	0.187200	0.000130
H170	H	0.083300	0.186271	0.000141
H171	H	0.653163	-0.187309	0.000183
C172	C	0.661786	-0.840636	-0.087855
C173	C	0.659396	-0.811290	0.000124
H174	H	0.691525	-0.861869	-0.087862
H175	H	0.635309	-0.859236	-0.087848
H176	H	0.660153	-0.820702	-0.147523
H177	H	0.661026	-0.831223	0.059792
H178	H	0.685880	-0.792688	0.000127
C179	C	0.746797	-0.366514	0.000189
C180	C	0.708447	-0.328397	0.000186
H181	H	0.776886	-0.353541	0.000188
H182	H	0.744759	-0.385927	0.059864
H183	H	0.744756	-0.385918	-0.059493
H184	H	0.710485	-0.308994	0.059873
H185	H	0.710485	-0.308975	-0.059494
H186	H	0.447706	-0.299603	0.000064
C187	C	0.709784	-0.463562	-0.087792
C188	C	0.707372	-0.434210	0.000179
H189	H	0.739530	-0.484785	-0.087779
H190	H	0.683316	-0.482173	-0.087795
H191	H	0.708151	-0.443632	-0.147465
H192	H	0.709002	-0.454140	0.059853
H193	H	0.733848	-0.415598	0.000192
H194	H	0.647841	-0.710911	0.000149
C195	C	0.436383	-0.707370	0.000085
C196	C	0.475400	-0.679929	0.000088
H197	H	0.406641	-0.686141	0.000091
H198	H	0.438020	-0.727278	-0.059591
H199	H	0.438025	-0.727295	0.059766
H200	H	0.473761	-0.660006	-0.059596
H201	H	0.473763	-0.660012	0.059771
H202	H	0.446774	-0.391054	0.000058
