data_functionalizedCrystal
_audit_creation_method	'MofGen! by Chris Wilmer'
_symmetry_space_group_name_H-M	'P1'
_symmetry_Int_Tables_number	1
_symmetry_cell_setting	triclinic
loop_
_symmetry_equiv_pos_as_xyz
  x,y,z
_cell_length_a	14.519709
_cell_length_b	16.992695
_cell_length_c	16.053802
_cell_angle_alpha	87.258926
_cell_angle_beta	87.419624
_cell_angle_gamma	92.825816
loop_
_atom_site_label
_atom_site_type_symbol
_atom_site_fract_x
_atom_site_fract_y
_atom_site_fract_z
O1	O	1.234886	-0.099504	-0.069320
O2	O	0.967279	-0.111608	-0.069346
O3	O	1.100010	0.008588	-0.069327
O4	O	1.102156	-0.219700	-0.069340
O5	O	1.092702	0.001999	0.069531
O6	O	0.959971	-0.118197	0.069512
O7	O	1.227578	-0.106092	0.069537
Zn8	Zn	1.092615	-0.113191	0.091571
Zn9	Zn	1.102243	-0.104510	-0.091380
O10	O	1.094848	-0.226288	0.069518
C11	C	0.929225	-0.114338	0.000080
C12	C	0.826723	-0.112647	0.000070
N13	N	1.086050	-0.119115	0.216431
C14	C	1.093596	0.034510	0.000102
C15	C	1.085360	0.121566	0.000101
C16	C	0.451379	-0.106425	0.000108
C17	C	0.555811	-0.108153	0.000097
C18	C	0.639048	-0.109536	0.000088
C19	C	0.743487	-0.111264	0.000079
C20	C	1.265632	-0.103362	0.000110
C21	C	1.368135	-0.105053	0.000114
C22	C	1.101262	-0.252210	0.000088
C23	C	1.109498	-0.339266	0.000083
C24	C	1.164820	0.171694	0.000109
C25	C	1.157077	0.253492	0.000101
C26	C	1.069873	0.285160	0.000089
C27	C	0.990408	0.235025	0.000079
C28	C	0.998152	0.153229	0.000081
C29	C	1.037777	0.528803	0.000075
C30	C	1.030038	0.610605	0.000075
C31	C	1.196708	0.629067	0.000095
C32	C	1.204444	0.547269	0.000103
C33	C	1.124979	0.497141	0.000088
N34	N	1.061956	0.368770	0.000083
N35	N	1.132897	0.413533	0.000088
N36	N	1.108814	-0.098580	-0.216239
C37	C	1.142550	-0.067989	0.260133
C38	C	1.137968	-0.072141	0.347539
C39	C	1.076889	-0.127422	0.391241
C40	C	1.020382	-0.178549	0.347533
C41	C	1.024961	-0.174393	0.260128
C42	C	1.056886	-0.145552	0.652648
C43	C	1.052314	-0.149705	0.740059
C44	C	1.169899	-0.043295	0.740058
C45	C	1.174476	-0.039147	0.652652
C46	C	1.117966	-0.090272	0.608952
N47	N	1.072205	-0.131668	0.480584
N48	N	1.122646	-0.086022	0.519610
H49	H	1.235830	0.145918	0.000123
H50	H	1.275455	0.521492	0.000112
O51	O	0.945255	0.641240	0.000018
C52	C	0.876776	0.579456	0.000022
H53	H	0.908108	0.525100	-0.026260
H54	H	0.848457	0.564762	0.066633
C55	C	0.759417	0.672006	-0.022174
C56	C	0.797899	0.605246	-0.054460
H57	H	0.710760	0.687914	-0.055777
H58	H	0.805552	0.713631	-0.022173
H59	H	0.735826	0.659751	0.033335
H60	H	0.821500	0.617503	-0.109963
H61	H	0.751766	0.563623	-0.054471
O62	O	0.960619	0.480094	-0.000082
C63	C	0.963900	0.435623	-0.071989
H64	H	1.011506	0.467891	-0.122249
H65	H	0.991291	0.375337	-0.055728
C66	C	0.807704	0.385262	-0.042878
C67	C	0.866168	0.424897	-0.104611
H68	H	0.747418	0.378642	-0.063000
H69	H	0.805494	0.415220	0.005568
H70	H	0.830541	0.335028	-0.029333
H71	H	0.843337	0.475134	-0.118147
H72	H	0.868372	0.394947	-0.153061
O73	O	0.992925	-0.203300	0.782609
C74	C	0.930282	-0.163589	0.833170
H75	H	0.961820	-0.102919	0.846261
H76	H	0.863484	-0.156529	0.799502
C77	C	0.870750	-0.286221	0.900117
C78	C	0.909489	-0.211707	0.916201
H79	H	0.857920	-0.315902	0.951333
H80	H	0.912951	-0.312976	0.866051
H81	H	0.815089	-0.280326	0.872058
H82	H	0.965154	-0.217602	0.944250
H83	H	0.867297	-0.184954	0.950274
O84	O	1.234355	0.302073	0.000152
C85	C	1.312984	0.256583	0.000149
H86	H	1.292685	0.194324	0.026435
H87	H	1.342945	0.253879	-0.066463
C88	C	1.410752	0.371116	0.022332
C89	C	1.385822	0.294650	0.054624
H90	H	1.455684	0.394599	0.055932
H91	H	1.357779	0.401765	0.022331
H92	H	1.435714	0.368852	-0.033177
H93	H	1.360850	0.296916	0.110128
H94	H	1.438792	0.264003	0.054636
H95	H	1.261404	0.669890	0.000106
O96	O	1.233538	0.014617	0.609979
C97	C	1.296196	-0.024781	0.559123
H98	H	1.301521	-0.087812	0.585449
H99	H	1.270729	-0.025884	0.493023
C100	C	1.385309	0.096229	0.524964
C101	C	1.391855	0.018817	0.557303
H102	H	1.444316	0.123124	0.523838
H103	H	1.343094	0.122774	0.559224
H104	H	1.364083	0.095300	0.469884
H105	H	1.413070	0.019747	0.612386
H106	H	1.434077	-0.007727	0.523052
O107	O	0.970177	-0.224169	0.217711
C108	C	0.989750	-0.302842	0.239066
H109	H	1.062362	-0.304510	0.263085
H110	H	0.937667	-0.328190	0.289802
C111	C	0.894214	-0.350237	0.131913
C112	C	0.983402	-0.352287	0.161406
H113	H	0.890295	-0.380739	0.084011
H114	H	0.881024	-0.297234	0.117527
H115	H	0.850822	-0.371359	0.174200
H116	H	1.026791	-0.331156	0.119123
H117	H	0.996599	-0.405288	0.175784
H118	H	0.919405	0.260815	0.000064
H119	H	0.970645	-0.223558	0.383120
H120	H	0.933447	0.112414	0.000074
O121	O	1.201906	-0.014219	0.217813
C122	C	1.250806	0.030002	0.275134
H123	H	1.209662	0.027996	0.337442
H124	H	1.320710	0.003968	0.284418
C125	C	1.315907	0.118648	0.164508
C126	C	1.265369	0.116190	0.241035
H127	H	1.324895	0.171812	0.143474
H128	H	1.282965	0.088854	0.125889
H129	H	1.374155	0.096949	0.172255
H130	H	1.207119	0.137880	0.233285
H131	H	1.298302	0.145990	0.279652
H132	H	1.183974	-0.030510	0.383121
O133	O	1.224689	0.006333	0.782639
C134	C	1.207571	-0.009198	0.869156
H135	H	1.135778	-0.038937	0.881099
H136	H	1.261375	-0.049805	0.893947
C137	C	1.301350	0.105389	0.899372
C138	C	1.213170	0.068869	0.914041
H139	H	1.304808	0.153543	0.927061
H140	H	1.312887	0.115852	0.841084
H141	H	1.346177	0.071542	0.920031
H142	H	1.168346	0.102712	0.893373
H143	H	1.201626	0.058414	0.972327
H144	H	1.010876	-0.187181	0.617074
