data_functionalizedCrystal
_audit_creation_method	'MofGen! by Chris Wilmer'
_symmetry_space_group_name_H-M	'P1'
_symmetry_Int_Tables_number	1
_symmetry_cell_setting	triclinic
loop_
_symmetry_equiv_pos_as_xyz
  x,y,z
_cell_length_a	16.959455
_cell_length_b	29.839131
_cell_length_c	16.959447
_cell_angle_alpha	89.958432
_cell_angle_beta	89.979626
_cell_angle_gamma	90.032247
loop_
_atom_site_label
_atom_site_type_symbol
_atom_site_fract_x
_atom_site_fract_y
_atom_site_fract_z
Zn1	Zn	1.208301	-0.178880	-0.446975
Zn2	Zn	1.708301	0.321120	0.053025
Zn3	Zn	1.208188	-0.254013	-0.314770
Zn4	Zn	1.708188	0.245987	0.185230
Zn5	Zn	1.076129	-0.178894	-0.314798
Zn6	Zn	1.576129	0.321106	0.185202
Zn7	Zn	1.076059	-0.253980	-0.446895
Zn8	Zn	1.576059	0.246020	0.053105
O9	O	1.142169	-0.216442	-0.380859
O10	O	1.642169	0.283558	0.119141
O11	O	1.318897	-0.188855	-0.429459
O12	O	1.818897	0.311145	0.070541
O13	O	1.190653	-0.244069	-0.204163
O14	O	1.690653	0.255931	0.295837
O15	O	1.093738	-0.116025	-0.332377
O16	O	1.593738	0.383975	0.167623
O17	O	1.318814	-0.244055	-0.332329
O18	O	1.818814	0.255945	0.167671
O19	O	1.190844	-0.116015	-0.429486
O20	O	1.690844	0.383985	0.070514
O21	O	1.093629	-0.188879	-0.204183
O22	O	1.593629	0.311121	0.295817
O23	O	0.965509	-0.188847	-0.332299
O24	O	1.465509	0.311153	0.167701
O25	O	1.093619	-0.243998	-0.557516
O26	O	1.593619	0.256002	-0.057516
O27	O	0.965457	-0.244012	-0.429350
O28	O	1.465457	0.255988	0.070650
O29	O	1.190776	-0.188822	-0.557575
O30	O	1.690776	0.311178	-0.057575
O31	O	1.190584	-0.316876	-0.332251
O32	O	1.690584	0.183124	0.167749
O33	O	1.093509	-0.316852	-0.429323
O34	O	1.593509	0.183148	0.070677
C35	C	0.936803	-0.216427	-0.380819
C36	C	1.436803	0.283573	0.119181
C37	C	0.848946	-0.216432	-0.380821
C38	C	1.348946	0.283568	0.119179
C39	C	0.477417	-0.245156	-0.330258
C40	C	0.977417	0.254844	0.169742
C41	C	0.477524	-0.187765	-0.431557
C42	C	0.977524	0.312235	0.068443
C43	C	0.560070	-0.187758	-0.431538
C44	C	1.060070	0.312242	0.068462
C45	C	0.601293	-0.216450	-0.380879
C46	C	1.101293	0.283550	0.119121
C47	C	0.559971	-0.245151	-0.330239
C48	C	1.059971	0.254849	0.169761
C49	C	0.601399	-0.159061	-0.482182
C50	C	1.101399	0.340939	0.017818
C51	C	0.683950	-0.159053	-0.482166
C52	C	1.183950	0.340947	0.017834
C53	C	0.725175	-0.187744	-0.431502
C54	C	1.225175	0.312256	0.068498
C55	C	0.683847	-0.216445	-0.380860
C56	C	1.183847	0.283555	0.119140
C57	C	0.725070	-0.245138	-0.330200
C58	C	1.225070	0.254862	0.169800
C59	C	0.683744	-0.273837	-0.279553
C60	C	1.183744	0.226163	0.220447
C61	C	0.601195	-0.273842	-0.279575
C62	C	1.101195	0.226158	0.220425
C63	C	0.807723	-0.187739	-0.431480
C64	C	1.307723	0.312261	0.068520
C65	C	0.807623	-0.245132	-0.330181
C66	C	1.307623	0.254868	0.169819
C67	C	1.142049	-0.333165	-0.380793
C68	C	1.642049	0.166835	0.119207
C69	C	1.142069	-0.383099	-0.380791
C70	C	1.642069	0.116901	0.119209
C71	C	1.192721	-0.692702	-0.431496
C72	C	1.692721	-0.192702	0.068504
C73	C	1.192807	-0.880375	-0.431544
C74	C	1.692807	-0.380375	0.068456
O75	O	1.235755	-0.904606	-0.474606
O76	O	1.735755	-0.404606	0.025394
N77	N	1.142303	-0.903884	-0.380947
N78	N	1.642303	-0.403884	0.119053
C79	C	1.091771	-0.880472	-0.330338
C80	C	1.591771	-0.380472	0.169662
O81	O	1.048811	-0.904774	-0.287310
O82	O	1.548811	-0.404774	0.212690
C83	C	1.091682	-0.692800	-0.330296
C84	C	1.591682	-0.192800	0.169704
C85	C	1.142194	-0.669293	-0.380890
C86	C	1.642194	-0.169293	0.119110
C87	C	1.243229	-0.669195	-0.482087
C88	C	1.743229	-0.169195	0.017913
C89	C	1.243210	-0.622280	-0.482072
C90	C	1.743210	-0.122280	0.017928
C91	C	1.192683	-0.598871	-0.431465
C92	C	1.692683	-0.098871	0.068535
C93	C	1.142175	-0.622378	-0.380875
C94	C	1.642175	-0.122378	0.119125
C95	C	1.041146	-0.669388	-0.279692
C96	C	1.541146	-0.169388	0.220308
C97	C	1.041127	-0.622467	-0.279687
C98	C	1.541127	-0.122467	0.220313
C99	C	1.091639	-0.598961	-0.330281
C100	C	1.591639	-0.098961	0.169719
C101	C	1.091630	-0.552053	-0.330253
C102	C	1.591630	-0.052053	0.169747
N103	N	1.142133	-0.528544	-0.380850
N104	N	1.642133	-0.028544	0.119150
C105	C	1.192660	-0.551953	-0.431456
C106	C	1.692660	-0.051953	0.068544
C107	C	1.091823	-0.979002	-0.330363
C108	C	1.591823	-0.479002	0.169637
C109	C	1.091846	-1.025920	-0.330373
C110	C	1.591846	-0.525920	0.169627
C111	C	1.192881	-1.025820	-0.431580
C112	C	1.692881	-0.525820	0.068420
C113	C	1.192861	-0.978902	-0.431565
C114	C	1.692861	-0.478902	0.068435
C115	C	1.142326	-0.955493	-0.380960
C116	C	1.642326	-0.455493	0.119040
C117	C	1.192617	-0.453427	-0.431419
C118	C	1.692617	0.046573	0.068581
C119	C	1.192596	-0.406508	-0.431397
C120	C	1.692596	0.093492	0.068603
C121	C	1.091558	-0.406612	-0.330194
C122	C	1.591558	0.093388	0.169806
C123	C	1.091582	-0.453527	-0.330213
C124	C	1.591582	0.046473	0.169787
C125	C	1.142114	-0.476934	-0.380832
C126	C	1.642114	0.023066	0.119168
O127	O	1.048698	-0.527794	-0.287219
O128	O	1.548698	-0.027794	0.212781
O129	O	1.235601	-0.527643	-0.474491
O130	O	1.735601	-0.027643	0.025509
C131	C	1.192740	-0.739617	-0.431512
C132	C	1.692740	-0.239617	0.068488
C133	C	1.142232	-0.763124	-0.380921
C134	C	1.642232	-0.263124	0.119079
C135	C	1.091706	-0.739715	-0.330314
C136	C	1.591706	-0.239715	0.169686
C137	C	1.142255	-0.810042	-0.380930
C138	C	1.642255	-0.310042	0.119070
C139	C	1.192782	-0.833451	-0.431537
C140	C	1.692782	-0.333451	0.068463
C141	C	1.243286	-0.809942	-0.482133
C142	C	1.743286	-0.309942	0.017867
C143	C	1.243267	-0.763026	-0.482118
C144	C	1.743267	-0.263026	0.017882
C145	C	1.041202	-0.763224	-0.279718
C146	C	1.541202	-0.263224	0.220282
C147	C	1.041226	-0.810140	-0.279737
C148	C	1.541226	-0.310140	0.220263
C149	C	1.091752	-0.833548	-0.330343
C150	C	1.591752	-0.333548	0.169657
C151	C	1.348337	-0.216457	-0.380900
C152	C	1.848337	0.283543	0.119100
C153	C	1.436194	-0.216463	-0.380917
C154	C	1.936194	0.283537	0.119083
C155	C	1.142202	-0.216405	-0.587028
C156	C	1.642202	0.283595	-0.087028
C157	C	1.142216	-0.216389	-0.674884
C158	C	1.642216	0.283611	-0.174884
C159	C	1.142312	-0.099264	-0.380943
C160	C	1.642312	0.400736	0.119057
C161	C	1.142372	-0.049329	-0.380979
C162	C	1.642372	0.450671	0.119021
C163	C	1.091725	-0.245069	-1.046332
C164	C	1.591725	0.254931	-0.546332
C165	C	1.192896	-0.187614	-1.046388
C166	C	1.692896	0.312386	-0.546388
C167	C	1.192875	-0.187624	-0.963842
C168	C	1.692875	0.312376	-0.463842
C169	C	1.142279	-0.216357	-0.922537
C170	C	1.642279	0.283643	-0.422537
C171	C	1.091704	-0.245080	-0.963778
C172	C	1.591704	0.254920	-0.463778
C173	C	1.243455	-0.158904	-0.922595
C174	C	1.743455	0.341096	-0.422595
C175	C	1.243436	-0.158913	-0.840044
C176	C	1.743436	0.341087	-0.340044
C177	C	1.192836	-0.187644	-0.798738
C178	C	1.692836	0.312356	-0.298738
C179	C	1.142258	-0.216368	-0.839984
C180	C	1.642258	0.283632	-0.339984
C181	C	1.091662	-0.245101	-0.798679
C182	C	1.591662	0.254899	-0.298679
C183	C	1.041080	-0.273823	-0.839924
C184	C	1.541080	0.226177	-0.339924
C185	C	1.041103	-0.273811	-0.922472
C186	C	1.541103	0.226189	-0.422472
C187	C	1.192812	-0.187656	-0.716189
C188	C	1.692812	0.312344	-0.216189
C189	C	1.091641	-0.245112	-0.716125
C190	C	1.591641	0.254888	-0.216125
C191	C	1.142182	-0.216447	-0.175493
C192	C	1.642182	0.283553	0.324507
C193	C	1.142321	-0.216336	-0.087637
C194	C	1.642321	0.283664	0.412363
H195	H	0.567829	-0.135704	-0.523431
H196	H	1.067829	0.364296	-0.023431
H197	H	1.233997	-0.164272	-0.682611
H198	H	1.733997	0.335728	-0.182611
N199	N	1.040058	-0.274401	-1.088469
N200	N	1.540058	0.225599	-0.588469
N201	N	1.040076	-0.274386	-1.162173
N202	N	1.540076	0.225614	-0.662173
H203	H	1.003585	-0.295102	-1.191934
H204	H	1.503585	0.204898	-0.691934
N205	N	0.435409	-0.158470	-0.483315
N206	N	0.935409	0.341530	0.016685
N207	N	0.389368	-0.174326	-0.533633
N208	N	0.889368	0.325674	-0.033633
H209	H	0.359617	-0.153638	-0.570190
H210	H	0.859617	0.346362	-0.070190
H211	H	1.284623	-0.135525	-0.806470
H212	H	1.784623	0.364475	-0.306470
H213	H	1.050670	-0.959947	-0.289153
H214	H	1.550670	-0.459947	0.210847
H215	H	1.284399	-0.743891	-0.523317
H216	H	1.784399	-0.243891	-0.023317
H217	H	0.841367	-0.164374	-0.472718
H218	H	1.341367	0.335626	0.027282
N219	N	0.849729	-0.274435	-0.278421
N220	N	1.349729	0.225565	0.221579
N221	N	0.840472	-0.271400	-0.205497
N222	N	1.340472	0.228600	0.294503
H223	H	0.870210	-0.292094	-0.168939
H224	H	1.370210	0.207906	0.331061
N225	N	0.725868	-0.303146	-0.227820
N226	N	1.225868	0.196854	0.272180
N227	N	0.799572	-0.303137	-0.227822
N228	N	1.299572	0.196863	0.272178
H229	H	0.829326	-0.323837	-0.191287
H230	H	1.329326	0.176163	0.308713
N231	N	1.294899	-0.833865	-0.533816
N232	N	1.794899	-0.333865	-0.033816
N233	N	1.294903	-0.875756	-0.533813
N234	N	1.794903	-0.375756	-0.033813
H235	H	1.331350	-0.892655	-0.570313
H236	H	1.831350	-0.392655	-0.070313
H237	H	0.999925	-0.297197	-0.956061
H238	H	1.499925	0.202803	-0.456061
H239	H	1.233760	-0.472480	-0.472643
H240	H	1.733760	0.027520	0.027357
H241	H	1.050432	-0.268507	-0.682501
H242	H	1.550432	0.231493	-0.182501
N243	N	0.558969	-0.303152	-0.227850
N244	N	1.058969	0.196848	0.272150
N245	N	0.485266	-0.303153	-0.227879
N246	N	0.985266	0.196847	0.272121
H247	H	0.455440	-0.323854	-0.191350
H248	H	0.955440	0.176146	0.308650
H249	H	1.233732	-0.387370	-0.472597
H250	H	1.733732	0.112630	0.027403
H251	H	1.234093	-0.164224	-1.080024
H252	H	1.734093	0.335776	-0.580024
N253	N	1.294812	-0.598279	-0.533759
N254	N	1.794812	-0.098279	-0.033759
N255	N	1.339916	-0.619193	-0.578937
N256	N	1.839916	-0.119193	-0.078937
H257	H	1.376361	-0.602246	-0.615446
H258	H	1.876361	-0.102246	-0.115446
H259	H	1.050422	-0.387545	-0.288988
H260	H	1.550422	0.112455	0.211012
H261	H	1.000093	-0.829275	-0.238529
H262	H	1.500093	-0.329275	0.261471
N263	N	1.294847	-0.693095	-0.533794
N264	N	1.794847	-0.193095	-0.033794
N265	N	1.339932	-0.672093	-0.578958
N266	N	1.839932	-0.172093	-0.078958
H267	H	1.376394	-0.688969	-0.615476
H268	H	1.876394	-0.188969	-0.115476
H269	H	0.717591	-0.135684	-0.523405
H270	H	1.217591	0.364316	-0.023405
N271	N	0.989579	-0.739324	-0.228019
N272	N	1.489579	-0.239324	0.271981
N273	N	0.944493	-0.760324	-0.182853
N274	N	1.444493	-0.260324	0.317147
H275	H	0.908033	-0.743446	-0.146335
H276	H	1.408033	-0.243446	0.353665
H277	H	1.233992	-0.959765	-0.472764
H278	H	1.733992	-0.459765	0.027236
H279	H	1.234023	-1.044888	-0.472784
H280	H	1.734023	-0.544888	0.027216
H281	H	0.443765	-0.268521	-0.289020
H282	H	0.943765	0.231479	0.210980
N283	N	1.295138	-0.129564	-0.964797
N284	N	1.795138	0.370436	-0.464797
N285	N	1.295146	-0.129559	-1.038501
N286	N	1.795146	0.370441	-0.538501
H287	H	1.331650	-0.108837	-1.068311
H288	H	1.831650	0.391163	-0.568311
N289	N	1.040257	-1.049922	-0.278673
N290	N	1.540257	-0.549922	0.221327
N291	N	0.995152	-1.029010	-0.233494
N292	N	1.495152	-0.529010	0.266506
H293	H	0.958714	-1.045959	-0.196980
H294	H	1.458714	-0.545959	0.303020
N295	N	0.989399	-0.303167	-0.797715
N296	N	1.489399	0.196833	-0.297715
N297	N	0.939048	-0.287360	-0.751652
N298	N	1.439048	0.212640	-0.251652
H299	H	0.902549	-0.308083	-0.721838
H300	H	1.402549	0.191917	-0.221838
N301	N	0.989533	-0.693385	-0.228014
N302	N	1.489533	-0.193385	0.271986
N303	N	0.944417	-0.672469	-0.182851
N304	N	1.444417	-0.172469	0.317149
H305	H	0.907957	-0.689416	-0.146355
H306	H	1.407957	-0.189416	0.353645
H307	H	0.999973	-0.603411	-0.238479
H308	H	1.499973	-0.103411	0.261521
H309	H	1.050457	-0.472668	-0.289008
H310	H	1.550457	0.027332	0.210992
