data_functionalizedCrystal
_audit_creation_method	'MofGen! by Chris Wilmer'
_symmetry_space_group_name_H-M	'P1'
_symmetry_Int_Tables_number	1
_symmetry_cell_setting	triclinic
loop_
_symmetry_equiv_pos_as_xyz
  x,y,z
_cell_length_a	8.497367
_cell_length_b	8.497374
_cell_length_c	21.295418
_cell_angle_alpha	90.022758
_cell_angle_beta	90.017644
_cell_angle_gamma	90.038609
loop_
_atom_site_label
_atom_site_type_symbol
_atom_site_fract_x
_atom_site_fract_y
_atom_site_fract_z
Zn1	Zn	0.627664	0.893357	0.962505
Zn2	Zn	0.891410	0.629777	0.962564
Zn3	Zn	0.627711	0.629488	0.857267
Zn4	Zn	0.891469	0.893411	0.857315
O5	O	0.759564	0.761508	0.909913
O6	O	0.662607	0.858491	1.050602
O7	O	0.856425	0.408976	0.948600
O8	O	0.406942	0.664347	0.871182
O9	O	0.856380	0.664839	1.050645
O10	O	0.406908	0.858211	0.948500
O11	O	0.662686	0.408764	0.871239
O12	O	0.662743	0.664400	0.769184
O13	O	0.856480	1.114166	0.871265
O14	O	0.856525	0.858303	0.769219
O15	O	0.662664	1.114127	0.948547
O16	O	1.112181	0.664892	0.948647
O17	O	1.112224	0.858583	0.871321
C18	C	0.759647	0.761327	0.746361
C19	C	0.759720	0.761287	0.676393
C20	C	1.348083	0.761362	0.909869
C21	C	1.169439	0.761651	0.909948
C22	C	0.759566	1.172989	0.909908
C23	C	0.759583	1.351633	0.909909
C24	C	0.860756	0.862101	0.643561
C25	C	0.860717	0.862172	0.577819
C26	C	0.759659	0.761400	0.544910
C27	C	0.658603	0.660578	0.577750
C28	C	0.658634	0.660521	0.643491
N29	N	0.747297	0.623407	0.441649
N30	N	0.747277	0.623466	0.379198
C31	C	0.759558	0.761567	0.346836
N32	N	0.771891	0.899611	0.379284
N33	N	0.771919	0.899551	0.441742
C34	C	0.759614	0.761451	0.473625
C35	C	0.860558	0.862467	0.242719
C36	C	0.860508	0.862541	0.176975
C37	C	0.658402	0.660933	0.176907
C38	C	0.658444	0.660873	0.242650
C39	C	0.759530	0.761638	0.275551
C40	C	0.759482	0.761691	1.074103
C41	C	0.759447	0.761769	1.144071
H42	H	0.943066	0.944155	0.670346
F43	F	0.551092	0.553216	0.678434
F44	F	0.968042	0.969856	0.142033
H45	H	0.576177	0.578771	0.269381
F46	F	0.968258	0.969478	0.542870
F47	F	0.551044	0.553335	0.542726
H48	H	0.942860	0.944524	0.269509
H49	H	0.576111	0.578889	0.150114
