data_functionalizedCrystal
_audit_creation_method	'MofGen! by Chris Wilmer'
_symmetry_space_group_name_H-M	'P1'
_symmetry_Int_Tables_number	1
_symmetry_cell_setting	triclinic
loop_
_symmetry_equiv_pos_as_xyz
  x,y,z
_cell_length_a	23.532407
_cell_length_b	14.044220
_cell_length_c	22.610064
_cell_angle_alpha	90.001903
_cell_angle_beta	89.994072
_cell_angle_gamma	91.981222
loop_
_atom_site_label
_atom_site_type_symbol
_atom_site_fract_x
_atom_site_fract_y
_atom_site_fract_z
O1	O	0.137221	-1.256413	0.049133
O2	O	0.132269	-0.980491	0.049148
O3	O	0.052265	-1.126772	0.049129
O4	O	0.217226	-1.110132	0.049152
O5	O	0.052287	-1.126762	-0.049240
O6	O	0.132291	-0.980481	-0.049221
O7	O	0.137243	-1.256403	-0.049236
Zn8	Zn	0.134771	-1.118440	-0.064847
Zn9	Zn	0.134742	-1.118454	0.064759
O10	O	0.217248	-1.110121	-0.049217
C11	C	0.130113	-0.945192	-0.000035
C12	C	0.123647	-0.840027	-0.000030
N13	N	0.134790	-1.118438	-0.153299
C14	C	0.031037	-1.126344	-0.000057
C15	C	-0.032249	-1.125070	-0.000061
C16	C	-0.427094	-1.203645	-0.000033
C17	C	-0.486558	-1.202461	-0.000028
O18	O	-0.519355	-1.275302	-0.000010
N19	N	-0.513898	-1.115497	-0.000024
C20	C	-0.481770	-1.029710	-0.000019
O21	O	-0.510485	-0.955632	-0.000014
C22	C	-0.422307	-1.030895	-0.000019
C23	C	-0.394970	-1.117865	-0.000029
C24	C	-0.399757	-1.290608	-0.000042
C25	C	-0.340297	-1.291791	-0.000048
C26	C	-0.308173	-1.206011	-0.000044
C27	C	-0.335510	-1.119048	-0.000035
C28	C	-0.390180	-0.945110	-0.000009
C29	C	-0.330713	-0.946302	-0.000009
C30	C	-0.303376	-1.033272	-0.000019
C31	C	-0.243926	-1.034451	-0.000037
N32	N	-0.216586	-1.121416	-0.000041
C33	C	-0.248710	-1.207196	-0.000045
C34	C	-0.606647	-1.027229	-0.000017
C35	C	-0.666109	-1.026044	-0.000021
C36	C	-0.670893	-1.198795	-0.000029
C37	C	-0.611430	-1.199980	-0.000030
C38	C	-0.579307	-1.114194	-0.000021
C39	C	-0.123839	-1.209674	-0.000057
C40	C	-0.064373	-1.210849	-0.000065
C41	C	-0.059594	-1.038099	-0.000053
C42	C	-0.119055	-1.036923	-0.000048
C43	C	-0.151176	-1.122718	-0.000048
O44	O	-0.211093	-0.961650	-0.000052
O45	O	-0.219987	-1.281262	-0.000041
C46	C	0.238476	-1.110550	-0.000030
C47	C	0.301762	-1.111824	-0.000021
C48	C	0.139400	-1.291702	-0.000052
C49	C	0.145866	-1.396867	-0.000053
C50	C	0.111826	-0.647477	-0.000043
C51	C	0.157685	-0.589412	-0.000039
C52	C	0.151107	-0.482270	-0.000047
C53	C	0.118402	-0.754628	-0.000036
C54	C	0.170168	-1.053644	-0.438139
C55	C	0.170174	-1.053641	-0.376219
O56	O	0.200277	-0.998522	-0.344193
N57	N	0.134767	-1.118431	-0.345251
C58	C	0.099349	-1.183222	-0.376207
O59	O	0.069233	-1.238331	-0.344181
C60	C	0.099341	-1.183220	-0.438126
C61	C	0.134754	-1.118431	-0.469090
C62	C	0.205578	-0.988860	-0.469104
C63	C	0.205573	-0.988864	-0.531019
C64	C	0.170159	-1.053652	-0.561970
C65	C	0.134749	-1.118435	-0.531006
C66	C	0.063920	-1.248005	-0.469080
C67	C	0.063915	-1.247997	-0.531003
C68	C	0.099328	-1.183208	-0.561967
C69	C	0.099330	-1.183227	-0.623873
N70	N	0.134737	-1.118437	-0.654840
C71	C	0.170151	-1.053649	-0.623889
C72	C	0.099368	-1.183222	-0.246173
C73	C	0.099378	-1.183230	-0.184256
C74	C	0.170202	-1.053647	-0.184272
C75	C	0.170194	-1.053644	-0.246191
C76	C	0.134774	-1.118431	-0.277141
C77	C	0.170139	-1.053663	-0.753916
C78	C	0.170132	-1.053675	-0.815838
C79	C	0.099306	-1.183254	-0.815816
C80	C	0.099315	-1.183246	-0.753900
C81	C	0.134732	-1.118442	-0.722952
O82	O	0.069241	-1.238316	-0.655938
O83	O	0.200256	-0.998542	-0.655923
N84	N	0.134718	-1.118463	0.153211
H85	H	-0.042119	-1.281674	-0.000075
H86	H	-0.141313	-0.966105	-0.000056
H87	H	0.199038	-1.000892	-0.159061
H88	H	0.201886	-0.620167	-0.000031
H89	H	-0.149985	-1.279537	-0.000054
O90	O	-0.695587	-0.932237	-0.000021
H91	H	-0.742334	-0.945814	-0.000024
O92	O	-0.419655	-0.851304	0.000002
H93	H	-0.407094	-0.810132	0.040102
O94	O	0.208338	-0.983795	-0.849226
H95	H	0.182029	-0.937974	-0.877438
O96	O	0.053280	-0.606742	-0.000053
H97	H	0.020696	-0.665803	-0.000058
H98	H	-0.318045	-1.362611	-0.000054
H99	H	-0.425906	-1.360464	-0.000043
O100	O	0.208343	-0.983778	-0.720540
H101	H	0.232966	-0.938743	-0.752483
H102	H	0.234408	-0.936105	-0.556227
O103	O	0.243782	-0.918982	-0.435725
H104	H	0.268402	-0.873946	-0.467669
H105	H	0.199030	-1.000888	-0.271399
O106	O	0.061181	-1.253113	-0.150866
H107	H	0.031478	-1.213491	-0.122651
H108	H	0.070526	-1.235987	-0.271370
O109	O	-0.581946	-1.293781	-0.000030
H110	H	-0.614279	-1.353225	-0.000027
H111	H	0.035084	-1.300761	-0.443877
H112	H	-0.033429	-0.968259	-0.000052
O113	O	-0.705545	-1.291321	-0.000027
H114	H	-0.751485	-1.275878	-0.000018
H115	H	0.035070	-1.300753	-0.556200
O116	O	0.061122	-1.253124	-0.720496
H117	H	0.036494	-1.298172	-0.752424
H118	H	0.070474	-1.236007	-0.841026
O119	O	-0.296065	-0.853774	-0.000007
H120	H	-0.325068	-0.793106	-0.000005
H121	H	-0.580496	-0.957368	-0.000015
