data_functionalizedCrystal
_audit_creation_method	'MofGen! by Chris Wilmer'
_symmetry_space_group_name_H-M	'P1'
_symmetry_Int_Tables_number	1
_symmetry_cell_setting	triclinic
loop_
_symmetry_equiv_pos_as_xyz
  x,y,z
_cell_length_a	10.723024
_cell_length_b	10.540539
_cell_length_c	9.798715
_cell_angle_alpha	89.998989
_cell_angle_beta	89.996609
_cell_angle_gamma	84.496680
loop_
_atom_site_label
_atom_site_type_symbol
_atom_site_fract_x
_atom_site_fract_y
_atom_site_fract_z
O1	O	1.657276	0.178046	-0.113475
O2	O	1.294132	0.195088	-0.113479
O3	O	1.483989	0.001856	-0.113475
O4	O	1.467419	0.371278	-0.113479
O5	O	1.483974	0.001856	0.113507
O6	O	1.294118	0.195088	0.113503
O7	O	1.657262	0.178045	0.113507
Zn8	Zn	1.475687	0.186567	0.149543
Zn9	Zn	1.475706	0.186567	-0.149515
O10	O	1.467405	0.371277	0.113503
C11	C	1.247624	0.193848	0.000011
C12	C	1.109068	0.190137	0.000010
C13	C	1.034139	0.298260	0.000008
C14	C	0.890934	0.294427	0.000006
C15	C	1.482739	-0.045446	0.000013
C16	C	1.479021	-0.186392	0.000006
C17	C	1.336563	-0.369746	-0.000505
C18	C	1.340332	-0.223130	0.000006
C19	C	1.545757	-0.248085	0.129625
C20	C	1.541023	-0.394627	0.129734
C21	C	1.543860	-0.395146	-0.128387
C22	C	1.545138	-0.248165	-0.130101
C23	C	1.703769	0.179286	0.000013
C24	C	1.842325	0.182997	0.000006
C25	C	1.468654	0.418580	0.000012
C26	C	1.472372	0.559526	0.000010
N27	N	1.475684	0.186565	0.353643
N28	N	1.475720	0.186559	-0.353615
C29	C	1.555399	0.105075	0.421421
C30	C	1.555419	0.105071	0.578584
H31	H	0.906704	0.090430	-0.000001
Cl32	Cl	1.660466	-0.002927	0.331385
H33	H	1.644035	-0.442423	-0.129258
Cl34	Cl	1.701253	-0.210845	-0.142194
Cl35	Cl	1.098771	0.445565	0.000010
Cl36	Cl	1.252074	-0.416884	0.141777
H37	H	1.491691	-0.422801	0.226625
Cl38	Cl	1.660800	-0.002643	0.668568
H39	H	0.826548	0.386988	-0.000001
Cl40	Cl	1.044437	0.042832	0.000021
H41	H	1.407473	0.256334	0.588107
Cl42	Cl	1.370326	0.294274	0.443680
Cl43	Cl	1.259257	-0.157306	-0.143448
H44	H	1.640766	-0.442646	0.135615
H45	H	1.499387	-0.205461	0.226081
H46	H	1.281784	-0.398318	-0.093457
H47	H	1.287441	-0.181347	0.093075
Cl48	Cl	1.470380	-0.184295	-0.278170
H49	H	1.498979	-0.426675	-0.226630
Cl50	Cl	1.703005	-0.213656	0.137075
