data_functionalizedCrystal
_audit_creation_method	'MofGen! by Chris Wilmer'
_symmetry_space_group_name_H-M	'P1'
_symmetry_Int_Tables_number	1
_symmetry_cell_setting	triclinic
loop_
_symmetry_equiv_pos_as_xyz
  x,y,z
_cell_length_a	9.065218
_cell_length_b	14.185569
_cell_length_c	9.065218
_cell_angle_alpha	76.648261
_cell_angle_beta	94.984115
_cell_angle_gamma	76.647086
loop_
_atom_site_label
_atom_site_type_symbol
_atom_site_fract_x
_atom_site_fract_y
_atom_site_fract_z
O1	O	1.927378	0.083416	-0.249363
O2	O	1.498093	0.083417	-0.267110
O3	O	1.721610	0.083414	-0.043593
O4	O	1.703861	0.083418	-0.472880
O5	O	1.787638	-0.083421	0.022428
O6	O	1.564122	-0.083419	-0.201089
O7	O	1.993407	-0.083420	-0.183342
Cu8	Cu	1.784793	-0.098652	-0.186187
Cu9	Cu	1.706707	0.098650	-0.264265
O10	O	1.769890	-0.083417	-0.406858
C11	C	1.476121	-0.000001	-0.232394
C12	C	1.312277	-0.000000	-0.227294
N13	N	1.839726	-0.237424	-0.131270
C14	C	1.490392	-0.605070	-0.480451
C15	C	1.532013	-0.710092	-0.438863
C16	C	1.729978	-0.710055	-0.241014
C17	C	1.688369	-0.605031	-0.282581
C18	C	1.568576	-0.552547	-0.402302
C19	C	1.766553	-0.552508	-0.204432
C20	C	1.724952	-0.447493	-0.246001
C21	C	1.605166	-0.395001	-0.365720
C22	C	1.526974	-0.447532	-0.443871
C23	C	1.886353	-0.604994	-0.084718
C24	C	1.964537	-0.552471	-0.006569
C25	C	1.922929	-0.447454	-0.048131
C26	C	1.803143	-0.394962	-0.167850
C27	C	2.001121	-0.394924	0.030020
C28	C	1.959519	-0.289909	-0.011549
C29	C	1.761542	-0.289947	-0.209420
C30	C	2.015378	0.000000	-0.218059
C31	C	2.179219	0.000006	-0.223161
C32	C	1.752918	-0.000002	0.044403
C33	C	1.747816	0.000003	0.208244
N34	N	1.651785	0.237421	-0.319170
C35	C	1.738581	0.000001	-0.494856
C36	C	1.743680	0.000003	-0.658700
H37	H	1.663984	-0.247213	-0.306898
O38	O	1.410767	-0.396582	-0.560352
C39	C	1.446830	-0.422257	-0.696598
H40	H	1.576398	-0.451113	-0.687555
H41	H	1.403492	-0.353195	-0.797745
H42	H	1.389764	-0.483220	-0.714668
O43	O	2.117557	-0.445757	0.146310
C44	C	2.177612	-0.376879	0.206409
H45	H	2.150440	-0.302020	0.116260
H46	H	2.307157	-0.407202	0.239295
H47	H	2.123807	-0.365717	0.312267
O48	O	1.374026	-0.554233	-0.596826
C49	C	1.313898	-0.623107	-0.656865
H50	H	1.404057	-0.697959	-0.629753
H51	H	1.280937	-0.592768	-0.786399
H52	H	1.208082	-0.634288	-0.602994
O53	O	1.456036	-0.761228	-0.514528
C54	C	1.387995	-0.821966	-0.410189
H55	H	1.451448	-0.837681	-0.289320
H56	H	1.394736	-0.895821	-0.442212
H57	H	1.262785	-0.781514	-0.414661
H58	H	1.571300	-0.309491	-0.399569
H59	H	1.827520	-0.752800	-0.143539
H60	H	1.920225	-0.690504	-0.050882
O61	O	2.080817	-0.603614	0.109733
C62	C	2.100802	-0.707566	0.129641
H63	H	1.989924	-0.721931	0.081804
H64	H	2.131531	-0.747473	0.256954
H65	H	2.197109	-0.737353	0.066266
H66	H	2.023187	-0.247144	0.052088
