data_functionalizedCrystal
_audit_creation_method	'MofGen! by Chris Wilmer'
_symmetry_space_group_name_H-M	'P1'
_symmetry_Int_Tables_number	1
_symmetry_cell_setting	triclinic
loop_
_symmetry_equiv_pos_as_xyz
  x,y,z
_cell_length_a	9.065215
_cell_length_b	7.540329
_cell_length_c	14.853567
_cell_angle_alpha	90.000203
_cell_angle_beta	84.324814
_cell_angle_gamma	89.997574
loop_
_atom_site_label
_atom_site_type_symbol
_atom_site_fract_x
_atom_site_fract_y
_atom_site_fract_z
O1	O	1.957781	-0.147445	0.132179
O2	O	1.528281	-0.147451	0.143024
O3	O	1.754503	-0.147453	0.006456
O4	O	1.731558	-0.147443	0.268746
O5	O	1.754490	0.147512	0.006455
O6	O	1.528267	0.147514	0.143022
O7	O	1.957768	0.147520	0.132177
Cu8	Cu	1.743016	0.174450	0.137599
Cu9	Cu	1.743032	-0.174381	0.137602
O10	O	1.731545	0.147522	0.268745
C11	C	1.473308	0.000030	0.141982
C12	C	1.309527	0.000027	0.138867
C13	C	1.753457	0.000024	-0.027141
C14	C	1.750342	0.000009	-0.127248
C15	C	2.012740	0.000035	0.133219
C16	C	2.176522	0.000026	0.136334
N17	N	1.743016	0.419798	0.137598
N18	N	1.743044	-0.419729	0.137596
C19	C	1.602790	0.000040	-0.540872
C20	C	1.871548	0.000044	-0.560166
C21	C	1.874478	0.000034	-0.466111
C22	C	1.741561	0.000029	-0.409432
C23	C	1.605716	0.000035	-0.446808
C24	C	2.010321	0.000046	-0.428727
C25	C	2.013256	0.000037	-0.334666
C26	C	1.880338	0.000020	-0.277986
C27	C	1.744487	0.000024	-0.315367
C28	C	1.611571	0.000020	-0.258688
C29	C	1.475718	0.000011	-0.296068
C30	C	1.472798	0.000018	-0.390127
C31	C	1.883258	0.000013	-0.183927
C32	C	1.614496	0.000014	-0.164624
C33	C	1.732591	0.000041	0.302342
C34	C	1.735707	0.000045	0.402449
H35	H	1.506258	0.000003	-0.118481
H36	H	2.118534	0.000066	-0.474882
C37	C	1.329519	0.000003	-0.233716
H38	H	1.350728	-0.000005	-0.172346
H39	H	1.273811	0.102856	-0.245162
H40	H	1.273837	-0.102879	-0.245161
H41	H	1.362194	0.000012	-0.420571
C42	C	2.017747	0.000051	-0.622505
H43	H	2.099070	0.000056	-0.586772
H44	H	2.022193	-0.102803	-0.659604
H45	H	2.022188	0.102931	-0.659593
C46	C	2.032675	0.000027	-0.142811
H47	H	2.111415	0.000028	-0.190039
H48	H	2.039392	0.102883	-0.106515
H49	H	2.039414	-0.102852	-0.106526
H50	H	1.492182	0.000026	-0.571311
H51	H	2.123875	0.000042	-0.304240
