data_functionalizedCrystal
_audit_creation_method	'MofGen! by Chris Wilmer'
_symmetry_space_group_name_H-M	'P1'
_symmetry_Int_Tables_number	1
_symmetry_cell_setting	triclinic
loop_
_symmetry_equiv_pos_as_xyz
  x,y,z
_cell_length_a	6.817900
_cell_length_b	9.514063
_cell_length_c	11.102193
_cell_angle_alpha	88.637873
_cell_angle_beta	108.604059
_cell_angle_gamma	118.843314
loop_
_atom_site_label
_atom_site_type_symbol
_atom_site_fract_x
_atom_site_fract_y
_atom_site_fract_z
V1	V	-4.170269	-0.222217	-0.397261
O2	O	-4.067727	0.010667	-0.388666
O3	O	-4.204788	-0.440608	-0.395537
O4	O	-4.146141	-0.218805	-0.570067
O5	O	-4.126781	-0.212673	-0.212928
V6	V	-4.640007	-0.194361	-0.375093
O7	O	-4.461765	-0.283322	-0.445889
O8	O	-4.798708	-0.133256	-0.326465
O9	O	-4.382281	0.024030	-0.376817
O10	O	-4.859946	-0.427245	-0.383687
O11	O	-4.800892	-0.203906	-0.559426
O12	O	-4.440929	-0.197774	-0.202286
C13	C	-4.069176	-0.493847	-0.389526
C14	C	-4.178848	-0.672385	-0.389269
C15	C	-3.994363	-0.210912	-0.612155
C16	C	-4.056467	-0.209567	-0.753432
C17	C	-4.254572	-0.503726	-0.791087
C18	C	-4.382790	-0.650167	-0.876284
C19	C	-4.441140	-0.648894	-1.009025
C20	C	-4.371268	-0.501164	-1.056569
C21	C	-4.243049	-0.354723	-0.971371
C22	C	-4.184703	-0.356012	-0.838630
C23	C	-4.044962	-0.060568	-0.933717
C24	C	-3.986595	-0.061837	-0.800976
C25	C	-3.975090	0.087162	-0.981261
C26	C	-3.846854	0.233607	-0.896063
C27	C	-3.788503	0.232328	-0.763315
C28	C	-3.858377	0.084604	-0.715778
C29	C	-4.181238	0.077260	-0.382824
C30	C	-4.050806	0.255796	-0.383090
C31	C	-4.256050	-0.205672	-0.160192
C32	C	-4.173180	-0.207009	-0.018914
H33	H	-4.207039	-0.504776	-0.683004
H34	H	-4.439678	-0.770446	-0.837559
Cl35	Cl	-4.477635	-0.788324	-0.397118
Cl36	Cl	-4.444662	-0.499570	-1.223445
Cl37	Cl	-4.048455	0.088762	-1.148136
H38	H	-3.857264	-0.669096	-0.377993
H39	H	-4.545549	-0.768139	-1.078394
Cl40	Cl	-3.759045	0.419302	-0.955840
H41	H	-3.684109	0.351578	-0.693953
Cl42	Cl	-3.785021	0.082984	-0.548906
