data_functionalizedCrystal
_audit_creation_method	'MofGen! by Chris Wilmer'
_symmetry_space_group_name_H-M	'P1'
_symmetry_Int_Tables_number	1
_symmetry_cell_setting	triclinic
loop_
_symmetry_equiv_pos_as_xyz
  x,y,z
_cell_length_a	14.044220
_cell_length_b	14.044220
_cell_length_c	13.596369
_cell_angle_alpha	89.993157
_cell_angle_beta	89.999747
_cell_angle_gamma	93.188878
loop_
_atom_site_label
_atom_site_type_symbol
_atom_site_fract_x
_atom_site_fract_y
_atom_site_fract_z
O1	O	1.277169	0.230169	-0.081691
O2	O	1.777169	0.730169	0.418309
O3	O	1.000498	0.221864	-0.081715
O4	O	1.500498	0.721864	0.418285
O5	O	1.134680	0.087681	-0.081694
O6	O	1.634680	0.587681	0.418306
O7	O	1.142986	0.364352	-0.081712
O8	O	1.642986	0.864352	0.418288
O9	O	1.134665	0.087672	0.081889
O10	O	1.634665	0.587672	0.581889
O11	O	1.000482	0.221855	0.081867
O12	O	1.500482	0.721855	0.581867
O13	O	1.277154	0.230160	0.081892
O14	O	1.777154	0.730160	0.581892
Zn15	Zn	1.138816	0.226006	0.107852
Zn16	Zn	1.638816	0.726006	0.607852
Zn17	Zn	1.138836	0.226018	-0.107675
Zn18	Zn	1.638836	0.726018	0.392325
O19	O	1.142971	0.364343	0.081870
O20	O	1.642971	0.864343	0.581870
C21	C	0.964868	0.218223	0.000073
C22	C	1.464868	0.718223	0.500073
C23	C	0.858725	0.207379	0.000064
C24	C	1.358725	0.707379	0.500064
C25	C	1.131037	0.052054	0.000098
C26	C	1.631037	0.552054	0.500098
C27	C	1.120193	-0.054088	0.000098
C28	C	1.620193	0.445912	0.500098
C29	C	0.664388	0.187553	0.000085
C30	C	1.164388	0.687553	0.500085
C31	C	0.613258	0.264467	0.000084
C32	C	1.113258	0.764467	0.500084
C33	C	0.505122	0.253435	0.000095
C34	C	1.005122	0.753435	0.500095
C35	C	0.772534	0.198583	0.000073
C36	C	1.272534	0.698583	0.500073
C37	C	1.100366	-0.248426	0.000082
C38	C	1.600366	0.251574	0.500082
C39	C	1.177281	-0.299556	0.000086
C40	C	1.677281	0.200444	0.500086
C41	C	1.166249	-0.407692	0.000077
C42	C	1.666249	0.092308	0.500077
C43	C	1.111397	-0.140280	0.000091
C44	C	1.611397	0.359720	0.500091
C45	C	1.312783	0.233800	0.000102
C46	C	1.812783	0.733800	0.500102
C47	C	1.418926	0.244645	0.000104
C48	C	1.918926	0.744645	0.500104
C49	C	1.146614	0.399969	0.000077
C50	C	1.646614	0.899969	0.500077
C51	C	1.157459	0.506112	0.000070
C52	C	1.657459	1.006112	0.500070
N53	N	1.138809	0.225998	0.254944
N54	N	1.638809	0.725998	0.754944
N55	N	1.138849	0.226019	-0.254767
N56	N	1.638849	0.726019	0.245233
C57	C	1.138835	0.226019	0.656235
C58	C	1.638835	0.726019	1.156235
C59	C	1.138825	0.226016	0.544584
C60	C	1.638825	0.726016	1.044584
C61	C	1.138822	0.226009	0.455593
C62	C	1.638822	0.726009	0.955593
C63	C	1.138811	0.226005	0.343935
C64	C	1.638811	0.726005	0.843935
H65	H	0.626951	0.113425	0.000095
H66	H	1.126951	0.613425	0.500095
H67	H	1.026239	-0.285863	0.000073
H68	H	1.526239	0.214137	0.500073
O69	O	0.657952	0.352893	-0.000123
O70	O	1.157952	0.852893	0.499877
C71	C	0.715410	0.363821	-0.084848
C72	C	1.215410	0.863821	0.415152
H73	H	0.687555	0.311962	-0.144037
H74	H	1.187555	0.811962	0.355963
H75	H	0.713086	0.440010	-0.113316
H76	H	1.213086	0.940010	0.386684
H77	H	0.792052	0.348328	-0.065705
H78	H	1.292052	0.848328	0.434295
O79	O	1.265654	-0.254748	0.000147
O80	O	1.765654	0.245252	0.500147
C81	C	1.257142	-0.155189	0.000130
C82	C	1.757142	0.344811	0.500130
H83	H	1.184575	-0.138230	0.031087
H84	H	1.684575	0.361770	0.531087
H85	H	1.315885	-0.119778	0.047637
H86	H	1.815885	0.380222	0.547637
H87	H	1.264083	-0.127054	-0.078345
H88	H	1.764083	0.372946	0.421655
