data_functionalizedCrystal
_audit_creation_method	'MofGen! by Chris Wilmer'
_symmetry_space_group_name_H-M	'P1'
_symmetry_Int_Tables_number	1
_symmetry_cell_setting	triclinic
loop_
_symmetry_equiv_pos_as_xyz
  x,y,z
_cell_length_a	13.635800
_cell_length_b	23.752966
_cell_length_c	19.453114
_cell_angle_alpha	83.268048
_cell_angle_beta	101.709288
_cell_angle_gamma	79.933465
loop_
_atom_site_label
_atom_site_type_symbol
_atom_site_fract_x
_atom_site_fract_y
_atom_site_fract_z
V1	V	1.994954	-0.079757	0.219396
O2	O	1.997712	0.003220	0.214814
O3	O	1.962519	-0.157555	0.218286
O4	O	1.966513	-0.078799	0.314904
O5	O	1.993690	-0.076081	0.117527
V6	V	2.238385	-0.069800	0.207164
O7	O	2.121922	-0.101598	0.246228
O8	O	2.336516	-0.047959	0.180333
O9	O	2.159217	0.007998	0.208275
O10	O	2.294325	-0.152776	0.211747
O11	O	2.298347	-0.073475	0.309034
O12	O	2.155223	-0.070758	0.111656
V13	V	2.494954	-0.079757	0.219396
O14	O	2.497712	0.003220	0.214814
O15	O	2.462519	-0.157555	0.218286
O16	O	2.466513	-0.078799	0.314904
O17	O	2.493690	-0.076081	0.117527
V18	V	2.738385	-0.069800	0.207164
O19	O	2.621922	-0.101598	0.246228
O20	O	2.836516	-0.047959	0.180333
O21	O	2.659217	0.007998	0.208275
O22	O	2.794325	-0.152776	0.211747
O23	O	2.798347	-0.073475	0.309034
O24	O	2.655223	-0.070758	0.111656
C25	C	1.883153	-0.176512	0.214926
C26	C	1.897249	-0.240114	0.214654
C27	C	2.075370	-0.637453	0.216569
C28	C	2.088631	-0.697216	0.216325
O29	O	2.172534	-0.730615	0.219216
N30	N	2.004675	-0.724182	0.212679
C31	C	1.907452	-0.691382	0.209284
O32	O	1.837258	-0.719807	0.206162
C33	C	1.894194	-0.631621	0.209533
C34	C	1.978155	-0.604658	0.213172
C35	C	2.159325	-0.610489	0.220208
C36	C	2.146064	-0.550730	0.220451
C37	C	2.048849	-0.517935	0.217054
C38	C	1.964894	-0.544898	0.213415
C39	C	1.796973	-0.598824	0.206144
C40	C	1.783722	-0.539058	0.206394
C41	C	1.867684	-0.512095	0.210032
C42	C	1.854418	-0.452344	0.210261
N43	N	1.938375	-0.425378	0.213906
C44	C	2.035590	-0.458173	0.217303
C45	C	1.935303	-0.816886	0.208763
C46	C	1.948559	-0.876645	0.208509
C47	C	2.129738	-0.882475	0.215550
C48	C	2.116480	-0.822713	0.215799
C49	C	2.019260	-0.789920	0.212408
C50	C	2.007735	-0.332674	0.217812
C51	C	1.994464	-0.272909	0.218051
C52	C	1.813287	-0.267086	0.211013
C53	C	1.826555	-0.326845	0.210770
C54	C	1.923788	-0.359638	0.214172
O55	O	1.770548	-0.418909	0.207374
O56	O	2.105772	-0.429742	0.220435
C57	C	1.888248	-0.076050	0.338171
C58	C	1.905581	-0.075782	0.416252
C59	C	2.070253	0.026952	0.211633
C60	C	2.045777	0.090554	0.211909
C61	C	2.065159	-0.073508	0.088386
C62	C	2.037445	-0.073774	0.010304
C63	C	2.383153	-0.176512	0.214926
C64	C	2.397249	-0.240114	0.214654
C65	C	2.388248	-0.076050	0.338171
C66	C	2.405581	-0.075782	0.416252
C67	C	2.004312	-0.078528	0.456523
C68	C	2.020599	-0.078275	0.529889
C69	C	1.938153	-0.075289	0.562983
C70	C	1.839407	-0.072540	0.522702
C71	C	1.823122	-0.072786	0.449337
N72	N	1.905083	-0.105504	0.681922
N73	N	1.920560	-0.105272	0.751617
C74	C	1.987214	-0.074545	0.784027
N75	N	2.037824	-0.044068	0.744113
N76	N	2.022349	-0.044303	0.674412
C77	C	1.955801	-0.075021	0.642534
C78	C	2.103611	-0.077017	0.903849
C79	C	2.119893	-0.076761	0.977215
C80	C	1.938701	-0.071031	0.970028
C81	C	1.922420	-0.071281	0.896663
C82	C	2.004879	-0.074277	0.863578
C83	C	2.570253	0.026952	0.211633
C84	C	2.545777	0.090554	0.211909
C85	C	2.565159	-0.073508	0.088386
C86	C	2.537445	-0.073774	0.010304
C87	C	2.494464	-0.272909	0.218051
C88	C	2.507725	-0.332672	0.217807
C89	C	2.423768	-0.359638	0.214161
C90	C	2.326545	-0.326839	0.210767
C91	C	2.313287	-0.267078	0.211016
C92	C	2.504319	-0.078518	0.456514
C93	C	2.520617	-0.078258	0.529879
C94	C	2.438179	-0.075266	0.562981
C95	C	2.339433	-0.072528	0.522713
C96	C	2.323134	-0.072784	0.449349
C97	C	2.621055	0.123349	0.208514
C98	C	2.598066	0.183111	0.208762
C99	C	2.499799	0.210077	0.212409
C100	C	2.424515	0.177278	0.215802
C101	C	2.447503	0.117517	0.215549
C102	C	2.437653	-0.076759	-0.022780
C103	C	2.411596	-0.077002	-0.096147
C104	C	2.485334	-0.074263	-0.136428
C105	C	2.585134	-0.071276	-0.103340
C106	C	2.611187	-0.071029	-0.029975
H107	H	2.062840	-0.250958	0.221012
H108	H	2.071458	-0.080965	0.429590
C109	C	2.206335	-0.231008	0.207268
N110	N	2.125774	-0.203842	0.204443
C111	C	2.234198	-0.356509	0.206744
N112	N	2.164640	-0.378858	0.203707
C113	C	1.714508	-0.069772	0.405038
N114	N	1.632700	-0.067505	0.371672
C115	C	2.364685	0.081448	0.219294
N116	N	2.302301	0.054283	0.222115
H117	H	1.842025	-0.069051	0.863874
C118	C	2.214515	-0.069784	0.405070
N119	N	2.132698	-0.067527	0.371723
H120	H	2.377599	-0.078989	0.010008
C121	C	2.720971	-0.067750	0.006410
N122	N	2.803663	-0.065280	0.033811
H123	H	2.330330	-0.079434	-0.123076
C124	C	2.456660	-0.074540	-0.217130
N125	N	2.435058	-0.074751	-0.277915
C126	C	2.228508	-0.079776	1.021512
N127	N	2.310318	-0.082045	1.054877
C128	C	2.729156	0.093699	0.204496
N129	N	2.810578	0.071371	0.201464
H130	H	2.208897	-0.909187	0.218311
H131	H	2.451464	-0.075059	0.622719
H132	H	2.586895	-0.359370	0.220570
C133	C	2.194315	-0.080305	0.867453
N134	N	2.262634	-0.082780	0.840040
H135	H	2.659379	0.209808	0.206000
C136	C	2.629247	-0.081274	0.574161
N137	N	2.711066	-0.083547	0.607512
H138	H	1.871570	-0.068594	0.996971
C139	C	2.666237	-0.068266	-0.147660
N140	N	2.727324	-0.066002	-0.181043
H141	H	2.434578	-0.408300	0.213959
H142	H	2.238492	-0.637185	0.222977
H143	H	2.344506	0.199243	0.218771
H144	H	2.481095	0.258739	0.212614
H145	H	2.571457	-0.080956	0.429573
H146	H	2.214438	-0.528782	0.223419
C147	C	2.208848	-0.793061	0.219815
N148	N	2.278426	-0.770730	0.222845
C149	C	2.248742	-0.069174	0.559124
N150	N	2.180429	-0.066627	0.586547
C151	C	1.828345	-0.780816	0.205019
N152	N	1.747785	-0.753651	0.202198
C153	C	1.676770	-0.502988	0.202660
N154	N	1.596214	-0.475821	0.199844
C155	C	1.734193	-0.356505	0.206763
N156	N	1.664624	-0.378842	0.203752
C157	C	1.706351	-0.230999	0.207269
N158	N	1.625806	-0.203816	0.204452
C159	C	1.704605	-0.628471	0.202145
N160	N	1.635027	-0.650800	0.199136
H161	H	2.086908	-0.359368	0.220583
H162	H	2.101000	-0.080514	0.562684
H163	H	1.880184	-0.898592	0.205536
H164	H	1.772280	-0.070106	0.549651
H165	H	2.562836	-0.250961	0.221015
