data_functionalizedCrystal
_audit_creation_method	'MofGen! by Chris Wilmer'
_symmetry_space_group_name_H-M	'P1'
_symmetry_Int_Tables_number	1
_symmetry_cell_setting	triclinic
loop_
_symmetry_equiv_pos_as_xyz
  x,y,z
_cell_length_a	13.033291
_cell_length_b	13.032721
_cell_length_c	13.032492
_cell_angle_alpha	89.084098
_cell_angle_beta	90.894469
_cell_angle_gamma	105.184202
loop_
_atom_site_label
_atom_site_type_symbol
_atom_site_fract_x
_atom_site_fract_y
_atom_site_fract_z
Zn1	Zn	1.480155	-0.127410	-0.795441
Zn2	Zn	1.474542	-0.322001	-0.644668
Zn3	Zn	1.323923	-0.171235	-0.606378
Zn4	Zn	1.279947	-0.327529	-0.795325
O5	O	1.389642	-0.237044	-0.710453
O6	O	1.626233	-0.132568	-0.791514
O7	O	1.470617	-0.318030	-0.497415
O8	O	1.365401	-0.018575	-0.615482
O9	O	1.622109	-0.275534	-0.680742
O10	O	1.480184	0.013624	-0.754386
O11	O	1.359958	-0.207262	-0.469283
O12	O	1.171267	-0.212622	-0.615369
O13	O	1.290450	-0.284955	-0.937514
O14	O	1.138958	-0.327451	-0.754187
O15	O	1.437542	-0.137928	-0.937600
O16	O	1.427975	-0.469581	-0.680629
O17	O	1.285007	-0.473642	-0.791315
C18	C	1.117043	-0.275393	-0.680611
C19	C	1.000418	-0.291821	-0.667871
C20	C	0.829903	-0.245465	-0.703945
C21	C	0.950441	-0.228488	-0.717112
C22	C	1.351136	-0.509681	-0.740140
C23	C	1.334755	-0.626299	-0.752884
C24	C	1.398241	-0.676234	-0.703853
C25	C	1.381313	-0.796765	-0.717024
C26	C	1.663305	-0.198546	-0.740412
C27	C	1.779923	-0.182140	-0.753179
C28	C	1.419521	-0.266718	-0.446484
C29	C	1.432519	-0.279124	-0.333548
C30	C	1.428324	0.036665	-0.680676
C31	C	1.444808	0.153303	-0.667986
C32	C	1.359716	-0.207169	-0.975452
C33	C	1.346964	-0.194439	-1.088378
C34	C	1.383029	-0.230374	-0.269325
C35	C	1.396461	-0.243196	-0.152600
H36	H	0.996887	-0.161696	-0.769010
H37	H	1.330719	-0.179141	-0.300757
H38	H	1.448783	-0.294423	-0.121172
O39	O	1.284401	-0.133486	-0.125903
C40	C	1.201590	-0.196528	-0.186240
H41	H	1.187722	-0.283567	-0.162332
H42	H	1.125703	-0.170434	-0.174560
H43	H	1.224378	-0.186561	-0.270616
H44	H	1.511701	-0.800220	-0.616258
O45	O	1.494770	-0.340381	-0.296009
C46	C	1.432939	-0.423630	-0.235254
H47	H	1.345708	-0.438852	-0.258879
H48	H	1.460260	-0.498848	-0.246784
H49	H	1.442849	-0.400509	-0.150974
H50	H	1.267874	-0.672779	-0.804617
O51	O	0.774588	-0.325264	-0.642108
C52	C	0.784016	-0.423666	-0.678453
H53	H	0.858893	-0.410370	-0.726382
H54	H	0.789298	-0.478372	-0.610559
H55	H	0.711481	-0.461828	-0.727805
O56	O	0.945112	-0.371626	-0.606028
C57	C	0.954544	-0.470026	-0.642373
H58	H	1.029419	-0.456726	-0.690307
H59	H	0.959835	-0.524730	-0.574480
H60	H	0.882008	-0.508193	-0.691721
H61	H	1.465131	-0.629754	-0.652129
O62	O	0.835188	-0.102519	-0.815232
C63	C	0.793837	-0.117951	-0.916082
H64	H	0.708319	-0.169193	-0.913885
H65	H	0.795731	-0.037652	-0.953129
H66	H	0.844023	-0.159485	-0.962783
O67	O	1.301534	-0.852371	-0.778669
C68	C	1.302404	-0.960332	-0.778112
H69	H	1.343611	-0.979184	-0.705113
H70	H	1.217210	-1.012411	-0.780873
H71	H	1.347092	-0.976701	-0.847896
