data_functionalizedCrystal
_audit_creation_method	'MofGen! by Chris Wilmer'
_symmetry_space_group_name_H-M	'P1'
_symmetry_Int_Tables_number	1
_symmetry_cell_setting	triclinic
loop_
_symmetry_equiv_pos_as_xyz
  x,y,z
_cell_length_a	16.109301
_cell_length_b	15.500227
_cell_length_c	16.109302
_cell_angle_alpha	87.172562
_cell_angle_beta	83.461772
_cell_angle_gamma	92.840942
loop_
_atom_site_label
_atom_site_type_symbol
_atom_site_fract_x
_atom_site_fract_y
_atom_site_fract_z
O1	O	1.106998	0.071889	0.103009
O2	O	1.440331	0.405222	0.436343
O3	O	1.773665	0.738556	0.769676
O4	O	0.864937	0.071903	0.116308
O5	O	1.198270	0.405236	0.449641
O6	O	1.531603	0.738569	0.782975
O7	O	0.992616	0.071890	-0.011372
O8	O	1.325949	0.405223	0.321961
O9	O	1.659283	0.738557	0.655295
O10	O	0.979319	0.071902	0.230689
O11	O	1.312652	0.405235	0.564022
O12	O	1.645985	0.738568	0.897356
O13	O	0.984868	-0.071998	-0.003655
O14	O	1.318201	0.261335	0.329679
O15	O	1.651535	0.594669	0.663012
O16	O	0.857189	-0.071985	0.124025
O17	O	1.190522	0.261348	0.457359
O18	O	1.523855	0.594681	0.790692
O19	O	1.099250	-0.071999	0.110727
O20	O	1.432583	0.261334	0.444060
O21	O	1.765917	0.594668	0.777393
Cu22	Cu	0.977512	-0.085130	0.118081
Cu23	Cu	1.310845	0.248203	0.451414
Cu24	Cu	1.644179	0.581536	0.784747
Cu25	Cu	0.986675	0.085034	0.108954
Cu26	Cu	1.320008	0.418367	0.442287
Cu27	Cu	1.653341	0.751701	0.775621
O28	O	0.971571	-0.071986	0.238407
O29	O	1.304904	0.261347	0.571740
O30	O	1.638237	0.594680	0.905073
C31	C	0.830088	-0.000040	0.119628
C32	C	1.163421	0.333294	0.452961
C33	C	1.496755	0.666627	0.786294
C34	C	0.737793	-0.000034	0.118012
C35	C	1.071126	0.333299	0.451346
C36	C	1.404460	0.666632	0.784679
N37	N	0.971073	-0.204814	0.124500
N38	N	1.304407	0.128519	0.457833
N39	N	1.637740	0.461852	0.791166
C40	C	0.515521	-0.000041	0.190020
C41	C	0.848854	0.333292	0.523354
C42	C	1.182187	0.666626	0.856687
C43	C	0.428800	-0.000047	0.188497
C44	C	0.762133	0.333287	0.521830
C45	C	1.095467	0.666620	0.855163
C46	C	0.448673	-0.000050	0.037008
C47	C	0.782007	0.333283	0.370342
C48	C	1.115340	0.666616	0.703675
C49	C	0.535392	-0.000051	0.038533
C50	C	0.868725	0.333282	0.371866
C51	C	1.202059	0.666616	0.705200
C52	C	0.568813	-0.000042	0.115041
C53	C	0.902147	0.333292	0.448375
C54	C	1.235480	0.666625	0.781708
C55	C	0.395374	-0.000047	0.111993
C56	C	0.728707	0.333286	0.445326
C57	C	1.062041	0.666620	0.778659
C58	C	0.301347	-0.000053	0.110340
C59	C	0.634681	0.333280	0.443673
C60	C	0.968014	0.666614	0.777007
C61	C	0.662845	-0.000037	0.116695
C62	C	0.996179	0.333296	0.450028
C63	C	1.329512	0.666629	0.783361
C64	C	1.025194	-0.250096	0.070417
C65	C	1.358528	0.083237	0.403750
C66	C	1.691861	0.416570	0.737084
C67	C	1.020333	-0.340669	0.075279
C68	C	1.353666	-0.007336	0.408613
C69	C	1.686999	0.325998	0.741946
C70	C	0.961353	-0.385958	0.134228
C71	C	1.294687	-0.052624	0.467562
C72	C	1.628020	0.280709	0.800895
C73	C	0.907227	-0.340669	0.188313
C74	C	1.240560	-0.007336	0.521647
C75	C	1.573893	0.325997	0.854980
C76	C	0.912085	-0.250099	0.183447
C77	C	1.245418	0.083235	0.516780
C78	C	1.578752	0.416568	0.850113
C79	C	0.943852	-0.659423	0.151747
C80	C	1.277185	-0.326089	0.485080
C81	C	1.610518	0.007244	0.818413
C82	C	0.938999	-0.750000	0.156611
C83	C	1.272332	-0.416666	0.489944
C84	C	1.605666	-0.083333	0.823278
C85	C	1.052104	-0.749993	0.043575
C86	C	1.385438	-0.416660	0.376909
C87	C	1.718771	-0.083326	0.710242
C88	C	1.056961	-0.659421	0.038717
C89	C	1.390294	-0.326087	0.372050
C90	C	1.723628	0.007246	0.705384
C91	C	1.002831	-0.614140	0.092799
C92	C	1.336165	-0.280807	0.426132
C93	C	1.669498	0.052526	0.759466
C94	C	0.956384	-0.478537	0.139202
C95	C	1.289718	-0.145204	0.472535
C96	C	1.623051	0.188130	0.805868
C97	C	1.007797	-0.521562	0.087821
C98	C	1.341130	-0.188229	0.421155
C99	C	1.674464	0.145104	0.754488
C100	C	1.134099	-0.000055	0.107407
C101	C	1.467432	0.333279	0.440740
C102	C	1.800766	0.666612	0.774073
C103	C	1.226394	-0.000054	0.109022
C104	C	1.559728	0.333279	0.442355
C105	C	1.893061	0.666612	0.775688
C106	C	0.988203	-0.000053	-0.038488
C107	C	1.321537	0.333280	0.294845
C108	C	1.654870	0.666613	0.628179
C109	C	0.986588	-0.000052	-0.130783
C110	C	1.319921	0.333281	0.202550
C111	C	1.653254	0.666615	0.535883
N112	N	0.993120	0.204718	0.102528
N113	N	1.326453	0.538052	0.435862
N114	N	1.659787	0.871385	0.769195
C115	C	0.975984	-0.000041	0.265523
C116	C	1.309317	0.333292	0.598856
C117	C	1.642650	0.666626	0.932189
C118	C	0.977599	-0.000037	0.357818
C119	C	1.310933	0.333297	0.691151
C120	C	1.644266	0.666630	1.024484
C121	C	0.985557	0.078391	0.565952
C122	C	1.318890	0.411724	0.899286
C123	C	1.652224	0.745058	1.232619
C124	C	0.987084	0.078389	0.652672
C125	C	1.320417	0.411722	0.986006
C126	C	1.653750	0.745056	1.319339
C127	C	0.978632	-0.078486	0.661076
C128	C	1.311965	0.254848	0.994409
C129	C	1.645299	0.588181	1.327743
C130	C	0.977112	-0.078483	0.574357
C131	C	1.310445	0.254851	0.907690
C132	C	1.643778	0.588184	1.241023
C133	C	0.980570	-0.000042	0.526797
C134	C	1.313903	0.333291	0.860131
C135	C	1.647237	0.666625	1.193464
C136	C	0.983617	-0.000047	0.700237
C137	C	1.316950	0.333287	1.033570
C138	C	1.650284	0.666620	1.366904
C139	C	0.985272	-0.000049	0.794263
C140	C	1.318605	0.333284	1.127596
C141	C	1.651939	0.666617	1.460929
C142	C	0.978917	-0.000039	0.432765
C143	C	1.312250	0.333294	0.766099
C144	C	1.645583	0.666628	1.099432
H145	H	0.542729	-0.000040	0.252319
H146	H	0.876062	0.333293	0.585652
H147	H	1.209395	0.666627	0.918985
H148	H	0.991146	0.142257	0.684548
H149	H	1.324479	0.475590	1.017881
H150	H	1.657812	0.808924	1.351215
F151	F	0.886246	-0.611239	0.209306
F152	F	1.219579	-0.277906	0.542640
F153	F	1.552912	0.055428	0.875973
H154	H	0.578785	-0.000054	-0.022527
H155	H	0.912119	0.333279	0.310806
H156	H	1.245452	0.666613	0.644139
H157	H	1.055815	-0.484686	0.039822
H158	H	1.389149	-0.151352	0.373155
H159	H	1.722482	0.181981	0.706488
F160	F	0.893616	-0.526742	0.201941
F161	F	1.226949	-0.193408	0.535274
F162	F	1.560283	0.139925	0.868607
F163	F	0.971808	-0.161966	0.532682
F164	F	1.305141	0.171367	0.866016
F165	F	1.638475	0.504700	1.199349
F166	F	0.372085	-0.000047	0.268300
F167	F	0.705418	0.333286	0.601633
F168	F	1.038752	0.666620	0.934967
F169	F	0.413096	-0.000056	-0.044413
F170	F	0.746430	0.333277	0.288920
F171	F	1.079763	0.666611	0.622254
F172	F	0.876222	-0.798194	0.219358
F173	F	1.209555	-0.464860	0.552692
F174	F	1.542889	-0.131527	0.886025
F175	F	1.109707	-0.798189	-0.013981
F176	F	1.443041	-0.464856	0.319353
F177	F	1.776374	-0.131523	0.652686
H178	H	1.073225	-0.213228	0.022418
H179	H	1.406558	0.120105	0.355751
H180	H	1.739892	0.453438	0.689085
F181	F	1.077933	-0.388862	0.017718
F182	F	1.411266	-0.055528	0.351051
F183	F	1.744600	0.277805	0.684384
H184	H	0.975815	-0.142349	0.699809
H185	H	1.309148	0.190984	1.033143
H186	H	1.642482	0.524317	1.366476
F187	F	1.119734	-0.611222	-0.024022
F188	F	1.453067	-0.277889	0.309311
F189	F	1.786400	0.055444	0.642645
H190	H	0.859200	-0.377548	0.236309
H191	H	1.192534	-0.044215	0.569642
H192	H	1.525867	0.289118	0.902975
F193	F	0.854479	-0.201907	0.241007
F194	F	1.187812	0.131426	0.574340
F195	F	1.521146	0.464759	0.907674
H196	H	0.988372	0.142262	0.527232
H197	H	1.321706	0.475596	0.860565
H198	H	1.655039	0.808929	1.193899
