data_functionalizedCrystal
_audit_creation_method	'MofGen! by Chris Wilmer'
_symmetry_space_group_name_H-M	'P1'
_symmetry_Int_Tables_number	1
_symmetry_cell_setting	triclinic
loop_
_symmetry_equiv_pos_as_xyz
  x,y,z
_cell_length_a	12.811439
_cell_length_b	14.044190
_cell_length_c	11.295500
_cell_angle_alpha	94.239051
_cell_angle_beta	89.164235
_cell_angle_gamma	88.596662
loop_
_atom_site_label
_atom_site_type_symbol
_atom_site_fract_x
_atom_site_fract_y
_atom_site_fract_z
O1	O	-1.401009	-0.124671	0.052242
O2	O	-1.067676	0.208662	0.385575
O3	O	-0.734343	0.541996	0.718909
O4	O	-1.098983	-0.140450	0.019625
O5	O	-0.765650	0.192884	0.352958
O6	O	-0.432317	0.526217	0.686292
O7	O	-1.245457	0.005415	0.035467
O8	O	-0.912124	0.338749	0.368800
O9	O	-0.578791	0.672082	0.702133
O10	O	-1.254535	-0.270536	0.036400
O11	O	-0.921202	0.062797	0.369734
O12	O	-0.587868	0.396131	0.703067
O13	O	-1.231858	0.016777	0.232051
O14	O	-0.898524	0.350111	0.565384
O15	O	-0.565191	0.683444	0.898717
O16	O	-1.085384	-0.129088	0.216209
O17	O	-0.752050	0.204246	0.549542
O18	O	-0.418717	0.537579	0.882876
O19	O	-1.387410	-0.113309	0.248826
O20	O	-1.054076	0.220024	0.582159
O21	O	-0.720743	0.553357	0.915493
Cu22	Cu	-1.235155	-0.120161	0.250467
Cu23	Cu	-0.901821	0.213172	0.583801
Cu24	Cu	-0.568488	0.546506	0.917134
Cu25	Cu	-1.251238	-0.133598	0.017984
Cu26	Cu	-0.917905	0.199736	0.351317
Cu27	Cu	-0.584571	0.533069	0.684650
O28	O	-1.240935	-0.259174	0.232984
O29	O	-0.907602	0.074159	0.566318
O30	O	-0.574269	0.407492	0.899651
C31	C	-1.053297	-0.134234	0.113718
C32	C	-0.719964	0.199099	0.447051
C33	C	-0.386630	0.532433	0.780384
C34	C	-0.937427	-0.132629	0.101206
C35	C	-0.604094	0.200704	0.434539
C36	C	-0.270760	0.534038	0.767872
C37	C	-0.704866	-0.117207	0.292033
C38	C	-0.371533	0.216126	0.625367
C39	C	-0.038199	0.549460	0.958700
C40	C	-0.595995	-0.115698	0.280283
C41	C	-0.262662	0.217635	0.613616
C42	C	0.070671	0.550968	0.946950
C43	C	-0.610813	-0.128096	0.065955
C44	C	-0.277480	0.205238	0.399289
C45	C	0.055853	0.538571	0.732622
C46	C	-0.719684	-0.129605	0.077706
C47	C	-0.386351	0.203729	0.411039
C48	C	-0.053017	0.537062	0.744372
C49	C	-0.766706	-0.124161	0.190749
C50	C	-0.433373	0.209172	0.524082
C51	C	-0.100040	0.542505	0.857415
C52	C	-0.875579	-0.125677	0.202498
C53	C	-0.542245	0.207656	0.535831
C54	C	-0.208912	0.540990	0.869165
C55	C	-0.890395	-0.138068	-0.011829
C56	C	-0.557062	0.195266	0.321505
C57	C	-0.223728	0.528599	0.654838
C58	C	-0.781524	-0.136559	-0.023579
C59	C	-0.448191	0.196774	0.309754
C60	C	-0.114858	0.530108	0.643088
C61	C	-1.234688	0.046402	0.133334
C62	C	-0.901354	0.379735	0.466667
C63	C	-0.568021	0.713069	0.800000
C64	C	-1.222845	0.151601	0.132065
C65	C	-0.889512	0.484935	0.465398
C66	C	-0.556179	0.818268	0.798732
C67	C	-1.251706	-0.300161	0.135115
C68	C	-0.918372	0.033172	0.468448
C69	C	-0.585039	0.366506	0.801782
C70	C	-1.263548	-0.405361	0.136376
C71	C	-0.930215	-0.072028	0.469709
C72	C	-0.596881	0.261306	0.803042
C73	C	-0.433096	-0.119528	0.154734
C74	C	-0.099762	0.213805	0.488067
C75	C	0.233571	0.547138	0.821400
C76	C	-0.548965	-0.121144	0.167248
C77	C	-0.215632	0.212190	0.500581
C78	C	0.117702	0.545523	0.833914
C79	C	-1.285182	0.402028	0.138750
C80	C	-0.951848	0.735361	0.472084
C81	C	-0.618515	1.068694	0.805417
C82	C	-1.201216	0.344207	0.129691
C83	C	-0.867883	0.677541	0.463024
C84	C	-0.534550	1.010874	0.796357
C85	C	-1.213254	0.237032	0.131012
C86	C	-0.879920	0.570365	0.464345
C87	C	-0.546587	0.903698	0.797679
C88	C	-1.273146	0.509213	0.137429
C89	C	-0.939813	0.842547	0.470763
C90	C	-0.606479	1.175880	0.804096
N91	N	-1.223850	-0.110710	0.413984
N92	N	-0.890517	0.222623	0.747318
N93	N	-0.557184	0.555957	1.080651
C94	C	-1.343905	-0.211139	0.676222
C95	C	-1.010571	0.122194	1.009555
C96	C	-0.677238	0.455527	1.342889
C97	C	-1.335369	-0.203989	0.799965
C98	C	-1.002036	0.129344	1.133298
C99	C	-0.668702	0.462678	1.466632
C100	C	-1.198249	-0.089255	0.785216
C101	C	-0.864916	0.244079	1.118550
C102	C	-0.531582	0.577412	1.451883
C103	C	-1.206785	-0.096405	0.661473
C104	C	-0.873451	0.236928	0.994807
C105	C	-0.540118	0.570262	1.328140
C106	C	-1.279614	-0.157350	0.606981
C107	C	-0.946281	0.175983	0.940314
C108	C	-0.612947	0.509316	1.273647
C109	C	-1.288144	-0.164505	0.483235
C110	C	-0.954810	0.168828	0.816568
C111	C	-0.621477	0.502162	1.149901
C112	C	-1.151029	-0.049766	0.468489
C113	C	-0.817696	0.283567	0.801822
C114	C	-0.484363	0.616901	1.135156
C115	C	-1.142494	-0.042616	0.592232
C116	C	-0.809161	0.290717	0.925565
C117	C	-0.475827	0.624051	1.258899
N118	N	-1.262543	-0.143050	0.854467
N119	N	-0.929209	0.190284	1.187800
N120	N	-0.595876	0.523617	1.521133
H121	H	-0.743151	-0.112787	0.384077
H122	H	-0.409818	0.220546	0.717411
H123	H	-0.076485	0.553879	1.050744
H124	H	-1.083201	0.007007	0.636617
H125	H	-0.749868	0.340340	0.969951
H126	H	-0.416535	0.673674	1.303284
H127	H	-0.572509	-0.132511	-0.026078
H128	H	-0.239176	0.200822	0.307255
H129	H	0.094157	0.534155	0.640588
H130	H	-1.366101	0.371040	0.147501
H131	H	-1.032767	0.704373	0.480835
H132	H	-0.699434	1.037707	0.814168
H133	H	-1.387722	-0.247789	0.856338
H134	H	-1.054389	0.085544	1.189671
H135	H	-0.721056	0.418878	1.523004
H136	H	-1.120291	0.375197	0.120945
H137	H	-0.786957	0.708530	0.454278
H138	H	-0.453624	1.041864	0.787611
H139	H	-0.913862	-0.121250	0.294543
H140	H	-0.580528	0.212083	0.627876
H141	H	-0.247195	0.545416	0.961210
H142	H	-0.545648	-0.110040	0.362760
H143	H	-0.212315	0.223293	0.696093
H144	H	0.121018	0.556626	1.029427
H145	H	-0.940757	-0.143736	-0.094302
H146	H	-0.607424	0.189597	0.239031
H147	H	-0.274090	0.522931	0.572364
C148	C	-0.729793	-0.142551	-0.147915
C149	C	-0.396460	0.190782	0.185418
C150	C	-0.063127	0.524116	0.518751
H151	H	-0.656097	-0.140663	-0.140409
H152	H	-0.322763	0.192670	0.192924
H153	H	0.010570	0.526004	0.526257
H154	H	-0.753490	-0.090103	-0.189720
H155	H	-0.420157	0.243231	0.143613
H156	H	-0.086824	0.576564	0.476947
H157	H	-0.747869	-0.200603	-0.190320
H158	H	-0.414535	0.132730	0.143013
H159	H	-0.081202	0.466063	0.476347
C160	C	-1.118119	-0.022246	0.845164
C161	C	-0.784786	0.311087	1.178498
C162	C	-0.451453	0.644420	1.511831
H163	H	-1.081045	0.008763	0.786205
H164	H	-0.747712	0.342097	1.119539
H165	H	-0.414378	0.675430	1.452872
H166	H	-1.070454	-0.058402	0.888642
H167	H	-0.737120	0.274931	1.221976
H168	H	-0.403787	0.608265	1.555309
H169	H	-1.153425	0.024247	0.897617
H170	H	-0.820092	0.357581	1.230951
H171	H	-0.486758	0.690914	1.564284
H172	H	-1.347441	-0.214134	0.438868
H173	H	-1.014107	0.119200	0.772202
H174	H	-0.680774	0.452533	1.105535
H175	H	-1.098674	-0.005972	0.412098
H176	H	-0.765341	0.327361	0.745432
H177	H	-0.432007	0.660695	1.078765
H178	H	-1.403196	-0.260772	0.631852
H179	H	-1.069863	0.072561	0.965186
H180	H	-0.736529	0.405894	1.298519
