data_functionalizedCrystal
_audit_creation_method	'MofGen! by Chris Wilmer'
_symmetry_space_group_name_H-M	'P1'
_symmetry_Int_Tables_number	1
_symmetry_cell_setting	triclinic
loop_
_symmetry_equiv_pos_as_xyz
  x,y,z
_cell_length_a	12.759399
_cell_length_b	12.759401
_cell_length_c	12.759393
_cell_angle_alpha	90.019676
_cell_angle_beta	90.030906
_cell_angle_gamma	90.015542
loop_
_atom_site_label
_atom_site_type_symbol
_atom_site_fract_x
_atom_site_fract_y
_atom_site_fract_z
Zn1	Zn	-0.418204	1.606263	0.593982
Zn2	Zn	-0.593919	1.606153	0.418301
Zn3	Zn	-0.418256	1.430562	0.418321
Zn4	Zn	-0.593842	1.430553	0.593942
O5	O	-0.506055	1.518383	0.506136
O6	O	-0.441523	1.753270	0.570686
O7	O	-0.570671	1.582818	0.271282
O8	O	-0.271228	1.453919	0.441648
O9	O	-0.570620	1.753189	0.441613
O10	O	-0.271189	1.583006	0.570705
O11	O	-0.441612	1.453812	0.271297
O12	O	-0.441538	1.283540	0.441609
O13	O	-0.570489	1.453903	0.740968
O14	O	-0.570540	1.283533	0.570637
O15	O	-0.441448	1.582997	0.740998
O16	O	-0.740930	1.582809	0.441575
O17	O	-0.740874	1.453796	0.570617
C18	C	-0.506037	1.245415	0.506121
C19	C	-0.506055	1.128639	0.506140
C20	C	-0.438955	1.073820	0.573451
C21	C	-0.438966	0.964096	0.573458
C22	C	-0.573185	0.964020	0.438839
C23	C	-0.573168	1.073742	0.438828
C24	C	-0.779023	1.518318	0.506112
C25	C	-0.895799	1.518387	0.506137
C26	C	-0.950656	1.585641	0.439021
C27	C	-1.060380	1.585708	0.439056
C28	C	-1.060381	1.451259	0.573327
C29	C	-0.950659	1.451198	0.573296
C30	C	-0.232022	1.518476	0.506183
C31	C	-0.115245	1.518516	0.506203
C32	C	-0.505954	1.518461	0.780170
C33	C	-0.505911	1.518495	0.896946
C34	C	-0.506074	1.792416	0.506152
C35	C	-0.506082	1.909193	0.506158
C36	C	-0.506080	1.518365	0.233169
C37	C	-0.505827	1.518535	0.116393
C38	C	-0.438709	1.585719	0.951825
C39	C	-0.438664	1.585737	1.061550
C40	C	-0.573032	1.451303	1.061506
C41	C	-0.573072	1.451281	0.951784
H42	H	-0.627810	1.118377	0.384009
Br43	Br	-0.664272	1.360032	0.877298
H44	H	-0.627827	0.919309	0.384037
Br45	Br	-0.347894	0.889702	0.664810
H46	H	-0.383939	1.640476	1.106227
H47	H	-0.384304	1.118514	0.628258
H48	H	-0.905991	1.640352	0.384338
H49	H	-1.105039	1.640474	0.384405
Br50	Br	-1.134840	1.360077	0.664465
Br51	Br	-0.347562	1.676935	0.877406
Br52	Br	-0.876204	1.359927	0.664398
H53	H	-0.627714	1.396583	1.106168
