data_functionalizedCrystal
_audit_creation_method	'MofGen! by Chris Wilmer'
_symmetry_space_group_name_H-M	'P1'
_symmetry_Int_Tables_number	1
_symmetry_cell_setting	triclinic
loop_
_symmetry_equiv_pos_as_xyz
  x,y,z
_cell_length_a	13.033286
_cell_length_b	13.031981
_cell_length_c	12.759393
_cell_angle_alpha	97.216555
_cell_angle_beta	82.829597
_cell_angle_gamma	90.919693
loop_
_atom_site_label
_atom_site_type_symbol
_atom_site_fract_x
_atom_site_fract_y
_atom_site_fract_z
Zn1	Zn	1.520241	-0.608990	0.321689
Zn2	Zn	2.020241	-0.108990	0.821689
Zn3	Zn	1.498291	-0.781017	0.126830
Zn4	Zn	1.998291	-0.281017	0.626830
Zn5	Zn	1.348256	-0.587216	0.170810
Zn6	Zn	1.848256	-0.087216	0.670810
Zn7	Zn	1.326422	-0.759129	0.327253
Zn8	Zn	1.826422	-0.259129	0.827253
O9	O	1.423302	-0.684088	0.236646
O10	O	1.923302	-0.184088	0.736646
O11	O	1.661233	-0.650083	0.275106
O12	O	2.161233	-0.150083	0.775106
O13	O	1.478341	-0.755357	-0.014357
O14	O	1.978341	-0.255357	0.485643
O15	O	1.389394	-0.446164	0.206902
O16	O	1.889394	0.053836	0.706902
O17	O	1.645107	-0.776471	0.131944
O18	O	2.145107	-0.276471	0.631944
O19	O	1.515750	-0.462162	0.317752
O20	O	2.015750	0.037838	0.817752
O21	O	1.368111	-0.612972	0.017955
O22	O	1.868111	-0.112972	0.517955
O23	O	1.201456	-0.591747	0.212297
O24	O	1.701456	-0.091747	0.712297
O25	O	1.352180	-0.739165	0.473536
O26	O	1.852180	-0.239165	0.973536
O27	O	1.185414	-0.718051	0.327235
O28	O	1.685414	-0.218051	0.827235
O29	O	1.494578	-0.628859	0.469448
O30	O	1.994578	-0.128859	0.969448
O31	O	1.457169	-0.922054	0.137339
O32	O	1.957169	-0.422054	0.637339
O33	O	1.330897	-0.905972	0.284589
O34	O	1.830897	-0.405972	0.784589
C35	C	1.156122	-0.650162	0.275143
C36	C	1.656122	-0.150162	0.775143
C37	C	1.041818	-0.635673	0.291634
C38	C	1.541818	-0.135673	0.791634
C39	C	1.389309	-0.951339	0.206814
C40	C	1.889309	-0.451339	0.706814
C41	C	1.374861	-1.065681	0.194073
C42	C	1.874861	-0.565681	0.694073
C43	C	0.982891	-0.691650	0.228065
C44	C	1.482891	-0.191650	0.728065
C45	C	0.864752	-0.676676	0.245108
C46	C	1.364752	-0.176676	0.745108
C47	C	1.430898	-1.124486	0.243308
C48	C	1.930898	-0.624486	0.743308
C49	C	1.415966	-1.242665	0.230141
C50	C	1.915966	-0.742665	0.730141
C51	C	1.691526	-0.718148	0.197998
C52	C	2.191526	-0.218148	0.697998
C53	C	1.805827	-0.732662	0.181529
C54	C	2.305827	-0.232662	0.681529
C55	C	1.423392	-0.683999	0.510679
C56	C	1.923392	-0.183999	1.010679
C57	C	1.423430	-0.683961	0.627456
C58	C	1.923430	-0.183961	1.127456
C59	C	1.457456	-0.415798	0.266613
C60	C	1.957456	0.084202	0.766613
C61	C	1.472010	-0.301468	0.279383
C62	C	1.972010	0.198532	0.779383
C63	C	1.423282	-0.684110	-0.036322
C64	C	1.923282	-0.184110	0.463678
C65	C	1.423480	-0.683883	-0.153094
C66	C	1.923480	-0.183883	0.346906
C67	C	1.497583	-0.626515	0.680191
C68	C	1.997583	-0.126515	1.180191
C69	C	1.497606	-0.626473	0.789918
C70	C	1.997606	-0.126473	1.289918
C71	C	1.349319	-0.741332	0.794163
C72	C	1.849319	-0.241332	1.294163
C73	C	1.349293	-0.741367	0.684440
C74	C	1.849293	-0.241367	1.184440
H75	H	1.019904	-0.750663	0.161026
H76	H	1.519904	-0.250663	0.661026
C77	C	1.202740	-0.854865	0.787338
C78	C	1.702740	-0.354865	1.287338
C79	C	1.267836	-0.804439	0.856800
C80	C	1.767836	-0.304439	1.356800
H81	H	1.152433	-0.893822	0.826009
H82	H	1.652433	-0.393822	1.326009
H83	H	1.242525	-0.899911	0.733696
H84	H	1.742525	-0.399911	1.233696
H85	H	1.169103	-0.805056	0.755213
H86	H	1.669103	-0.305056	1.255213
H87	H	1.301479	-0.854248	0.888919
H88	H	1.801479	-0.354248	1.388919
H89	H	1.228046	-0.759389	0.910461
H90	H	1.728046	-0.259389	1.410461
H91	H	1.557987	-0.579692	0.832851
H92	H	2.057987	-0.079692	1.332851
H93	H	1.288901	-0.788145	0.641502
H94	H	1.788901	-0.288145	1.141502
C95	C	1.501419	-1.182185	0.432066
C96	C	2.001419	-0.682185	0.932066
C97	C	1.551705	-1.251339	0.349453
C98	C	2.051705	-0.751339	0.849453
H99	H	1.550621	-1.151235	0.475318
H100	H	2.050621	-0.651235	0.975318
H101	H	1.451344	-1.218430	0.474031
H102	H	1.951344	-0.718430	0.974031
H103	H	1.468201	-1.129982	0.402872
H104	H	1.968201	-0.629982	0.902872
H105	H	1.584917	-1.303547	0.378647
H106	H	2.084917	-0.803547	0.878647
H107	H	1.601799	-1.215093	0.307481
H108	H	2.101799	-0.715093	0.807481
H109	H	0.827743	-0.617666	0.312157
H110	H	1.327743	-0.117666	0.812157
H111	H	0.842833	-0.791684	0.114490
H112	H	1.342833	-0.291684	0.614490
H113	H	1.557948	-0.579768	0.633799
H114	H	2.057948	-0.079768	1.133799
C115	C	0.884499	-0.556593	0.381505
C116	C	1.384499	-0.056593	0.881505
C117	C	0.991863	-0.556007	0.382141
C118	C	1.491863	-0.056007	0.882141
H119	H	0.853665	-0.507405	0.437379
H120	H	1.353665	-0.007405	0.937379
H121	H	0.858177	-0.623509	0.391564
H122	H	1.358177	-0.123509	0.891564
H123	H	0.868845	-0.539245	0.315144
H124	H	1.368845	-0.039245	0.815144
H125	H	1.007519	-0.573363	0.448500
H126	H	1.507519	-0.073363	0.948500
H127	H	1.018195	-0.489077	0.372090
H128	H	1.518195	0.010923	0.872090
H129	H	1.489923	-1.087341	0.295213
H130	H	1.989923	-0.587341	0.795213
H131	H	1.356928	-1.279807	0.178244
H132	H	1.856928	-0.779807	0.678244
C133	C	1.295803	-1.223186	0.124527
C134	C	1.795803	-0.723186	0.624527
C135	C	1.295170	-1.115817	0.124009
C136	C	1.795170	-0.615817	0.624009
H137	H	1.246607	-1.254134	0.081266
H138	H	1.746607	-0.754134	0.581266
H139	H	1.278518	-1.238783	0.195335
H140	H	1.778518	-0.738783	0.695335
H141	H	1.362713	-1.249459	0.097314
H142	H	1.862713	-0.749459	0.597314
H143	H	1.228261	-1.089543	0.151229
H144	H	1.728261	-0.589543	0.651229
H145	H	1.312448	-1.100212	0.053187
H146	H	1.812448	-0.600212	0.553187
