data_functionalizedCrystal
_audit_creation_method	'MofGen! by Chris Wilmer'
_symmetry_space_group_name_H-M	'P1'
_symmetry_Int_Tables_number	1
_symmetry_cell_setting	triclinic
loop_
_symmetry_equiv_pos_as_xyz
  x,y,z
_cell_length_a	10.489741
_cell_length_b	12.811457
_cell_length_c	11.892095
_cell_angle_alpha	91.498327
_cell_angle_beta	93.929268
_cell_angle_gamma	84.290239
loop_
_atom_site_label
_atom_site_type_symbol
_atom_site_fract_x
_atom_site_fract_y
_atom_site_fract_z
O1	O	0.175985	1.390523	0.048548
O2	O	0.675985	1.890523	0.548548
O3	O	0.191984	1.087282	0.017459
O4	O	0.691984	1.587282	0.517459
O5	O	-0.001593	1.245802	0.033718
O6	O	0.498407	1.745802	0.533718
O7	O	0.369561	1.232003	0.032290
O8	O	0.869561	1.732003	0.532290
O9	O	0.014522	1.232585	0.220370
O10	O	0.514522	1.732585	0.720370
O11	O	0.208099	1.074065	0.204111
O12	O	0.708099	1.574065	0.704111
O13	O	0.192099	1.377305	0.235200
O14	O	0.692099	1.877305	0.735200
Zn15	Zn	0.202658	1.223587	0.249291
Zn16	Zn	0.702658	1.723587	0.749291
Zn17	Zn	0.181426	1.241001	0.003369
Zn18	Zn	0.681426	1.741001	0.503369
O19	O	0.385676	1.218786	0.218942
O20	O	0.885676	1.718786	0.718942
C21	C	0.198651	1.041844	0.106804
C22	C	0.698651	1.541844	0.606804
C23	C	0.194493	0.926143	0.094942
C24	C	0.694493	1.426143	0.594942
C25	C	-0.041070	1.238151	0.126936
C26	C	0.458930	1.738151	0.626936
C27	C	-0.182709	1.235033	0.126615
C28	C	0.317291	1.735033	0.626615
C29	C	0.204226	0.694318	0.276163
C30	C	0.704226	1.194318	0.776163
C31	C	0.200319	0.585606	0.265023
C32	C	0.700319	1.085606	0.765023
C33	C	0.182763	0.600006	0.061524
C34	C	0.682763	1.100006	0.561524
C35	C	0.186670	0.708718	0.072664
C36	C	0.686670	1.208718	0.572664
C37	C	0.197403	0.755869	0.179987
C38	C	0.697403	1.255869	0.679987
C39	C	0.201319	0.864582	0.191125
C40	C	0.701319	1.364582	0.691125
C41	C	0.183755	0.878981	-0.012373
C42	C	0.683755	1.378981	0.487627
C43	C	0.179848	0.770270	-0.023512
C44	C	0.679848	1.270270	0.476488
C45	C	-0.251147	1.134172	0.116266
C46	C	0.248853	1.634172	0.616266
C47	C	-0.335184	1.175301	0.213180
C48	C	0.164816	1.675301	0.713180
C49	C	-0.351046	1.188356	0.029158
C50	C	0.148954	1.688356	0.529158
C51	C	-0.264873	1.276198	0.223609
C52	C	0.235127	1.776198	0.723609
C53	C	-0.280734	1.289245	0.039503
C54	C	0.219266	1.789245	0.539503
C55	C	-0.364741	1.330446	0.136447
C56	C	0.135259	1.830446	0.636447
C57	C	0.425153	1.226437	0.125721
C58	C	0.925153	1.726437	0.625721
C59	C	0.566791	1.229555	0.126035
C60	C	1.066791	1.729555	0.626035
C61	C	0.185432	1.422744	0.145853
C62	C	0.685432	1.922744	0.645853
C63	C	0.189590	1.538446	0.157707
C64	C	0.689590	2.038446	0.657707
N65	N	0.217147	1.211709	0.417127
N66	N	0.717147	1.711709	0.917127
N67	N	0.166926	1.252886	-0.164466
N68	N	0.666926	1.752886	0.335534
C69	C	0.066027	1.335533	0.666475
C70	C	0.566027	1.835533	1.166475
C71	C	0.076165	1.327238	0.783966
C72	C	0.576165	1.827238	1.283966
C73	C	0.247553	1.186822	0.769602
C74	C	0.747553	1.686822	1.269602
C75	C	0.237415	1.195116	0.652111
C76	C	0.737415	1.695116	1.152111
C77	C	0.146651	1.269475	0.600551
C78	C	0.646651	1.769475	1.100551
C79	C	0.136520	1.277774	0.483059
C80	C	0.636520	1.777774	0.983059
C81	C	0.307902	1.137353	0.468696
C82	C	0.807902	1.637353	0.968696
C83	C	0.318039	1.129059	0.586188
C84	C	0.818039	1.629059	1.086188
H85	H	0.210067	0.902970	0.278513
H86	H	0.710067	1.402970	0.778513
H87	H	0.373555	1.083567	0.415008
H88	H	0.873555	1.583567	0.915008
H89	H	0.212982	0.732707	0.363549
H90	H	0.712982	1.232707	0.863549
H91	H	-0.227191	1.313323	0.305871
H92	H	0.272809	1.813323	0.805871
H93	H	-0.388854	1.151177	-0.053029
H94	H	0.111146	1.651177	0.446971
Br95	Br	-0.239974	1.369503	-0.082896
Br96	Br	0.260026	1.869503	0.417104
Br97	Br	-0.446708	1.468782	0.150707
Br98	Br	0.053292	1.968782	0.650707
H99	H	0.205881	0.535493	0.343340
H100	H	0.705881	1.035493	0.843340
H101	H	0.174003	0.561598	-0.025853
H102	H	0.674003	1.061598	0.474147
H103	H	0.321443	1.126274	0.811596
H104	H	0.821443	1.626274	1.311596
Br105	Br	0.165231	0.706274	-0.169157
Br106	Br	0.665231	1.206274	0.330843
Br107	Br	0.174525	0.962519	-0.142906
Br108	Br	0.674525	1.462519	0.357094
Br109	Br	-0.168788	0.995944	0.102239
Br110	Br	0.331212	1.495944	0.602239
Br111	Br	-0.375884	1.094993	0.335569
Br112	Br	0.124116	1.594993	0.835569
Br113	Br	0.013348	1.378693	0.413087
Br114	Br	0.513348	1.878693	0.913087
H115	H	-0.007868	1.396086	0.624495
H116	H	0.492132	1.896086	1.124495
H117	H	0.010511	1.381028	0.837638
H118	H	0.510511	1.881028	1.337638
Br119	Br	0.441209	1.028142	0.656167
Br120	Br	0.941209	1.528142	1.156167
