data_functionalizedCrystal
_audit_creation_method	'MofGen! by Chris Wilmer'
_symmetry_space_group_name_H-M	'P1'
_symmetry_Int_Tables_number	1
_symmetry_cell_setting	triclinic
loop_
_symmetry_equiv_pos_as_xyz
  x,y,z
_cell_length_a	10.908937
_cell_length_b	15.995292
_cell_length_c	10.065875
_cell_angle_alpha	98.790453
_cell_angle_beta	83.441416
_cell_angle_gamma	71.777286
loop_
_atom_site_label
_atom_site_type_symbol
_atom_site_fract_x
_atom_site_fract_y
_atom_site_fract_z
O1	O	1.722682	-0.144251	-0.113545
O2	O	2.222682	0.355749	0.386455
O3	O	1.348799	-0.078862	-0.113534
O4	O	1.848799	0.421138	0.386466
O5	O	1.546000	-0.234877	-0.113542
O6	O	2.046000	0.265123	0.386458
O7	O	1.525481	0.011763	-0.113537
O8	O	2.025481	0.511763	0.386463
O9	O	1.508396	-0.205029	0.113449
O10	O	2.008396	0.294971	0.613449
O11	O	1.311195	-0.049014	0.113457
O12	O	1.811195	0.450986	0.613457
O13	O	1.685079	-0.114403	0.113445
O14	O	2.185079	0.385597	0.613445
Zn15	Zn	1.492166	-0.076970	0.149491
Zn16	Zn	1.992166	0.423030	0.649491
Zn17	Zn	1.541711	-0.116296	-0.149579
Zn18	Zn	2.041711	0.383704	0.350421
O19	O	1.487877	0.041611	0.113453
O20	O	1.987877	0.541611	0.613453
C21	C	1.282153	-0.057827	-0.000037
C22	C	1.782153	0.442173	0.499963
C23	C	1.139596	-0.039629	-0.000033
C24	C	1.639596	0.460371	0.499967
C25	C	0.943273	-0.087234	-0.000058
C26	C	1.443273	0.412766	0.499942
C27	C	1.090611	-0.106042	-0.000042
C28	C	1.590611	0.393958	0.499958
C29	C	1.526364	-0.251032	-0.000050
C30	C	2.026364	0.248968	0.499950
C31	C	1.523862	-0.343638	-0.000060
C32	C	2.023862	0.156362	0.499940
C33	C	1.514656	-0.680093	-0.000047
C34	C	2.014656	-0.180093	0.499953
C35	C	1.656906	-0.676533	0.000455
C36	C	2.156906	-0.176533	0.500455
C37	C	1.659697	-0.580302	-0.000061
C38	C	2.159697	-0.080302	0.499939
C39	C	1.519224	-0.513174	-0.000053
C40	C	2.019224	-0.013174	0.499947
C41	C	1.469536	-0.549411	-0.129669
C42	C	1.969536	-0.049411	0.370331
C43	C	1.467840	-0.645976	-0.129773
C44	C	1.967840	-0.145976	0.370227
C45	C	1.422171	-0.611486	0.128358
C46	C	1.922171	-0.111486	0.628358
C47	C	1.427162	-0.515503	0.130066
C48	C	1.927162	-0.015503	0.630066
C49	C	1.521798	-0.418837	-0.000061
C50	C	2.021798	0.081163	0.499939
C51	C	1.512078	-0.774430	-0.000049
C52	C	2.012078	-0.274430	0.499951
C53	C	1.751724	-0.135439	-0.000054
C54	C	2.251724	0.364561	0.499946
C55	C	1.894284	-0.153638	-0.000067
C56	C	2.394284	0.346362	0.499933
C57	C	1.507514	0.057766	-0.000041
C58	C	2.007514	0.557766	0.499959
C59	C	1.510017	0.150371	-0.000040
C60	C	2.010017	0.650371	0.499960
N61	N	1.458363	-0.050132	0.353598
N62	N	1.958363	0.449868	0.853598
N63	N	1.575524	-0.143141	-0.353686
N64	N	2.075524	0.356859	0.146314
C65	C	1.529941	-0.106963	0.421373
C66	C	2.029941	0.393037	0.921373
C67	C	1.503935	-0.086303	0.578542
C68	C	2.003935	0.413697	1.078542
H69	H	0.961422	-0.224414	-0.000071
H70	H	1.461422	0.275586	0.499929
H71	H	1.700035	-0.556820	0.092850
H72	H	2.200035	-0.056820	0.592850
F73	F	1.051857	0.052886	-0.000046
F74	F	1.551857	0.552886	0.499954
H75	H	1.423391	-0.022351	0.636866
H76	H	1.923391	0.477649	1.136866
F77	F	1.681011	-0.226625	0.570087
F78	F	2.181011	0.273375	1.070087
H79	H	1.731176	-0.581943	-0.093141
H80	H	2.231176	-0.081943	0.406859
F81	F	1.708492	-0.707135	0.121953
F82	F	2.208492	-0.207135	0.621953
H83	H	1.463093	-0.491543	0.225955
H84	H	1.963093	0.008457	0.725955
H85	H	1.377824	0.013815	0.411927
H86	H	1.877824	0.513815	0.911927
F87	F	0.855529	0.005274	-0.000077
F88	F	1.355529	0.505274	0.499923
H89	H	1.726776	-0.725303	-0.091980
H90	H	2.226776	-0.225303	0.408020
H91	H	1.157745	-0.176823	-0.000046
H92	H	1.657745	0.323177	0.499954
F93	F	1.553243	-0.706654	-0.256418
F94	F	2.053243	-0.206654	0.243582
H95	H	1.534932	-0.548915	-0.226134
H96	H	2.034932	-0.048915	0.273866
F97	F	1.332711	-0.647016	-0.137461
F98	F	1.832711	-0.147016	0.362539
H99	H	1.366964	-0.503783	-0.134482
H100	H	1.866964	-0.003783	0.365518
F101	F	1.459105	-0.639689	0.256770
F102	F	1.959105	-0.139689	0.756770
F103	F	1.634979	-0.190667	0.345138
F104	F	2.134979	0.309333	0.845138
F105	F	1.291448	-0.452404	0.140308
F106	F	1.791448	0.047596	0.640308
H107	H	1.317257	-0.610772	0.129237
H108	H	1.817257	-0.110772	0.629237
