data_functionalizedCrystal
_audit_creation_method	'MofGen! by Chris Wilmer'
_symmetry_space_group_name_H-M	'P1'
_symmetry_Int_Tables_number	1
_symmetry_cell_setting	triclinic
loop_
_symmetry_equiv_pos_as_xyz
  x,y,z
_cell_length_a	29.839134
_cell_length_b	12.759394
_cell_length_c	12.759387
_cell_angle_alpha	89.967183
_cell_angle_beta	89.969068
_cell_angle_gamma	90.009699
loop_
_atom_site_label
_atom_site_type_symbol
_atom_site_fract_x
_atom_site_fract_y
_atom_site_fract_z
Zn1	Zn	0.686842	-0.418343	-0.594338
Zn2	Zn	0.686798	-0.594064	-0.418656
Zn3	Zn	0.611713	-0.418383	-0.418638
Zn4	Zn	0.611708	-0.593965	-0.594258
O5	O	0.649265	-0.506189	-0.506473
O6	O	0.749704	-0.441677	-0.571075
O7	O	0.676821	-0.570817	-0.271633
O8	O	0.621701	-0.271357	-0.441971
O9	O	0.749671	-0.570778	-0.442002
O10	O	0.676897	-0.271327	-0.571057
O11	O	0.621657	-0.441746	-0.271619
O12	O	0.548846	-0.441650	-0.441893
O13	O	0.621691	-0.570610	-0.741290
O14	O	0.548841	-0.570649	-0.570921
O15	O	0.676892	-0.441581	-0.741349
O16	O	0.676816	-0.741072	-0.441924
O17	O	0.621647	-0.740999	-0.570938
C18	C	0.649238	-0.779156	-0.506447
C19	C	0.649268	-0.895933	-0.506472
C20	C	0.532543	-0.506144	-0.506397
C21	C	0.482608	-0.506150	-0.506389
C22	C	0.706758	-0.895955	-0.372230
C23	C	0.735514	-0.950827	-0.305122
C24	C	0.735541	-1.060548	-0.305150
C25	C	0.706808	-1.115401	-0.372297
C26	C	0.678052	-1.060529	-0.439405
C27	C	0.678027	-0.950805	-0.439367
C28	C	0.620565	-1.060507	-0.573650
C29	C	0.620535	-0.950785	-0.573618
C30	C	0.591832	-1.115359	-0.640797
C31	C	0.563073	-1.060487	-0.707901
C32	C	0.563047	-0.950759	-0.707869
C33	C	0.591779	-0.895913	-0.640726
C34	C	0.172972	-0.573458	-0.573575
C35	C	-0.014701	-0.573487	-0.573622
O36	O	-0.038959	-0.630665	-0.630700
N37	N	-0.038177	-0.506227	-0.506552
C38	C	-0.014732	-0.438950	-0.439470
O39	O	-0.039006	-0.381734	-0.382432
C40	C	0.172941	-0.438916	-0.439430
C41	C	0.196414	-0.506188	-0.506496
C42	C	0.196446	-0.640724	-0.640637
C43	C	0.243361	-0.640720	-0.640620
C44	C	0.266803	-0.573450	-0.573542
C45	C	0.243330	-0.506184	-0.506480
C46	C	0.196385	-0.371634	-0.372355
C47	C	0.243306	-0.371630	-0.372352
C48	C	0.266779	-0.438902	-0.439419
C49	C	0.313687	-0.438910	-0.439385
N50	N	0.337163	-0.506170	-0.506455
C51	C	0.313721	-0.573440	-0.573533
C52	C	-0.113262	-0.438974	-0.439495
C53	C	-0.160180	-0.438984	-0.439504
C54	C	-0.160146	-0.573520	-0.573656
C55	C	-0.113227	-0.573515	-0.573642
C56	C	-0.089786	-0.506234	-0.506565
C57	C	0.412247	-0.573427	-0.573493
C58	C	0.459166	-0.573420	-0.573468
C59	C	0.459128	-0.438880	-0.439319
C60	C	0.412213	-0.438891	-0.439340
C61	C	0.388773	-0.506168	-0.506436
O62	O	0.337974	-0.381754	-0.382345
O63	O	0.338003	-0.630631	-0.630580
C64	C	0.126057	-0.573462	-0.573591
C65	C	0.102583	-0.506196	-0.506529
C66	C	0.126025	-0.438926	-0.439451
C67	C	0.055665	-0.506206	-0.506538
C68	C	0.032223	-0.573476	-0.573616
C69	C	0.055699	-0.640736	-0.640686
C70	C	0.102615	-0.640732	-0.640670
C71	C	0.102549	-0.371666	-0.372381
C72	C	0.055634	-0.371676	-0.372402
C73	C	0.032192	-0.438946	-0.439481
C74	C	0.766444	-0.506234	-0.506549
C75	C	0.816378	-0.506254	-0.506582
C76	C	0.649296	-0.506080	-0.780506
C77	C	0.649309	-0.506034	-0.897283
C78	C	0.649305	-0.232155	-0.506521
C79	C	0.649321	-0.115379	-0.506542
C80	C	0.591870	-0.371623	-0.897288
C81	C	0.563159	-0.304396	-0.952152
C82	C	0.563173	-0.304358	-1.061873
C83	C	0.591899	-0.371556	-1.116734
C84	C	0.620610	-0.438783	-1.061871
C85	C	0.620595	-0.438811	-0.952147
C86	C	0.678046	-0.573198	-1.061866
C87	C	0.678035	-0.573232	-0.952144
C88	C	0.706773	-0.640396	-1.116727
C89	C	0.735487	-0.707618	-1.061863
C90	C	0.735472	-0.707653	-0.952135
C91	C	0.706746	-0.640458	-0.897281
C92	C	0.649261	-0.506221	-0.233505
C93	C	0.649335	-0.505971	-0.116729
H94	H	0.706733	-0.806614	-0.372186
O95	O	0.591899	-1.221941	-0.640998
C96	C	0.603416	-1.258491	-0.741734
H97	H	0.622978	-1.195189	-0.785193
H98	H	0.624977	-1.331865	-0.734283
H99	H	0.571606	-1.277975	-0.787184
H100	H	0.758959	-1.105225	-0.250510
H101	H	0.591860	-0.371639	-0.807947
H102	H	0.539769	-0.249687	-0.907472
H103	H	0.706779	-0.640365	-1.206068
O104	O	0.706754	-1.221984	-0.372332
C105	C	0.663716	-1.258749	-0.345237
H106	H	0.637818	-1.195549	-0.363096
H107	H	0.655740	-1.332121	-0.392637
H108	H	0.662788	-1.278306	-0.258069
H109	H	0.591904	-0.371529	-1.206075
H110	H	0.539632	-0.906088	-0.762521
O111	O	0.535214	-1.113722	-0.773272
C112	C	0.544996	-1.086779	-0.877998
H113	H	0.580876	-1.056541	-0.883377
H114	H	0.541137	-1.158898	-0.929916
H115	H	0.520886	-1.023113	-0.905383
O116	O	0.591753	-0.789331	-0.640501
C117	C	0.580215	-0.752780	-0.539778
H118	H	0.587914	-0.816053	-0.479299
H119	H	0.600467	-0.679361	-0.521125
H120	H	0.542935	-0.733370	-0.537462
O121	O	0.763374	-0.772789	-1.115315
C122	C	0.757218	-0.758366	-1.223922
H123	H	0.742519	-0.677274	-1.238919
H124	H	0.790871	-0.765499	-1.265648
H125	H	0.733285	-0.820662	-1.255022
O126	O	0.266126	-0.306421	-0.307137
C127	C	0.293233	-0.366154	-0.239146
H128	H	0.300270	-0.445816	-0.276058
H129	H	0.326224	-0.323338	-0.225128
H130	H	0.275127	-0.377607	-0.161275
O131	O	0.763399	-0.897657	-0.239748
C132	C	0.753597	-0.924557	-0.135022
H133	H	0.736348	-1.004255	-0.132831
H134	H	0.786029	-0.928294	-0.087983
H135	H	0.730490	-0.862876	-0.099567
O136	O	0.481899	-0.638803	-0.638721
C137	C	0.451143	-0.698191	-0.697911
H138	H	0.417703	-0.655161	-0.701630
H139	H	0.464721	-0.709492	-0.780667
H140	H	0.446137	-0.777940	-0.659302
H141	H	0.393168	-0.628208	-0.628131
O142	O	0.389477	-0.373453	-0.374153
C143	C	0.420231	-0.314103	-0.314921
H144	H	0.453690	-0.310519	-0.357946
H145	H	0.406680	-0.231311	-0.303863
H146	H	0.425193	-0.352485	-0.235060
H147	H	0.262469	-0.695497	-0.695235
H148	H	0.177281	-0.316857	-0.317739
O149	O	0.125393	-0.705963	-0.705976
C150	C	0.113944	-0.683135	-0.810724
H151	H	0.101056	-0.599207	-0.816169
H152	H	0.144809	-0.692248	-0.862617
H153	H	0.086711	-0.739489	-0.838088
O154	O	0.481956	-0.373684	-0.374113
C155	C	0.509066	-0.433420	-0.306132
H156	H	0.516094	-0.513087	-0.343041
H157	H	0.542060	-0.390614	-0.292134
H158	H	0.490966	-0.444862	-0.228250
O159	O	0.763404	-0.772995	-0.899006
C160	C	0.788749	-0.832313	-0.970960
H161	H	0.790323	-0.789254	-1.049185
H162	H	0.824139	-0.843562	-0.939279
H163	H	0.772280	-0.912088	-0.982601
O164	O	0.173748	-0.706177	-0.705833
C165	C	0.204537	-0.765515	-0.765032
H166	H	0.237968	-0.769077	-0.721976
H167	H	0.190988	-0.848316	-0.776095
H168	H	0.209550	-0.727138	-0.844892
H169	H	-0.094118	-0.628292	-0.628255
H170	H	-0.179288	-0.384214	-0.384881
O171	O	0.706730	-0.640686	-0.790698
C172	C	0.695155	-0.741374	-0.754010
H173	H	0.702829	-0.801876	-0.817228
H174	H	0.715403	-0.760087	-0.680607
H175	H	0.657875	-0.743581	-0.734528
O176	O	0.032944	-0.706229	-0.705740
C177	C	0.044400	-0.810919	-0.682627
H178	H	0.057275	-0.816140	-0.598685
H179	H	0.013542	-0.862827	-0.691600
H180	H	0.071645	-0.838445	-0.738906
H181	H	0.036526	-0.316896	-0.317779
O182	O	-0.182942	-0.638713	-0.638935
C183	C	-0.210068	-0.578962	-0.706869
H184	H	-0.195919	-0.496224	-0.713488
H185	H	-0.210585	-0.617041	-0.787663
H186	H	-0.245633	-0.575307	-0.674391
O187	O	-0.090564	-0.373583	-0.374229
C188	C	-0.121351	-0.314211	-0.315060
H189	H	-0.154796	-0.357257	-0.311365
H190	H	-0.107822	-0.302904	-0.232294
H191	H	-0.126330	-0.234464	-0.353671
O192	O	0.125247	-0.306285	-0.307117
C193	C	0.094461	-0.246908	-0.247951
H194	H	0.061014	-0.289947	-0.244262
H195	H	0.107988	-0.235605	-0.165183
H196	H	0.089486	-0.167159	-0.286561
H197	H	0.539793	-0.249618	-1.106543
