data_functionalizedCrystal
_audit_creation_method	'MofGen! by Chris Wilmer'
_symmetry_space_group_name_H-M	'P1'
_symmetry_Int_Tables_number	1
_symmetry_cell_setting	triclinic
loop_
_symmetry_equiv_pos_as_xyz
  x,y,z
_cell_length_a	21.295417
_cell_length_b	19.077372
_cell_length_c	19.076919
_cell_angle_alpha	85.525334
_cell_angle_beta	92.266620
_cell_angle_gamma	87.668426
loop_
_atom_site_label
_atom_site_type_symbol
_atom_site_fract_x
_atom_site_fract_y
_atom_site_fract_z
Zn1	Zn	-0.225230	-1.061646	-0.355464
Zn2	Zn	-0.326096	-1.066289	-0.237576
Zn3	Zn	-0.225249	-0.948501	-0.242309
Zn4	Zn	-0.334872	-0.943717	-0.360133
O5	O	-0.277862	-1.005038	-0.298870
O6	O	-0.234929	-1.160910	-0.335891
O7	O	-0.309053	-1.054610	-0.139557
O8	O	-0.137156	-0.963569	-0.257346
O9	O	-0.309035	-1.164322	-0.249279
O10	O	-0.137142	-1.046696	-0.340481
O11	O	-0.234962	-0.968071	-0.143034
O12	O	-0.243472	-0.849218	-0.261873
O13	O	-0.323993	-0.955415	-0.458160
O14	O	-0.324012	-0.845704	-0.348438
O15	O	-0.243439	-1.042057	-0.454730
O16	O	-0.415351	-1.049971	-0.253806
O17	O	-0.421799	-0.959918	-0.343849
C18	C	-0.284697	-0.821883	-0.306177
C19	C	-0.287636	-0.743527	-0.309319
C20	C	-0.308674	-0.302272	-0.331893
C21	C	-0.305916	-0.375896	-0.328928
C22	C	-0.262543	-0.414512	-0.282450
C23	C	-0.221928	-0.379500	-0.238930
C24	C	-0.224690	-0.305878	-0.241893
C25	C	-0.249784	-0.634893	-0.268761
C26	C	-0.247024	-0.708521	-0.265804
C27	C	-0.331013	-0.704911	-0.355801
C28	C	-0.333768	-0.631287	-0.358762
C29	C	-0.293156	-0.596282	-0.315240
N30	N	-0.259721	-0.489767	-0.279419
N31	N	-0.295981	-0.521028	-0.318268
C32	C	-0.441415	-1.004948	-0.298835
C33	C	-0.511383	-1.004972	-0.298841
C34	C	-0.540871	-1.051901	-0.252000
C35	C	-0.606613	-1.051933	-0.252015
C36	C	-0.642864	-1.005025	-0.298863
C37	C	-0.613368	-0.958092	-0.345712
C38	C	-0.547628	-0.958066	-0.345701
N39	N	-0.748636	-0.943140	-0.306697
N40	N	-0.811087	-0.943168	-0.306703
C41	C	-0.840938	-1.005102	-0.298900
N42	N	-0.805978	-1.067010	-0.291077
N43	N	-0.743521	-1.066983	-0.291067
C44	C	-0.714149	-1.005048	-0.298881
C45	C	-0.941711	-1.052070	-0.252073
C46	C	-1.007454	-1.052103	-0.252092
C47	C	-1.014208	-0.958256	-0.345787
C48	C	-0.948466	-0.958229	-0.345771
C49	C	-0.912221	-1.005135	-0.298910
C50	C	-0.113669	-1.005148	-0.298921
C51	C	-0.043700	-1.005195	-0.298942
C52	C	-0.284693	-0.997685	-0.482738
C53	C	-0.287604	-0.994551	-0.561092
C54	C	-0.270997	-0.188910	-0.291528
C55	C	-0.268062	-0.267266	-0.288378
C56	C	-0.247033	-1.038186	-0.596118
C57	C	-0.249767	-1.035233	-0.669739
C58	C	-0.293074	-0.988648	-0.708334
C59	C	-0.333646	-0.945008	-0.673303
C60	C	-0.330909	-0.947958	-0.599683
C61	C	-0.305753	-0.974985	-0.928707
C62	C	-0.308488	-0.972039	-1.002332
C63	C	-0.224607	-1.062264	-0.998763
C64	C	-0.221877	-1.065213	-0.925142
C65	C	-0.262447	-1.021570	-0.890117
N66	N	-0.295870	-0.985630	-0.783587
N67	N	-0.259647	-1.024585	-0.814865
C68	C	-0.271010	-1.012404	-0.115716
C69	C	-0.267917	-1.015674	-0.037358
H70	H	-0.211696	-0.739960	-0.227961
C71	C	-0.205613	-0.597022	-0.221484
C72	C	-0.167025	-0.646600	-0.180165
C73	C	-0.126318	-0.611736	-0.136610
H74	H	-0.229508	-0.569511	-0.191809
H75	H	-0.180269	-0.567258	-0.249647
H76	H	-0.192366	-0.676351	-0.152004
H77	H	-0.143116	-0.674113	-0.209821
H78	H	-0.100975	-0.581972	-0.164773
H79	H	-0.150219	-0.584226	-0.106939
H80	H	-0.100128	-0.645369	-0.108574
C81	C	-1.053525	-0.907408	-0.396768
C82	C	-1.039521	-0.919918	-0.465914
C83	C	-1.075736	-0.873098	-0.512900
H84	H	-1.044211	-0.860432	-0.388394
H85	H	-1.096909	-0.914149	-0.390116
H86	H	-0.996146	-0.913172	-0.472562
H87	H	-1.048838	-0.966885	-0.474309
H88	H	-1.119120	-0.879839	-0.506249
H89	H	-1.066419	-0.826125	-0.504520
H90	H	-1.066243	-0.881584	-0.559821
C91	C	-0.355828	-0.260475	-0.382382
C92	C	-0.390814	-0.306895	-0.419843
C93	C	-0.434265	-0.268420	-0.466354
H94	H	-0.334082	-0.230544	-0.414365
H95	H	-0.383327	-0.232827	-0.356532
H96	H	-0.363320	-0.334532	-0.445691
H97	H	-0.412574	-0.336828	-0.387879
H98	H	-0.461764	-0.240771	-0.440504
H99	H	-0.412514	-0.238490	-0.498332
H100	H	-0.458012	-0.299910	-0.491772
H101	H	-0.338988	-0.404395	-0.364361
H102	H	-0.211770	-1.076123	-0.564699
H103	H	-0.186613	-1.103149	-0.893723
C104	C	-0.180588	-1.109557	-1.036921
C105	C	-0.192240	-1.096992	-1.109655
C106	C	-0.151692	-1.140539	-1.144828
H107	H	-0.187545	-1.157425	-1.023051
H108	H	-0.138218	-1.099740	-1.025319
H109	H	-0.234600	-1.106814	-1.121252
H110	H	-0.185278	-1.049133	-1.123546
H111	H	-0.109322	-1.130722	-1.133226
H112	H	-0.158652	-1.188404	-1.130952
H113	H	-0.159588	-1.132015	-1.194182
C114	C	-0.916412	-0.907383	-0.396704
C115	C	-0.878821	-0.945436	-0.440335
C116	C	-0.849291	-0.898620	-0.487274
H117	H	-0.890899	-0.877741	-0.371015
H118	H	-0.947398	-0.879460	-0.424648
H119	H	-0.847839	-0.973347	-0.412394
H120	H	-0.904318	-0.975075	-0.466040
H121	H	-0.880277	-0.870698	-0.515218
H122	H	-0.823782	-0.868981	-0.461579
H123	H	-0.823787	-0.924433	-0.516887
H124	H	-0.642888	-0.919900	-0.383858
H125	H	-0.216731	-1.070767	-0.698254
H126	H	-0.338797	-0.939458	-0.900198
C127	C	-0.174935	-0.421518	-0.188423
C128	C	-0.207248	-0.465578	-0.141479
C129	C	-0.163976	-0.504301	-0.094949
H130	H	-0.151122	-0.390209	-0.162858
H131	H	-0.147480	-0.449220	-0.214271
H132	H	-0.234692	-0.437878	-0.115633
H133	H	-0.231058	-0.496900	-0.167024
H134	H	-0.136521	-0.532003	-0.120797
H135	H	-0.140166	-0.472987	-0.069389
H136	H	-0.185894	-0.534204	-0.063097
H137	H	-0.369089	-0.599851	-0.396608
C138	C	-0.180520	-0.267996	-0.194616
C139	C	-0.141932	-0.317570	-0.153292
C140	C	-0.101231	-0.282700	-0.109736
H141	H	-0.204420	-0.240485	-0.164945
H142	H	-0.155177	-0.238232	-0.222779
H143	H	-0.167273	-0.347321	-0.125132
H144	H	-0.118019	-0.345082	-0.182945
H145	H	-0.075887	-0.252936	-0.137898
H146	H	-0.125136	-0.255190	-0.080069
H147	H	-0.075041	-0.316330	-0.081697
H148	H	-0.523618	-0.919850	-0.383845
H149	H	-0.364077	-0.733420	-0.391234
H150	H	-0.343755	-0.934102	-1.033754
H151	H	-0.912199	-1.090266	-0.213918
H152	H	-0.368906	-0.907075	-0.704732
H153	H	-0.363940	-0.912418	-0.571166
H154	H	-0.511363	-1.090096	-0.213846
H155	H	-0.630627	-1.090151	-0.213872
C156	C	-1.039354	-1.103204	-0.201271
C157	C	-1.021212	-1.172297	-0.213909
C158	C	-1.050565	-1.219404	-0.167100
H159	H	-1.083707	-1.096638	-0.207917
H160	H	-1.027208	-1.094863	-0.154295
H161	H	-1.033362	-1.180635	-0.260875
H162	H	-0.976864	-1.178886	-0.207258
H163	H	-1.038419	-1.211063	-0.120124
H164	H	-1.094916	-1.212832	-0.173750
H165	H	-1.038255	-1.266289	-0.175664
