data_functionalizedCrystal
_audit_creation_method	'MofGen! by Chris Wilmer'
_symmetry_space_group_name_H-M	'P1'
_symmetry_Int_Tables_number	1
_symmetry_cell_setting	triclinic
loop_
_symmetry_equiv_pos_as_xyz
  x,y,z
_cell_length_a	12.759401
_cell_length_b	12.759399
_cell_length_c	12.759393
_cell_angle_alpha	90.027929
_cell_angle_beta	90.019465
_cell_angle_gamma	90.012458
loop_
_atom_site_label
_atom_site_type_symbol
_atom_site_fract_x
_atom_site_fract_y
_atom_site_fract_z
Zn1	Zn	-1.606258	0.418254	-0.594037
Zn2	Zn	-1.606154	0.593973	-0.418368
Zn3	Zn	-1.430560	0.418303	-0.418373
Zn4	Zn	-1.430550	0.593886	-0.594006
O5	O	-1.518381	0.506104	-0.506196
O6	O	-1.753265	0.441579	-0.570744
O7	O	-1.582822	0.570727	-0.271348
O8	O	-1.453915	0.271276	-0.441690
O9	O	-1.753189	0.570679	-0.441681
O10	O	-1.582999	0.271240	-0.570749
O11	O	-1.453814	0.441663	-0.271351
O12	O	-1.283538	0.441579	-0.441660
O13	O	-1.453898	0.570531	-0.741032
O14	O	-1.283531	0.570579	-0.570698
O15	O	-1.582990	0.441495	-0.741054
O16	O	-1.582812	0.740983	-0.441652
O17	O	-1.453797	0.740919	-0.570693
C18	C	-1.245413	0.506075	-0.506177
C19	C	-1.128637	0.506088	-0.506194
C20	C	-1.073815	0.438985	-0.573500
C21	C	-0.964091	0.438992	-0.573505
C22	C	-0.964020	0.573213	-0.438895
C23	C	-1.073742	0.573201	-0.438886
C24	C	-0.814170	0.315148	-0.611263
C25	C	-0.759345	0.248054	-0.678585
C26	C	-0.795001	0.232041	-0.781123
C27	C	-0.885481	0.283137	-0.816360
C28	C	-0.940301	0.350238	-0.749043
C29	C	-0.904646	0.366232	-0.646491
C30	C	-1.223665	0.697046	-0.401138
C31	C	-1.278487	0.764154	-0.333826
C32	C	-1.242832	0.780178	-0.231286
C33	C	-1.152349	0.729101	-0.196054
C34	C	-1.097527	0.661993	-0.263366
C35	C	-1.133189	0.645967	-0.365904
C36	C	-1.518320	0.779071	-0.506192
C37	C	-1.518391	0.895848	-0.506225
C38	C	-1.518454	0.505998	-0.780229
C39	C	-1.518485	0.505953	-0.897006
C40	C	-0.792414	0.506124	-0.506212
C41	C	-0.909191	0.506107	-0.506209
C42	C	-1.585647	0.950708	-0.439114
C43	C	-1.585716	1.060432	-0.439157
C44	C	-1.451264	1.060426	-0.573425
C45	C	-1.451201	0.950704	-0.573387
C46	C	-1.709727	1.210316	-0.401779
C47	C	-1.776974	1.265180	-0.334652
C48	C	-1.793138	1.229642	-0.232139
C49	C	-1.742040	1.139242	-0.196733
C50	C	-1.674786	1.084384	-0.263855
C51	C	-1.658642	1.119920	-0.366382
C52	C	-1.327188	0.800819	-0.610753
C53	C	-1.259928	0.745958	-0.677871
C54	C	-1.243753	0.781494	-0.780386
C55	C	-1.294832	0.871897	-0.815788
C56	C	-1.362093	0.926758	-0.748670
C57	C	-1.378269	0.891215	-0.646157
C58	C	-1.518474	1.232071	-0.506241
C59	C	-1.518523	1.115294	-0.506307
C60	C	-1.451335	0.438737	-0.951870
C61	C	-1.451359	0.438704	-1.061594
C62	C	-1.585694	0.573107	-1.061581
C63	C	-1.585663	0.573143	-0.951859
C64	C	-1.327509	0.401100	-1.211542
C65	C	-1.260368	0.333868	-1.266409
C66	C	-1.244263	0.231364	-1.230813
C67	C	-1.295314	0.196071	-1.140351
C68	C	-1.362463	0.263297	-1.085490
C69	C	-1.378548	0.365816	-1.121085
C70	C	-1.709515	0.610737	-0.801909
C71	C	-1.776670	0.677959	-0.747045
C72	C	-1.792786	0.780465	-0.782640
C73	C	-1.741753	0.815754	-0.873105
C74	C	-1.674598	0.748532	-0.927968
C75	C	-1.658481	0.646027	-0.892366
C76	C	-1.518368	0.506134	-0.233229
C77	C	-1.518540	0.505883	-0.116452
H78	H	-1.023850	0.620403	-0.234670
N79	N	-1.832098	1.362668	-0.372843
H80	H	-1.877148	1.392031	-0.314762
H81	H	-1.778318	1.416609	-0.394357
N82	N	-1.344858	0.511671	-1.249920
H83	H	-1.302333	0.523820	-1.315551
H84	H	-1.421662	0.522260	-1.265881
H85	H	-1.188980	0.736817	-0.835031
N86	N	-1.204822	0.648457	-0.639688
H87	H	-1.225278	0.634263	-0.564562
H88	H	-1.225810	0.586926	-0.684884
H89	H	-1.281663	0.900831	-0.899264
H90	H	-1.696583	1.239252	-0.485257
H91	H	-1.818235	0.649213	-0.673392
N92	N	-0.904799	0.645600	-0.366316
H93	H	-0.923894	0.720684	-0.382505
H94	H	-0.923881	0.629104	-0.291302
N95	N	-1.205299	0.371942	-1.363966
H96	H	-1.126958	0.367426	-1.353553
H97	H	-1.226449	0.326791	-1.425476
N98	N	-1.037889	0.405343	-0.787024
H99	H	-1.027480	0.483681	-0.782390
H100	H	-1.052112	0.384943	-0.862186
N101	N	-1.133021	0.366601	-0.646093
H102	H	-1.178554	0.409356	-0.694707
H103	H	-1.081568	0.324112	-0.688659
N104	N	-1.344633	0.762488	-0.500179
H105	H	-1.394997	0.810955	-0.463036
H106	H	-1.374907	0.689371	-0.502148
N107	N	-1.619553	0.786588	-1.025544
H108	H	-1.639951	0.861727	-1.039772
H109	H	-1.541225	0.782024	-1.015074
N110	N	-1.113879	0.746383	-0.085459
H111	H	-1.162339	0.796643	-0.048163
H112	H	-1.112720	0.677283	-0.046902
N113	N	-1.759476	1.100923	-0.086158
H114	H	-1.789791	1.027817	-0.088033
H115	H	-1.690451	1.099947	-0.047406
N116	N	-1.417198	1.024258	-0.786857
H117	H	-1.462259	1.053617	-0.728783
H118	H	-1.363408	1.078197	-0.808352
H119	H	-0.685676	0.206452	-0.649886
H120	H	-0.914499	0.270102	-0.899861
N121	N	-1.277838	0.085529	-1.101947
H122	H	-1.300412	0.034203	-1.157859
H123	H	-1.201024	0.075092	-1.085938
H124	H	-1.633185	1.010781	-0.235028
H125	H	-1.640358	0.906047	-0.384428
N126	N	-1.376080	0.819245	-0.371828
H127	H	-1.437599	0.798155	-0.326726
H128	H	-1.365575	0.897568	-0.367220
N129	N	-0.735861	0.159711	-0.853761
H130	H	-0.783369	0.100715	-0.876818
H131	H	-0.711471	0.200273	-0.917181
H132	H	-1.847893	1.274320	-0.177483
H133	H	-1.396634	0.384026	-0.907211
N134	N	-0.775714	0.332395	-0.500660
H135	H	-0.702633	0.362768	-0.502488
H136	H	-0.824241	0.382621	-0.463412
N137	N	-1.417529	0.225245	-0.987930
H138	H	-1.397144	0.150103	-0.973705
H139	H	-1.396437	0.270454	-0.926443
H140	H	-1.396559	1.105103	-0.628104
H141	H	-1.754880	0.899222	-0.902090
N142	N	-1.692123	0.500174	-0.763512
H143	H	-1.734650	0.488017	-0.697884
H144	H	-1.714722	0.448959	-0.819510
H145	H	-1.847480	0.835193	-0.737965
H146	H	-1.189594	0.176623	-1.275494
H147	H	-1.287458	0.834853	-0.176493
H148	H	-1.640388	0.627810	-1.106256
H149	H	-1.252710	0.683996	-0.484632
