data_functionalizedCrystal
_audit_creation_method	'MofGen! by Chris Wilmer'
_symmetry_space_group_name_H-M	'P1'
_symmetry_Int_Tables_number	1
_symmetry_cell_setting	triclinic
loop_
_symmetry_equiv_pos_as_xyz
  x,y,z
_cell_length_a	15.298068
_cell_length_b	18.101397
_cell_length_c	15.296720
_cell_angle_alpha	99.644151
_cell_angle_beta	88.354818
_cell_angle_gamma	99.679322
loop_
_atom_site_label
_atom_site_type_symbol
_atom_site_fract_x
_atom_site_fract_y
_atom_site_fract_z
Zn1	Zn	1.253391	-0.220304	-0.727359
Zn2	Zn	1.278659	-0.319764	-0.580888
Zn3	Zn	1.132271	-0.213108	-0.555526
Zn4	Zn	1.106891	-0.361280	-0.701910
O5	O	1.192803	-0.278614	-0.641421
O6	O	1.379318	-0.219135	-0.729194
O7	O	1.280437	-0.285229	-0.454962
O8	O	1.148385	-0.110429	-0.578356
O9	O	1.397882	-0.292207	-0.621582
O10	O	1.237371	-0.115715	-0.704601
O11	O	1.172886	-0.206870	-0.436329
O12	O	1.006329	-0.247127	-0.553680
O13	O	1.105128	-0.362965	-0.827847
O14	O	0.987683	-0.355988	-0.661228
O15	O	1.212761	-0.259391	-0.846545
O16	O	1.255827	-0.428905	-0.596905
O17	O	1.129629	-0.459407	-0.685820
C18	C	0.965223	-0.305282	-0.601941
C19	C	0.867860	-0.316712	-0.585072
C20	C	0.554689	-0.197108	-0.761988
C21	C	0.646166	-0.186372	-0.777842
C22	C	0.701594	-0.218956	-0.729651
C23	C	0.665536	-0.262278	-0.665603
C24	C	0.574050	-0.273020	-0.649752
C25	C	0.720955	-0.294868	-0.617415
C26	C	0.684897	-0.338191	-0.553367
C27	C	0.593419	-0.348930	-0.537518
C28	C	0.537991	-0.316346	-0.585709
C29	C	0.812441	-0.284126	-0.633266
C30	C	0.831802	-0.360038	-0.521029
C31	C	0.740325	-0.370774	-0.505175
C32	C	1.192736	-0.471028	-0.641377
C33	C	1.192783	-0.553339	-0.641401
C34	C	1.192831	-0.704046	-0.641440
C35	C	1.272286	-0.716181	-0.585574
C36	C	1.272161	-0.801778	-0.585296
C37	C	1.192880	-0.852427	-0.641478
C38	C	1.104803	-0.828104	-0.600620
C39	C	1.105252	-0.742332	-0.600175
C40	C	1.200626	-0.748177	-0.738202
C41	C	1.202776	-0.833505	-0.738084
C42	C	1.192901	-0.936287	-0.641501
C43	C	1.192803	-0.620187	-0.641414
C44	C	1.421271	-0.251842	-0.681056
C45	C	1.518631	-0.240434	-0.697946
C46	C	1.153295	-0.316612	-0.869863
C47	C	1.136459	-0.332804	-0.967212
C48	C	1.192890	-0.085449	-0.641489
C49	C	1.192928	-0.003134	-0.641518
C50	C	1.313165	-0.162751	-1.280561
C51	C	1.328988	-0.147538	-1.189098
C52	C	1.280857	-0.193853	-1.133622
C53	C	1.216900	-0.255384	-1.169618
C54	C	1.201080	-0.270602	-1.261090
C55	C	1.168772	-0.301704	-1.114152
C56	C	1.104815	-0.363235	-1.150147
C57	C	1.088997	-0.378450	-1.241611
C58	C	1.137128	-0.332135	-1.297087
C59	C	1.184593	-0.286486	-1.022679
C60	C	1.072508	-0.394338	-1.003208
C61	C	1.056684	-0.409551	-1.094671
C62	C	1.232208	-0.240705	-0.413876
C63	C	1.249213	-0.224284	-0.316557
H64	H	0.776078	-0.210209	-0.742561
F65	F	1.026239	-0.873048	-0.651269
F66	F	0.495694	-0.162444	-0.813278
H67	H	1.352351	-0.125051	-1.325738
H68	H	0.710954	-0.406049	-0.453027
F69	F	1.021284	-0.443636	-0.944172
F70	F	1.093156	-0.844772	-0.508461
H71	H	0.876931	-0.386575	-0.481792
H72	H	1.337967	-0.817299	-0.612689
H73	H	0.841790	-0.248851	-0.685413
H74	H	1.267516	-0.848920	-0.768607
F75	F	1.120294	-0.348326	-1.394435
H76	H	1.044884	-0.735572	-0.638240
H77	H	0.675517	-0.151101	-0.829993
F78	F	0.440630	-0.327768	-0.568837
H79	H	1.381064	-0.097440	-1.159797
H80	H	1.338323	-0.690042	-0.612821
F81	F	0.555047	-0.395037	-0.469351
H82	H	1.142565	-0.742080	-0.780022
F83	F	1.131022	-0.880018	-0.797088
F84	F	1.267340	-0.675650	-0.492837
F85	F	1.282038	-0.714668	-0.782793
H86	H	1.236667	-0.236386	-0.993380
H87	H	1.096807	-0.713497	-0.528974
F88	F	1.267066	-0.816105	-0.492021
H89	H	1.293745	-0.181463	-1.059149
F90	F	1.020941	-0.443947	-1.279920
H91	H	1.004609	-0.459650	-1.123992
