data_functionalizedCrystal
_audit_creation_method	'MofGen! by Chris Wilmer'
_symmetry_space_group_name_H-M	'P1'
_symmetry_Int_Tables_number	1
_symmetry_cell_setting	triclinic
loop_
_symmetry_equiv_pos_as_xyz
  x,y,z
_cell_length_a	13.897441
_cell_length_b	12.827893
_cell_length_c	12.827892
_cell_angle_alpha	89.984638
_cell_angle_beta	89.971891
_cell_angle_gamma	90.019906
loop_
_atom_site_label
_atom_site_type_symbol
_atom_site_fract_x
_atom_site_fract_y
_atom_site_fract_z
Zn1	Zn	-0.545377	-1.597676	-0.416001
Zn2	Zn	-0.212043	-1.264343	-0.082667
Zn3	Zn	0.121290	-0.931009	0.250666
Zn4	Zn	-0.384085	-1.597568	-0.590773
Zn5	Zn	-0.050752	-1.264235	-0.257439
Zn6	Zn	0.282582	-0.930902	0.075894
Zn7	Zn	-0.384097	-1.422916	-0.416046
Zn8	Zn	-0.050764	-1.089582	-0.082713
Zn9	Zn	0.282569	-0.756249	0.250620
Zn10	Zn	-0.545340	-1.422903	-0.590700
Zn11	Zn	-0.212007	-1.089569	-0.257367
Zn12	Zn	0.121327	-0.756236	0.075967
O13	O	-0.464725	-1.510266	-0.503380
O14	O	-0.131391	-1.176932	-0.170047
O15	O	0.201942	-0.843599	0.163287
O16	O	-0.523991	-1.743898	-0.439196
O17	O	-0.190658	-1.410565	-0.105862
O18	O	0.142676	-1.077231	0.227471
O19	O	-0.249105	-1.574360	-0.567645
O20	O	0.084228	-1.241027	-0.234311
O21	O	0.417562	-0.907694	0.099022
O22	O	-0.405512	-1.446148	-0.269804
O23	O	-0.072178	-1.112815	0.063529
O24	O	0.261155	-0.779482	0.396862
O25	O	-0.405491	-1.743819	-0.567600
O26	O	-0.072157	-1.410485	-0.234267
O27	O	0.261176	-1.077152	0.099067
O28	O	-0.524003	-1.574544	-0.269771
O29	O	-0.190670	-1.241211	0.063563
O30	O	0.142664	-0.907878	0.396896
O31	O	-0.249114	-1.446044	-0.439274
O32	O	0.084219	-1.112711	-0.105940
O33	O	0.417553	-0.779377	0.227393
O34	O	-0.405476	-1.276678	-0.439203
O35	O	-0.072143	-0.943345	-0.105870
O36	O	0.261190	-0.610011	0.227463
O37	O	-0.680326	-1.446127	-0.567476
O38	O	-0.346993	-1.112793	-0.234143
O39	O	-0.013660	-0.779460	0.099190
O40	O	-0.523941	-1.276668	-0.567521
O41	O	-0.190607	-0.943335	-0.234187
O42	O	0.142726	-0.610002	0.099146
O43	O	-0.680353	-1.574532	-0.439125
O44	O	-0.347020	-1.241199	-0.105792
O45	O	-0.013687	-0.907865	0.227541
O46	O	-0.405455	-1.574348	-0.736999
O47	O	-0.072122	-1.241015	-0.403666
O48	O	0.261211	-0.907681	-0.070333
O49	O	-0.523929	-1.446022	-0.736946
O50	O	-0.190595	-1.112689	-0.403613
O51	O	0.142738	-0.779355	-0.070279
C52	C	-0.464706	-1.238756	-0.503360
C53	C	-0.131373	-0.905422	-0.170026
C54	C	0.201960	-0.572089	0.163307
C55	C	-0.464721	-1.122603	-0.503376
C56	C	-0.131388	-0.789269	-0.170043
C57	C	0.201945	-0.455936	0.163290
C58	C	-0.716318	-1.510340	-0.503288
C59	C	-0.382984	-1.177007	-0.169954
C60	C	-0.049651	-0.843673	0.163379
C61	C	-0.823532	-1.510371	-0.503248
C62	C	-0.490198	-1.177038	-0.169915
C63	C	-0.156865	-0.843705	0.163418
C64	C	-0.464708	-1.510200	-0.774890
C65	C	-0.131374	-1.176867	-0.441557
C66	C	0.201959	-0.843534	-0.108223
C67	C	-0.464733	-1.510268	-0.891043
C68	C	-0.131399	-1.176935	-0.557710
C69	C	0.201934	-0.843601	-0.224376
C70	C	-1.019827	-1.510400	-0.503178
C71	C	-0.686494	-1.177066	-0.169844
C72	C	-0.353160	-0.843733	0.163489
C73	C	-0.910594	-1.510381	-0.503220
C74	C	-0.577261	-1.177047	-0.169886
C75	C	-0.243928	-0.843714	0.163447
C76	C	-0.214110	-1.510252	-0.503397
C77	C	0.119223	-1.176919	-0.170063
C78	C	0.452556	-0.843585	0.163270
C79	C	-0.106897	-1.510423	-0.503142
C80	C	0.226436	-1.177090	-0.169808
C81	C	0.559770	-0.843756	0.163525
C82	C	-0.464744	-1.782836	-0.503401
C83	C	-0.131410	-1.449502	-0.170068
C84	C	0.201923	-1.116169	0.163266
C85	C	-0.464752	-1.898989	-0.503410
C86	C	-0.131418	-1.565656	-0.170077
C87	C	0.201915	-1.232322	0.163257
C88	C	-0.523251	-1.070841	-0.566971
C89	C	-0.189917	-0.737508	-0.233638
C90	C	0.143416	-0.404174	0.099696
C91	C	-0.523268	-0.950791	-0.566990
C92	C	-0.189934	-0.617457	-0.233656
C93	C	0.143399	-0.284124	0.099677
C94	C	-0.406173	-1.573843	-0.942820
C95	C	-0.072840	-1.240510	-0.609486
C96	C	0.260493	-0.907176	-0.276153
C97	C	-0.406198	-1.573915	-1.062870
C98	C	-0.072864	-1.240581	-0.729536
C99	C	0.260469	-0.907248	-0.396203
C100	C	-0.464763	-1.510360	-0.230810
C101	C	-0.131430	-1.177026	0.102524
C102	C	0.201904	-0.843693	0.435857
C103	C	-0.464779	-1.510400	-0.114657
C104	C	-0.131446	-1.177067	0.218677
C105	C	0.201888	-0.843733	0.552010
H106	H	-0.573351	-1.115402	-0.621399
H107	H	-0.240018	-0.782069	-0.288066
H108	H	0.093316	-0.448736	0.045267
H109	H	-0.573374	-0.906277	-0.621438
H110	H	-0.240041	-0.572943	-0.288105
H111	H	0.093293	-0.239610	0.045228
H112	H	-0.414637	-0.943496	-0.448965
H113	H	-0.081303	-0.610163	-0.115632
H114	H	0.252030	-0.276830	0.217702
H115	H	-0.356060	-1.628341	-1.107396
H116	H	-0.022727	-1.295007	-0.774063
H117	H	0.310606	-0.961674	-0.440730
H118	H	-0.414629	-1.078041	-0.448940
H119	H	-0.081295	-0.744708	-0.115607
H120	H	0.252038	-0.411374	0.217727
H121	H	-0.514889	-1.455896	-0.935592
H122	H	-0.181556	-1.122563	-0.602259
H123	H	0.151777	-0.789229	-0.268925
H124	H	-0.356023	-1.628224	-0.898273
H125	H	-0.022690	-1.294891	-0.564940
H126	H	0.310643	-0.961558	-0.231606
H127	H	-0.514913	-1.455964	-1.070138
H128	H	-0.181580	-1.122630	-0.736804
H129	H	0.151754	-0.789297	-0.403471
