data_functionalizedCrystal
_audit_creation_method	'MofGen! by Chris Wilmer'
_symmetry_space_group_name_H-M	'P1'
_symmetry_Int_Tables_number	1
_symmetry_cell_setting	triclinic
loop_
_symmetry_equiv_pos_as_xyz
  x,y,z
_cell_length_a	12.827893
_cell_length_b	18.101395
_cell_length_c	12.827885
_cell_angle_alpha	89.967625
_cell_angle_beta	89.980538
_cell_angle_gamma	90.031075
loop_
_atom_site_label
_atom_site_type_symbol
_atom_site_fract_x
_atom_site_fract_y
_atom_site_fract_z
Zn1	Zn	1.597557	-0.294794	-0.590830
Zn2	Zn	2.097557	0.205206	-0.090830
Zn3	Zn	1.597403	-0.418654	-0.416082
Zn4	Zn	2.097403	0.081346	0.083918
Zn5	Zn	1.422798	-0.294830	-0.416103
Zn6	Zn	1.922798	0.205170	0.083897
Zn7	Zn	1.422736	-0.418598	-0.590782
Zn8	Zn	1.922736	0.081402	-0.090782
O9	O	1.510124	-0.356719	-0.503449
O10	O	2.010124	0.143281	-0.003449
O11	O	1.743773	-0.311233	-0.567660
O12	O	2.243773	0.188767	-0.067660
O13	O	1.574203	-0.402266	-0.269849
O14	O	2.074203	0.097734	0.230151
O15	O	1.446071	-0.191193	-0.439310
O16	O	1.946071	0.308807	0.060690
O17	O	1.743660	-0.402231	-0.439274
O18	O	2.243660	0.097769	0.060726
O19	O	1.574466	-0.191166	-0.567681
O20	O	2.074466	0.308834	-0.067681
O21	O	1.445921	-0.311294	-0.269865
O22	O	1.945921	0.188706	0.230135
O23	O	1.276554	-0.311241	-0.439264
O24	O	1.776554	0.188759	0.060736
O25	O	1.445965	-0.402137	-0.737025
O26	O	1.945965	0.097863	-0.237025
O27	O	1.276508	-0.402172	-0.567600
O28	O	1.776508	0.097828	-0.067600
O29	O	1.574406	-0.311179	-0.737060
O30	O	2.074406	0.188821	-0.237060
O31	O	1.574143	-0.522279	-0.439228
O32	O	2.074143	-0.022279	0.060772
O33	O	1.445816	-0.522239	-0.567579
O34	O	1.945816	-0.022239	-0.067579
C35	C	1.238614	-0.356705	-0.503430
C36	C	1.738614	0.143295	-0.003430
C37	C	1.122461	-0.356717	-0.503446
C38	C	1.622461	0.143283	-0.003446
C39	C	1.509984	-0.549130	-0.503419
C40	C	2.009984	-0.049130	-0.003419
C41	C	1.510020	-0.631444	-0.503440
C42	C	2.010020	-0.131444	-0.003440
C43	C	1.070681	-0.401783	-0.566852
C44	C	1.570681	0.098217	-0.066852
C45	C	0.950631	-0.401796	-0.566871
C46	C	1.450631	0.098204	-0.066871
C47	C	1.510249	-0.930535	-0.503497
C48	C	2.010249	-0.430535	-0.003497
C49	C	1.429696	-0.899215	-0.584452
C50	C	1.929696	-0.399215	-0.084452
C51	C	1.429314	-0.813597	-0.584199
C52	C	1.929314	-0.313597	-0.084199
C53	C	1.510135	-0.782152	-0.503470
C54	C	2.010135	-0.282152	-0.003470
C55	C	1.480315	-0.813311	-0.393335
C56	C	1.980315	-0.313311	0.106665
C57	C	1.479796	-0.898956	-0.393820
C58	C	1.979796	-0.398956	0.106180
C59	C	1.620798	-0.898877	-0.531706
C60	C	2.120798	-0.398877	-0.031706
C61	C	1.620148	-0.813226	-0.534121
C62	C	2.120148	-0.313226	-0.034121
C63	C	1.510073	-0.698293	-0.503448
C64	C	2.010073	-0.198293	-0.003448
C65	C	1.510309	-1.014394	-0.503511
C66	C	2.010309	-0.514394	-0.003511
C67	C	1.782694	-0.356734	-0.503470
C68	C	2.282694	0.143266	-0.003470
C69	C	1.898847	-0.356740	-0.503479
C70	C	2.398847	0.143260	-0.003479
C71	C	1.510196	-0.356648	-0.776020
C72	C	2.010196	0.143352	-0.276020
C73	C	1.510227	-0.356618	-0.892173
C74	C	2.010227	0.143382	-0.392173
C75	C	1.510293	-0.163557	-0.503503
C76	C	2.010293	0.336443	-0.003503
C77	C	1.510365	-0.081243	-0.503526
C78	C	2.010365	0.418757	-0.003526
C79	C	1.446769	-0.311593	-0.943965
C80	C	1.946769	0.188407	-0.443965
C81	C	1.446799	-0.311561	-1.064016
C82	C	1.946799	0.188439	-0.564016
C83	C	1.510112	-0.356737	-0.231940
C84	C	2.010112	0.143263	0.268060
C85	C	1.510284	-0.356558	-0.115787
C86	C	2.010284	0.143442	0.384213
H87	H	0.906101	-0.440381	-0.621152
H88	H	1.406101	0.059619	-0.121152
H89	H	1.077915	-0.318141	-0.449179
H90	H	1.577915	0.181859	0.050821
N91	N	0.957804	-0.305625	-0.431561
N92	N	1.457804	0.194375	0.068439
H93	H	1.003049	-0.335702	-0.383090
H94	H	1.503049	0.164298	0.116910
H95	H	1.003069	-0.271374	-0.474220
H96	H	1.503069	0.228626	0.025780
H97	H	1.392476	-0.273010	-1.108556
H98	H	1.892476	0.226990	-0.608556
N99	N	1.582221	-0.407647	-0.951162
N100	N	2.082221	0.092353	-0.451162
H101	H	1.656910	-0.396167	-0.932234
H102	H	2.156910	0.103833	-0.432234
H103	H	1.565869	-0.460557	-0.932185
H104	H	2.065869	0.039443	-0.432185
N105	N	1.454019	-0.785681	-0.692370
N106	N	1.954019	-0.285681	-0.192370
H107	H	1.465256	-0.829010	-0.740647
H108	H	1.965256	-0.329010	-0.240647
H109	H	1.394000	-0.754796	-0.718721
H110	H	1.894000	-0.254796	-0.218721
N111	N	1.555578	-0.786327	-0.311257
N112	N	2.055578	-0.286327	0.188743
H113	H	1.516378	-0.757311	-0.256638
H114	H	2.016378	-0.257311	0.243362
H115	H	1.590906	-0.830057	-0.277463
H116	H	2.090906	-0.330057	0.222537
N117	N	1.454149	-0.926427	-0.692979
N118	N	1.954149	-0.426427	-0.192979
H119	H	1.517679	-0.959324	-0.690726
H120	H	2.017679	-0.459324	-0.190726
H121	H	1.392786	-0.955318	-0.720754
H122	H	1.892786	-0.455318	-0.220754
H123	H	1.683339	-0.791817	-0.479455
H124	H	2.183339	-0.291817	0.020545
H125	H	1.115227	-0.440353	-0.621127
H126	H	1.615227	0.059647	-0.121127
N127	N	1.656834	-0.927411	-0.636264
N128	N	2.156834	-0.427411	-0.136264
H129	H	1.605709	-0.911834	-0.691946
H130	H	2.105709	-0.411834	-0.191946
H131	H	1.727915	-0.906400	-0.652714
H132	H	2.227915	-0.406400	-0.152714
H133	H	1.348253	-0.920803	-0.566002
H134	H	1.848253	-0.420803	-0.066002
H135	H	1.347372	-0.793175	-0.565514
H136	H	1.847372	-0.293175	-0.065514
H137	H	1.392414	-0.273073	-0.899430
H138	H	1.892414	0.226927	-0.399430
H139	H	1.398985	-0.919000	-0.369923
H140	H	1.898985	-0.419000	0.130077
H141	H	1.535922	-0.919677	-0.331445
H142	H	2.035922	-0.419677	0.168555
H143	H	1.642635	-0.792857	-0.615174
H144	H	2.142635	-0.292857	-0.115174
N145	N	1.374409	-0.784989	-0.361103
N146	N	1.874409	-0.284989	0.138897
H147	H	1.345595	-0.751984	-0.417673
H148	H	1.845595	-0.251984	0.082327
H149	H	1.325722	-0.828122	-0.349786
H150	H	1.825722	-0.328122	0.150214
N151	N	1.700300	-0.925699	-0.453608
N152	N	2.200300	-0.425699	0.046392
H153	H	1.664939	-0.958198	-0.400208
H154	H	2.164939	-0.458198	0.099792
H155	H	1.756048	-0.954915	-0.490868
H156	H	2.256048	-0.454915	0.009132
H157	H	1.564619	-0.395105	-1.071253
H158	H	2.064619	0.104895	-0.571253
