data_functionalizedCrystal
_audit_creation_method	'MofGen! by Chris Wilmer'
_symmetry_space_group_name_H-M	'P1'
_symmetry_Int_Tables_number	1
_symmetry_cell_setting	triclinic
loop_
_symmetry_equiv_pos_as_xyz
  x,y,z
_cell_length_a	15.995280
_cell_length_b	15.995300
_cell_length_c	14.472310
_cell_angle_alpha	90.003476
_cell_angle_beta	90.013746
_cell_angle_gamma	96.532298
loop_
_atom_site_label
_atom_site_type_symbol
_atom_site_fract_x
_atom_site_fract_y
_atom_site_fract_z
O1	O	-1.111014	0.107643	-0.076847
O2	O	-0.867228	0.121032	-0.076844
O3	O	-0.995807	-0.007555	-0.076850
O4	O	-0.982435	0.236230	-0.076841
O5	O	-0.995774	-0.007547	0.076832
O6	O	-0.867195	0.121040	0.076838
O7	O	-1.110981	0.107650	0.076835
Cu8	Cu	-0.989085	0.114345	0.090869
Cu9	Cu	-0.989124	0.114337	-0.090878
O10	O	-0.982402	0.236237	0.076841
C11	C	-0.836016	0.120493	-0.000003
C12	C	-0.743063	0.118864	-0.000002
C13	C	-0.405323	0.112878	-0.000016
C14	C	-0.428619	0.205683	-0.000355
C15	C	-0.525295	0.207443	-0.000004
C16	C	-0.572880	0.115848	-0.000010
C17	C	-0.543767	0.069455	0.087745
C18	C	-0.446976	0.068342	0.087814
C19	C	-0.447159	0.066438	-0.086952
C20	C	-0.543652	0.069873	-0.088107
C21	C	-0.667576	0.117522	-0.000003
C22	C	-0.310627	0.111201	-0.000016
C23	C	-0.995245	-0.038746	-0.000012
C24	C	-0.993610	-0.131699	-0.000022
C25	C	-0.990590	-0.301881	-0.000012
C26	C	-1.082141	-0.349370	-0.000015
C27	C	-1.080471	-0.446057	0.000337
C28	C	-0.987618	-0.469437	-0.000005
C29	C	-0.942178	-0.428287	0.087582
C30	C	-0.944495	-0.331654	0.087652
C31	C	-0.943177	-0.331386	-0.087119
C32	C	-0.943185	-0.428331	-0.088267
C33	C	-0.985934	-0.564132	0.000003
C34	C	-0.992272	-0.207186	-0.000014
C35	C	-0.142192	0.108201	-0.000010
C36	C	-0.235140	0.109862	-0.000023
C37	C	-0.982964	0.267429	0.000001
C38	C	-0.984599	0.360381	0.000005
N39	N	-0.989063	0.114351	0.218700
N40	N	-0.989152	0.114324	-0.218709
C41	C	-0.989123	0.114333	0.592791
C42	C	-0.920092	0.182907	0.553628
C43	C	-0.920251	0.183157	0.446540
C44	C	-0.989093	0.114342	0.407200
C45	C	-1.076457	0.133402	0.446037
C46	C	-1.076069	0.133890	0.553159
C47	C	-0.971569	0.026496	0.553317
C48	C	-0.969565	0.027082	0.446190
C49	C	-0.989081	0.114346	0.302312
C50	C	-0.989140	0.114332	0.697679
H51	H	-0.575647	0.002054	0.091004
H52	H	-0.931459	0.248340	0.420908
H53	H	-1.091540	0.197948	0.578137
H54	H	-0.855312	0.171804	0.420284
H55	H	-0.418841	0.095445	-0.153466
Cl56	Cl	-0.594567	-0.033351	-0.096295
Cl57	Cl	-0.425579	-0.039029	-0.087873
Cl58	Cl	-0.383786	0.260618	0.096264
Cl59	Cl	-0.875331	-0.001793	0.595074
Cl60	Cl	-0.574702	0.119204	0.188584
H61	H	-0.543678	0.244002	0.063012
Cl62	Cl	-1.049289	-0.052291	0.592416
Cl63	Cl	-0.994413	-0.470563	-0.188313
H64	H	-1.115994	-0.473910	0.063489
H65	H	-0.562229	0.103653	-0.153027
Cl66	Cl	-0.995010	-0.303372	0.189120
Cl67	Cl	-0.819498	0.165658	0.593420
H68	H	-0.931145	0.247723	0.580540
Cl69	Cl	-1.138082	-0.319107	0.096809
H70	H	-0.875674	-0.299598	-0.087953
Cl71	Cl	-0.840704	-0.281796	0.093432
H72	H	-0.875493	-0.443659	-0.093818
H73	H	-1.129040	0.085912	0.579062
Cl74	Cl	-0.405538	0.117965	0.189096
Cl75	Cl	-0.836840	-0.450025	0.092238
H76	H	-0.544328	0.243772	-0.062912
Cl77	Cl	-0.424524	-0.036709	0.094016
H78	H	-1.129051	0.084784	0.420551
Cl79	Cl	-1.100918	0.231176	0.404609
H80	H	-1.116176	-0.474534	-0.062434
Cl81	Cl	-0.870343	0.004745	0.407003
Cl82	Cl	-1.138970	-0.320848	-0.096977
Cl83	Cl	-0.990270	-0.472070	0.188601
Cl84	Cl	-0.989729	-0.299749	-0.189648
H85	H	-1.016579	-0.026336	0.419413
H86	H	-0.400630	0.241453	-0.063289
