data_functionalizedCrystal
_audit_creation_method	'MofGen! by Chris Wilmer'
_symmetry_space_group_name_H-M	'P1'
_symmetry_Int_Tables_number	1
_symmetry_cell_setting	triclinic
loop_
_symmetry_equiv_pos_as_xyz
  x,y,z
_cell_length_a	11.169417
_cell_length_b	14.908520
_cell_length_c	11.169409
_cell_angle_alpha	86.739668
_cell_angle_beta	90.019824
_cell_angle_gamma	93.321403
loop_
_atom_site_label
_atom_site_type_symbol
_atom_site_fract_x
_atom_site_fract_y
_atom_site_fract_z
Zn1	Zn	1.807298	-0.359063	0.706060
Zn2	Zn	1.795562	-0.509955	0.516941
Zn3	Zn	1.606580	-0.359118	0.505398
Zn4	Zn	1.594972	-0.509881	0.717580
O5	O	1.701103	-0.434504	0.611495
O6	O	1.973691	-0.379086	0.680982
O7	O	1.770440	-0.489999	0.347464
O8	O	1.642975	-0.232866	0.522365
O9	O	1.965068	-0.489946	0.542037
O10	O	1.790442	-0.232826	0.669790
O11	O	1.631595	-0.379180	0.338984
O12	O	1.437091	-0.379109	0.533535
O13	O	1.623191	-0.489821	0.883997
O14	O	1.428563	-0.489874	0.689424
O15	O	1.779186	-0.379015	0.875534
O16	O	1.759184	-0.636189	0.553207
O17	O	1.611811	-0.636135	0.700616
C18	C	1.389279	-0.434490	0.611478
C19	C	1.255878	-0.434506	0.611501
C20	C	1.682997	-0.668895	0.629440
C21	C	1.675361	-0.769169	0.637158
C22	C	1.814629	-0.957589	0.498287
C23	C	1.807458	-1.051805	0.505534
C24	C	1.653855	-1.051819	0.658905
C25	C	1.661026	-0.957603	0.651658
C26	C	1.741414	-0.910491	0.571344
C27	C	1.748578	-0.816274	0.564092
C28	C	1.594982	-0.816289	0.717468
C29	C	1.587811	-0.910505	0.724716
C30	C	2.014144	-0.434518	0.611512
C31	C	2.147544	-0.434524	0.611519
C32	C	1.701203	-0.434404	0.924530
C33	C	1.701245	-0.434361	1.057926
C34	C	1.719313	-0.199197	0.593505
C35	C	1.727073	-0.098923	0.585839
C36	C	1.701078	-0.434539	0.299673
C37	C	1.701287	-0.434327	0.166257
H38	H	1.814031	-0.777916	0.498694
C39	C	1.565452	-1.103658	0.747255
C40	C	1.466329	-1.168538	0.700166
C41	C	1.377932	-1.220380	0.788521
C42	C	1.388659	-1.207342	0.923964
C43	C	1.487786	-1.142458	0.971059
C44	C	1.576183	-1.090616	0.882705
H45	H	1.458386	-1.178193	0.599897
H46	H	1.304552	-1.268411	0.753657
H47	H	1.323222	-1.245718	0.989369
H48	H	1.495730	-1.132804	1.071329
H49	H	1.649563	-1.042585	0.917569
C50	C	1.903045	-0.905758	0.409943
C51	C	1.892330	-0.918795	0.274499
C52	C	1.980747	-0.866965	0.186154
C53	C	2.079878	-0.802096	0.233253
C54	C	2.090598	-0.789056	0.368704
C55	C	2.002181	-0.840887	0.457049
H56	H	1.818943	-0.966817	0.239627
H57	H	1.972811	-0.876618	0.085884
H58	H	2.145330	-0.763728	0.167854
H59	H	2.163985	-0.741034	0.403576
H60	H	2.010116	-0.831233	0.557319
C61	C	1.887992	-1.103614	0.425166
C62	C	1.976411	-1.051789	0.336829
C63	C	2.056950	-1.103597	0.256458
C64	C	2.049069	-1.207231	0.264425
C65	C	1.960646	-1.259062	0.352766
C66	C	1.880107	-1.207254	0.433137
H67	H	1.982249	-0.975067	0.330928
H68	H	2.122407	-1.065228	0.191063
H69	H	2.108689	-1.245583	0.204931
H70	H	1.954809	-1.335784	0.358667
H71	H	1.814650	-1.245623	0.498532
C72	C	1.499390	-0.962334	0.813055
C73	C	1.400261	-1.027203	0.765951
C74	C	1.311836	-1.079031	0.854291
C75	C	1.322541	-1.065991	0.989735
C76	C	1.421674	-1.001119	1.036846
C77	C	1.510098	-0.949291	0.948507
H78	H	1.392333	-1.036858	0.665681
H79	H	1.238451	-1.127053	0.819415
H80	H	1.257083	-1.104357	1.055130
H81	H	1.429601	-0.991464	1.137117
H82	H	1.583483	-0.901269	0.983382
C83	C	1.514437	-0.764484	0.797842
C84	C	1.425159	-0.699811	0.740772
C85	C	1.344612	-0.648007	0.821140
C86	C	1.353343	-0.660876	0.958577
C87	C	1.442624	-0.725551	1.015654
C88	C	1.523172	-0.777355	0.935286
H89	H	1.418693	-0.690282	0.639026
H90	H	1.278520	-0.600130	0.778887
H91	H	1.293717	-0.622527	1.018070
H92	H	1.449091	-0.735080	1.117400
H93	H	1.589264	-0.825233	0.977539
