data_functionalizedCrystal
_audit_creation_method	'MofGen! by Chris Wilmer'
_symmetry_space_group_name_H-M	'P1'
_symmetry_Int_Tables_number	1
_symmetry_cell_setting	triclinic
loop_
_symmetry_equiv_pos_as_xyz
  x,y,z
_cell_length_a	14.044220
_cell_length_b	14.044220
_cell_length_c	7.540329
_cell_angle_alpha	89.995368
_cell_angle_beta	90.001925
_cell_angle_gamma	93.188878
loop_
_atom_site_label
_atom_site_type_symbol
_atom_site_fract_x
_atom_site_fract_y
_atom_site_fract_z
O1	O	1.277166	0.230166	-0.147301
O2	O	1.777166	0.730166	0.352699
O3	O	1.000494	0.221860	-0.147345
O4	O	1.500494	0.721860	0.352655
O5	O	1.134677	0.087677	-0.147306
O6	O	1.634677	0.587677	0.352694
O7	O	1.142983	0.364349	-0.147340
O8	O	1.642983	0.864349	0.352660
O9	O	1.134668	0.087675	0.147659
O10	O	1.634668	0.587675	0.647659
O11	O	1.000486	0.221858	0.147620
O12	O	1.500486	0.721858	0.647620
O13	O	1.277157	0.230163	0.147664
O14	O	1.777157	0.730163	0.647664
Cu15	Cu	1.138820	0.226010	0.174575
Cu16	Cu	1.638820	0.726010	0.674575
Cu17	Cu	1.138831	0.226013	-0.174256
Cu18	Cu	1.638831	0.726013	0.325744
O19	O	1.142974	0.364346	0.147625
O20	O	1.642974	0.864346	0.647625
C21	C	0.964868	0.218223	0.000131
C22	C	1.464868	0.718223	0.500131
C23	C	0.858725	0.207379	0.000115
C24	C	1.358725	0.707379	0.500115
C25	C	1.131037	0.052054	0.000176
C26	C	1.631037	0.552054	0.500176
C27	C	1.120193	-0.054088	0.000177
C28	C	1.620193	0.445912	0.500177
C29	C	0.664388	0.187553	0.000153
C30	C	1.164388	0.687553	0.500153
C31	C	0.613258	0.264467	0.000151
C32	C	1.113258	0.764467	0.500151
C33	C	0.505122	0.253435	0.000172
C34	C	1.005122	0.753435	0.500172
C35	C	0.772534	0.198583	0.000132
C36	C	1.272534	0.698583	0.500132
C37	C	1.100366	-0.248426	0.000148
C38	C	1.600366	0.251574	0.500148
C39	C	1.177281	-0.299556	0.000155
C40	C	1.677281	0.200444	0.500155
C41	C	1.166249	-0.407692	0.000139
C42	C	1.666249	0.092308	0.500139
C43	C	1.111397	-0.140280	0.000164
C44	C	1.611397	0.359720	0.500164
C45	C	1.312783	0.233800	0.000183
C46	C	1.812783	0.733800	0.500183
C47	C	1.418926	0.244645	0.000188
C48	C	1.918926	0.744645	0.500188
C49	C	1.146614	0.399969	0.000138
C50	C	1.646614	0.899969	0.500138
C51	C	1.157459	0.506112	0.000126
C52	C	1.657459	1.006112	0.500126
N53	N	1.138820	0.226008	0.419923
N54	N	1.638820	0.726008	0.919923
N55	N	1.138838	0.226009	-0.419604
N56	N	1.638838	0.726009	0.080396
H57	H	0.626951	0.113425	0.000171
H58	H	1.126951	0.613425	0.500171
N59	N	1.270276	-0.252582	0.000181
N60	N	1.770276	0.247418	0.500181
N61	N	1.279224	-0.163531	0.000200
N62	N	1.779224	0.336469	0.500200
H63	H	1.344899	-0.130350	0.000225
H64	H	1.844899	0.369650	0.500225
N65	N	0.660199	0.357477	0.000129
N66	N	1.160199	0.857477	0.500129
N67	N	0.646461	0.413964	0.124447
N68	N	1.146461	0.913964	0.624447
H69	H	0.679615	0.479652	0.124427
H70	H	1.179615	0.979652	0.624427
N71	N	1.007378	-0.295400	0.000121
N72	N	1.507378	0.204600	0.500121
N73	N	0.998438	-0.384451	0.000110
N74	N	1.498438	0.115549	0.500110
H75	H	0.932765	-0.417637	0.000095
H76	H	1.432765	0.082363	0.500095
