data_functionalizedCrystal
_audit_creation_method	'MofGen! by Chris Wilmer'
_symmetry_space_group_name_H-M	'P1'
_symmetry_Int_Tables_number	1
_symmetry_cell_setting	triclinic
loop_
_symmetry_equiv_pos_as_xyz
  x,y,z
_cell_length_a	18.101398
_cell_length_b	21.295417
_cell_length_c	18.101390
_cell_angle_alpha	90.037061
_cell_angle_beta	90.014699
_cell_angle_gamma	90.028659
loop_
_atom_site_label
_atom_site_type_symbol
_atom_site_fract_x
_atom_site_fract_y
_atom_site_fract_z
Zn1	Zn	1.132127	-0.250616	0.418620
Zn2	Zn	1.382127	-0.000616	0.668620
Zn3	Zn	1.632127	0.249384	0.918620
Zn4	Zn	1.882127	0.499384	1.168620
Zn5	Zn	1.132023	-0.355896	0.294770
Zn6	Zn	1.382023	-0.105896	0.544770
Zn7	Zn	1.632023	0.144104	0.794770
Zn8	Zn	1.882023	0.394104	1.044770
Zn9	Zn	1.008285	-0.250642	0.294803
Zn10	Zn	1.258285	-0.000642	0.544803
Zn11	Zn	1.508285	0.249358	0.794803
Zn12	Zn	1.758285	0.499358	1.044803
Zn13	Zn	1.008238	-0.355848	0.418580
Zn14	Zn	1.258238	-0.105848	0.668580
Zn15	Zn	1.508238	0.144152	0.918580
Zn16	Zn	1.758238	0.394152	1.168580
O17	O	1.070168	-0.303251	0.356693
O18	O	1.320168	-0.053251	0.606693
O19	O	1.570168	0.196749	0.856693
O20	O	1.820168	0.446749	1.106693
O21	O	1.235746	-0.264591	0.402194
O22	O	1.485746	-0.014591	0.652194
O23	O	1.735746	0.235409	0.902194
O24	O	1.985746	0.485409	1.152194
O25	O	1.115585	-0.341965	0.191141
O26	O	1.365585	-0.091965	0.441141
O27	O	1.615585	0.158035	0.691141
O28	O	1.865585	0.408035	0.941141
O29	O	1.024776	-0.162549	0.311258
O30	O	1.274776	0.087451	0.561258
O31	O	1.524776	0.337451	0.811258
O32	O	1.774776	0.587451	1.061258
O33	O	1.235670	-0.341940	0.311202
O34	O	1.485670	-0.091940	0.561202
O35	O	1.735670	0.158060	0.811202
O36	O	1.985670	0.408060	1.061202
O37	O	1.115762	-0.162530	0.402226
O38	O	1.365762	0.087470	0.652226
O39	O	1.615762	0.337470	0.902226
O40	O	1.865762	0.587470	1.152226
O41	O	1.024675	-0.264635	0.191166
O42	O	1.274675	-0.014635	0.441166
O43	O	1.524675	0.235365	0.691166
O44	O	1.774675	0.485365	0.941166
O45	O	0.904646	-0.264588	0.311219
O46	O	1.154646	-0.014588	0.561219
O47	O	1.404646	0.235412	0.811219
O48	O	1.654646	0.485412	1.061219
O49	O	1.024695	-0.341858	0.522218
O50	O	1.274695	-0.091858	0.772218
O51	O	1.524695	0.158142	1.022218
O52	O	1.774695	0.408142	1.272218
O53	O	0.904611	-0.341883	0.402158
O54	O	1.154611	-0.091883	0.652158
O55	O	1.404611	0.158117	0.902158
O56	O	1.654611	0.408117	1.152158
O57	O	1.115716	-0.264545	0.522248
O58	O	1.365716	-0.014545	0.772248
O59	O	1.615716	0.235455	1.022248
O60	O	1.865716	0.485455	1.272248
O61	O	1.115539	-0.443979	0.311163
O62	O	1.365539	-0.193979	0.561163
O63	O	1.615539	0.056021	0.811163
O64	O	1.865539	0.306021	1.061163
O65	O	1.024595	-0.443944	0.402125
O66	O	1.274595	-0.193944	0.652125
O67	O	1.524595	0.056056	0.902125
O68	O	1.774595	0.306056	1.152125
C69	C	0.877757	-0.303233	0.356688
C70	C	1.127757	-0.053233	0.606688
C71	C	1.377757	0.196767	0.856688
C72	C	1.627757	0.446767	1.106688
C73	C	0.795443	-0.303241	0.356703
C74	C	1.045443	-0.053241	0.606703
C75	C	1.295443	0.196759	0.856703
C76	C	1.545443	0.446759	1.106703
C77	C	0.644735	-0.303253	0.356702
C78	C	0.894735	-0.053253	0.606702
C79	C	1.144735	0.196747	0.856702
C80	C	1.394735	0.446747	1.106702
C81	C	0.613384	-0.351959	0.413830
C82	C	0.863384	-0.101959	0.663830
C83	C	1.113384	0.148041	0.913830
C84	C	1.363384	0.398041	1.163830
C85	C	0.527766	-0.352157	0.413660
C86	C	0.777766	-0.102157	0.663660
C87	C	1.027766	0.147843	0.913660
C88	C	1.277766	0.397843	1.163660
C89	C	0.496352	-0.303264	0.356702
C90	C	0.746352	-0.053264	0.606702
C91	C	0.996352	0.196736	0.856702
C92	C	1.246352	0.446736	1.106702
C93	C	0.527405	-0.320973	0.278559
C94	C	0.777405	-0.070973	0.528559
C95	C	1.027405	0.179027	0.778559
C96	C	1.277405	0.429027	1.028559
C97	C	0.613050	-0.321319	0.278889
C98	C	0.863050	-0.071319	0.528889
C99	C	1.113050	0.178681	0.778889
C100	C	1.363050	0.428681	1.028889
C101	C	0.613213	-0.236717	0.377036
C102	C	0.863213	0.013283	0.627036
C103	C	1.113213	0.263283	0.877036
C104	C	1.363213	0.513283	1.127036
C105	C	0.527563	-0.237082	0.378757
C106	C	0.777563	0.012918	0.628757
C107	C	1.027563	0.262918	0.878757
C108	C	1.277563	0.512918	1.128757
C109	C	0.412493	-0.303270	0.356698
C110	C	0.662493	-0.053270	0.606698
C111	C	0.912493	0.196730	0.856698
C112	C	1.162493	0.446730	1.106698
C113	C	0.728594	-0.303249	0.356702
C114	C	0.978594	-0.053249	0.606702
C115	C	1.228594	0.196751	0.856702
C116	C	1.478594	0.446751	1.106702
C117	C	1.070071	-0.466802	0.356652
C118	C	1.320071	-0.216802	0.606652
C119	C	1.570071	0.033198	0.856652
C120	C	1.820071	0.283198	1.106652
C121	C	1.070097	-0.536770	0.356659
C122	C	1.320097	-0.286770	0.606659
C123	C	1.570097	-0.036770	0.856659
C124	C	1.820097	0.213230	1.106659
C125	C	1.117494	-0.569635	0.309344
C126	C	1.367494	-0.319635	0.559344
C127	C	1.617494	-0.069635	0.809344
C128	C	1.867494	0.180365	1.059344
C129	C	1.117529	-0.635377	0.309360
C130	C	1.367529	-0.385377	0.559360
C131	C	1.617529	-0.135377	0.809360
C132	C	1.867529	0.114623	1.059360
C133	C	1.070153	-0.668253	0.356685
C134	C	1.320153	-0.418253	0.606685
C135	C	1.570153	-0.168253	0.856685
C136	C	1.820153	0.081747	1.106685
C137	C	1.022753	-0.635381	0.404010
C138	C	1.272753	-0.385381	0.654010
C139	C	1.522753	-0.135381	0.904010
C140	C	1.772753	0.114619	1.154010
C141	C	1.022725	-0.569639	0.403997
C142	C	1.272725	-0.319639	0.653997
C143	C	1.522725	-0.069639	0.903997
C144	C	1.772725	0.180361	1.153997
N145	N	1.005369	-0.771516	0.362329
N146	N	1.255369	-0.521516	0.612329
N147	N	1.505369	-0.271516	0.862329
N148	N	1.755369	-0.021516	1.112329
N149	N	1.005398	-0.833968	0.362337
N150	N	1.255398	-0.583968	0.612337
N151	N	1.505398	-0.333968	0.862337
N152	N	1.755398	-0.083968	1.112337
C153	C	1.070236	-0.866328	0.356727
C154	C	1.320236	-0.616328	0.606727
C155	C	1.570236	-0.366328	0.856727
C156	C	1.820236	-0.116328	1.106727
N157	N	1.135046	-0.833877	0.351095
N158	N	1.385046	-0.583877	0.601095
N159	N	1.635046	-0.333877	0.851095
N160	N	1.885046	-0.083877	1.101095
N161	N	1.135017	-0.771419	0.351084
N162	N	1.385017	-0.521419	0.601084
N163	N	1.635017	-0.271419	0.851084
N164	N	1.885017	-0.021419	1.101084
C165	C	1.070179	-0.739538	0.356704
C166	C	1.320179	-0.489538	0.606704
C167	C	1.570179	-0.239538	0.856704
C168	C	1.820179	0.010462	1.106704
C169	C	1.117675	-0.970477	0.309427
C170	C	1.367675	-0.720477	0.559427
C171	C	1.617675	-0.470477	0.809427
C172	C	1.867675	-0.220477	1.059427
C173	C	1.117711	-1.036221	0.309449
C174	C	1.367711	-0.786221	0.559449
C175	C	1.617711	-0.536221	0.809449
C176	C	1.867711	-0.286221	1.059449
C177	C	1.022929	-1.036223	0.404095
C178	C	1.272929	-0.786223	0.654095
C179	C	1.522929	-0.536223	0.904095
C180	C	1.772929	-0.286223	1.154095
C181	C	1.022899	-0.970481	0.404077
C182	C	1.272899	-0.720481	0.654077
C183	C	1.522899	-0.470481	0.904077
C184	C	1.772899	-0.220481	1.154077
C185	C	1.070271	-0.937612	0.356739
C186	C	1.320271	-0.687612	0.606739
C187	C	1.570271	-0.437612	0.856739
C188	C	1.820271	-0.187612	1.106739
C189	C	1.263330	-0.303268	0.356699
C190	C	1.513330	-0.053268	0.606699
C191	C	1.763330	0.196732	0.856699
C192	C	2.013330	0.446732	1.106699
C193	C	1.345644	-0.303276	0.356701
C194	C	1.595644	-0.053276	0.606701
C195	C	1.845644	0.196724	0.856701
C196	C	2.095644	0.446724	1.106701
C197	C	1.070212	-0.303193	0.549855
C198	C	1.320212	-0.053193	0.799855
C199	C	1.570212	0.196807	1.049855
C200	C	1.820212	0.446807	1.299855
C201	C	1.070231	-0.303169	0.632169
C202	C	1.320231	-0.053169	0.882169
C203	C	1.570231	0.196831	1.132169
C204	C	1.820231	0.446831	1.382169
C205	C	1.070286	-0.139060	0.356751
C206	C	1.320286	0.110940	0.606751
C207	C	1.570286	0.360940	0.856751
C208	C	1.820286	0.610940	1.106751
C209	C	1.070336	-0.069092	0.356775
C210	C	1.320336	0.180908	0.606775
C211	C	1.570336	0.430908	0.856775
C212	C	1.820336	0.680908	1.106775
C213	C	1.070167	-0.303262	0.164283
C214	C	1.320167	-0.053262	0.414283
C215	C	1.570167	0.196738	0.664283
C216	C	1.820167	0.446738	0.914283
C217	C	1.070292	-0.303110	0.081969
C218	C	1.320292	-0.053110	0.331969
C219	C	1.570292	0.196890	0.581969
C220	C	1.820292	0.446890	0.831969
C221	C	1.070271	-0.303129	0.931260
C222	C	1.320271	-0.053129	1.181260
C223	C	1.570271	0.196871	1.431260
C224	C	1.820271	0.446871	1.681260
C225	C	1.127727	-0.254657	0.899954
C226	C	1.377727	-0.004657	1.149954
C227	C	1.627727	0.245343	1.399954
C228	C	1.877727	0.495343	1.649954
C229	C	1.127548	-0.254477	0.814336
C230	C	1.377548	-0.004477	1.064336
C231	C	1.627548	0.245523	1.314336
C232	C	1.877548	0.495523	1.564336
C233	C	1.070252	-0.303149	0.782878
C234	C	1.320252	-0.053149	1.032878
C235	C	1.570252	0.196851	1.282878
C236	C	1.820252	0.446851	1.532878
C237	C	0.992235	-0.285124	0.813959
C238	C	1.242235	-0.035124	1.063959
C239	C	1.492235	0.214876	1.313959
C240	C	1.742235	0.464876	1.563959
C241	C	0.992579	-0.284760	0.899605
C242	C	1.242579	-0.034760	1.149605
C243	C	1.492579	0.215240	1.399605
C244	C	1.742579	0.465240	1.649605
C245	C	1.090144	-0.369752	0.899665
C246	C	1.340144	-0.119752	1.149665
C247	C	1.590144	0.130248	1.399665
C248	C	1.840144	0.380248	1.649665
C249	C	1.091856	-0.369412	0.814015
C250	C	1.341856	-0.119412	1.064015
C251	C	1.591856	0.130588	1.314015
C252	C	1.841856	0.380588	1.564015
C253	C	1.070236	-0.303161	0.699018
C254	C	1.320236	-0.053161	0.949018
C255	C	1.570236	0.196839	1.199018
C256	C	1.820236	0.446839	1.449018
C257	C	1.070281	-0.303116	1.015120
C258	C	1.320281	-0.053116	1.265120
C259	C	1.570281	0.196884	1.515120
C260	C	1.820281	0.446884	1.765120
H261	H	0.506771	-0.341109	0.471593
H262	H	0.756771	-0.091109	0.721593
H263	H	1.006771	0.158891	0.971593
H264	H	1.256771	0.408891	1.221593
F265	F	1.203166	-0.269224	0.786867
F266	F	1.453166	-0.019224	1.036867
F267	F	1.703166	0.230776	1.286867
F268	F	1.953166	0.480776	1.536867
F269	F	0.501041	-0.219619	0.453926
F270	F	0.751041	0.030381	0.703926
F271	F	1.001041	0.280381	0.953926
F272	F	1.251041	0.530381	1.203926
F273	F	1.110353	-0.189967	0.787580
F274	F	1.360353	0.060033	1.037580
F275	F	1.610353	0.310033	1.287580
F276	F	1.860353	0.560033	1.537580
F277	F	0.639712	-0.189289	0.322655
F278	F	0.889712	0.060711	0.572655
F279	F	1.139712	0.310711	0.822655
F280	F	1.389712	0.560711	1.072655
F281	F	1.168165	-1.071197	0.259091
F282	F	1.418165	-0.821197	0.509091
F283	F	1.668165	-0.571197	0.759091
F284	F	1.918165	-0.321197	1.009091
F285	F	0.972512	-1.071208	0.454466
F286	F	1.222512	-0.821208	0.704466
F287	F	1.472512	-0.571208	0.954466
F288	F	1.722512	-0.321208	1.204466
H289	H	1.156069	-0.542874	0.270800
H290	H	1.406069	-0.292874	0.520800
H291	H	1.656069	-0.042874	0.770800
H292	H	1.906069	0.207126	1.020800
F293	F	1.041132	-0.419155	0.786028
F294	F	1.291132	-0.169155	1.036028
F295	F	1.541132	0.080845	1.286028
F296	F	1.791132	0.330845	1.536028
H297	H	1.048300	-0.405869	0.919916
H298	H	1.298300	-0.155869	1.169916
H299	H	1.548300	0.094131	1.419916
H300	H	1.798300	0.344131	1.669916
H301	H	0.975731	-0.236060	0.919601
H302	H	1.225731	0.013940	1.169601
H303	H	1.475731	0.263940	1.419601
H304	H	1.725731	0.513940	1.669601
F305	F	0.934714	-0.328891	0.926675
F306	F	1.184714	-0.078891	1.176675
F307	F	1.434714	0.171109	1.426675
F308	F	1.684714	0.421109	1.676675
H309	H	0.948263	-0.319341	0.793581
H310	H	1.198263	-0.069341	1.043581
H311	H	1.448263	0.180659	1.293581
H312	H	1.698263	0.430659	1.543581
F313	F	0.972449	-0.935503	0.454435
F314	F	1.222449	-0.685503	0.704435
F315	F	1.472449	-0.435503	0.954435
F316	F	1.722449	-0.185503	1.204435
F317	F	0.640354	-0.337701	0.489786
F318	F	0.890354	-0.087701	0.739786
F319	F	1.140354	0.162299	0.989786
F320	F	1.390354	0.412299	1.239786
F321	F	1.168091	-0.935493	0.259047
F322	F	1.418091	-0.685493	0.509047
F323	F	1.668091	-0.435493	0.759047
F324	F	1.918091	-0.185493	1.009047
H325	H	1.156128	-0.662140	0.270830
H326	H	1.406128	-0.412140	0.520830
H327	H	1.656128	-0.162140	0.770830
H328	H	1.906128	0.087860	1.020830
H329	H	0.975080	-0.236964	0.792527
H330	H	1.225080	0.013036	1.042527
H331	H	1.475080	0.263036	1.292527
H332	H	1.725080	0.513036	1.542527
H333	H	0.634873	-0.400982	0.400502
H334	H	0.884873	-0.150982	0.650502
H335	H	1.134873	0.099018	0.900502
H336	H	1.384873	0.349018	1.150502
H337	H	0.507058	-0.286585	0.234825
H338	H	0.757058	-0.036585	0.484825
H339	H	1.007058	0.213415	0.734825
H340	H	1.257058	0.463415	0.984825
H341	H	1.146037	-0.386164	0.921303
H342	H	1.396037	-0.136164	1.171303
H343	H	1.646037	0.113836	1.421303
H344	H	1.896037	0.363836	1.671303
H345	H	1.149270	-0.383004	0.793699
H346	H	1.399270	-0.133004	1.043699
H347	H	1.649270	0.116996	1.293699
H348	H	1.899270	0.366996	1.543699
H349	H	0.507244	-0.401463	0.400169
H350	H	0.757244	-0.151463	0.650169
H351	H	1.007244	0.098537	0.900169
H352	H	1.257244	0.348537	1.150169
H353	H	0.634839	-0.220539	0.433058
H354	H	0.884839	0.029461	0.683058
H355	H	1.134839	0.279461	0.933058
H356	H	1.384839	0.529461	1.183058
H357	H	0.984181	-0.662152	0.442543
H358	H	1.234181	-0.412152	0.692543
H359	H	1.484181	-0.162152	0.942543
H360	H	1.734181	0.087848	1.192543
H361	H	1.185768	-0.265806	0.920550
H362	H	1.435768	-0.015806	1.170550
H363	H	1.685768	0.234194	1.420550
H364	H	1.935768	0.484194	1.670550
H365	H	1.114739	-0.205577	0.921497
H366	H	1.364739	0.044423	1.171497
H367	H	1.614739	0.294423	1.421497
H368	H	1.864739	0.544423	1.671497
H369	H	0.984128	-0.542881	0.442528
H370	H	1.234128	-0.292881	0.692528
H371	H	1.484128	-0.042881	0.942528
H372	H	1.734128	0.207119	1.192528
H373	H	0.633789	-0.287360	0.234864
H374	H	0.883789	-0.037360	0.484864
H375	H	1.133789	0.212640	0.734864
H376	H	1.383789	0.462640	0.984864
H377	H	0.632993	-0.369948	0.261704
H378	H	0.882993	-0.119948	0.511704
H379	H	1.132993	0.130052	0.761704
H380	H	1.382993	0.380052	1.011704
H381	H	0.506181	-0.198876	0.340215
H382	H	0.756181	0.051124	0.590215
H383	H	1.006181	0.301124	0.840215
H384	H	1.256181	0.551124	1.090215
F385	F	0.499327	-0.383838	0.255710
F386	F	0.749327	-0.133838	0.505710
F387	F	0.999327	0.116162	0.755710
F388	F	1.249327	0.366162	1.005710
