data_functionalizedCrystal
_audit_creation_method	'MofGen! by Chris Wilmer'
_symmetry_space_group_name_H-M	'P1'
_symmetry_Int_Tables_number	1
_symmetry_cell_setting	triclinic
loop_
_symmetry_equiv_pos_as_xyz
  x,y,z
_cell_length_a	25.639242
_cell_length_b	25.639239
_cell_length_c	21.395355
_cell_angle_alpha	89.980666
_cell_angle_beta	89.966687
_cell_angle_gamma	90.034213
loop_
_atom_site_label
_atom_site_type_symbol
_atom_site_fract_x
_atom_site_fract_y
_atom_site_fract_z
Zn1	Zn	0.799283	-0.208274	-0.354404
Zn2	Zn	1.299283	0.291726	0.145596
Zn3	Zn	0.799189	-0.295693	-0.249625
Zn4	Zn	1.299189	0.204307	0.250375
Zn5	Zn	0.711842	-0.208267	-0.249625
Zn6	Zn	1.211842	0.291733	0.250375
Zn7	Zn	0.711804	-0.295673	-0.354349
Zn8	Zn	1.211804	0.204327	0.145651
O9	O	0.755529	-0.251977	-0.302001
O10	O	1.255529	0.248023	0.197999
O11	O	0.872435	-0.219881	-0.340528
O12	O	1.372435	0.280119	0.159472
O13	O	0.787579	-0.284102	-0.161947
O14	O	1.287579	0.215898	0.338053
O15	O	0.723496	-0.135103	-0.263547
O16	O	1.223496	0.364897	0.236453
O17	O	0.872367	-0.284108	-0.263547
O18	O	1.372367	0.215892	0.236453
O19	O	0.787738	-0.135108	-0.340528
O20	O	1.287738	0.364892	0.159472
O21	O	0.723405	-0.219870	-0.161947
O22	O	1.223405	0.280130	0.338053
O23	O	0.638672	-0.219850	-0.263494
O24	O	1.138672	0.280150	0.236506
O25	O	0.723432	-0.284074	-0.442035
O26	O	1.223432	0.215926	0.057965
O27	O	0.638644	-0.284067	-0.340434
O28	O	1.138644	0.215933	0.159566
O29	O	0.787702	-0.219862	-0.442075
O30	O	1.287702	0.280138	0.057925
O31	O	0.787542	-0.368856	-0.263494
O32	O	1.287542	0.131144	0.236506
O33	O	0.723341	-0.368841	-0.340435
O34	O	1.223341	0.131159	0.159565
C35	C	0.619687	-0.251956	-0.301959
C36	C	1.119687	0.248044	0.198041
C37	C	0.561573	-0.251960	-0.301955
C38	C	1.061573	0.248040	0.198045
C39	C	0.201204	-0.285470	-0.342026
C40	C	0.701204	0.214530	0.157974
C41	C	0.146600	-0.285474	-0.342036
C42	C	0.646600	0.214526	0.157964
O43	O	0.118358	-0.313940	-0.376070
O44	O	0.618358	0.186060	0.123930
N45	N	0.119290	-0.251991	-0.302042
N46	N	0.619290	0.248009	0.197958
C47	C	0.146588	-0.218500	-0.262040
C48	C	0.646588	0.281500	0.237960
O49	O	0.118345	-0.190020	-0.228023
O50	O	0.618345	0.309980	0.271977
C51	C	0.201191	-0.218494	-0.262034
C52	C	0.701191	0.281506	0.237966
C53	C	0.228498	-0.251983	-0.302026
C54	C	0.728498	0.248017	0.197974
C55	C	0.228511	-0.318956	-0.382015
C56	C	0.728511	0.181044	0.117985
C57	C	0.283111	-0.318953	-0.382004
C58	C	0.783111	0.181047	0.117996
C59	C	0.310405	-0.285465	-0.342004
C60	C	0.810405	0.214535	0.157996
C61	C	0.283098	-0.251980	-0.302015
C62	C	0.783098	0.248020	0.197985
C63	C	0.228488	-0.185000	-0.222035
C64	C	0.728488	0.315000	0.277965
C65	C	0.283095	-0.184998	-0.222033
C66	C	0.783095	0.315002	0.277967
C67	C	0.310402	-0.218486	-0.262025
C68	C	0.810402	0.281514	0.237975
C69	C	0.364993	-0.218489	-0.262004
C70	C	0.864993	0.281511	0.237996
N71	N	0.392302	-0.251972	-0.301998
N72	N	0.892302	0.248028	0.198002
C73	C	0.365008	-0.285460	-0.341998
C74	C	0.865008	0.214540	0.158002
C75	C	0.031917	-0.218513	-0.262057
C76	C	0.531917	0.281487	0.237943
C77	C	-0.022685	-0.218521	-0.262059
C78	C	0.477315	0.281479	0.237941
C79	C	-0.022669	-0.285494	-0.342056
C80	C	0.477331	0.214506	0.157944
C81	C	0.031934	-0.285489	-0.342050
C82	C	0.531934	0.214511	0.157950
C83	C	0.059227	-0.251995	-0.302051
C84	C	0.559227	0.248005	0.197949
C85	C	0.479674	-0.285452	-0.341972
C86	C	0.979674	0.214548	0.158028
C87	C	0.534279	-0.285448	-0.341955
C88	C	1.034279	0.214552	0.158045
C89	C	0.534259	-0.218473	-0.261961
C90	C	1.034259	0.281527	0.238039
C91	C	0.479658	-0.218479	-0.261975
C92	C	0.979658	0.281521	0.238025
C93	C	0.452367	-0.251970	-0.301985
C94	C	0.952367	0.248030	0.198015
O95	O	0.393269	-0.190036	-0.227989
O96	O	0.893269	0.309964	0.272011
O97	O	0.393258	-0.313930	-0.376015
O98	O	0.893258	0.186070	0.123985
C99	C	0.755441	-0.387819	-0.301972
C100	C	1.255441	0.112181	0.198028
C101	C	0.755452	-0.445933	-0.301981
C102	C	1.255452	0.054067	0.198019
C103	C	0.789046	-0.806292	-0.262006
C104	C	1.289046	-0.306292	0.237994
C105	C	0.789067	-0.860896	-0.262015
C106	C	1.289067	-0.360896	0.237985
O107	O	0.817539	-0.889129	-0.227996
O108	O	1.317539	-0.389129	0.272004
N109	N	0.755621	-0.888216	-0.302043
N110	N	1.255621	-0.388216	0.197957
C111	C	0.722157	-0.860929	-0.342069
C112	C	1.222157	-0.360929	0.157931
O113	O	0.693712	-0.889180	-0.376117
O114	O	1.193712	-0.389180	0.123883
C115	C	0.722140	-0.806325	-0.342063
C116	C	1.222140	-0.306325	0.157937
C117	C	0.755584	-0.779008	-0.302028
C118	C	1.255584	-0.279008	0.197972
C119	C	0.822488	-0.778975	-0.221975
C120	C	1.322488	-0.278975	0.278025
C121	C	0.822467	-0.724374	-0.221966
C122	C	1.322467	-0.224374	0.278034
C123	C	0.789004	-0.697091	-0.261988
C124	C	1.289004	-0.197091	0.238012
C125	C	0.755563	-0.724408	-0.302019
C126	C	1.255563	-0.224408	0.197981
C127	C	0.688679	-0.779039	-0.382092
C128	C	1.188679	-0.279039	0.117908
C129	C	0.688665	-0.724432	-0.382084
C130	C	1.188665	-0.224432	0.117916
C131	C	0.722109	-0.697115	-0.342049
C132	C	1.222109	-0.197115	0.157951
C133	C	0.722079	-0.642524	-0.342032
C134	C	1.222079	-0.142524	0.157968
N135	N	0.755524	-0.615204	-0.302005
N136	N	1.255524	-0.115204	0.197995
C137	C	0.788987	-0.642487	-0.261983
C138	C	1.288987	-0.142487	0.238017
C139	C	0.722197	-0.975599	-0.342079
C140	C	1.222197	-0.475599	0.157921
C141	C	0.722211	-1.030202	-0.342082
C142	C	1.222211	-0.530202	0.157918
C143	C	0.789121	-1.030165	-0.262028
C144	C	1.289121	-0.530165	0.237972
C145	C	0.789104	-0.975562	-0.262022
C146	C	1.289104	-0.475562	0.237978
C147	C	0.755642	-0.948279	-0.302051
C148	C	1.255642	-0.448279	0.197949
C149	C	0.788940	-0.527822	-0.261966
C150	C	1.288940	-0.027822	0.238034
C151	C	0.788914	-0.473217	-0.261959
C152	C	1.288914	0.026783	0.238041
C153	C	0.722006	-0.473258	-0.342014
C154	C	1.222006	0.026742	0.157986
C155	C	0.722030	-0.527859	-0.342020
C156	C	1.222030	-0.027859	0.157980
C157	C	0.755501	-0.555139	-0.301994
C158	C	1.255501	-0.055139	0.198006
O159	O	0.693623	-0.614256	-0.376036
O160	O	1.193623	-0.114256	0.123964
O161	O	0.817433	-0.614229	-0.227946
O162	O	1.317433	-0.114229	0.272054
C163	C	0.891902	-0.251998	-0.302044
C164	C	1.391902	0.248002	0.197956
C165	C	0.950016	-0.252007	-0.302062
C166	C	1.450016	0.247993	0.197938
C167	C	0.755573	-0.251966	-0.465424
C168	C	1.255573	0.248034	0.034576
C169	C	0.755591	-0.251962	-0.535066
C170	C	1.255591	0.248038	-0.035066
C171	C	0.755632	-0.115604	-0.302044
C172	C	1.255632	0.384396	0.197956
C173	C	0.755676	-0.057490	-0.302062
C174	C	1.255676	0.442510	0.197938
C175	C	0.789055	-0.218525	-0.567801
C176	C	1.289055	0.281475	-0.067801
C177	C	0.789055	-0.218503	-0.633236
C178	C	1.289055	0.281497	-0.133236
C179	C	0.755595	-0.251926	-0.665934
C180	C	1.255595	0.248074	-0.165934
C181	C	0.722125	-0.285365	-0.633191
C182	C	1.222125	0.214635	-0.133191
C183	C	0.722123	-0.285383	-0.567757
C184	C	1.222123	0.214617	-0.067757
C185	C	0.751437	-0.299003	-0.769598
C186	C	1.251437	0.200997	-0.269598
C187	C	0.751442	-0.298986	-0.835031
C188	C	1.251442	0.201014	-0.335031
C189	C	0.755599	-0.251871	-0.867755
C190	C	1.255599	0.248129	-0.367755
C191	C	0.759760	-0.204771	-0.835038
C192	C	1.259760	0.295229	-0.335038
C193	C	0.759758	-0.204789	-0.769604
C194	C	1.259758	0.295211	-0.269604
C195	C	0.755594	-0.251910	-0.736886
C196	C	1.255594	0.248090	-0.236886
C197	C	0.789064	-0.218407	-0.971443
C198	C	1.289064	0.281593	-0.471443
C199	C	0.789059	-0.218384	-1.036879
C200	C	1.289059	0.281616	-0.536879
C201	C	0.722132	-0.285251	-1.036833
C202	C	1.222132	0.214749	-0.536833
C203	C	0.722134	-0.285269	-0.971397
C204	C	1.222134	0.214731	-0.471397
C205	C	0.755602	-0.251848	-0.938706
C206	C	1.255602	0.248152	-0.438706
C207	C	0.755516	-0.251950	-0.139213
C208	C	1.255516	0.248050	0.360787
C209	C	0.755599	-0.251807	-0.069573
C210	C	1.255599	0.248193	0.430427
H211	H	0.305340	-0.346222	-0.414572
H212	H	0.805340	0.153778	0.085428
H213	H	0.661443	-0.801271	-0.414690
H214	H	1.161443	-0.301271	0.085310
H215	H	0.694944	-0.953388	-0.374673
H216	H	1.194944	-0.453388	0.125327
H217	H	0.206294	-0.346226	-0.414592
H218	H	0.706294	0.153774	0.085408
H219	H	0.816313	-0.191191	-0.944824
H220	H	1.316313	0.308809	-0.444824
H221	H	0.816370	-1.052389	-0.229442
H222	H	1.316370	-0.552389	0.270558
H223	H	0.206264	-0.157732	-0.189468
H224	H	0.706264	0.342268	0.310532
H225	H	0.816148	-0.450977	-0.229356
H226	H	1.316148	0.049023	0.270644
H227	H	0.054136	-0.191239	-0.229480
H228	H	0.554136	0.308761	0.270520
H229	H	0.054163	-0.312757	-0.374616
H230	H	0.554163	0.187243	0.125384
H231	H	0.694884	-0.312459	-1.063455
H232	H	1.194884	0.187541	-0.563455
H233	H	0.694973	-1.052439	-0.374676
H234	H	1.194973	-0.552439	0.125324
H235	H	0.305314	-0.157720	-0.189463
H236	H	0.805314	0.342280	0.310537
H237	H	0.816196	-0.550028	-0.229375
H238	H	1.316196	-0.050028	0.270625
H239	H	0.457424	-0.191211	-0.229409
H240	H	0.957424	0.308789	0.270591
H241	H	0.556491	-0.191209	-0.229392
H242	H	1.056491	0.308791	0.270608
H243	H	0.849701	-0.702136	-0.189368
H244	H	1.349701	-0.202136	0.310632
H245	H	0.457460	-0.312723	-0.374553
H246	H	0.957460	0.187277	0.125447
H247	H	-0.044902	-0.312760	-0.374629
H248	H	0.455098	0.187240	0.125371
H249	H	0.849740	-0.801183	-0.189384
H250	H	1.349740	-0.301183	0.310616
H251	H	0.816337	-0.953323	-0.229423
H252	H	1.316337	-0.453323	0.270577
H253	H	0.661417	-0.702221	-0.414682
H254	H	1.161417	-0.202221	0.085318
H255	H	0.694799	-0.550101	-0.374621
H256	H	1.194799	-0.050101	0.125379
H257	H	0.816309	-0.191153	-1.063531
H258	H	1.316309	0.308847	-0.563531
H259	H	-0.044913	-0.191256	-0.229487
H260	H	0.455087	0.308744	0.270513
H261	H	0.694887	-0.312500	-0.944744
H262	H	1.194887	0.187500	-0.444744
H263	H	0.694760	-0.451035	-0.374598
H264	H	1.194760	0.048965	0.125402
H265	H	0.816307	-0.191310	-0.541188
H266	H	1.316307	0.308690	-0.041188
H267	H	0.748057	-0.337338	-0.861664
H268	H	1.248057	0.162662	-0.361664
H269	H	0.816304	-0.191272	-0.659894
H270	H	1.316304	0.308728	-0.159894
H271	H	0.556510	-0.312720	-0.374522
H272	H	1.056510	0.187280	0.125478
H273	H	0.763145	-0.166439	-0.742968
H274	H	1.263145	0.333561	-0.242968
H275	H	0.763146	-0.166405	-0.861680
H276	H	1.263146	0.333595	-0.361680
H277	H	0.694870	-0.312610	-0.541104
H278	H	1.194870	0.187390	-0.041104
H279	H	0.694880	-0.312577	-0.659818
H280	H	1.194880	0.187423	-0.159818
H281	H	0.747912	-0.337360	-0.742960
H282	H	1.247912	0.162640	-0.242960
