data_functionalizedCrystal
_audit_creation_method	'MofGen! by Chris Wilmer'
_symmetry_space_group_name_H-M	'P1'
_symmetry_Int_Tables_number	1
_symmetry_cell_setting	triclinic
loop_
_symmetry_equiv_pos_as_xyz
  x,y,z
_cell_length_a	12.594509
_cell_length_b	12.759401
_cell_length_c	12.759400
_cell_angle_alpha	89.983831
_cell_angle_beta	89.972045
_cell_angle_gamma	90.019209
loop_
_atom_site_label
_atom_site_type_symbol
_atom_site_fract_x
_atom_site_fract_y
_atom_site_fract_z
Zn1	Zn	-0.601802	-1.606249	-0.418192
Zn2	Zn	-0.423824	-1.606145	-0.593902
Zn3	Zn	-0.423837	-1.430553	-0.418242
Zn4	Zn	-0.601761	-1.430540	-0.593834
O5	O	-0.512806	-1.518372	-0.506042
O6	O	-0.578205	-1.753256	-0.441508
O7	O	-0.274880	-1.582815	-0.570650
O8	O	-0.447467	-1.453908	-0.271214
O9	O	-0.447445	-1.753180	-0.570601
O10	O	-0.578217	-1.582991	-0.271178
O11	O	-0.274890	-1.453808	-0.441593
O12	O	-0.447428	-1.283530	-0.441527
O13	O	-0.750712	-1.453886	-0.570485
O14	O	-0.578147	-1.283520	-0.570534
O15	O	-0.750742	-1.582978	-0.441442
O16	O	-0.447405	-1.582802	-0.740914
O17	O	-0.578135	-1.453785	-0.740864
C18	C	-0.512785	-1.245404	-0.506030
C19	C	-0.512801	-1.128628	-0.506049
C20	C	-0.790427	-1.518442	-0.505950
C21	C	-0.908733	-1.518472	-0.505911
C22	C	-0.512787	-1.518310	-0.779010
C23	C	-0.512815	-1.518379	-0.895786
C24	C	-0.977969	-1.448280	-0.576058
C25	C	-1.048756	-1.544147	-0.601726
C26	C	-1.048745	-1.422681	-0.480180
C27	C	-0.977961	-1.614388	-0.531629
C28	C	-0.977944	-1.492858	-0.410039
C29	C	-1.048699	-1.588790	-0.435670
C30	C	-0.236265	-1.518362	-0.506058
C31	C	-0.117960	-1.518536	-0.505802
C32	C	-0.512828	-1.792405	-0.506056
C33	C	-0.512837	-1.909182	-0.506062
C34	C	-0.580760	-1.073788	-0.573325
C35	C	-0.580781	-0.964064	-0.573329
C36	C	-0.444876	-0.964029	-0.438779
C37	C	-0.444861	-1.073751	-0.438770
C38	C	-0.580954	-1.585563	-0.950539
C39	C	-0.580983	-1.585622	-1.060263
C40	C	-0.444724	-1.451310	-1.060472
C41	C	-0.444701	-1.451246	-0.950750
C42	C	-0.512848	-1.518463	-0.232009
C43	C	-0.512866	-1.518501	-0.115232
H44	H	-1.079861	-1.565846	-0.682756
H45	H	-0.636084	-1.118466	-0.628106
H46	H	-0.636121	-0.919419	-0.628111
N47	N	-1.089602	-1.667541	-0.357044
H48	H	-1.027687	-1.703561	-0.321966
H49	H	-1.134783	-1.721361	-0.394175
N50	N	-0.937005	-1.721756	-0.560606
H51	H	-0.963335	-1.774895	-0.507971
H52	H	-0.856818	-1.721002	-0.560551
H53	H	-0.389521	-1.118402	-0.383979
H54	H	-0.389559	-0.919335	-0.384004
N55	N	-0.654418	-1.657964	-0.891255
H56	H	-0.697589	-1.700532	-0.942595
H57	H	-0.703627	-1.615145	-0.845733
H58	H	-0.946816	-1.471130	-0.329032
N59	N	-0.654503	-1.658058	-1.119320
H60	H	-0.697655	-1.700565	-1.067848
H61	H	-0.611256	-1.706734	-1.164849
H62	H	-0.389267	-1.396655	-1.105237
H63	H	-0.389214	-1.396532	-0.906167
N64	N	-1.089935	-1.315348	-0.451394
H65	H	-1.135197	-1.287319	-0.510401
H66	H	-1.028090	-1.266496	-0.439019
N67	N	-0.936821	-1.369714	-0.654748
H68	H	-0.962580	-1.389230	-0.727110
H69	H	-0.856638	-1.369809	-0.653669
