data_functionalizedCrystal
_audit_creation_method	'MofGen! by Chris Wilmer'
_symmetry_space_group_name_H-M	'P1'
_symmetry_Int_Tables_number	1
_symmetry_cell_setting	triclinic
loop_
_symmetry_equiv_pos_as_xyz
  x,y,z
_cell_length_a	12.837943
_cell_length_b	10.540539
_cell_length_c	11.892314
_cell_angle_alpha	85.671258
_cell_angle_beta	86.050622
_cell_angle_gamma	89.677216
loop_
_atom_site_label
_atom_site_type_symbol
_atom_site_fract_x
_atom_site_fract_y
_atom_site_fract_z
O1	O	1.371935	0.322318	0.093970
O2	O	1.070009	0.306002	0.093977
O3	O	1.227860	0.130211	0.093972
O4	O	1.214084	0.498110	0.093975
O5	O	1.239778	0.146141	-0.094029
O6	O	1.081926	0.321932	-0.094024
O7	O	1.383853	0.338248	-0.094031
Zn8	Zn	1.234781	0.332619	-0.123877
Zn9	Zn	1.219080	0.311631	0.123823
O10	O	1.226001	0.514040	-0.094026
C11	C	1.037306	0.308455	-0.000023
C12	C	0.922107	0.292017	-0.000020
C13	C	1.232786	0.090759	-0.000027
C14	C	1.229694	-0.050529	-0.000020
C15	C	0.682612	0.489637	-0.000034
C16	C	0.574372	0.474197	-0.000032
C17	C	0.597384	0.245700	-0.000022
C18	C	0.705625	0.261140	-0.000024
C19	C	0.748234	0.383112	-0.000028
C20	C	0.856476	0.398549	-0.000022
C21	C	0.879487	0.170054	-0.000020
C22	C	0.771247	0.154615	-0.000018
C23	C	1.111225	-0.247005	0.000404
C24	C	1.114385	-0.100007	-0.000019
C25	C	1.291992	-0.096993	-0.107380
C26	C	1.288062	-0.243963	-0.107470
C27	C	1.276855	-0.262338	0.106322
C28	C	1.277827	-0.115360	0.107742
C29	C	1.416555	0.335795	-0.000029
C30	C	1.531754	0.352233	-0.000025
C31	C	1.221075	0.553491	-0.000025
C32	C	1.224166	0.694779	-0.000024
N33	N	1.245505	0.346944	-0.292926
C34	C	1.320288	0.446690	-0.470423
C35	C	1.312759	0.436668	-0.352085
C36	C	1.185773	0.267238	-0.352112
C37	C	1.193302	0.277260	-0.470450
C38	C	1.260563	0.366988	-0.529602
C39	C	1.268096	0.377003	-0.647942
C40	C	1.141106	0.207580	-0.647967
C41	C	1.133577	0.197558	-0.529629
N42	N	1.208365	0.297298	0.292871
H43	H	0.891167	0.497865	-0.000027
H44	H	0.717305	0.588951	-0.000036
H45	H	1.065842	-0.068722	0.076941
Br46	Br	1.060061	0.099388	-0.728287
H47	H	1.232190	-0.085692	0.187163
Br48	Br	1.393811	0.544847	-0.271773
H49	H	0.520946	0.560942	-0.000040
Br50	Br	1.433555	-0.043672	-0.114043
Br51	Br	1.206046	-0.333236	0.241949
H52	H	1.258508	-0.051859	-0.187271
Br53	Br	1.359383	0.498768	-0.728218
H54	H	1.361486	-0.082452	0.114223
Br55	Br	1.415596	-0.325901	0.107525
Br56	Br	0.539539	0.080182	-0.000036
Br57	Br	0.968550	0.025473	0.000011
Br58	Br	1.411583	0.568440	-0.550705
Br59	Br	1.049236	-0.027564	-0.128496
H60	H	1.060794	-0.287133	0.077394
Br61	Br	0.713410	-0.010910	-0.000019
Br62	Br	1.043454	-0.295512	-0.126803
Br63	Br	1.228183	-0.287147	-0.241224
H64	H	1.078812	0.124507	-0.481452
H65	H	1.131007	0.194192	-0.303931
H66	H	1.371300	-0.282407	-0.112343
