data_functionalizedCrystal
_audit_creation_method	'MofGen! by Chris Wilmer'
_symmetry_space_group_name_H-M	'P1'
_symmetry_Int_Tables_number	1
_symmetry_cell_setting	triclinic
loop_
_symmetry_equiv_pos_as_xyz
  x,y,z
_cell_length_a	10.654546
_cell_length_b	14.421503
_cell_length_c	10.654551
_cell_angle_alpha	89.992837
_cell_angle_beta	95.515557
_cell_angle_gamma	89.985070
loop_
_atom_site_label
_atom_site_type_symbol
_atom_site_fract_x
_atom_site_fract_y
_atom_site_fract_z
O1	O	-1.667852	0.077261	0.176361
O2	O	-1.302373	0.077228	0.193172
O3	O	-1.493515	0.077246	0.002027
O4	O	-1.476710	0.077243	0.367506
O5	O	-1.493483	-0.076977	0.002056
O6	O	-1.302341	-0.076995	0.193200
O7	O	-1.667820	-0.076962	0.176390
Cu8	Cu	-1.485078	-0.091061	0.184797
Cu9	Cu	-1.485115	0.091327	0.184764
O10	O	-1.476678	-0.076980	0.367534
C11	C	-1.255559	0.000112	0.191952
C12	C	-1.116116	0.000100	0.188262
N13	N	-1.485061	-0.219342	0.184820
C14	C	-1.036630	0.000109	0.300805
C15	C	-0.905609	0.000119	0.297330
C16	C	-0.933572	0.000114	0.068760
C17	C	-1.064590	0.000098	0.072236
C18	C	-1.088156	0.000112	0.416831
C19	C	-1.008669	0.000122	0.529382
C20	C	-0.877648	0.000132	0.525907
C21	C	-0.826114	0.000131	0.409881
C22	C	-1.396661	-0.469004	0.273165
C23	C	-1.510358	-0.530796	0.298529
C24	C	-1.485091	-0.408503	0.184791
C25	C	-1.371423	-0.530804	0.159457
C26	C	-1.485110	-0.591225	0.184765
C27	C	-1.598846	-0.468935	0.210211
C28	C	-1.459836	-0.468938	0.071089
C29	C	-1.573615	-0.530703	0.096405
C30	C	-1.485078	-0.303242	0.184809
C31	C	-1.485136	-0.696484	0.184746
C32	C	-0.714634	0.000144	0.177612
C33	C	-0.854076	0.000126	0.181311
C34	C	-1.492265	0.000136	-0.044757
C35	C	-1.488572	0.000142	-0.184200
N36	N	-1.485142	0.219608	0.184731
C37	C	-1.486857	0.084208	-0.249727
C38	C	-1.483377	0.084203	-0.380747
C39	C	-1.483332	-0.083940	-0.380702
C40	C	-1.486803	-0.083934	-0.249683
C41	C	-1.488626	0.168284	-0.184244
C42	C	-1.486913	0.252356	-0.249772
C43	C	-1.483433	0.252352	-0.380792
C44	C	-1.481666	0.168275	-0.446285
C45	C	-1.477928	0.000132	0.414318
C46	C	-1.481621	0.000132	0.553761
H47	H	-1.194838	0.000108	0.419673
C48	C	-1.065346	0.000119	0.657004
H49	H	-0.999238	0.000117	0.723532
H50	H	-1.115903	0.053896	0.663100
H51	H	-1.115845	-0.053673	0.663121
C52	C	-1.481403	-0.176415	-0.452742
H53	H	-1.479102	-0.164377	-0.540159
H54	H	-1.408857	-0.210966	-0.422324
H55	H	-1.555084	-0.210947	-0.440203
C56	C	-1.674748	-0.567075	-0.004582
H57	H	-1.635672	-0.603335	-0.064304
H58	H	-1.733619	-0.604159	0.034423
H59	H	-1.717335	-0.516164	-0.046183
C60	C	-1.488692	-0.176404	-0.177598
H61	H	-1.487159	-0.226478	-0.235362
H62	H	-1.416936	-0.179899	-0.117546
H63	H	-1.563163	-0.179890	-0.135429
H64	H	-1.275289	-0.557983	0.138042
C65	C	-0.790217	0.000142	0.649705
H66	H	-0.839673	0.000148	0.719299
H67	H	-0.738492	-0.053633	0.653121
H68	H	-0.738559	0.053936	0.653083
C69	C	-1.430908	-0.432193	-0.058745
H70	H	-1.350063	-0.453338	-0.076610
H71	H	-1.492905	-0.454235	-0.121707
H72	H	-1.431876	-0.366325	-0.058006
C73	C	-1.492627	0.168293	-0.040148
H74	H	-1.493480	0.230403	-0.010537
H75	H	-1.566561	0.137245	-0.019582
H76	H	-1.420341	0.137245	-0.001433
C77	C	-0.681994	0.000135	0.406053
H78	H	-0.662690	0.000131	0.320836
H79	H	-0.647214	0.053916	0.447466
H80	H	-0.647170	-0.053653	0.447482
H81	H	-0.891601	0.000129	-0.025704
H82	H	-1.321955	-0.441913	0.347962
C83	C	-1.152029	0.000101	-0.051557
H84	H	-1.102579	0.000118	-0.121156
H85	H	-1.203694	-0.053684	-0.054946
H86	H	-1.203745	0.053885	-0.054951
H87	H	-1.531736	-0.557967	0.394672
C88	C	-1.488855	0.344833	-0.177736
H89	H	-1.491186	0.332797	-0.090322
H90	H	-1.415187	0.379373	-0.190270
H91	H	-1.561414	0.379375	-0.208166
C92	C	-1.728741	-0.432384	0.239312
H93	H	-1.727927	-0.366511	0.239190
H94	H	-1.791597	-0.454001	0.176904
H95	H	-1.746821	-0.454080	0.319819
C96	C	-1.481550	0.344825	-0.452870
H97	H	-1.483111	0.394894	-0.395103
H98	H	-1.407089	0.348321	-0.495041
H99	H	-1.553316	0.348316	-0.512921
C100	C	-1.477804	0.168271	-0.590400
H101	H	-1.477030	0.230380	-0.620049
H102	H	-1.403895	0.137213	-0.611065
H103	H	-1.550121	0.137229	-0.628996
