data_functionalizedCrystal
_audit_creation_method	'MofGen! by Chris Wilmer'
_symmetry_space_group_name_H-M	'P1'
_symmetry_Int_Tables_number	1
_symmetry_cell_setting	triclinic
loop_
_symmetry_equiv_pos_as_xyz
  x,y,z
_cell_length_a	15.944551
_cell_length_b	10.654550
_cell_length_c	9.730223
_cell_angle_alpha	90.003749
_cell_angle_beta	89.997716
_cell_angle_gamma	96.008180
loop_
_atom_site_label
_atom_site_type_symbol
_atom_site_fract_x
_atom_site_fract_y
_atom_site_fract_z
O1	O	0.117973	-1.666308	-0.114406
O2	O	0.129213	-1.300684	-0.114384
O3	O	0.001376	-1.493480	-0.114384
O4	O	0.245810	-1.473511	-0.114407
O5	O	0.001379	-1.493478	0.114196
O6	O	0.129216	-1.300681	0.114196
O7	O	0.117976	-1.666305	0.114174
Zn8	Zn	0.123597	-1.483493	0.150477
Zn9	Zn	0.123592	-1.483496	-0.150687
O10	O	0.245813	-1.473509	0.114173
C11	C	0.128389	-1.253895	-0.000092
C12	C	0.125920	-1.114484	-0.000083
C13	C	-0.029921	-1.492650	-0.000093
C14	C	-0.123182	-1.490165	-0.000092
C15	C	0.118800	-1.713094	-0.000122
C16	C	0.121269	-1.852505	-0.000140
C17	C	-0.338765	-1.364720	-0.000104
C18	C	-0.399443	-1.422971	0.112596
C19	C	-0.293934	-1.485668	-0.000103
C20	C	-0.399430	-1.423002	-0.112765
C21	C	-0.458872	-1.481317	-0.000119
C22	C	-0.353384	-1.543953	0.112691
C23	C	-0.353364	-1.543967	-0.112772
C24	C	-0.414024	-1.602306	-0.000045
C25	C	-0.198917	-1.488172	-0.000092
C26	C	-0.553887	-1.478822	-0.000119
C27	C	0.277110	-1.474339	-0.000120
C28	C	0.370371	-1.476824	-0.000130
N29	N	0.123599	-1.483500	0.356013
C30	C	0.201188	-1.034024	-0.000110
C31	C	0.198863	-0.903034	-0.000134
C32	C	0.045995	-0.932975	-0.000108
C33	C	0.048321	-1.063963	-0.000075
C34	C	0.289446	-1.016737	-0.000131
C35	C	0.287121	-0.885746	-0.000154
N36	N	0.123583	-1.483499	-0.356224
C37	C	0.067012	-1.568892	0.427939
C38	C	0.067002	-1.568889	0.571822
C39	C	0.180173	-1.398098	0.571840
C40	C	0.180178	-1.398096	0.427959
C41	C	0.001676	-1.667501	0.427931
C42	C	0.001666	-1.667498	0.571814
H43	H	-0.419846	-1.371814	0.207881
H44	H	-0.333096	-1.595065	0.208074
H45	H	0.226248	-1.328552	0.369398
C46	C	0.029101	-1.788717	0.368618
C47	C	0.110946	-1.803557	0.413311
C48	C	0.136242	-1.915215	0.358727
H49	H	0.028250	-1.784690	0.271112
H50	H	-0.008404	-1.858430	0.398806
H51	H	0.148442	-1.733862	0.383115
H52	H	0.111820	-1.807607	0.510809
H53	H	0.098736	-1.984927	0.388915
H54	H	0.135385	-1.911177	0.261223
H55	H	0.191773	-1.925304	0.389053
C56	C	-0.079603	-1.627839	0.631595
C57	C	-0.075249	-1.629926	0.775282
C58	C	-0.150089	-1.593381	0.830401
H59	H	-0.125910	-1.684571	0.601596
H60	H	-0.087008	-1.544883	0.601530
H61	H	-0.067854	-1.712869	0.805334
H62	H	-0.028958	-1.573192	0.805318
H63	H	-0.157495	-1.510425	0.800336
H64	H	-0.196391	-1.650117	0.800392
H65	H	-0.147143	-1.594781	0.927897
H66	H	0.317547	-1.052030	-0.098821
H67	H	-0.419804	-1.371831	-0.208051
C68	C	0.241467	-1.305321	0.650135
C69	C	0.196236	-1.228474	0.732761
C70	C	0.252673	-1.143004	0.804917
H71	H	0.275194	-1.254341	0.586847
H72	H	0.276700	-1.350458	0.706345
H73	H	0.161018	-1.183341	0.676556
H74	H	0.162512	-1.279419	0.796074
H75	H	0.287906	-1.188141	0.861127
H76	H	0.286397	-1.092033	0.741620
H77	H	0.221992	-1.090861	0.860996
H78	H	0.016057	-1.763823	0.610857
H79	H	0.320374	-0.843584	-0.095825
C80	C	-0.084323	-1.639819	0.375670
C81	C	-0.075331	-1.529945	0.295773
C82	C	-0.154529	-1.504407	0.247597
H83	H	-0.120258	-1.628270	0.451481
H84	H	-0.108206	-1.708576	0.321349
H85	H	-0.051460	-1.461204	0.350091
H86	H	-0.039410	-1.541465	0.219943
H87	H	-0.178412	-1.573164	0.193277
H88	H	-0.190458	-1.492863	0.323416
H89	H	-0.148438	-1.429862	0.193372
H90	H	-0.306038	-1.264327	0.000015
C91	C	-0.038169	-0.877877	-0.000179
C92	C	-0.024098	-0.745941	-0.000244
C93	C	-0.101611	-0.695145	-0.000329
H94	H	-0.069256	-0.905337	0.079518
H95	H	-0.069202	-0.905443	-0.079914
H96	H	0.006922	-0.718386	0.079483
H97	H	0.006976	-0.718446	-0.079935
H98	H	-0.132644	-0.722712	-0.080064
H99	H	-0.132692	-0.722615	0.079369
H100	H	-0.092075	-0.605623	-0.000386
H101	H	-0.446602	-1.702787	0.000013
H102	H	-0.012970	-1.129470	-0.000033
C103	C	-0.326149	-1.611907	-0.239992
C104	C	-0.349210	-1.548154	-0.357680
C105	C	-0.324140	-1.610683	-0.474910
H106	H	-0.352940	-1.695839	-0.241000
H107	H	-0.266699	-1.613618	-0.238684
H108	H	-0.408648	-1.546458	-0.358988
H109	H	-0.322421	-1.464226	-0.356718
H110	H	-0.264691	-1.612393	-0.473603
H111	H	-0.350933	-1.694613	-0.475904
H112	H	-0.339776	-1.567429	-0.554775
C113	C	0.335457	-1.055020	0.127538
C114	C	0.361277	-0.947483	0.205600
C115	C	0.403652	-0.982702	0.323223
H116	H	0.383431	-1.095151	0.101153
H117	H	0.298701	-1.111716	0.180777
H118	H	0.398031	-0.890808	0.152371
H119	H	0.313319	-0.907338	0.232020
H120	H	0.366896	-1.039398	0.376462
H121	H	0.451623	-1.022834	0.296825
H122	H	0.421169	-0.909747	0.376208
H123	H	0.313795	-0.839729	0.098527
