data_functionalizedCrystal
_audit_creation_method	'MofGen! by Chris Wilmer'
_symmetry_space_group_name_H-M	'P1'
_symmetry_Int_Tables_number	1
_symmetry_cell_setting	triclinic
loop_
_symmetry_equiv_pos_as_xyz
  x,y,z
_cell_length_a	6.817900
_cell_length_b	11.102288
_cell_length_c	13.561464
_cell_angle_alpha	107.718164
_cell_angle_beta	104.692446
_cell_angle_gamma	108.605689
loop_
_atom_site_label
_atom_site_type_symbol
_atom_site_fract_x
_atom_site_fract_y
_atom_site_fract_z
V1	V	-4.143463	-0.297347	-0.346246
O2	O	-4.101888	-0.110745	-0.339655
O3	O	-4.120022	-0.469336	-0.343878
O4	O	-4.134171	-0.347636	-0.497256
O5	O	-4.087640	-0.233288	-0.185215
V6	V	-4.618789	-0.268545	-0.326985
O7	O	-4.422701	-0.360527	-0.388496
O8	O	-4.789748	-0.205365	-0.284736
O9	O	-4.419024	-0.096555	-0.329353
O10	O	-4.777762	-0.455147	-0.333577
O11	O	-4.792009	-0.332604	-0.488016
O12	O	-4.404875	-0.218256	-0.175976
C13	C	-3.969829	-0.509549	-0.338416
C14	C	-4.032210	-0.650506	-0.337486
C15	C	-3.987876	-0.354306	-0.534063
C16	C	-4.061727	-0.396561	-0.657514
C17	C	-4.246036	-0.725145	-0.342590
C18	C	-4.304644	-0.857593	-0.341725
C19	C	-3.935576	-0.840748	-0.330649
C20	C	-3.876977	-0.708306	-0.331521
C21	C	-4.023494	-0.027536	-0.941798
C22	C	-3.954032	0.012090	-0.825816
C23	C	-3.980951	-0.090069	-0.783735
C24	C	-4.077341	-0.231861	-0.857647
C25	C	-4.146826	-0.271492	-0.973641
C26	C	-4.104283	-0.334025	-0.815577
C27	C	-4.200673	-0.475818	-0.889490
C28	C	-4.270147	-0.515442	-1.005471
C29	C	-4.243229	-0.413282	-1.047553
C30	C	-4.034799	-0.294394	-0.699584
C31	C	-4.158130	-0.538351	-0.731427
C32	C	-4.227592	-0.577977	-0.847408
C33	C	-4.232559	-0.056348	-0.334812
C34	C	-4.149418	0.084605	-0.335749
C35	C	-4.214511	-0.211587	-0.139163
C36	C	-4.119897	-0.169326	-0.015710
H37	H	-4.372440	-0.678087	-0.347446
H38	H	-4.478758	-0.918360	-0.345883
O39	O	-3.913296	-0.051745	-0.671086
C40	C	-3.671983	-0.053834	-0.508045
C41	C	-3.748444	-0.097354	-0.635633
H42	H	-3.538655	-0.090665	-0.479338
H43	H	-3.822003	-0.103567	-0.487856
H44	H	-3.598576	0.065051	-0.462469
H45	H	-3.821812	-0.216223	-0.681295
H46	H	-3.598352	-0.047520	-0.655737
O47	O	-3.997689	0.071718	-0.982639
C48	C	-4.088849	0.260228	-0.996196
C49	C	-4.118290	0.147856	-0.949896
H50	H	-4.186296	0.321835	-0.969721
H51	H	-4.155183	0.207604	-1.091797
H52	H	-3.903111	0.334502	-0.961278
H53	H	-4.303982	0.073547	-0.984729
H54	H	-4.051811	0.200574	-0.854294
O55	O	-4.184033	-0.637417	-0.690372
C56	C	-4.131772	-0.684484	-0.525798
C57	C	-4.102259	-0.572159	-0.572149
H58	H	-4.065718	-0.631768	-0.430211
H59	H	-4.034123	-0.746037	-0.552077
H60	H	-4.317497	-0.758824	-0.560811
H61	H	-3.916596	-0.497726	-0.537160
H62	H	-4.200050	-0.510709	-0.545881
O63	O	-3.860771	0.149783	-0.753996
C64	C	-3.886103	0.328181	-0.609862
C65	C	-3.991978	0.172204	-0.691158
H66	H	-3.992111	0.346353	-0.559019
H67	H	-3.878885	0.394443	-0.659815
H68	H	-3.708814	0.359205	-0.550508
H69	H	-4.169311	0.141050	-0.750530
H70	H	-3.999022	0.106031	-0.641134
O71	O	-3.941465	-0.156635	-0.627914
C72	C	-3.990205	0.056076	-0.570500
C73	C	-4.096165	-0.099925	-0.651752
H74	H	-4.115248	0.101966	-0.589728
H75	H	-3.831875	0.114892	-0.581177
H76	H	-3.945085	0.066832	-0.480377
H77	H	-4.141426	-0.110812	-0.741907
H78	H	-4.254406	-0.158668	-0.640976
H79	H	-3.809197	-0.887824	-0.325789
O80	O	-3.669213	-0.635579	-0.326413
C81	C	-3.322712	-0.425138	-0.224275
C82	C	-3.557950	-0.507334	-0.229933
H83	H	-3.232671	-0.321449	-0.146265
H84	H	-3.339345	-0.403929	-0.302431
H85	H	-3.221907	-0.489249	-0.219907
H86	H	-3.658885	-0.443299	-0.234265
H87	H	-3.541153	-0.528558	-0.151779
O88	O	-4.364033	-0.653233	-1.077166
C89	C	-4.666120	-0.881749	-1.145229
C90	C	-4.560006	-0.725744	-1.063966
H91	H	-4.824608	-0.940414	-1.134601
H92	H	-4.541345	-0.927815	-1.125971
H93	H	-4.711039	-0.892489	-1.235343
H94	H	-4.515088	-0.714880	-0.973823
H95	H	-4.684844	-0.679751	-1.083321
H96	H	-4.299777	-0.445539	-1.141993
H97	H	-4.306081	-0.693426	-0.907604
