data_functionalizedCrystal
_audit_creation_method	'MofGen! by Chris Wilmer'
_symmetry_space_group_name_H-M	'P1'
_symmetry_Int_Tables_number	1
_symmetry_cell_setting	triclinic
loop_
_symmetry_equiv_pos_as_xyz
  x,y,z
_cell_length_a	15.297475
_cell_length_b	19.120786
_cell_length_c	15.296720
_cell_angle_alpha	83.185849
_cell_angle_beta	88.382886
_cell_angle_gamma	82.327649
loop_
_atom_site_label
_atom_site_type_symbol
_atom_site_fract_x
_atom_site_fract_y
_atom_site_fract_z
Zn1	Zn	1.229665	-0.538911	0.692920
Zn2	Zn	1.250536	-0.638619	0.540205
Zn3	Zn	1.110256	-0.500011	0.523592
Zn4	Zn	1.079062	-0.631812	0.661759
O5	O	1.167379	-0.577338	0.604619
O6	O	1.354169	-0.571266	0.692656
O7	O	1.253717	-0.606801	0.416266
O8	O	1.130416	-0.408284	0.552142
O9	O	1.369502	-0.644521	0.580457
O10	O	1.218145	-0.436864	0.676547
O11	O	1.150654	-0.504966	0.404060
O12	O	0.984382	-0.498366	0.521926
O13	O	1.077250	-0.632920	0.787627
O14	O	0.961464	-0.595200	0.623437
O15	O	1.187897	-0.564666	0.810522
O16	O	1.223469	-0.734603	0.550240
O17	O	1.097488	-0.729602	0.639546
C18	C	0.941358	-0.541824	0.567498
C19	C	0.844661	-0.526650	0.551637
C20	C	0.524506	-0.685796	0.717981
C21	C	0.615358	-0.700057	0.732881
C22	C	0.672688	-0.656707	0.687571
C23	C	0.639157	-0.599092	0.627359
C24	C	0.548297	-0.584832	0.612453
C25	C	0.696479	-0.555743	0.582043
C26	C	0.662949	-0.498128	0.521832
C27	C	0.572097	-0.483871	0.506929
C28	C	0.514767	-0.527222	0.552238
C29	C	0.787340	-0.570003	0.596949
C30	C	0.811131	-0.469039	0.491422
C31	C	0.720279	-0.454778	0.476522
C32	C	1.159378	-0.757230	0.593337
C33	C	1.156030	-0.834204	0.588553
C34	C	1.200083	-0.885185	0.651115
C35	C	1.196933	-0.957510	0.646620
C36	C	1.149734	-0.978853	0.579560
C37	C	1.105676	-0.927866	0.516995
C38	C	1.108821	-0.855543	0.521494
C39	C	1.137950	-1.196483	0.562738
C40	C	1.134810	-1.268813	0.558242
C41	C	1.226067	-1.298452	0.687869
C42	C	1.229212	-1.226125	0.692358
C43	C	1.185150	-1.175145	0.629796
C44	C	1.146516	-1.052781	0.574963
C45	C	1.188364	-1.101218	0.634398
C46	C	1.394283	-0.612992	0.641885
C47	C	1.490975	-0.628185	0.657766
C48	C	1.126766	-0.602373	0.831522
C49	C	1.109459	-0.613041	0.928214
C50	C	1.175432	-0.396750	0.615968
C51	C	1.178863	-0.319794	0.620804
C52	C	1.207887	-0.552359	0.378610
C53	C	1.225371	-0.541522	0.281958
C54	C	1.291113	-0.500975	1.248455
C55	C	1.307379	-0.490953	1.157608
C56	C	1.257900	-0.521474	1.100255
C57	C	1.192153	-0.562018	1.133758
C58	C	1.175890	-0.572045	1.224614
C59	C	1.142677	-0.592545	1.076414
C60	C	1.076930	-0.633089	1.109917
C61	C	1.060669	-0.643114	1.200764
C62	C	1.110148	-0.612593	1.258117
C63	C	1.158940	-0.582518	0.985558
C64	C	1.043717	-0.653589	0.961717
C65	C	1.027451	-0.663610	1.052564
H66	H	0.544802	-0.436963	0.457891
C67	C	0.955139	-0.708219	1.089420
C68	C	0.858730	-0.685657	1.061046
C69	C	0.786421	-0.730268	1.097900
C70	C	0.810522	-0.797441	1.163127
C71	C	0.906936	-0.820007	1.191505
C72	C	0.979244	-0.775395	1.154651
H73	H	0.840885	-0.635928	1.012757
H74	H	0.715049	-0.713563	1.076892
H75	H	0.756995	-0.830465	1.190409
H76	H	0.924781	-0.869735	1.239794
H77	H	1.050616	-0.792100	1.175658
C78	C	1.275787	-0.510447	1.000322
C79	C	1.265304	-0.434880	0.950864
C80	C	1.283191	-0.423847	0.850927
C81	C	1.311562	-0.488381	0.800448
C82	C	1.322046	-0.563953	0.849907
C83	C	1.304159	-0.574986	0.949844
H84	H	1.244301	-0.387103	0.988232
H85	H	1.275430	-0.367903	0.814315
H86	H	1.324803	-0.480214	0.726469
H87	H	1.343049	-0.611730	0.812539
H88	H	1.311921	-0.630930	0.986455
C89	C	0.683388	-0.391406	0.410287
C90	C	0.616572	-0.331469	0.441262
C91	C	0.579679	-0.268098	0.375028
C92	C	0.609602	-0.264664	0.277818
C93	C	0.676421	-0.324604	0.246839
C94	C	0.713314	-0.387975	0.313073
H95	H	0.594418	-0.334009	0.513226
H96	H	0.530215	-0.223726	0.397961
H97	H	0.582291	-0.217753	0.228788
H98	H	0.698575	-0.322064	0.174874
H99	H	0.762778	-0.432346	0.290139
C100	C	1.345536	-0.467410	1.311544
C101	C	1.446414	-0.487229	1.314943
C102	C	1.500844	-0.453665	1.378035
C103	C	1.454396	-0.400281	1.437727
C104	C	1.353513	-0.380459	1.434329
C105	C	1.299083	-0.414024	1.371237
H106	H	1.480802	-0.526750	1.270754
H107	H	1.575524	-0.468338	1.380550
H108	H	1.494688	-0.375434	1.484431
H109	H	1.319125	-0.340939	1.478519
H110	H	1.224403	-0.399350	1.368722
H111	H	1.226789	-1.083839	0.689001
C112	C	0.988345	-0.687714	1.237607
C113	C	1.012418	-0.754893	1.302833
C114	C	0.940091	-0.799491	1.339668
C115	C	0.843689	-0.776911	1.311277
C116	C	0.819611	-0.709729	1.246048
C117	C	0.891939	-0.665130	1.209213
H118	H	1.083784	-0.771611	1.323852
H119	H	0.957915	-0.849224	1.387955
H120	H	0.790148	-0.809925	1.338545
H121	H	0.748245	-0.693010	1.225028
H122	H	0.874114	-0.615397	1.160926
C123	C	1.252004	-0.861711	0.724882
C124	C	1.351730	-0.886352	0.733496
C125	C	1.403650	-0.862881	0.807267
C126	C	1.355843	-0.814767	0.872425
C127	C	1.256111	-0.790123	0.863814
C128	C	1.204191	-0.813595	0.790043
H129	H	1.387125	-0.921971	0.685260
H130	H	1.477478	-0.881124	0.813641
H131	H	1.394277	-0.797392	0.927035
H132	H	1.220716	-0.754505	0.912050
H133	H	1.130362	-0.795352	0.783669
C134	C	1.082884	-1.292287	0.484471
C135	C	1.005661	-1.335471	0.507794
C136	C	0.953740	-1.358944	0.434024
C137	C	0.979043	-1.339233	0.336931
C138	C	1.056271	-1.296046	0.313603
C139	C	1.108192	-1.272573	0.387373
H140	H	0.986926	-1.350064	0.579672
H141	H	0.896571	-1.390913	0.451294
H142	H	0.940609	-1.356609	0.282322
H143	H	1.075006	-1.281453	0.241725
H144	H	1.165361	-1.240604	0.370104
C145	C	1.379695	-0.446356	1.120757
C146	C	1.434120	-0.412782	1.183837
C147	C	1.506440	-0.368181	1.146985
C148	C	1.524335	-0.357155	1.047053
C149	C	1.469908	-0.390730	0.983968
C150	C	1.397588	-0.435330	1.020819
H151	H	1.420874	-0.420943	1.257817
H152	H	1.546730	-0.343327	1.193686
H153	H	1.577870	-0.324139	1.019774
H154	H	1.483154	-0.382568	0.909987
H155	H	1.357299	-0.460185	0.974119
H156	H	1.108089	-1.070167	0.520360
H157	H	0.857810	-0.433741	0.454525
H158	H	1.096907	-0.620750	1.332093
H159	H	1.232814	-0.999017	0.697559
H160	H	1.267645	-1.208750	0.746964
C161	C	1.089490	-1.140415	0.493911
C162	C	1.113944	-1.140608	0.395584
C163	C	1.065483	-1.084538	0.326751
C164	C	0.992567	-1.028275	0.356244
C165	C	0.968110	-1.028080	0.454576
C166	C	1.016571	-1.084150	0.523409
H167	H	1.167924	-1.182259	0.373747
H168	H	1.083588	-1.084682	0.253959
H169	H	0.956693	-0.986768	0.305290
H170	H	0.914130	-0.986429	0.476413
H171	H	0.998465	-1.084006	0.596201
H172	H	1.003429	-0.678443	0.915020
C173	C	0.824217	-0.633372	0.663184
C174	C	0.809528	-0.709313	0.648938
C175	C	0.846404	-0.772686	0.715178
C176	C	0.897967	-0.760118	0.795665
C177	C	0.912658	-0.684174	0.809914
C178	C	0.875783	-0.620801	0.743674
H179	H	0.771355	-0.718620	0.589354
H180	H	0.835528	-0.828905	0.704629
H181	H	0.925265	-0.807030	0.844700
H182	H	0.950831	-0.674867	0.869498
H183	H	0.886658	-0.564582	0.754223
C184	C	0.652235	-0.763427	0.799115
C185	C	0.637545	-0.839367	0.784870
C186	C	0.674421	-0.902740	0.851110
C187	C	0.725987	-0.890172	0.931596
C188	C	0.740680	-0.814228	0.945844
C189	C	0.703804	-0.750855	0.879603
H190	H	0.599370	-0.848674	0.725287
H191	H	0.663544	-0.958959	0.840563
H192	H	0.753285	-0.937084	0.980631
H193	H	0.778854	-0.804921	1.005427
H194	H	0.714680	-0.694636	0.890151
H195	H	0.746663	-0.668322	0.699706
H196	H	0.477821	-0.721089	0.754860
H197	H	0.440787	-0.515612	0.540112
H198	H	1.261938	-1.339967	0.738804
H199	H	1.067241	-0.945249	0.462396
H200	H	1.072947	-0.814033	0.470550
H201	H	1.212472	-0.549506	0.958290
