data_functionalizedCrystal
_audit_creation_method	'MofGen! by Chris Wilmer'
_symmetry_space_group_name_H-M	'P1'
_symmetry_Int_Tables_number	1
_symmetry_cell_setting	triclinic
loop_
_symmetry_equiv_pos_as_xyz
  x,y,z
_cell_length_a	19.288864
_cell_length_b	14.044220
_cell_length_c	17.766277
_cell_angle_alpha	89.993125
_cell_angle_beta	89.976791
_cell_angle_gamma	88.162561
loop_
_atom_site_label
_atom_site_type_symbol
_atom_site_fract_x
_atom_site_fract_y
_atom_site_fract_z
O1	O	0.928949	0.118215	-0.062840
O2	O	1.262282	0.451548	0.270494
O3	O	1.595615	0.784881	0.603827
O4	O	0.727713	0.134161	-0.062789
O5	O	1.061046	0.467495	0.270545
O6	O	1.394379	0.800828	0.603878
O7	O	0.825310	-0.011784	-0.062806
O8	O	1.158643	0.321550	0.270527
O9	O	1.491977	0.654883	0.603861
O10	O	0.831351	0.264160	-0.062822
O11	O	1.164684	0.597493	0.270511
O12	O	1.498018	0.930826	0.603844
O13	O	0.825291	-0.011791	0.062383
O14	O	1.158624	0.321542	0.395716
O15	O	1.491957	0.654876	0.729049
O16	O	0.727693	0.134154	0.062400
O17	O	1.061027	0.467487	0.395733
O18	O	1.394360	0.800821	0.729066
O19	O	0.928929	0.118207	0.062349
O20	O	1.262263	0.451541	0.395682
O21	O	1.595596	0.784874	0.729016
Cu22	Cu	0.828310	0.126180	0.073805
Cu23	Cu	1.161643	0.459513	0.407138
Cu24	Cu	1.494976	0.792847	0.740472
Cu25	Cu	0.828332	0.126189	-0.074245
Cu26	Cu	1.161666	0.459522	0.259088
Cu27	Cu	1.494999	0.792855	0.592422
O28	O	0.831332	0.264152	0.062366
O29	O	1.164665	0.597486	0.395699
O30	O	1.497999	0.930819	0.729033
C31	C	0.701794	0.133645	-0.000188
C32	C	1.035127	0.466978	0.333145
C33	C	1.368460	0.800311	0.666479
C34	C	0.624591	0.132104	-0.000168
C35	C	0.957924	0.465438	0.333165
C36	C	1.291258	0.798771	0.666499
C37	C	0.585397	0.217738	-0.000185
C38	C	0.918730	0.551072	0.333148
C39	C	1.252063	0.884405	0.666482
C40	C	0.512857	0.216291	-0.000193
C41	C	0.846190	0.549625	0.333140
C42	C	1.179523	0.882958	0.666473
C43	C	0.479514	0.129205	-0.000200
C44	C	0.812847	0.462539	0.333134
C45	C	1.146180	0.795872	0.666467
C46	C	0.518717	0.043560	-0.000178
C47	C	0.852050	0.376893	0.333155
C48	C	1.185384	0.710227	0.666488
C49	C	0.591256	0.045010	-0.000163
C50	C	0.924589	0.378343	0.333171
C51	C	1.257922	0.711676	0.666504
C52	C	0.366860	0.060749	-0.044080
C53	C	0.700193	0.394082	0.289253
C54	C	1.033527	0.727415	0.622587
C55	C	0.294323	0.059303	-0.044100
C56	C	0.627656	0.392636	0.289233
C57	C	0.960989	0.725969	0.622566
C58	C	0.255781	0.124731	-0.000245
C59	C	0.589114	0.458064	0.333088
C60	C	0.922447	0.791398	0.666422
C61	C	0.289785	0.191621	0.043621
C62	C	0.623118	0.524954	0.376955
C63	C	0.956451	0.858288	0.710288
C64	C	0.362323	0.193071	0.043637
C65	C	0.695657	0.526404	0.376970
C66	C	1.028990	0.859737	0.710304
C67	C	0.400858	0.127624	-0.000216
C68	C	0.734192	0.460957	0.333117
C69	C	1.067525	0.794291	0.666450
C70	C	0.137930	0.208802	-0.000270
C71	C	0.471263	0.542135	0.333064
C72	C	0.804597	0.875468	0.666397
C73	C	0.065389	0.207351	-0.000273
C74	C	0.398722	0.540684	0.333060
C75	C	0.732056	0.874018	0.666393
C76	C	0.071251	0.034617	-0.000266
C77	C	0.404584	0.367951	0.333067
C78	C	0.737917	0.701284	0.666401
C79	C	0.143790	0.036071	-0.000255
C80	C	0.477124	0.369404	0.333078
C81	C	0.810457	0.702737	0.666412
C82	C	0.177126	0.123165	-0.000260
C83	C	0.510459	0.456499	0.333073
C84	C	0.843792	0.789832	0.666406
C85	C	0.822656	-0.047091	-0.000211
C86	C	1.155989	0.286243	0.333123
C87	C	1.489323	0.619576	0.666456
C88	C	0.814768	-0.152283	-0.000208
C89	C	1.148102	0.181051	0.333125
C90	C	1.481435	0.514384	0.666459
C91	C	0.800348	-0.344882	-0.000215
C92	C	1.133681	-0.011549	0.333118
C93	C	1.467014	0.321784	0.666452
C94	C	0.856291	-0.402755	-0.000231
C95	C	1.189624	-0.069421	0.333102
C96	C	1.522958	0.263912	0.666435
C97	C	0.848267	-0.509924	-0.000235
C98	C	1.181601	-0.176590	0.333098
C99	C	1.514934	0.156743	0.666431
C100	C	0.808370	-0.237703	-0.000211
C101	C	1.141704	0.095630	0.333122
C102	C	1.475037	0.428963	0.666456
C103	C	0.954848	0.118724	-0.000254
C104	C	1.288182	0.452057	0.333080
C105	C	1.621515	0.785391	0.666413
C106	C	1.032051	0.120264	-0.000278
C107	C	1.365384	0.453598	0.333055
C108	C	1.698718	0.786931	0.666388
C109	C	0.833986	0.299459	-0.000231
C110	C	1.167319	0.632792	0.333103
C111	C	1.500653	0.966126	0.666436
C112	C	0.841874	0.404651	-0.000239
C113	C	1.175207	0.737985	0.333095
C114	C	1.508540	1.071318	0.666428
N115	N	0.828299	0.126173	0.177935
N116	N	1.161632	0.459507	0.511269
N117	N	1.494965	0.792840	0.844602
N118	N	0.828348	0.126188	-0.178375
N119	N	1.161682	0.459521	0.154958
N120	N	1.495015	0.792855	0.488291
C121	C	0.871532	0.061580	0.217315
C122	C	1.204865	0.394914	0.550648
C123	C	1.538199	0.728247	0.883981
C124	C	0.871536	0.061576	0.296116
C125	C	1.204869	0.394909	0.629450
C126	C	1.538202	0.728243	0.962783
C127	C	0.828314	0.126181	0.335536
C128	C	1.161647	0.459514	0.668869
C129	C	1.494980	0.792847	1.002203
C130	C	0.785072	0.190779	0.296147
C131	C	1.118405	0.524112	0.629480
C132	C	1.451738	0.857445	0.962814
C133	C	0.785064	0.190775	0.217347
C134	C	1.118398	0.524108	0.550680
C135	C	1.451731	0.857442	0.884014
C136	C	0.824563	0.212524	0.460370
C137	C	1.157896	0.545857	0.793704
C138	C	1.491229	0.879191	1.127037
C139	C	0.824575	0.212529	0.539169
C140	C	1.157908	0.545862	0.872502
C141	C	1.491242	0.879196	1.205836
C142	C	0.828333	0.126192	0.578582
C143	C	1.161666	0.459525	0.911916
C144	C	1.495000	0.792859	1.245249
C145	C	0.832093	0.039847	0.539187
C146	C	1.165426	0.373180	0.872520
C147	C	1.498760	0.706513	1.205854
C148	C	0.832085	0.039843	0.460387
C149	C	1.165419	0.373176	0.793720
C150	C	1.498752	0.706510	1.127053
C151	C	0.828317	0.126192	0.420982
C152	C	1.161650	0.459525	0.754315
C153	C	1.494983	0.792858	1.087648
C154	C	0.871573	0.061589	0.703407
C155	C	1.204906	0.394922	1.036741
C156	C	1.538239	0.728256	1.370074
C157	C	0.871572	0.061583	0.782211
C158	C	1.204905	0.394917	1.115544
C159	C	1.538238	0.728250	1.448877
C160	C	0.785111	0.190794	0.782240
C161	C	1.118445	0.524128	1.115573
C162	C	1.451778	0.857461	1.448907
C163	C	0.785109	0.190792	0.703438
C164	C	1.118442	0.524125	1.036772
C165	C	1.451775	0.857458	1.370105
C166	C	0.828343	0.126190	0.664027
C167	C	1.161677	0.459524	0.997360
C168	C	1.495010	0.792857	1.330693
H169	H	0.390006	0.247532	0.079357
H170	H	0.723340	0.580865	0.412690
H171	H	1.056673	0.914199	0.746023
F172	F	0.173411	0.301494	-0.000270
F173	F	0.506744	0.634827	0.333064
F174	F	0.840077	0.968161	0.666397
F175	F	0.407872	-0.008895	-0.090760
F176	F	0.741206	0.324439	0.242574
F177	F	1.074539	0.657772	0.575907
F178	F	0.729874	-0.385322	-0.000201
F179	F	1.063207	-0.051988	0.333132
F180	F	1.396540	0.281345	0.666466
F181	F	0.248772	0.261261	0.090299
F182	F	0.582105	0.594594	0.423632
F183	F	0.915438	0.927928	0.756965
F184	F	0.917543	-0.007177	0.175372
F185	F	1.250876	0.326157	0.508705
F186	F	1.584209	0.659490	0.842038
H187	H	0.612534	0.288658	-0.000191
H188	H	0.945867	0.621991	0.333143
H189	H	1.279200	0.955324	0.666476
F190	F	0.917553	-0.007176	0.338034
F191	F	1.250887	0.326157	0.671367
F192	F	1.584220	0.659490	1.004700
F193	F	0.739069	0.259533	0.338101
F194	F	1.072402	0.592866	0.671434
F195	F	1.405736	0.926200	1.004767
F196	F	0.836081	-0.052049	0.418462
F197	F	1.169415	0.281284	0.751796
F198	F	1.502748	0.614617	1.085129
F199	F	0.258139	-0.011879	-0.090793
F200	F	0.591473	0.321454	0.242540
F201	F	0.924806	0.654787	0.575874
F202	F	0.836097	-0.052047	0.581127
F203	F	1.169430	0.281287	0.914460
F204	F	1.502764	0.614620	1.247793
H205	H	0.910212	-0.371814	-0.000296
H206	H	1.243545	-0.038480	0.333038
H207	H	1.576878	0.294853	0.666371
F208	F	0.917584	-0.007169	0.661462
F209	F	1.250917	0.326164	0.994795
F210	F	1.584250	0.659497	1.328129
H211	H	0.044104	-0.036290	-0.000318
H212	H	0.377437	0.297044	0.333015
H213	H	0.710770	0.630377	0.666349
H214	H	0.906775	0.008979	0.814274
H215	H	1.240108	0.342312	1.147607
H216	H	1.573442	0.675646	1.480941
H217	H	0.491565	-0.027346	-0.000194
H218	H	0.824898	0.305987	0.333139
H219	H	1.158231	0.639321	0.666473
H220	H	0.749916	0.243393	0.814335
H221	H	1.083250	0.576727	1.147668
H222	H	1.416583	0.910060	1.481001
F223	F	0.820613	0.304423	0.418431
F224	F	1.153947	0.637757	0.751765
F225	F	1.487280	0.971090	1.085098
F226	F	0.023675	0.298500	-0.000287
F227	F	0.357009	0.631833	0.333046
F228	F	0.690342	0.965166	0.666379
F229	F	0.471135	0.307438	-0.000209
F230	F	0.804469	0.640772	0.333124
F231	F	1.137802	0.974105	0.666457
F232	F	0.739097	0.259545	0.661525
F233	F	1.072430	0.592878	0.994858
F234	F	1.405764	0.926211	1.328191
F235	F	0.820578	0.304424	0.581089
F236	F	1.153912	0.637758	0.914422
F237	F	1.487245	0.971091	1.247756
H238	H	0.175703	-0.033662	-0.000245
H239	H	0.509036	0.299671	0.333088
H240	H	0.842370	0.633005	0.666421
F241	F	0.632970	-0.046138	-0.000145
F242	F	0.966304	0.287195	0.333189
F243	F	1.299637	0.620529	0.666522
H244	H	0.749858	0.243375	0.185284
H245	H	1.083191	0.576708	0.518617
H246	H	1.416524	0.910042	0.851950
