data_functionalizedCrystal
_audit_creation_method	'MofGen! by Chris Wilmer'
_symmetry_space_group_name_H-M	'P1'
_symmetry_Int_Tables_number	1
_symmetry_cell_setting	triclinic
loop_
_symmetry_equiv_pos_as_xyz
  x,y,z
_cell_length_a	9.065215
_cell_length_b	11.026607
_cell_length_c	8.140239
_cell_angle_alpha	90.001690
_cell_angle_beta	90.002190
_cell_angle_gamma	96.800357
loop_
_atom_site_label
_atom_site_type_symbol
_atom_site_fract_x
_atom_site_fract_y
_atom_site_fract_z
O1	O	2.004898	0.178436	0.136589
O2	O	2.338231	0.511769	0.469922
O3	O	2.671564	0.845102	0.803256
O4	O	1.579264	0.193077	0.136596
O5	O	1.912597	0.526410	0.469929
O6	O	2.245930	0.859744	0.803263
O7	O	1.756804	0.008716	0.136587
O8	O	2.090138	0.342049	0.469920
O9	O	2.423471	0.675383	0.803254
O10	O	1.827357	0.362797	0.136598
O11	O	2.160690	0.696130	0.469931
O12	O	2.494023	1.029464	0.803264
O13	O	1.756791	0.008714	-0.136640
O14	O	2.090125	0.342047	0.196693
O15	O	2.423458	0.675380	0.530027
O16	O	1.579250	0.193075	-0.136631
O17	O	1.912584	0.526408	0.196702
O18	O	2.245917	0.859741	0.530036
O19	O	2.004885	0.178434	-0.136638
O20	O	2.338218	0.511767	0.196695
O21	O	2.671551	0.845100	0.530029
Zn22	Zn	1.792065	0.185754	-0.180015
Zn23	Zn	2.125399	0.519087	0.153318
Zn24	Zn	2.458732	0.852421	0.486651
Zn25	Zn	1.792083	0.185757	0.179973
Zn26	Zn	2.125416	0.519090	0.513306
Zn27	Zn	2.458749	0.852423	0.846640
O28	O	1.827344	0.362795	-0.136629
O29	O	2.160677	0.696128	0.196704
O30	O	2.494010	1.029461	0.530037
C31	C	1.523920	0.191670	-0.000017
C32	C	1.857253	0.525003	0.333317
C33	C	2.190586	0.858336	0.666650
C34	C	1.359028	0.187465	-0.000014
C35	C	1.692361	0.520798	0.333319
C36	C	2.025695	0.854131	0.666653
C37	C	1.743782	-0.036639	-0.000024
C38	C	2.077116	0.296694	0.333309
C39	C	2.410449	0.630028	0.666642
C40	C	1.704982	-0.171779	-0.000018
C41	C	2.038315	0.161554	0.333315
C42	C	2.371649	0.494888	0.666649
C43	C	2.060229	0.179841	-0.000022
C44	C	2.393562	0.513174	0.333311
C45	C	2.726895	0.846508	0.666645
C46	C	2.225120	0.184046	-0.000014
C47	C	2.558454	0.517379	0.333319
C48	C	2.891787	0.850713	0.666653
C49	C	1.812116	-0.244408	-0.000017
C50	C	2.145449	0.088925	0.333316
C51	C	2.478782	0.422258	0.666649
C52	C	1.772017	-0.384083	-0.000011
C53	C	2.105350	-0.050750	0.333323
C54	C	2.438683	0.282584	0.666656
C55	C	1.840366	0.408150	-0.000014
C56	C	2.173699	0.741483	0.333319
C57	C	2.507033	1.074816	0.666652
C58	C	1.879166	0.543290	-0.000010
C59	C	2.212499	0.876623	0.333323
C60	C	2.545833	1.209956	0.666657
N61	N	1.792064	0.185751	-0.425698
N62	N	2.125398	0.519085	-0.092365
N63	N	2.458731	0.852418	0.240969
N64	N	1.792093	0.185750	0.425656
N65	N	2.125426	0.519083	0.758989
N66	N	2.458760	0.852417	1.092322
H67	H	1.933523	-0.203183	-0.000029
H68	H	2.266857	0.130150	0.333304
H69	H	2.600190	0.463483	0.666637
H70	H	1.650601	-0.425302	0.000002
H71	H	1.983935	-0.091969	0.333336
H72	H	2.317268	0.241365	0.666669
F73	F	2.037867	-0.402842	-0.000005
F74	F	2.371200	-0.069508	0.333328
F75	F	2.704534	0.263825	0.666662
F76	F	1.546290	-0.225656	-0.000000
F77	F	1.879623	0.107677	0.333333
F78	F	2.212957	0.441011	0.666666
