data_functionalizedCrystal
_audit_creation_method	'MofGen! by Chris Wilmer'
_symmetry_space_group_name_H-M	'P1'
_symmetry_Int_Tables_number	1
_symmetry_cell_setting	triclinic
loop_
_symmetry_equiv_pos_as_xyz
  x,y,z
_cell_length_a	8.497374
_cell_length_b	8.497374
_cell_length_c	12.827893
_cell_angle_alpha	89.995383
_cell_angle_beta	90.001983
_cell_angle_gamma	90.001110
loop_
_atom_site_label
_atom_site_type_symbol
_atom_site_fract_x
_atom_site_fract_y
_atom_site_fract_z
Zn1	Zn	0.892040	-0.628318	1.597636
Zn2	Zn	0.628280	-0.892067	1.597644
Zn3	Zn	0.628268	-0.628295	1.422931
Zn4	Zn	0.892012	-0.892049	1.422924
O5	O	0.760150	-0.760182	1.510284
O6	O	0.857068	-0.663321	1.743873
O7	O	0.407516	-0.857075	1.574474
O8	O	0.663264	-0.407535	1.446105
O9	O	0.663285	-0.857097	1.743879
O10	O	0.857056	-0.407552	1.574461
O11	O	0.407507	-0.663283	1.446113
O12	O	0.663237	-0.663265	1.276694
O13	O	1.112778	-0.857067	1.446094
O14	O	0.857009	-0.857045	1.276689
O15	O	1.112798	-0.663304	1.574454
O16	O	0.663258	-1.112827	1.574468
O17	O	0.857021	-1.112814	1.446102
C18	C	0.760120	-0.760152	1.238774
C19	C	0.760144	-0.760177	1.122621
C20	C	1.350270	-0.760208	1.510290
C21	C	1.171626	-0.760200	1.510279
C22	C	0.855881	-0.856215	1.070861
C23	C	0.855909	-0.856243	0.950811
C24	C	0.760157	-0.348702	1.510275
C25	C	0.760162	-0.170058	1.510275
C26	C	0.760181	-0.760214	1.782854
C27	C	0.760194	-0.760227	1.899007
H28	H	0.937830	-0.938410	1.115425
H29	H	0.937868	-0.938469	0.906299
C30	C	0.548149	-0.738151	0.999735
C31	C	0.649494	-0.649213	1.062482
H32	H	0.479825	-0.669645	0.962618
H33	H	0.608218	-0.798379	0.951704
H34	H	0.487653	-0.806729	1.042334
H35	H	0.709998	-0.580643	1.019882
H36	H	0.589418	-0.588958	1.110518
H37	H	0.678221	-0.678007	0.943512
