data_functionalizedCrystal
_audit_creation_method	'MofGen! by Chris Wilmer'
_symmetry_space_group_name_H-M	'P1'
_symmetry_Int_Tables_number	1
_symmetry_cell_setting	triclinic
loop_
_symmetry_equiv_pos_as_xyz
  x,y,z
_cell_length_a	14.519709
_cell_length_b	9.016244
_cell_length_c	14.519709
_cell_angle_alpha	89.992281
_cell_angle_beta	96.319855
_cell_angle_gamma	89.996765
loop_
_atom_site_label
_atom_site_type_symbol
_atom_site_fract_x
_atom_site_fract_y
_atom_site_fract_z
O1	O	1.223864	0.123150	-0.120894
O2	O	0.955387	0.123196	-0.135131
O3	O	1.096744	0.123159	0.006226
O4	O	1.082508	0.123188	-0.262251
O5	O	1.096738	-0.123522	0.006236
O6	O	0.955382	-0.123485	-0.135120
O7	O	1.223858	-0.123530	-0.120884
Cu8	Cu	1.089619	-0.146031	-0.128001
Cu9	Cu	1.089626	0.145697	-0.128013
O10	O	1.082502	-0.123493	-0.262240
C11	C	0.921025	-0.000139	-0.134462
C12	C	0.818643	-0.000122	-0.132474
N13	N	1.089621	-0.351218	-0.127992
C14	C	0.443748	-0.000190	-0.125154
C15	C	0.548056	-0.000170	-0.127187
C16	C	0.631192	-0.000154	-0.128814
C17	C	0.735507	-0.000138	-0.130847
C18	C	1.165516	-0.586224	-0.052632
C19	C	1.165315	-0.414333	-0.052348
C20	C	0.993371	-0.413629	-0.106816
C21	C	0.993822	-0.585574	-0.106288
C22	C	1.109130	-0.585715	-0.224794
C23	C	1.111311	-0.413760	-0.224145
C24	C	1.258221	-0.000192	-0.121553
C25	C	1.360602	-0.000200	-0.123541
C26	C	1.096078	-0.000182	0.040591
C27	C	1.094090	-0.000182	0.142972
N28	N	1.089632	0.350883	-0.128015
C29	C	1.083168	-0.000149	-0.296605
C30	C	1.085156	-0.000139	-0.398987
C31	C	1.086770	-0.000143	0.517868
C32	C	1.088803	-0.000154	0.413560
C33	C	1.090430	-0.000164	0.330423
C34	C	1.092463	-0.000173	0.226109
H35	H	1.236857	-0.372136	-0.064981
H36	H	1.237299	-0.627574	-0.065066
H37	H	1.153223	-0.629456	0.018778
N38	N	1.035835	-0.639580	-0.299110
H39	H	0.990213	-0.704733	-0.270281
H40	H	1.066108	-0.698336	-0.346781
H41	H	0.935534	-0.372746	-0.160250
H42	H	0.935650	-0.627178	-0.159097
H43	H	1.177825	-0.629078	-0.245110
N44	N	1.042857	-0.356861	-0.301950
H45	H	1.076925	-0.299737	-0.347536
H46	H	0.996627	-0.289502	-0.275777
H47	H	0.975791	-0.370584	-0.037031
H48	H	1.152840	-0.373219	0.019472
N49	N	0.971108	-0.638739	-0.012788
H50	H	0.960896	-0.550479	0.027698
H51	H	1.024223	-0.700233	0.017423
H52	H	1.182117	-0.372970	-0.240210
