data_functionalizedCrystal
_audit_creation_method	'MofGen! by Chris Wilmer'
_symmetry_space_group_name_H-M	'P1'
_symmetry_Int_Tables_number	1
_symmetry_cell_setting	triclinic
loop_
_symmetry_equiv_pos_as_xyz
  x,y,z
_cell_length_a	15.944551
_cell_length_b	12.837942
_cell_length_c	11.892095
_cell_angle_alpha	85.697431
_cell_angle_beta	93.894845
_cell_angle_gamma	89.163839
loop_
_atom_site_label
_atom_site_type_symbol
_atom_site_fract_x
_atom_site_fract_y
_atom_site_fract_z
O1	O	-1.130053	-0.127078	-0.093883
O2	O	-0.630053	0.372922	0.406117
O3	O	-0.886824	-0.143559	-0.093911
O4	O	-0.386824	0.356441	0.406089
O5	O	-1.003045	0.015584	-0.093891
O6	O	-0.503045	0.515584	0.406109
O7	O	-1.013832	-0.286221	-0.093904
O8	O	-0.513832	0.213779	0.406096
O9	O	-0.993353	0.002336	0.094115
O10	O	-0.493353	0.502336	0.594115
O11	O	-0.877132	-0.156808	0.094095
O12	O	-0.377132	0.343192	0.594095
O13	O	-1.120361	-0.140326	0.094122
O14	O	-0.620361	0.359674	0.594122
Zn15	Zn	-0.997208	-0.150670	0.123958
Zn16	Zn	-0.497208	0.349330	0.623958
Zn17	Zn	-1.009977	-0.133215	-0.123747
Zn18	Zn	-0.509977	0.366785	0.376253
O19	O	-1.004140	-0.299470	0.094102
O20	O	-0.504140	0.200530	0.594102
C21	C	-0.850629	-0.149499	0.000088
C22	C	-0.350629	0.350501	0.500088
C23	C	-0.757219	-0.147447	0.000078
C24	C	-0.257219	0.352553	0.500078
C25	C	-0.994555	0.047581	0.000111
C26	C	-0.494555	0.547581	0.500111
C27	C	-0.983687	0.162659	0.000108
C28	C	-0.483687	0.662659	0.500108
C29	C	-1.156556	-0.134386	0.000121
C30	C	-0.656556	0.365614	0.500121
C31	C	-1.249966	-0.136438	0.000124
C32	C	-0.749966	0.363562	0.500124
C33	C	-0.534078	-0.043899	0.000104
C34	C	-0.034078	0.456101	0.500104
C35	C	-0.481683	-0.085452	-0.092595
C36	C	0.018317	0.414548	0.407405
C37	C	-0.586196	-0.143736	0.000091
C38	C	-0.086196	0.356264	0.500091
C39	C	-0.472152	-0.098537	0.092764
C40	C	0.027848	0.401463	0.592764
C41	C	-0.420995	-0.140145	0.000109
C42	C	0.079005	0.359855	0.500109
C43	C	-0.535035	-0.185310	-0.092684
C44	C	-0.035035	0.314690	0.407316
C45	C	-0.525505	-0.198388	0.092758
C46	C	-0.025505	0.301612	0.592758
C47	C	-0.473135	-0.240011	0.000036
C48	C	0.026865	0.259989	0.500036
C49	C	-0.681364	-0.145802	0.000080
C50	C	-0.181364	0.354198	0.500080
C51	C	-0.325829	-0.138086	0.000112
C52	C	0.174171	0.361914	0.500112
C53	C	-1.012630	-0.331466	0.000098
C54	C	-0.512630	0.168534	0.500098
C55	C	-1.023498	-0.446544	0.000094
C56	C	-0.523498	0.053456	0.500094
N57	N	-0.988499	-0.162583	0.293011
N58	N	-0.488499	0.337417	0.793011
C59	C	-1.114340	0.403609	0.000099
C60	C	-0.614340	0.903609	0.500099
C61	C	-1.104133	0.511736	0.000096
C62	C	-0.604133	1.011736	0.500096
C63	C	-0.953066	0.487042	0.000091
C64	C	-0.453066	0.987042	0.500091
C65	C	-0.963274	0.378915	0.000094
C66	C	-0.463274	0.878915	0.500094
C67	C	-1.043913	0.337203	0.000100
C68	C	-0.543913	0.837203	0.500100
C69	C	-1.054119	0.229073	0.000111
C70	C	-0.554119	0.729073	0.500111
C71	C	-0.903054	0.204382	0.000097
C72	C	-0.403054	0.704382	0.500097
C73	C	-0.892846	0.312509	0.000094
C74	C	-0.392846	0.812509	0.500094
N75	N	-1.018692	-0.121294	-0.292800
N76	N	-0.518692	0.378706	0.207200
C77	C	-1.079287	-0.038343	0.529675
C78	C	-0.579287	0.461657	1.029675
C79	C	-1.073206	-0.046677	0.648016
C80	C	-0.573206	0.453323	1.148016
C81	C	-0.970253	-0.187580	0.648036
C82	C	-0.470253	0.312420	1.148036
C83	C	-0.976334	-0.179246	0.529695
C84	C	-0.476334	0.320754	1.029695
C85	C	-1.030853	-0.104626	0.470519
C86	C	-0.530853	0.395374	0.970519
C87	C	-1.036938	-0.096297	0.352176
C88	C	-0.536938	0.403703	0.852176
C89	C	-0.933981	-0.237194	0.352198
C90	C	-0.433981	0.262806	0.852198
C91	C	-0.927900	-0.245528	0.470539
C92	C	-0.427900	0.254472	0.970539
H93	H	-0.462235	-0.037702	-0.170962
H94	H	0.037765	0.462298	0.329038
H95	H	-1.081333	-0.035541	0.303995
H96	H	-0.581333	0.464459	0.803995
H97	H	-0.883509	-0.306280	0.518734
H98	H	-0.383509	0.193720	1.018734
C99	C	-1.203036	0.357721	0.000115
C100	C	-0.703036	0.857721	0.500115
H101	H	-1.243520	0.412757	0.000112
H102	H	-0.743520	0.912757	0.500112
H103	H	-1.206776	0.311436	0.065678
H104	H	-0.706776	0.811436	0.565678
H105	H	-1.213539	0.320672	-0.065454
H106	H	-0.713539	0.820672	0.434546
C107	C	-0.880701	-0.310112	0.287129
C108	C	-0.380701	0.189888	0.787129
H109	H	-0.847368	-0.355750	0.339325
H110	H	-0.347368	0.144250	0.839325
H111	H	-0.845123	-0.269552	0.240965
H112	H	-0.345123	0.230448	0.740965
H113	H	-0.916753	-0.350040	0.240966
H114	H	-0.416753	0.149960	0.740966
H115	H	-0.560789	0.038966	-0.000007
H116	H	-0.060789	0.538966	0.499993
C117	C	-0.437298	-0.352047	-0.000036
C118	C	0.062702	0.147953	0.499964
H119	H	-0.459030	-0.382696	-0.065945
H120	H	0.040970	0.117304	0.434055
H121	H	-0.453021	-0.392370	0.065186
H122	H	0.046979	0.107630	0.565186
H123	H	-0.377729	-0.350188	0.000581
H124	H	0.122271	0.149812	0.500581
H125	H	-0.562443	-0.221977	-0.171139
H126	H	-0.062443	0.278023	0.328861
H127	H	-0.887414	0.521025	0.000074
H128	H	-0.387414	1.021025	0.500074
C129	C	-1.142817	0.183190	0.000114
C130	C	-0.642817	0.683190	0.500114
H131	H	-1.183299	0.238231	0.000101
H132	H	-0.683299	0.738231	0.500101
H133	H	-1.146567	0.136907	0.065676
H134	H	-0.646567	0.636907	0.565676
H135	H	-1.153314	0.146142	-0.065456
H136	H	-0.653314	0.646142	0.434544
H137	H	-0.827192	0.346487	0.000085
H138	H	-0.327192	0.846487	0.500085
H139	H	-0.544971	-0.246103	0.171128
H140	H	-0.044971	0.253897	0.671128
C141	C	-1.139257	0.043729	0.464578
C142	C	-0.639257	0.543729	0.964578
H143	H	-1.167231	0.082015	0.516759
H144	H	-0.667231	0.582015	1.016759
H145	H	-1.179577	0.009663	0.418403
H146	H	-0.679577	0.509663	0.918403
H147	H	-1.107954	0.090161	0.418422
H148	H	-0.607954	0.590161	0.918422
H149	H	-0.845706	0.150301	0.000106
H150	H	-0.345706	0.650301	0.500106
H151	H	-1.112645	0.007298	0.696177
H152	H	-0.612645	0.507298	1.196177
C153	C	-0.434993	-0.048939	0.198634
C154	C	0.065007	0.451061	0.698634
H155	H	-0.398764	-0.098208	0.242288
H156	H	0.101236	0.401792	0.742288
H157	H	-0.479261	-0.028901	0.242572
H158	H	0.020739	0.471099	0.742572
H159	H	-0.404014	0.010890	0.176346
H160	H	0.095986	0.510890	0.676346
C161	C	-1.181602	0.584779	0.000102
C162	C	-0.681602	1.084779	0.500102
H163	H	-1.231086	0.544446	0.000114
H164	H	-0.731086	1.044446	0.500114
H165	H	-1.184139	0.632091	-0.065459
H166	H	-0.684139	1.132091	0.434541
H167	H	-1.177381	0.622852	0.065673
H168	H	-0.677381	1.122852	0.565673
H169	H	-0.925858	-0.248327	0.696232
H170	H	-0.425858	0.251673	1.196232
