data_functionalizedCrystal
_audit_creation_method	'MofGen! by Chris Wilmer'
_symmetry_space_group_name_H-M	'P1'
_symmetry_Int_Tables_number	1
_symmetry_cell_setting	triclinic
loop_
_symmetry_equiv_pos_as_xyz
  x,y,z
_cell_length_a	6.817900
_cell_length_b	17.458045
_cell_length_c	17.078481
_cell_angle_alpha	95.900285
_cell_angle_beta	99.306161
_cell_angle_gamma	106.367962
loop_
_atom_site_label
_atom_site_type_symbol
_atom_site_fract_x
_atom_site_fract_y
_atom_site_fract_z
V1	V	-3.994431	-0.110378	-0.248065
O2	O	-3.967309	0.005496	-0.242618
O3	O	-3.960837	-0.219046	-0.247067
O4	O	-3.925238	-0.108596	-0.355937
O5	O	-4.003154	-0.105718	-0.132994
V6	V	-4.478835	-0.096528	-0.234217
O7	O	-4.253757	-0.140759	-0.278443
O8	O	-4.669705	-0.066147	-0.203840
O9	O	-4.289222	0.012140	-0.235216
O10	O	-4.623354	-0.212402	-0.239665
O11	O	-4.587508	-0.101188	-0.349289
O12	O	-4.324821	-0.098310	-0.126346
C13	C	-3.810113	-0.245539	-0.243333
C14	C	-3.863794	-0.334376	-0.243236
C15	C	-3.707115	-0.372046	-0.239204
C16	C	-3.757563	-0.455517	-0.239103
C17	C	-3.964692	-0.501316	-0.243039
C18	C	-4.121380	-0.463639	-0.247068
C19	C	-4.070929	-0.380169	-0.247164
C20	C	-4.135083	-0.751389	-0.243175
C21	C	-4.185524	-0.834865	-0.243081
C22	C	-3.821702	-0.826736	-0.235115
C23	C	-3.771269	-0.743266	-0.235215
C24	C	-3.927958	-0.705596	-0.239240
N25	N	-4.016263	-0.586636	-0.242938
N26	N	-3.876384	-0.620276	-0.239336
C27	C	-3.764701	-0.104648	-0.382207
C28	C	-3.789510	-0.103911	-0.470397
C29	C	-3.983040	-0.107553	-0.515896
C30	C	-4.006339	-0.106859	-0.598760
C31	C	-3.836107	-0.102528	-0.636124
C32	C	-3.642559	-0.098883	-0.590619
C33	C	-3.619260	-0.099571	-0.507756
C34	C	-3.886283	-0.100037	-0.883512
C35	C	-3.909600	-0.099352	-0.966381
C36	C	-4.273377	-0.107326	-0.974517
C37	C	-4.250064	-0.108019	-0.891652
C38	C	-4.056517	-0.104369	-0.846153
N39	N	-3.859919	-0.101821	-0.720825
N40	N	-4.032704	-0.105071	-0.761454
C41	C	-4.103289	0.038629	-0.238947
C42	C	-4.028845	0.127465	-0.239050
C43	C	-4.148701	-0.102260	-0.100071
C44	C	-4.103131	-0.102994	-0.011880
H45	H	-3.538455	-0.334763	-0.236005
H46	H	-3.694139	-0.857416	-0.231836
Cl47	Cl	-4.267907	-0.332812	-0.252232
Cl48	Cl	-4.445934	-0.892441	-0.248034
H49	H	-4.262679	-0.720730	-0.246459
H50	H	-3.503953	-0.095352	-0.621046
Cl51	Cl	-4.381769	-0.521214	-0.252006
Cl52	Cl	-3.560576	-0.502868	-0.234018
Cl53	Cl	-4.197065	-0.113003	-0.468934
Cl54	Cl	-4.249651	-0.111449	-0.655957
H55	H	-3.728707	-0.097094	-0.846481
H56	H	-4.388688	-0.111544	-0.861236
H57	H	-4.430957	-0.110296	-1.011570
H58	H	-3.461656	-0.096586	-0.470708
Cl59	Cl	-3.695577	-0.093907	-1.013352
H60	H	-3.602605	-0.705981	-0.232007
