data_functionalizedCrystal
_audit_creation_method	'MofGen! by Chris Wilmer'
_symmetry_space_group_name_H-M	'P1'
_symmetry_Int_Tables_number	1
_symmetry_cell_setting	triclinic
loop_
_symmetry_equiv_pos_as_xyz
  x,y,z
_cell_length_a	14.971486
_cell_length_b	9.016244
_cell_length_c	14.971486
_cell_angle_alpha	90.002444
_cell_angle_beta	83.614129
_cell_angle_gamma	90.002385
loop_
_atom_site_label
_atom_site_type_symbol
_atom_site_fract_x
_atom_site_fract_y
_atom_site_fract_z
O1	O	1.186949	0.123170	0.116559
O2	O	0.926549	0.123211	0.130518
O3	O	1.063728	0.123179	-0.006662
O4	O	1.049769	0.123202	0.253738
O5	O	1.063708	-0.123502	-0.006659
O6	O	0.926529	-0.123470	0.130521
O7	O	1.186929	-0.123510	0.116562
Cu8	Cu	1.056727	-0.146014	0.123542
Cu9	Cu	1.056751	0.145715	0.123538
O10	O	1.049749	-0.123478	0.253742
C11	C	0.893214	-0.000124	0.129895
C12	C	0.793917	-0.000109	0.128024
N13	N	1.056717	-0.351200	0.123544
C14	C	0.736691	-0.000104	0.208614
C15	C	0.643392	-0.000126	0.206850
C16	C	0.607320	-0.000143	0.124497
C17	C	0.664552	-0.000153	0.043902
C18	C	0.757850	-0.000141	0.045666
C19	C	0.470090	-0.000173	0.040231
C20	C	0.376786	-0.000182	0.038466
C21	C	0.355632	-0.000159	0.201415
C22	C	0.448930	-0.000147	0.203179
C23	C	0.506156	-0.000154	0.122584
C24	C	0.983113	-0.586216	0.196683
C25	C	0.983273	-0.414325	0.196954
C26	C	1.150070	-0.413551	0.144030
C27	C	1.149667	-0.585496	0.144547
C28	C	1.037898	-0.585748	0.029674
C29	C	1.035747	-0.413794	0.030300
C30	C	1.220263	-0.000172	0.117185
C31	C	1.319561	-0.000177	0.119056
C32	C	1.063094	-0.000161	-0.039985
C33	C	1.061223	-0.000159	-0.139282
N34	N	1.056768	0.350901	0.123529
C35	C	1.141812	-0.000173	-0.196507
C36	C	1.140049	-0.000158	-0.289807
C37	C	1.057696	-0.000139	-0.325879
C38	C	0.977101	-0.000121	-0.268646
C39	C	0.978865	-0.000126	-0.175349
C40	C	0.973430	-0.000115	-0.463109
C41	C	0.971665	-0.000114	-0.556413
C42	C	1.134614	-0.000147	-0.577567
C43	C	1.136378	-0.000152	-0.484269
C44	C	1.055782	-0.000136	-0.427043
C45	C	1.050384	-0.000135	0.287065
C46	C	1.052254	-0.000127	0.386362
H47	H	0.766054	-0.000089	0.275675
H48	H	1.167072	-0.370470	0.211703
H49	H	0.309033	-0.000160	0.267039
H50	H	1.166279	-0.625582	0.212998
Cl51	Cl	0.494276	-0.000110	0.306711
H52	H	0.596802	-0.000120	0.272474
H53	H	0.967075	-0.373043	0.014756
Cl54	Cl	1.245348	-0.000211	-0.151169
H55	H	0.347419	-0.000198	-0.028593
H56	H	0.995328	-0.373174	0.266602
Cl57	Cl	0.619204	-0.000183	-0.059629
Cl58	Cl	1.235935	-0.000158	-0.649508
H59	H	1.205673	-0.000172	-0.336396
Cl60	Cl	0.873570	-0.000080	-0.313995
Cl61	Cl	0.935062	-0.652762	-0.000686
Cl62	Cl	0.877548	-0.000103	-0.103407
H63	H	0.516682	-0.000181	-0.025399
Cl64	Cl	0.872107	-0.000095	-0.391168
Cl65	Cl	1.120821	-0.648532	-0.054379
Cl66	Cl	0.876127	-0.349236	0.178145
H67	H	0.913506	-0.627599	0.184661
H68	H	1.206186	-0.372659	0.092171
Cl69	Cl	1.001486	-0.652862	0.303612
H70	H	1.206192	-0.627091	0.093371
H71	H	1.085896	-0.370830	-0.026695
H72	H	1.203437	-0.000177	-0.454903
Cl73	Cl	0.868134	-0.000092	-0.601760
H74	H	0.804443	-0.000144	-0.019958
