data_functionalizedCrystal
_audit_creation_method	'MofGen! by Chris Wilmer'
_symmetry_space_group_name_H-M	'P1'
_symmetry_Int_Tables_number	1
_symmetry_cell_setting	triclinic
loop_
_symmetry_equiv_pos_as_xyz
  x,y,z
_cell_length_a	12.759401
_cell_length_b	29.839131
_cell_length_c	12.759393
_cell_angle_alpha	90.036907
_cell_angle_beta	90.017138
_cell_angle_gamma	90.040464
loop_
_atom_site_label
_atom_site_type_symbol
_atom_site_fract_x
_atom_site_fract_y
_atom_site_fract_z
Zn1	Zn	1.606046	-0.178843	0.593937
Zn2	Zn	1.605862	-0.253980	0.418238
Zn3	Zn	1.430352	-0.178863	0.418276
Zn4	Zn	1.430254	-0.253945	0.593879
O5	O	1.518128	-0.216408	0.506083
O6	O	1.753042	-0.188816	0.570638
O7	O	1.582545	-0.244039	0.271222
O8	O	1.453776	-0.115994	0.441618
O9	O	1.752908	-0.244019	0.441553
O10	O	1.582857	-0.115978	0.570676
O11	O	1.453598	-0.188851	0.271250
O12	O	1.283318	-0.188817	0.441562
O13	O	1.453609	-0.243959	0.740908
O14	O	1.283246	-0.243980	0.570577
O15	O	1.582762	-0.188782	0.740951
O16	O	1.582450	-0.316842	0.441497
O17	O	1.453431	-0.316817	0.570539
C18	C	1.245161	-0.216397	0.506068
C19	C	1.128384	-0.216404	0.506087
C20	C	1.073586	-0.187714	0.573406
C21	C	0.963861	-0.187722	0.573412
C22	C	0.963745	-0.245115	0.438778
C23	C	1.073467	-0.245103	0.438767
C24	C	1.073652	-0.154580	0.651139
C25	C	0.963928	-0.154588	0.651145
C26	C	1.517939	-0.333130	0.506030
C27	C	1.517954	-0.383065	0.506043
C28	C	1.585431	-0.692709	0.438988
C29	C	1.585560	-0.880382	0.439029
O30	O	1.642781	-0.904647	0.381976
N31	N	1.518346	-0.903850	0.506162
C32	C	1.451100	-0.880397	0.573294
O33	O	1.393941	-0.904664	0.630403
C34	C	1.450976	-0.692724	0.573258
C35	C	1.518187	-0.669259	0.506113
C36	C	1.652637	-0.669243	0.371850
C37	C	1.652600	-0.622328	0.371836
C38	C	1.585356	-0.598878	0.438961
C39	C	1.518150	-0.622343	0.506099
C40	C	1.383736	-0.669272	0.640395
C41	C	1.383713	-0.622351	0.640382
C42	C	1.450924	-0.598886	0.573237
C43	C	1.450870	-0.551978	0.573211
N44	N	1.518084	-0.528510	0.506078
C45	C	1.585327	-0.551960	0.438953
C46	C	1.451168	-0.978927	0.573307
C47	C	1.451198	-1.025845	0.573315
C48	C	1.585659	-1.025827	0.439051
C49	C	1.585624	-0.978908	0.439038
C50	C	1.518382	-0.955459	0.506174
C51	C	1.585243	-0.453434	0.438929
C52	C	1.585197	-0.406515	0.438918
C53	C	1.450740	-0.406537	0.573186
C54	C	1.450781	-0.453452	0.573193
C55	C	1.518042	-0.476900	0.506061
O56	O	1.393687	-0.527684	0.630242
O57	O	1.642494	-0.527685	0.381869
C58	C	1.585468	-0.739624	0.439002
C59	C	1.518262	-0.763090	0.506140
C60	C	1.451018	-0.739640	0.573265
C61	C	1.518291	-0.810008	0.506148
C62	C	1.585534	-0.833458	0.439023
C63	C	1.652748	-0.809990	0.371890
C64	C	1.652711	-0.763074	0.371877
C65	C	1.383804	-0.763108	0.640398
C66	C	1.383846	-0.810023	0.640405
C67	C	1.451089	-0.833473	0.573280
C68	C	1.792162	-0.216419	0.506098
C69	C	1.908938	-0.216423	0.506104
C70	C	1.518195	-0.216364	0.780116
C71	C	1.518224	-0.216346	0.896893
C72	C	1.518348	-0.099229	0.506158
C73	C	1.518441	-0.049295	0.506190
C74	C	1.518122	-0.216419	0.233115
C75	C	1.518298	-0.216310	0.116339
C76	C	1.585416	-0.245051	1.061461
C77	C	1.585377	-0.245070	0.951737
C78	C	1.451098	-0.187604	0.951779
C79	C	1.451132	-0.187587	1.061501
C80	C	1.662945	-0.278228	1.061436
C81	C	1.662906	-0.278247	0.951712
H82	H	1.107702	-0.167080	0.728374
C83	C	1.658235	-0.380981	0.366187
C84	C	1.725504	-0.353987	0.425720
C85	C	1.792790	-0.330456	0.358759
H86	H	1.698389	-0.401617	0.326191
H87	H	1.618088	-0.362685	0.320384
H88	H	1.765648	-0.372281	0.471505
H89	H	1.685380	-0.333342	0.465714
H90	H	1.752642	-0.312161	0.312956
H91	H	1.832936	-0.351096	0.318767
H92	H	1.838433	-0.312135	0.399142
C93	C	0.918777	-0.110460	0.612509
C94	C	1.000709	-0.081218	0.586896
C95	C	0.959155	-0.040563	0.551311
H96	H	0.876860	-0.115708	0.552195
H97	H	0.876938	-0.097465	0.666073
H98	H	1.042531	-0.094210	0.533336
H99	H	1.042633	-0.075957	0.647194
H100	H	0.917315	-0.027568	0.604875
H101	H	0.917238	-0.045815	0.491000
H102	H	1.014739	-0.020715	0.533937
C103	C	1.377918	-0.381045	0.646195
C104	C	1.437371	-0.354073	0.713582
C105	C	1.370333	-0.330586	0.780868
H106	H	1.332132	-0.362737	0.606086
H107	H	1.337909	-0.401722	0.686254
H108	H	1.477362	-0.333399	0.673528
H109	H	1.483154	-0.372371	0.753714
H110	H	1.330324	-0.351263	0.820927
H111	H	1.324550	-0.312280	0.740750
H112	H	1.410662	-0.312286	0.826604
C113	C	0.924445	-0.167018	0.759699
C114	C	1.009987	-0.174627	0.826083
C115	C	0.973657	-0.186044	0.926105
H116	H	0.883202	-0.143202	0.786848
H117	H	0.883027	-0.193427	0.755367
H118	H	1.051388	-0.148222	0.830418
H119	H	1.051238	-0.198445	0.798967
H120	H	0.932238	-0.212452	0.921774
H121	H	0.932414	-0.162226	0.953245
H122	H	1.031691	-0.191212	0.971157
H123	H	1.396467	-0.164188	1.106178
C124	C	1.725805	-0.737682	0.298941
C125	C	1.784713	-0.768269	0.240187
C126	C	1.852073	-0.744897	0.172995
H127	H	1.685753	-0.719409	0.253026
H128	H	1.771608	-0.719357	0.339140
H129	H	1.738916	-0.786585	0.199991
H130	H	1.824786	-0.786542	0.286074
H131	H	1.897876	-0.726573	0.213194
H132	H	1.812013	-0.726625	0.127087
H133	H	1.892057	-0.765647	0.133129
C134	C	1.133154	-0.276202	0.365712
C135	C	1.240998	-0.270042	0.380089
C136	C	1.296014	-0.298679	0.312797
H137	H	1.115271	-0.306415	0.380886
H138	H	1.115212	-0.269585	0.295130
H139	H	1.258933	-0.276662	0.450655
H140	H	1.258913	-0.239835	0.364907
H141	H	1.278072	-0.292063	0.242215
H142	H	1.278123	-0.328891	0.327977
H143	H	1.369192	-0.294501	0.322535
H144	H	1.707400	-0.688331	0.317188
C145	C	1.378297	-0.156435	0.892048
C146	C	1.392646	-0.162594	0.784211
C147	C	1.325610	-0.133884	0.729157
H148	H	1.307658	-0.162976	0.909903
H149	H	1.393745	-0.126238	0.909986
H150	H	1.377190	-0.192784	0.766280
H151	H	1.463271	-0.156050	0.766325
H152	H	1.341058	-0.103687	0.747096
H153	H	1.254975	-0.140427	0.747021
H154	H	1.335343	-0.138056	0.655985
C155	C	1.725748	-0.835536	0.299157
C156	C	1.711416	-0.881646	0.313582
C157	C	1.778669	-0.905195	0.246631
H158	H	1.710510	-0.827941	0.228494
H159	H	1.796338	-0.827832	0.314634
H160	H	1.640843	-0.889347	0.298097
H161	H	1.726662	-0.889254	0.384231
H162	H	1.849258	-0.897491	0.262109
H163	H	1.763425	-0.897597	0.175973
H164	H	1.768960	-0.936483	0.256416
H165	H	1.641100	-0.313017	1.091188
C166	C	1.624113	-0.322327	0.906178
C167	C	1.703062	-0.341411	0.844434
C168	C	1.667349	-0.382013	0.802470
H169	H	1.606583	-0.342242	0.961523
H170	H	1.563868	-0.317006	0.864229
H171	H	1.763288	-0.346734	0.886381
H172	H	1.720601	-0.321509	0.789073
H173	H	1.607104	-0.376692	0.760521
H174	H	1.649819	-0.401924	0.857822
H175	H	1.720906	-0.394965	0.760565
C176	C	1.725467	-0.596774	0.298982
C177	C	1.711043	-0.550664	0.313307
C178	C	1.778146	-0.527114	0.246201
H179	H	1.796093	-0.604377	0.314360
H180	H	1.710127	-0.604468	0.228358
H181	H	1.726390	-0.542973	0.383915
H182	H	1.640430	-0.543047	0.297921
H183	H	1.762806	-0.534808	0.175577
H184	H	1.848768	-0.534721	0.261584
H185	H	1.768362	-0.495826	0.255904
C186	C	1.658704	-1.051373	0.366361
C187	C	1.644387	-1.097483	0.380800
C188	C	1.711701	-1.121032	0.313910
H189	H	1.643512	-1.043786	0.295684
H190	H	1.729278	-1.043661	0.381886
H191	H	1.573829	-1.105192	0.365268
H192	H	1.659586	-1.105083	0.451464
H193	H	1.782275	-1.113319	0.329434
H194	H	1.696504	-1.113441	0.243236
H195	H	1.702003	-1.152320	0.323704
H196	H	1.396056	-0.472559	0.627871
H197	H	1.740271	-0.265762	1.095476
C198	C	1.378177	-1.051238	0.646322
C199	C	1.319308	-1.020653	0.705122
C200	C	1.252043	-1.044027	0.772404
H201	H	1.332337	-1.069574	0.606219
H202	H	1.418328	-1.069499	0.692197
H203	H	1.279160	-1.002400	0.659253
H204	H	1.365120	-1.002316	0.745246
H205	H	1.292194	-1.062288	0.818279
H206	H	1.206210	-1.062362	0.732292
H207	H	1.212099	-1.023279	0.812314
C208	C	1.378323	-0.953449	0.646327
C209	C	1.437741	-0.926477	0.713745
C210	C	1.370669	-0.903007	0.781030
H211	H	1.332533	-0.935142	0.606219
H212	H	1.338321	-0.974136	0.686363
H213	H	1.477726	-0.905792	0.673714
H214	H	1.483528	-0.944773	0.753876
H215	H	1.330666	-0.923694	0.821066
H216	H	1.324882	-0.884703	0.740914
H217	H	1.410974	-0.884707	0.826788
H218	H	1.329106	-0.829125	0.695082
H219	H	1.744282	-0.268932	0.921937
C220	C	1.310727	-0.694660	0.713417
C221	C	1.251866	-0.664072	0.772215
C222	C	1.184607	-0.687442	0.839510
H223	H	1.264882	-0.712997	0.673323
H224	H	1.350881	-0.712919	0.759292
H225	H	1.211715	-0.645820	0.726346
H226	H	1.297683	-0.645734	0.812330
H227	H	1.224761	-0.705701	0.885385
H228	H	1.138769	-0.705779	0.799407
H229	H	1.144669	-0.666692	0.879419
H230	H	0.919018	-0.268481	0.383969
C231	C	1.310879	-0.596868	0.713403
C232	C	1.370312	-0.569893	0.780803
C233	C	1.303255	-0.546417	0.848090
H234	H	1.265087	-0.578562	0.673295
H235	H	1.270878	-0.617550	0.753451
H236	H	1.410296	-0.549213	0.740758
H237	H	1.416102	-0.588189	0.820934
H238	H	1.263253	-0.567100	0.888138
H239	H	1.257466	-0.528113	0.807973
H240	H	1.343570	-0.528115	0.893835
H241	H	1.103457	-0.119771	0.629494
H242	H	1.640015	-0.472520	0.384266
H243	H	1.640353	-0.959805	0.384364
H244	H	1.329048	-0.744019	0.695061
