data_functionalizedCrystal
_audit_creation_method	'MofGen! by Chris Wilmer'
_symmetry_space_group_name_H-M	'P1'
_symmetry_Int_Tables_number	1
_symmetry_cell_setting	triclinic
loop_
_symmetry_equiv_pos_as_xyz
  x,y,z
_cell_length_a	13.262390
_cell_length_b	15.944564
_cell_length_c	14.421503
_cell_angle_alpha	90.010450
_cell_angle_beta	74.088265
_cell_angle_gamma	96.013783
loop_
_atom_site_label
_atom_site_type_symbol
_atom_site_fract_x
_atom_site_fract_y
_atom_site_fract_z
O1	O	1.392626	-0.113178	-0.428344
O2	O	1.087054	-0.125473	-0.351279
O3	O	1.248177	0.002920	-0.391906
O4	O	1.231502	-0.241571	-0.387718
O5	O	1.248196	0.002937	-0.237687
O6	O	1.087072	-0.125455	-0.197060
O7	O	1.392644	-0.113161	-0.274126
Cu8	Cu	1.239860	-0.119306	-0.221512
Cu9	Cu	1.239838	-0.119327	-0.403893
O10	O	1.231521	-0.241553	-0.233499
C11	C	1.047960	-0.124773	-0.264308
C12	C	0.931446	-0.122706	-0.234923
C13	C	0.602979	-0.116906	-0.488364
C14	C	0.712451	-0.118845	-0.515974
C15	C	0.767205	-0.119810	-0.445714
C16	C	0.712477	-0.118837	-0.347838
C17	C	0.602996	-0.116892	-0.320225
C18	C	0.767221	-0.119796	-0.277575
C19	C	0.712493	-0.118823	-0.179699
C20	C	0.603022	-0.116879	-0.152091
C21	C	0.548268	-0.115913	-0.222351
C22	C	0.876702	-0.121741	-0.305188
C23	C	0.876719	-0.121727	-0.137049
C24	C	0.767247	-0.119789	-0.109439
C25	C	1.247492	0.034225	-0.314621
C26	C	1.245410	0.127477	-0.314095
C27	C	1.140556	0.342697	-0.287662
C28	C	1.189246	0.403554	-0.223900
C29	C	1.241642	0.298215	-0.313151
C30	C	1.189252	0.403520	-0.375954
C31	C	1.237996	0.463140	-0.312241
C32	C	1.290360	0.357844	-0.249333
C33	C	1.290352	0.357803	-0.401451
C34	C	1.339116	0.418642	-0.337689
C35	C	1.243740	0.203206	-0.313673
C36	C	1.235906	0.558148	-0.311714
C37	C	1.431738	-0.113860	-0.361099
C38	C	1.548252	-0.115927	-0.390490
C39	C	1.232192	0.727141	-0.310781
C40	C	1.234231	0.633884	-0.311299
N41	N	1.239823	-0.119336	-0.532171
C42	C	1.165179	-0.178584	-0.762997
C43	C	1.145043	-0.102553	-0.819718
C44	C	1.239843	-0.119319	-0.721337
C45	C	1.259949	-0.195334	-0.848702
C46	C	1.239860	-0.119309	-0.904063
C47	C	1.219660	-0.043249	-0.776686
C48	C	1.334608	-0.136080	-0.805674
C49	C	1.314512	-0.059994	-0.862378
C50	C	1.239831	-0.119326	-0.616073
C51	C	1.239873	-0.119294	-1.009325
N52	N	1.239883	-0.119291	-0.093236
H53	H	0.722672	-0.118996	-0.029747
C54	C	0.542750	-0.115842	-0.565637
H55	H	0.469713	-0.114549	-0.535172
H56	H	0.568685	-0.067242	-0.606717
H57	H	0.552682	-0.165094	-0.602690
C58	C	0.936936	-0.122792	-0.059758
H59	H	1.009971	-0.124099	-0.090220
H60	H	0.927001	-0.073548	-0.022702
H61	H	0.910999	-0.171400	-0.018681
C62	C	1.079822	-0.246216	-0.704851
H63	H	1.012538	-0.234161	-0.709062
H64	H	1.093438	-0.300106	-0.730373
H65	H	1.080819	-0.246088	-0.639234
H66	H	1.414714	-0.150291	-0.798686
C67	C	1.196563	0.043620	-0.734322
H68	H	1.186965	0.079884	-0.782747
H69	H	1.134329	0.037231	-0.681969
H70	H	1.254160	0.067342	-0.712127
H71	H	1.333063	0.337517	-0.476514
H72	H	0.921251	-0.122535	-0.384879
H73	H	1.377665	-0.009815	-0.905234
H74	H	1.064911	-0.088370	-0.826684
H75	H	1.276962	-0.259625	-0.880147
C76	C	1.027218	0.298089	-0.258979
H77	H	0.991477	0.313642	-0.195867
H78	H	0.990941	0.314381	-0.303299
H79	H	1.029321	0.238716	-0.260055
H80	H	1.333088	0.337712	-0.195751
C81	C	0.427848	-0.113782	-0.191977
H82	H	0.403093	-0.113343	-0.123624
H83	H	0.411070	-0.064426	-0.218793
H84	H	0.395088	-0.162279	-0.214765
C85	C	1.131502	0.430935	-0.122494
H86	H	1.060967	0.404680	-0.104796
H87	H	1.166740	0.414536	-0.077384
H88	H	1.131157	0.490485	-0.122751
C89	C	0.887619	-0.121951	-0.476083
H90	H	0.912371	-0.122400	-0.544436
H91	H	0.920393	-0.073469	-0.453291
H92	H	0.904383	-0.171321	-0.449273
H93	H	0.757004	-0.119632	-0.595665
H94	H	1.423092	0.451508	-0.358825
H95	H	0.558468	-0.116071	-0.072395
C96	C	1.131467	0.430843	-0.448226
H97	H	1.060939	0.404571	-0.430339
H98	H	1.131116	0.490388	-0.447820
H99	H	1.166686	0.414405	-0.511106
