data_functionalizedCrystal
_audit_creation_method	'MofGen! by Chris Wilmer'
_symmetry_space_group_name_H-M	'P1'
_symmetry_Int_Tables_number	1
_symmetry_cell_setting	triclinic
loop_
_symmetry_equiv_pos_as_xyz
  x,y,z
_cell_length_a	16.109301
_cell_length_b	9.130313
_cell_length_c	16.109301
_cell_angle_alpha	90.002670
_cell_angle_beta	83.461481
_cell_angle_gamma	89.997515
loop_
_atom_site_label
_atom_site_type_symbol
_atom_site_fract_x
_atom_site_fract_y
_atom_site_fract_z
O1	O	1.103127	0.121711	0.106863
O2	O	0.861065	0.121735	0.120163
O3	O	0.988746	0.121708	-0.007518
O4	O	0.975447	0.121739	0.234544
O5	O	0.988744	-0.121891	-0.007514
O6	O	0.861064	-0.121864	0.120166
O7	O	1.103126	-0.121887	0.106867
Cu8	Cu	0.982094	-0.144118	0.113517
Cu9	Cu	0.982096	0.143966	0.113513
O10	O	0.975445	-0.121860	0.234548
C11	C	0.830090	-0.000061	0.119626
C12	C	0.737794	-0.000053	0.118011
N13	N	0.982099	-0.346741	0.113519
C14	C	0.515522	-0.000060	0.190018
C15	C	0.428801	-0.000070	0.188494
C16	C	0.448676	-0.000083	0.037006
C17	C	0.535394	-0.000084	0.038530
C18	C	0.568815	-0.000065	0.115039
C19	C	0.395376	-0.000074	0.111990
C20	C	0.301350	-0.000084	0.110337
C21	C	0.662847	-0.000058	0.116693
C22	C	1.038651	-0.423405	0.057001
C23	C	1.038648	-0.576742	0.056991
C24	C	0.925541	-0.576737	0.170024
C25	C	0.925540	-0.423403	0.170030
C26	C	1.095210	-0.346743	0.000491
C27	C	1.151767	-0.423407	-0.056031
C28	C	1.151764	-0.576744	-0.056041
C29	C	1.095206	-0.653416	0.000471
C30	C	1.134101	-0.000088	0.107404
C31	C	1.226397	-0.000087	0.109019
C32	C	0.988206	-0.000092	-0.038491
C33	C	0.986591	-0.000094	-0.130786
N34	N	0.982098	0.346588	0.113504
C35	C	1.058599	-0.000078	-0.353059
C36	C	1.057075	-0.000066	-0.439779
C37	C	0.905586	-0.000057	-0.419905
C38	C	0.907111	-0.000058	-0.333186
C39	C	0.983620	-0.000077	-0.299766
C40	C	0.980571	-0.000063	-0.473205
C41	C	0.978918	-0.000050	-0.567231
C42	C	0.985273	-0.000087	-0.205734
C43	C	0.975984	-0.000057	0.265521
C44	C	0.977600	-0.000045	0.357816
H45	H	0.542730	-0.000056	0.252317
C46	C	0.825610	-0.000132	-0.275456
C47	C	0.758280	-0.000166	-0.323283
C48	C	0.683194	-0.000247	-0.270131
H49	H	0.822939	0.084794	-0.241193
H50	H	0.823013	-0.085114	-0.241228
H51	H	0.760876	0.084807	-0.357496
H52	H	0.760924	-0.085086	-0.357543
H53	H	0.680597	-0.085229	-0.235903
H54	H	0.680531	0.084680	-0.235871
H55	H	0.637502	-0.000284	-0.302573
C56	C	1.138457	0.000232	-0.497680
C57	C	1.142018	0.125584	-0.548022
C58	C	1.216983	0.125922	-0.601361
H59	H	1.141093	-0.084612	-0.532006
H60	H	1.184260	0.000302	-0.465381
H61	H	1.096227	0.125500	-0.580318
H62	H	1.139396	0.210448	-0.513718
H63	H	1.262787	0.125992	-0.569062
H64	H	1.219613	0.041072	-0.635682
H65	H	1.219413	0.210977	-0.635519
C66	C	0.412227	-0.000015	-0.045973
C67	C	0.324875	0.000029	-0.031263
C68	C	0.291273	0.000116	-0.107685
H69	H	0.430430	-0.084942	-0.076910
H70	H	0.430475	0.084965	-0.076851
H71	H	0.306635	-0.084943	-0.000398
H72	H	0.306649	0.084950	-0.000339
H73	H	0.309521	0.085097	-0.138562
H74	H	0.309482	-0.084812	-0.138616
H75	H	0.232002	0.000160	-0.097714
C76	C	0.593125	-0.000014	-0.042971
C77	C	0.545298	0.000021	-0.110300
C78	C	0.598450	0.000100	-0.185387
H79	H	0.627387	-0.084940	-0.045641
H80	H	0.627354	0.084967	-0.045568
H81	H	0.511083	-0.084951	-0.107704
H82	H	0.511038	0.084942	-0.107657
H83	H	0.632679	0.085081	-0.187984
H84	H	0.632709	-0.084828	-0.188049
H85	H	0.566007	0.000138	-0.231079
C86	C	1.141748	-0.000002	-0.316934
C87	C	1.207084	0.000043	-0.382171
C88	C	1.283694	0.000141	-0.348928
H89	H	1.145617	-0.084926	-0.283532
H90	H	1.145531	0.084982	-0.283540
H91	H	1.203302	-0.084932	-0.415551
H92	H	1.203242	0.084961	-0.415578
H93	H	1.287477	0.085125	-0.315534
H94	H	1.287554	-0.084785	-0.315527
H95	H	1.328033	0.000185	-0.393186
H96	H	0.843295	-0.000045	-0.447127
C97	C	1.213072	-0.340281	-0.117537
C98	C	1.199585	-0.377580	-0.199234
C99	C	1.256037	-0.301038	-0.255925
H100	H	1.268590	-0.365368	-0.108608
H101	H	1.204985	-0.237960	-0.109511
H102	H	1.207679	-0.479879	-0.207257
H103	H	1.144079	-0.352490	-0.208190
H104	H	1.247950	-0.198717	-0.247899
H105	H	1.311551	-0.326130	-0.246988
H106	H	1.246889	-0.326324	-0.311362
H107	H	1.095219	-0.221888	0.000495
H108	H	1.095203	-0.778274	0.000452
C109	C	0.864009	-0.659902	0.231284
C110	C	0.782317	-0.622632	0.217760
C111	C	0.725613	-0.699229	0.274171
H112	H	0.872904	-0.634840	0.286814
H113	H	0.872055	-0.762216	0.223182
H114	H	0.774275	-0.520342	0.225869
H115	H	0.773396	-0.647698	0.162241
H116	H	0.733659	-0.801542	0.266069
H117	H	0.734516	-0.674161	0.329697
H118	H	0.670179	-0.673962	0.264998
C119	C	0.371078	0.000016	0.269991
C120	C	0.418912	0.000068	0.337316
C121	C	0.365767	0.000164	0.412407
H122	H	0.336821	-0.084911	0.272667
H123	H	0.336845	0.084997	0.272590
H124	H	0.453131	-0.084905	0.334719
H125	H	0.453168	0.084988	0.334668
H126	H	0.331533	0.085145	0.415005
H127	H	0.331512	-0.084764	0.415074
H128	H	0.398213	0.000213	0.458095
H129	H	0.879490	-0.360982	0.216051
H130	H	1.197809	-0.639163	-0.102069
