data_functionalizedCrystal
_audit_creation_method	'MofGen! by Chris Wilmer'
_symmetry_space_group_name_H-M	'P1'
_symmetry_Int_Tables_number	1
_symmetry_cell_setting	triclinic
loop_
_symmetry_equiv_pos_as_xyz
  x,y,z
_cell_length_a	10.540514
_cell_length_b	14.971494
_cell_length_c	14.048226
_cell_angle_alpha	90.005361
_cell_angle_beta	90.001824
_cell_angle_gamma	84.066359
loop_
_atom_site_label
_atom_site_type_symbol
_atom_site_fract_x
_atom_site_fract_y
_atom_site_fract_z
O1	O	1.684476	0.125949	0.079169
O2	O	1.314924	0.137849	0.079168
O3	O	1.509599	0.001755	0.079166
O4	O	1.489800	0.262043	0.079170
O5	O	1.509595	0.001743	-0.079155
O6	O	1.314920	0.137838	-0.079154
O7	O	1.684472	0.125938	-0.079153
Zn8	Zn	1.499695	0.131886	-0.104290
Zn9	Zn	1.499700	0.131901	0.104305
O10	O	1.489796	0.262032	-0.079151
C11	C	1.267628	0.136956	0.000007
C12	C	1.126709	0.134300	0.000006
C13	C	1.508710	-0.031581	0.000007
C14	C	1.506051	-0.130892	0.000011
C15	C	1.054903	0.231633	0.000010
C16	C	0.908321	0.228903	0.000374
C17	C	0.934972	0.081372	0.090244
C18	C	1.081473	0.084792	0.090315
C19	C	1.081887	0.083339	-0.089732
C20	C	0.934919	0.082400	-0.090913
C21	C	1.504807	-0.177538	0.086313
C22	C	1.502300	-0.270851	0.086314
C23	C	1.501046	-0.317517	0.000012
C24	C	1.502287	-0.270865	-0.086296
C25	C	1.504784	-0.177553	-0.086296
C26	C	1.497084	-0.465357	-0.086290
C27	C	1.494589	-0.558676	-0.086290
C28	C	1.494600	-0.558655	0.086321
C29	C	1.497097	-0.465343	0.086321
C30	C	1.498340	-0.418697	0.000012
C31	C	1.731767	0.126831	0.000010
C32	C	1.872687	0.129487	0.000017
C33	C	1.490686	0.295367	0.000010
C34	C	1.493345	0.394679	0.000012
N35	N	1.499705	0.131904	0.246666
N36	N	1.499701	0.131875	-0.246651
C37	C	1.586068	0.071762	0.296483
C38	C	1.586073	0.071759	0.396141
C39	C	1.499708	0.131895	0.445979
C40	C	1.413341	0.192044	0.396155
C41	C	1.413343	0.192050	0.296499
C42	C	1.413341	0.192025	0.603869
C43	C	1.413338	0.192017	0.703532
C44	C	1.586072	0.071734	0.703511
C45	C	1.586073	0.071740	0.603855
C46	C	1.499704	0.131888	0.554037
H47	H	0.865227	0.266748	-0.064290
H48	H	1.343012	0.240987	0.744105
Br49	Br	1.498815	-0.402011	0.203446
H50	H	1.082995	0.271113	-0.064684
Br51	Br	1.296137	0.273665	0.463789
Br52	Br	1.127864	0.143376	0.203163
H53	H	0.911553	0.009934	-0.096631
Br54	Br	0.899163	-0.040332	0.095416
Br55	Br	1.492907	-0.621958	0.203455
Br56	Br	1.703275	-0.009862	0.228856
H57	H	1.656397	0.022788	0.436702
H58	H	1.656392	0.022769	0.563277
H59	H	1.343019	0.241025	0.255939
H60	H	1.656396	0.022760	0.744078
H61	H	1.498068	-0.427379	-0.156572
H62	H	1.501258	-0.308868	-0.156565
Br63	Br	1.492894	-0.622010	-0.203415
Br64	Br	1.506466	-0.114246	-0.203425
H65	H	1.343014	0.241006	0.563311
H66	H	1.084692	0.270544	0.064619
H67	H	1.113013	0.115734	-0.158143
H68	H	1.501292	-0.308826	0.156590
Br69	Br	1.506521	-0.114215	0.203444
H70	H	0.866164	0.266595	0.065435
Br71	Br	0.863476	0.136436	0.202595
Br72	Br	1.162841	-0.034371	0.096727
H73	H	1.129955	0.011545	-0.090604
Br74	Br	0.865928	0.141002	-0.202175
