data_functionalizedCrystal
_audit_creation_method	'MofGen! by Chris Wilmer'
_symmetry_space_group_name_H-M	'P1'
_symmetry_Int_Tables_number	1
_symmetry_cell_setting	triclinic
loop_
_symmetry_equiv_pos_as_xyz
  x,y,z
_cell_length_a	10.540539
_cell_length_b	10.489741
_cell_length_c	9.616153
_cell_angle_alpha	89.998052
_cell_angle_beta	89.995174
_cell_angle_gamma	84.532333
loop_
_atom_site_label
_atom_site_type_symbol
_atom_site_fract_x
_atom_site_fract_y
_atom_site_fract_z
O1	O	1.685914	0.179760	-0.115579
O2	O	1.316503	0.196697	-0.115596
O3	O	1.509614	0.002629	-0.115579
O4	O	1.492802	0.373827	-0.115596
O5	O	1.509587	0.002633	0.115712
O6	O	1.316476	0.196701	0.115695
O7	O	1.685887	0.179764	0.115712
Zn8	Zn	1.501177	0.188233	0.152426
Zn9	Zn	1.501212	0.188228	-0.152310
O10	O	1.492776	0.373831	0.115695
C11	C	1.269186	0.195429	0.000047
C12	C	1.128238	0.191629	0.000041
C13	C	0.944793	0.046011	0.000588
C14	C	1.091412	0.049864	0.000052
C15	C	1.066588	0.259850	-0.132036
C16	C	0.920043	0.255011	-0.132132
C17	C	0.919525	0.257900	0.130890
C18	C	1.066507	0.259206	0.132621
C19	C	1.508331	-0.044900	0.000066
C20	C	1.504532	-0.186529	0.000063
C21	C	1.381661	-0.254654	0.000047
C22	C	1.439691	-0.346782	0.114088
C23	C	1.439746	-0.346760	-0.113947
C24	C	1.562613	-0.276791	0.114199
C25	C	1.562651	-0.276760	-0.113939
C26	C	1.620770	-0.368860	0.000130
C27	C	1.733203	0.181032	0.000066
C28	C	1.874152	0.184832	0.000063
C29	C	1.494059	0.421361	0.000047
C30	C	1.497858	0.562990	0.000041
N31	N	1.501163	0.188236	0.360401
N32	N	1.501237	0.188215	-0.360285
C33	C	1.397545	0.291701	0.580761
C34	C	1.397773	0.292088	0.419594
C35	C	1.633890	0.218515	0.418855
C36	C	1.633325	0.219248	0.580073
C37	C	1.473374	0.054153	0.580317
C38	C	1.470328	0.055022	0.419090
H39	H	1.133162	-0.004197	-0.094786
O40	O	1.665604	0.348801	0.629866
H41	H	1.585600	0.394145	0.693217
H42	H	1.712959	0.146910	0.619068
O43	O	1.631527	-0.235727	-0.241651
H44	H	1.716378	-0.187931	-0.209567
H45	H	1.415224	0.390600	0.621256
O46	O	0.856969	0.393528	0.132083
H47	H	0.883645	0.443664	0.036308
O48	O	0.856496	0.390050	-0.140095
H49	H	0.886360	0.436154	-0.237096
H50	H	1.109182	0.212456	-0.230326
O51	O	1.370883	-0.387793	-0.241663
H52	H	1.271659	-0.341614	-0.241417
O53	O	0.877749	0.197123	0.263510
H54	H	0.824173	0.114150	0.237652
O55	O	1.147856	-0.021244	0.125454
H56	H	1.198537	0.044979	0.190666
O57	O	1.666891	0.346616	0.365377
H58	H	1.588977	0.388914	0.297183
O59	O	0.906899	-0.028174	0.126054
H60	H	0.957959	-0.125715	0.124079
O61	O	1.267133	0.267988	0.367241
H62	H	1.267163	0.268244	0.251817
O63	O	1.266499	0.267969	0.632180
H64	H	1.273865	0.182168	0.700312
O65	O	1.247852	-0.188853	0.000200
H66	H	1.251872	-0.083505	-0.000770
H67	H	1.712936	0.145199	0.380509
O68	O	1.421505	0.423831	0.368465
H69	H	1.432877	0.487509	0.458891
H70	H	1.378634	0.025335	0.621051
O71	O	1.120742	0.193192	0.262051
H72	H	1.099951	0.091439	0.260992
H73	H	1.614546	-0.245964	0.210720
H74	H	1.721885	-0.418297	0.000198
O75	O	1.340984	0.024614	0.368513
H76	H	1.298827	0.104033	0.301842
H77	H	1.387690	-0.377785	0.210498
O78	O	1.098611	0.396113	0.143200
H79	H	1.159327	0.418232	0.053720
H80	H	1.548977	-0.022872	0.618440
O81	O	0.904783	-0.027884	-0.124157
H82	H	0.834808	0.033833	-0.186533
O83	O	0.882669	0.188194	-0.262883
H84	H	0.969228	0.159631	-0.325446
O85	O	1.096203	0.397755	-0.138578
H86	H	1.201004	0.401467	-0.143225
O87	O	1.563750	-0.051895	0.365764
H88	H	1.633934	-0.011575	0.296292
