data_functionalizedCrystal
_audit_creation_method	'MofGen! by Chris Wilmer'
_symmetry_space_group_name_H-M	'P1'
_symmetry_Int_Tables_number	1
_symmetry_cell_setting	triclinic
loop_
_symmetry_equiv_pos_as_xyz
  x,y,z
_cell_length_a	14.519709
_cell_length_b	16.109301
_cell_length_c	12.996460
_cell_angle_alpha	89.998286
_cell_angle_beta	90.000602
_cell_angle_gamma	96.429187
loop_
_atom_site_label
_atom_site_type_symbol
_atom_site_fract_x
_atom_site_fract_y
_atom_site_fract_z
O1	O	1.223638	-0.108980	0.085436
O2	O	0.955134	-0.121814	0.085468
O3	O	1.096762	0.005621	0.085441
O4	O	1.082010	-0.236415	0.085464
O5	O	1.096744	0.005614	-0.085693
O6	O	0.955116	-0.121822	-0.085666
O7	O	1.223620	-0.108987	-0.085698
Cu8	Cu	1.089366	-0.115405	-0.101308
Cu9	Cu	1.089388	-0.115396	0.101078
O10	O	1.081992	-0.236423	-0.085670
C11	C	0.920766	-0.121220	-0.000095
C12	C	0.818389	-0.119427	-0.000083
C13	C	0.443507	-0.112829	-0.000130
C14	C	0.547811	-0.114661	-0.000117
C15	C	0.630945	-0.116128	-0.000106
C16	C	0.735256	-0.117961	-0.000094
C17	C	1.096156	0.036593	-0.000127
C18	C	1.094364	0.128892	-0.000128
C19	C	1.257988	-0.109582	-0.000132
C20	C	1.360365	-0.111374	-0.000137
C21	C	1.082599	-0.267395	-0.000101
C22	C	1.084390	-0.359693	-0.000093
N23	N	1.089358	-0.115411	-0.243655
C24	C	1.174238	0.351026	-0.000121
C25	C	1.172547	0.437749	-0.000112
C26	C	1.004510	0.418166	-0.000096
C27	C	1.006202	0.331444	-0.000098
C28	C	1.091068	0.297877	-0.000115
C29	C	1.087686	0.471322	-0.000105
C30	C	1.085852	0.565351	-0.000096
C31	C	1.092902	0.203842	-0.000123
C32	C	1.089362	-0.115413	-0.336761
C33	C	1.089371	-0.115407	-0.453566
C34	C	1.089382	-0.115398	-0.546664
C35	C	1.089392	-0.115393	-0.663477
N36	N	1.089404	-0.115384	0.243425
H37	H	1.243341	0.323699	-0.000133
H38	H	1.240272	0.481020	-0.000115
H39	H	0.938471	0.288168	-0.000090
O40	O	0.922156	0.450913	-0.000135
C41	C	0.845076	0.575833	-0.000073
C42	C	0.938409	0.538861	-0.000049
H43	H	0.858184	0.646943	0.000019
H44	H	0.803960	0.554014	-0.071706
H45	H	0.803982	0.553903	0.071533
H46	H	0.979578	0.560773	-0.071605
H47	H	0.979455	0.560676	0.071632
