data_functionalizedCrystal
_audit_creation_method	'MofGen! by Chris Wilmer'
_symmetry_space_group_name_H-M	'P1'
_symmetry_Int_Tables_number	1
_symmetry_cell_setting	triclinic
loop_
_symmetry_equiv_pos_as_xyz
  x,y,z
_cell_length_a	17.699083
_cell_length_b	19.188924
_cell_length_c	16.176319
_cell_angle_alpha	89.991125
_cell_angle_beta	89.998611
_cell_angle_gamma	83.212490
loop_
_atom_site_label
_atom_site_type_symbol
_atom_site_fract_x
_atom_site_fract_y
_atom_site_fract_z
O1	O	1.003960	0.088295	-0.068634
O2	O	1.337293	0.421628	0.264699
O3	O	1.670627	0.754961	0.598032
O4	O	0.783566	0.099782	-0.068662
O5	O	1.116900	0.433115	0.264671
O6	O	1.450233	0.766449	0.598005
O7	O	0.900126	-0.007610	-0.068638
O8	O	1.233459	0.325723	0.264696
O9	O	1.566793	0.659056	0.598029
O10	O	0.887400	0.195687	-0.068659
O11	O	1.220734	0.529021	0.264675
O12	O	1.554067	0.862354	0.598008
O13	O	0.900110	-0.007617	0.068855
O14	O	1.233443	0.325716	0.402189
O15	O	1.566777	0.659049	0.735522
O16	O	0.783550	0.099775	0.068831
O17	O	1.116884	0.433109	0.402164
O18	O	1.450217	0.766442	0.735498
O19	O	1.003944	0.088288	0.068859
O20	O	1.337277	0.421621	0.402192
O21	O	1.670611	0.754955	0.735525
Cu22	Cu	0.893746	0.094031	0.081399
Cu23	Cu	1.227079	0.427364	0.414733
Cu24	Cu	1.560412	0.760698	0.748066
Cu25	Cu	0.893765	0.094039	-0.081202
Cu26	Cu	1.227098	0.427372	0.252131
Cu27	Cu	1.560431	0.760706	0.585464
O28	O	0.887384	0.195680	0.068834
O29	O	1.220718	0.529014	0.402168
O30	O	1.554051	0.862347	0.735501
C31	C	0.755362	0.099367	0.000081
C32	C	1.088695	0.432700	0.333414
C33	C	1.422029	0.766034	0.666748
C34	C	0.671345	0.098132	0.000071
C35	C	1.004679	0.431466	0.333404
C36	C	1.338012	0.764799	0.666738
C37	C	0.622640	0.161169	0.000065
C38	C	0.955973	0.494503	0.333398
C39	C	1.289306	0.827836	0.666731
C40	C	0.543698	0.160005	0.000076
C41	C	0.877031	0.493338	0.333409
C42	C	1.210365	0.826672	0.666742
C43	C	0.513464	0.095803	0.000087
C44	C	0.846797	0.429136	0.333420
C45	C	1.180130	0.762469	0.666753
C46	C	0.562175	0.032761	0.000096
C47	C	0.895509	0.366094	0.333429
C48	C	1.228842	0.699427	0.666762
C49	C	0.641116	0.033926	0.000091
C50	C	0.974449	0.367259	0.333424
C51	C	1.307782	0.700592	0.666757
C52	C	0.243819	0.028060	0.000116
C53	C	0.577152	0.361394	0.333450
C54	C	0.910485	0.694727	0.666783
C55	C	0.164872	0.026900	0.000119
C56	C	0.498206	0.360233	0.333452
C57	C	0.831539	0.693567	0.666786
C58	C	0.146401	0.154139	0.000101
C59	C	0.479734	0.487473	0.333435
C60	C	0.813068	0.820806	0.666768
C61	C	0.225341	0.155305	0.000096
C62	C	0.558675	0.488638	0.333430
C63	C	0.892008	0.821971	0.666763
C64	C	0.274046	0.092263	0.000110
C65	C	0.607380	0.425596	0.333443
C66	C	0.940713	0.758930	0.666776
C67	C	0.359644	0.093526	0.000099
C68	C	0.692977	0.426860	0.333433
C69	C	1.026310	0.760193	0.666766
C70	C	0.427868	0.094538	0.000091
C71	C	0.761201	0.427872	0.333424
C72	C	1.094534	0.761205	0.666758
C73	C	0.899707	-0.033625	0.000110
C74	C	1.233040	0.299708	0.333443
C75	C	1.566373	0.633041	0.666776
C76	C	0.898472	-0.111132	0.000112
C77	C	1.231806	0.222202	0.333445
C78	C	1.565139	0.555535	0.666778
C79	C	0.897905	-0.147527	-0.074836
C80	C	1.231238	0.185806	0.258497
C81	C	1.564572	0.519139	0.591831
C82	C	0.896734	-0.220351	-0.074843
C83	C	1.230068	0.112982	0.258491
C84	C	1.563401	0.446315	0.591824
C85	C	0.896146	-0.256779	0.000103
C86	C	1.229480	0.076555	0.333436
C87	C	1.562813	0.409888	0.666770
C88	C	0.896710	-0.220374	0.075061
C89	C	1.230043	0.112960	0.408394
C90	C	1.563376	0.446293	0.741727
C91	C	0.897873	-0.147550	0.075065
C92	C	1.231206	0.185783	0.408398
C93	C	1.564539	0.519117	0.741732
N94	N	0.937384	-0.376398	0.055889
N95	N	1.270718	-0.043065	0.389222
N96	N	1.604051	0.290268	0.722555
N97	N	0.936281	-0.445578	0.055879
N98	N	1.269615	-0.112245	0.389213
N99	N	1.602948	0.221089	0.722546
C100	C	0.892641	-0.476192	0.000095
C101	C	1.225974	-0.142858	0.333428
C102	C	1.559307	0.190475	0.666761
N103	N	0.850154	-0.435014	-0.055693
N104	N	1.183488	-0.101680	0.277640
N105	N	1.516821	0.231653	0.610974
N106	N	0.851261	-0.365828	-0.055686
N107	N	1.184594	-0.032495	0.277647
N108	N	1.517928	0.300838	0.610980
C109	C	0.894885	-0.335744	0.000107
C110	C	1.228218	-0.002410	0.333440
C111	C	1.561551	0.330923	0.666773
C112	C	0.890803	-0.591552	-0.074865
C113	C	1.224136	-0.258218	0.258468
C114	C	1.557469	0.075115	0.591801
C115	C	0.889627	-0.664376	-0.074869
C116	C	1.222961	-0.331043	0.258465
C117	C	1.556294	0.002290	0.591798
C118	C	0.889610	-0.664398	0.075037
C119	C	1.222944	-0.331065	0.408370
C120	C	1.556277	0.002269	0.741704
C121	C	0.890778	-0.591574	0.075038
C122	C	1.224111	-0.258240	0.408371
C123	C	1.557445	0.075093	0.741705
C124	C	0.891378	-0.555155	0.000085
C125	C	1.224711	-0.221822	0.333418
C126	C	1.558044	0.111511	0.666751
C127	C	1.032149	0.088703	0.000114
C128	C	1.365482	0.422036	0.333447
C129	C	1.698815	0.755370	0.666780
C130	C	1.116165	0.089938	0.000118
C131	C	1.449498	0.423271	0.333452
C132	C	1.782832	0.756604	0.666785
C133	C	0.887804	0.221695	0.000085
C134	C	1.221137	0.555029	0.333419
C135	C	1.554470	0.888362	0.666752
C136	C	0.889038	0.299202	0.000078
C137	C	1.222371	0.632535	0.333411
C138	C	1.555705	0.965868	0.666744
N139	N	0.893738	0.094025	0.195764
N140	N	1.227071	0.427358	0.529098
N141	N	1.560405	0.760692	0.862431
N142	N	0.893778	0.094040	-0.195568
N143	N	1.227112	0.427373	0.137766
N144	N	1.560445	0.760706	0.471099
C145	C	0.945366	0.046491	0.239039
C146	C	1.278699	0.379824	0.572373
C147	C	1.612033	0.713158	0.905706
C148	C	0.945370	0.046490	0.325586
C149	C	1.278703	0.379823	0.658920
C150	C	1.612037	0.713157	0.992253
C151	C	0.893749	0.094027	0.368857
C152	C	1.227082	0.427361	0.702190
C153	C	1.560415	0.760694	1.035524
C154	C	0.842115	0.141564	0.325576
C155	C	1.175448	0.474897	0.658909
C156	C	1.508782	0.808230	0.992243
C157	C	0.842108	0.141560	0.239030
C158	C	1.175442	0.474894	0.572364
C159	C	1.508775	0.808227	0.905697
C160	C	0.842141	0.141577	0.674604
C161	C	1.175474	0.474910	1.007938
C162	C	1.508808	0.808243	1.341271
C163	C	0.842153	0.141578	0.761156
C164	C	1.175487	0.474911	1.094489
C165	C	1.508820	0.808244	1.427822
C166	C	0.945403	0.046506	0.761160
C167	C	1.278736	0.379840	1.094494
C168	C	1.612069	0.713173	1.427827
C169	C	0.945396	0.046503	0.674615
C170	C	1.278729	0.379837	1.007948
C171	C	1.612063	0.713170	1.341281
C172	C	0.893760	0.094037	0.631341
C173	C	1.227093	0.427370	0.964675
C174	C	1.560427	0.760703	1.298008
C175	C	0.893755	0.094036	0.537497
C176	C	1.227089	0.427369	0.870830
C177	C	1.560422	0.760703	1.204164
C178	C	0.893756	0.094032	0.462700
C179	C	1.227090	0.427365	0.796033
C180	C	1.560423	0.760698	1.129366
H181	H	0.283465	-0.023272	0.000128
H182	H	0.616799	0.310061	0.333461
H183	H	0.950132	0.643394	0.666794
Cl184	Cl	0.777252	0.201342	0.815552
Cl185	Cl	1.110585	0.534676	1.148886
Cl186	Cl	1.443919	0.868009	1.482219
Cl187	Cl	0.891491	-0.545816	0.169264
Cl188	Cl	1.224824	-0.212483	0.502597
Cl189	Cl	1.558158	0.120850	0.835931
H190	H	0.889161	-0.694008	-0.135903
H191	H	1.222495	-0.360675	0.197431
H192	H	1.555828	-0.027341	0.530764
Cl193	Cl	0.085167	0.233393	0.000089
Cl194	Cl	0.418500	0.566727	0.333422
Cl195	Cl	0.751834	0.900060	0.666755
H196	H	0.800067	0.180267	0.203797
H197	H	1.133400	0.513600	0.537130
H198	H	1.466733	0.846933	0.870463
Cl199	Cl	0.702346	-0.045324	0.000102
Cl200	Cl	1.035680	0.288009	0.333435
Cl201	Cl	1.369013	0.621342	0.666769
Cl202	Cl	0.888867	-0.710185	0.169256
Cl203	Cl	1.222200	-0.376852	0.502589
Cl204	Cl	1.555533	-0.043518	0.835922
H205	H	0.140259	-0.025384	0.000129
H206	H	0.473592	0.307949	0.333462
H207	H	0.806926	0.641282	0.666796
H208	H	0.800099	0.180281	0.639378
H209	H	1.133432	0.513615	0.972711
H210	H	1.466765	0.846948	1.306044
Cl211	Cl	0.777215	0.201323	0.379971
Cl212	Cl	1.110548	0.534656	0.713305
Cl213	Cl	1.443882	0.867989	1.046638
H214	H	0.987405	0.007784	0.203814
H215	H	1.320738	0.341117	0.537147
H216	H	1.654072	0.674450	0.870481
H217	H	0.647250	0.213450	0.000055
H218	H	0.980583	0.546784	0.333388
H219	H	1.313917	0.880117	0.666722
H220	H	0.896229	-0.250037	0.136082
H221	H	1.229562	0.083296	0.469415
H222	H	1.562895	0.416630	0.802749
H223	H	0.537552	-0.019514	0.000116
H224	H	0.870886	0.313819	0.333450
H225	H	1.204219	0.647153	0.666783
H226	H	0.987409	0.007784	0.360821
H227	H	1.320742	0.341117	0.694154
H228	H	1.654076	0.674451	1.027487
H229	H	0.504044	0.211336	0.000069
H230	H	0.837378	0.544670	0.333403
H231	H	1.170711	0.878003	0.666736
H232	H	0.898391	-0.117880	-0.135869
H233	H	1.231724	0.215454	0.197464
H234	H	1.565058	0.548787	0.530798
Cl235	Cl	0.263346	0.236019	0.000078
Cl236	Cl	0.596679	0.569352	0.333411
Cl237	Cl	0.930012	0.902686	0.666744
H238	H	0.896268	-0.249990	-0.135876
H239	H	1.229601	0.083343	0.197457
H240	H	1.562934	0.416677	0.530791
Cl241	Cl	1.010295	-0.013257	0.620221
Cl242	Cl	1.343629	0.320076	0.953554
Cl243	Cl	1.676962	0.653409	1.286887
Cl244	Cl	0.898585	-0.101793	0.169293
Cl245	Cl	1.231918	0.231541	0.502627
Cl246	Cl	1.565252	0.564874	0.835960
H247	H	0.891287	-0.561898	-0.135897
H248	H	1.224620	-0.228564	0.197437
H249	H	1.557953	0.104769	0.530770
Cl250	Cl	1.010315	-0.013254	0.815566
Cl251	Cl	1.343648	0.320079	1.148899
Cl252	Cl	1.676982	0.653413	1.482232
