data_functionalizedCrystal
_audit_creation_method	'MofGen! by Chris Wilmer'
_symmetry_space_group_name_H-M	'P1'
_symmetry_Int_Tables_number	1
_symmetry_cell_setting	triclinic
loop_
_symmetry_equiv_pos_as_xyz
  x,y,z
_cell_length_a	14.044220
_cell_length_b	10.908878
_cell_length_c	10.065875
_cell_angle_alpha	83.443480
_cell_angle_beta	80.405158
_cell_angle_gamma	103.363166
loop_
_atom_site_label
_atom_site_type_symbol
_atom_site_fract_x
_atom_site_fract_y
_atom_site_fract_z
O1	O	0.160397	1.704266	-0.113469
O2	O	0.493730	2.037599	0.219864
O3	O	0.827064	2.370932	0.553197
O4	O	0.087690	1.338731	-0.113476
O5	O	0.421024	1.672065	0.219857
O6	O	0.754357	2.005398	0.553190
O7	O	0.261162	1.516011	-0.113467
O8	O	0.594496	1.849344	0.219866
O9	O	0.927829	2.182678	0.553200
O10	O	-0.013075	1.526986	-0.113479
O11	O	0.320258	1.860319	0.219855
O12	O	0.653591	2.193653	0.553188
O13	O	0.227974	1.482219	0.113520
O14	O	0.561308	1.815552	0.446853
O15	O	0.894641	2.148885	0.780187
O16	O	0.054502	1.304939	0.113511
O17	O	0.387835	1.638272	0.446844
O18	O	0.721169	1.971606	0.780177
O19	O	0.127209	1.670473	0.113518
O20	O	0.460542	2.003807	0.446851
O21	O	0.793875	2.337140	0.780184
Zn22	Zn	0.085586	1.482341	0.149553
Zn23	Zn	0.418919	1.815674	0.482886
Zn24	Zn	0.752253	2.149008	0.816220
Zn25	Zn	0.129313	1.526864	-0.149512
Zn26	Zn	0.462646	1.860197	0.183821
Zn27	Zn	0.795980	2.193530	0.517155
O28	O	-0.046264	1.493194	0.113508
O29	O	0.287070	1.826527	0.446841
O30	O	0.620403	2.159860	0.780175
C31	C	0.064301	1.274772	0.000016
C32	C	0.397635	1.608105	0.333350
C33	C	0.730968	1.941439	0.666683
C34	C	0.044066	1.134538	0.000014
C35	C	0.377400	1.467871	0.333347
C36	C	0.710733	1.801204	0.666680
C37	C	0.117901	1.077071	0.000016
C38	C	0.451235	1.410404	0.333349
C39	C	0.784568	1.743738	0.666683
C40	C	0.096989	0.932132	0.000013
C41	C	0.430322	1.265465	0.333347
C42	C	0.763656	1.598798	0.666680
C43	C	-0.064226	1.514894	0.000013
C44	C	0.269107	1.848227	0.333346
C45	C	0.602440	2.181560	0.666680
C46	C	-0.167193	1.529222	0.000008
C47	C	0.166140	1.862555	0.333342
C48	C	0.499474	2.195889	0.666675
C49	C	-0.355726	1.555415	0.000015
C50	C	-0.022393	1.888749	0.333348
C51	C	0.310940	2.222082	0.666682
C52	C	-0.429378	1.453797	0.000014
C53	C	-0.096044	1.787130	0.333348
C54	C	0.237289	2.120463	0.666681
C55	C	-0.534284	1.468371	0.000018
C56	C	-0.200951	1.801704	0.333351
C57	C	0.132382	2.135038	0.666685
C58	C	-0.250810	1.540843	0.000011
C59	C	0.082524	1.874176	0.333345
C60	C	0.415857	2.207510	0.666678
C61	C	0.279126	1.494312	0.000025
C62	C	0.612459	1.827645	0.333358
C63	C	0.945792	2.160978	0.666692
C64	C	0.382094	1.479984	0.000021
C65	C	0.715427	1.813318	0.333354
C66	C	1.048760	2.146651	0.666688
C67	C	0.150598	1.734433	0.000022
C68	C	0.483931	2.067766	0.333355
C69	C	0.817265	2.401100	0.666689
C70	C	0.170834	1.874669	0.000016
C71	C	0.504168	2.208002	0.333349
C72	C	0.837501	2.541335	0.666682
N73	N	0.055746	1.451964	0.353657
N74	N	0.389079	1.785298	0.686990
N75	N	0.722412	2.118631	1.020324
N76	N	0.159162	1.557249	-0.353616
N77	N	0.492496	1.890583	-0.020283
N78	N	0.825829	2.223916	0.313051
C79	C	0.118935	1.516286	0.421439
C80	C	0.452268	1.849620	0.754773
C81	C	0.785602	2.182953	1.088106
C82	C	0.095964	1.492918	0.578605
C83	C	0.429297	1.826252	0.911939
C84	C	0.762630	2.159585	1.245272
H85	H	0.249536	0.932768	0.000010
H86	H	0.582870	1.266101	0.333343
H87	H	0.916203	1.599434	0.666676
C88	C	-0.408128	1.321476	0.000022
C89	C	-0.074795	1.654809	0.333355
C90	C	0.258539	1.988143	0.666688
N91	N	-0.392119	1.221815	0.000034
N92	N	-0.058785	1.555148	0.333368
N93	N	0.274548	1.888482	0.666701
C94	C	0.215010	1.614032	0.342653
C95	C	0.548343	1.947365	0.675987
C96	C	0.881677	2.280698	1.009320
N97	N	0.287379	1.687649	0.283313
N98	N	0.620713	2.020982	0.616647
N99	N	0.954046	2.354316	0.949980
C100	C	-0.376983	1.687722	0.000040
C101	C	-0.043649	2.021055	0.333374
C102	C	0.289684	2.354388	0.666707
N103	N	-0.393006	1.787373	0.000069
N104	N	-0.059673	2.120706	0.333402
N105	N	0.273661	2.454039	0.666736
H106	H	-0.034628	1.076435	0.000004
H107	H	0.298706	1.409768	0.333337
H108	H	0.632039	1.743102	0.666671
C109	C	-0.000101	1.395140	0.657386
C110	C	0.333232	1.728473	0.990720
C111	C	0.666566	2.061807	1.324053
N112	N	-0.072456	1.321495	0.716726
N113	N	0.260878	1.654828	1.050060
N114	N	0.594211	1.988161	1.383393
C115	C	0.224216	1.155559	0.000030
C116	C	0.557549	1.488893	0.333364
C117	C	0.890883	1.822226	0.666697
N118	N	0.304294	1.214674	0.000046
N119	N	0.637627	1.548008	0.333380
N120	N	0.970961	1.881341	0.666713
H121	H	0.230275	1.629618	0.588067
H122	H	0.563608	1.962951	0.921400
H123	H	0.896942	2.296284	1.254734
H124	H	-0.015357	1.379591	0.411979
H125	H	0.317976	1.712924	0.745313
H126	H	0.651309	2.046258	1.078646
H127	H	0.018290	0.874033	0.000004
H128	H	0.351623	1.207367	0.333337
H129	H	0.684956	1.540700	0.666670
