data_functionalizedCrystal
_audit_creation_method	'MofGen! by Chris Wilmer'
_symmetry_space_group_name_H-M	'P1'
_symmetry_Int_Tables_number	1
_symmetry_cell_setting	triclinic
loop_
_symmetry_equiv_pos_as_xyz
  x,y,z
_cell_length_a	14.971486
_cell_length_b	13.339070
_cell_length_c	14.048226
_cell_angle_alpha	89.996915
_cell_angle_beta	89.998499
_cell_angle_gamma	99.621712
loop_
_atom_site_label
_atom_site_type_symbol
_atom_site_fract_x
_atom_site_fract_y
_atom_site_fract_z
O1	O	1.219550	0.131873	-0.079045
O2	O	0.963054	0.147665	-0.079070
O3	O	1.061865	-0.007530	-0.079057
O4	O	1.120740	0.287068	-0.079057
O5	O	1.061846	-0.007539	0.079264
O6	O	0.963035	0.147656	0.079251
O7	O	1.219531	0.131864	0.079276
Zn8	Zn	1.091280	0.139758	0.104401
Zn9	Zn	1.091305	0.139770	-0.104194
O10	O	1.120721	0.287059	0.079264
C11	C	0.929545	0.146954	0.000087
C12	C	0.829725	0.144838	0.000077
C13	C	0.795041	0.236011	0.000079
C14	C	0.701248	0.234016	0.000093
C15	C	0.642141	0.140847	0.000099
C16	C	0.676832	0.049667	0.000101
C17	C	0.770623	0.051663	0.000093
C18	C	0.481342	0.045514	0.000114
C19	C	0.387545	0.043518	0.000119
C20	C	0.411968	0.227867	0.000114
C21	C	0.505759	0.229863	0.000106
C22	C	0.540442	0.138682	0.000106
C23	C	1.051910	-0.045236	0.000101
C24	C	1.022266	-0.157574	0.000094
C25	C	1.252762	-0.522088	0.000117
C26	C	1.280617	-0.416541	0.000129
C27	C	1.216032	-0.351794	0.000120
C28	C	1.123587	-0.392604	0.000100
C29	C	1.095729	-0.498161	0.000096
C30	C	1.058999	-0.327867	0.000098
C31	C	0.966554	-0.368677	0.000078
C32	C	0.938701	-0.474224	0.000073
C33	C	1.003286	-0.538970	0.000082
C34	C	1.086856	-0.222311	0.000102
C35	C	0.929823	-0.198383	0.000081
C36	C	0.901968	-0.303930	0.000069
C37	C	1.253040	0.132575	0.000117
C38	C	1.352860	0.134691	0.000121
C39	C	1.130675	0.324765	0.000103
C40	C	1.160319	0.437102	0.000104
N41	N	1.091270	0.139749	0.246761
N42	N	1.091321	0.139771	-0.246555
C43	C	1.135049	0.071057	0.296585
C44	C	1.135055	0.071057	0.396243
C45	C	1.091287	0.139754	0.446075
C46	C	1.047502	0.208449	0.396244
C47	C	1.047491	0.208444	0.296589
C48	C	1.047529	0.208457	0.603959
C49	C	1.047541	0.208463	0.703621
C50	C	1.135094	0.071069	0.703613
C51	C	1.135083	0.071064	0.603957
C52	C	1.091299	0.139761	0.554133
H53	H	0.553882	0.305729	0.000092
H54	H	0.826698	-0.337172	0.000053
O55	O	1.315575	-0.584879	0.000001
C56	C	1.441237	-0.637685	-0.082029
C57	C	1.370157	-0.566497	-0.082006
H58	H	1.485373	-0.622863	-0.148334
H59	H	1.485487	-0.622831	-0.015811
H60	H	1.405423	-0.720124	-0.081987
H61	H	1.405896	-0.484033	-0.082082
H62	H	1.325912	-0.581439	-0.148218
O63	O	1.370385	-0.376785	0.000016
C64	C	1.492996	-0.271552	-0.082018
C65	C	1.391309	-0.316487	-0.081995
H66	H	1.509949	-0.222809	-0.148327
H67	H	1.509987	-0.222675	-0.015803
H68	H	1.534350	-0.335975	-0.081969
H69	H	1.349888	-0.252129	-0.082077
H70	H	1.374390	-0.365390	-0.148204
H71	H	1.162125	-0.189094	0.000119
O72	O	0.378386	0.316507	0.000246
C73	C	0.370516	0.473431	0.082289
C74	C	0.408632	0.373102	0.082253
H75	H	0.394940	0.519207	0.148595
H76	H	0.394998	0.519347	0.016071
H77	H	0.293331	0.455975	0.082254
H78	H	0.485817	0.390465	0.082322
H79	H	0.384080	0.327216	0.148465
H80	H	1.170703	0.015122	0.436809
H81	H	0.673013	0.308258	0.000093
O82	O	0.866992	-0.135603	-0.000058
C83	C	0.741350	-0.082800	-0.082125
C84	C	0.812436	-0.153980	-0.082079
H85	H	0.697234	-0.097618	-0.148441
H86	H	0.697079	-0.097667	-0.015918
H87	H	0.777158	-0.000359	-0.082076
H88	H	0.776703	-0.236446	-0.082161
H89	H	0.856701	-0.139026	-0.148280
H90	H	0.339422	-0.032348	0.000125
H91	H	1.011899	0.264403	0.744190
O92	O	0.515077	-0.043032	0.000279
C93	C	0.606846	-0.147752	0.082255
C94	C	0.568685	-0.047451	0.082204
H95	H	0.650211	-0.151348	0.148474
H96	H	0.548525	-0.214724	0.082317
H97	H	0.650104	-0.151406	0.015962
H98	H	0.525438	-0.043698	0.148485
H99	H	0.627048	0.019473	0.082092
O100	O	1.243046	-0.249261	0.000299
C101	C	1.239884	-0.091226	0.082295
C102	C	1.209239	-0.207341	0.082224
H103	H	1.212548	-0.057297	0.148514
H104	H	1.317048	-0.073125	0.082372
H105	H	1.212689	-0.057285	0.016002
H106	H	1.236370	-0.241362	0.148505
H107	H	1.132073	-0.225371	0.082097
O108	O	0.848865	-0.513700	0.000021
C109	C	0.696050	-0.478825	0.000062
C110	C	0.797758	-0.433986	0.000098
H111	H	0.654700	-0.414398	0.000144
H112	H	0.679040	-0.527602	-0.066212
H113	H	0.679116	-0.527683	0.066302
H114	H	0.814765	-0.385082	-0.066098
H115	H	0.814715	-0.385268	0.066415
O116	O	1.177577	0.004227	0.248330
C117	C	1.264458	-0.132012	0.258851
C118	C	1.216315	-0.056393	0.313615
H119	H	1.295807	-0.181028	0.311610
H120	H	1.213305	-0.182710	0.212232
H121	H	1.319961	-0.088223	0.212158
H122	H	1.160815	-0.100099	0.360360
H123	H	1.267523	-0.005695	0.360174
O124	O	1.177610	0.004237	0.555696
C125	C	1.264495	-0.131999	0.566198
C126	C	1.216353	-0.056386	0.620972
H127	H	1.295849	-0.181019	0.618950
H128	H	1.213341	-0.182695	0.519579
H129	H	1.319995	-0.088204	0.519503
H130	H	1.160858	-0.100098	0.667718
H131	H	1.267563	-0.005691	0.667531
O132	O	1.004991	0.275288	0.555706
C133	C	0.918118	0.411534	0.566226
C134	C	0.966267	0.335917	0.620990
H135	H	0.886781	0.460557	0.618984
H136	H	0.969264	0.462225	0.519586
H137	H	0.862605	0.367742	0.519553
H138	H	1.021776	0.379625	0.667715
H139	H	0.915065	0.285226	0.667570
H140	H	0.980611	-0.624916	0.000069
H141	H	1.170744	0.015134	0.744185
H142	H	1.011859	0.264380	0.436824
O143	O	1.004957	0.275272	0.248334
C144	C	0.918073	0.411508	0.258854
C145	C	0.966231	0.335898	0.313618
H146	H	0.886734	0.460530	0.311612
H147	H	0.969214	0.462201	0.212211
H148	H	0.862561	0.367710	0.212184
H149	H	1.021739	0.379613	0.360340
H150	H	0.915034	0.285205	0.360201
H151	H	0.843160	0.311879	0.000073
H152	H	0.628700	-0.026192	0.000119
H153	H	0.798860	-0.022579	0.000091
