data_functionalizedCrystal
_audit_creation_method	'MofGen! by Chris Wilmer'
_symmetry_space_group_name_H-M	'P1'
_symmetry_Int_Tables_number	1
_symmetry_cell_setting	triclinic
loop_
_symmetry_equiv_pos_as_xyz
  x,y,z
_cell_length_a	11.792241
_cell_length_b	10.654541
_cell_length_c	9.130307
_cell_angle_alpha	89.999496
_cell_angle_beta	89.997319
_cell_angle_gamma	95.661328
loop_
_atom_site_label
_atom_site_type_symbol
_atom_site_fract_x
_atom_site_fract_y
_atom_site_fract_z
O1	O	-1.507300	0.172134	-0.121647
O2	O	-1.177000	0.189874	-0.121681
O3	O	-1.349746	-0.001757	-0.121664
O4	O	-1.334555	0.363765	-0.121664
O5	O	-1.349740	-0.001759	0.121935
O6	O	-1.176994	0.189872	0.121918
O7	O	-1.507295	0.172132	0.121952
Cu8	Cu	-1.342144	0.181002	0.144178
Cu9	Cu	-1.342151	0.181004	-0.143906
O10	O	-1.334549	0.363763	0.121935
C11	C	-1.134704	0.188759	0.000115
C12	C	-1.008682	0.185423	0.000102
C13	C	-1.348628	-0.048553	0.000132
C14	C	-1.345293	-0.187987	0.000122
C15	C	-1.549591	0.173247	0.000153
C16	C	-1.675612	0.176582	0.000157
C17	C	-0.777956	0.179290	0.000144
C18	C	-0.906349	0.182698	0.000121
C19	C	-1.335667	0.410559	0.000136
C20	C	-1.339002	0.549993	0.000136
N21	N	-1.342148	0.180999	0.346800
C22	C	-1.132438	0.578548	0.000133
C23	C	-1.030727	0.658330	0.000137
C24	C	-1.033868	0.789339	0.000138
C25	C	-1.138731	0.840568	0.000130
C26	C	-1.240441	0.760786	0.000126
C27	C	-1.237289	0.629775	0.000130
C28	C	-1.447003	0.732231	0.000118
C29	C	-1.443865	0.601221	0.000128
C30	C	-1.551866	0.783459	0.000110
C31	C	-1.653579	0.703677	0.000117
C32	C	-1.650434	0.572661	0.000118
C33	C	-1.545575	0.521439	0.000124
N34	N	-1.342156	0.180996	-0.346529
C35	C	-1.495177	0.011360	0.346805
C36	C	-1.571699	-0.073457	0.423474
C37	C	-1.571711	-0.073458	0.576808
C38	C	-1.495189	0.011365	0.653475
C39	C	-1.418667	0.096181	0.576806
C40	C	-1.418666	0.096175	0.423469
C41	C	-1.265634	0.265813	0.576802
C42	C	-1.265626	0.265822	0.423468
C43	C	-1.189113	0.350635	0.653469
C44	C	-1.112594	0.435459	0.576800
C45	C	-1.112587	0.435457	0.423458
C46	C	-1.189104	0.350638	0.346799
H47	H	-1.129870	0.471875	0.000137
O48	O	-1.189101	0.350629	0.181418
H49	H	-1.123040	0.423859	0.140979
O50	O	-1.189131	0.350636	0.818851
H51	H	-1.104199	0.329894	0.859292
O52	O	-0.917626	0.603081	0.000165
H53	H	-0.932523	0.498579	0.000184
H54	H	-1.495185	0.011362	0.221953
H55	H	-1.733259	0.507708	0.000104
O56	O	-0.924171	0.875402	0.000153
H57	H	-0.850726	0.817777	0.000169
H58	H	-1.634017	-0.142527	0.639232
O59	O	-1.542187	0.380137	0.000123
H60	H	-1.452185	0.357923	0.000118
H61	H	-1.495194	0.011348	0.778328
O62	O	-1.654230	-0.164954	0.340800
H63	H	-1.638993	-0.262961	0.370247
O64	O	-1.030079	0.526941	0.659500
H65	H	-1.045305	0.624954	0.630067
O66	O	-1.142126	0.981870	0.000133
H67	H	-1.053784	1.028740	0.000144
O68	O	-1.030054	0.526942	0.340764
H69	H	-0.976858	0.585923	0.419841
H70	H	-1.738950	0.745399	0.000090
O71	O	-1.555264	0.924761	0.000128
H72	H	-1.466924	0.971635	0.000154
