data_functionalizedCrystal
_audit_creation_method	'MofGen! by Chris Wilmer'
_symmetry_space_group_name_H-M	'P1'
_symmetry_Int_Tables_number	1
_symmetry_cell_setting	triclinic
loop_
_symmetry_equiv_pos_as_xyz
  x,y,z
_cell_length_a	13.032721
_cell_length_b	13.033385
_cell_length_c	11.169409
_cell_angle_alpha	82.834311
_cell_angle_beta	97.146154
_cell_angle_gamma	90.863225
loop_
_atom_site_label
_atom_site_type_symbol
_atom_site_fract_x
_atom_site_fract_y
_atom_site_fract_z
Zn1	Zn	-0.608865	-1.520165	-0.545263
Zn2	Zn	-0.108865	-1.020165	-0.045263
Zn3	Zn	-0.780864	-1.498194	-0.372858
Zn4	Zn	-0.280864	-0.998194	0.127142
Zn5	Zn	-0.587100	-1.348182	-0.366544
Zn6	Zn	-0.087100	-0.848182	0.133456
Zn7	Zn	-0.758967	-1.326334	-0.595411
Zn8	Zn	-0.258967	-0.826334	-0.095411
O9	O	-0.683949	-1.423219	-0.470019
O10	O	-0.183949	-0.923219	0.029981
O11	O	-0.649953	-1.661150	-0.504049
O12	O	-0.149953	-1.161150	-0.004049
O13	O	-0.755216	-1.478242	-0.204086
O14	O	-0.255216	-0.978242	0.295914
O15	O	-0.446078	-1.389334	-0.366622
O16	O	0.053922	-0.889334	0.133378
O17	O	-0.776321	-1.645008	-0.377383
O18	O	-0.276321	-1.145008	0.122617
O19	O	-0.462068	-1.515690	-0.497926
O20	O	0.037932	-1.015690	0.002074
O21	O	-0.612859	-1.368029	-0.199447
O22	O	-0.112859	-0.868029	0.300553
O23	O	-0.591626	-1.201384	-0.415248
O24	O	-0.091626	-0.701384	0.084752
O25	O	-0.739000	-1.352098	-0.756693
O26	O	-0.239000	-0.852098	-0.256693
O27	O	-0.717896	-1.185333	-0.583396
O28	O	-0.217896	-0.685333	-0.083396
O29	O	-0.628721	-1.494505	-0.719850
O30	O	-0.128721	-0.994505	-0.219850
O31	O	-0.921868	-1.457058	-0.426010
O32	O	-0.421868	-0.957058	0.073990
O33	O	-0.905781	-1.330793	-0.589519
O34	O	-0.405781	-0.830793	-0.089519
C35	C	-0.951142	-1.389198	-0.513914
C36	C	-0.451142	-0.889198	-0.013914
C37	C	-1.065460	-1.374738	-0.532720
C38	C	-0.565460	-0.874738	-0.032720
C39	C	-0.650024	-1.156047	-0.504080
C40	C	-0.150024	-0.656047	-0.004080
C41	C	-0.635535	-1.041746	-0.518683
C42	C	-0.135535	-0.541746	-0.018683
C43	C	-1.124359	-1.430820	-0.460251
C44	C	-0.624359	-0.930820	0.039749
C45	C	-1.242514	-1.415876	-0.479686
C46	C	-0.742514	-0.915876	0.020314
C47	C	-0.676529	-0.864674	-0.477489
C48	C	-0.176529	-0.364674	0.022511
C49	C	-0.691508	-0.982809	-0.462390
C50	C	-0.191508	-0.482809	0.037610
C51	C	-0.415716	-1.457400	-0.425976
C52	C	0.084284	-0.957400	0.074024
C53	C	-0.301411	-1.471966	-0.407207
C54	C	0.198589	-0.971966	0.092793
C55	C	-0.683845	-1.423316	-0.783032
C56	C	-0.183845	-0.923316	-0.283032
C57	C	-0.683801	-1.423357	-0.916420
C58	C	-0.183801	-0.923357	-0.416420
C59	C	-0.718001	-0.691435	-0.435813
C60	C	-0.218001	-0.191435	0.064187
C61	C	-0.732494	-0.805735	-0.421203
C62	C	-0.232494	-0.305735	0.078797
C63	C	-0.683985	-1.423191	-0.158204
C64	C	-0.183985	-0.923191	0.341796
C65	C	-0.683765	-1.423386	-0.024744
C66	C	-0.183765	-0.923386	0.475256
H67	H	-1.087315	-1.489902	-0.383822
H68	H	-0.587315	-0.989902	0.116178
H69	H	-1.279557	-1.356800	-0.556128
H70	H	-0.779557	-0.856800	-0.056128
H71	H	-0.791502	-0.842733	-0.361843
H72	H	-0.291502	-0.342733	0.138157
H73	H	-0.617531	-0.827674	-0.536861
H74	H	-0.117531	-0.327674	-0.036861
O75	O	-1.257168	-1.542310	-0.315897
O76	O	-0.757168	-1.042310	0.184103
C77	C	-1.187680	-1.491592	-0.235668
C78	C	-0.687680	-0.991592	0.264332
H79	H	-1.209915	-1.406521	-0.243816
H80	H	-0.709915	-0.906521	0.256184
H81	H	-1.191115	-1.528984	-0.138382
H82	H	-0.691115	-1.028984	0.361618
H83	H	-1.105823	-1.498259	-0.259930
H84	H	-0.605823	-0.998259	0.240070
H85	H	-1.102508	-1.315666	-0.609156
H86	H	-0.602508	-0.815666	-0.109156
O87	O	-0.761828	-1.027104	-0.391563
O88	O	-0.261828	-0.527104	0.108437
C89	C	-0.761142	-1.135193	-0.392272
C90	C	-0.261142	-0.635193	0.107728
H91	H	-0.683651	-1.159874	-0.416848
H92	H	-0.183651	-0.659874	0.083152
H93	H	-0.773175	-1.175171	-0.298309
H94	H	-0.273175	-0.675171	0.201691
H95	H	-0.826045	-1.157937	-0.462228
H96	H	-0.326045	-0.657937	0.037772
H97	H	-0.576531	-1.004753	-0.578058
H98	H	-0.076531	-0.504753	-0.078058
