data_functionalizedCrystal
_audit_creation_method	'MofGen! by Chris Wilmer'
_symmetry_space_group_name_H-M	'P1'
_symmetry_Int_Tables_number	1
_symmetry_cell_setting	triclinic
loop_
_symmetry_equiv_pos_as_xyz
  x,y,z
_cell_length_a	11.792241
_cell_length_b	11.792254
_cell_length_c	15.455301
_cell_angle_alpha	87.016362
_cell_angle_beta	92.983668
_cell_angle_gamma	95.803993
loop_
_atom_site_label
_atom_site_type_symbol
_atom_site_fract_x
_atom_site_fract_y
_atom_site_fract_z
O1	O	0.160098	-1.511362	0.072131
O2	O	0.176116	-1.181023	0.072133
O3	O	0.002936	-1.354209	0.072126
O4	O	0.333277	-1.338177	0.072138
O5	O	-0.005992	-1.345269	-0.072137
O6	O	0.167187	-1.172084	-0.072130
O7	O	0.151169	-1.502423	-0.072132
Cu8	Cu	0.158363	-1.336437	-0.085303
Cu9	Cu	0.168922	-1.347009	0.085304
O10	O	0.324349	-1.329237	-0.072125
C11	C	-0.043819	-1.348732	-0.000005
C12	C	-0.169833	-1.345718	-0.000004
C13	C	0.170643	-1.134263	0.000002
C14	C	0.167622	-1.008250	0.000002
C15	C	0.156643	-1.549183	0.000001
C16	C	0.159663	-1.675197	0.000006
C17	C	-0.400544	-1.340176	0.000010
C18	C	-0.272159	-1.343255	0.000002
C19	C	0.371104	-1.334714	0.000008
C20	C	0.497118	-1.337729	0.000013
C21	C	0.165169	-0.905914	0.000006
C22	C	0.162100	-0.777527	0.000006
N23	N	0.150936	-1.329009	-0.205299
C24	C	0.217436	-1.395459	-0.250688
C25	C	0.211812	-1.389856	-0.341496
C26	C	0.139693	-1.317798	-0.386915
C27	C	0.073185	-1.251347	-0.341520
C28	C	0.078804	-1.256956	-0.250713
C29	C	0.115451	-1.293603	-0.658498
C30	C	0.109840	-1.287997	-0.749311
C31	C	0.248466	-1.426508	-0.749281
C32	C	0.254083	-1.432106	-0.658473
C33	C	0.187571	-1.365659	-0.613086
N34	N	0.133945	-1.312068	-0.479735
N35	N	0.193313	-1.371396	-0.520267
N36	N	0.176340	-1.354446	0.205301
H37	H	0.276170	-1.454129	-0.213715
O38	O	0.324296	-1.502039	-0.614458
C39	C	0.437918	-1.469901	-0.636634
H40	H	0.438405	-1.421835	-0.702568
H41	H	0.482475	-1.412428	-0.585531
C42	C	0.500591	-1.636396	-0.559840
C43	C	0.501188	-1.577369	-0.640826
H44	H	0.539621	-1.702686	-0.562422
H45	H	0.424042	-1.658047	-0.544896
H46	H	0.537720	-1.588490	-0.517263
H47	H	0.464048	-1.625270	-0.683399
H48	H	0.577733	-1.555729	-0.655777
O49	O	0.039677	-1.217975	-0.793295
C50	C	-0.017801	-1.160511	-0.733762
H51	H	-0.020103	-1.211454	-0.669027
H52	H	0.028945	-1.072303	-0.724109
C53	C	-0.137795	-1.085510	-0.848724
C54	C	-0.140631	-1.148084	-0.769218
H55	H	-0.213561	-1.077839	-0.870596
H56	H	-0.099069	-1.124221	-0.888834
H57	H	-0.098835	-1.012010	-0.840669
H58	H	-0.179577	-1.221587	-0.777276
H59	H	-0.179367	-1.109385	-0.729110
O60	O	0.276359	-1.454570	-0.385487
C61	C	0.247055	-1.570951	-0.363295
H62	H	0.207142	-1.579624	-0.297367
H63	H	0.183292	-1.609236	-0.414401
C64	C	0.404118	-1.623995	-0.440051
C65	C	0.355104	-1.634647	-0.359074
H66	H	0.470765	-1.663288	-0.437451
H67	H	0.423858	-1.545588	-0.455005
H68	H	0.350970	-1.655898	-0.482631
H69	H	0.408246	-1.602732	-0.316498
H70	H	0.335375	-1.713051	-0.344112
O71	O	0.051036	-1.228961	-0.614334
C72	C	0.122993	-1.155163	-0.561845
H73	H	0.208274	-1.191868	-0.548214
H74	H	0.137660	-1.067812	-0.596874
C75	C	-0.038163	-1.097881	-0.492346
C76	C	0.066577	-1.142968	-0.475598
H77	H	-0.072964	-1.090353	-0.439147
H78	H	-0.086643	-1.147597	-0.527711
H79	H	-0.025926	-1.025093	-0.521539
H80	H	0.054337	-1.215760	-0.446416
H81	H	0.115054	-1.093264	-0.440227
O82	O	0.014169	-1.192290	-0.206754
C83	C	-0.050711	-1.127507	-0.266311
H84	H	-0.007773	-1.117168	-0.331039
H85	H	-0.140083	-1.173126	-0.275970
C86	C	-0.111595	-1.021781	-0.151384
C87	C	-0.058852	-1.009075	-0.230882
H88	H	-0.116622	-0.948728	-0.129529
H89	H	-0.067888	-1.065429	-0.111259
H90	H	-0.186066	-1.059800	-0.159444
H91	H	0.015623	-0.971069	-0.222819
H92	H	-0.102547	-0.965417	-0.271006
H93	H	0.302615	-1.480607	-0.786245
H94	H	0.014459	-1.192681	-0.378507
