data_functionalizedCrystal
_audit_creation_method	'MofGen! by Chris Wilmer'
_symmetry_space_group_name_H-M	'P1'
_symmetry_Int_Tables_number	1
_symmetry_cell_setting	triclinic
loop_
_symmetry_equiv_pos_as_xyz
  x,y,z
_cell_length_a	31.640172
_cell_length_b	14.560438
_cell_length_c	14.560438
_cell_angle_alpha	89.999093
_cell_angle_beta	60.006779
_cell_angle_gamma	120.002528
loop_
_atom_site_label
_atom_site_type_symbol
_atom_site_fract_x
_atom_site_fract_y
_atom_site_fract_z
Zr1	Zr	0.462579	0.120486	0.884906
O2	O	0.550749	0.267137	0.738284
O3	O	0.374412	0.075531	0.929836
O4	O	0.462580	0.267133	0.929862
O5	O	0.462579	-0.075606	0.738258
O6	O	0.462579	0.267128	1.081003
O7	O	0.462580	0.075535	0.738258
O8	O	0.304862	-0.075613	1.080956
O9	O	0.620296	0.267135	0.738304
O10	O	0.410675	0.056352	1.061815
O11	O	0.410675	-0.056439	0.949020
O12	O	0.514482	0.169148	0.949051
O13	O	0.514482	0.056357	0.836256
Zr14	Zr	0.462575	-0.120574	1.125959
Zr15	Zr	0.462577	0.120478	1.125959
Zr16	Zr	0.462578	-0.120566	0.884907
Zr17	Zr	0.573500	0.120483	0.884939
Zr18	Zr	0.351655	-0.120572	1.125926
O19	O	0.550743	-0.075619	1.081030
O20	O	0.550746	0.267126	1.081029
O21	O	0.550746	-0.075608	0.738284
O22	O	0.374406	-0.267226	1.272582
O23	O	0.374409	0.075520	1.272581
O24	O	0.374409	-0.267214	0.929836
O25	O	0.462576	0.075517	1.272608
O26	O	0.462575	-0.267222	1.081003
O27	O	0.462576	-0.267217	0.929862
O28	O	0.462575	-0.075623	1.272608
O29	O	0.620294	0.267129	0.929909
O30	O	0.304860	-0.267218	1.080956
O31	O	0.304859	-0.267224	1.272561
O32	O	0.304860	-0.075620	1.272561
O33	O	0.620295	0.075531	0.738305
O34	O	0.620293	0.075525	0.929909
O35	O	0.410673	-0.169237	1.061815
O36	O	0.410673	-0.056446	1.174609
O37	O	0.514480	0.056350	1.061845
O38	O	0.514480	-0.056441	0.949051
C39	C	0.323833	-0.000041	1.005391
C40	C	0.276745	-0.000040	1.005377
C41	C	0.462580	0.301475	1.005432
C42	C	0.462581	0.403808	1.005432
C43	C	0.462575	-0.301564	1.005433
C44	C	0.462574	-0.403897	1.005433
C45	C	-0.015297	0.058821	1.064333
C46	C	-0.192293	0.058820	1.064356
O47	O	-0.215198	0.108852	1.114471
N48	N	-0.214422	-0.000053	1.005477
C49	C	-0.192302	-0.058937	0.946594
O50	O	-0.215190	-0.109022	0.896524
C51	C	-0.015310	-0.058942	0.946578
C52	C	0.006821	-0.000055	1.005452
C53	C	0.006833	0.117702	1.123203
C54	C	0.051082	0.117706	1.123191
C55	C	0.073200	0.058830	1.064310
C56	C	0.051069	-0.000051	1.005440
C57	C	0.006806	-0.117831	0.887702
C58	C	0.051055	-0.117830	0.887706
C59	C	0.073186	-0.058943	0.946580
C60	C	0.117436	-0.058922	0.946548
N61	N	0.139565	-0.000049	1.005427
C62	C	0.117447	0.058827	1.064308
C63	C	-0.285225	-0.058928	0.946605
C64	C	-0.329472	-0.058925	0.946607
C65	C	-0.329460	0.058830	1.064371
C66	C	-0.285209	0.058834	1.064361
C67	C	-0.263096	-0.000054	1.005484
C68	C	0.210372	0.058833	1.064279
C69	C	0.254627	0.058837	1.064258
C70	C	0.254609	-0.058923	0.946500
C71	C	0.210361	-0.058922	0.946515
C72	C	0.188242	-0.000042	1.005413
O73	O	0.140363	-0.108938	0.896470
O74	O	0.140333	0.108885	1.114391
C75	C	-0.059546	0.058816	1.064344
C76	C	-0.081677	-0.000064	1.005475
C77	C	-0.059559	-0.058941	0.946593
C78	C	-0.125924	-0.000062	1.005477
C79	C	-0.148042	0.058815	1.064358
C80	C	-0.125912	0.117688	1.123237
C81	C	-0.081664	0.117693	1.123226
C82	C	-0.081688	-0.117814	0.887714
C83	C	-0.125936	-0.117813	0.887729
C84	C	-0.148054	-0.058937	0.946611
C85	C	0.601322	-0.000048	1.005474
C86	C	0.648410	-0.000049	1.005488
C87	C	0.462580	-0.000034	0.703913
C88	C	0.462581	-0.000031	0.601580
C89	C	0.516766	0.510763	0.946566
C90	C	0.516763	0.606911	0.946569
C91	C	0.408385	0.489137	1.064307
C92	C	0.408389	0.392991	1.064309
C93	C	0.579337	0.578760	0.878587
C94	C	0.579334	0.674908	0.878591
C95	C	0.462583	0.083232	0.553496
C96	C	0.462577	0.083217	0.457351
C97	C	0.462571	-0.083329	0.457378
C98	C	0.462572	-0.083317	0.553526
C99	C	0.462589	0.179388	0.553477
C100	C	0.462583	0.179373	0.457332
C101	C	0.462575	-0.000054	1.306952
C102	C	0.462574	-0.000058	1.409285
C103	C	0.323831	-0.000051	1.306911
C104	C	0.276741	-0.000053	1.409230
C105	C	0.323831	-0.301560	1.005392
C106	C	0.276741	-0.403892	1.005378
C107	C	0.323828	-0.301570	1.306911
C108	C	0.276738	-0.403905	1.409230
C109	C	0.601327	0.301482	0.703954
C110	C	0.648417	0.403817	0.601635
C111	C	0.601324	-0.000038	0.703954
C112	C	0.648414	-0.000036	0.601635
C113	C	0.601324	0.301472	1.005474
C114	C	0.648413	0.403804	1.005488
C115	C	0.254628	0.058836	1.398402
C116	C	0.210389	0.058856	1.494533
C117	C	0.188260	-0.000019	1.601490
C118	C	0.210377	-0.058910	1.612315
C119	C	0.254619	-0.058923	1.516186
C120	C	0.254627	-0.510838	1.064249
C121	C	0.210388	-0.606999	1.064231
C122	C	0.188261	-0.596211	1.005349
C123	C	0.210380	-0.489254	0.946470
C124	C	0.254621	-0.393096	0.946482
C125	C	0.254624	-0.393087	1.516168
C126	C	0.210384	-0.489233	1.612317
C127	C	0.188256	-0.596195	1.601526
C128	C	0.210374	-0.607011	1.494577
C129	C	0.254616	-0.510867	1.398430
C130	C	0.670536	0.392999	0.494697
C131	C	0.714790	0.489144	0.398548
C132	C	0.736921	0.596107	0.409340
C133	C	0.714800	0.606923	0.516289
C134	C	0.670549	0.510778	0.612435
C135	C	0.670531	-0.058914	0.612463
C136	C	0.714783	-0.058908	0.516333
C137	C	0.736913	-0.000029	0.409376
C138	C	0.714794	0.058857	0.398550
C139	C	0.670546	0.058856	0.494679
C140	C	0.670526	0.392980	1.064382
C141	C	0.714766	0.489123	1.064417
C142	C	0.736895	0.596087	1.005551
C143	C	0.714778	0.606909	0.946655
C144	C	0.670536	0.510767	0.946627
H145	H	0.272646	0.106793	1.112200
H146	H	-0.011173	0.165645	1.171156
H147	H	0.732769	0.480290	1.112375
H148	H	0.732824	0.694023	0.525062
H149	H	0.772943	-0.000038	0.331110
H150	H	0.192348	-0.106857	0.898560
H151	H	0.652540	0.519600	0.699506
H152	H	0.652536	0.519596	0.898663
H153	H	0.732794	0.480316	0.311475
H154	H	0.772952	0.674385	0.331042
H155	H	0.652516	0.305893	1.112318
H156	H	-0.267224	-0.106885	0.898658
H157	H	0.364264	0.480344	1.112242
H158	H	0.652516	-0.106868	0.699544
H159	H	0.272634	-0.306002	1.524976
H160	H	0.152235	-0.000000	1.679755
H161	H	0.772919	0.674363	1.005582
H162	H	0.603364	0.578780	0.916411
H163	H	0.603356	0.727105	0.788568
H164	H	0.192379	-0.480406	1.699391
H165	H	0.192353	-0.106844	1.699412
H166	H	0.069097	0.165653	1.171135
H167	H	0.732802	0.694012	0.898727
H168	H	0.732785	-0.106864	0.525169
H169	H	0.732819	0.106794	0.311453
H170	H	0.364266	0.305907	1.112257
H171	H	0.462563	-0.151125	0.592683
H172	H	0.152231	-0.674473	1.679824
H173	H	0.419661	0.162571	0.474136
H174	H	0.652540	0.106799	0.485848
H175	H	0.598749	0.725829	0.923457
H176	H	0.192368	0.106778	1.112241
H177	H	-0.267193	0.106783	1.112302
H178	H	-0.347475	0.106772	1.112313
H179	H	0.504184	0.261488	0.386039
H180	H	0.272617	-0.106884	1.525018
H181	H	0.598754	0.570034	0.791543
H182	H	0.272645	0.106793	1.311321
H183	H	-0.347480	-0.106862	0.898652
H184	H	0.192351	-0.694113	1.485807
H185	H	0.272638	-0.519643	1.112198
H186	H	0.462563	-0.151139	0.418243
H187	H	-0.143926	0.165633	1.171176
H188	H	0.272621	-0.306019	0.898545
H189	H	-0.011207	-0.165785	0.839763
H190	H	0.192387	0.106811	1.485696
H191	H	0.272616	-0.519691	1.311360
H192	H	0.420987	0.171097	0.624759
H193	H	0.652520	0.305913	0.485889
H194	H	0.192384	-0.694078	1.112181
H195	H	0.069059	-0.165783	0.839758
H196	H	0.272627	-0.106855	0.898556
H197	H	-0.063648	0.165643	1.171166
H198	H	0.152237	-0.674519	1.005348
H199	H	-0.143948	-0.165762	0.839776
H200	H	0.505509	0.255867	0.536671
H201	H	-0.063685	-0.165762	0.839768
H202	H	0.192358	-0.480488	0.898530
