data_functionalizedCrystal
_audit_creation_method	'MofGen! by Chris Wilmer'
_symmetry_space_group_name_H-M	'P1'
_symmetry_Int_Tables_number	1
_symmetry_cell_setting	triclinic
loop_
_symmetry_equiv_pos_as_xyz
  x,y,z
_cell_length_a	10.967874
_cell_length_b	11.026607
_cell_length_c	14.048226
_cell_angle_alpha	89.996210
_cell_angle_beta	77.864862
_cell_angle_gamma	96.380181
loop_
_atom_site_label
_atom_site_type_symbol
_atom_site_fract_x
_atom_site_fract_y
_atom_site_fract_z
O1	O	1.694036	0.170538	-0.357044
O2	O	2.194036	0.670538	0.142956
O3	O	1.334398	0.186857	-0.298052
O4	O	1.834398	0.686857	0.201948
O5	O	1.484411	0.001796	-0.322655
O6	O	1.984411	0.501796	0.177345
O7	O	1.544024	0.355599	-0.332441
O8	O	2.044024	0.855599	0.167559
O9	O	1.484385	0.001785	-0.164330
O10	O	1.984385	0.501785	0.335670
O11	O	1.334373	0.186846	-0.139726
O12	O	1.834373	0.686846	0.360274
O13	O	1.694011	0.170527	-0.198719
O14	O	2.194011	0.670527	0.301281
Zn15	Zn	1.514188	0.178685	-0.144085
Zn16	Zn	2.014188	0.678685	0.355915
Zn17	Zn	1.514221	0.178699	-0.352686
Zn18	Zn	2.014221	0.678699	0.147314
O19	O	1.543998	0.355588	-0.174115
O20	O	2.043998	0.855588	0.325885
C21	C	1.287629	0.185663	-0.211219
C22	C	1.787629	0.685663	0.288781
C23	C	1.148304	0.182108	-0.188365
C24	C	1.648304	0.682108	0.311635
C25	C	1.086202	0.180529	-0.260194
C26	C	1.586202	0.680529	0.239806
C27	C	0.942203	0.176855	-0.236575
C28	C	1.442203	0.676855	0.263425
C29	C	1.473401	-0.043512	-0.241690
C30	C	1.973401	0.456488	0.258310
C31	C	1.440617	-0.178499	-0.236315
C32	C	1.940617	0.321501	0.263685
C33	C	1.531139	-0.251550	-0.251165
C34	C	2.031139	0.248450	0.248835
C35	C	1.497257	-0.391067	-0.245611
C36	C	1.997257	0.108933	0.254389
C37	C	1.740780	0.171721	-0.285553
C38	C	2.240780	0.671721	0.214447
C39	C	1.880105	0.175276	-0.308414
C40	C	2.380105	0.675276	0.191586
C41	C	1.555008	0.400896	-0.255083
C42	C	2.055008	0.900896	0.244917
C43	C	1.587792	0.535883	-0.260463
C44	C	2.087792	1.035883	0.239537
N45	N	1.514174	0.178674	-0.001722
N46	N	2.014174	0.678674	0.498278
N47	N	1.514243	0.178701	-0.495050
N48	N	2.014243	0.678701	0.004950
C49	C	1.580633	0.096763	0.037196
C50	C	2.080633	0.596763	0.537196
C51	C	1.580642	0.096763	0.136852
C52	C	2.080642	0.596763	0.636852
C53	C	1.514197	0.178680	0.197588
C54	C	2.014197	0.678680	0.697588
C55	C	1.447729	0.260594	0.158664
C56	C	1.947729	0.760594	0.658664
C57	C	1.447714	0.260588	0.059011
C58	C	1.947714	0.760588	0.559011
C59	C	1.447767	0.260603	0.366372
C60	C	1.947767	0.760603	0.866372
C61	C	1.447783	0.260611	0.466032
C62	C	1.947783	0.760611	0.966032
C63	C	1.580695	0.096778	0.444214
C64	C	2.080695	0.596778	0.944214
C65	C	1.580680	0.096772	0.344560
C66	C	2.080680	0.596772	0.844560
C67	C	1.514213	0.178688	0.305643
C68	C	2.014213	0.678688	0.805643
H69	H	1.394668	-0.431808	-0.228789
H70	H	1.894668	0.068192	0.271211
N71	N	1.723687	-0.410169	-0.282762
N72	N	2.223687	0.089831	0.217238
H73	H	1.728632	-0.318151	-0.283572
H74	H	2.228632	0.181849	0.216428
H75	H	1.766651	-0.438201	-0.231118
H76	H	2.266651	0.061799	0.268882
H77	H	1.139642	0.181904	-0.339174
H78	H	1.639642	0.681904	0.160826
H79	H	1.634813	0.030079	0.475905
H80	H	2.134813	0.530079	0.975905
N81	N	1.304734	-0.232469	-0.214022
N82	N	1.804734	0.267531	0.285978
H83	H	1.261675	-0.204544	-0.148267
H84	H	1.761675	0.295456	0.351733
H85	H	1.261789	-0.204515	-0.265704
H86	H	1.761789	0.295485	0.234296
N87	N	0.950881	0.177080	-0.413038
N88	N	1.450881	0.677080	0.086962
H89	H	0.921384	0.101266	-0.445948
H90	H	1.421384	0.601266	0.054052
H91	H	0.934936	0.251784	-0.448106
H92	H	1.434936	0.751784	0.051894
H93	H	1.094866	0.180747	-0.109385
H94	H	1.594866	0.680747	0.390615
N95	N	1.652275	0.008398	-0.028314
N96	N	2.152275	0.508398	0.471686
H97	H	1.718062	0.055339	-0.080473
H98	H	2.218062	0.555339	0.419527
H99	H	1.694294	-0.043484	0.011531
H100	H	2.194294	0.456516	0.511531
N101	N	1.376134	0.348973	0.531541
N102	N	1.876134	0.848973	1.031541
H103	H	1.334022	0.400863	0.491768
H104	H	1.834022	0.900863	0.991768
H105	H	1.310421	0.301941	0.583691
H106	H	1.810421	0.801941	1.083691
N107	N	1.667026	-0.197594	-0.273444
N108	N	2.167026	0.302406	0.226556
H109	H	1.671968	-0.105576	-0.274248
H110	H	2.171968	0.394424	0.225752
H111	H	1.709971	-0.225633	-0.221791
H112	H	2.209971	0.274367	0.278209
H113	H	1.393638	0.327304	0.334691
H114	H	1.893638	0.827304	0.834691
N115	N	1.652375	0.008459	0.178821
N116	N	2.152375	0.508459	0.678821
H117	H	1.694490	-0.043416	0.125220
H118	H	2.194490	0.456584	0.625220
H119	H	1.718094	0.055550	0.209355
H120	H	2.218094	0.555550	0.709355
H121	H	1.634791	0.030075	0.295108
H122	H	2.134791	0.530075	0.795108
N123	N	0.871393	0.174527	-0.131940
N124	N	1.371393	0.674527	0.368060
H125	H	0.778540	0.171985	-0.129896
H126	H	1.278540	0.671985	0.370104
H127	H	0.887622	0.099701	-0.097181
H128	H	1.387622	0.599701	0.402819
N129	N	1.376057	0.348939	0.224175
N130	N	1.876057	0.848939	0.724175
H131	H	1.435931	0.403201	0.255684
H132	H	1.935931	0.903201	0.755684
H133	H	1.333951	0.400745	0.184340
H134	H	1.833951	0.900745	0.684340
N135	N	1.376025	0.348927	0.017031
N136	N	1.876025	0.848927	0.517031
H137	H	1.333934	0.400824	0.070626
H138	H	1.833934	0.900824	0.570626
H139	H	1.435949	0.403102	-0.034164
H140	H	1.935949	0.903102	0.465836
