data_functionalizedCrystal
_audit_creation_method	'MofGen! by Chris Wilmer'
_symmetry_space_group_name_H-M	'P1'
_symmetry_Int_Tables_number	1
_symmetry_cell_setting	triclinic
loop_
_symmetry_equiv_pos_as_xyz
  x,y,z
_cell_length_a	14.519709
_cell_length_b	18.366186
_cell_length_c	19.288865
_cell_angle_alpha	89.988521
_cell_angle_beta	96.591803
_cell_angle_gamma	90.002904
loop_
_atom_site_label
_atom_site_type_symbol
_atom_site_fract_x
_atom_site_fract_y
_atom_site_fract_z
O1	O	-1.223296	-0.060455	0.091051
O2	O	-0.954751	-0.060480	0.101773
O3	O	-1.096783	-0.060452	-0.004690
O4	O	-1.081264	-0.060482	0.197514
O5	O	-1.096759	0.060647	-0.004696
O6	O	-0.954727	0.060619	0.101768
O7	O	-1.223272	0.060645	0.091046
Zn8	Zn	-1.088995	0.079859	0.096406
Zn9	Zn	-1.089027	-0.079694	0.096413
O10	O	-1.081240	0.060617	0.197509
C11	C	-0.920382	0.000067	0.101271
C12	C	-0.818010	0.000058	0.099773
C13	C	-1.096272	0.000100	-0.030571
C14	C	-1.094773	0.000106	-0.107680
N15	N	-1.088981	0.188750	0.096401
C16	C	-0.443150	0.000089	0.094261
C17	C	-0.547448	0.000080	0.095792
C18	C	-0.630577	0.000073	0.097017
C19	C	-0.734882	0.000065	0.098548
C20	C	-0.257640	0.000095	0.091548
C21	C	-0.360012	0.000093	0.093045
N22	N	-1.089049	-0.188586	0.096413
C23	C	-1.151893	0.226863	0.049282
C24	C	-1.151899	0.303091	0.049279
C25	C	-1.089001	0.341203	0.096406
C26	C	-1.026077	0.303081	0.143529
C27	C	-1.026067	0.226855	0.143526
C28	C	-1.076656	0.461953	0.159650
C29	C	-1.076672	0.538178	0.159654
C30	C	-1.089027	0.576311	0.096415
C31	C	-1.101385	0.538209	0.033170
C32	C	-1.101375	0.461982	0.033167
C33	C	-1.089005	0.423858	0.096415
C34	C	-1.151949	0.697078	0.049289
C35	C	-1.151949	0.773307	0.049285
C36	C	-1.026131	0.773296	0.143541
C37	C	-1.026128	0.697069	0.143539
C38	C	-1.089041	0.658964	0.096414
C39	C	-1.178111	0.000117	-0.152077
C40	C	-1.176702	0.000106	-0.224529
C41	C	-1.091951	0.000097	-0.252581
C42	C	-1.008602	0.000082	-0.208175
C43	C	-1.010013	0.000086	-0.135725
C44	C	-1.025319	0.042509	-0.361110
C45	C	-1.023911	0.042510	-0.433560
C46	C	-1.087597	0.000080	-0.476043
C47	C	-1.152705	-0.042339	-0.446068
C48	C	-1.154116	-0.042335	-0.373618
C49	C	-1.090412	0.000092	-0.331141
C50	C	-1.169414	0.000078	-0.599000
C51	C	-1.168002	0.000062	-0.671454
C52	C	-0.999899	0.000045	-0.655098
C53	C	-1.001314	0.000054	-0.582647
C54	C	-1.086073	0.000074	-0.554602
C55	C	-1.081751	0.000063	0.223390
C56	C	-1.083250	0.000052	0.300499
H57	H	-1.203119	0.195841	0.010908
O58	O	-0.964920	0.189941	0.189369
C59	C	-0.840090	0.197974	0.282828
C60	C	-0.909301	0.239871	0.230957
H61	H	-0.795092	0.238324	0.316455
H62	H	-0.879707	0.162296	0.317642
H63	H	-0.794190	0.162277	0.252747
H64	H	-0.955220	0.275607	0.260981
H65	H	-0.869627	0.275503	0.196143
H66	H	-1.203175	0.666052	0.010915
H67	H	-0.973456	0.077064	-0.326526
H68	H	-0.939597	0.000073	-0.231020
O69	O	-0.920297	-0.000045	-0.539588
C70	C	-0.777091	-0.062815	-0.503400
C71	C	-0.868803	-0.062783	-0.552214
H72	H	-0.735441	-0.113541	-0.513581
H73	H	-0.735293	-0.012174	-0.513633
H74	H	-0.792677	-0.062775	-0.446805
H75	H	-0.853301	-0.062849	-0.608827
H76	H	-0.910573	-0.113419	-0.541921
H77	H	-1.238430	0.000091	-0.576166
H78	H	-0.970893	0.077046	-0.457959
H79	H	-0.930893	0.000035	-0.677938
H80	H	-1.203177	0.804339	0.010912
O81	O	-0.928994	-0.000018	-0.092665
C82	C	-0.785792	-0.062792	-0.056471
C83	C	-0.877502	-0.062758	-0.105288
H84	H	-0.744144	-0.113519	-0.066649
H85	H	-0.743992	-0.012153	-0.066705
H86	H	-0.801381	-0.062748	0.000123
H87	H	-0.861997	-0.062827	-0.161900
H88	H	-0.919275	-0.113393	-0.094994
O89	O	-1.212973	0.340047	0.003411
C90	C	-1.267486	0.363445	-0.117272
C91	C	-1.198287	0.321535	-0.065403
H92	H	-1.255624	0.348506	-0.172919
H93	H	-1.341329	0.348438	-0.108155
H94	H	-1.256692	0.424467	-0.109134
H95	H	-1.208997	0.260504	-0.073509
H96	H	-1.124469	0.336603	-0.074533
O97	O	-1.113341	0.425083	-0.028327
C98	C	-1.137896	0.433147	-0.153780
C99	C	-1.124339	0.475026	-0.084189
H100	H	-1.146811	0.473508	-0.198963
H101	H	-1.074669	0.397491	-0.158563
H102	H	-1.202317	0.397430	-0.155329
H103	H	-1.059953	0.510783	-0.082593
H104	H	-1.187614	0.510637	-0.079435
H105	H	-1.111445	0.569254	-0.018325
H106	H	-0.974915	0.804327	0.181911
O107	O	-1.249046	0.000105	-0.714484
C108	C	-1.415926	0.000093	-0.723057
C109	C	-1.324212	0.000061	-0.674245
H110	H	-1.476722	0.000042	-0.690543
H111	H	-1.419515	0.050781	-0.757386
H112	H	-1.419434	-0.050579	-0.757385
H113	H	-1.320643	0.050698	-0.639872
H114	H	-1.320661	-0.050661	-0.639963
O115	O	-1.064828	0.575223	0.221070
C116	C	-1.129467	0.661297	0.296418
C117	C	-1.143015	0.619377	0.226849
H118	H	-1.192662	0.697018	0.301107
H119	H	-1.120672	0.620988	0.341648
H120	H	-1.064996	0.696959	0.297981
H121	H	-1.207488	0.583715	0.225218
H122	H	-1.151756	0.659726	0.181652
H123	H	-0.974902	0.666035	0.181911
H124	H	-1.066579	0.430912	0.211150
H125	H	-1.247128	0.000131	-0.129248
O126	O	-1.257745	0.000151	-0.267567
C127	C	-1.424626	0.000138	-0.276148
C128	C	-1.332916	0.000103	-0.227332
H129	H	-1.485425	0.000084	-0.243638
H130	H	-1.428212	0.050829	-0.310473
H131	H	-1.428130	-0.050530	-0.310481
H132	H	-1.329350	0.050737	-0.192955
H133	H	-1.329367	-0.050622	-0.193054
O134	O	-0.964942	0.340181	0.189214
C135	C	-0.838916	0.426225	0.203787
C136	C	-0.908120	0.384269	0.151975
H137	H	-0.792945	0.461869	0.173700
H138	H	-0.878539	0.461946	0.238547
H139	H	-0.793988	0.385875	0.237480
H140	H	-0.953066	0.424567	0.118236
H141	H	-0.868441	0.348537	0.117263
H142	H	-1.207127	-0.076876	-0.349216
H143	H	-1.204564	-0.076890	-0.480657
