data_functionalizedCrystal
_audit_creation_method	'MofGen! by Chris Wilmer'
_symmetry_space_group_name_H-M	'P1'
_symmetry_Int_Tables_number	1
_symmetry_cell_setting	triclinic
loop_
_symmetry_equiv_pos_as_xyz
  x,y,z
_cell_length_a	15.944545
_cell_length_b	15.944551
_cell_length_c	9.565339
_cell_angle_alpha	89.999279
_cell_angle_beta	89.999231
_cell_angle_gamma	83.497455
loop_
_atom_site_label
_atom_site_type_symbol
_atom_site_fract_x
_atom_site_fract_y
_atom_site_fract_z
O1	O	1.114527	0.108301	-0.116173
O2	O	0.869977	0.121663	-0.116196
O3	O	0.998930	-0.007293	-0.116171
O4	O	0.985574	0.237257	-0.116197
O5	O	0.998920	-0.007285	0.116349
O6	O	0.869966	0.121671	0.116325
O7	O	1.114517	0.108309	0.116348
Zn8	Zn	0.992240	0.114991	0.153254
Zn9	Zn	0.992253	0.114981	-0.153102
O10	O	0.985563	0.237265	0.116323
C11	C	0.838677	0.121113	0.000062
C12	C	0.745431	0.119453	0.000053
C13	C	0.474798	0.034559	0.000077
C14	C	0.525375	0.075492	0.114721
C15	C	0.409787	0.113532	0.000078
C16	C	0.525366	0.075505	-0.114526
C17	C	0.574701	0.116437	0.000063
C18	C	0.459136	0.154444	0.114816
C19	C	0.459123	0.154446	-0.114533
C20	C	0.509667	0.195436	0.000138
C21	C	0.314785	0.111856	0.000087
C22	C	0.669700	0.118119	0.000064
C23	C	0.998370	-0.038583	0.000089
C24	C	0.996708	-0.131829	0.000090
C25	C	0.912803	-0.346684	0.000063
C26	C	0.951761	-0.407698	0.114713
C27	C	0.993701	-0.302555	0.000079
C28	C	0.951790	-0.407689	-0.114534
C29	C	0.990790	-0.467468	0.000062
C30	C	1.032680	-0.362341	0.114824
C31	C	1.032698	-0.362326	-0.114526
C32	C	1.071715	-0.423322	0.000152
C33	C	0.995375	-0.207553	0.000090
C34	C	0.989122	-0.562469	0.000062
C35	C	1.145816	0.108859	0.000087
C36	C	1.239062	0.110519	0.000086
C37	C	0.986123	0.268555	0.000060
C38	C	0.987785	0.361801	0.000050
N39	N	0.992237	0.114998	0.362333
N40	N	0.992263	0.114967	-0.362181
C41	C	0.932582	0.174616	0.453525
C42	C	1.008487	0.190917	0.546709
C43	C	0.916365	0.098703	0.546704
C44	C	1.068180	0.131337	0.453465
C45	C	0.976008	0.039090	0.453453
C46	C	1.051968	0.055359	0.546595
H47	H	0.430181	0.187765	-0.211466
H48	H	0.882180	0.225079	0.412660
F49	F	1.026454	0.274804	0.600251
F50	F	0.563170	0.031891	-0.241202
F51	F	0.825036	-0.303147	0.000197
H52	H	0.917540	-0.427802	0.211634
H53	H	1.132368	0.145183	0.412682
F54	F	0.958013	-0.044772	0.399866
F55	F	1.117991	-0.010560	0.599681
F56	F	1.159558	-0.466667	0.000241
F57	F	0.421478	0.198010	0.241638
F58	F	0.907054	-0.433953	-0.241215
F59	F	1.077363	-0.336212	0.241653
F60	F	0.563183	0.031905	0.241417
F61	F	1.077390	-0.336018	-0.241216
F62	F	0.454336	-0.054336	0.000229
F63	F	0.529915	0.284402	0.000208
H64	H	0.852191	0.084934	0.587664
