data_functionalizedCrystal
_audit_creation_method	'MofGen! by Chris Wilmer'
_symmetry_space_group_name_H-M	'P1'
_symmetry_Int_Tables_number	1
_symmetry_cell_setting	triclinic
loop_
_symmetry_equiv_pos_as_xyz
  x,y,z
_cell_length_a	21.295417
_cell_length_b	10.685972
_cell_length_c	10.685880
_cell_angle_alpha	99.082357
_cell_angle_beta	94.332822
_cell_angle_gamma	85.605282
loop_
_atom_site_label
_atom_site_type_symbol
_atom_site_fract_x
_atom_site_fract_y
_atom_site_fract_z
Zn1	Zn	-0.207449	-1.995624	-0.866657
Zn2	Zn	-0.305246	-1.979158	-0.654371
Zn3	Zn	-0.207478	-1.767064	-0.638124
Zn4	Zn	-0.320172	-1.783262	-0.850265
O5	O	-0.260086	-1.881277	-0.752354
O6	O	-0.214163	-2.171076	-0.852156
O7	O	-0.286043	-1.937353	-0.474591
O8	O	-0.119383	-1.797495	-0.668501
O9	O	-0.286014	-2.158979	-0.696190
O10	O	-0.119361	-1.965417	-0.836403
O11	O	-0.214213	-1.781529	-0.462655
O12	O	-0.228686	-1.591576	-0.652606
O13	O	-0.311454	-1.825102	-1.030063
O14	O	-0.311482	-1.603476	-0.808464
O15	O	-0.228636	-1.981124	-1.042107
O16	O	-0.395317	-1.953060	-0.680295
O17	O	-0.406284	-1.809135	-0.824218
C18	C	-0.271707	-1.551467	-0.726994
C19	C	-0.276695	-1.410375	-0.716175
C20	C	-0.423641	-1.881105	-0.752271
C21	C	-0.493608	-1.881151	-0.752287
C22	C	-0.520744	-1.956171	-0.677435
C23	C	-0.586486	-1.956232	-0.677468
C24	C	-0.625089	-1.881251	-0.752338
C25	C	-0.597946	-1.806226	-0.827205
C26	C	-0.532205	-1.806176	-0.827180
N27	N	-0.732613	-1.770947	-0.753476
N28	N	-0.795063	-1.770997	-0.753493
C29	C	-0.823161	-1.881398	-0.752422
N30	N	-0.786449	-1.991748	-0.751308
N31	N	-0.723993	-1.991695	-0.751284
C32	C	-0.696374	-1.881297	-0.752375
C33	C	-0.921581	-1.956492	-0.677602
C34	C	-0.987324	-1.956556	-0.677644
C35	C	-0.998783	-1.806538	-0.827374
C36	C	-0.933041	-1.806485	-0.827339
C37	C	-0.894444	-1.881460	-0.752446
C38	C	-0.095892	-1.881486	-0.752468
C39	C	-0.025923	-1.881575	-0.752516
C40	C	-0.271707	-1.906756	-1.083429
C41	C	-0.276658	-1.917614	-1.224513
C42	C	-0.248416	-1.212374	-0.777808
C43	C	-0.243431	-1.353467	-0.788640
C44	C	-0.248463	-1.855970	-0.422573
C45	C	-0.243326	-1.845358	-0.281508
H46	H	-0.211133	-1.412685	-0.858955
H47	H	-0.211001	-1.775179	-1.222370
C48	C	-0.969390	-2.104810	-0.529617
C49	C	-1.017154	-2.039023	-0.595358
H50	H	-0.987808	-2.155714	-0.478811
H51	H	-0.943946	-2.157563	-0.588673
H52	H	-0.944030	-2.045762	-0.476766
H53	H	-1.042512	-2.098072	-0.648217
H54	H	-1.042609	-1.986266	-0.536296
C55	C	-0.602670	-1.657949	-0.975209
C56	C	-0.640375	-1.723807	-0.909507
H57	H	-0.628865	-1.607075	-1.026029
H58	H	-0.576833	-1.605158	-0.916129
H59	H	-0.576748	-1.716954	-1.028042
H60	H	-0.666294	-1.664801	-0.856667
H61	H	-0.666223	-1.776601	-0.968594
H62	H	-0.308991	-1.351150	-0.645847
C63	C	-0.301175	-2.135654	-1.282049
C64	C	-0.320303	-2.012361	-1.304339
H65	H	-0.328122	-2.194143	-1.331323
H66	H	-0.258983	-2.155926	-1.305181
H67	H	-0.303459	-2.140514	-1.194524
H68	H	-0.318014	-2.007499	-1.391862
H69	H	-0.362506	-1.992084	-1.281215
H70	H	-0.489320	-2.017223	-0.616456
C71	C	-0.653818	-1.960852	-0.508108
C72	C	-0.616317	-2.038672	-0.595148
H73	H	-0.672233	-2.011742	-0.457283
H74	H	-0.628445	-1.901823	-0.455289
H75	H	-0.686217	-1.916228	-0.552727
H76	H	-0.583915	-2.083289	-0.550528
H77	H	-0.641692	-2.097723	-0.647973
H78	H	-0.510111	-1.745085	-0.888134
H79	H	-0.890154	-2.017545	-0.616624
H80	H	-1.030213	-1.745492	-0.888340
C81	C	-0.865702	-1.801786	-0.996667
C82	C	-0.903211	-1.724008	-0.909610
H83	H	-0.847291	-1.750865	-1.047466
H84	H	-0.833307	-1.846420	-0.952070
H85	H	-0.891075	-1.860809	-1.049520
H86	H	-0.877836	-1.664990	-0.856750
H87	H	-0.935610	-1.679353	-0.954210
