data_functionalizedCrystal
_audit_creation_method	'MofGen! by Chris Wilmer'
_symmetry_space_group_name_H-M	'P1'
_symmetry_Int_Tables_number	1
_symmetry_cell_setting	triclinic
loop_
_symmetry_equiv_pos_as_xyz
  x,y,z
_cell_length_a	18.050591
_cell_length_b	18.215406
_cell_length_c	18.215399
_cell_angle_alpha	90.015166
_cell_angle_beta	89.971227
_cell_angle_gamma	90.006116
loop_
_atom_site_label
_atom_site_type_symbol
_atom_site_fract_x
_atom_site_fract_y
_atom_site_fract_z
Zn1	Zn	-1.135469	-0.293128	0.416357
Zn2	Zn	-0.885469	-0.043128	0.666357
Zn3	Zn	-0.635469	0.206872	0.916357
Zn4	Zn	-0.385469	0.456872	1.166357
Zn5	Zn	-1.135429	-0.416199	0.293318
Zn6	Zn	-0.885429	-0.166199	0.543318
Zn7	Zn	-0.635429	0.083801	0.793318
Zn8	Zn	-0.385429	0.333801	1.043318
Zn9	Zn	-1.011278	-0.293136	0.293285
Zn10	Zn	-0.761278	-0.043136	0.543285
Zn11	Zn	-0.511278	0.206864	0.793285
Zn12	Zn	-0.261278	0.456864	1.043285
Zn13	Zn	-1.011296	-0.416142	0.416324
Zn14	Zn	-0.761296	-0.166142	0.666324
Zn15	Zn	-0.511296	0.083858	0.916324
Zn16	Zn	-0.261296	0.333858	1.166324
O17	O	-1.073368	-0.354651	0.354821
O18	O	-0.823368	-0.104651	0.604821
O19	O	-0.573368	0.145349	0.854821
O20	O	-0.323368	0.395349	1.104821
O21	O	-1.239388	-0.309473	0.400063
O22	O	-0.989388	-0.059473	0.650063
O23	O	-0.739388	0.190527	0.900063
O24	O	-0.489388	0.440527	1.150063
O25	O	-1.118936	-0.399901	0.190329
O26	O	-0.868936	-0.149901	0.440329
O27	O	-0.618936	0.100099	0.690329
O28	O	-0.368936	0.350099	0.940329
O29	O	-1.027762	-0.190150	0.309611
O30	O	-0.777762	0.059850	0.559611
O31	O	-0.527762	0.309850	0.809611
O32	O	-0.277762	0.559850	1.059611
O33	O	-1.239359	-0.399893	0.309667
O34	O	-0.989359	-0.149893	0.559667
O35	O	-0.739359	0.100107	0.809667
O36	O	-0.489359	0.350107	1.059667
O37	O	-1.119004	-0.190144	0.400031
O38	O	-0.869004	0.059856	0.650031
O39	O	-0.619004	0.309856	0.900031
O40	O	-0.369004	0.559856	1.150031
O41	O	-1.027723	-0.309488	0.190305
O42	O	-0.777723	-0.059488	0.440305
O43	O	-0.527723	0.190512	0.690305
O44	O	-0.277723	0.440512	0.940305
O45	O	-0.907356	-0.309433	0.309579
O46	O	-0.657356	-0.059433	0.559579
O47	O	-0.407356	0.190567	0.809579
O48	O	-0.157356	0.440567	1.059579
O49	O	-1.027792	-0.399797	0.519312
O50	O	-0.777792	-0.149797	0.769312
O51	O	-0.527792	0.100203	1.019312
O52	O	-0.277792	0.350203	1.269312
O53	O	-0.907369	-0.399805	0.399975
O54	O	-0.657369	-0.149805	0.649975
O55	O	-0.407369	0.100195	0.899975
O56	O	-0.157369	0.350195	1.149975
O57	O	-1.119022	-0.309418	0.519337
O58	O	-0.869022	-0.059418	0.769337
O59	O	-0.619022	0.190582	1.019337
O60	O	-0.369022	0.440582	1.269337
O61	O	-1.118953	-0.519175	0.309635
O62	O	-0.868953	-0.269175	0.559635
O63	O	-0.618953	-0.019175	0.809635
O64	O	-0.368953	0.230825	1.059635
O65	O	-1.027753	-0.519134	0.400007
O66	O	-0.777753	-0.269134	0.650007
O67	O	-0.527753	-0.019134	0.900007
O68	O	-0.277753	0.230866	1.150007
C69	C	-0.880416	-0.354614	0.354770
C70	C	-0.630416	-0.104614	0.604770
C71	C	-0.380416	0.145386	0.854770
C72	C	-0.130416	0.395386	1.104770
C73	C	-0.797870	-0.354616	0.354766
C74	C	-0.547870	-0.104616	0.604766
C75	C	-0.297870	0.145384	0.854766
C76	C	-0.047870	0.395384	1.104766
C77	C	-1.073371	-0.545857	0.354837
C78	C	-0.823371	-0.295857	0.604837
C79	C	-0.573371	-0.045857	0.854837
C80	C	-0.323371	0.204143	1.104837
C81	C	-1.073440	-0.627656	0.354868
C82	C	-0.823440	-0.377656	0.604868
C83	C	-0.573440	-0.127656	0.854868
C84	C	-0.323440	0.122344	1.104868
C85	C	-1.073413	-0.354600	0.546774
C86	C	-0.823413	-0.104600	0.796774
C87	C	-0.573413	0.145400	1.046774
C88	C	-0.323413	0.395400	1.296774
C89	C	-1.073432	-0.354579	0.628573
C90	C	-0.823432	-0.104579	0.878573
C91	C	-0.573432	0.145421	1.128573
C92	C	-0.323432	0.395421	1.378573
C93	C	-0.598391	-0.305404	0.305711
C94	C	-0.348391	-0.055404	0.555711
C95	C	-0.098391	0.194596	0.805711
C96	C	0.151609	0.444596	1.055711
C97	C	-0.549002	-0.372526	0.287612
C98	C	-0.299002	-0.122526	0.537612
C99	C	-0.049002	0.127474	0.787612
C100	C	0.200998	0.377474	1.037612
C101	C	-0.646740	-0.354630	0.354791
C102	C	-0.396740	-0.104630	0.604791
C103	C	-0.146740	0.145370	0.854791
C104	C	0.103260	0.395370	1.104791
C105	C	-0.549047	-0.287524	0.372879
C106	C	-0.299047	-0.037524	0.622879
C107	C	-0.049047	0.212476	0.872879
C108	C	0.200953	0.462476	1.122879
C109	C	-0.500755	-0.354639	0.354814
C110	C	-0.250755	-0.104639	0.604814
C111	C	-0.000755	0.145361	0.854814
C112	C	0.249245	0.395361	1.104814
C113	C	-0.598438	-0.421788	0.336657
C114	C	-0.348438	-0.171788	0.586657
C115	C	-0.098438	0.078212	0.836657
C116	C	0.151562	0.328212	1.086657
C117	C	-0.598487	-0.336740	0.421956
C118	C	-0.348487	-0.086740	0.671956
C119	C	-0.098487	0.163260	0.921956
C120	C	0.151513	0.413260	1.171956
C121	C	-0.549121	-0.403909	0.403883
C122	C	-0.299121	-0.153909	0.653883
C123	C	-0.049121	0.096091	0.903883
C124	C	0.200879	0.346091	1.153883
C125	C	-0.730838	-0.354625	0.354776
C126	C	-0.480838	-0.104625	0.604776
C127	C	-0.230838	0.145375	0.854776
C128	C	0.019162	0.395375	1.104776
C129	C	-0.416658	-0.354652	0.354829
C130	C	-0.166658	-0.104652	0.604829
C131	C	0.083342	0.145348	0.854829
C132	C	0.333342	0.395348	1.104829
C133	C	-0.267074	-0.354676	0.354859
C134	C	-0.017074	-0.104676	0.604859
C135	C	0.232926	0.145324	0.854859
C136	C	0.482926	0.395324	1.104859
C137	C	-0.349619	-0.354654	0.354841
C138	C	-0.099619	-0.104654	0.604841
C139	C	0.150381	0.145346	0.854841
C140	C	0.400381	0.395346	1.104841
C141	C	-1.073385	-0.162698	0.354821
C142	C	-0.823385	0.087302	0.604821
C143	C	-0.573385	0.337302	0.854821
C144	C	-0.323385	0.587302	1.104821
C145	C	-1.073393	-0.080899	0.354821
C146	C	-0.823393	0.169101	0.604821
C147	C	-0.573393	0.419101	0.854821
C148	C	-0.323393	0.669101	1.104821
C149	C	-1.025906	0.107293	0.307766
C150	C	-0.775906	0.357293	0.557766
C151	C	-0.525906	0.607293	0.807766
C152	C	-0.275906	0.857293	1.057766
C153	C	-1.025913	0.184151	0.307775
C154	C	-0.775913	0.434151	0.557775
C155	C	-0.525913	0.684151	0.807775
C156	C	-0.275913	0.934151	1.057775
C157	C	-1.120928	0.184147	0.401929
C158	C	-0.870928	0.434147	0.651929
C159	C	-0.620928	0.684147	0.901929
C160	C	-0.370928	0.934147	1.151929
C161	C	-1.120918	0.107289	0.401923
C162	C	-0.870918	0.357289	0.651923
C163	C	-0.620918	0.607289	0.901923
C164	C	-0.370918	0.857289	1.151923
C165	C	-1.073408	0.068864	0.354837
C166	C	-0.823408	0.318864	0.604837
C167	C	-0.573408	0.568864	0.854837
C168	C	-0.323408	0.818864	1.104837
C169	C	-1.073425	0.222580	0.354852
C170	C	-0.823425	0.472580	0.604852
C171	C	-0.573425	0.722580	0.854852
C172	C	-0.323425	0.972580	1.104852
C173	C	-1.073432	0.305914	0.354862
C174	C	-0.823432	0.555914	0.604862
C175	C	-0.573432	0.805914	0.854862
C176	C	-0.323432	1.055914	1.104862
C177	C	-1.073400	-0.014475	0.354828
C178	C	-0.823400	0.235525	0.604828
C179	C	-0.573400	0.485525	0.854828
C180	C	-0.323400	0.735525	1.104828
C181	C	-1.073366	-0.354648	0.163615
C182	C	-0.823366	-0.104648	0.413615
C183	C	-0.573366	0.145352	0.663615
C184	C	-0.323366	0.395352	0.913615
C185	C	-1.073490	-0.354463	0.081816
C186	C	-0.823490	-0.104463	0.331816
C187	C	-0.573490	0.145537	0.581816
C188	C	-0.323490	0.395537	0.831816
C189	C	-1.120953	-0.307475	0.816781
C190	C	-0.870953	-0.057475	1.066781
C191	C	-0.620953	0.192525	1.316781
C192	C	-0.370953	0.442525	1.566781
C193	C	-1.120962	-0.307453	0.893639
C194	C	-0.870962	-0.057453	1.143639
C195	C	-0.620962	0.192547	1.393639
C196	C	-0.370962	0.442547	1.643639
C197	C	-1.025965	-0.401569	0.893603
C198	C	-0.775965	-0.151569	1.143603
C199	C	-0.525965	0.098431	1.393603
C200	C	-0.275965	0.348431	1.643603
C201	C	-1.025953	-0.401586	0.816745
C202	C	-0.775953	-0.151586	1.066745
C203	C	-0.525953	0.098414	1.316745
C204	C	-0.275953	0.348414	1.566745
C205	C	-1.073451	-0.354540	0.778336
C206	C	-0.823451	-0.104540	1.028336
C207	C	-0.573451	0.145460	1.278336
C208	C	-0.323451	0.395460	1.528336
C209	C	-1.073472	-0.354501	0.932053
C210	C	-0.823472	-0.104501	1.182053
C211	C	-0.573472	0.145499	1.432053
C212	C	-0.323472	0.395499	1.682053
C213	C	-1.073481	-0.354478	1.015386
C214	C	-0.823481	-0.104478	1.265386
C215	C	-0.573481	0.145522	1.515386
C216	C	-0.323481	0.395522	1.765386
C217	C	-1.073441	-0.354562	0.694997
C218	C	-0.823441	-0.104562	0.944997
C219	C	-0.573441	0.145438	1.194997
C220	C	-0.323441	0.395438	1.444997
H221	H	-0.620025	-0.263823	0.264164
H222	H	-0.370025	-0.013823	0.514164
H223	H	-0.120025	0.236177	0.764164
H224	H	0.129975	0.486177	1.014164
H225	H	-0.527267	-0.387667	0.230822
H226	H	-0.277267	-0.137667	0.480822
H227	H	-0.027267	0.112333	0.730822
H228	H	0.222733	0.362333	0.980822
H229	H	-1.159611	0.215440	0.440264
H230	H	-0.909611	0.465440	0.690264
H231	H	-0.659611	0.715440	0.940264
H232	H	-0.409611	0.965440	1.190264
F233	F	-1.171474	0.066388	0.452031
F234	F	-0.921474	0.316388	0.702031
F235	F	-0.671474	0.566388	0.952031
F236	F	-0.421474	0.816388	1.202031
H237	H	-0.527623	-0.445589	0.445398
H238	H	-0.277623	-0.195589	0.695398
H239	H	-0.027623	0.054411	0.945398
H240	H	0.222377	0.304411	1.195398
F241	F	-0.975351	0.225047	0.257678
F242	F	-0.725351	0.475047	0.507678
F243	F	-0.475351	0.725047	0.757678
F244	F	-0.225351	0.975047	1.007678
H245	H	-0.620043	-0.478559	0.321305
H246	H	-0.370043	-0.228559	0.571305
H247	H	-0.120043	0.021441	0.821305
H248	H	0.129957	0.271441	1.071305
F249	F	-0.975341	0.066401	0.257655
F250	F	-0.725341	0.316401	0.507655
F251	F	-0.475341	0.566401	0.757655
F252	F	-0.225341	0.816401	1.007655
F253	F	-0.975419	-0.451638	0.934487
F254	F	-0.725419	-0.201638	1.184487
F255	F	-0.475419	0.048362	1.434487
F256	F	-0.225419	0.298362	1.684487
F257	F	-0.626919	-0.316926	0.496164
F258	F	-0.376919	-0.066926	0.746164
F259	F	-0.126919	0.183074	0.996164
F260	F	0.123081	0.433074	1.246164
F261	F	-0.975388	-0.451679	0.775828
F262	F	-0.725388	-0.201679	1.025828
F263	F	-0.475388	0.048321	1.275828
F264	F	-0.225388	0.298321	1.525828
H265	H	-0.527313	-0.230777	0.388144
H266	H	-0.277313	0.019223	0.638144
H267	H	-0.027313	0.269223	0.888144
H268	H	0.222687	0.519223	1.138144
H269	H	-1.159627	-0.269165	0.785510
H270	H	-0.909627	-0.019165	1.035510
H271	H	-0.659627	0.230835	1.285510
H272	H	-0.409627	0.480835	1.535510
F273	F	-1.171525	-0.257365	0.934551
F274	F	-0.921525	-0.007365	1.184551
F275	F	-0.671525	0.242635	1.434551
F276	F	-0.421525	0.492635	1.684551
