data_functionalizedCrystal
_audit_creation_method	'MofGen! by Chris Wilmer'
_symmetry_space_group_name_H-M	'P1'
_symmetry_Int_Tables_number	1
_symmetry_cell_setting	triclinic
loop_
_symmetry_equiv_pos_as_xyz
  x,y,z
_cell_length_a	14.908782
_cell_length_b	15.299816
_cell_length_c	14.908308
_cell_angle_alpha	103.454544
_cell_angle_beta	96.759680
_cell_angle_gamma	76.552498
loop_
_atom_site_label
_atom_site_type_symbol
_atom_site_fract_x
_atom_site_fract_y
_atom_site_fract_z
Zn1	Zn	1.431230	-0.470911	-0.508927
Zn2	Zn	1.931230	0.029089	-0.008927
Zn3	Zn	1.463637	-0.616255	-0.381379
Zn4	Zn	1.963637	-0.116255	0.118621
Zn5	Zn	1.285870	-0.454183	-0.363591
Zn6	Zn	1.785870	0.045817	0.136409
Zn7	Zn	1.303602	-0.616204	-0.541431
Zn8	Zn	1.803602	-0.116204	-0.041431
O9	O	1.371085	-0.539388	-0.448832
O10	O	1.871085	-0.039388	0.051168
O11	O	1.563338	-0.497214	-0.485848
O12	O	2.063338	0.002786	0.014152
O13	O	1.446197	-0.587776	-0.251214
O14	O	1.946197	-0.087776	0.248786
O15	O	1.284170	-0.327768	-0.361823
O16	O	1.784170	0.172232	0.138177
O17	O	1.587147	-0.603997	-0.392139
O18	O	2.087147	-0.103997	0.107861
O19	O	1.390965	-0.340059	-0.468600
O20	O	1.890965	0.159941	0.031400
O21	O	1.315593	-0.468702	-0.238145
O22	O	1.815593	0.031298	0.261855
O23	O	1.160413	-0.468653	-0.393341
O24	O	1.660413	0.031347	0.106659
O25	O	1.314390	-0.603911	-0.664925
O26	O	1.814390	-0.103911	-0.164925
O27	O	1.173440	-0.587690	-0.523999
O28	O	1.673440	-0.087690	-0.023999
O29	O	1.408159	-0.497164	-0.641044
O30	O	1.908159	0.002836	-0.141044
O31	O	1.463390	-0.744882	-0.423657
O32	O	1.963390	-0.244882	0.076343
O33	O	1.345813	-0.744845	-0.541247
O34	O	1.845813	-0.244845	-0.041247
C35	C	1.133787	-0.526351	-0.460268
C36	C	1.633787	-0.026351	0.039732
C37	C	1.032273	-0.520797	-0.465186
C38	C	1.532273	-0.020797	0.034814
C39	C	0.866290	-0.621383	-0.376643
C40	C	1.366290	-0.121383	0.123357
C41	C	0.770909	-0.616168	-0.381261
C42	C	1.270909	-0.116168	0.118739
C43	C	0.746129	-0.505156	-0.479045
C44	C	1.246129	-0.005156	0.020955
C45	C	0.841510	-0.510371	-0.474427
C46	C	1.341510	-0.010371	0.025573
C47	C	0.901588	-0.568486	-0.423223
C48	C	1.401588	-0.068486	0.076777
C49	C	0.996970	-0.573696	-0.418600
C50	C	1.496970	-0.073696	0.081400
C51	C	0.972189	-0.462690	-0.516389
C52	C	1.472189	0.037310	-0.016389
C53	C	0.876808	-0.457474	-0.521007
C54	C	1.376808	0.042526	-0.021007
C55	C	1.410066	-0.778219	-0.487928
C56	C	1.910066	-0.278219	0.012072
C57	C	1.426825	-0.880398	-0.504680
C58	C	1.926825	-0.380398	-0.004680
C59	C	1.251892	-1.143132	-0.329384
C60	C	1.751892	-0.643132	0.170616
C61	C	1.236142	-1.047129	-0.313647
C62	C	1.736142	-0.547129	0.186353
C63	C	1.283811	-1.005442	-0.361404
C64	C	1.783811	-0.505442	0.138596
C65	C	1.347234	-1.059766	-0.424901
C66	C	1.847234	-0.559766	0.075099
C67	C	1.362980	-1.155778	-0.440644
C68	C	1.862980	-0.655778	0.059356
C69	C	1.394900	-1.018088	-0.472664
C70	C	1.894900	-0.518088	0.027336
C71	C	1.458322	-1.072412	-0.536161
C72	C	1.958322	-0.572412	-0.036161
C73	C	1.474066	-1.168414	-0.551901
C74	C	1.974066	-0.668414	-0.051901
C75	C	1.426396	-1.210102	-0.504145
C76	C	1.926396	-0.710102	-0.004145
C77	C	1.379153	-0.922076	-0.456920
C78	C	1.879153	-0.422076	0.043080
C79	C	1.490241	-0.934722	-0.568180
C80	C	1.990241	-0.434722	-0.068180
C81	C	1.505991	-1.030724	-0.583917
C82	C	2.005991	-0.530724	-0.083917
C83	C	1.609309	-0.552477	-0.437352
C84	C	2.109309	-0.052477	0.062648
C85	C	1.710825	-0.558055	-0.432460
C86	C	2.210825	-0.058055	0.067540
C87	C	1.359638	-0.552398	-0.687050
C88	C	1.859638	-0.052398	-0.187050
C89	C	1.354760	-0.557942	-0.788564
C90	C	1.854760	-0.057942	-0.288564
C91	C	1.331975	-0.299628	-0.409602
C92	C	1.831975	0.200372	0.090398
C93	C	1.315308	-0.197456	-0.392884
C94	C	1.815308	0.302544	0.107116
C95	C	1.443228	-0.457183	-0.954451
C96	C	1.943228	0.042817	-0.454451
C97	C	1.438647	-0.462389	-1.049832
C98	C	1.938647	0.037611	-0.549832
C99	C	1.341012	-0.573554	-1.074708
C100	C	1.841012	-0.073554	-0.574708
C101	C	1.345593	-0.568348	-0.979327
C102	C	1.845593	-0.068348	-0.479327
C103	C	1.396704	-0.510161	-0.919201
C104	C	1.896704	-0.010161	-0.419201
C105	C	1.401290	-0.504961	-0.823819
C106	C	1.901290	-0.004961	-0.323819
C107	C	1.303649	-0.616121	-0.848696
C108	C	1.803649	-0.116121	-0.348696
C109	C	1.299068	-0.621327	-0.944077
C110	C	1.799068	-0.121327	-0.444077
C111	C	1.382529	-0.526366	-0.211528
C112	C	1.882529	-0.026366	0.288472
C113	C	1.387542	-0.520573	-0.109963
C114	C	1.887542	-0.020573	0.390037
H115	H	0.915206	-0.668697	-0.334944
H116	H	1.415206	-0.168697	0.165056
Br117	Br	0.664584	-0.426314	-0.548554
Br118	Br	1.164584	0.073686	-0.048554
H119	H	1.476529	-0.419245	-1.078527
H120	H	1.976529	0.080755	-0.578527
H121	H	0.827880	-0.410162	-0.562699
H122	H	1.327880	0.089838	-0.062699
Br123	Br	1.271642	-0.652505	-1.156319
Br124	Br	1.771642	-0.152505	-0.656319
Br125	Br	1.560116	-1.242139	-0.638098
Br126	Br	2.060116	-0.742139	-0.138098
H127	H	1.529056	-0.900781	-0.607070
H128	H	2.029056	-0.400781	-0.107070
Br129	Br	1.020095	-0.390883	-0.579594
Br130	Br	1.520095	0.109117	-0.079594
Br131	Br	1.447995	-1.340396	-0.525275
Br132	Br	1.947995	-0.840396	-0.025275
Br133	Br	1.229703	-0.700287	-1.025682
Br134	Br	1.729703	-0.200287	-0.525682
H135	H	1.557630	-1.074969	-0.635617
H136	H	2.057630	-0.574969	-0.135617
Br137	Br	1.078503	-0.652563	-0.349108
Br138	Br	1.578503	-0.152563	0.150892
H139	H	1.327514	-0.877854	-0.405221
H140	H	1.827514	-0.377854	0.094779
H141	H	0.742175	-0.659244	-0.343333
H142	H	1.242175	-0.159244	0.156667
H143	H	1.265768	-0.659263	-0.819987
H144	H	1.765768	-0.159263	-0.319987
H145	H	1.270985	-0.927272	-0.348586
H146	H	1.770985	-0.427272	0.151414
Br147	Br	1.150059	-0.973410	-0.227491
Br148	Br	1.650059	-0.473410	0.272509
H149	H	1.213082	-1.177083	-0.290512
H150	H	1.713082	-0.677083	0.209488
H151	H	1.442908	-0.457584	-0.774866
H152	H	1.942908	0.042416	-0.274866
H153	H	1.484850	-0.409810	-0.905496
H154	H	1.984850	0.090190	-0.405496
