data_functionalizedCrystal
_audit_creation_method	'MofGen! by Chris Wilmer'
_symmetry_space_group_name_H-M	'P1'
_symmetry_Int_Tables_number	1
_symmetry_cell_setting	triclinic
loop_
_symmetry_equiv_pos_as_xyz
  x,y,z
_cell_length_a	12.645330
_cell_length_b	16.959455
_cell_length_c	16.959447
_cell_angle_alpha	90.026267
_cell_angle_beta	89.973848
_cell_angle_gamma	89.987315
loop_
_atom_site_label
_atom_site_type_symbol
_atom_site_fract_x
_atom_site_fract_y
_atom_site_fract_z
Zn1	Zn	-0.422159	-1.208417	-0.447129
Zn2	Zn	-0.599451	-1.208339	-0.314960
Zn3	Zn	-0.422187	-1.076240	-0.314945
Zn4	Zn	-0.599365	-1.076216	-0.447077
O5	O	-0.510791	-1.142303	-0.381028
O6	O	-0.445702	-1.319018	-0.429624
O7	O	-0.575984	-1.190793	-0.204347
O8	O	-0.273836	-1.093816	-0.332494
O9	O	-0.575957	-1.318961	-0.332520
O10	O	-0.273815	-1.190926	-0.429609
O11	O	-0.445748	-1.093740	-0.204336
O12	O	-0.445665	-0.965626	-0.332444
O13	O	-0.575811	-1.093776	-0.557695
O14	O	-0.575838	-0.965608	-0.429521
O15	O	-0.445619	-1.190903	-0.557733
O16	O	-0.747787	-1.190770	-0.332470
O17	O	-0.747724	-1.093700	-0.429536
C18	C	-0.510746	-0.936937	-0.380976
C19	C	-0.510753	-0.849080	-0.380973
C20	C	-0.578516	-0.477564	-0.330402
C21	C	-0.443090	-0.477645	-0.431674
C22	C	-0.443077	-0.560191	-0.431659
C23	C	-0.510785	-0.601427	-0.381016
C24	C	-0.578507	-0.560118	-0.330387
C25	C	-0.375364	-0.601507	-0.482292
C26	C	-0.375348	-0.684058	-0.482280
C27	C	-0.443052	-0.725296	-0.431633
C28	C	-0.510776	-0.683981	-0.381002
C29	C	-0.578484	-0.725217	-0.330359
C30	C	-0.646203	-0.683904	-0.279723
C31	C	-0.646210	-0.601355	-0.279740
C32	C	-0.443044	-0.807844	-0.431616
C33	C	-0.578475	-0.807771	-0.330344
C34	C	-0.786220	-1.142245	-0.381016
C35	C	-0.904050	-1.142293	-0.381038
C36	C	-1.071619	-1.081478	-0.442291
C37	C	-0.949059	-1.081167	-0.442094
C38	C	-0.948644	-1.119748	-0.297733
C39	C	-1.071243	-1.119377	-0.298105
C40	C	-1.071149	-1.226025	-0.402416
C41	C	-0.948542	-1.225512	-0.404237
C42	C	-0.234285	-1.142383	-0.381056
C43	C	-0.116455	-1.142416	-0.381068
C44	C	-0.510702	-1.142345	-0.587196
C45	C	-0.510665	-1.142363	-0.675053
C46	C	-0.510824	-0.348471	-0.381065
C47	C	-0.510808	-0.436328	-0.381045
C48	C	-0.442746	-1.091902	-1.046529
C49	C	-0.578361	-1.192964	-1.046528
C50	C	-0.578386	-1.192950	-0.963982
C51	C	-0.510590	-1.142411	-0.922706
C52	C	-0.442770	-1.091885	-0.963975
C53	C	-0.646212	-1.243470	-0.922706
C54	C	-0.646240	-1.243457	-0.840155
C55	C	-0.578439	-1.192921	-0.798877
C56	C	-0.510615	-1.142394	-0.840152
C57	C	-0.442820	-1.091855	-0.798876
C58	C	-0.374990	-1.041331	-0.840149
C59	C	-0.374969	-1.041349	-0.922697
C60	C	-0.578460	-1.192903	-0.716329
C61	C	-0.442845	-1.091838	-0.716322
C62	C	-0.510802	-1.142306	-0.175661
C63	C	-0.510541	-1.142442	-0.087805
H64	H	-0.633648	-0.443923	-0.289173
H65	H	-0.319747	-1.000214	-0.956309
Cl66	Cl	-0.731326	-0.735753	-0.216065
H67	H	-0.633608	-0.841339	-0.289101
Cl68	Cl	-0.289764	-0.977800	-0.788249
H69	H	-0.387971	-0.444066	-0.472909
Cl70	Cl	-0.357924	-0.859777	-0.495270
Cl71	Cl	-0.902499	-1.102940	-0.537463
H72	H	-0.387517	-1.050769	-1.080137
H73	H	-0.320246	-0.567926	-0.523528
Cl74	Cl	-0.903639	-1.186100	-0.225377
Cl75	Cl	-0.663594	-1.256489	-1.098419
H76	H	-0.320207	-0.717688	-0.523511
Cl77	Cl	-0.731338	-0.549414	-0.216092
Cl78	Cl	-0.903537	-1.251766	-0.498893
H79	H	-0.918027	-1.059266	-0.279323
Cl80	Cl	-0.731445	-1.306992	-0.974599
Cl81	Cl	-1.117046	-1.184920	-0.225269
Cl82	Cl	-0.663732	-1.256407	-0.664446
Cl83	Cl	-1.117032	-1.103049	-0.537975
H84	H	-0.701472	-1.284596	-0.806558
Cl85	Cl	-1.118767	-1.257780	-0.494611
Cl86	Cl	-1.119339	-0.986379	-0.420750
Cl87	Cl	-0.903905	-0.985467	-0.420260
Cl88	Cl	-1.115534	-1.025015	-0.270187
Cl89	Cl	-0.901225	-1.299306	-0.340412
H90	H	-1.100143	-1.271426	-0.357825
H91	H	-0.387632	-1.050685	-0.682721
