data_functionalizedCrystal
_audit_creation_method	'MofGen! by Chris Wilmer'
_symmetry_space_group_name_H-M	'P1'
_symmetry_Int_Tables_number	1
_symmetry_cell_setting	triclinic
loop_
_symmetry_equiv_pos_as_xyz
  x,y,z
_cell_length_a	8.559649
_cell_length_b	10.654555
_cell_length_c	9.730223
_cell_angle_alpha	89.999357
_cell_angle_beta	90.000326
_cell_angle_gamma	102.867042
loop_
_atom_site_label
_atom_site_type_symbol
_atom_site_fract_x
_atom_site_fract_y
_atom_site_fract_z
O1	O	-0.224221	1.644668	-0.114300
O2	O	-0.245570	1.276985	-0.114300
O3	O	-0.002653	1.493220	-0.114295
O4	O	-0.467138	1.428434	-0.114305
O5	O	-0.002659	1.493217	0.114285
O6	O	-0.245576	1.276983	0.114280
O7	O	-0.224227	1.644665	0.114280
Zn8	Zn	-0.234903	1.460824	0.150572
Zn9	Zn	-0.234894	1.460827	-0.150592
O10	O	-0.467144	1.428431	0.114275
C11	C	-0.244004	1.230348	-0.000010
C12	C	-0.239308	1.091390	-0.000009
C13	C	0.056819	1.498128	-0.000006
C14	C	0.234037	1.512743	-0.000011
C15	C	-0.225793	1.691303	-0.000014
C16	C	-0.230489	1.830260	-0.000023
C17	C	0.473384	1.423523	-0.000015
C18	C	0.296166	1.408908	-0.000012
C19	C	-0.232698	1.895544	-0.124619
C20	C	-0.237102	2.026111	-0.124614
C21	C	-0.237094	2.026098	0.124597
C22	C	-0.232679	1.895536	0.124589
C23	C	-0.232709	1.895551	-0.268499
C24	C	-0.237113	2.026119	-0.268493
N25	N	-0.234907	1.460830	0.356108
N26	N	-0.234877	1.460832	-0.356128
C27	C	-0.127380	1.556597	0.428036
C28	C	-0.127361	1.556596	0.571919
C29	C	-0.342409	1.365055	0.571933
C30	C	-0.342420	1.365052	0.428053
C31	C	-0.003228	1.667185	0.428030
C32	C	-0.003209	1.667183	0.571913
H33	H	0.213772	1.308824	-0.000002
O34	O	-0.368228	1.819929	-0.321992
C35	C	-0.387622	1.857091	-0.458889
H36	H	-0.266476	1.908267	-0.502344
H37	H	-0.438685	1.768057	-0.523344
H38	H	-0.473386	1.924999	-0.461679
O39	O	0.332147	1.632207	-0.000197
C40	C	0.302405	1.699529	-0.118599
H41	H	0.176424	1.656661	-0.158066
H42	H	0.313119	1.805305	-0.091976
H43	H	0.393618	1.691062	-0.201495
O44	O	-0.230306	1.832308	0.245713
C45	C	-0.093361	1.891733	0.321483
H46	H	-0.050571	1.995707	0.286042
H47	H	-0.124528	1.890015	0.435476
H48	H	0.005751	1.837532	0.304201
O49	O	0.143063	1.656481	0.381504
C50	C	0.176666	1.540585	0.429952
H51	H	0.059641	1.469627	0.455520
H52	H	0.243465	1.497701	0.347251
H53	H	0.254062	1.560708	0.526257
H54	H	-0.123435	2.089569	-0.313139
H55	H	-0.042105	1.754352	0.383402
H56	H	-0.238877	2.079262	0.226052
O57	O	-0.098213	1.879672	-0.334212
C58	C	-0.003974	1.824983	-0.242959
H59	H	-0.083104	1.771776	-0.157562
H60	H	0.054252	1.754528	-0.301193
H61	H	0.093131	1.904418	-0.196333
H62	H	-0.349820	2.039309	-0.323723
O63	O	-0.447013	1.271955	0.358394
C64	C	-0.541871	1.187407	0.452752
H65	H	-0.544288	1.238661	0.555313
H66	H	-0.669116	1.155954	0.411186
H67	H	-0.488917	1.099240	0.468056
H68	H	-0.429942	1.287075	0.630526
O69	O	0.134967	1.644864	0.625203
C70	C	0.099894	1.532701	0.706742
H71	H	-0.019563	1.469459	0.673144
H72	H	0.198639	1.477384	0.693753
H73	H	0.092245	1.560561	0.819259
H74	H	-0.030559	1.760870	0.610963
