data_functionalizedCrystal
_audit_creation_method	'MofGen! by Chris Wilmer'
_symmetry_space_group_name_H-M	'P1'
_symmetry_Int_Tables_number	1
_symmetry_cell_setting	triclinic
loop_
_symmetry_equiv_pos_as_xyz
  x,y,z
_cell_length_a	16.992694
_cell_length_b	19.288865
_cell_length_c	18.366186
_cell_angle_alpha	90.011479
_cell_angle_beta	90.003288
_cell_angle_gamma	86.902236
loop_
_atom_site_label
_atom_site_type_symbol
_atom_site_fract_x
_atom_site_fract_y
_atom_site_fract_z
O1	O	-1.039876	-0.147253	-0.060473
O2	O	-0.539876	0.352747	0.439527
O3	O	-0.811597	-0.145638	-0.060494
O4	O	-0.311597	0.354362	0.439506
O5	O	-0.932333	-0.045699	-0.060468
O6	O	-0.432333	0.454301	0.439532
O7	O	-0.919140	-0.247191	-0.060498
O8	O	-0.419140	0.252809	0.439502
O9	O	-0.932312	-0.045693	0.060631
O10	O	-0.432312	0.454307	0.560631
O11	O	-0.811576	-0.145631	0.060605
O12	O	-0.311576	0.354369	0.560605
O13	O	-1.039856	-0.147247	0.060627
O14	O	-0.539856	0.352753	0.560627
Zn15	Zn	-0.925713	-0.146438	0.079843
Zn16	Zn	-0.425713	0.353562	0.579843
Zn17	Zn	-0.925740	-0.146446	-0.079711
Zn18	Zn	-0.425740	0.353554	0.420289
O19	O	-0.919120	-0.247185	0.060601
O20	O	-0.419120	0.252815	0.560601
C21	C	-0.782381	-0.143556	0.000053
C22	C	-0.282381	0.356444	0.500053
C23	C	-0.695359	-0.137355	0.000046
C24	C	-0.195359	0.362645	0.500046
C25	C	-0.931898	-0.019795	0.000083
C26	C	-0.431898	0.480205	0.500083
C27	C	-0.930624	0.057383	0.000090
C28	C	-0.430624	0.557383	0.500090
C29	C	-1.069071	-0.149328	0.000078
C30	C	-0.569071	0.350672	0.500078
C31	C	-1.156093	-0.155529	0.000081
C32	C	-0.656093	0.344471	0.500081
C33	C	-0.644907	-0.197184	0.000037
C34	C	-0.144907	0.302816	0.500037
C35	C	-0.563141	-0.191353	0.000048
C36	C	-0.063141	0.308647	0.500048
C37	C	-0.531829	-0.125694	0.000062
C38	C	-0.031829	0.374306	0.500062
C39	C	-0.582287	-0.065862	0.000073
C40	C	-0.082287	0.434138	0.500073
C41	C	-0.664051	-0.071693	0.000067
C42	C	-0.164051	0.428307	0.500067
C43	C	-0.288316	-0.101527	0.000085
C44	C	0.211684	0.398473	0.500085
C45	C	-0.206545	-0.095701	0.000089
C46	C	0.293455	0.404299	0.500089
C47	C	-0.187405	-0.221193	0.000066
C48	C	0.312595	0.278807	0.500066
C49	C	-0.269172	-0.227018	0.000056
C50	C	0.230828	0.272982	0.500056
C51	C	-0.319623	-0.167186	0.000070
C52	C	0.180377	0.332814	0.500070
N53	N	-0.448251	-0.119733	0.000071
N54	N	0.051749	0.380267	0.500071
N55	N	-0.403199	-0.173147	0.000066
N56	N	0.096801	0.326853	0.500066
C57	C	-0.919555	-0.273089	0.000048
C58	C	-0.419555	0.226911	0.500048
C59	C	-0.920829	-0.350267	0.000036
C60	C	-0.420829	0.149733	0.500036
N61	N	-0.925700	-0.146432	0.188734
N62	N	-0.425700	0.353568	0.688734
C63	C	-1.001466	0.097950	0.000100
C64	C	-0.501466	0.597950	0.500100
C65	C	-1.000269	0.170467	0.000088
C66	C	-0.500269	0.670467	0.500088
C67	C	-0.928225	0.202413	0.000081
C68	C	-0.428225	0.702413	0.500081
C69	C	-0.857374	0.161837	0.000067
C70	C	-0.357374	0.661837	0.500067
C71	C	-0.858573	0.089321	0.000071
C72	C	-0.358573	0.589321	0.500071
C73	C	-0.871584	0.314004	0.042494
C74	C	-0.371584	0.814004	0.542494
C75	C	-0.870387	0.386518	0.042494
C76	C	-0.370387	0.886518	0.542494
C77	C	-0.924524	0.426075	0.000064
C78	C	-0.424524	0.926075	0.500064
C79	C	-0.979870	0.393109	-0.042356
C80	C	-0.479870	0.893109	0.457644
C81	C	-0.981069	0.320594	-0.042352
C82	C	-0.481069	0.820594	0.457648
C83	C	-0.926917	0.281044	0.000076
C84	C	-0.426917	0.781044	0.500076
C85	C	-0.994073	0.545274	0.000061
C86	C	-0.494073	1.045274	0.500061
C87	C	-0.992873	0.617792	0.000045
C88	C	-0.492873	1.117792	0.500045
C89	C	-0.849976	0.609160	0.000031
C90	C	-0.349976	1.109160	0.500031
C91	C	-0.851178	0.536643	0.000040
C92	C	-0.351178	1.036643	0.500040
C93	C	-0.923229	0.504705	0.000058
C94	C	-0.423229	1.004705	0.500058
N95	N	-0.925759	-0.146447	-0.188602
N96	N	-0.425759	0.353553	0.311398
C97	C	-0.979179	-0.102204	0.226846
C98	C	-0.479179	0.397796	0.726846
C99	C	-0.979184	-0.102201	0.303074
C100	C	-0.479184	0.397799	0.803074
C101	C	-0.925717	-0.146439	0.341187
C102	C	-0.425717	0.353561	0.841187
C103	C	-0.872228	-0.190670	0.303066
C104	C	-0.372228	0.309330	0.803066
C105	C	-0.872219	-0.190667	0.226840
C106	C	-0.372219	0.309333	0.726840
C107	C	-0.915223	-0.209115	0.461937
C108	C	-0.415223	0.290885	0.961937
C109	C	-0.915237	-0.209120	0.538162
C110	C	-0.415237	0.290880	1.038162
C111	C	-0.925740	-0.146449	0.576295
C112	C	-0.425740	0.353551	1.076295
C113	C	-0.936245	-0.083772	0.538192
C114	C	-0.436245	0.416228	1.038192
C115	C	-0.936236	-0.083768	0.461966
C116	C	-0.436236	0.416232	0.961966
C117	C	-0.925721	-0.146447	0.423842
C118	C	-0.425721	0.353553	0.923842
C119	C	-0.979227	-0.102214	0.697061
C120	C	-0.479227	0.397786	1.197061
C121	C	-0.979227	-0.102209	0.773290
C122	C	-0.479227	0.397791	1.273290
C123	C	-0.872274	-0.190685	0.773281
C124	C	-0.372274	0.309315	1.273281
C125	C	-0.872271	-0.190683	0.697053
C126	C	-0.372271	0.309317	1.197053
C127	C	-0.925752	-0.146448	0.658948
C128	C	-0.425752	0.353552	1.158948
H129	H	-0.670395	-0.250650	0.000025
H130	H	-0.170395	0.249350	0.500025
H131	H	-0.827497	0.281802	0.077050
H132	H	-0.327497	0.781802	0.577050
H133	H	-1.022735	-0.066183	0.334110
H134	H	-0.522735	0.433817	0.834110
H135	H	-1.026132	0.293756	-0.076894
H136	H	-0.526132	0.793756	0.423106
F137	F	-0.815366	-0.237762	0.813840
F138	F	-0.315366	0.262238	1.313840
H139	H	-0.556786	-0.012400	0.000095
H140	H	-0.056786	0.487600	0.500095
H141	H	-0.705129	-0.022974	0.000074
H142	H	-0.205129	0.477026	0.500074
H143	H	-0.906689	-0.260155	0.569179
H144	H	-0.406689	0.239845	1.069179
F145	F	-1.078149	0.063963	0.000104
F146	F	-0.578149	0.563963	0.500104
H147	H	-1.052741	0.519268	0.000073
H148	H	-0.552741	1.019268	0.500073
F149	F	-0.509450	-0.255031	0.000036
F150	F	-0.009450	0.244969	0.500036
F151	F	-0.342000	-0.037847	0.000101
F152	F	0.158000	0.462153	0.500101
F153	F	-0.947428	-0.017068	0.578769
F154	F	-0.447428	0.482932	1.078769
H155	H	-0.181054	-0.042230	0.000100
H156	H	0.318946	0.457770	0.500100
F157	F	-1.075672	0.213651	0.000098
F158	F	-0.575672	0.713651	0.500098
F159	F	-1.037490	0.435203	-0.087518
F160	F	-0.537490	0.935203	0.412482
H161	H	-0.825318	0.413353	0.077032
H162	H	-0.325318	0.913353	0.577032
F163	F	-0.783169	0.046145	0.000060
F164	F	-0.283169	0.546145	0.500060
F165	F	-0.773301	0.643154	0.000019
F166	F	-0.273301	1.143154	0.500019
H167	H	-1.050564	0.650821	0.000049
H168	H	-0.550564	1.150821	0.500049
F169	F	-0.775777	0.493466	0.000032
F170	F	-0.275777	0.993466	0.500032
H171	H	-0.828693	-0.226688	0.334102
H172	H	-0.328693	0.273312	0.834102
H173	H	-0.798715	0.187852	0.000059
H174	H	-0.298715	0.687852	0.500059
F175	F	-1.036094	-0.055123	0.186293
F176	F	-0.536094	0.444877	0.686293
H177	H	-1.022772	-0.066193	0.666035
H178	H	-0.522772	0.433807	1.166035
F179	F	-0.947409	-0.017064	0.421418
F180	F	-0.447409	0.482936	0.921418
H181	H	-1.022774	-0.066190	0.804322
H182	H	-0.522774	0.433810	1.304322
F183	F	-0.815354	-0.237760	0.656489
F184	F	-0.315354	0.262240	1.156489
H185	H	-0.294660	-0.280485	0.000036
H186	H	0.205340	0.219515	0.500036
H187	H	-0.906657	-0.260152	0.430896
H188	H	-0.406657	0.239848	0.930896
H189	H	-0.828669	-0.226684	0.195808
H190	H	-0.328669	0.273316	0.695808
H191	H	-0.146320	-0.269905	0.000055
H192	H	0.353680	0.230095	0.500055
