data_functionalizedCrystal
_audit_creation_method	'MofGen! by Chris Wilmer'
_symmetry_space_group_name_H-M	'P1'
_symmetry_Int_Tables_number	1
_symmetry_cell_setting	triclinic
loop_
_symmetry_equiv_pos_as_xyz
  x,y,z
_cell_length_a	9.065218
_cell_length_b	9.065218
_cell_length_c	7.540329
_cell_angle_alpha	90.001757
_cell_angle_beta	90.003038
_cell_angle_gamma	85.015885
loop_
_atom_site_label
_atom_site_type_symbol
_atom_site_fract_x
_atom_site_fract_y
_atom_site_fract_z
O1	O	-1.960398	-0.216355	-0.147479
O2	O	-1.627065	0.116979	0.185854
O3	O	-1.293732	0.450312	0.519188
O4	O	-1.531114	-0.234101	-0.147481
O5	O	-1.197780	0.099232	0.185852
O6	O	-0.864447	0.432566	0.519186
O7	O	-1.754629	-0.010585	-0.147476
O8	O	-1.421296	0.322748	0.185857
O9	O	-1.087963	0.656081	0.519190
O10	O	-1.736883	-0.439870	-0.147484
O11	O	-1.403549	-0.106537	0.185850
O12	O	-1.070216	0.226796	0.519183
O13	O	-1.754616	-0.010583	0.147489
O14	O	-1.421282	0.322751	0.480822
O15	O	-1.087949	0.656084	0.814155
O16	O	-1.531100	-0.234098	0.147484
O17	O	-1.197767	0.099235	0.480817
O18	O	-0.864433	0.432568	0.814151
O19	O	-1.960385	-0.216352	0.147486
O20	O	-1.627052	0.116982	0.480819
O21	O	-1.293718	0.450315	0.814153
Cu22	Cu	-1.745741	-0.225225	0.174418
Cu23	Cu	-1.412408	0.108109	0.507751
Cu24	Cu	-1.079075	0.441442	0.841084
Cu25	Cu	-1.745757	-0.225228	-0.174413
Cu26	Cu	-1.412424	0.108105	0.158921
Cu27	Cu	-1.079091	0.441438	0.492254
O28	O	-1.736869	-0.439867	0.147481
O29	O	-1.403536	-0.106534	0.480815
O30	O	-1.070203	0.226799	0.814148
C31	C	-1.476120	-0.232394	0.000001
C32	C	-1.142787	0.100939	0.333335
C33	C	-0.809454	0.434273	0.666668
C34	C	-1.312277	-0.227294	0.000000
C35	C	-0.978944	0.106039	0.333334
C36	C	-0.645611	0.439372	0.666667
C37	C	-1.752917	0.044403	0.000003
C38	C	-1.419584	0.377736	0.333337
C39	C	-1.086250	0.711069	0.666670
C40	C	-1.747817	0.208245	-0.000005
C41	C	-1.414484	0.541579	0.333328
C42	C	-1.081151	0.874912	0.666661
C43	C	-2.015378	-0.218059	-0.000000
C44	C	-1.682045	0.115275	0.333333
C45	C	-1.348712	0.448608	0.666667
C46	C	-2.179221	-0.223158	-0.000011
C47	C	-1.845888	0.110175	0.333322
C48	C	-1.512555	0.443508	0.666656
C49	C	-1.738582	-0.494855	-0.000002
C50	C	-1.405248	-0.161522	0.333331
C51	C	-1.071915	0.171811	0.666665
C52	C	-1.743681	-0.658698	-0.000005
C53	C	-1.410348	-0.325365	0.333328
C54	C	-1.077015	0.007968	0.666661
N55	N	-1.745741	-0.225222	0.419766
N56	N	-1.412408	0.108112	0.753100
N57	N	-1.079074	0.441445	1.086433
N58	N	-1.745769	-0.225220	-0.419761
N59	N	-1.412436	0.108113	-0.086428
N60	N	-1.079103	0.441447	0.246906
