data_functionalizedCrystal
_audit_creation_method	'MofGen! by Chris Wilmer'
_symmetry_space_group_name_H-M	'P1'
_symmetry_Int_Tables_number	1
_symmetry_cell_setting	triclinic
loop_
_symmetry_equiv_pos_as_xyz
  x,y,z
_cell_length_a	22.610064
_cell_length_b	23.532407
_cell_length_c	23.532357
_cell_angle_alpha	97.161515
_cell_angle_beta	90.001483
_cell_angle_gamma	89.997161
loop_
_atom_site_label
_atom_site_type_symbol
_atom_site_fract_x
_atom_site_fract_y
_atom_site_fract_z
O1	O	0.049118	-0.755251	0.069129
O2	O	0.382451	-0.421918	0.402462
O3	O	0.715784	-0.088584	0.735795
O4	O	0.049136	-0.589386	0.079132
O5	O	0.382470	-0.256053	0.412466
O6	O	0.715803	0.077281	0.745799
O7	O	0.049114	-0.677335	-0.008803
O8	O	0.382448	-0.344002	0.324530
O9	O	0.715781	-0.010668	0.657863
O10	O	0.049140	-0.667302	0.157064
O11	O	0.382473	-0.333969	0.490398
O12	O	0.715806	-0.000635	0.823731
O13	O	-0.049255	-0.677319	-0.008790
O14	O	0.284078	-0.343986	0.324543
O15	O	0.617412	-0.010653	0.657876
O16	O	-0.049233	-0.589370	0.079145
O17	O	0.284100	-0.256037	0.412478
O18	O	0.617434	0.077296	0.745812
O19	O	-0.049251	-0.755236	0.069142
O20	O	0.284082	-0.421902	0.402475
O21	O	0.617415	-0.088569	0.735808
Zn22	Zn	-0.064860	-0.672301	0.074145
Zn23	Zn	0.268473	-0.338967	0.407479
Zn24	Zn	0.601806	-0.005634	0.740812
Zn25	Zn	0.064745	-0.672321	0.074128
Zn26	Zn	0.398079	-0.338988	0.407462
Zn27	Zn	0.731412	-0.005654	0.740795
O28	O	-0.049229	-0.667286	0.157077
O29	O	0.284104	-0.333953	0.490410
O30	O	0.617437	-0.000620	0.823744
C31	C	-0.000046	-0.568162	0.078884
C32	C	0.333287	-0.234829	0.412217
C33	C	0.666620	0.098504	0.745551
C34	C	-0.000040	-0.504945	0.078118
C35	C	0.333294	-0.171612	0.411451
C36	C	0.666627	0.161721	0.744785
N37	N	-0.153313	-0.672291	0.074157
N38	N	0.180020	-0.338957	0.407490
N39	N	0.513354	-0.005624	0.740823
C40	C	-0.000072	-0.677076	-0.030013
C41	C	0.333261	-0.343743	0.303320
C42	C	0.666595	-0.010410	0.636653
C43	C	-0.000078	-0.676322	-0.093232
C44	C	0.333256	-0.342988	0.240101
C45	C	0.666589	-0.009655	0.573435
C46	C	-0.561964	-0.711267	0.035197
C47	C	-0.228631	-0.377933	0.368530
C48	C	0.104703	-0.044600	0.701863
C49	C	-0.623884	-0.711269	0.035192
C50	C	-0.290551	-0.377936	0.368526
C51	C	0.042783	-0.044603	0.701859
O52	O	-0.655911	-0.744384	0.002076
O53	O	-0.322578	-0.411050	0.335409
O54	O	0.010756	-0.077717	0.668742
N55	N	-0.654850	-0.672321	0.074117
N56	N	-0.321517	-0.338987	0.407450
N57	N	0.011817	-0.005654	0.740783
C58	C	-0.623893	-0.633362	0.113044
C59	C	-0.290560	-0.300029	0.446377
C60	C	0.042774	0.033304	0.779710
O61	O	-0.655918	-0.600233	0.146151
O62	O	-0.322585	-0.266900	0.479484
O63	O	0.010749	0.066433	0.812818
C64	C	-0.561974	-0.633357	0.113045
C65	C	-0.228641	-0.300024	0.446378
C66	C	0.104692	0.033309	0.779711
C67	C	-0.531011	-0.672312	0.074122
C68	C	-0.197678	-0.338979	0.407455
C69	C	0.135655	-0.005646	0.740788
C70	C	-0.531001	-0.750218	-0.003724
C71	C	-0.197668	-0.416885	0.329610
C72	C	0.135666	-0.083552	0.662943
C73	C	-0.469085	-0.750216	-0.003719
C74	C	-0.135752	-0.416883	0.329615
C75	C	0.197581	-0.083549	0.662948
C76	C	-0.438133	-0.711262	0.035207
C77	C	-0.104799	-0.377928	0.368540
C78	C	0.228534	-0.044595	0.701873
C79	C	-0.469096	-0.672310	0.074127
C80	C	-0.135762	-0.338977	0.407460
C81	C	0.197571	-0.005643	0.740793
C82	C	-0.531018	-0.594397	0.151969
C83	C	-0.197685	-0.261063	0.485302
C84	C	0.135648	0.072270	0.818635
C85	C	-0.469095	-0.594395	0.151966
C86	C	-0.135762	-0.261061	0.485299
C87	C	0.197571	0.072272	0.818633
C88	C	-0.438133	-0.633350	0.113043
C89	C	-0.104799	-0.300017	0.446376
C90	C	0.228534	0.033317	0.779710
C91	C	-0.376227	-0.633354	0.113057
C92	C	-0.042894	-0.300020	0.446390
C93	C	0.290439	0.033313	0.779724
N94	N	-0.345261	-0.672303	0.074133
N95	N	-0.011928	-0.338969	0.407466
N96	N	0.321405	-0.005636	0.740799
C97	C	-0.376214	-0.711257	0.035208
C98	C	-0.042881	-0.377923	0.368541
C99	C	0.290453	-0.044590	0.701874
C100	C	-0.753927	-0.633376	0.113038
C101	C	-0.420593	-0.300042	0.446371
C102	C	-0.087260	0.033291	0.779705
C103	C	-0.815844	-0.633383	0.113040
C104	C	-0.482511	-0.300050	0.446374
C105	C	-0.149178	0.033284	0.779707
C106	C	-0.815831	-0.711290	0.035188
C107	C	-0.482498	-0.377956	0.368521
C108	C	-0.149164	-0.044623	0.701855
C109	C	-0.753912	-0.711284	0.035189
C110	C	-0.420579	-0.377951	0.368522
C111	C	-0.087245	-0.044618	0.701856
C112	C	-0.722961	-0.672324	0.074114
C113	C	-0.389627	-0.338991	0.407447
C114	C	-0.056294	-0.005658	0.740780
C115	C	-0.246187	-0.711249	0.035221
C116	C	0.087147	-0.377916	0.368555
C117	C	0.420480	-0.044582	0.701888
C118	C	-0.184265	-0.711245	0.035231
C119	C	0.149068	-0.377911	0.368565
C120	C	0.482401	-0.044578	0.701898
C121	C	-0.184284	-0.633337	0.113081
C122	C	0.149049	-0.300003	0.446415
C123	C	0.482382	0.033330	0.779748
C124	C	-0.246200	-0.633342	0.113073
C125	C	0.087133	-0.300009	0.446407
C126	C	0.420467	0.033324	0.779740
C127	C	-0.277150	-0.672301	0.074139
C128	C	0.056184	-0.338968	0.407472
C129	C	0.389517	-0.005634	0.740805
O130	O	-0.344161	-0.600255	0.146155
O131	O	-0.010828	-0.266921	0.479488
O132	O	0.322506	0.066412	0.812822
O133	O	-0.344182	-0.744375	0.002101
O134	O	-0.010848	-0.411042	0.335434
O135	O	0.322485	-0.077709	0.668767
N136	N	0.153198	-0.672335	0.074113
N137	N	0.486531	-0.339002	0.407446
N138	N	0.819864	-0.005669	0.740779
C139	C	-0.000068	-0.776459	0.069390
C140	C	0.333266	-0.443126	0.402723
C141	C	0.666599	-0.109793	0.736057
C142	C	-0.000070	-0.839676	0.070156
C143	C	0.333263	-0.506343	0.403489
C144	C	0.666596	-0.173010	0.736822
C145	C	-0.000059	-0.105834	0.125353
C146	C	0.333274	0.227500	0.458686
C147	C	0.666607	0.560833	0.792019
C148	C	-0.000063	-0.046434	0.124641
C149	C	0.333270	0.286900	0.457974
C150	C	0.666604	0.620233	0.791308
O151	O	-0.000078	-0.009681	0.168428
O152	O	0.333255	0.323652	0.501761
O153	O	0.666589	0.656985	0.835095
N154	N	-0.000070	-0.023817	0.072364
N155	N	0.333263	0.309517	0.405697
N156	N	0.666597	0.642850	0.739030
C157	C	-0.000079	-0.060604	0.020794
C158	C	0.333254	0.272730	0.354127
C159	C	0.666587	0.606063	0.687461
O160	O	-0.000086	-0.035912	-0.023737
O161	O	0.333247	0.297421	0.309596
O162	O	0.666580	0.630755	0.642929
C163	C	-0.000080	-0.120003	0.021506
C164	C	0.333253	0.213331	0.354839
C165	C	0.666587	0.546664	0.688173
C166	C	-0.000067	-0.142616	0.073787
C167	C	0.333266	0.190717	0.407120
C168	C	0.666600	0.524051	0.740454
C169	C	-0.000047	-0.128448	0.177629
C170	C	0.333286	0.204886	0.510963
C171	C	0.666620	0.538219	0.844296
C172	C	-0.000042	-0.187844	0.178341
C173	C	0.333291	0.145490	0.511674
C174	C	0.666625	0.478823	0.845007
C175	C	-0.000050	-0.224626	0.126775
C176	C	0.333284	0.108708	0.460108
C177	C	0.666617	0.442041	0.793442
C178	C	-0.000062	-0.202012	0.074498
C179	C	0.333271	0.131321	0.407832
C180	C	0.666605	0.464655	0.741165
C181	C	-0.000093	-0.156788	-0.030063
C182	C	0.333240	0.176545	0.303271
C183	C	0.666573	0.509878	0.636604
C184	C	-0.000094	-0.216191	-0.029346
C185	C	0.333239	0.117143	0.303987
C186	C	0.666572	0.450476	0.637321
C187	C	-0.000081	-0.238804	0.022935
C188	C	0.333252	0.094529	0.356268
C189	C	0.666585	0.427863	0.689601
C190	C	-0.000065	-0.298190	0.023644
C191	C	0.333269	0.035143	0.356977
C192	C	0.666602	0.368477	0.690311
N193	N	-0.000058	-0.320807	0.075922
N194	N	0.333276	0.012526	0.409255
N195	N	0.666609	0.345860	0.742588
C196	C	-0.000050	-0.284025	0.127487
C197	C	0.333283	0.049309	0.460820
C198	C	0.666616	0.382642	0.794154
C199	C	-0.000079	0.064139	0.019303
C200	C	0.333254	0.397472	0.352636
C201	C	0.666587	0.730805	0.685969
C202	C	-0.000075	0.123536	0.018590
C203	C	0.333259	0.456870	0.351923
C204	C	0.666592	0.790203	0.685257
C205	C	-0.000059	0.137702	0.122437
C206	C	0.333274	0.471036	0.455771
C207	C	0.666607	0.804369	0.789104
C208	C	-0.000060	0.078303	0.123149
C209	C	0.333273	0.411637	0.456483
C210	C	0.666607	0.744970	0.789816
C211	C	-0.000072	0.041522	0.071580
C212	C	0.333261	0.374855	0.404914
C213	C	0.666594	0.708188	0.738247
C214	C	-0.000040	-0.408761	0.128977
C215	C	0.333294	-0.075428	0.462310
C216	C	0.666627	0.257905	0.795644
C217	C	-0.000032	-0.468163	0.129684
C218	C	0.333301	-0.134830	0.463017
C219	C	0.666634	0.198504	0.796350
C220	C	-0.000051	-0.482324	0.025837
C221	C	0.333283	-0.148991	0.359170
C222	C	0.666616	0.184343	0.692503
C223	C	-0.000055	-0.422927	0.025130
C224	C	0.333279	-0.089594	0.358463
C225	C	0.666612	0.243739	0.691796
C226	C	-0.000051	-0.386147	0.076704
C227	C	0.333282	-0.052813	0.410038
C228	C	0.666615	0.280520	0.743371
O229	O	-0.000052	-0.334977	-0.020120
O230	O	0.333281	-0.001644	0.313213
O231	O	0.666614	0.331690	0.646547
O232	O	-0.000051	-0.308725	0.172011
O233	O	0.333282	0.024609	0.505345
O234	O	0.666616	0.357942	0.838678
C235	C	0.053576	-0.671594	-0.485250
C236	C	0.386909	-0.338260	-0.151917
C237	C	0.720243	-0.004927	0.181416
C238	C	0.053579	-0.670876	-0.544650
C239	C	0.386913	-0.337543	-0.211316
C240	C	0.720246	-0.004210	0.122017
O241	O	0.099182	-0.670493	-0.575372
O242	O	0.432515	-0.337160	-0.242039
O243	O	0.765849	-0.003827	0.091295
N244	N	-0.000041	-0.670512	-0.574354
N245	N	0.333292	-0.337179	-0.241021
N246	N	0.666626	-0.003845	0.092313
C247	C	-0.053668	-0.670859	-0.544655
C248	C	0.279665	-0.337526	-0.211321
C249	C	0.612999	-0.004193	0.122012
O250	O	-0.099276	-0.670483	-0.575375
O251	O	0.234057	-0.337150	-0.242041
O252	O	0.567391	-0.003817	0.091292
C253	C	-0.053671	-0.671573	-0.485256
C254	C	0.279662	-0.338239	-0.151923
C255	C	0.612996	-0.004906	0.181411
C256	C	-0.000047	-0.671943	-0.455556
C257	C	0.333286	-0.338609	-0.122222
C258	C	0.666619	-0.005276	0.211111
C259	C	0.107195	-0.671963	-0.455550
C260	C	0.440529	-0.338629	-0.122216
C261	C	0.773862	-0.005296	0.211117
C262	C	0.107192	-0.672681	-0.396155
C263	C	0.440525	-0.339348	-0.062821
C264	C	0.773858	-0.006014	0.270512
C265	C	0.053569	-0.673030	-0.366460
C266	C	0.386902	-0.339697	-0.033127
C267	C	0.720235	-0.006363	0.300207
C268	C	-0.000051	-0.672661	-0.396160
C269	C	0.333282	-0.339327	-0.062827
C270	C	0.666616	-0.005994	0.270506
C271	C	-0.107298	-0.671916	-0.455557
C272	C	0.226036	-0.338582	-0.122224
C273	C	0.559369	-0.005249	0.211109
C274	C	-0.107296	-0.672629	-0.396154
C275	C	0.226038	-0.339295	-0.062821
C276	C	0.559371	-0.005962	0.270512
C277	C	-0.053672	-0.672998	-0.366454
C278	C	0.279661	-0.339665	-0.033121
C279	C	0.612995	-0.006332	0.300213
C280	C	-0.053678	-0.673728	-0.307070
C281	C	0.279656	-0.340395	0.026263
C282	C	0.612989	-0.007061	0.359596
N283	N	-0.000057	-0.674092	-0.277366
N284	N	0.333276	-0.340759	0.055967
N285	N	0.666609	-0.007426	0.389300
C286	C	0.053566	-0.673743	-0.307061
C287	C	0.386899	-0.340410	0.026272
C288	C	0.720232	-0.007077	0.359606
C289	C	-0.053658	-0.669361	-0.669396
C290	C	0.279675	-0.336027	-0.336063
C291	C	0.613009	-0.002694	-0.002730
C292	C	-0.053656	-0.668652	-0.728795
C293	C	0.279677	-0.335318	-0.395461
C294	C	0.613011	-0.001985	-0.062128
C295	C	0.053592	-0.668668	-0.728785
C296	C	0.386925	-0.335334	-0.395452
C297	C	0.720258	-0.002001	-0.062119
C298	C	0.053589	-0.669381	-0.669387
C299	C	0.386922	-0.336047	-0.336053
C300	C	0.720256	-0.002714	-0.002720
C301	C	-0.000038	-0.669725	-0.639692
C302	C	0.333296	-0.336392	-0.306359
C303	C	0.666629	-0.003058	0.026974
C304	C	0.053554	-0.675252	-0.182327
C305	C	0.386887	-0.341919	0.151007
C306	C	0.720221	-0.008585	0.484340
C307	C	0.053545	-0.675973	-0.122927
C308	C	0.386879	-0.342639	0.210407
C309	C	0.720212	-0.009306	0.543740
C310	C	-0.053702	-0.675954	-0.122941
C311	C	0.279631	-0.342621	0.210393
C312	C	0.612965	-0.009287	0.543726
C313	C	-0.053694	-0.675236	-0.182336
C314	C	0.279640	-0.341903	0.150997
C315	C	0.612973	-0.008570	0.484331
C316	C	-0.000061	-0.674883	-0.212027
C317	C	0.333272	-0.341550	0.121306
C318	C	0.666606	-0.008217	0.454639
O319	O	-0.099257	-0.674109	-0.276310
O320	O	0.234076	-0.340776	0.057023
O321	O	0.567410	-0.007443	0.390357
O322	O	0.099166	-0.674112	-0.276333
O323	O	0.432499	-0.340779	0.057001
O324	O	0.765833	-0.007445	0.390334
C325	C	-0.000042	-0.667545	0.178287
C326	C	0.333292	-0.334212	0.511620
C327	C	0.666625	-0.000879	0.844954
C328	C	-0.000032	-0.668300	0.241506
C329	C	0.333301	-0.334966	0.574839
C330	C	0.666634	-0.001633	0.908172
H331	H	-0.159057	-0.742969	0.003536
H332	H	0.174276	-0.409635	0.336869
H333	H	0.507609	-0.076302	0.670202
C334	C	0.112579	-0.668278	-0.761460
C335	C	0.445912	-0.334944	-0.428127
C336	C	0.779245	-0.001611	-0.094794
N337	N	0.157005	-0.667983	-0.786073
N338	N	0.490338	-0.334650	-0.452739
N339	N	0.823672	-0.001316	-0.119406
C340	C	-0.000057	0.178174	0.179161
C341	C	0.333276	0.511508	0.512494
C342	C	0.666610	0.844841	0.845827
N343	N	-0.000056	0.208659	0.221882
N344	N	0.333277	0.541993	0.555215
N345	N	0.666610	0.875326	0.888549
H346	H	-0.000105	-0.138388	-0.072635
H347	H	0.333229	0.194946	0.260698
H348	H	0.666562	0.528279	0.594031
C349	C	-0.000032	-0.368311	0.185712
C350	C	0.333301	-0.034978	0.519045
C351	C	0.666634	0.298356	0.852379
N352	N	-0.000023	-0.337844	0.228445
N353	N	0.333311	-0.004511	0.561778
N354	N	0.666644	0.328823	0.895112
C355	C	0.112579	-0.669782	-0.636721
C356	C	0.445912	-0.336449	-0.303388
C357	C	0.779245	-0.003116	0.029946
N358	N	0.157012	-0.670083	-0.612120
N359	N	0.490346	-0.336750	-0.278787
N360	N	0.823679	-0.003416	0.054547
H361	H	-0.097359	-0.674940	-0.206520
H362	H	0.235975	-0.341607	0.126813
H363	H	0.569308	-0.008274	0.460147
C364	C	-0.849897	-0.590533	0.155862
C365	C	-0.516563	-0.257200	0.489196
C366	C	-0.183230	0.076134	0.822529
N367	N	-0.875543	-0.558254	0.188115
N368	N	-0.542209	-0.224921	0.521448
N369	N	-0.208876	0.108412	0.854782
C370	C	-0.112646	-0.668251	-0.761459
C371	C	0.220687	-0.334917	-0.428126
C372	C	0.554020	-0.001584	-0.094793
N373	N	-0.157080	-0.667944	-0.786059
N374	N	0.176253	-0.334611	-0.452726
N375	N	0.509587	-0.001277	-0.119393
C376	C	-0.565064	-0.551538	0.194783
C377	C	-0.231731	-0.218204	0.528117
C378	C	0.101603	0.115129	0.861450
N379	N	-0.590706	-0.519252	0.227032
N380	N	-0.257373	-0.185918	0.560365
N381	N	0.075961	0.147415	0.893699
C382	C	-0.000106	-0.256648	-0.086078
C383	C	0.333228	0.076686	0.247255
C384	C	0.666561	0.410019	0.580589
N385	N	-0.000112	-0.287118	-0.128808
N386	N	0.333222	0.046215	0.204525
N387	N	0.666555	0.379548	0.537858
C388	C	-0.000062	-0.398052	-0.032382
C389	C	0.333272	-0.064719	0.300952
C390	C	0.666605	0.268615	0.634285
N391	N	-0.000072	-0.379320	-0.075700
N392	N	0.333262	-0.045987	0.257633
N393	N	0.666595	0.287347	0.590966
H394	H	-0.556197	-0.781939	-0.035424
H395	H	-0.222864	-0.448606	0.297910
H396	H	0.110469	-0.115273	0.631243
H397	H	-0.000031	-0.206249	0.220913
H398	H	0.333302	0.127084	0.554246
H399	H	0.666635	0.460417	0.887580
C400	C	-0.112656	-0.669749	-0.636739
C401	C	0.220678	-0.336415	-0.303406
C402	C	0.554011	-0.003082	0.029928
N403	N	-0.157093	-0.670041	-0.612145
N404	N	0.176241	-0.336707	-0.278811
N405	N	0.509574	-0.003374	0.054522
C406	C	-0.166289	-0.671502	-0.488213
C407	C	0.167044	-0.338168	-0.154880
C408	C	0.500378	-0.004835	0.178453
N409	N	-0.210725	-0.671186	-0.512809
N410	N	0.122608	-0.337853	-0.179475
N411	N	0.455941	-0.004520	0.153858
C412	C	-0.000066	-0.522795	-0.030883
C413	C	0.333268	-0.189462	0.302451
C414	C	0.666601	0.143871	0.635784
N415	N	-0.000084	-0.553280	-0.073604
N416	N	0.333250	-0.219947	0.259729
N417	N	0.666583	0.113387	0.593063
C418	C	-0.719859	-0.754134	-0.007633
C419	C	-0.386525	-0.420801	0.325701
C420	C	-0.053192	-0.087467	0.659034
N421	N	-0.694213	-0.786409	-0.039889
N422	N	-0.360879	-0.453075	0.293444
N423	N	-0.027546	-0.119742	0.626778
C424	C	-0.435053	-0.551540	0.194793
C425	C	-0.101719	-0.218207	0.528127
C426	C	0.231614	0.115126	0.861460
N427	N	-0.409413	-0.519266	0.227054
N428	N	-0.076079	-0.185932	0.560387
N429	N	0.257254	0.147401	0.893721
H430	H	-0.150966	-0.672900	-0.371979
H431	H	0.182367	-0.339567	-0.038646
H432	H	0.515700	-0.006234	0.294688
H433	H	-0.000043	-0.098505	0.219623
H434	H	0.333290	0.234829	0.552956
H435	H	0.666624	0.568162	0.886289
C436	C	-0.849891	-0.754136	-0.007635
C437	C	-0.516557	-0.420803	0.325699
C438	C	-0.183224	-0.087470	0.659032
N439	N	-0.875546	-0.786406	-0.039887
N440	N	-0.542213	-0.453072	0.293446
N441	N	-0.208880	-0.119739	0.626780
C442	C	-0.150225	-0.590487	0.155895
C443	C	0.183109	-0.257154	0.489228
C444	C	0.516442	0.076179	0.822562
N445	N	-0.124569	-0.558210	0.188139
N446	N	0.208764	-0.224876	0.521473
N447	N	0.542098	0.108457	0.854806
H448	H	-0.097360	-0.676241	-0.098753
H449	H	0.235973	-0.342907	0.234580
H450	H	0.569306	-0.009574	0.567914
H451	H	-0.000076	0.141942	-0.023982
H452	H	0.333257	0.475276	0.309351
H453	H	0.666591	0.808609	0.642684
C454	C	-0.280222	-0.754107	-0.007607
C455	C	0.053111	-0.420773	0.325726
C456	C	0.386444	-0.087440	0.659059
N457	N	-0.305857	-0.786390	-0.039864
N458	N	0.027476	-0.453056	0.293470
N459	N	0.360809	-0.119723	0.626803
C460	C	-0.000052	0.053435	0.180662
C461	C	0.333281	0.386768	0.513995
C462	C	0.666615	0.720102	0.847328
N463	N	-0.000049	0.034707	0.223983
N464	N	0.333285	0.368041	0.557316
N465	N	0.666618	0.701374	0.890649
C466	C	0.112538	-0.676378	-0.090260
C467	C	0.445872	-0.343045	0.243074
C468	C	0.779205	-0.009711	0.576407
N469	N	0.156971	-0.676681	-0.065657
N470	N	0.490304	-0.343348	0.267677
N471	N	0.823637	-0.010015	0.601010
C472	C	-0.280260	-0.590493	0.155894
C473	C	0.053073	-0.257160	0.489227
C474	C	0.386406	0.076173	0.822560
N475	N	-0.305910	-0.558215	0.188143
N476	N	0.027423	-0.224881	0.521476
N477	N	0.360756	0.108452	0.854810
C478	C	0.112553	-0.674874	-0.214980
C479	C	0.445886	-0.341540	0.118353
C480	C	0.779219	-0.008207	0.451687
N481	N	0.156990	-0.674595	-0.239575
N482	N	0.490324	-0.341262	0.093759
N483	N	0.823657	-0.007929	0.427092
C484	C	0.166190	-0.671603	-0.488208
C485	C	0.499524	-0.338270	-0.154875
C486	C	0.832857	-0.004937	0.178459
N487	N	0.210629	-0.671346	-0.512804
N488	N	0.543963	-0.338012	-0.179471
N489	N	0.877296	-0.004679	0.153863
C490	C	-0.435034	-0.793064	-0.046543
C491	C	-0.101701	-0.459731	0.286790
C492	C	0.231632	-0.126397	0.620123
N493	N	-0.409391	-0.825337	-0.078804
N494	N	-0.076057	-0.492004	0.254530
N495	N	0.257276	-0.158671	0.587863
C496	C	-0.719885	-0.590540	0.155887
C497	C	-0.386552	-0.257206	0.489221
C498	C	-0.053219	0.076127	0.822554
N499	N	-0.694249	-0.558283	0.188169
N500	N	-0.360915	-0.224950	0.521502
N501	N	-0.027582	0.108383	0.854835
H502	H	0.150858	-0.672980	-0.371978
H503	H	0.484191	-0.339647	-0.038644
H504	H	0.817524	-0.006313	0.294689
H505	H	-0.000084	0.034193	-0.022694
H506	H	0.333249	0.367527	0.310639
H507	H	0.666582	0.700860	0.643973
C508	C	-0.000022	-0.493033	0.187199
C509	C	0.333311	-0.159700	0.520532
C510	C	0.666644	0.173633	0.853866
N511	N	-0.000018	-0.511764	0.230519
N512	N	0.333316	-0.178430	0.563852
N513	N	0.666649	0.154903	0.897185
