data_functionalizedCrystal
_audit_creation_method	'MofGen! by Chris Wilmer'
_symmetry_space_group_name_H-M	'P1'
_symmetry_Int_Tables_number	1
_symmetry_cell_setting	triclinic
loop_
_symmetry_equiv_pos_as_xyz
  x,y,z
_cell_length_a	14.519731
_cell_length_b	15.995350
_cell_length_c	13.596369
_cell_angle_alpha	89.998161
_cell_angle_beta	90.006024
_cell_angle_gamma	83.590614
loop_
_atom_site_label
_atom_site_type_symbol
_atom_site_fract_x
_atom_site_fract_y
_atom_site_fract_z
O1	O	1.223659	0.109838	0.081788
O2	O	0.955161	0.122745	0.081789
O3	O	1.096749	-0.005585	0.081788
O4	O	1.082070	0.238168	0.081790
O5	O	1.096732	-0.005578	-0.081795
O6	O	0.955143	0.122752	-0.081794
O7	O	1.223641	0.109845	-0.081794
Zn8	Zn	1.089389	0.116300	-0.107766
Zn9	Zn	1.089412	0.116290	0.107761
O10	O	1.082053	0.238175	-0.081793
C11	C	0.920794	0.122144	-0.000002
C12	C	0.818417	0.120331	-0.000001
C13	C	0.735275	0.118859	0.000003
C14	C	0.630970	0.117019	0.000003
C15	C	0.547834	0.115559	0.000003
C16	C	0.443521	0.113719	0.000005
C17	C	1.096134	-0.036777	-0.000002
C18	C	1.094314	-0.129730	0.000004
C19	C	1.087781	-0.467488	0.000001
C20	C	0.986944	-0.420212	0.000368
C21	C	0.988764	-0.323519	-0.000001
C22	C	1.091021	-0.299922	0.000003
C23	C	1.140748	-0.340918	-0.093409
C24	C	1.138215	-0.437558	-0.093488
C25	C	1.140317	-0.437920	0.092537
C26	C	1.140294	-0.340975	0.093771
C27	C	1.092858	-0.205222	0.000001
C28	C	1.085947	-0.562189	-0.000004
C29	C	1.258008	0.110446	-0.000001
C30	C	1.360385	0.112258	0.000005
C31	C	1.082668	0.269367	-0.000001
C32	C	1.084488	0.362320	-0.000000
N33	N	1.089381	0.116305	-0.254858
C34	C	1.089385	0.116307	-0.343856
C35	C	1.089394	0.116302	-0.455507
C36	C	1.089406	0.116292	-0.544498
C37	C	1.089417	0.116287	-0.656156
N38	N	1.089429	0.116278	0.254853
H39	H	0.946648	-0.438810	0.067356
H40	H	1.215873	-0.326674	-0.096881
N41	N	1.231078	-0.477884	-0.098808
N42	N	1.262179	-0.526411	-0.031624
H43	H	1.327762	-0.554889	-0.035387
N44	N	1.097397	-0.305375	-0.180612
N45	N	1.029891	-0.249864	-0.174206
H46	H	0.999269	-0.224762	-0.235791
H47	H	0.949398	-0.295713	-0.067076
N48	N	1.094736	-0.306802	0.180459
N49	N	1.026235	-0.252413	0.173284
H50	H	0.994057	-0.228273	0.234506
H51	H	0.949675	-0.295161	0.066961
N52	N	0.936575	-0.444834	-0.083197
N53	N	0.863877	-0.478763	-0.071391
H54	H	0.828303	-0.496146	-0.130413
H55	H	1.107357	-0.458515	0.163338
N56	N	1.233836	-0.321538	0.100855
N57	N	1.265855	-0.276919	0.036618
H58	H	1.331921	-0.263187	0.041616
H59	H	1.101939	-0.455913	-0.163317
N60	N	1.233592	-0.477596	0.093327
N61	N	1.286745	-0.466376	0.023416
H62	H	1.352620	-0.494396	0.023967
