data_functionalizedCrystal
_audit_creation_method	'MofGen! by Chris Wilmer'
_symmetry_space_group_name_H-M	'P1'
_symmetry_Int_Tables_number	1
_symmetry_cell_setting	triclinic
loop_
_symmetry_equiv_pos_as_xyz
  x,y,z
_cell_length_a	14.853567
_cell_length_b	9.065218
_cell_length_c	13.930277
_cell_angle_alpha	89.992402
_cell_angle_beta	89.995844
_cell_angle_gamma	95.674592
loop_
_atom_site_label
_atom_site_type_symbol
_atom_site_fract_x
_atom_site_fract_y
_atom_site_fract_z
O1	O	1.197795	-0.192593	-0.079761
O2	O	0.935505	-0.215538	-0.079777
O3	O	1.072072	0.010684	-0.079766
O4	O	1.061229	-0.418815	-0.079771
O5	O	1.072050	0.010645	0.079895
O6	O	0.935484	-0.215577	0.079885
O7	O	1.197773	-0.192632	0.079901
Zn8	Zn	1.066625	-0.204111	0.105243
Zn9	Zn	1.066654	-0.204059	-0.105118
O10	O	1.061207	-0.418855	0.079891
C11	C	0.901898	-0.214518	0.000052
C12	C	0.801791	-0.211403	0.000046
N13	N	1.066612	-0.204146	0.248809
C14	C	1.071019	0.065631	0.000063
C15	C	1.067903	0.229412	0.000058
C16	C	0.388166	-0.063852	0.000069
C17	C	0.368873	-0.332609	0.000065
C18	C	0.462929	-0.335539	0.000062
C19	C	0.519607	-0.202622	0.000061
C20	C	0.482230	-0.066777	0.000063
C21	C	0.500313	-0.471382	0.000050
C22	C	0.594374	-0.474316	0.000046
C23	C	0.651054	-0.341399	0.000052
C24	C	0.613672	-0.205548	0.000055
C25	C	0.670350	-0.072632	0.000054
C26	C	0.632969	0.063221	0.000064
C27	C	0.538910	0.066141	0.000069
C28	C	0.745113	-0.344319	0.000047
C29	C	0.764414	-0.075557	0.000048
C30	C	1.231381	-0.193652	0.000070
C31	C	1.331487	-0.196768	0.000070
C32	C	1.062260	-0.473801	0.000059
C33	C	1.065376	-0.637582	0.000058
C34	C	1.122064	-0.293700	0.701071
C35	C	1.011254	-0.114407	0.701055
C36	C	1.011241	-0.114428	0.600560
C37	C	1.066642	-0.204084	0.550315
C38	C	1.122055	-0.293720	0.600566
C39	C	0.955836	-0.024782	0.550301
C40	C	0.955822	-0.024798	0.449799
C41	C	1.011218	-0.114464	0.399553
C42	C	1.066633	-0.204105	0.449810
C43	C	1.122034	-0.293761	0.399565
C44	C	1.177445	-0.383411	0.449820
C45	C	1.177452	-0.383386	0.550319
C46	C	1.011211	-0.114489	0.299054
C47	C	1.122025	-0.293782	0.299060
N48	N	1.066663	-0.204043	0.751316
H49	H	0.679129	0.171441	0.000057
C50	C	0.895805	0.072692	0.395182
C51	C	0.949633	0.172453	0.337462
C52	C	0.894371	0.262281	0.287139
H53	H	0.854795	0.012494	0.355925
H54	H	0.862823	0.126179	0.439463
H55	H	0.982599	0.118971	0.293185
H56	H	0.990641	0.232683	0.376694
H57	H	0.861390	0.315767	0.331421
H58	H	0.853364	0.202071	0.247888
H59	H	0.930886	0.329987	0.247977
C60	C	0.347413	0.083491	0.000030
C61	C	0.252909	0.057617	0.000016
C62	C	0.215338	0.193313	-0.000033
H63	H	0.366695	0.138323	0.055691
H64	H	0.366742	0.138252	-0.055671
H65	H	0.233589	0.002879	0.055711
H66	H	0.233603	0.002807	-0.055642
H67	H	0.234666	0.248074	-0.055734
H68	H	0.234625	0.248135	0.055629
H69	H	0.151213	0.175776	-0.000052
C70	C	0.634998	-0.621769	-0.000168
C71	C	0.688415	-0.631292	-0.082328
C72	C	0.725839	-0.767115	-0.082567
H73	H	0.671350	-0.628678	0.055441
H74	H	0.587790	-0.700544	-0.000223
H75	H	0.735616	-0.552540	-0.082264
H76	H	0.652083	-0.624410	-0.137950
H77	H	0.678632	-0.845889	-0.082623
H78	H	0.762188	-0.774011	-0.026955
H79	H	0.762080	-0.773599	-0.138316
H80	H	0.910739	0.048224	0.591218
H81	H	0.322721	-0.440823	0.000058
H82	H	0.966099	-0.041494	0.258140
H83	H	0.810556	0.032681	0.000051
H84	H	0.508466	0.176745	0.000100
C85	C	1.237732	-0.480443	0.604935
C86	C	1.298074	-0.391144	0.662583
C87	C	1.353627	-0.480493	0.712904
H88	H	1.201451	-0.548238	0.644240
H89	H	1.270780	-0.533817	0.560652
H90	H	1.265029	-0.337795	0.706861
H91	H	1.334376	-0.323351	0.623302
H92	H	1.386675	-0.533867	0.668621
H93	H	1.317338	-0.548284	0.752203
H94	H	1.394580	-0.419916	0.752017
H95	H	0.966155	-0.041403	0.741971
H96	H	0.454159	-0.579594	0.000041
H97	H	0.775544	-0.454927	0.000041
C98	C	1.182274	-0.391175	0.244685
C99	C	1.230813	-0.469648	0.310209
C100	C	1.286331	-0.559365	0.260156
H101	H	1.145978	-0.459089	0.205491
H102	H	1.223320	-0.330878	0.205488
H103	H	1.189772	-0.529940	0.349390
H104	H	1.267127	-0.401771	0.349406
H105	H	1.327378	-0.499068	0.220958
H106	H	1.250028	-0.627270	0.220963
H107	H	1.319278	-0.612609	0.304606
H108	H	1.222556	-0.456403	0.408898
H109	H	1.167176	-0.366695	0.741993
