data_functionalizedCrystal
_audit_creation_method	'MofGen! by Chris Wilmer'
_symmetry_space_group_name_H-M	'P1'
_symmetry_Int_Tables_number	1
_symmetry_cell_setting	triclinic
loop_
_symmetry_equiv_pos_as_xyz
  x,y,z
_cell_length_a	11.026623
_cell_length_b	13.262975
_cell_length_c	9.482900
_cell_angle_alpha	64.994410
_cell_angle_beta	101.363987
_cell_angle_gamma	96.049632
loop_
_atom_site_label
_atom_site_type_symbol
_atom_site_fract_x
_atom_site_fract_y
_atom_site_fract_z
O1	O	-1.603777	-0.445801	0.055328
O2	O	-1.253439	-0.393507	0.034655
O3	O	-1.447216	-0.261918	-0.017356
O4	O	-1.409999	-0.577390	0.107339
O5	O	-1.407848	-0.288784	0.235056
O6	O	-1.214070	-0.420373	0.287066
O7	O	-1.564408	-0.472667	0.307740
Cu8	Cu	-1.385645	-0.448973	0.320450
Cu9	Cu	-1.432202	-0.417201	0.021945
O10	O	-1.370631	-0.604256	0.359751
C11	C	-1.189091	-0.397293	0.157047
C12	C	-1.056009	-0.368534	0.145678
C13	C	-0.977698	-0.447939	0.177063
C14	C	-0.840151	-0.418217	0.165314
C15	C	-0.628756	-0.468880	0.185344
C16	C	-0.761840	-0.497634	0.196703
C17	C	-1.429061	-0.234335	0.092635
C18	C	-1.433604	-0.112119	0.044318
C19	C	-1.388786	-0.631839	0.249757
C20	C	-1.384245	-0.754053	0.298064
N21	N	-1.352907	-0.471321	0.530403
C22	C	-1.457215	-0.040084	-0.115982
C23	C	-1.461502	0.074747	-0.161413
C24	C	-1.442189	0.117552	-0.046548
C25	C	-1.418586	0.045516	0.113756
C26	C	-1.414289	-0.069325	0.159191
C27	C	-1.399263	0.088311	0.228625
C28	C	-1.375660	0.016275	0.388929
C29	C	-1.371364	-0.098555	0.434356
C30	C	-1.390678	-0.141360	0.319491
C31	C	-1.403560	0.203152	0.183191
C32	C	-1.360634	0.173911	0.458363
C33	C	-1.356347	0.059081	0.503794
N34	N	-1.464950	-0.394846	-0.188011
C35	C	-1.422538	-0.423785	0.583814
C36	C	-1.395308	-0.442389	0.758585
H37	H	-1.021230	-0.278544	0.110071
O38	O	-1.333197	-0.010933	0.659479
C39	C	-1.224889	-0.069916	0.690662
H40	H	-1.165285	-0.021180	0.596591
H41	H	-1.170756	-0.081366	0.811759
H42	H	-1.251042	-0.154898	0.688854
O43	O	-1.426327	0.273029	0.027432
C44	C	-1.333747	0.262209	-0.048436
H45	H	-1.289678	0.177449	0.022573
H46	H	-1.376736	0.269787	-0.172012
H47	H	-1.259967	0.330641	-0.057222
O48	O	-1.446451	0.229122	-0.090943
C49	C	-1.471393	0.283527	-0.257060
H50	H	-1.519290	0.222582	-0.307586
H51	H	-1.534183	0.356571	-0.293969
H52	H	-1.380878	0.315421	-0.303951
O53	O	-1.348220	-0.168555	0.590047
C54	C	-1.239909	-0.227543	0.621263
H55	H	-1.180299	-0.178821	0.527194
H56	H	-1.185784	-0.238974	0.742356
H57	H	-1.266057	-0.312533	0.619483
O58	O	-1.341715	0.215617	0.569815
C59	C	-1.238334	0.289474	0.548481
H60	H	-1.222771	0.322151	0.421113
H61	H	-1.255770	0.362163	0.575520
H62	H	-1.152868	0.243833	0.631557
H63	H	-1.502307	-0.369310	0.500154
O64	O	-1.300064	-0.507234	0.858478
C65	C	-1.214899	-0.443578	0.921351
H66	H	-1.263654	-0.369687	0.914784
H67	H	-1.176120	-0.497451	1.049748
H68	H	-1.136059	-0.412122	0.850365
H69	H	-1.480723	0.133391	-0.291931
H70	H	-1.472930	-0.074948	-0.209488
H71	H	-1.387194	-0.234864	0.356473
O72	O	-1.559865	-0.329559	0.712073
C73	C	-1.513219	-0.239434	0.588662
H74	H	-1.420728	-0.262247	0.574901
H75	H	-1.581584	-0.219824	0.473861
H76	H	-1.499626	-0.163357	0.617428
H77	H	-1.273130	-0.525787	0.614061
H78	H	-0.805378	-0.328222	0.129704
O79	O	-1.019398	-0.555231	0.219415
C80	C	-1.147444	-0.561025	0.221749
H81	H	-1.189025	-0.476179	0.142432
H82	H	-1.193745	-0.625443	0.177020
H83	H	-1.163105	-0.586137	0.347678
H84	H	-0.796616	-0.587627	0.232284
