data_functionalizedCrystal
_audit_creation_method	'MofGen! by Chris Wilmer'
_symmetry_space_group_name_H-M	'P1'
_symmetry_Int_Tables_number	1
_symmetry_cell_setting	triclinic
loop_
_symmetry_equiv_pos_as_xyz
  x,y,z
_cell_length_a	13.339070
_cell_length_b	19.188924
_cell_length_c	11.804365
_cell_angle_alpha	101.787608
_cell_angle_beta	74.875130
_cell_angle_gamma	99.385629
loop_
_atom_site_label
_atom_site_type_symbol
_atom_site_fract_x
_atom_site_fract_y
_atom_site_fract_z
O1	O	1.361219	0.339588	-0.099091
O2	O	1.066894	0.293686	-0.099082
O3	O	1.222551	0.216646	-0.099073
O4	O	1.205562	0.416627	-0.099100
O5	O	1.181572	0.236899	0.098981
O6	O	1.025916	0.313939	0.098972
O7	O	1.320240	0.359841	0.098962
Cu8	Cu	1.169336	0.338739	0.117051
Cu9	Cu	1.217798	0.314788	-0.117170
O10	O	1.164584	0.436881	0.098953
C11	C	1.008750	0.296058	-0.000053
C12	C	0.896550	0.272946	-0.000049
C13	C	0.530965	0.452654	-0.000092
C14	C	0.636382	0.474371	-0.000100
C15	C	0.701429	0.424017	-0.000087
C16	C	0.661049	0.351942	-0.000067
C17	C	0.555623	0.330222	-0.000068
C18	C	0.726088	0.301584	-0.000063
C19	C	0.685707	0.229509	-0.000043
C20	C	0.580291	0.207793	-0.000043
C21	C	0.515244	0.258147	-0.000057
C22	C	0.831513	0.323304	-0.000061
C23	C	0.856172	0.200872	-0.000037
C24	C	0.750754	0.179155	-0.000029
C25	C	1.201512	0.200654	-0.000045
C26	C	1.199863	0.122827	-0.000042
C27	C	1.221431	0.075238	-0.108001
C28	C	1.219869	0.002108	-0.108010
C29	C	1.196759	-0.023427	-0.000053
C30	C	1.175183	0.024172	0.107920
C31	C	1.176735	0.097299	0.107926
N32	N	1.235214	-0.124087	0.080294
N33	N	1.233744	-0.193556	0.080281
C34	C	1.192080	-0.243754	-0.000065
N35	N	1.151958	-0.221861	-0.080415
N36	N	1.153434	-0.152386	-0.080406
C37	C	1.195073	-0.102720	-0.000048
C38	C	1.211954	-0.370640	-0.108041
C39	C	1.210386	-0.443772	-0.108046
C40	C	1.165709	-0.421704	0.107887
C41	C	1.167268	-0.348576	0.107889
C42	C	1.190396	-0.323048	-0.000079
C43	C	1.378385	0.357468	-0.000069
C44	C	1.490586	0.380580	-0.000081
C45	C	1.185623	0.452872	-0.000077
C46	C	1.187274	0.530699	-0.000088
N47	N	1.135259	0.355587	0.281790
N48	N	1.251884	0.297936	-0.281909
C49	C	1.333717	0.257466	0.655750
C50	C	1.359496	0.244718	0.531089
C51	C	1.303439	0.272434	0.468758
C52	C	1.221599	0.312901	0.531100
C53	C	1.195823	0.325655	0.655772
C54	C	1.165544	0.340622	0.468781
C55	C	1.083704	0.381089	0.531122
C56	C	1.057932	0.393840	0.655783
C57	C	1.113989	0.366125	0.718114
C58	C	1.191320	0.327868	0.344108
C59	C	1.053425	0.396057	0.344131
C60	C	1.027646	0.408805	0.468791
H61	H	0.477998	0.493644	-0.000113
H62	H	0.864379	0.381989	-0.000073
F63	F	0.940548	0.451872	0.535153
F64	F	1.153776	0.147950	0.222836
H65	H	1.324431	0.262053	0.367254
H66	H	0.991301	0.426797	0.706541
H67	H	1.426130	0.211772	0.480336
F68	F	0.707765	0.102448	-0.000009
F69	F	0.679352	0.551075	-0.000127
H70	H	0.429403	0.240468	-0.000050
H71	H	1.007780	0.418627	0.293382
H72	H	0.547420	0.149103	-0.000040
F73	F	1.144312	-0.297925	0.222795
F74	F	1.393377	0.227980	0.722090
F75	F	0.813624	0.447132	-0.000093
H76	H	0.909134	0.159868	-0.000032
H77	H	1.092998	0.376501	0.819622
H78	H	1.230781	-0.349855	-0.195955
H79	H	1.240261	0.096017	-0.195917
F80	F	1.242825	-0.048550	-0.222919
F81	F	1.150581	-0.003005	0.222815
F82	F	1.141108	-0.448876	0.222784
F83	F	1.233336	-0.494422	-0.222957
H84	H	1.257954	0.294921	0.293361
