data_functionalizedCrystal
_audit_creation_method	'MofGen! by Chris Wilmer'
_symmetry_space_group_name_H-M	'P1'
_symmetry_Int_Tables_number	1
_symmetry_cell_setting	triclinic
loop_
_symmetry_equiv_pos_as_xyz
  x,y,z
_cell_length_a	19.077105
_cell_length_b	19.077114
_cell_length_c	19.076919
_cell_angle_alpha	85.527261
_cell_angle_beta	90.076224
_cell_angle_gamma	89.883258
loop_
_atom_site_label
_atom_site_type_symbol
_atom_site_fract_x
_atom_site_fract_y
_atom_site_fract_z
Zn1	Zn	1.044040	0.340451	-0.453511
Zn2	Zn	1.043950	0.453600	-0.340356
Zn3	Zn	0.931652	0.331023	-0.330942
Zn4	Zn	0.921790	0.453176	-0.453093
O5	O	0.985358	0.394563	-0.394476
O6	O	1.142187	0.359583	-0.442616
O7	O	1.033143	0.433573	-0.240631
O8	O	0.950725	0.233799	-0.343437
O9	O	1.142122	0.442714	-0.359482
O10	O	1.033296	0.240725	-0.433488
O11	O	0.950638	0.343516	-0.233715
O12	O	0.832184	0.343104	-0.343031
O13	O	0.933917	0.441990	-0.551624
O14	O	0.824939	0.432849	-0.432774
O15	O	1.023733	0.359172	-0.551932
O16	O	1.023581	0.552019	-0.359076
O17	O	0.933830	0.551707	-0.441902
C18	C	0.803110	0.386908	-0.386836
C19	C	0.725142	0.383651	-0.383585
C20	C	0.977644	0.577398	-0.401481
C21	C	0.974407	0.655619	-0.404504
C22	C	0.977735	0.401585	-0.578026
C23	C	0.974487	0.404578	-0.656244
C24	C	0.684758	0.428912	-0.428714
C25	C	0.611499	0.425842	-0.425662
C26	C	0.578625	0.377515	-0.377477
C27	C	0.619014	0.332250	-0.332346
C28	C	0.692271	0.335317	-0.335402
C29	C	0.359931	0.363323	-0.363339
C30	C	0.286668	0.360262	-0.360285
C31	C	0.279158	0.453853	-0.453602
C32	C	0.352418	0.456918	-0.456651
C33	C	0.392800	0.411651	-0.411522
N34	N	0.503743	0.374378	-0.374355
N35	N	0.467681	0.414785	-0.414648
C36	C	1.168318	0.402247	-0.402146
C37	C	1.246284	0.405522	-0.405414
C38	C	1.019648	0.692509	-0.362840
C39	C	1.016607	0.766007	-0.365688
C40	C	0.968322	0.802612	-0.410197
C41	C	0.923079	0.765717	-0.451866
C42	C	0.926123	0.692221	-0.449021
C43	C	0.954205	1.022407	-0.423328
C44	C	0.951163	1.095908	-0.426168
C45	C	1.044693	1.096193	-0.339990
C46	C	1.047730	1.022695	-0.337147
C47	C	1.002489	0.985806	-0.378818
N48	N	0.965211	0.877739	-0.413107
N49	N	1.005604	0.910682	-0.375911
C50	C	0.993114	1.211015	-0.387468
C51	C	0.996404	1.132798	-0.384504
C52	C	1.019721	0.362866	-0.693152
C53	C	1.016660	0.365675	-0.766646
C54	C	0.968368	0.410200	-0.803231
C55	C	0.923129	0.451913	-0.766317
C56	C	0.926187	0.449100	-0.692824
C57	C	0.954205	0.423233	-1.023013
C58	C	0.951152	0.426044	-1.096511
C59	C	1.044683	0.339806	-1.096835
C60	C	1.047739	0.337000	-1.023341
C61	C	1.002498	0.378710	-0.986434
N62	N	0.965240	0.413074	-0.878353
N63	N	1.005623	0.375832	-0.911312
C64	C	0.992994	0.387518	-0.211639
C65	C	0.996386	0.384333	-0.133419
H66	H	0.711519	0.468267	-0.467949
C67	C	1.054937	0.248818	-0.786134
C68	C	1.066387	0.319822	-0.807209
H69	H	1.085641	0.220509	-0.811171
H70	H	1.007748	0.237003	-0.795812
H71	H	1.063666	0.240788	-0.737127
H72	H	1.057653	0.327854	-0.856215
H73	H	1.113587	0.331642	-0.797536
H74	H	1.081526	1.126235	-0.306065
H75	H	1.053447	0.796040	-0.331760
C76	C	0.602834	0.292278	-0.210981
C77	C	0.582880	0.279127	-0.279381
H78	H	0.580530	0.259478	-0.178283
H79	H	0.589262	0.338638	-0.201919
H80	H	0.652244	0.287623	-0.206351
H81	H	0.533470	0.283786	-0.284013
H82	H	0.596448	0.232755	-0.288447
H83	H	0.259904	0.320900	-0.321051
C84	C	0.359985	0.270505	-0.270795
C85	C	0.404313	0.313567	-0.313733
H86	H	0.387388	0.239789	-0.240167
H87	H	0.331274	0.243621	-0.299280
H88	H	0.331237	0.298905	-0.243807
H89	H	0.433057	0.285167	-0.340725
H90	H	0.433036	0.340453	-0.285244
H91	H	1.087048	0.992892	-0.300904
H92	H	0.883806	0.488163	-0.796110
C93	C	1.163969	0.311382	-1.123142
C94	C	1.094405	0.293955	-1.137406
H95	H	1.194664	0.283075	-1.148192
H96	H	1.172696	0.303333	-1.074142
H97	H	1.171727	0.359556	-1.137429
H98	H	1.086646	0.245781	-1.123114
H99	H	1.085675	0.301998	-1.186416
H100	H	1.087066	0.300745	-0.993559
C101	C	0.859027	1.088249	-0.511084
C102	C	0.898090	1.136147	-0.475103
H103	H	0.826269	1.113093	-0.541296
H104	H	0.834675	1.057322	-0.478176
H105	H	0.889648	1.061856	-0.538192
H106	H	0.867470	1.162536	-0.447991
H107	H	0.922444	1.167086	-0.508016
H108	H	0.379178	0.496273	-0.495886
C109	C	0.943865	0.942950	-0.514380
C110	C	0.904470	0.981869	-0.469130
H111	H	0.913156	0.917927	-0.542659
H112	H	0.973048	0.910628	-0.487470
H113	H	0.972099	0.973904	-0.543706
H114	H	0.876239	0.950915	-0.439799
H115	H	0.875275	1.014195	-0.496042
C116	C	0.833448	0.534645	-0.699883
C117	C	0.876476	0.494963	-0.652253
H118	H	0.802763	0.562964	-0.674835
H119	H	0.806714	0.503958	-0.726243
H120	H	0.861690	0.563935	-0.730865
H121	H	0.848234	0.465669	-0.621273
H122	H	0.903212	0.525654	-0.625881
C123	C	0.882936	0.791450	-0.570440
C124	C	0.870005	0.805954	-0.500793
H125	H	0.850171	0.816295	-0.600645
H126	H	0.878271	0.742405	-0.574706
H127	H	0.929134	0.805827	-0.583207
H128	H	0.823809	0.791573	-0.488025
H129	H	0.874664	0.855010	-0.496525
C130	C	0.858996	0.511001	-1.088812
C131	C	0.898063	0.474986	-1.136726
H132	H	0.826221	0.541211	-1.113641
H133	H	0.889607	0.538107	-1.062458
H134	H	0.834655	0.478108	-1.057849
H135	H	0.922408	0.507880	-1.167686
H136	H	0.867447	0.447879	-1.163092
C137	C	0.943875	0.514323	-0.943584
C138	C	0.904475	0.469085	-0.982457
H139	H	0.913169	0.542629	-0.918544
H140	H	0.972103	0.543618	-0.974563
H141	H	0.973064	0.487400	-0.911271
H142	H	0.875289	0.496009	-1.014773
H143	H	0.876234	0.439787	-0.951475
H144	H	0.725151	0.298457	-0.298657
C145	C	0.611435	0.518679	-0.518188
C146	C	0.567110	0.475605	-0.475259
H147	H	0.584029	0.549406	-0.548802
H148	H	0.640179	0.490294	-0.545182
H149	H	0.640149	0.545558	-0.489690
H150	H	0.538399	0.448722	-0.503756
H151	H	0.538353	0.503994	-0.448261
C152	C	0.889265	0.579428	-0.482928
C153	C	0.876394	0.651667	-0.494820
H154	H	0.858567	0.554395	-0.511209
H155	H	0.881495	0.565177	-0.434750
H156	H	0.936461	0.569721	-0.494773
H157	H	0.829199	0.661375	-0.482970
H158	H	0.884158	0.665923	-0.543009
C159	C	0.163525	0.490707	-0.490360
C160	C	0.234768	0.503603	-0.503212
H161	H	0.136123	0.521418	-0.520993
H162	H	0.153045	0.498625	-0.442959
H163	H	0.153091	0.443333	-0.498424
H164	H	0.245204	0.550975	-0.495143
H165	H	0.245253	0.495690	-0.550624
C166	C	1.111794	0.700181	-0.277948
C167	C	1.072725	0.652276	-0.313913
H168	H	1.144565	0.675343	-0.247746
H169	H	1.081184	0.726572	-0.250837
H170	H	1.136138	0.731111	-0.310870
H171	H	1.048377	0.621350	-0.280991
H172	H	1.103340	0.625874	-0.341025
C173	C	1.036906	0.265455	-0.607297
C174	C	1.072803	0.313921	-0.652942
H175	H	1.069678	0.235239	-0.582472
H176	H	1.006294	0.238357	-0.633657
H177	H	1.010409	0.289904	-0.574797
H178	H	1.099296	0.289473	-0.685444
H179	H	1.103427	0.341022	-0.626580
