data_functionalizedCrystal
_audit_creation_method	'MofGen! by Chris Wilmer'
_symmetry_space_group_name_H-M	'P1'
_symmetry_Int_Tables_number	1
_symmetry_cell_setting	triclinic
loop_
_symmetry_equiv_pos_as_xyz
  x,y,z
_cell_length_a	17.077404
_cell_length_b	12.759400
_cell_length_c	17.077396
_cell_angle_alpha	90.025586
_cell_angle_beta	90.019501
_cell_angle_gamma	90.014910
loop_
_atom_site_label
_atom_site_type_symbol
_atom_site_fract_x
_atom_site_fract_y
_atom_site_fract_z
Zn1	Zn	1.200099	-0.418260	0.443859
Zn2	Zn	1.200025	-0.593961	0.312599
Zn3	Zn	1.068831	-0.418297	0.312606
Zn4	Zn	1.068818	-0.593898	0.443823
O5	O	1.134443	-0.506104	0.378222
O6	O	1.309936	-0.441578	0.426459
O7	O	1.182597	-0.570700	0.202753
O8	O	1.086281	-0.271271	0.330035
O9	O	1.309882	-0.570664	0.330023
O10	O	1.182723	-0.271244	0.426466
O11	O	1.086209	-0.441641	0.202759
O12	O	0.958983	-0.441580	0.330001
O13	O	1.086258	-0.570558	0.553674
O14	O	0.958973	-0.570594	0.426405
O15	O	1.182710	-0.441517	0.553701
O16	O	1.182584	-0.740973	0.329988
O17	O	1.086186	-0.740927	0.426398
C18	C	0.930496	-0.506085	0.378200
C19	C	0.843246	-0.506102	0.378209
C20	C	1.134397	-0.779071	0.378205
C21	C	1.134449	-0.895848	0.378225
C22	C	0.802271	-0.573381	0.428326
C23	C	0.720291	-0.573383	0.428339
C24	C	0.679286	-0.506111	0.378230
C25	C	0.720267	-0.438825	0.328111
C26	C	0.802246	-0.438818	0.328103
C27	C	0.549397	-0.438846	0.328130
C28	C	0.467412	-0.438854	0.328136
C29	C	0.467442	-0.573410	0.428366
C30	C	0.549421	-0.573404	0.428358
C31	C	0.590395	-0.506119	0.378237
C32	C	1.184699	-0.950699	0.328080
C33	C	1.184747	-1.060423	0.328104
C34	C	1.084289	-1.060435	0.428420
C35	C	1.084245	-0.950713	0.428399
C36	C	1.242695	-0.950693	0.270160
C37	C	1.242743	-1.060417	0.270185
C38	C	1.339188	-0.506124	0.378244
C39	C	1.426437	-0.506132	0.378253
C40	C	1.134491	-0.506026	0.582966
C41	C	1.134511	-0.505993	0.670216
C42	C	1.134512	-0.232071	0.378255
C43	C	1.134541	-0.115294	0.378270
C44	C	1.134441	-0.506105	0.174274
C45	C	1.134573	-0.505842	0.087025
C46	C	1.184735	-0.438796	0.711221
C47	C	1.184745	-0.438761	0.793202
C48	C	1.134533	-0.505930	0.834175
C49	C	1.084304	-0.573130	0.793165
C50	C	1.084291	-0.573159	0.711186
C51	C	1.084335	-0.573066	0.964035
C52	C	1.084349	-0.573039	1.046019
C53	C	1.184789	-0.438669	1.046051
C54	C	1.184777	-0.438698	0.964072
C55	C	1.134547	-0.505900	0.923066
H56	H	0.686933	-0.628169	0.469149
H57	H	1.303470	-0.920837	0.286490
H58	H	0.434029	-0.384062	0.287342
O59	O	0.423315	-0.646137	0.482363
H60	H	0.439074	-0.628350	0.544014
O61	O	1.030177	-0.645466	1.090211
H62	H	1.038629	-0.634157	1.154105
H63	H	1.225626	-0.384103	0.677866
O64	O	1.213876	-0.905699	0.193635
H65	H	1.260608	-0.856718	0.167170
O66	O	1.319242	-1.105400	0.299100
H67	H	1.359764	-1.040516	0.314407
O68	O	1.221226	-1.099977	0.189650
H69	H	1.210646	-1.032328	0.150205
H70	H	1.043335	-0.906054	0.469238
O71	O	1.030144	-0.645571	0.837358
H72	H	0.995211	-0.692294	0.795070
H73	H	1.043385	-0.627867	0.677800
O74	O	1.238920	-0.366292	0.837432
H75	H	1.273841	-0.319602	0.795167
O76	O	0.593652	-0.645955	0.482405
H77	H	0.551389	-0.692735	0.517265
H78	H	1.043421	-0.627773	0.930651
H79	H	1.225668	-0.384010	0.930713
H80	H	0.835651	-0.628165	0.469129
O81	O	0.593596	-0.366286	0.274065
H82	H	0.551312	-0.319519	0.239214
O83	O	0.676030	-0.366280	0.274063
H84	H	0.691766	-0.283839	0.287629
O85	O	0.846446	-0.366266	0.274039
H86	H	0.804162	-0.319499	0.239188
O87	O	1.030130	-1.119610	0.482525
H88	H	1.038596	-1.205122	0.474111
H89	H	1.225686	-0.383950	1.079441
