data_functionalizedCrystal
_audit_creation_method	'MofGen! by Chris Wilmer'
_symmetry_space_group_name_H-M	'P1'
_symmetry_Int_Tables_number	1
_symmetry_cell_setting	triclinic
loop_
_symmetry_equiv_pos_as_xyz
  x,y,z
_cell_length_a	12.759401
_cell_length_b	19.805405
_cell_length_c	12.759393
_cell_angle_alpha	89.962322
_cell_angle_beta	89.981425
_cell_angle_gamma	90.026837
loop_
_atom_site_label
_atom_site_type_symbol
_atom_site_fract_x
_atom_site_fract_y
_atom_site_fract_z
Zn1	Zn	1.606169	-0.269415	-0.593940
Zn2	Zn	1.606028	-0.382620	-0.418242
Zn3	Zn	1.430472	-0.269451	-0.418280
Zn4	Zn	1.430424	-0.382568	-0.593883
O5	O	1.518273	-0.326014	-0.506086
O6	O	1.753172	-0.284439	-0.570642
O7	O	1.582701	-0.367645	-0.271226
O8	O	1.453857	-0.174730	-0.441621
O9	O	1.753068	-0.367610	-0.441557
O10	O	1.582942	-0.174703	-0.570678
O11	O	1.453720	-0.284500	-0.271253
O12	O	1.283444	-0.284450	-0.441565
O13	O	1.453777	-0.367522	-0.740912
O14	O	1.283409	-0.367557	-0.570581
O15	O	1.582896	-0.284389	-0.740954
O16	O	1.582655	-0.477330	-0.441501
O17	O	1.453639	-0.477292	-0.570544
C18	C	1.245306	-0.326002	-0.506071
C19	C	1.128529	-0.326013	-0.506090
C20	C	1.073722	-0.282784	-0.573408
C21	C	0.963998	-0.282791	-0.573415
C22	C	0.963898	-0.369262	-0.438783
C23	C	1.073620	-0.369251	-0.438771
C24	C	1.518155	-0.501870	-0.506035
C25	C	1.518201	-0.577102	-0.506049
C26	C	1.585444	-0.612443	-0.438927
C27	C	1.585489	-0.683132	-0.438950
C28	C	1.518284	-0.718477	-0.506091
C29	C	1.451037	-0.683131	-0.573220
C30	C	1.450999	-0.612444	-0.573202
C31	C	1.451192	-0.968204	-0.573298
C32	C	1.451234	-1.038896	-0.573310
C33	C	1.585682	-1.038892	-0.439046
C34	C	1.585644	-0.968205	-0.439028
C35	C	1.518402	-0.932865	-0.506161
C36	C	1.518355	-0.856216	-0.506136
C37	C	1.518324	-0.795124	-0.506111
C38	C	1.792307	-0.326026	-0.506102
C39	C	1.909083	-0.326031	-0.506108
C40	C	1.518347	-0.325945	-0.780120
C41	C	1.518378	-0.325916	-0.896896
C42	C	1.518421	-0.149471	-0.506160
C43	C	1.518483	-0.074239	-0.506192
C44	C	1.451242	-0.282615	-0.951772
C45	C	1.451266	-0.282594	-1.061497
C46	C	1.585572	-0.369178	-1.061459
C47	C	1.585541	-0.369201	-0.951737
C48	C	1.518261	-0.326033	-0.233119
C49	C	1.518433	-0.325872	-0.116343
H50	H	1.118426	-0.247575	-0.628220
F51	F	1.379432	-0.574831	-0.644645
F52	F	1.657050	-0.415241	-1.119834
H53	H	0.919379	-0.247589	-0.628231
F54	F	1.657253	-1.076509	-0.367601
H55	H	0.919178	-0.404465	-0.383975
F56	F	1.379800	-0.236514	-1.119895
F57	F	1.657171	-0.930591	-0.367567
H58	H	1.118245	-0.404454	-0.383947
F59	F	1.379626	-0.930601	-0.644746
H60	H	1.640166	-0.583669	-0.384248
F61	F	1.379518	-0.720750	-0.644683
H62	H	1.640244	-0.711904	-0.384291
F63	F	1.379703	-1.076512	-0.644775
F64	F	1.379758	-0.236549	-0.893411
F65	F	1.656997	-0.415294	-0.893331
