data_functionalizedCrystal
_audit_creation_method	'MofGen! by Chris Wilmer'
_symmetry_space_group_name_H-M	'P1'
_symmetry_Int_Tables_number	1
_symmetry_cell_setting	triclinic
loop_
_symmetry_equiv_pos_as_xyz
  x,y,z
_cell_length_a	19.288864
_cell_length_b	26.809956
_cell_length_c	27.732048
_cell_angle_alpha	89.999364
_cell_angle_beta	97.110551
_cell_angle_gamma	90.022644
loop_
_atom_site_label
_atom_site_type_symbol
_atom_site_fract_x
_atom_site_fract_y
_atom_site_fract_z
O1	O	0.920978	0.041645	-0.060292
O2	O	1.420978	0.541645	0.439708
O3	O	0.718666	0.041611	-0.068427
O4	O	1.218666	0.541611	0.431573
O5	O	0.826105	0.041620	0.006018
O6	O	1.326105	0.541620	0.506018
O7	O	0.813539	0.041637	-0.134737
O8	O	1.313539	0.541637	0.365263
O9	O	0.826085	-0.041340	0.006007
O10	O	1.326085	0.458660	0.506007
O11	O	0.718646	-0.041348	-0.068438
O12	O	1.218646	0.458652	0.431562
O13	O	0.920957	-0.041314	-0.060304
O14	O	1.420957	0.458686	0.439696
Zn15	Zn	0.819799	-0.054503	-0.064373
Zn16	Zn	1.319799	0.445497	0.435627
Zn17	Zn	0.819825	0.054800	-0.064358
Zn18	Zn	1.319825	0.554800	0.435642
O19	O	0.813518	-0.041323	-0.134749
O20	O	1.313518	0.458677	0.365251
C21	C	0.692781	0.000127	-0.068171
C22	C	1.192781	0.500127	0.431829
C23	C	0.615683	0.000114	-0.067385
C24	C	1.115683	0.500114	0.432615
N25	N	0.819785	-0.129099	-0.064382
N26	N	1.319785	0.370901	0.435618
C27	C	0.570714	0.000127	-0.111066
C28	C	1.070714	0.500127	0.388934
C29	C	0.498271	0.000133	-0.110328
C30	C	0.998271	0.500133	0.389672
C31	C	0.470801	0.000135	-0.065906
C32	C	0.970801	0.500135	0.434094
C33	C	0.515780	0.000119	-0.022219
C34	C	1.015780	0.500119	0.477781
C35	C	0.588220	0.000109	-0.022959
C36	C	1.088220	0.500109	0.477041
C37	C	0.362764	0.029212	-0.030982
C38	C	0.862764	0.529212	0.469018
C39	C	0.290324	0.029225	-0.030244
C40	C	0.790324	0.529225	0.469756
C41	C	0.247370	0.000165	-0.063624
C42	C	0.747370	0.500165	0.436376
C43	C	0.276862	-0.028903	-0.097749
C44	C	0.776862	0.471097	0.402251
C45	C	0.349303	-0.028913	-0.098488
C46	C	0.849303	0.471087	0.401512
C47	C	0.392252	0.000146	-0.065099
C48	C	0.892252	0.500146	0.434901
C49	C	0.123850	0.000183	-0.106507
C50	C	0.623850	0.500183	0.393493
C51	C	0.051406	0.000186	-0.105767
C52	C	0.551406	0.500186	0.394233
C53	C	0.068916	0.000177	-0.017658
C54	C	0.568916	0.500177	0.482342
C55	C	0.141358	0.000170	-0.018399
C56	C	0.641358	0.500170	0.481601
C57	C	0.168820	0.000175	-0.062825
C58	C	0.668820	0.500175	0.437175
C59	C	0.867393	-0.473721	-0.031402
C60	C	1.367393	0.026279	0.468598
C61	C	0.867410	-0.682599	-0.031394
C62	C	1.367410	-0.182599	0.468606
O63	O	0.907859	-0.709599	-0.003356
O64	O	1.407859	-0.209599	0.496644
N65	N	0.819829	-0.708726	-0.064347
N66	N	1.319829	-0.208726	0.435653
C67	C	0.772238	-0.682630	-0.097302
C68	C	1.272238	-0.182630	0.402698
O69	O	0.731764	-0.709646	-0.125327
O70	O	1.231764	-0.209646	0.374673
C71	C	0.772219	-0.473753	-0.097307
C72	C	1.272219	0.026247	0.402693
C73	C	0.819807	-0.447629	-0.064355
C74	C	1.319807	0.052371	0.435645
C75	C	0.914977	-0.447597	0.001548
C76	C	1.414977	0.052403	0.501548
C77	C	0.914975	-0.395380	0.001544
C78	C	1.414975	0.104620	0.501544
C79	C	0.867389	-0.369288	-0.031409
C80	C	1.367389	0.130712	0.468591
C81	C	0.819805	-0.395413	-0.064359
C82	C	1.319805	0.104587	0.435641
C83	C	0.724625	-0.447659	-0.130259
C84	C	1.224625	0.052341	0.369741
C85	C	0.724623	-0.395436	-0.130256
C86	C	1.224623	0.104564	0.369744
C87	C	0.772212	-0.369312	-0.097304
C88	C	1.272212	0.130688	0.402696
C89	C	0.772217	-0.317105	-0.097316
C90	C	1.272217	0.182895	0.402684
N91	N	0.819797	-0.290978	-0.064363
N92	N	1.319797	0.209022	0.435637
C93	C	0.867383	-0.317070	-0.031410
C94	C	1.367383	0.182930	0.468590
C95	C	0.772252	-0.792293	-0.097298
C96	C	1.272252	-0.292293	0.402702
C97	C	0.772258	-0.844512	-0.097297
C98	C	1.272258	-0.344512	0.402703
C99	C	0.867429	-0.844477	-0.031389
C100	C	1.367429	-0.344477	0.468611
C101	C	0.867426	-0.792257	-0.031392
C102	C	1.367426	-0.292257	0.468608
C103	C	0.819833	-0.766166	-0.064345
C104	C	1.319833	-0.266166	0.435655
C105	C	0.867376	-0.207412	-0.031421
C106	C	1.367376	0.292588	0.468579
C107	C	0.867371	-0.155191	-0.031429
C108	C	1.367371	0.344809	0.468571
C109	C	0.772198	-0.155230	-0.097336
C110	C	1.272198	0.344770	0.402664
C111	C	0.772205	-0.207447	-0.097329
C112	C	1.272205	0.292553	0.402671
C113	C	0.819796	-0.233536	-0.064368
C114	C	1.319796	0.266464	0.435632
O115	O	0.731783	-0.290072	-0.125336
O116	O	1.231783	0.209928	0.374664
O117	O	0.907842	-0.290045	-0.003382
O118	O	1.407842	0.209955	0.496618
C119	C	0.867395	-0.525937	-0.031398
C120	C	1.367395	-0.025937	0.468602
C121	C	0.819811	-0.552062	-0.064347
C122	C	1.319811	-0.052062	0.435653
C123	C	0.772225	-0.525970	-0.097300
C124	C	1.272225	-0.025970	0.402700
C125	C	0.819817	-0.604281	-0.064346
C126	C	1.319817	-0.104281	0.435654
C127	C	0.867403	-0.630373	-0.031393
C128	C	1.367403	-0.130373	0.468607
C129	C	0.914983	-0.604246	0.001560
C130	C	1.414983	-0.104246	0.501560
C131	C	0.914981	-0.552029	0.001556
C132	C	1.414981	-0.052029	0.501556
C133	C	0.724645	-0.552097	-0.130253
C134	C	1.224645	-0.052097	0.369747
C135	C	0.724651	-0.604313	-0.130247
C136	C	1.224651	-0.104313	0.369753
C137	C	0.772237	-0.630405	-0.097294
C138	C	1.272237	-0.130405	0.402706
C139	C	0.946842	0.000171	-0.060560
C140	C	1.446842	0.500171	0.439440
C141	C	1.023941	0.000187	-0.061345
C142	C	1.523941	0.500187	0.438655
C143	C	0.825831	0.000139	0.024020
C144	C	1.325831	0.500139	0.524020
C145	C	0.825037	0.000134	0.077678
C146	C	1.325037	0.500134	0.577678
N147	N	0.819844	0.129396	-0.064344
N148	N	1.319844	0.629396	0.435656
C149	C	0.813792	0.000159	-0.152751
C150	C	1.313792	0.500159	0.347249
C151	C	0.814587	0.000167	-0.206408
C152	C	1.314587	0.500167	0.293592
C153	C	0.883526	0.000170	0.416316
C154	C	1.383526	0.500170	0.916316
C155	C	0.880579	0.000176	0.617985
C156	C	1.380579	0.500176	1.117985
O157	O	0.934063	0.000207	0.649079
O158	O	1.434063	0.500207	1.149079
N159	N	0.816872	0.000165	0.637301
N160	N	1.316872	0.500165	1.137301
C161	C	0.753897	0.000156	0.606196
C162	C	1.253897	0.500156	1.106196
O163	O	0.699643	0.000152	0.627253
O164	O	1.199643	0.500152	1.127253
C165	C	0.756845	0.000153	0.404529
C166	C	1.256845	0.500153	0.904529
C167	C	0.820556	0.000159	0.385216
C168	C	1.320556	0.500159	0.885216
C169	C	0.947232	0.000176	0.397002
C170	C	1.447232	0.500176	0.897002
C171	C	0.947968	0.000172	0.346588
C172	C	1.447968	0.500172	0.846588
C173	C	0.884998	0.000161	0.315488
C174	C	1.384998	0.500161	0.815488
C175	C	0.821292	0.000155	0.334801
C176	C	1.321292	0.500155	0.834801
C177	C	0.693871	0.000147	0.373425
C178	C	1.193871	0.500147	0.873425
C179	C	0.694614	0.000148	0.323006
C180	C	1.194614	0.500148	0.823006
C181	C	0.758325	0.000154	0.303693
C182	C	1.258325	0.500154	0.803693
C183	C	0.759059	0.000139	0.253287
C184	C	1.259059	0.500139	0.753287
N185	N	0.822766	0.000150	0.233971
N186	N	1.322766	0.500150	0.733971
C187	C	0.885735	0.000161	0.265071
C188	C	1.385735	0.500161	0.765071
C189	C	0.752354	0.000156	0.712075
C190	C	1.252354	0.500156	1.212075
C191	C	0.751617	0.000156	0.762492
C192	C	1.251617	0.500156	1.262492
C193	C	0.878299	0.000177	0.774277
C194	C	1.378299	0.500177	1.274277
C195	C	0.879035	0.000174	0.723859
C196	C	1.379035	0.500174	1.223859
C197	C	0.816061	0.000167	0.692759
C198	C	1.316061	0.500167	1.192759
C199	C	0.887276	0.000152	0.159197
C200	C	1.387276	0.500152	0.659197
C201	C	0.888007	0.000145	0.108778
C202	C	1.388007	0.500145	0.608778
C203	C	0.761325	0.000127	0.096998
C204	C	1.261325	0.500127	0.596998
C205	C	0.760595	0.000130	0.147412
C206	C	1.260595	0.500130	0.647412
C207	C	0.823576	0.000145	0.178511
C208	C	1.323576	0.500145	0.678511
O209	O	0.705603	0.000114	0.222164
O210	O	1.205603	0.500114	0.722164
O211	O	0.939982	0.000176	0.244005
O212	O	1.439982	0.500176	0.744005
C213	C	0.882790	0.000174	0.466730
C214	C	1.382790	0.500174	0.966730
C215	C	0.819084	0.000168	0.486044
C216	C	1.319084	0.500168	0.986044
C217	C	0.756114	0.000157	0.454943
C218	C	1.256114	0.500157	0.954943
C219	C	0.818347	0.000167	0.536461
C220	C	1.318347	0.500167	1.036461
C221	C	0.881317	0.000178	0.567561
C222	C	1.381317	0.500178	1.067561
C223	C	0.945023	0.000189	0.548245
C224	C	1.445023	0.500189	1.048245
C225	C	0.945760	0.000185	0.497831
C226	C	1.445760	0.500185	0.997831
C227	C	0.692407	0.000146	0.474260
C228	C	1.192407	0.500146	0.974260
C229	C	0.691676	0.000149	0.524674
C230	C	1.191676	0.500149	1.024674
C231	C	0.754646	0.000160	0.555775
C232	C	1.254646	0.500160	1.055775
H233	H	0.593069	0.000133	-0.147241
H234	H	1.093069	0.500133	0.352759
N235	N	0.684430	0.000145	0.678532
N236	N	1.184430	0.500145	1.178532
H237	H	0.656616	0.030892	0.684733
H238	H	1.156616	0.530892	1.184733
H239	H	0.656663	-0.030634	0.684749
H240	H	1.156663	0.469366	1.184749
H241	H	0.046551	0.000210	0.018511
H242	H	0.546551	0.500210	0.518511
N243	N	0.626690	0.000143	0.289462
N244	N	1.126690	0.500143	0.789462
H245	H	0.586223	0.000139	0.309351
H246	H	1.086223	0.500139	0.809351
H247	H	0.624224	-0.030613	0.268288
H248	H	1.124224	0.469387	0.768288
N249	N	0.486153	0.000127	0.025692
N250	N	0.986153	0.500127	0.525692
H251	H	0.525637	0.000117	0.053253
H252	H	1.025637	0.500117	0.553253
H253	H	0.456450	-0.030622	0.027914
H254	H	0.956450	0.469378	0.527914
N255	N	0.153474	0.000180	-0.154422
N256	N	0.653474	0.500180	0.345578
H257	H	0.206189	0.000175	-0.148262
H258	H	0.706189	0.500175	0.351738
H259	H	0.137013	0.030936	-0.173527
H260	H	0.637013	0.530936	0.326473
N261	N	1.012939	0.000198	0.581797
N262	N	1.512939	0.500198	1.081797
H263	H	1.015458	0.030953	0.602976
H264	H	1.515458	0.530953	1.102976
H265	H	1.053377	0.000183	0.561884
H266	H	1.553377	0.500183	1.061884
N267	N	0.966317	-0.475731	0.037088
N268	N	1.466317	0.024269	0.537088
H269	H	0.940026	-0.497408	0.058453
H270	H	1.440026	0.002592	0.558453
H271	H	0.996441	-0.451216	0.057922
H272	H	1.496441	0.048784	0.557922
N273	N	0.673314	-0.523959	-0.165795
N274	N	1.173314	-0.023959	0.334205
H275	H	0.643175	-0.548438	-0.186666
H276	H	1.143175	-0.048438	0.313334
H277	H	0.699668	-0.502286	-0.187122
H278	H	1.199668	-0.002286	0.312878
N279	N	0.720890	-0.235632	-0.132872
N280	N	1.220890	0.264368	0.367128
H281	H	0.728519	-0.226546	-0.167166
H282	H	1.228519	0.273454	0.332834
H283	H	0.671676	-0.226547	-0.127353
H284	H	1.171676	0.273453	0.372647
N285	N	1.016682	0.000191	0.325757
N286	N	1.516682	0.500191	0.825757
H287	H	1.019815	-0.030561	0.305102
H288	H	1.519815	0.469439	0.805102
H289	H	1.056419	0.000220	0.353140
H290	H	1.556419	0.500220	0.853140
N291	N	0.409088	0.060560	0.005022
N292	N	0.909088	0.560560	0.505022
H293	H	0.459454	0.056142	-0.000623
H294	H	0.959454	0.556142	0.499377
H295	H	0.403170	0.049693	0.039143
H296	H	0.903170	0.549693	0.539143
N297	N	0.258519	0.060573	0.006562
N298	N	0.758519	0.560573	0.506562
H299	H	0.206111	0.056173	0.001965
H300	H	0.706111	0.556173	0.501965
H301	H	0.270317	0.096825	0.001923
H302	H	0.770317	0.596825	0.501923
H303	H	0.014793	0.000193	-0.141339
H304	H	0.514793	0.500193	0.358661
N305	N	0.673294	-0.367294	-0.165801
N306	N	1.173294	0.132706	0.334199
H307	H	0.642740	-0.345637	-0.147384
H308	H	1.142740	0.154363	0.352616
H309	H	0.643198	-0.391800	-0.186665
H310	H	1.143198	0.108200	0.313335
H311	H	0.639791	0.000140	0.540394
H312	H	1.139791	0.500140	1.040394
H313	H	0.733456	-0.133978	-0.124167
H314	H	1.233456	0.366022	0.375833
H315	H	0.641128	0.000138	0.448942
H316	H	1.141128	0.500138	0.948942
H317	H	0.373313	-0.052582	-0.126273
H318	H	0.873313	0.447418	0.373727
H319	H	0.939890	0.000149	0.093056
H320	H	1.439890	0.500149	0.593056
H321	H	0.461651	0.000142	-0.145899
H322	H	0.961651	0.500142	0.354101
H323	H	0.997640	0.000190	0.482111
H324	H	1.497640	0.500190	0.982111
H325	H	0.953732	-0.530763	0.028388
H326	H	1.453732	-0.030763	0.528388
N327	N	0.230544	-0.060246	-0.133757
N328	N	0.730544	0.439754	0.366243
H329	H	0.180178	-0.055832	-0.128111
H330	H	0.680178	0.444168	0.371889
H331	H	0.244076	-0.096501	-0.129373
H332	H	0.744076	0.403499	0.370627
N333	N	0.189866	0.000156	0.028714
N334	N	0.689866	0.500156	0.528714
H335	H	0.161473	0.000157	0.056968
H336	H	0.661473	0.500157	0.556968
H337	H	0.220331	0.030904	0.030332
H338	H	0.720331	0.530904	0.530332
H339	H	0.699737	0.000143	0.778212
H340	H	1.199737	0.500143	1.278212
H341	H	0.641991	0.000145	0.389141
H342	H	1.141991	0.500145	0.889141
H343	H	0.953732	-0.625498	0.028390
H344	H	1.453732	-0.125498	0.528390
H345	H	0.624835	0.000098	0.012613
H346	H	1.124835	0.500098	0.512613
N347	N	0.918703	-0.127014	0.004111
N348	N	1.418703	0.372986	0.504111
H349	H	0.948846	-0.151470	0.024988
H350	H	1.448846	0.348530	0.524988
H351	H	0.892344	-0.105354	0.025434
H352	H	1.392344	0.394646	0.525434
H353	H	0.685900	-0.625580	-0.157084
H354	H	1.185900	-0.125580	0.342916
H355	H	0.906128	-0.228648	-0.004580
H356	H	1.406128	0.271352	0.495420
N357	N	0.918752	-0.764082	0.004148
N358	N	1.418752	-0.264082	0.504148
H359	H	0.948897	-0.788540	0.025021
H360	H	1.448897	-0.288540	0.525021
H361	H	0.892394	-0.742427	0.025473
H362	H	1.392394	-0.242427	0.525473
H363	H	0.708716	0.000112	0.163138
H364	H	1.208716	0.500112	0.663138
N365	N	0.966300	-0.367207	0.037087
N366	N	1.466300	0.132793	0.537087
H367	H	0.996440	-0.391667	0.057961
H368	H	1.496440	0.108333	0.557961
H369	H	0.939939	-0.345551	0.058410
H370	H	1.439939	0.154449	0.558410
N371	N	0.918756	-0.872624	0.004154
N372	N	1.418756	-0.372624	0.504154
H373	H	0.911534	-0.909668	-0.000849
H374	H	1.411534	-0.409668	0.499151
H375	H	0.911098	-0.863501	0.038431
H376	H	1.411098	-0.363501	0.538431
H377	H	0.710057	0.000116	0.071667
H378	H	1.210057	0.500116	0.571667
H379	H	0.733514	-0.865779	-0.124135
H380	H	1.233514	-0.365779	0.375865
N381	N	0.720914	-0.764156	-0.132840
N382	N	1.220914	-0.264156	0.367160
H383	H	0.690778	-0.788635	-0.153713
H384	H	1.190778	-0.288635	0.346287
H385	H	0.747266	-0.742480	-0.154166
H386	H	1.247266	-0.242480	0.345834
H387	H	0.938562	0.000165	0.184513
H388	H	1.438562	0.500165	0.684513
N389	N	1.015155	0.000187	0.430542
N390	N	1.515155	0.500187	0.930542
H391	H	1.055618	0.000191	0.410649
H392	H	1.555618	0.500191	0.910649
H393	H	1.017602	-0.030568	0.451714
H394	H	1.517602	0.469432	0.951714
H395	H	0.685874	-0.468922	-0.157091
H396	H	1.185874	0.031078	0.342909
H397	H	0.930914	0.000179	0.708138
H398	H	1.430914	0.500179	1.208138
H399	H	0.929571	0.000186	0.799607
H400	H	1.429571	0.500186	1.299607
