data_functionalizedCrystal
_audit_creation_method	'MofGen! by Chris Wilmer'
_symmetry_space_group_name_H-M	'P1'
_symmetry_Int_Tables_number	1
_symmetry_cell_setting	triclinic
loop_
_symmetry_equiv_pos_as_xyz
  x,y,z
_cell_length_a	27.732048
_cell_length_b	14.519709
_cell_length_c	12.996460
_cell_angle_alpha	90.001234
_cell_angle_beta	90.000676
_cell_angle_gamma	83.161400
loop_
_atom_site_label
_atom_site_type_symbol
_atom_site_fract_x
_atom_site_fract_y
_atom_site_fract_z
O1	O	0.641453	0.109725	0.085437
O2	O	1.141453	0.609725	0.585437
O3	O	0.500739	0.126410	0.085468
O4	O	1.000739	0.626410	0.585468
O5	O	0.574827	-0.016236	0.085442
O6	O	1.074827	0.483764	0.585442
O7	O	0.567365	0.252371	0.085462
O8	O	1.067365	0.752371	0.585462
O9	O	0.574818	-0.016228	-0.085692
O10	O	1.074818	0.483772	0.414308
O11	O	0.500730	0.126418	-0.085666
O12	O	1.000730	0.626418	0.414334
O13	O	0.641444	0.109733	-0.085697
O14	O	1.141444	0.609733	0.414303
Cu15	Cu	0.571086	0.118076	-0.101307
Cu16	Cu	1.071086	0.618076	0.398693
Cu17	Cu	0.571097	0.118067	0.101078
Cu18	Cu	1.071097	0.618067	0.601078
O19	O	0.567356	0.252379	-0.085671
O20	O	1.067356	0.752379	0.414329
C21	C	0.482726	0.126064	-0.000095
C22	C	0.982726	0.626064	0.499905
C23	C	0.429066	0.125009	-0.000083
C24	C	0.929066	0.625009	0.499917
C25	C	0.574475	-0.050586	-0.000125
C26	C	1.074475	0.449414	0.499875
C27	C	0.573433	-0.152949	-0.000125
C28	C	1.073433	0.347051	0.499875
C29	C	0.569596	-0.527778	-0.000098
C30	C	1.069596	-0.027778	0.499902
C31	C	0.570662	-0.423488	-0.000106
C32	C	1.070662	0.076512	0.499894
C33	C	0.571514	-0.340367	-0.000112
C34	C	1.071514	0.159633	0.499888
C35	C	0.572580	-0.236071	-0.000118
C36	C	1.072580	0.263929	0.499882
C37	C	0.090622	0.202664	-0.000122
C38	C	0.590622	0.702664	0.499878
C39	C	-0.111056	0.198751	-0.000131
C40	C	0.388944	0.698751	0.499869
O41	O	-0.141972	0.269761	-0.000171
O42	O	0.358028	0.769761	0.499829
N43	N	-0.130584	0.114168	-0.000136
N44	N	0.369416	0.614168	0.499864
C45	C	-0.099689	0.030557	-0.000145
C46	C	0.400311	0.530557	0.499855
O47	O	-0.120926	-0.041476	-0.000160
O48	O	0.379074	0.458524	0.499840
C49	C	0.101988	0.034471	-0.000143
C50	C	0.601988	0.534471	0.499857
C51	C	0.121513	0.119060	-0.000128
C52	C	0.621513	0.619060	0.499872
C53	C	0.110148	0.287246	-0.000108
C54	C	0.610148	0.787246	0.499892
C55	C	0.160564	0.288223	-0.000100
C56	C	0.660564	0.788223	0.499900
C57	C	0.191455	0.204619	-0.000106
C58	C	0.691455	0.704619	0.499894
C59	C	0.171930	0.120037	-0.000120
C60	C	0.671930	0.620037	0.499880
C61	C	0.132882	-0.049139	-0.000159
C62	C	0.632882	0.450861	0.499841
C63	C	0.183304	-0.048153	-0.000161
C64	C	0.683304	0.451847	0.499839
C65	C	0.202829	0.036436	-0.000146
C66	C	0.702829	0.536436	0.499854
C67	C	0.253238	0.037410	-0.000118
C68	C	0.753238	0.537410	0.499882
N69	N	0.272766	0.121993	-0.000113
N70	N	0.772766	0.621993	0.499887
C71	C	0.241875	0.205597	-0.000107
C72	C	0.741875	0.705597	0.499893
C73	C	-0.205573	0.028508	-0.000144
C74	C	0.294427	0.528508	0.499856
C75	C	-0.255992	0.027530	-0.000143
C76	C	0.244008	0.527530	0.499857
C77	C	-0.267356	0.195724	-0.000131
C78	C	0.232644	0.695724	0.499869
C79	C	-0.216936	0.196702	-0.000125
C80	C	0.283064	0.696702	0.499875
C81	C	-0.186045	0.113091	-0.000139
C82	C	0.313955	0.613091	0.499861
C83	C	0.347754	0.207643	-0.000090
C84	C	0.847754	0.707643	0.499910
C85	C	0.398175	0.208613	-0.000077
C86	C	0.898175	0.708613	0.499923
C87	C	0.409534	0.040420	-0.000094
C88	C	0.909534	0.540420	0.499906
C89	C	0.359117	0.039449	-0.000101
C90	C	0.859117	0.539449	0.499899
C91	C	0.328227	0.123069	-0.000102
C92	C	0.828227	0.623069	0.499898
O93	O	0.284182	-0.033562	-0.000090
O94	O	0.784182	0.466438	0.499910
O95	O	0.263121	0.277620	-0.000116
O96	O	0.763121	0.777620	0.499884
C97	C	0.040206	0.201687	-0.000130
C98	C	0.540206	0.701687	0.499870
C99	C	0.020680	0.117105	-0.000144
C100	C	0.520680	0.617105	0.499856
C101	C	0.051571	0.033501	-0.000150
C102	C	0.551571	0.533501	0.499850
C103	C	-0.029739	0.116126	-0.000142
C104	C	0.470261	0.616126	0.499858
C105	C	-0.060630	0.199731	-0.000137
C106	C	0.439370	0.699731	0.499863
C107	C	-0.041102	0.284314	-0.000132
C108	C	0.458898	0.784314	0.499868
C109	C	0.009315	0.285291	-0.000124
C110	C	0.509315	0.785291	0.499876
C111	C	0.032043	-0.051082	-0.000154
C112	C	0.532043	0.448918	0.499846
C113	C	-0.018374	-0.052053	-0.000161
C114	C	0.481626	0.447947	0.499839
C115	C	-0.049265	0.031552	-0.000155
C116	C	0.450735	0.531552	0.499845
C117	C	0.659457	0.110079	-0.000132
C118	C	1.159457	0.610079	0.499868
C119	C	0.713117	0.111134	-0.000137
C120	C	1.213117	0.611134	0.499863
C121	C	0.567708	0.286729	-0.000102
C122	C	1.067708	0.786729	0.499898
C123	C	0.568751	0.389092	-0.000095
C124	C	1.068751	0.889092	0.499905
N125	N	0.571081	0.118083	-0.243654
N126	N	1.071081	0.618083	0.256346
C127	C	0.571084	0.118085	-0.336760
C128	C	1.071084	0.618085	0.163240
C129	C	0.571088	0.118079	-0.453566
C130	C	1.071088	0.618079	0.046434
C131	C	0.571094	0.118068	-0.546664
C132	C	1.071094	0.618068	-0.046664
C133	C	0.571099	0.118063	-0.663476
C134	C	1.071099	0.618063	-0.163476
N135	N	0.571105	0.118053	0.243425
N136	N	1.071105	0.618053	0.743425
H137	H	0.414069	0.277498	-0.000065
H138	H	0.914069	0.777498	0.499935
H139	H	0.116994	-0.118020	-0.000172
H140	H	0.616994	0.381980	0.499828
C141	C	0.313782	0.299629	-0.000085
C142	C	0.813782	0.799629	0.499915
N143	N	0.288195	0.368913	-0.000074
N144	N	0.788195	0.868913	0.499926
C145	C	-0.195463	0.289754	-0.000120
C146	C	0.304537	0.789754	0.499880
N147	N	-0.179293	0.359846	-0.000120
N148	N	0.320707	0.859846	0.499880
H149	H	0.176457	0.357103	-0.000088
H150	H	0.676457	0.857103	0.499912
H151	H	-0.292516	0.263798	-0.000127
H152	H	0.207484	0.763798	0.499873
C153	C	-0.075092	0.376279	-0.000129
C154	C	0.424908	0.876279	0.499871
N155	N	-0.100695	0.445542	-0.000135
N156	N	0.399305	0.945542	0.499865
H157	H	0.025207	0.354171	-0.000113
H158	H	0.525207	0.854171	0.499887
H159	H	0.208454	-0.116240	-0.000174
H160	H	0.708454	0.383760	0.499826
H161	H	-0.034266	-0.120940	-0.000165
H162	H	0.465734	0.379060	0.499835
H163	H	0.434695	-0.027649	-0.000095
H164	H	0.934695	0.472351	0.499905
H165	H	0.057190	-0.119165	-0.000161
H166	H	0.557190	0.380835	0.499839
C167	C	0.076175	0.379226	-0.000106
C168	C	0.576175	0.879226	0.499894
N169	N	0.050589	0.448511	-0.000098
N170	N	0.550589	0.948511	0.499902
H171	H	-0.271885	-0.041351	-0.000139
H172	H	0.228115	0.458649	0.499861
H173	H	0.343219	-0.029430	-0.000098
H174	H	0.843219	0.470570	0.499902
C175	C	-0.171599	-0.063476	-0.000152
C176	C	0.328401	0.436524	0.499848
N177	N	-0.146012	-0.132759	-0.000152
N178	N	0.353988	0.367241	0.499848
