data_functionalizedCrystal
_audit_creation_method	'MofGen! by Chris Wilmer'
_symmetry_space_group_name_H-M	'P1'
_symmetry_Int_Tables_number	1
_symmetry_cell_setting	triclinic
loop_
_symmetry_equiv_pos_as_xyz
  x,y,z
_cell_length_a	25.639239
_cell_length_b	19.121102
_cell_length_c	19.120904
_cell_angle_alpha	89.911827
_cell_angle_beta	92.410104
_cell_angle_gamma	92.407118
loop_
_atom_site_label
_atom_site_type_symbol
_atom_site_fract_x
_atom_site_fract_y
_atom_site_fract_z
Zn1	Zn	-0.255751	-1.054765	-0.442042
Zn2	Zn	0.244249	-0.554765	0.057958
Zn3	Zn	-0.339618	-1.059658	-0.324799
Zn4	Zn	0.160382	-0.559658	0.175201
Zn5	Zn	-0.248315	-0.942536	-0.319827
Zn6	Zn	0.251685	-0.442536	0.180173
Zn7	Zn	-0.339266	-0.937469	-0.437001
Zn8	Zn	0.160734	-0.437469	0.062999
O9	O	-0.295738	-0.998607	-0.380917
O10	O	0.204262	-0.498607	0.119083
O11	O	-0.270136	-1.153518	-0.430680
O12	O	0.229864	-0.653518	0.069320
O13	O	-0.324541	-1.048290	-0.226035
O14	O	0.175459	-0.548290	0.273965
O15	O	-0.176139	-0.957496	-0.336067
O16	O	0.323861	-0.457496	0.163933
O17	O	-0.331752	-1.157113	-0.344542
O18	O	0.168248	-0.657113	0.155458
O19	O	-0.181603	-1.039950	-0.425859
O20	O	0.318397	-0.539950	0.074141
O21	O	-0.257461	-0.962241	-0.222382
O22	O	0.242539	-0.462241	0.277618
O23	O	-0.257121	-0.843760	-0.331180
O24	O	0.242879	-0.343760	0.168820
O25	O	-0.331153	-0.948861	-0.535775
O26	O	0.168847	-0.448861	-0.035775
O27	O	-0.323942	-0.840037	-0.417267
O28	O	0.176058	-0.340037	0.082733
O29	O	-0.269795	-1.035037	-0.539478
O30	O	0.230205	-0.535037	-0.039478
O31	O	-0.412733	-1.043377	-0.339654
O32	O	0.087267	-0.543377	0.160346
O33	O	-0.412475	-0.953605	-0.422089
O34	O	0.087525	-0.453605	0.077911
C35	C	-0.289687	-0.816461	-0.373137
C36	C	0.210313	-0.316461	0.126863
C37	C	-0.287111	-0.738537	-0.369826
C38	C	0.212889	-0.238537	0.130174
C39	C	-0.431575	-0.998491	-0.380880
C40	C	0.068425	-0.498491	0.119120
C41	C	-0.489690	-0.998504	-0.380890
C42	C	0.010310	-0.498504	0.119110
C43	C	-0.301264	-0.990838	-0.563775
C44	C	0.198736	-0.490838	-0.063775
C45	C	-0.303619	-0.987527	-0.641698
C46	C	0.196381	-0.487527	-0.141698
C47	C	-0.850185	-1.045465	-0.338075
C48	C	-0.350185	-0.545465	0.161925
C49	C	-0.904791	-1.045491	-0.338085
C50	C	-0.404791	-0.545491	0.161915
O51	O	-0.933135	-1.085298	-0.301642
O52	O	-0.433135	-0.585298	0.198358
N53	N	-0.931982	-0.998728	-0.380969
N54	N	-0.431982	-0.498728	0.119031
C55	C	-0.904565	-0.951940	-0.423850
C56	C	-0.404565	-0.451940	0.076150
O57	O	-0.932708	-0.912167	-0.460327
O58	O	-0.432708	-0.412167	0.039673
C59	C	-0.849961	-0.951917	-0.423843
C60	C	-0.349961	-0.451917	0.076157
C61	C	-0.822772	-0.998679	-0.380951
C62	C	-0.322772	-0.498679	0.119049
C63	C	-0.822997	-1.092223	-0.295188
C64	C	-0.322997	-0.592223	0.204812
C65	C	-0.768395	-1.092195	-0.295176
C66	C	-0.268395	-0.592195	0.204824
C67	C	-0.740982	-1.045409	-0.338052
C68	C	-0.240982	-0.545409	0.161948
C69	C	-0.768171	-0.998651	-0.380940
C70	C	-0.268171	-0.498651	0.119060
C71	C	-0.822546	-0.905133	-0.466727
C72	C	-0.322546	-0.405133	0.033273
C73	C	-0.767938	-0.905115	-0.466716
C74	C	-0.267938	-0.405115	0.033284
C75	C	-0.740749	-0.951876	-0.423825
C76	C	-0.240749	-0.451876	0.076175
C77	C	-0.686156	-0.951837	-0.423805
C78	C	-0.186156	-0.451837	0.076195
N79	N	-0.658965	-0.998600	-0.380921
N80	N	-0.158965	-0.498600	0.119079
C81	C	-0.686378	-1.045386	-0.338045
C82	C	-0.186378	-0.545386	0.161955
C83	C	-1.019238	-0.951992	-0.423863
C84	C	-0.519238	-0.451992	0.076137
C85	C	-1.073841	-0.952011	-0.423867
C86	C	-0.573841	-0.452011	0.076133
C87	C	-1.074063	-1.045564	-0.338103
C88	C	-0.574063	-0.545564	0.161897
C89	C	-1.019459	-1.045541	-0.338096
C90	C	-0.519459	-0.545541	0.161904
C91	C	-0.992047	-0.998756	-0.380980
C92	C	-0.492047	-0.498756	0.119020
C93	C	-0.571710	-1.045324	-0.338024
C94	C	-0.071710	-0.545324	0.161976
C95	C	-0.517103	-1.045290	-0.338014
C96	C	-0.017103	-0.545290	0.161986
C97	C	-0.516886	-0.951740	-0.423780
C98	C	-0.016886	-0.451740	0.076220
C99	C	-0.571488	-0.951771	-0.423788
C100	C	-0.071488	-0.451771	0.076212
C101	C	-0.598899	-0.998569	-0.380907
C102	C	-0.098899	-0.498569	0.119093
O103	O	-0.657777	-0.912052	-0.460232
O104	O	-0.157777	-0.412052	0.039768
O105	O	-0.658229	-1.085159	-0.301581
O106	O	-0.158229	-0.585159	0.198419
C107	C	-0.159371	-0.998742	-0.380971
C108	C	0.340629	-0.498742	0.119029
C109	C	-0.101259	-0.998800	-0.380993
C110	C	0.398741	-0.498800	0.119007
C111	C	-0.301813	-1.181464	-0.388728
C112	C	0.198187	-0.681464	0.111272
C113	C	-0.304401	-1.259387	-0.392057
C114	C	0.195599	-0.759387	0.107943
C115	C	-0.320740	-0.700012	-0.413021
C116	C	0.179260	-0.200012	0.086979
C117	C	-0.318313	-0.626794	-0.409912
C118	C	0.181687	-0.126794	0.090088
C119	C	-0.282260	-0.592104	-0.363605
C120	C	0.217740	-0.092104	0.136395
C121	C	-0.248627	-0.630634	-0.320408
C122	C	0.251373	-0.130634	0.179592
C123	C	-0.251052	-0.703850	-0.323520
C124	C	0.248948	-0.203850	0.176480
C125	C	-0.273194	-0.371134	-0.351972
C126	C	0.226806	0.128866	0.148028
C127	C	-0.270773	-0.297913	-0.348862
C128	C	0.229227	0.202087	0.151138
C129	C	-0.340458	-0.294078	-0.438367
C130	C	0.159542	0.205922	0.061633
C131	C	-0.342882	-0.367296	-0.441472
C132	C	0.157118	0.132704	0.058528
C133	C	-0.309247	-0.405820	-0.398278
C134	C	0.190753	0.094180	0.101722
C135	C	-0.279779	-0.517264	-0.360425
C136	C	0.220221	-0.017264	0.139575
C137	C	-0.311726	-0.480658	-0.401462
C138	C	0.188274	0.019342	0.098538
C139	C	-0.272781	-1.030837	-0.680236
C140	C	0.227219	-0.530837	-0.180236
C141	C	-0.274992	-1.027718	-0.753453
C142	C	0.225008	-0.527718	-0.253453
C143	C	-0.308044	-0.981292	-0.788130
C144	C	0.191956	-0.481292	-0.288130
C145	C	-0.338883	-0.937977	-0.749587
C146	C	0.161117	-0.437977	-0.249587
C147	C	-0.336669	-0.941093	-0.676372
C148	C	0.163331	-0.441093	-0.176372
C149	C	-0.316324	-0.969635	-1.009097
C150	C	0.183676	-0.469635	-0.509097
C151	C	-0.318536	-0.966523	-1.082318
C152	C	0.181464	-0.466523	-0.582318
C153	C	-0.254644	-1.056263	-1.086178
C154	C	0.245356	-0.556263	-0.586178
C155	C	-0.252436	-1.059378	-1.012961
C156	C	0.247564	-0.559378	-0.512961
C157	C	-0.283273	-1.016061	-0.974424
C158	C	0.216727	-0.516061	-0.474424
C159	C	-0.310306	-0.978104	-0.862970
C160	C	0.189694	-0.478104	-0.362970
C161	C	-0.281008	-1.019246	-0.899586
C162	C	0.218992	-0.519246	-0.399586
C163	C	-0.290196	-1.006386	-0.198772
C164	C	0.209804	-0.506386	0.301228
C165	C	-0.287698	-1.009833	-0.120856
C166	C	0.212302	-0.509833	0.379144
H167	H	-0.594021	-1.083432	-0.303108
H168	H	-0.094021	-0.583432	0.196892
O169	O	-0.487316	-0.901278	-0.470025
O170	O	0.012684	-0.401278	0.029975
H171	H	-0.464527	-0.931105	-0.507053
H172	H	0.035473	-0.431105	-0.007053
H173	H	-0.367840	-0.262704	-0.473534
H174	H	0.132160	0.237296	0.026466
H175	H	-0.345452	-0.928715	-1.110550
H176	H	0.154548	-0.428715	-0.610550
H177	H	-0.746261	-1.130274	-0.260252
H178	H	-0.246261	-0.630274	0.239748
O179	O	-0.214781	-0.745408	-0.276933
O180	O	0.285219	-0.245408	0.223067
H181	H	-0.238166	-0.780262	-0.242630
H182	H	0.261834	-0.280262	0.257370
O183	O	-0.852559	-1.142684	-0.248934
O184	O	-0.352559	-0.642684	0.251066
H185	H	-0.824471	-1.175185	-0.219111
H186	H	-0.324471	-0.675185	0.280889
H187	H	-0.372241	-0.395536	-0.479179
H188	H	0.127759	0.104464	0.020821
H189	H	-0.249882	-1.062987	-0.784827
H190	H	0.250118	-0.562987	-0.284827
H191	H	-0.996922	-0.913888	-0.458781
H192	H	-0.496922	-0.413888	0.041219
H193	H	-0.997325	-1.083618	-0.303171
H194	H	-0.497325	-0.583618	0.196829
O195	O	-0.349554	-0.922881	-0.967534
O196	O	0.150446	-0.422881	-0.467534
H197	H	-0.372901	-0.890067	-1.003950
H198	H	0.127099	-0.390067	-0.503950
H199	H	-0.593627	-0.913696	-0.458716
H200	H	-0.093627	-0.413696	0.041284
H201	H	-0.361775	-0.905819	-0.644995
H202	H	0.138225	-0.405819	-0.144995
O203	O	-1.103163	-0.901565	-0.470117
O204	O	-0.603163	-0.401565	0.029883
H205	H	-1.130129	-0.931403	-0.507154
H206	H	-0.630129	-0.431403	-0.007154
H207	H	-0.345698	-0.595430	-0.445086
H208	H	0.154302	-0.095430	0.054914
H209	H	-0.844673	-0.867052	-0.501650
H210	H	-0.344673	-0.367052	-0.001650
O211	O	-0.231881	-0.260491	-0.298919
O212	O	0.268119	0.239509	0.201081
H213	H	-0.208896	-0.299579	-0.269411
H214	H	0.291104	0.200421	0.230589
H215	H	-0.245810	-0.402492	-0.316795
H216	H	0.254190	0.097508	0.183205
O217	O	-0.209752	-0.593224	-0.270443
O218	O	0.290248	-0.093224	0.229557
H219	H	-0.213723	-0.535840	-0.275522
H220	H	0.286277	-0.035840	0.224478
O221	O	-0.359624	-0.737428	-0.462969
O222	O	0.140376	-0.237428	0.037031
H223	H	-0.382596	-0.698335	-0.492489
H224	H	0.117404	-0.198335	0.007511
H225	H	-1.096393	-1.083662	-0.303194
H226	H	-0.596393	-0.583662	0.196806
O227	O	-0.216790	-1.109455	-0.975558
O228	O	0.283210	-0.609455	-0.475558
H229	H	-0.195715	-1.139046	-1.014657
H230	H	0.304285	-0.639046	-0.514657
O231	O	-0.374530	-0.887897	-0.786984
O232	O	0.125470	-0.387897	-0.286984
H233	H	-0.370892	-0.893009	-0.844371
H234	H	0.129108	-0.393009	-0.344371
H235	H	-0.254095	-1.057043	-0.871348
H236	H	0.245905	-0.557043	-0.371348
O237	O	-0.240913	-0.479835	-0.310462
O238	O	0.259087	0.020165	0.189538
H239	H	-0.214197	-0.445157	-0.340476
H240	H	0.285803	0.054843	0.159524
H241	H	-0.337219	-0.940307	-0.891213
H242	H	0.162781	-0.440307	-0.391213
H243	H	-0.341078	-0.508906	-0.439168
H244	H	0.158922	-0.008906	0.060832
H245	H	-0.229538	-1.091528	-1.117562
H246	H	0.270462	-0.591528	-0.617562
O247	O	-0.237135	-1.080914	-0.642833
O248	O	0.262865	-0.580914	-0.142833
H249	H	-0.196127	-1.068330	-0.656382
H250	H	0.303873	-0.568330	-0.156382
O251	O	-0.487777	-1.095734	-0.291760
O252	O	0.012223	-0.595734	0.208240
H253	H	-0.496225	-1.086108	-0.236217
H254	H	0.003775	-0.586108	0.263783
O255	O	-0.738370	-0.854644	-0.512961
O256	O	-0.238370	-0.354644	-0.012961
H257	H	-0.766454	-0.822130	-0.542777
H258	H	-0.266454	-0.322130	-0.042777
