data_functionalizedCrystal
_audit_creation_method	'MofGen! by Chris Wilmer'
_symmetry_space_group_name_H-M	'P1'
_symmetry_Int_Tables_number	1
_symmetry_cell_setting	triclinic
loop_
_symmetry_equiv_pos_as_xyz
  x,y,z
_cell_length_a	16.959455
_cell_length_b	12.827892
_cell_length_c	12.827885
_cell_angle_alpha	89.970024
_cell_angle_beta	90.020321
_cell_angle_gamma	89.987661
loop_
_atom_site_label
_atom_site_type_symbol
_atom_site_fract_x
_atom_site_fract_y
_atom_site_fract_z
Zn1	Zn	1.208456	0.416066	0.590873
Zn2	Zn	1.708456	0.916066	1.090873
Zn3	Zn	1.208376	0.590844	0.416133
Zn4	Zn	1.708376	1.090844	0.916133
Zn5	Zn	1.076271	0.416108	0.416144
Zn6	Zn	1.576271	0.916108	0.916144
Zn7	Zn	1.076260	0.590756	0.590830
Zn8	Zn	1.576260	1.090756	1.090830
O9	O	1.142341	0.503443	0.503495
O10	O	1.642341	1.003443	1.003495
O11	O	1.319056	0.439269	0.567706
O12	O	1.819056	0.939269	1.067706
O13	O	1.190823	0.567719	0.269898
O14	O	1.690823	1.067719	0.769898
O15	O	1.093844	0.269866	0.439344
O16	O	1.593844	0.769866	0.939344
O17	O	1.318997	0.567678	0.439326
O18	O	1.818997	1.067678	0.939326
O19	O	1.190960	0.269835	0.567717
O20	O	1.690960	0.769835	1.067717
O21	O	1.093766	0.439341	0.269906
O22	O	1.593766	0.939341	0.769906
O23	O	0.965659	0.439256	0.439303
O24	O	1.465659	0.939256	0.939303
O25	O	1.093826	0.567529	0.737072
O26	O	1.593826	1.067529	1.237072
O27	O	0.965651	0.567570	0.567644
O28	O	1.465651	1.067570	1.067644
O29	O	1.190949	0.439184	0.737103
O30	O	1.690949	0.939184	1.237103
O31	O	1.190812	0.737068	0.439285
O32	O	1.690812	1.237068	0.939285
O33	O	1.093747	0.737004	0.567634
O34	O	1.593747	1.237004	1.067634
C35	C	0.936975	0.503409	0.503471
C36	C	1.436975	1.003409	1.003471
C37	C	0.849118	0.503419	0.503485
C38	C	1.349118	1.003419	1.003485
C39	C	1.142395	0.503342	0.776065
C40	C	1.642395	1.003342	1.276065
C41	C	1.142418	0.503299	0.892218
C42	C	1.642418	1.003299	1.392218
C43	C	1.142291	0.774953	0.503476
C44	C	1.642291	1.274953	1.003476
C45	C	1.142343	0.891106	0.503503
C46	C	1.642343	1.391106	1.003503
C47	C	0.477622	0.436576	0.436807
C48	C	0.977622	0.936576	0.936807
C49	C	0.477663	0.570397	0.570242
C50	C	0.977663	1.070397	1.070242
C51	C	0.560209	0.570382	0.570236
C52	C	1.060209	1.070382	1.070236
C53	C	0.601465	0.503464	0.503513
C54	C	1.101465	1.003464	1.003513
C55	C	0.560176	0.436561	0.436796
C56	C	1.060176	0.936561	0.936796
C57	C	0.601504	0.637291	0.636944
C58	C	1.101504	1.137291	1.136944
C59	C	0.684055	0.637279	0.636940
C60	C	1.184055	1.137279	1.136940
C61	C	0.725313	0.570355	0.570221
C62	C	1.225313	1.070355	1.070221
C63	C	0.684019	0.503449	0.503502
C64	C	1.184019	1.003449	1.003502
C65	C	0.725275	0.436531	0.436779
C66	C	1.225275	0.936531	0.936779
C67	C	0.683982	0.369619	0.370065
C68	C	1.183982	0.869619	0.870065
C69	C	0.601433	0.369637	0.370078
C70	C	1.101433	0.869637	0.870078
C71	C	0.807861	0.570337	0.570208
C72	C	1.307861	1.070337	1.070208
C73	C	0.807829	0.436516	0.436769
C74	C	1.307829	0.936516	0.936769
C75	C	1.348509	0.503479	0.503519
C76	C	1.848509	1.003479	1.003519
C77	C	1.436366	0.503494	0.503530
C78	C	1.936366	1.003494	1.003530
C79	C	1.142412	0.230873	0.503536
C80	C	1.642412	0.730873	1.003536
C81	C	1.142442	0.114720	0.503554
C82	C	1.642442	0.614720	1.003554
C83	C	1.190430	0.942888	0.440063
C84	C	1.690430	1.442888	0.940063
C85	C	1.190484	1.062939	0.440089
C86	C	1.690484	1.562939	0.940089
C87	C	1.142332	0.503469	0.231985
C88	C	1.642332	1.003469	0.731985
C89	C	1.142462	0.503217	0.115832
C90	C	1.642462	1.003217	0.615832
C91	C	1.190507	0.439734	1.064063
C92	C	1.690507	0.939734	1.564063
C93	C	1.190484	0.439778	0.944012
C94	C	1.690484	0.939778	1.444012
H95	H	0.841414	0.382016	0.382440
H96	H	1.341414	0.882016	0.882440
H97	H	1.101278	0.557645	0.936732
H98	H	1.601278	1.057645	1.436732
H99	H	1.101267	1.070196	0.557867
H100	H	1.601267	1.570196	1.057867
H101	H	1.101216	0.935650	0.557841
H102	H	1.601216	1.435650	1.057841
H103	H	0.567907	0.691779	0.691259
H104	H	1.067907	1.191779	1.191259
H105	H	1.101315	0.557603	1.071277
H106	H	1.601315	1.057603	1.571277
H107	H	1.231659	0.385357	1.108618
H108	H	1.731659	0.885357	1.608618
H109	H	0.717584	0.315139	0.315735
H110	H	1.217584	0.815139	0.815735
H111	H	1.231613	0.385423	0.899492
H112	H	1.731613	0.885423	1.399492
H113	H	1.231652	1.107470	0.385772
H114	H	1.731652	1.607470	0.885772
H115	H	0.717669	0.691763	0.691263
H116	H	1.217669	1.191763	1.191263
H117	H	0.443998	0.382094	0.382493
H118	H	0.943998	0.882094	0.882493
H119	H	0.567805	0.315162	0.315761
H120	H	1.067805	0.815162	0.815761
H121	H	0.841479	0.624819	0.624523
H122	H	1.341479	1.124819	1.124523
H123	H	1.231564	0.898346	0.385732
H124	H	1.731564	1.398346	0.885732
H125	H	0.444067	0.624884	0.624559
H126	H	0.944067	1.124884	1.124559
