data_functionalizedCrystal
_audit_creation_method	'MofGen! by Chris Wilmer'
_symmetry_space_group_name_H-M	'P1'
_symmetry_Int_Tables_number	1
_symmetry_cell_setting	triclinic
loop_
_symmetry_equiv_pos_as_xyz
  x,y,z
_cell_length_a	10.686220
_cell_length_b	16.959453
_cell_length_c	10.686551
_cell_angle_alpha	94.408900
_cell_angle_beta	89.691918
_cell_angle_gamma	94.401879
loop_
_atom_site_label
_atom_site_type_symbol
_atom_site_fract_x
_atom_site_fract_y
_atom_site_fract_z
Zn1	Zn	1.972259	-0.192707	0.562369
Zn2	Zn	1.956009	-0.335775	0.352597
Zn3	Zn	1.746375	-0.212927	0.368684
Zn4	Zn	1.762439	-0.334173	0.578375
O5	O	1.859271	-0.268896	0.465506
O6	O	2.145647	-0.203893	0.521111
O7	O	1.914677	-0.328612	0.179185
O8	O	1.776417	-0.099629	0.394411
O9	O	2.133708	-0.309005	0.366993
O10	O	1.942373	-0.084773	0.536710
O11	O	1.760659	-0.238356	0.191004
O12	O	1.572963	-0.236803	0.409932
O13	O	1.803796	-0.306275	0.751798
O14	O	1.584765	-0.325882	0.563990
O15	O	1.957950	-0.202340	0.740038
O16	O	1.930254	-0.446179	0.382514
O17	O	1.788039	-0.445002	0.548392
C18	C	1.533348	-0.283363	0.490444
C19	C	1.393919	-0.289570	0.501143
C20	C	1.859162	-0.474269	0.465469
C21	C	1.859234	-0.562121	0.465485
C22	C	1.945798	-0.925788	0.539745
C23	C	1.773107	-0.941375	0.391427
C24	C	1.773059	-0.858833	0.391402
C25	C	1.859380	-0.809764	0.465551
C26	C	1.945750	-0.843238	0.539725
C27	C	1.686682	-0.825353	0.317239
C28	C	1.686629	-0.742806	0.317212
C29	C	1.772957	-0.693736	0.391355
C30	C	1.859331	-0.727214	0.465531
C31	C	1.945653	-0.678145	0.539680
C32	C	2.032034	-0.711622	0.613850
C33	C	2.032078	-0.794167	0.613868
C34	C	1.772913	-0.611190	0.391337
C35	C	1.945604	-0.595595	0.539660
C36	C	2.186466	-0.254372	0.440472
C37	C	2.325897	-0.248183	0.429804
C38	C	1.884478	-0.251873	0.792708
C39	C	1.895220	-0.244619	0.932142
C40	C	1.859415	-0.062717	0.465569
C41	C	1.859477	0.025143	0.465596
C42	C	1.834234	-0.285792	0.139572
C43	C	1.823735	-0.292812	0.000120
H44	H	1.345481	-0.329758	0.570401
C45	C	1.987912	-0.182174	0.996533
C46	C	2.051725	-0.139182	0.905878
C47	C	2.137132	-0.081660	0.965146
H48	H	1.943984	-0.147158	1.051328
H49	H	2.046509	-0.207338	1.043423
H50	H	1.993137	-0.114019	0.859008
H51	H	2.095678	-0.174176	0.851078
H52	H	2.195729	-0.106824	1.012036
H53	H	2.093194	-0.046649	1.019940
H54	H	2.180447	-0.052488	0.903646
H55	H	1.616401	-0.865310	0.256875
C56	C	1.390622	-0.194727	0.337366
C57	C	1.459638	-0.240282	0.251155
C58	C	1.519300	-0.191063	0.165993
H59	H	1.329390	-0.169576	0.293913
H60	H	1.445531	-0.155593	0.381535
H61	H	1.404733	-0.279401	0.206991
H62	H	1.520890	-0.265432	0.294572
H63	H	1.574210	-0.151930	0.210161
H64	H	1.458060	-0.165915	0.122549
H65	H	1.566144	-0.221964	0.107496
H66	H	2.015902	-0.555647	0.600036
C67	C	2.125693	-0.658209	0.694221
C68	C	2.107167	-0.578757	0.678304
C69	C	2.193429	-0.529528	0.752307
H70	H	2.113855	-0.668057	0.779952
H71	H	2.208621	-0.668856	0.669467
H72	H	2.024259	-0.568114	0.703066
H73	H	2.119015	-0.568885	0.592589
H74	H	2.276357	-0.540175	0.727553
H75	H	2.181584	-0.539383	0.838034
H76	H	2.180879	-0.475615	0.741509
H77	H	2.016131	-0.953048	0.600129
C78	C	1.679194	-0.994608	0.311101
C79	C	1.557139	-0.978692	0.347824
C80	C	1.470591	-1.027726	0.273863
H81	H	1.690953	-0.984707	0.225382
H82	H	1.691509	-1.048574	0.321758
H83	H	1.544828	-0.924739	0.337156
H84	H	1.545339	-0.988597	0.433531
H85	H	1.482907	-1.081692	0.284520
H86	H	1.482362	-1.017821	0.188147
H87	H	1.387768	-1.016939	0.298776
H88	H	1.616294	-0.715555	0.256818
H89	H	2.102404	-0.821432	0.674254
C90	C	1.679073	-0.574995	0.310694
C91	C	1.603499	-0.635635	0.245750
C92	C	1.517045	-0.602323	0.171435
H93	H	1.627938	-0.542751	0.362691
H94	H	1.722835	-0.543516	0.252319
H95	H	1.559740	-0.667100	0.304117
H96	H	1.654600	-0.667883	0.193730
H97	H	1.560807	-0.570844	0.113060
H98	H	1.465919	-0.570080	0.223442
H99	H	1.465765	-0.643462	0.127353
C100	C	1.731361	-0.355274	0.935317
C101	C	1.796629	-0.406640	0.854618
C102	C	1.711575	-0.464184	0.794878
H103	H	1.687912	-0.384622	0.996513
H104	H	1.672849	-0.330114	0.888316
H105	H	1.855118	-0.431798	0.901617
H106	H	1.840074	-0.377315	0.793399
H107	H	1.653063	-0.439024	0.747876
H108	H	1.668131	-0.493526	0.856082
H109	H	1.755845	-0.499038	0.740108
