data_functionalizedCrystal
_audit_creation_method	'MofGen! by Chris Wilmer'
_symmetry_space_group_name_H-M	'P1'
_symmetry_Int_Tables_number	1
_symmetry_cell_setting	triclinic
loop_
_symmetry_equiv_pos_as_xyz
  x,y,z
_cell_length_a	8.559649
_cell_length_b	17.699083
_cell_length_c	16.176319
_cell_angle_alpha	90.001389
_cell_angle_beta	89.994559
_cell_angle_gamma	103.469160
loop_
_atom_site_label
_atom_site_type_symbol
_atom_site_fract_x
_atom_site_fract_y
_atom_site_fract_z
O1	O	0.202110	-0.992507	-0.068628
O2	O	0.228405	-0.770623	-0.068655
O3	O	-0.017421	-0.901113	-0.068638
O4	O	0.447935	-0.862017	-0.068645
O5	O	-0.017436	-0.901098	0.068855
O6	O	0.228389	-0.770608	0.068838
O7	O	0.202094	-0.992492	0.068865
Cu8	Cu	0.215240	-0.881549	0.081406
Cu9	Cu	0.215259	-0.881566	-0.081196
O10	O	0.447920	-0.862002	0.068849
C11	C	0.227455	-0.742473	0.000088
C12	C	0.224628	-0.658616	0.000078
C13	C	-0.076970	-0.904069	0.000107
C14	C	-0.254384	-0.912888	0.000104
C15	C	0.203044	-1.020643	0.000120
C16	C	0.205871	-1.104499	0.000125
C17	C	0.507469	-0.859047	0.000101
C18	C	0.684883	-0.850227	0.000099
N19	N	0.215226	-0.881542	0.195771
C20	C	0.368922	-0.601734	0.000076
C21	C	0.366257	-0.522943	0.000087
C22	C	0.219296	-0.501037	0.000094
C23	C	0.074990	-0.557926	0.000098
C24	C	0.077657	-0.636715	0.000093
C25	C	0.064231	-0.240179	0.000118
C26	C	0.061575	-0.161383	0.000121
C27	C	0.352831	-0.126407	0.000112
C28	C	0.355498	-0.205196	0.000108
C29	C	0.211193	-0.262078	0.000116
C30	C	0.214085	-0.347512	0.000106
C31	C	0.216402	-0.415605	0.000098
N32	N	0.215260	-0.881580	-0.195561
C33	C	0.106419	-0.939336	0.239043
C34	C	0.106417	-0.939340	0.325590
C35	C	0.215232	-0.881552	0.368864
C36	C	0.324044	-0.823752	0.325586
C37	C	0.324037	-0.823746	0.239041
C38	C	0.324074	-0.823776	0.674614
C39	C	0.324076	-0.823789	0.761166
C40	C	0.106455	-0.939370	0.761164
C41	C	0.106447	-0.939364	0.674618
C42	C	0.215253	-0.881562	0.631348
C43	C	0.215252	-0.881558	0.537504
C44	C	0.215242	-0.881559	0.462706
H45	H	-0.231386	-0.789834	0.000095
N46	N	-0.010883	-1.001697	0.372262
H47	H	-0.079791	-1.038314	0.331716
H48	H	0.050285	-1.031585	0.408146
H49	H	-0.338124	-0.973285	0.000118
N50	N	0.527440	-0.625352	0.000062
H51	H	0.590638	-0.603996	0.051030
H52	H	0.507112	-0.683898	0.000025
N53	N	-0.091416	-0.301516	0.000128
H54	H	-0.155540	-0.295447	-0.050839
H55	H	-0.067320	-0.354728	0.000161
N56	N	0.441436	-0.761448	0.627943
H57	H	0.380449	-0.731480	0.592046
H58	H	0.510352	-0.724895	0.668538
N59	N	0.441397	-0.761423	0.372262
H60	H	0.512091	-0.786235	0.408159
H61	H	0.510216	-0.724826	0.331666
N62	N	-0.010911	-1.001688	0.627938
H63	H	0.007347	-1.054343	0.642988
H64	H	-0.124268	-0.999497	0.643025
N65	N	0.521888	-0.461590	0.000179
H66	H	0.615391	-0.487424	0.000199
H67	H	0.527250	-0.428086	-0.050758
N68	N	0.514004	-0.228824	0.000089
H69	H	0.605013	-0.180833	0.000090
H70	H	0.521454	-0.260756	0.051056
N71	N	-0.010908	-1.001711	0.807838
H72	H	-0.124321	-0.999596	0.792783
H73	H	0.007512	-1.054326	0.792747
H74	H	0.470330	-0.080083	0.000110
H75	H	-0.058106	-0.143552	0.000127
H76	H	-0.044668	-0.540084	0.000115
H77	H	0.017817	-0.986396	0.203815
H78	H	0.412636	-0.776683	0.203810
N79	N	-0.077973	-0.698071	0.000101
H80	H	-0.171479	-0.672239	0.000106
H81	H	-0.083212	-0.731524	-0.050869
H82	H	0.412689	-0.776728	0.796398
