data_functionalizedCrystal
_audit_creation_method	'MofGen! by Chris Wilmer'
_symmetry_space_group_name_H-M	'P1'
_symmetry_Int_Tables_number	1
_symmetry_cell_setting	triclinic
loop_
_symmetry_equiv_pos_as_xyz
  x,y,z
_cell_length_a	13.897449
_cell_length_b	13.897448
_cell_length_c	17.077396
_cell_angle_alpha	89.971798
_cell_angle_beta	89.983816
_cell_angle_gamma	90.018972
loop_
_atom_site_label
_atom_site_type_symbol
_atom_site_fract_x
_atom_site_fract_y
_atom_site_fract_z
Zn1	Zn	1.474659	-0.383974	-0.443827
Zn2	Zn	1.474566	-0.545289	-0.312563
Zn3	Zn	1.313361	-0.384013	-0.312577
Zn4	Zn	1.313330	-0.545232	-0.443789
O5	O	1.393979	-0.464627	-0.378189
O6	O	1.609629	-0.405380	-0.426424
O7	O	1.453156	-0.523935	-0.202718
O8	O	1.334810	-0.249026	-0.330009
O9	O	1.609560	-0.523898	-0.329985
O10	O	1.453315	-0.248998	-0.426438
O11	O	1.334719	-0.405447	-0.202728
O12	O	1.178376	-0.405392	-0.329973
O13	O	1.334757	-0.523801	-0.553641
O14	O	1.178353	-0.523839	-0.426374
O15	O	1.453285	-0.405325	-0.553669
O16	O	1.453126	-0.680263	-0.329949
O17	O	1.334666	-0.680221	-0.426360
C18	C	1.143365	-0.464614	-0.378171
C19	C	1.036151	-0.464632	-0.378182
C20	C	0.839856	-0.464635	-0.378203
C21	C	0.949088	-0.464631	-0.378189
C22	C	1.393909	-0.715242	-0.378166
C23	C	1.393967	-0.822455	-0.378183
C24	C	1.394068	-1.018750	-0.378232
C25	C	1.394009	-0.909518	-0.378207
C26	C	1.645572	-0.464641	-0.378207
C27	C	1.752786	-0.464647	-0.378215
C28	C	1.394028	-0.464552	-0.582933
C29	C	1.394048	-0.464521	-0.670183
C30	C	1.394076	-0.213034	-0.378229
C31	C	1.394117	-0.105820	-0.378246
C32	C	1.332397	-0.402816	-0.711178
C33	C	1.332413	-0.402794	-0.793159
C34	C	1.394085	-0.464473	-0.834143
C35	C	1.455739	-0.526184	-0.793142
C36	C	1.455718	-0.526210	-0.711163
C37	C	1.455781	-0.526124	-0.964012
C38	C	1.455804	-0.526096	-1.045997
C39	C	1.332476	-0.402708	-1.046008
C40	C	1.332455	-0.402734	-0.964029
C41	C	1.394110	-0.464444	-0.923034
C42	C	1.393986	-0.464632	-0.174241
C43	C	1.394153	-0.464392	-0.086992
H44	H	1.282207	-0.352552	-0.826533
H45	H	1.282182	-0.352585	-0.677815
H46	H	1.282240	-0.352506	-0.930662
H47	H	1.505996	-0.576366	-0.930637
O48	O	1.515695	-0.586182	-0.671459
C49	C	1.570116	-0.640635	-0.725210
H50	H	1.573494	-0.601105	-0.783654
H51	H	1.534759	-0.713884	-0.733917
C52	C	1.668609	-0.703118	-0.621433
C53	C	1.672766	-0.654562	-0.693213
H54	H	1.731928	-0.711714	-0.601695
H55	H	1.631943	-0.666436	-0.585219
H56	H	1.639141	-0.764154	-0.628699
H57	H	1.702222	-0.593523	-0.685945
H58	H	1.709440	-0.691235	-0.729425
H59	H	1.282275	-0.352460	-1.079390
H60	H	1.506023	-0.576320	-1.079364
H61	H	1.505949	-0.576408	-0.826518
