data_functionalizedCrystal
_audit_creation_method	'MofGen! by Chris Wilmer'
_symmetry_space_group_name_H-M	'P1'
_symmetry_Int_Tables_number	1
_symmetry_cell_setting	triclinic
loop_
_symmetry_equiv_pos_as_xyz
  x,y,z
_cell_length_a	8.965430
_cell_length_b	15.995350
_cell_length_c	15.995350
_cell_angle_alpha	83.492375
_cell_angle_beta	90.002652
_cell_angle_gamma	89.999838
loop_
_atom_site_label
_atom_site_type_symbol
_atom_site_fract_x
_atom_site_fract_y
_atom_site_fract_z
O1	O	0.123905	-1.110985	-0.107920
O2	O	0.123935	-0.867210	-0.121248
O3	O	0.123918	-0.995762	0.007304
O4	O	0.123923	-0.982434	-0.236472
O5	O	-0.124161	-0.995751	0.007295
O6	O	-0.124144	-0.867199	-0.121256
O7	O	-0.124173	-1.110975	-0.107929
Cu8	Cu	-0.146810	-0.989086	-0.114593
Cu9	Cu	0.146572	-0.989099	-0.114583
O10	O	-0.124156	-0.982423	-0.236480
C11	C	-0.000118	-0.995205	0.038494
C12	C	-0.000110	-0.993553	0.131444
C13	C	-0.000100	-0.836010	-0.120701
C14	C	-0.000089	-0.743060	-0.119049
N15	N	-0.353159	-0.989083	-0.114600
C16	C	-0.450457	-0.929614	-0.174031
C17	C	-0.549880	-1.005277	-0.190278
C18	C	-0.549864	-0.913452	-0.098360
C19	C	-0.450393	-1.064784	-0.130885
C20	C	-0.450368	-0.972910	-0.038933
C21	C	-0.549746	-1.048627	-0.055148
N22	N	0.352921	-0.989108	-0.114570
C23	C	-0.000135	-1.142175	-0.108476
C24	C	-0.000136	-1.235125	-0.110127
C25	C	-0.000120	-0.405312	-0.113117
C26	C	-0.000675	-0.452746	-0.021565
C27	C	-0.000105	-0.549436	-0.023217
C28	C	-0.000105	-0.572873	-0.116060
C29	C	0.141555	-0.531792	-0.161211
C30	C	0.141663	-0.435156	-0.158911
C31	C	-0.140449	-0.434805	-0.160813
C32	C	-0.142311	-0.531750	-0.160791
C33	C	-0.000092	-0.667570	-0.117727
C34	C	-0.000123	-0.310614	-0.111452
C35	C	-0.000116	-0.982980	-0.267671
C36	C	-0.000115	-0.984631	-0.360621
C37	C	-0.000114	-0.987621	0.469192
C38	C	0.000454	-0.896069	0.421758
C39	C	-0.000106	-0.897721	0.325068
C40	C	-0.000111	-0.990564	0.301631
C41	C	-0.141779	-1.035714	0.342704
C42	C	-0.141897	-1.033414	0.439340
C43	C	0.140214	-1.035318	0.439708
C44	C	0.142087	-1.035296	0.342762
C45	C	-0.000114	-0.992231	0.206934
C46	C	-0.000121	-0.985956	0.563890
H47	H	-0.406862	-0.879369	-0.224336
C48	C	-0.608947	-1.023776	-0.276706
N49	N	-0.653436	-1.037703	-0.341805
H50	H	-0.101824	-0.861982	0.297199
H51	H	-0.150867	-0.547115	-0.228495
H52	H	-0.247111	-0.559062	-0.127831
C53	C	0.283984	-0.570123	-0.118832
N54	N	0.391259	-0.598992	-0.086905
H55	H	-0.247200	-1.004346	0.314319
C56	C	-0.391619	-1.151223	-0.149532
N57	N	-0.347346	-1.216326	-0.163581
H58	H	-0.141407	-0.403043	-0.228313
H59	H	-0.102265	-0.434220	0.015027
C60	C	0.285275	-0.994883	0.467456
N61	N	0.394527	-0.964418	0.488355
C62	C	-0.608298	-1.116656	0.012763
N63	N	-0.652409	-1.167898	0.063908
H64	H	-0.593561	-0.849482	-0.084637
C65	C	0.283676	-0.990742	0.305908
N66	N	0.390318	-0.957176	0.278151
H67	H	-0.406624	-0.959189	0.025023
C68	C	0.137082	-0.849767	0.286672
N69	N	0.240412	-0.813641	0.257757
C70	C	0.284713	-0.410427	-0.114411
N71	N	0.392458	-0.391807	-0.080888
C72	C	-0.148926	-1.127856	0.323604
N73	N	-0.154313	-1.197255	0.309211
H74	H	0.102047	-0.859481	0.440293
H75	H	0.141163	-1.102819	0.471468
C76	C	-0.137285	-0.587840	0.024738
N77	N	-0.240609	-0.616762	0.060865
H78	H	-0.100565	-0.859635	0.441348
H79	H	-0.247824	-0.414265	-0.130886
C80	C	0.137324	-0.587080	0.025061
N81	N	0.240843	-0.615433	0.061424
H82	H	0.100354	-0.433157	0.014865
C83	C	0.150380	-0.391588	-0.249714
N84	N	0.156961	-0.358777	-0.318105
C85	C	0.153633	-1.126766	0.322017
N86	N	0.162315	-1.195667	0.306394
H87	H	0.146822	-0.545917	-0.229420
C88	C	-0.284948	-0.988914	0.464060
N89	N	-0.392694	-0.955392	0.482675
H90	H	-0.148329	-1.100630	0.471588
