data_functionalizedCrystal
_audit_creation_method	'MofGen! by Chris Wilmer'
_symmetry_space_group_name_H-M	'P1'
_symmetry_Int_Tables_number	1
_symmetry_cell_setting	triclinic
loop_
_symmetry_equiv_pos_as_xyz
  x,y,z
_cell_length_a	19.121275
_cell_length_b	19.120786
_cell_length_c	16.625539
_cell_angle_alpha	92.471374
_cell_angle_beta	87.579381
_cell_angle_gamma	90.130801
loop_
_atom_site_label
_atom_site_type_symbol
_atom_site_fract_x
_atom_site_fract_y
_atom_site_fract_z
Zn1	Zn	1.059830	-0.324828	0.388035
Zn2	Zn	1.054739	-0.442075	0.247702
Zn3	Zn	0.942595	-0.319853	0.259205
Zn4	Zn	0.937564	-0.437035	0.388482
O5	O	0.998682	-0.380948	0.320856
O6	O	1.157257	-0.344572	0.364418
O7	O	1.039837	-0.425889	0.136395
O8	O	0.962383	-0.222403	0.280922
O9	O	1.153516	-0.430713	0.261316
O10	O	1.048515	-0.226058	0.375573
O11	O	0.957445	-0.336093	0.144847
O12	O	0.843826	-0.331206	0.281355
O13	O	0.953809	-0.422124	0.501255
O14	O	0.840130	-0.417299	0.376334
O15	O	1.043637	-0.339685	0.500927
O16	O	1.034959	-0.539516	0.261749
O17	O	0.948871	-0.535814	0.365179
C18	C	0.816541	-0.373166	0.330142
C19	C	0.738620	-0.369854	0.334133
C20	C	0.700064	-0.413075	0.282255
C21	C	0.626849	-0.409963	0.286015
C22	C	0.592190	-0.363627	0.341651
C23	C	0.630751	-0.320405	0.393534
C24	C	0.703965	-0.323521	0.389777
C25	C	0.371229	-0.351983	0.355688
C26	C	0.298010	-0.348869	0.359440
C27	C	0.294113	-0.438428	0.251921
C28	C	0.367329	-0.441536	0.248166
C29	C	0.405883	-0.398317	0.300052
C30	C	0.517352	-0.360444	0.345494
C31	C	0.480719	-0.401504	0.296212
C32	C	0.990835	-0.563104	0.312281
C33	C	0.987543	-0.641035	0.308636
C34	C	1.030807	-0.679488	0.356247
C35	C	1.027711	-0.752711	0.352824
C36	C	0.981353	-0.787481	0.301785
C37	C	0.938084	-0.749022	0.254173
C38	C	0.941177	-0.675800	0.257601
C39	C	0.969767	-1.008472	0.288972
C40	C	0.966679	-1.081700	0.285546
C41	C	1.056305	-1.085384	0.384198
C42	C	1.059397	-1.012160	0.387618
C43	C	1.016126	-0.973708	0.340009
C44	C	0.978188	-0.862327	0.298283
C45	C	1.019287	-0.898863	0.343516
C46	C	1.181534	-0.388760	0.311534
C47	C	1.259455	-0.392089	0.307562
C48	C	0.998730	-0.380897	0.531165
C49	C	0.998750	-0.380876	0.620786
C50	C	1.006578	-0.198080	0.329481
C51	C	1.009943	-0.120153	0.333157
C52	C	0.998677	-0.380949	0.111365
C53	C	0.998801	-0.380779	0.021747
C54	C	0.998786	-0.380799	0.948964
C55	C	0.998774	-0.380822	0.857655
C56	C	0.998768	-0.380838	0.784878
C57	C	0.998756	-0.380860	0.693563
H58	H	0.602526	-0.282681	0.438837
H59	H	0.728278	-0.450804	0.236947
O60	O	0.741314	-0.281467	0.440207
C61	C	0.695025	-0.239914	0.490133
H62	H	0.642927	-0.235223	0.459905
H63	H	0.718561	-0.185586	0.500359
H64	H	0.686157	-0.265330	0.550505
H65	H	0.934535	-0.977171	0.250205
O66	O	0.514459	-0.446551	0.242276
C67	C	0.554867	-0.493699	0.283790
H68	H	0.566917	-0.469510	0.345541
H69	H	0.605937	-0.505242	0.247853
H70	H	0.524423	-0.544467	0.291544
O71	O	1.064224	-0.865010	0.393141
C72	C	1.026072	-0.820971	0.449211
H73	H	0.973416	-0.807805	0.423946
H74	H	1.056793	-0.770663	0.460993
H75	H	1.017156	-0.848830	0.508035
O76	O	1.075762	-0.645743	0.405946
C77	C	1.059654	-0.662964	0.486237
H78	H	1.002795	-0.680751	0.492162
H79	H	1.067706	-0.615040	0.528027
H80	H	1.095435	-0.707025	0.503447
H81	H	0.900335	-0.777337	0.212620
O82	O	0.264315	-0.303780	0.413381
C83	C	0.223883	-0.256651	0.371870
H84	H	0.246110	-0.253185	0.307452
H85	H	0.225386	-0.202695	0.403719
H86	H	0.167462	-0.275962	0.370874
H87	H	0.489125	-0.322716	0.390792
H88	H	0.595460	-0.445157	0.243770
H89	H	1.097146	-0.983853	0.429178
H90	H	1.062947	-0.784017	0.391587
H91	H	1.091533	-1.116699	0.422960
H92	H	0.395543	-0.479267	0.202860
O93	O	0.921579	-1.115365	0.235950
C94	C	0.884060	-1.065726	0.194650
H95	H	0.883820	-1.013410	0.230241
H96	H	0.827935	-1.084584	0.187826
H97	H	0.910085	-1.059046	0.132487
H98	H	0.262715	-0.473615	0.209679
H99	H	0.402611	-0.316791	0.397939
H100	H	0.905946	-0.644492	0.218832
O101	O	0.933063	-0.896069	0.248793
C102	C	0.863936	-0.875239	0.270725
H103	H	0.861210	-0.854918	0.336259
H104	H	0.827274	-0.921953	0.263260
H105	H	0.847424	-0.832002	0.230391
