data_functionalizedCrystal
_audit_creation_method	'MofGen! by Chris Wilmer'
_symmetry_space_group_name_H-M	'P1'
_symmetry_Int_Tables_number	1
_symmetry_cell_setting	triclinic
loop_
_symmetry_equiv_pos_as_xyz
  x,y,z
_cell_length_a	14.044191
_cell_length_b	14.044220
_cell_length_c	9.130313
_cell_angle_alpha	89.994483
_cell_angle_beta	89.998938
_cell_angle_gamma	93.190327
loop_
_atom_site_label
_atom_site_type_symbol
_atom_site_fract_x
_atom_site_fract_y
_atom_site_fract_z
O1	O	1.277171	0.230200	-0.121735
O2	O	1.000499	0.221887	-0.121753
O3	O	1.134682	0.087707	-0.121730
O4	O	1.142988	0.364379	-0.121758
O5	O	1.134672	0.087702	0.121869
O6	O	1.000488	0.221882	0.121845
O7	O	1.277161	0.230195	0.121864
Cu8	Cu	1.138824	0.226038	0.144097
Cu9	Cu	1.138836	0.226044	-0.143987
O10	O	1.142977	0.364374	0.121840
C11	C	0.964872	0.218248	0.000044
C12	C	0.858728	0.207401	0.000037
C13	C	0.613270	0.264501	0.000046
C14	C	0.664395	0.187585	0.000051
C15	C	0.772532	0.198613	0.000044
C16	C	0.505123	0.253474	0.000054
C17	C	1.131041	0.052083	0.000070
C18	C	1.120197	-0.054060	0.000071
C19	C	1.100370	-0.248398	0.000048
C20	C	1.177285	-0.299526	0.000049
C21	C	1.166253	-0.407663	0.000037
C22	C	1.111400	-0.140252	0.000061
C23	C	1.312788	0.233834	0.000063
C24	C	1.418931	0.244681	0.000060
C25	C	1.146618	0.399998	0.000037
C26	C	1.157463	0.506142	0.000027
N27	N	1.138822	0.226034	0.346720
N28	N	1.138844	0.226041	-0.346609
C29	C	1.198262	0.166648	0.423382
C30	C	1.198271	0.166649	0.576719
C31	C	1.079397	0.285429	0.576718
C32	C	1.079384	0.285423	0.423384
H33	H	0.626952	0.113452	-0.000044
H34	H	0.650711	0.338628	0.000034
H35	H	1.031006	0.333784	0.639153
H36	H	1.251419	-0.262085	-0.000044
H37	H	1.246672	0.118290	0.639133
H38	H	1.026242	-0.285837	0.000040
H39	H	1.246659	0.118288	0.360966
H40	H	1.030976	0.333782	0.360961
