data_functionalizedCrystal
_audit_creation_method	'MofGen! by Chris Wilmer'
_symmetry_space_group_name_H-M	'P1'
_symmetry_Int_Tables_number	1
_symmetry_cell_setting	triclinic
loop_
_symmetry_equiv_pos_as_xyz
  x,y,z
_cell_length_a	10.723023
_cell_length_b	14.519709
_cell_length_c	9.798715
_cell_angle_alpha	90.004344
_cell_angle_beta	90.003242
_cell_angle_gamma	84.073846
loop_
_atom_site_label
_atom_site_type_symbol
_atom_site_fract_x
_atom_site_fract_y
_atom_site_fract_z
O1	O	1.655978	0.129344	0.113480
O2	O	2.155978	0.629344	0.613480
O3	O	1.292710	0.141726	0.113486
O4	O	1.792710	0.641726	0.613486
O5	O	1.483976	0.001346	0.113471
O6	O	1.983976	0.501346	0.613471
O7	O	1.464713	0.269724	0.113496
O8	O	1.964713	0.769724	0.613496
O9	O	1.483962	0.001345	-0.113511
O10	O	1.983962	0.501345	0.386489
O11	O	1.292696	0.141725	-0.113496
O12	O	1.792696	0.641725	0.386504
O13	O	1.655964	0.129343	-0.113502
O14	O	2.155964	0.629343	0.386498
Zn15	Zn	1.474328	0.135534	-0.149537
Zn16	Zn	1.974328	0.635534	0.350463
Zn17	Zn	1.474346	0.135535	0.149522
Zn18	Zn	1.974346	0.635535	0.649522
O19	O	1.464698	0.269723	-0.113486
O20	O	1.964698	0.769723	0.386514
C21	C	1.246212	0.140825	-0.000004
C22	C	1.746212	0.640825	0.499996
C23	C	1.107683	0.138129	-0.000002
C24	C	1.607683	0.638129	0.499998
C25	C	1.045914	0.136927	-0.117585
C26	C	1.545914	0.636927	0.382415
C27	C	0.902737	0.134141	-0.117585
C28	C	1.402737	0.634141	0.382415
C29	C	1.483071	-0.033019	-0.000020
C30	C	1.983071	0.466981	0.499980
C31	C	1.480381	-0.135414	-0.000021
C32	C	1.980381	0.364586	0.499979
C33	C	1.470477	-0.510360	0.000015
C34	C	1.970477	-0.010360	0.500015
C35	C	1.473227	-0.406038	0.000004
C36	C	1.973227	0.093962	0.500004
C37	C	1.475428	-0.322890	-0.000005
C38	C	1.975428	0.177110	0.499995
C39	C	1.478179	-0.218562	-0.000012
C40	C	1.978179	0.281438	0.499988
C41	C	1.702462	0.130245	-0.000008
C42	C	2.202462	0.630245	0.499992
C43	C	1.840992	0.132940	-0.000001
C44	C	2.340992	0.632940	0.499999
C45	C	1.465603	0.304088	0.000008
C46	C	1.965603	0.804088	0.500008
C47	C	1.468293	0.406483	0.000018
C48	C	1.968293	0.906483	0.500018
N49	N	1.474324	0.135533	-0.353637
N50	N	1.974324	0.635533	0.146363
C51	C	1.546589	0.189009	-0.421411
C52	C	2.046589	0.689009	0.078589
C53	C	1.546609	0.189008	-0.578573
C54	C	2.046609	0.689008	-0.078573
N55	N	1.474360	0.135530	0.353621
N56	N	1.974360	0.635530	0.853621
H57	H	1.054567	0.137094	0.100664
H58	H	1.554567	0.637094	0.600664
C59	C	1.306550	0.129084	-0.485577
C60	C	1.806550	0.629084	0.014423
C61	C	1.390823	0.073721	-0.567720
C62	C	1.890823	0.573721	-0.067720
H63	H	1.254982	0.090925	-0.437006
H64	H	1.754982	0.590925	0.062994
H65	H	1.255630	0.171234	-0.541332
H66	H	1.755630	0.671234	-0.041332
H67	H	1.351888	0.162630	-0.422667
H68	H	1.851888	0.662630	0.077333
H69	H	1.345485	0.040181	-0.630637
H70	H	1.845485	0.540181	-0.130637
H71	H	1.441749	0.031556	-0.511960
H72	H	1.941749	0.531556	-0.011960
H73	H	1.608471	0.234796	-0.636857
H74	H	2.108471	0.734796	-0.136857
H75	H	1.099031	0.137955	-0.218251
H76	H	1.599031	0.637955	0.281749
H77	H	1.412474	0.089746	-0.411965
H78	H	1.912474	0.589746	0.088035
H79	H	0.849617	0.133112	-0.218252
H80	H	1.349617	0.633112	0.281748
H81	H	1.608448	0.234789	-0.363082
H82	H	2.108448	0.734789	0.136918
C83	C	0.828199	0.132700	0.244631
C84	C	1.328199	0.632700	0.744631
C85	C	0.912679	0.134341	0.135911
C86	C	1.412679	0.634341	0.635911
H87	H	0.872464	0.133572	0.328536
H88	H	1.372464	0.633572	0.828536
H89	H	0.786828	0.078028	0.239555
H90	H	1.286828	0.578028	0.739555
H91	H	0.768024	0.185400	0.239547
H92	H	1.268024	0.685400	0.739547
H93	H	0.972849	0.081637	0.140989
H94	H	1.472849	0.581637	0.640989
H95	H	0.954071	0.189019	0.140990
H96	H	1.454071	0.689019	0.640990
