data_functionalizedCrystal
_audit_creation_method	'MofGen! by Chris Wilmer'
_symmetry_space_group_name_H-M	'P1'
_symmetry_Int_Tables_number	1
_symmetry_cell_setting	triclinic
loop_
_symmetry_equiv_pos_as_xyz
  x,y,z
_cell_length_a	12.811438
_cell_length_b	15.995292
_cell_length_c	11.892095
_cell_angle_alpha	93.891493
_cell_angle_beta	91.498957
_cell_angle_gamma	83.758331
loop_
_atom_site_label
_atom_site_type_symbol
_atom_site_fract_x
_atom_site_fract_y
_atom_site_fract_z
O1	O	1.389171	0.115542	0.048437
O2	O	1.085808	0.126038	0.017331
O3	O	1.245813	-0.001023	0.033736
O4	O	1.229165	0.242603	0.032032
O5	O	1.232473	0.009554	0.220376
O6	O	1.072467	0.136616	0.203971
O7	O	1.375830	0.126119	0.235076
Zn8	Zn	1.222030	0.133047	0.249157
Zn9	Zn	1.239607	0.119111	0.003251
O10	O	1.215824	0.253181	0.218672
C11	C	1.040318	0.130414	0.106671
C12	C	0.924649	0.127682	0.094810
C13	C	1.238466	-0.026937	0.126983
C14	C	1.236435	-0.119909	0.126767
C15	C	0.768887	0.118067	-0.023631
C16	C	0.877569	0.120633	-0.012496
C17	C	0.863039	0.132165	0.190990
C18	C	0.754357	0.129599	0.179856
C19	C	0.707285	0.122552	0.072542
C20	C	0.598599	0.119992	0.061408
C21	C	0.584072	0.131519	0.264893
C22	C	0.692754	0.134084	0.276028
C23	C	1.228966	-0.457717	0.126011
C24	C	1.344424	-0.433303	0.138270
C25	C	1.346649	-0.336631	0.138070
C26	C	1.232672	-0.290126	0.126387
C27	C	1.182552	-0.325806	0.013890
C28	C	1.181168	-0.422615	0.013662
C29	C	1.163638	-0.410465	0.225664
C30	C	1.167817	-0.313853	0.227508
C31	C	1.234761	-0.195411	0.126595
C32	C	1.226875	-0.552432	0.125795
C33	C	1.421320	0.121744	0.145734
C34	C	1.536989	0.124475	0.157588
C35	C	1.223172	0.279094	0.125422
C36	C	1.225203	0.372066	0.125631
N37	N	1.210042	0.142558	0.416982
N38	N	1.251604	0.109593	-0.164573
C39	C	1.335025	0.043364	0.666443
C40	C	1.326653	0.050018	0.783927
C41	C	1.184921	0.162516	0.769434
C42	C	1.193293	0.155862	0.651951
C43	C	1.268349	0.096285	0.600460
C44	C	1.276725	0.089635	0.482975
C45	C	1.134989	0.202128	0.468483
C46	C	1.126616	0.208782	0.585967
H47	H	0.560275	0.114258	-0.025973
H48	H	1.396145	-0.005140	0.624520
N49	N	1.062877	-0.273010	0.224857
N50	N	0.986809	-0.315962	0.217332
H51	H	0.912694	-0.287111	0.215444
H52	H	1.065504	0.257287	0.627904
H53	H	1.226850	-0.453573	-0.061909
H54	H	1.123805	0.211016	0.811373
H55	H	1.383475	-0.456553	0.219265
N56	N	0.521143	0.136084	0.363136
N57	N	0.538025	0.081335	0.433488
H58	H	0.493579	0.084560	0.502869
N59	N	0.720814	0.110862	-0.133250
N60	N	0.747437	0.048395	-0.199148
H61	H	0.713487	0.043305	-0.276570
H62	H	1.394124	-0.466215	0.066806
N63	N	0.940481	0.116044	-0.110745
N64	N	0.898434	0.109748	-0.206549
H65	H	0.942865	0.106505	-0.275943
H66	H	1.080699	0.245222	0.414746
H67	H	0.901386	0.137893	0.278360
N68	N	1.394764	-0.004049	0.851311
N69	N	1.461766	-0.057239	0.805317
H70	H	1.509872	-0.095429	0.852906
N71	N	0.740866	0.141297	0.385627
N72	N	0.790275	0.202913	0.413534
H73	H	0.824256	0.208012	0.490939
H74	H	1.096836	-0.438229	0.000153
H75	H	1.397606	-0.322139	0.066202
N76	N	1.396526	-0.306810	0.239729
N77	N	1.429934	-0.357417	0.311321
H78	H	1.465166	-0.336361	0.383120
N79	N	1.077690	-0.287091	-0.001857
N80	N	1.038635	-0.232639	0.069827
H81	H	0.964575	-0.205294	0.058709
N82	N	1.239969	-0.305808	-0.080448
N83	N	1.317808	-0.265303	-0.065106
H84	H	1.358365	-0.251181	-0.131729
H85	H	1.194233	-0.433636	0.310179
H86	H	1.204224	-0.290427	0.310663
H87	H	1.078579	-0.425208	0.217668
N88	N	1.353337	0.028730	0.430387
N89	N	1.412819	-0.018549	0.489316
H90	H	1.466904	-0.061586	0.452177
