data_functionalizedCrystal
_audit_creation_method	'MofGen! by Chris Wilmer'
_symmetry_space_group_name_H-M	'P1'
_symmetry_Int_Tables_number	1
_symmetry_cell_setting	triclinic
loop_
_symmetry_equiv_pos_as_xyz
  x,y,z
_cell_length_a	23.096457
_cell_length_b	14.560438
_cell_length_c	23.096457
_cell_angle_alpha	90.005949
_cell_angle_beta	59.999299
_cell_angle_gamma	60.000457
loop_
_atom_site_label
_atom_site_type_symbol
_atom_site_fract_x
_atom_site_fract_y
_atom_site_fract_z
Zr1	Zr	0.633737	0.884768	-0.075955
O2	O	0.754539	0.738098	-0.168408
O3	O	0.512946	0.929727	-0.047617
O4	O	0.633752	0.929697	-0.168412
O5	O	0.633717	0.738156	0.047677
O6	O	0.633751	1.080837	-0.168411
O7	O	0.633733	0.738128	-0.047613
O8	O	0.417651	1.080891	0.047670
O9	O	0.849817	0.738102	-0.168404
O10	O	0.562624	1.061699	-0.035526
O11	O	0.562613	0.948926	0.035587
O12	O	0.704846	0.948890	-0.106634
O13	O	0.704835	0.836117	-0.035521
Zr14	Zr	0.633710	1.125863	0.076022
Zr15	Zr	0.633735	1.125819	-0.075953
Zr16	Zr	0.633711	0.884812	0.076021
Zr17	Zr	0.785694	0.884774	-0.075948
Zr18	Zr	0.481752	1.125857	0.076016
O19	O	0.754500	1.080904	0.047684
O20	O	0.754537	1.080842	-0.168405
O21	O	0.754503	0.738160	0.047682
O22	O	0.512907	1.272533	0.168475
O23	O	0.512944	1.272471	-0.047614
O24	O	0.512909	0.929789	0.168473
O25	O	0.633730	1.272475	-0.047609
O26	O	0.633694	1.080934	0.168479
O27	O	0.633695	0.929794	0.168478
O28	O	0.633714	1.272503	0.047680
O29	O	0.849816	0.929705	-0.168402
O30	O	0.417630	1.080926	0.168470
O31	O	0.417629	1.272529	0.168471
O32	O	0.417650	1.272494	0.047671
O33	O	0.849797	0.738137	-0.047604
O34	O	0.849795	0.929740	-0.047602
O35	O	0.562600	1.061741	0.106701
O36	O	0.562611	1.174514	0.035589
O37	O	0.704834	1.061705	-0.035520
O38	O	0.704822	0.948931	0.035593
C39	C	0.443648	1.005308	0.000026
C40	C	0.379138	1.005305	0.000023
C41	C	0.633725	0.703797	0.000032
C42	C	0.633726	0.601465	0.000031
C43	C	0.348843	1.064164	-0.037100
C44	C	0.288220	1.064175	-0.037094
C45	C	0.257907	1.005305	0.000025
C46	C	0.288206	0.946444	0.037156
C47	C	0.348822	0.946444	0.037155
N48	N	0.195513	0.909486	-0.005123
N49	N	0.137932	0.909489	-0.005126
C50	C	0.075275	1.005304	0.000032
N51	N	0.072382	1.101116	0.005178
N52	N	0.129970	1.101111	0.005177
C53	C	0.192180	1.005300	0.000031
C54	C	-0.020754	1.064180	-0.037087
C55	C	-0.081381	1.064195	-0.037076
C56	C	-0.081389	0.946452	0.037169
C57	C	-0.020769	0.946449	0.037163
C58	C	0.009548	1.005310	0.000031
C59	C	0.633736	0.553373	-0.052466
C60	C	0.633731	0.457225	-0.052462
C61	C	0.633708	0.457267	0.052539
C62	C	0.633707	0.553417	0.052537
C63	C	0.823799	1.005323	0.000042
C64	C	0.888309	1.005326	0.000044
C65	C	0.633755	1.005261	-0.190064
C66	C	0.633766	1.005242	-0.254582
C67	C	0.633721	1.306834	0.000036
C68	C	0.633721	1.409166	0.000037
C69	C	0.633767	1.088509	-0.284875
C70	C	0.633751	1.088534	-0.345483
C71	C	0.633750	1.005275	-0.375803
C72	C	0.633744	0.922000	-0.345500
C73	C	0.633752	0.921984	-0.284890
N74	N	0.680094	0.906553	-0.494160
N75	N	0.680088	0.906573	-0.551739
C76	C	0.633722	1.005321	-0.558419
N77	N	0.587374	1.104054	-0.505350
N78	N	0.587384	1.104034	-0.447768
C79	C	0.633740	1.005284	-0.441525
C80	C	0.633704	1.088622	-0.654429
C81	C	0.633683	1.088648	-0.715035
C82	C	0.633684	0.922105	-0.715056
C83	C	0.633698	0.922088	-0.654447
C84	C	0.633711	1.005346	-0.624139
C85	C	0.633691	1.005370	0.190132
C86	C	0.633680	1.005389	0.254649
C87	C	0.443646	1.306826	0.000028
C88	C	0.379135	1.409156	0.000026
C89	C	0.443616	1.005363	0.190124
C90	C	0.379095	1.005379	0.254639
C91	C	0.443614	1.306881	0.190126
C92	C	0.379092	1.409230	0.254641
C93	C	0.823833	0.703750	-0.190058
C94	C	0.888354	0.601401	-0.254574
C95	C	0.823800	0.703805	0.000040
C96	C	0.888311	0.601475	0.000042
C97	C	0.823831	1.005268	-0.190056
C98	C	0.888352	1.005252	-0.254571
C99	C	0.348847	1.398323	-0.037102
C100	C	0.288241	1.494464	-0.037118
C101	C	0.257920	1.601436	-0.000002
C102	C	0.288214	1.612267	0.037127
C103	C	0.348824	1.516128	0.037139
C104	C	0.348788	1.064274	0.322063
C105	C	0.288173	1.064285	0.382687
C106	C	0.257860	1.005406	0.375886
C107	C	0.288173	0.946503	0.308454
C108	C	0.348791	0.946487	0.247832
C109	C	0.348798	1.516171	0.247818
C110	C	0.288182	1.612347	0.308432
C111	C	0.257857	1.601581	0.375867
C112	C	0.288157	1.494628	0.382689
C113	C	0.348776	1.398454	0.322076
C114	C	0.918655	0.494460	-0.247751
C115	C	0.979291	0.398284	-0.308364
C116	C	1.009619	0.409050	-0.375800
C117	C	0.979315	0.516003	-0.382621
C118	C	0.918685	0.612177	-0.322009
C119	C	0.918605	0.612308	0.037163
C120	C	0.979228	0.516167	0.037163
C121	C	1.009551	0.409195	0.000044
C122	C	0.979254	0.398364	-0.037082
C123	C	0.918637	0.494503	-0.037085
C124	C	0.918645	1.064143	-0.247747
C125	C	0.979261	1.064149	-0.308360
C126	C	1.009587	1.005259	-0.375796
C127	C	0.979288	0.946366	-0.382618
C128	C	0.918669	0.946367	-0.322006
H129	H	0.373523	1.112096	-0.067332
H130	H	0.263549	1.112107	-0.067324
F131	F	1.011576	0.883686	-0.454395
H132	H	1.003954	0.311208	-0.302796
F133	F	0.886438	0.725989	-0.329281
H134	H	0.893963	1.112098	-0.192843
H135	H	1.003886	0.525008	0.067398
F136	F	1.074147	0.306682	-0.440304
H137	H	0.263583	1.485623	-0.067353
F138	F	1.011600	0.527444	-0.454397
F139	F	0.633675	0.833501	-0.747319
H140	H	0.893921	0.699401	0.067395
H141	H	0.373488	0.898511	0.067384
F142	F	0.255903	0.883845	0.301227
F143	F	0.886441	0.883674	-0.329280
H144	H	1.058910	0.330921	0.000052
H145	H	0.633694	0.418135	0.095287
F146	F	0.011477	0.883799	0.076673
H147	H	0.633696	0.592578	0.095290
F148	F	0.633752	1.177163	-0.377728
H149	H	0.373534	1.311229	-0.067336
H150	H	0.263457	1.485879	0.437603
H151	H	0.373459	0.898530	0.192934
F152	F	0.633740	0.406048	-0.108335
F153	F	0.633778	1.177122	-0.252618
H154	H	0.263521	0.898512	0.067379
H155	H	0.633750	0.592492	-0.095219
F156	F	0.381066	1.527655	0.176054
F157	F	0.255934	1.726125	0.076629
F158	F	1.011533	0.284506	-0.076582
F159	F	0.886397	0.482957	-0.076594
H160	H	0.893965	0.485672	-0.192847
F161	F	0.011508	1.126832	-0.076600
F162	F	0.381007	1.284642	0.329349
H163	H	1.003924	1.112105	-0.302791
H164	H	-0.106052	1.112132	-0.067302
F165	F	-0.113646	0.883798	0.076674
F166	F	0.633752	0.833356	-0.252648
F167	F	0.633714	1.177237	-0.622170
F168	F	0.633739	0.833393	-0.377768
F169	F	0.633677	1.177282	-0.747273
H170	H	0.633702	0.854281	-0.629783
H171	H	0.208568	1.679710	-0.000016
H172	H	0.373476	1.524964	0.067377
F173	F	0.193339	1.703949	0.440371
H174	H	1.058947	1.005267	-0.425144
H175	H	0.373462	1.112221	0.327614
F176	F	0.193343	1.005435	0.440413
F177	F	0.255921	1.126984	0.454445
H178	H	0.263518	1.699423	0.302865
