data_functionalizedCrystal
_audit_creation_method	'MofGen! by Chris Wilmer'
_symmetry_space_group_name_H-M	'P1'
_symmetry_Int_Tables_number	1
_symmetry_cell_setting	triclinic
loop_
_symmetry_equiv_pos_as_xyz
  x,y,z
_cell_length_a	17.038272
_cell_length_b	27.732048
_cell_length_c	16.098538
_cell_angle_alpha	92.695138
_cell_angle_beta	87.069734
_cell_angle_gamma	86.877106
loop_
_atom_site_label
_atom_site_type_symbol
_atom_site_fract_x
_atom_site_fract_y
_atom_site_fract_z
O1	O	1.039664	0.102899	-0.069167
O2	O	1.539664	0.602899	0.430833
O3	O	0.812054	0.101233	-0.069192
O4	O	1.312054	0.601233	0.430808
O5	O	0.932928	0.031993	-0.069163
O6	O	1.432928	0.531993	0.430837
O7	O	0.918791	0.172139	-0.069196
O8	O	1.418791	0.672139	0.430804
O9	O	0.925867	0.036021	0.069348
O10	O	1.425867	0.536021	0.569348
O11	O	0.804994	0.105261	0.069320
O12	O	1.304994	0.605261	0.569320
O13	O	1.032604	0.106927	0.069344
O14	O	1.532604	0.606927	0.569344
Zn15	Zn	0.917678	0.106733	0.091323
Zn16	Zn	1.417678	0.606733	0.591323
Zn17	Zn	0.926980	0.101427	-0.091171
Zn18	Zn	1.426980	0.601427	0.408829
O19	O	0.911730	0.176167	0.069315
O20	O	1.411730	0.676167	0.569315
C21	C	0.779414	0.101731	0.000061
C22	C	1.279414	0.601731	0.500061
C23	C	0.692674	0.097211	0.000053
C24	C	1.192674	0.597211	0.500053
C25	C	0.642076	0.138713	0.000043
C26	C	1.142076	0.638713	0.500043
C27	C	0.560575	0.134463	0.000056
C28	C	1.060575	0.634463	0.500056
C29	C	0.529672	0.088710	0.000072
C30	C	1.029672	0.588710	0.500072
C31	C	0.580276	0.047205	0.000083
C32	C	1.080276	0.547205	0.500083
C33	C	0.661776	0.051455	0.000077
C34	C	1.161776	0.551455	0.500077
C35	C	0.284088	0.073694	0.000098
C36	C	0.784088	0.573694	0.500098
C37	C	0.202582	0.069446	0.000102
C38	C	0.702582	0.569446	0.500102
C39	C	0.182886	0.156706	0.000076
C40	C	0.682886	0.656706	0.500076
C41	C	0.264389	0.160952	0.000064
C42	C	0.764389	0.660952	0.500064
C43	C	0.314985	0.119446	0.000080
C44	C	0.814985	0.619446	0.500080
C45	C	0.446365	0.084365	0.000082
C46	C	0.946365	0.584365	0.500082
C47	C	0.398290	0.123792	0.000076
C48	C	0.898290	0.623792	0.500076
C49	C	0.929100	0.015987	0.000095
C50	C	1.429100	0.515987	0.500095
C51	C	0.928206	-0.037709	0.000102
C52	C	1.428206	0.462291	0.500102
C53	C	0.994011	-0.373515	0.000066
C54	C	1.494011	0.126485	0.500066
C55	C	0.990696	-0.575327	0.000054
C56	C	1.490696	-0.075327	0.500054
O57	O	1.050870	-0.603831	0.000024
O58	O	1.550870	-0.103831	0.500024
N59	N	0.919023	-0.597729	0.000047
N60	N	1.419023	-0.097729	0.500047
C61	C	0.848173	-0.569676	0.000038
C62	C	1.348173	-0.069676	0.500038
O63	O	0.787135	-0.593361	0.000023
O64	O	1.287135	-0.093361	0.500023
C65	C	0.851490	-0.367865	0.000044
C66	C	1.351490	0.132135	0.500044
C67	C	0.923167	-0.345465	0.000059
C68	C	1.423167	0.154535	0.500059
C69	C	1.065683	-0.351115	0.000080
C70	C	1.565683	0.148885	0.500080
C71	C	1.066511	-0.300665	0.000088
C72	C	1.566511	0.199335	0.500088
C73	C	0.995667	-0.272615	0.000081
C74	C	1.495667	0.227385	0.500081
C75	C	0.923995	-0.295015	0.000067
C76	C	1.423995	0.204985	0.500067
C77	C	0.780641	-0.339813	0.000029
C78	C	1.280641	0.160187	0.500029
C79	C	0.781477	-0.289357	0.000028
C80	C	1.281477	0.210643	0.500028
C81	C	0.853155	-0.266957	0.000043
C82	C	1.353155	0.233043	0.500043
C83	C	0.853979	-0.216515	0.000067
C84	C	1.353979	0.283485	0.500067
N85	N	0.925652	-0.194113	0.000074
N86	N	1.425652	0.305887	0.500074
C87	C	0.996496	-0.222163	0.000081
C88	C	1.496496	0.277837	0.500081
C89	C	0.846437	-0.675629	0.000036
C90	C	1.346437	-0.175629	0.500036
C91	C	0.845608	-0.726081	0.000036
C92	C	1.345608	-0.226081	0.500036
C93	C	0.988131	-0.731729	0.000051
C94	C	1.488131	-0.231729	0.500051
C95	C	0.988959	-0.681276	0.000057
C96	C	1.488959	-0.181276	0.500057
C97	C	0.918111	-0.653227	0.000043
C98	C	1.418111	-0.153227	0.500043
C99	C	0.998229	-0.116214	0.000098
C100	C	1.498229	0.383786	0.500098
C101	C	0.999051	-0.065759	0.000109
C102	C	1.499051	0.434241	0.500109
C103	C	0.856528	-0.060116	0.000090
C104	C	1.356528	0.439884	0.500090
C105	C	0.855706	-0.110566	0.000083
C106	C	1.355706	0.389434	0.500083
C107	C	0.926563	-0.138614	0.000084
C108	C	1.426563	0.361386	0.500084
O109	O	0.793838	-0.187981	0.000088
O110	O	1.293838	0.312019	0.500088
O111	O	1.057527	-0.198469	0.000077
O112	O	1.557527	0.301531	0.500077
C113	C	0.993184	-0.423965	0.000059
C114	C	1.493184	0.076035	0.500059
C115	C	0.921512	-0.446365	0.000044
C116	C	1.421512	0.053635	0.500044
C117	C	0.850668	-0.418315	0.000037
C118	C	1.350668	0.081685	0.500037
C119	C	0.920682	-0.496818	0.000044
C120	C	1.420682	0.003182	0.500044
C121	C	0.991526	-0.524868	0.000051
C122	C	1.491526	-0.024868	0.500051
C123	C	1.063200	-0.502465	0.000058
C124	C	1.563200	-0.002465	0.500058
C125	C	1.064028	-0.452015	0.000065
C126	C	1.564028	0.047985	0.500065
C127	C	0.778994	-0.440718	0.000030
C128	C	1.278994	0.059282	0.500030
C129	C	0.778172	-0.491168	0.000024
C130	C	1.278172	0.008832	0.500024
C131	C	0.849016	-0.519218	0.000031
C132	C	1.349016	-0.019218	0.500031
C133	C	1.065245	0.106428	0.000089
C134	C	1.565245	0.606428	0.500089
C135	C	1.151985	0.110949	0.000092
C136	C	1.651985	0.610949	0.500092
C137	C	0.915558	0.192173	0.000055
C138	C	1.415558	0.692173	0.500055
C139	C	0.916452	0.245869	0.000043
C140	C	1.416452	0.745869	0.500043
N141	N	0.911335	0.110355	0.215871
N142	N	1.411335	0.610355	0.715871
N143	N	0.933330	0.097802	-0.215719
N144	N	1.433330	0.597802	0.284281
C145	C	0.962657	0.080979	0.259468
C146	C	1.462657	0.580979	0.759468
C147	C	0.958226	0.083517	0.346656
C148	C	1.458226	0.583517	0.846656
C149	C	0.902478	0.115434	0.390245
C150	C	1.402478	0.615434	0.890245
C151	C	0.851150	0.144812	0.346642
C152	C	1.351150	0.644812	0.846642
C153	C	0.855577	0.142270	0.259456
C154	C	1.355577	0.642270	0.759456
C155	C	0.886429	0.124638	0.653492
C156	C	1.386429	0.624638	1.153492
C157	C	0.882008	0.127178	0.740684
C158	C	1.382008	0.627178	1.240684
C159	C	0.989084	0.065882	0.740692
C160	C	1.489084	0.565882	1.240692
C161	C	0.993509	0.063346	0.653504
C162	C	1.493509	0.563346	1.153504
C163	C	0.942179	0.092721	0.609908
C164	C	1.442179	0.592721	1.109908
C165	C	0.897950	0.118031	0.479365
C166	C	1.397950	0.618031	0.979365
C167	C	0.946704	0.090122	0.520790
C168	C	1.446704	0.590122	1.020790
H169	H	0.555109	0.009952	0.000108
H170	H	1.055109	0.509952	0.500108
C171	C	0.127233	0.202359	0.000062
C172	C	0.627233	0.702359	0.500062
H173	H	0.157311	0.230215	0.000046
H174	H	0.657311	0.730215	0.500046
H175	H	0.092573	0.203921	0.048365
H176	H	0.592573	0.703921	0.548365
H177	H	0.097488	0.201109	-0.048245
H178	H	0.597488	0.701109	0.451755
H179	H	1.120883	-0.525312	0.000067
H180	H	1.620883	-0.025312	0.500067
C181	C	0.799127	0.174584	0.211495
C182	C	1.299127	0.674584	0.711495
H183	H	0.809742	0.168497	0.153327
H184	H	1.309742	0.668497	0.653327
H185	H	0.806493	0.207597	0.225766
H186	H	1.306493	0.707597	0.725766
H187	H	0.746311	0.167586	0.225794
H188	H	1.246311	0.667586	0.725794
C189	C	0.504921	0.180116	0.000043
C190	C	1.004921	0.680116	0.500043
H191	H	0.534998	0.207973	0.000022
H192	H	1.034998	0.707973	0.500022
H193	H	0.470264	0.181680	0.048348
H194	H	0.970264	0.681680	0.548348
H195	H	0.475173	0.178865	-0.048262
H196	H	0.975173	0.678865	0.451738
C197	C	0.836602	0.153122	0.527313
C198	C	1.336602	0.653122	1.027313
H199	H	0.806657	0.170248	0.488864
H200	H	1.306657	0.670248	0.988864
H201	H	0.862712	0.175394	0.561332
H202	H	1.362712	0.675394	1.061332
H203	H	0.802569	0.135361	0.561316
H204	H	1.302569	0.635361	1.061316
H205	H	0.325275	0.039897	0.000111
H206	H	0.825275	0.539897	0.500111
H207	H	1.000016	0.059596	0.382153
H208	H	1.500016	0.559596	0.882153
C209	C	0.789803	0.179905	0.394584
C210	C	1.289803	0.679905	0.894584
H211	H	0.759860	0.197029	0.356129
H212	H	1.259860	0.697029	0.856129
H213	H	0.815917	0.202179	0.428595
H214	H	1.315917	0.702179	0.928595
H215	H	0.755767	0.162150	0.428594
H216	H	1.255767	0.662150	0.928594
C217	C	0.676066	0.189041	0.000024
C218	C	1.176066	0.689041	0.500024
H219	H	0.731851	0.185630	0.000013
H220	H	1.231851	0.685630	0.500013
H221	H	0.656207	0.207676	0.048321
H222	H	1.156207	0.707676	0.548321
H223	H	0.661115	0.204863	-0.048289
H224	H	1.161115	0.704863	0.451711
H225	H	0.289543	0.198208	0.000042
H226	H	0.789543	0.698208	0.500042
C227	C	1.008025	0.055015	0.472849
C228	C	1.508025	0.555015	0.972849
H229	H	1.037958	0.037880	0.511298
H230	H	1.537958	0.537880	1.011298
H231	H	1.042063	0.072754	0.438823
H232	H	1.542063	0.572754	0.938823
H233	H	0.981880	0.032744	0.438853
H234	H	1.481880	0.532744	0.938853
H235	H	0.702973	0.017659	0.000084
H236	H	1.202973	0.517659	0.500084
C237	C	0.412374	0.034038	0.000089
C238	C	0.912374	0.534038	0.500089
H239	H	0.454178	0.009926	0.000095
H240	H	0.954178	0.509926	0.500095
H241	H	0.383442	0.029166	-0.048209
H242	H	0.883442	0.529166	0.451791
H243	H	0.378537	0.031972	0.048401
H244	H	0.878537	0.531972	0.548401
H245	H	0.844636	0.148557	0.618003
H246	H	1.344636	0.648557	1.118003
H247	H	0.788740	-0.652796	0.000025
H248	H	1.288740	-0.152796	0.500025
C249	C	0.168591	0.019116	0.000121
C250	C	0.668591	0.519116	0.500121
H251	H	0.210396	-0.004995	0.000136
H252	H	0.710396	0.495005	0.500136
H253	H	0.139665	0.014239	-0.048180
H254	H	0.639665	0.514239	0.451820
H255	H	0.134750	0.017053	0.048430
H256	H	0.634750	0.517053	0.548430
H257	H	0.719799	-0.509401	0.000019
H258	H	1.219799	-0.009401	0.500019
C259	C	1.077897	-0.041119	0.000126
C260	C	1.577897	0.458881	0.500126
H261	H	1.068248	-0.007054	0.000138
H262	H	1.568248	0.492946	0.500138
H263	H	1.109505	-0.051948	-0.048172
H264	H	1.609505	0.448052	0.451828
H265	H	1.104573	-0.049152	0.048438
H266	H	1.604573	0.450848	0.548438
C267	C	1.076170	-0.147059	0.000106
C268	C	1.576170	0.352941	0.500106
H269	H	1.118967	-0.126487	0.000123
H270	H	1.618967	0.373513	0.500123
H271	H	1.081282	-0.168259	-0.048196
H272	H	1.581282	0.331741	0.451804
H273	H	1.076347	-0.165457	0.048414
H274	H	1.576347	0.334543	0.548414
C275	C	1.145358	-0.276032	0.000089
C276	C	1.645358	0.223968	0.500089
H277	H	1.187425	-0.299969	0.000082
H278	H	1.687425	0.200031	0.500082
H279	H	1.146195	-0.255066	0.048388
H280	H	1.646195	0.244934	0.548388
H281	H	1.151104	-0.257871	-0.048221
H282	H	1.651104	0.242129	0.451779
H283	H	1.123376	-0.373948	0.000083
H284	H	1.623376	0.126052	0.500083
C285	C	1.045536	0.033567	0.788645
C286	C	1.545536	0.533567	1.288645
H287	H	1.079374	0.014196	0.750197
H288	H	1.579374	0.514196	1.250197
H289	H	1.015942	0.013281	0.822669
H290	H	1.515942	0.513281	1.322669
H291	H	1.076132	0.053287	0.822644
H292	H	1.576132	0.553287	1.322644
C293	C	1.067804	-0.656640	0.000066
C294	C	1.567804	-0.156640	0.500066
H295	H	1.109874	-0.680576	0.000066
H296	H	1.609874	-0.180576	0.500066
H297	H	1.068633	-0.635674	0.048366
H298	H	1.568633	-0.135674	0.548366
H299	H	1.073555	-0.638480	-0.048244
H300	H	1.573555	-0.138480	0.451756
H301	H	0.836608	0.153170	0.776170
H302	H	1.336608	0.653170	1.276170
H303	H	0.721303	-0.417884	0.000023
H304	H	1.221303	0.082116	0.500023
C305	C	1.066058	-0.762590	0.000046
C306	C	1.566058	-0.262590	0.500046
H307	H	1.055293	-0.795845	0.000034
H308	H	1.555293	-0.295845	0.500034
H309	H	1.093026	-0.754089	0.048344
H310	H	1.593026	-0.254089	0.548344
H311	H	1.097926	-0.756884	-0.048266
H312	H	1.597926	-0.256884	0.451734
H313	H	1.038904	0.037356	0.618016
H314	H	1.538904	0.537356	1.118016
H315	H	0.722274	-0.358042	0.000011
H316	H	1.222274	0.141958	0.500011
C317	C	0.766763	-0.750716	0.000026
C318	C	1.266763	-0.250716	0.500026
H319	H	0.724694	-0.726780	0.000014
H320	H	1.224694	-0.226780	0.500014
H321	H	0.761007	-0.768880	0.048325
H322	H	1.261007	-0.268880	0.548325
H323	H	0.765940	-0.771678	-0.048285
H324	H	1.265940	-0.271678	0.451715
C325	C	0.703541	-0.258506	0.000016
C326	C	1.203541	0.241494	0.500016
H327	H	0.660739	-0.279075	0.000013
H328	H	1.160739	0.220925	0.500013
H329	H	0.703363	-0.240105	-0.048283
H330	H	1.203363	0.259895	0.451717
H331	H	0.698435	-0.237309	0.048327
H332	H	1.198435	0.262691	0.548327
H333	H	1.008056	0.054990	0.223984
H334	H	1.508056	0.554990	0.723984
C335	C	0.776863	-0.135207	0.000064
C336	C	1.276863	0.364793	0.500064
H337	H	0.734791	-0.111274	0.000056
H338	H	1.234791	0.388726	0.500056
H339	H	0.771108	-0.153377	0.048356
H340	H	1.271108	0.346623	0.548356
H341	H	0.776047	-0.156165	-0.048254
H342	H	1.276047	0.343835	0.451746
C343	C	0.778606	-0.029255	0.000077
C344	C	1.278606	0.470745	0.500077
H345	H	0.789372	0.004000	0.000074
H346	H	1.289372	0.504000	0.500074
H347	H	0.746719	-0.034959	0.048371
H348	H	1.246719	0.465041	0.548371
H349	H	0.751660	-0.037761	-0.048239
H350	H	1.251660	0.462239	0.451761
C351	C	1.142874	-0.427382	0.000074
C352	C	1.642874	0.072618	0.500074
H353	H	1.184942	-0.451319	0.000069
H354	H	1.684942	0.048681	0.500069
H355	H	1.143706	-0.406417	0.048375
H356	H	1.643706	0.093583	0.548375
H357	H	1.148625	-0.409220	-0.048235
H358	H	1.648625	0.090780	0.451765
H359	H	0.423454	0.161044	0.000068
H360	H	0.923454	0.661044	0.500068
