data_functionalizedCrystal
_audit_creation_method	'MofGen! by Chris Wilmer'
_symmetry_space_group_name_H-M	'P1'
_symmetry_Int_Tables_number	1
_symmetry_cell_setting	triclinic
loop_
_symmetry_equiv_pos_as_xyz
  x,y,z
_cell_length_a	12.837932
_cell_length_b	12.837942
_cell_length_c	9.130313
_cell_angle_alpha	89.998683
_cell_angle_beta	90.003263
_cell_angle_gamma	94.829322
loop_
_atom_site_label
_atom_site_type_symbol
_atom_site_fract_x
_atom_site_fract_y
_atom_site_fract_z
O1	O	1.402336	0.272141	0.121802
O2	O	1.099202	0.258696	0.121804
O3	O	1.244047	0.113852	0.121794
O4	O	1.257490	0.416985	0.121812
O5	O	1.244037	0.113862	-0.121805
O6	O	1.099192	0.258707	-0.121795
O7	O	1.402325	0.272152	-0.121797
Cu8	Cu	1.250758	0.265430	-0.144038
Cu9	Cu	1.250770	0.265418	0.144045
O10	O	1.257480	0.416996	-0.121787
C11	C	1.060127	0.254160	0.000005
C12	C	0.943712	0.240614	0.000005
C13	C	1.239501	0.074788	-0.000005
C14	C	1.225956	-0.041627	-0.000002
C15	C	0.782686	0.127402	-0.000004
C16	C	0.892069	0.140122	-0.000003
C17	C	0.885965	0.328393	0.000008
C18	C	0.776582	0.315673	0.000006
C19	C	0.724947	0.215174	0.000003
C20	C	0.615562	0.202455	0.000012
C21	C	0.609460	0.390725	0.000012
C22	C	0.718843	0.403445	0.000013
C23	C	1.388786	-0.266500	0.000027
C24	C	1.376064	-0.375883	0.000030
C25	C	1.187793	-0.369777	0.000016
C26	C	1.200514	-0.260394	0.000013
C27	C	1.301014	-0.208760	0.000017
C28	C	1.313734	-0.099375	0.000004
C29	C	1.125464	-0.093271	0.000000
C30	C	1.112742	-0.202654	0.000003
C31	C	1.441400	0.276688	0.000005
C32	C	1.557815	0.290233	0.000014
C33	C	1.262027	0.456060	0.000015
C34	C	1.275571	0.572475	0.000022
N35	N	1.250757	0.265439	-0.346661
C36	C	1.181012	0.195613	-0.576666
C37	C	1.181003	0.195628	-0.423329
C38	C	1.320530	0.335231	-0.423338
C39	C	1.320543	0.335209	-0.576672
C40	C	1.100454	0.115017	-0.576660
C41	C	1.100445	0.115033	-0.423324
N42	N	1.250778	0.265401	0.346668
H43	H	0.573523	0.120623	0.000015
H44	H	1.053994	-0.046247	-0.000020
Cl45	Cl	0.964653	0.029774	-0.000016
H46	H	1.395566	-0.057336	0.000001
H47	H	1.024648	0.140784	-0.624249
H48	H	1.377363	0.392028	-0.639087
Cl49	Cl	1.408230	0.422984	-0.326954
H50	H	1.118776	0.034845	-0.618240
H51	H	1.020266	0.133328	-0.381735
Cl52	Cl	0.717769	0.001064	-0.000000
Cl53	Cl	0.950896	0.454724	0.000011
H54	H	0.760900	0.485269	0.000011
H55	H	1.447538	-0.422891	0.000043
H56	H	0.562437	0.462196	0.000018
H57	H	1.470616	-0.224459	0.000016
H58	H	1.030918	-0.244710	0.000006
H59	H	1.105971	-0.411837	0.000029
H60	H	1.126261	0.039244	-0.375737
