data_functionalizedCrystal
_audit_creation_method	'MofGen! by Chris Wilmer'
_symmetry_space_group_name_H-M	'P1'
_symmetry_Int_Tables_number	1
_symmetry_cell_setting	triclinic
loop_
_symmetry_equiv_pos_as_xyz
  x,y,z
_cell_length_a	25.639242
_cell_length_b	21.295417
_cell_length_c	21.295411
_cell_angle_alpha	89.978356
_cell_angle_beta	90.033308
_cell_angle_gamma	89.973967
loop_
_atom_site_label
_atom_site_type_symbol
_atom_site_fract_x
_atom_site_fract_y
_atom_site_fract_z
Zn1	Zn	0.799312	0.250756	0.356058
Zn2	Zn	1.132646	0.584089	0.689392
Zn3	Zn	1.465979	0.917423	1.022725
Zn4	Zn	0.799231	0.356008	0.250784
Zn5	Zn	1.132565	0.689341	0.584117
Zn6	Zn	1.465898	1.022675	0.917450
Zn7	Zn	0.711872	0.250748	0.250787
Zn8	Zn	1.045205	0.584082	0.584121
Zn9	Zn	1.378538	0.917415	0.917454
Zn10	Zn	0.711846	0.355983	0.355999
Zn11	Zn	1.045180	0.689316	0.689333
Zn12	Zn	1.378513	1.022650	1.022666
O13	O	0.755565	0.303374	0.303407
O14	O	1.088899	0.636707	0.636740
O15	O	1.422232	0.970040	0.970074
O16	O	0.872467	0.264731	0.342117
O17	O	1.205800	0.598065	0.675450
O18	O	1.539133	0.931398	1.008783
O19	O	0.787620	0.342052	0.162695
O20	O	1.120953	0.675385	0.496028
O21	O	1.454286	1.008719	0.829361
O22	O	0.723515	0.162660	0.264778
O23	O	1.056849	0.495993	0.598111
O24	O	1.390182	0.829327	0.931445
O25	O	0.872407	0.342060	0.264772
O26	O	1.205741	0.675393	0.598105
O27	O	1.539074	1.008726	0.931438
O28	O	0.787758	0.162666	0.342120
O29	O	1.121091	0.495999	0.675453
O30	O	1.454424	0.829332	1.008787
O31	O	0.723437	0.264718	0.162697
O32	O	1.056770	0.598052	0.496031
O33	O	1.390103	0.931385	0.829364
O34	O	0.638703	0.264694	0.264721
O35	O	0.972036	0.598028	0.598054
O36	O	1.305370	0.931361	0.931387
O37	O	0.723472	0.342017	0.444097
O38	O	1.056805	0.675351	0.777430
O39	O	1.390139	1.008684	1.110763
O40	O	0.638684	0.342010	0.342020
O41	O	0.972018	0.675343	0.675353
O42	O	1.305351	1.008677	1.008686
O43	O	0.787733	0.264707	0.444140
O44	O	1.121066	0.598041	0.777473
O45	O	1.454400	0.931374	1.110807
O46	O	0.787595	0.444094	0.264715
O47	O	1.120928	0.777427	0.598048
O48	O	1.454262	1.110761	0.931381
O49	O	0.723393	0.444076	0.342016
O50	O	1.056727	0.777409	0.675349
O51	O	1.390060	1.110742	1.008683
C52	C	0.619723	0.303349	0.303364
C53	C	0.953056	0.636682	0.636698
C54	C	1.286389	0.970016	0.970031
C55	C	0.561609	0.303354	0.303361
C56	C	0.894942	0.636687	0.636694
C57	C	1.228275	0.970020	0.970028
C58	C	0.755497	0.466925	0.303372
C59	C	1.088830	0.800259	0.636706
C60	C	1.422163	1.133592	0.970039
C61	C	0.755515	0.536894	0.303378
C62	C	1.088849	0.870227	0.636712
C63	C	1.422182	1.203560	0.970045
C64	C	0.755648	0.139184	0.303456
C65	C	1.088982	0.472517	0.636789
C66	C	1.422315	0.805850	0.970123
C67	C	0.755684	0.069215	0.303477
C68	C	1.089017	0.402549	0.636810
C69	C	1.422350	0.735882	0.970143
C70	C	0.201245	0.343699	0.343619
C71	C	0.534578	0.677033	0.676952
C72	C	0.867911	1.010366	1.010285
C73	C	0.146641	0.343703	0.343628
C74	C	0.479974	0.677036	0.676962
C75	C	0.813307	1.010370	1.010295
O76	O	0.118403	0.377976	0.377821
O77	O	0.451736	0.711309	0.711154
O78	O	0.785070	1.044642	1.044487
N79	N	0.119326	0.303391	0.303448
N80	N	0.452660	0.636724	0.636782
N81	N	0.785993	0.970058	0.970115
C82	C	0.146619	0.263068	0.263260
C83	C	0.479952	0.596401	0.596593
C84	C	0.813286	0.929735	0.929927
O85	O	0.118372	0.228780	0.229085
O86	O	0.451706	0.562113	0.562418
O87	O	0.785039	0.895446	0.895752
C88	C	0.201222	0.263062	0.263254
C89	C	0.534556	0.596395	0.596587
C90	C	0.867889	0.929728	0.929920
C91	C	0.228534	0.303381	0.303432
C92	C	0.561867	0.636714	0.636765
C93	C	0.895201	0.970047	0.970099
C94	C	0.228556	0.384015	0.383794
C95	C	0.561890	0.717348	0.717127
C96	C	0.895223	1.050681	1.050461
C97	C	0.283157	0.384011	0.383783
C98	C	0.616490	0.717345	0.717116
C99	C	0.949824	1.050678	1.050450
C100	C	0.310446	0.343693	0.343597
C101	C	0.643779	0.677026	0.676930
C102	C	0.977113	1.010360	1.010263
C103	C	0.283134	0.303378	0.303421
C104	C	0.616468	0.636711	0.636754
C105	C	0.949801	0.970044	0.970088
C106	C	0.228514	0.222736	0.223069
C107	C	0.561848	0.556069	0.556402
C108	C	0.895181	0.889403	0.889736
C109	C	0.283121	0.222732	0.223067
C110	C	0.616455	0.556066	0.556400
C111	C	0.949788	0.889399	0.889733
C112	C	0.310433	0.263052	0.263245
C113	C	0.643766	0.596385	0.596578
C114	C	0.977099	0.929718	0.929912
C115	C	0.365024	0.263056	0.263224
C116	C	0.698357	0.596389	0.596557
C117	C	1.031691	0.929722	0.929890
N118	N	0.392338	0.303368	0.303404
N119	N	0.725672	0.636701	0.636737
N120	N	1.059005	0.970034	0.970071
C121	C	0.365049	0.343686	0.343590
C122	C	0.698383	0.677020	0.676924
C123	C	1.031716	1.010353	1.010257
C124	C	0.031949	0.263084	0.263277
C125	C	0.365282	0.596418	0.596610
C126	C	0.698615	0.929751	0.929944
C127	C	-0.022654	0.263093	0.263280
C128	C	0.310680	0.596427	0.596613
C129	C	0.644013	0.929760	0.929946
C130	C	-0.022629	0.343728	0.343649
C131	C	0.310705	0.677061	0.676982
C132	C	0.644038	1.010394	1.010316
C133	C	0.031975	0.343721	0.343643
C134	C	0.365308	0.677055	0.676976
C135	C	0.698641	1.010388	1.010310
C136	C	0.059263	0.303396	0.303457
C137	C	0.392596	0.636730	0.636791
C138	C	0.725929	0.970063	0.970124
C139	C	0.479714	0.343677	0.343564
C140	C	0.813048	0.677010	0.676897
C141	C	1.146381	1.010344	1.010231
C142	C	0.534320	0.343672	0.343548
C143	C	0.867653	0.677005	0.676881
C144	C	1.200986	1.010339	1.010214
C145	C	0.534290	0.263036	0.263181
C146	C	0.867623	0.596369	0.596514
C147	C	1.200956	0.929702	0.929847
C148	C	0.479689	0.263043	0.263195
C149	C	0.813023	0.596376	0.596528
C150	C	1.146356	0.929709	0.929861
C151	C	0.452403	0.303365	0.303391
C152	C	0.785736	0.636699	0.636725
C153	C	1.119069	0.970032	0.970058
O154	O	0.393296	0.228799	0.229051
O155	O	0.726630	0.562132	0.562384
O156	O	1.059963	0.895466	0.895717
O157	O	0.393303	0.377963	0.377766
O158	O	0.726636	0.711297	0.711099
O159	O	1.059969	1.044630	1.044432
C160	C	0.891938	0.303399	0.303450
C161	C	1.225272	0.636732	0.636784
C162	C	1.558605	0.970066	0.970117
C163	C	0.950052	0.303410	0.303469
C164	C	1.283386	0.636743	0.636802
C165	C	1.616719	0.970077	0.970135
C166	C	0.755609	0.303361	0.467597
C167	C	1.088942	0.636694	0.800931
C168	C	1.422275	0.970027	1.134264
C169	C	0.755627	0.303355	0.537566
C170	C	1.088961	0.636688	0.870899
C171	C	1.422294	0.970022	1.204232
C172	C	0.788975	0.569749	0.263169
C173	C	1.122308	0.903082	0.596502
C174	C	1.455641	1.236415	0.929835
C175	C	0.788999	0.635491	0.263183
C176	C	1.122333	0.968825	0.596516
C177	C	1.455666	1.302158	0.929850
C178	C	0.755555	0.668376	0.303400
C179	C	1.088888	1.001709	0.636733
C180	C	1.422222	1.335043	0.970067
C181	C	0.722093	0.635513	0.343618
C182	C	1.055427	0.968846	0.676951
C183	C	1.388760	1.302180	1.010284
C184	C	0.722073	0.569772	0.343607
C185	C	1.055407	0.903105	0.676940
C186	C	1.388740	1.236438	1.010273
N187	N	0.709817	0.771638	0.308185
N188	N	1.043151	1.104972	0.641518
N189	N	1.376484	1.438305	0.974851
N190	N	0.709838	0.834090	0.308191
N191	N	1.043171	1.167423	0.641525
N192	N	1.376504	1.500756	0.974858
C193	C	0.755614	0.866451	0.303436
C194	C	1.088947	1.199784	0.636770
C195	C	1.422280	1.533117	0.970103
N196	N	0.801369	0.834001	0.298662
N197	N	1.134703	1.167334	0.631995
N198	N	1.468036	1.500668	0.965329
N199	N	0.801348	0.771544	0.298652
N200	N	1.134682	1.104877	0.631985
N201	N	1.468015	1.438210	0.965319
C202	C	0.755573	0.739661	0.303417
C203	C	1.088906	1.072995	0.636750
C204	C	1.422240	1.406328	0.970083
C205	C	0.789102	0.970591	0.263240
C206	C	1.122436	1.303925	0.596573
C207	C	1.455769	1.637258	0.929906
C208	C	0.789128	1.036335	0.263258
C209	C	1.122461	1.369669	0.596592
C210	C	1.455794	1.703002	0.929925
C211	C	0.722217	1.036356	0.343690
C212	C	1.055550	1.369689	0.677023
C213	C	1.388884	1.703022	1.010356
C214	C	0.722196	0.970613	0.343674
C215	C	1.055530	1.303946	0.677008
C216	C	1.388863	1.637280	1.010341
C217	C	0.755638	0.937735	0.303446
C218	C	1.088972	1.271068	0.636779
C219	C	1.422305	1.604402	0.970113
C220	C	0.755552	0.303342	0.139856
C221	C	1.088886	0.636675	0.473189
C222	C	1.422219	0.970008	0.806522
C223	C	0.755635	0.303170	0.069888
C224	C	1.088968	0.636503	0.403221
C225	C	1.422302	0.969837	0.736555
C226	C	0.789086	0.263098	0.570456
C227	C	1.122420	0.596431	0.903789
C228	C	1.455753	0.929764	1.237122
C229	C	0.789086	0.263071	0.636198
C230	C	1.122419	0.596404	0.969532
C231	C	1.455752	0.929737	1.302865
C232	C	0.755631	0.303312	0.669048
C233	C	1.088965	0.636645	1.002382
C234	C	1.422298	0.969978	1.335715
C235	C	0.722166	0.343571	0.636150
C236	C	1.055499	0.676905	0.969483
C237	C	1.388832	1.010238	1.302817
C238	C	0.722163	0.343593	0.570409
C239	C	1.055497	0.676926	0.903742
C240	C	1.388830	1.010260	1.237075
N241	N	0.751597	0.358379	0.772263
N242	N	1.084931	0.691712	1.105596
N243	N	1.418264	1.025046	1.438929
N244	N	0.751602	0.358357	0.834714
N245	N	1.084936	0.691690	1.168048
N246	N	1.418269	1.025023	1.501381
C247	C	0.755635	0.303248	0.867123
C248	C	1.088968	0.636581	1.200456
C249	C	1.422301	0.969914	1.533790
N250	N	0.759672	0.248161	0.834721
N251	N	1.093005	0.581494	1.168054
N252	N	1.426338	0.914828	1.501388
N253	N	0.759670	0.248184	0.772264
N254	N	1.093003	0.581517	1.105597
N255	N	1.426336	0.914851	1.438930
C256	C	0.755630	0.303292	0.740334
C257	C	1.088963	0.636626	1.073667
C258	C	1.422296	0.969959	1.407000
C259	C	0.789095	0.262958	0.971299
C260	C	1.122428	0.596291	1.304632
C261	C	1.455762	0.929624	1.637965
C262	C	0.789090	0.262929	1.037043
C263	C	1.122424	0.596263	1.370376
C264	C	1.455757	0.929596	1.703709
C265	C	0.722173	0.343436	1.036993
C266	C	1.055506	0.676769	1.370326
C267	C	1.388840	1.010102	1.703660
C268	C	0.722175	0.343459	0.971250
C269	C	1.055508	0.676792	1.304584
C270	C	1.388841	1.010125	1.637917
C271	C	0.755638	0.303220	0.938407
C272	C	1.088972	0.636554	1.271741
C273	C	1.422305	0.969887	1.605074
H274	H	0.556554	0.376507	0.376266
H275	H	0.889888	0.709840	0.709600
H276	H	1.223221	1.043174	1.042933
H277	H	0.816336	0.230143	1.063821
H278	H	1.149670	0.563477	1.397154
H279	H	1.483003	0.896810	1.730487
F280	F	0.824700	0.220270	0.535505
F281	F	1.158033	0.553603	0.868839
F282	F	1.491366	0.886937	1.202172
H283	H	-0.044886	0.230268	0.230556
H284	H	0.288447	0.563601	0.563889
H285	H	0.621780	0.896935	0.897223
H286	H	0.054208	0.376552	0.376361
H287	H	0.387541	0.709885	0.709694
H288	H	0.720875	1.043218	1.043027
H289	H	0.556518	0.230211	0.230460
H290	H	0.889852	0.563545	0.563793
H291	H	1.223185	0.896878	0.897127
F292	F	0.686501	0.670512	0.386422
F293	F	1.019835	1.003845	0.719755
F294	F	1.353168	1.337179	1.053089
H295	H	0.694928	0.376194	1.063739
H296	H	1.028262	0.709528	1.397072
H297	H	1.361595	1.042861	1.730405
H298	H	-0.044857	0.376555	0.376373
H299	H	0.288476	0.709889	0.709707
H300	H	0.621809	1.043222	1.043040
F301	F	0.686460	0.534804	0.386405
F302	F	1.019793	0.868137	0.719739
F303	F	1.353126	1.201470	1.053072
H304	H	0.694932	0.376244	0.944471
H305	H	1.028265	0.709577	1.277804
H306	H	1.361598	1.042911	1.611138
F307	F	0.060986	0.220166	0.220499
F308	F	0.394319	0.553499	0.553832
F309	F	0.727653	0.886833	0.887166
H310	H	0.816334	0.943821	0.230485
H311	H	1.149668	1.277154	0.563819
H312	H	1.483001	1.610488	0.897152
F313	F	0.824707	0.220131	0.936342
F314	F	1.158041	0.553464	1.269676
F315	F	1.491374	0.886797	1.603009
F316	F	0.824612	0.670465	0.220384
F317	F	1.157946	1.003799	0.553717
F318	F	1.491279	1.337132	0.887051
F319	F	0.824745	1.071302	0.220464
F320	F	1.158079	1.404635	0.553797
F321	F	1.491412	1.737969	0.887130
F322	F	0.199459	0.179819	0.180308
F323	F	0.532793	0.513152	0.513641
F324	F	0.866126	0.846485	0.846975
F325	F	0.824690	0.220211	0.671210
F326	F	1.158024	0.553545	1.004543
F327	F	1.491357	0.886878	1.337876
H328	H	0.457504	0.376510	0.376297
H329	H	0.790837	0.709844	0.709631
H330	H	1.124171	1.043177	1.042964
H331	H	0.305389	0.416842	0.416502
H332	H	0.638722	0.750176	0.749835
H333	H	0.972056	1.083509	1.083168
H334	H	0.457451	0.230213	0.230477
H335	H	0.790784	0.563546	0.563810
H336	H	1.124118	0.896880	0.897143
F337	F	0.199521	0.426930	0.426570
F338	F	0.532855	0.760264	0.759904
F339	F	0.866188	1.093597	1.093237
H340	H	0.305337	0.189890	0.190346
H341	H	0.638670	0.523224	0.523679
H342	H	0.972003	0.856557	0.857012
H343	H	0.816206	0.542981	0.230414
H344	H	1.149540	0.876315	0.563747
H345	H	1.482873	1.209648	0.897081
F346	F	0.686626	1.071350	0.386496
F347	F	1.019959	1.404683	0.719829
F348	F	1.353293	1.738016	1.053163
F349	F	0.686559	0.386397	0.671112
F350	F	1.019893	0.719730	1.004445
F351	F	1.353226	1.053063	1.337779
H352	H	0.694948	0.943861	0.376414
H353	H	1.028282	1.277194	0.709748
H354	H	1.361615	1.610527	1.043081
F355	F	0.686550	0.386442	0.535404
F356	F	1.019883	0.719775	0.868737
F357	F	1.353217	1.053109	1.202070
