data_functionalizedCrystal
_audit_creation_method	'MofGen! by Chris Wilmer'
_symmetry_space_group_name_H-M	'P1'
_symmetry_Int_Tables_number	1
_symmetry_cell_setting	triclinic
loop_
_symmetry_equiv_pos_as_xyz
  x,y,z
_cell_length_a	21.295418
_cell_length_b	29.839131
_cell_length_c	21.295411
_cell_angle_alpha	90.020364
_cell_angle_beta	90.043738
_cell_angle_gamma	90.057233
loop_
_atom_site_label
_atom_site_type_symbol
_atom_site_fract_x
_atom_site_fract_y
_atom_site_fract_z
Zn1	Zn	0.962308	-0.178715	0.356239
Zn2	Zn	1.462308	0.321285	0.856239
Zn3	Zn	0.962190	-0.253830	0.250967
Zn4	Zn	1.462190	0.246170	0.750967
Zn5	Zn	0.857031	-0.178736	0.250949
Zn6	Zn	1.357031	0.321264	0.750949
Zn7	Zn	0.856981	-0.253839	0.356163
Zn8	Zn	1.356981	0.246161	0.856163
O9	O	0.909628	-0.216280	0.303580
O10	O	1.409628	0.283720	0.803580
O11	O	1.050382	-0.188667	0.342314
O12	O	1.550382	0.311333	0.842314
O13	O	0.948213	-0.243874	0.162875
O14	O	1.448213	0.256126	0.662875
O15	O	0.871067	-0.115866	0.264940
O16	O	1.371067	0.384134	0.764940
O17	O	1.050295	-0.243854	0.264971
O18	O	1.550295	0.256146	0.764971
O19	O	0.948413	-0.115851	0.342296
O20	O	1.448413	0.384149	0.842296
O21	O	0.870953	-0.188703	0.162862
O22	O	1.370953	0.311297	0.662862
O23	O	0.768935	-0.188711	0.264867
O24	O	1.268935	0.311289	0.764867
O25	O	0.870981	-0.243869	0.444263
O26	O	1.370981	0.256131	0.944263
O27	O	0.768898	-0.243889	0.342167
O28	O	1.268898	0.256111	0.842167
O29	O	0.948364	-0.188675	0.444319
O30	O	1.448364	0.311325	0.944319
O31	O	0.948164	-0.316699	0.264897
O32	O	1.448164	0.183301	0.764897
O33	O	0.870866	-0.316705	0.342185
O34	O	1.370866	0.183295	0.842185
C35	C	0.746076	-0.216304	0.303507
C36	C	1.246076	0.283696	0.803507
C37	C	0.676108	-0.216325	0.303491
C38	C	1.176108	0.283675	0.803491
C39	C	0.643238	-0.245094	0.343681
C40	C	1.143238	0.254906	0.843681
C41	C	0.577496	-0.245083	0.343710
C42	C	1.077496	0.254917	0.843710
C43	C	0.544625	-0.216307	0.303536
C44	C	1.044625	0.283693	0.803536
C45	C	0.577503	-0.187532	0.263343
C46	C	1.077503	0.312468	0.763343
C47	C	0.643244	-0.187541	0.263321
C48	C	1.143244	0.312459	0.763321
N49	N	0.441350	-0.212791	0.248479
N50	N	0.941350	0.287209	0.748479
N51	N	0.378899	-0.212785	0.248502
N52	N	0.878899	0.287215	0.748502
C53	C	0.346551	-0.216279	0.303603
C54	C	0.846551	0.283721	0.803603
N55	N	0.379013	-0.219787	0.358681
N56	N	0.879013	0.280213	0.858681
N57	N	0.441470	-0.219795	0.358657
N58	N	0.941470	0.280205	0.858657
C59	C	0.473340	-0.216294	0.303557
C60	C	0.973340	0.283706	0.803557
C61	C	0.242396	-0.245037	0.343827
C62	C	0.742396	0.254963	0.843827
C63	C	0.176652	-0.245023	0.343857
C64	C	0.676652	0.254977	0.843857
C65	C	0.176660	-0.187475	0.263485
C66	C	0.676660	0.312525	0.763485
C67	C	0.242403	-0.187487	0.263461
C68	C	0.742403	0.312513	0.763461
C69	C	0.275266	-0.216271	0.303632
C70	C	0.775266	0.283729	0.803632
C71	C	0.909514	-0.333003	0.303548
C72	C	1.409514	0.166997	0.803548
C73	C	0.909523	-0.382937	0.303556
C74	C	1.409523	0.117063	0.803556
C75	C	0.949949	-0.692564	0.263395
C76	C	1.449949	-0.192564	0.763395
C77	C	0.950027	-0.880238	0.263419
C78	C	1.450027	-0.380238	0.763419
O79	O	0.984309	-0.904489	0.229249
O80	O	1.484309	-0.404489	0.729249
N81	N	0.909758	-0.903722	0.303627
N82	N	1.409758	-0.403722	0.803627
C83	C	0.869470	-0.880286	0.343835
C84	C	1.369470	-0.380286	0.843835
O85	O	0.835225	-0.904567	0.378039
O86	O	1.335225	-0.404567	0.878039
C87	C	0.869396	-0.692614	0.343813
C88	C	1.369396	-0.192614	0.843813
C89	C	0.909663	-0.669131	0.303598
C90	C	1.409663	-0.169131	0.803598
C91	C	0.990214	-0.669082	0.223184
C92	C	1.490214	-0.169082	0.723184
C93	C	0.990192	-0.622167	0.223176
C94	C	1.490192	-0.122167	0.723176
C95	C	0.949905	-0.598734	0.263379
C96	C	1.449905	-0.098734	0.763379
C97	C	0.909641	-0.622216	0.303590
C98	C	1.409641	-0.122216	0.803590
C99	C	0.829111	-0.669178	0.384023
C100	C	1.329111	-0.169178	0.884023
C101	C	0.829097	-0.622257	0.384015
C102	C	1.329097	-0.122257	0.884015
C103	C	0.869364	-0.598775	0.343800
C104	C	1.369364	-0.098775	0.843800
C105	C	0.869332	-0.551867	0.343785
C106	C	1.369332	-0.051867	0.843785
N107	N	0.909601	-0.528383	0.303577
N108	N	1.409601	-0.028383	0.803577
C109	C	0.949887	-0.551816	0.263374
C110	C	1.449887	-0.051816	0.763374
C111	C	0.869511	-0.978816	0.343842
C112	C	1.369511	-0.478816	0.843842
C113	C	0.869528	-1.025734	0.343847
C114	C	1.369528	-0.525734	0.843847
C115	C	0.950087	-1.025683	0.263432
C116	C	1.450087	-0.525683	0.763432
C117	C	0.950065	-0.978764	0.263425
C118	C	1.450065	-0.478764	0.763425
C119	C	0.909780	-0.955332	0.303634
C120	C	1.409780	-0.455332	0.803634
C121	C	0.949837	-0.453290	0.263359
C122	C	1.449837	0.046710	0.763359
C123	C	0.949810	-0.406370	0.263353
C124	C	1.449810	0.093630	0.763353
C125	C	0.869254	-0.406426	0.343770
C126	C	1.369254	0.093574	0.843770
C127	C	0.869279	-0.453341	0.343774
C128	C	1.369279	0.046659	0.843774
C129	C	0.909576	-0.476772	0.303567
C130	C	1.409576	0.023228	0.803567
O131	O	0.835073	-0.527587	0.377942
O132	O	1.335073	-0.027587	0.877942
O133	O	0.984137	-0.527526	0.229185
O134	O	1.484137	-0.027526	0.729185
C135	C	0.949972	-0.739480	0.263403
C136	C	1.449972	-0.239480	0.763403
C137	C	0.909707	-0.762962	0.303614
C138	C	1.409707	-0.262962	0.803614
C139	C	0.869421	-0.739529	0.343817
C140	C	1.369421	-0.239529	0.843817
C141	C	0.909725	-0.809880	0.303619
C142	C	1.409725	-0.309880	0.803619
C143	C	0.950012	-0.833313	0.263416
C144	C	1.450012	-0.333313	0.763416
C145	C	0.990281	-0.809829	0.223208
C146	C	1.490281	-0.309829	0.723208
C147	C	0.990258	-0.762913	0.223200
C148	C	1.490258	-0.262913	0.723200
C149	C	0.829152	-0.763014	0.384025
C150	C	1.329152	-0.263014	0.884025
C151	C	0.829177	-0.809929	0.384029
C152	C	1.329177	-0.309929	0.884029
C153	C	0.869463	-0.833362	0.343826
C154	C	1.369463	-0.333362	0.843826
C155	C	1.073818	-0.216257	0.303653
C156	C	1.573818	0.283743	0.803653
C157	C	1.143786	-0.216247	0.303684
C158	C	1.643786	0.283753	0.803684
C159	C	0.909680	-0.216271	0.467770
C160	C	1.409680	0.283729	0.967770
C161	C	0.909702	-0.216267	0.537738
C162	C	1.409702	0.283733	1.037738
C163	C	0.909759	-0.099102	0.303625
C164	C	1.409759	0.400898	0.803625
C165	C	0.909815	-0.049167	0.303644
C166	C	1.409815	0.450833	0.803644
C167	C	0.909612	-0.216257	0.140028
C168	C	1.409612	0.283743	0.640028
C169	C	0.909712	-0.216135	0.070060
C170	C	1.409712	0.283865	0.570060
C171	C	0.949994	-0.187526	0.570635
C172	C	1.449994	0.312474	1.070635
C173	C	0.949993	-0.187507	0.636377
C174	C	1.449993	0.312493	1.136377
C175	C	0.909707	-0.216236	0.669221
C176	C	1.409707	0.283764	1.169221
C177	C	0.869407	-0.244978	0.636316
C178	C	1.369407	0.255022	1.136316
C179	C	0.869405	-0.244994	0.570575
C180	C	1.369405	0.255006	1.070575
N181	N	0.904840	-0.255537	0.772436
N182	N	1.404840	0.244463	1.272436
N183	N	0.904846	-0.255521	0.834887
N184	N	1.404846	0.244479	1.334887
C185	C	0.909711	-0.216190	0.867295
C186	C	1.409711	0.283810	1.367295
N187	N	0.914582	-0.176875	0.834893
N188	N	1.414582	0.323125	1.334893
N189	N	0.914580	-0.176891	0.772436
N190	N	1.414580	0.323109	1.272436
C191	C	0.909705	-0.216222	0.740506
C192	C	1.409705	0.283778	1.240506
C193	C	0.950004	-0.187426	0.971478
C194	C	1.450004	0.312574	1.471478
C195	C	0.949999	-0.187406	1.037221
C196	C	1.449999	0.312594	1.537221
C197	C	0.869416	-0.244882	1.037159
C198	C	1.369416	0.255118	1.537159
C199	C	0.869418	-0.244898	0.971417
C200	C	1.369418	0.255102	1.471417
C201	C	0.909716	-0.216171	0.938580
C202	C	1.409716	0.283829	1.438580
H203	H	0.670006	-0.164112	0.230593
H204	H	1.170006	0.335888	0.730593
H205	H	0.796381	-0.829044	0.416777
H206	H	1.296381	-0.329044	0.916777
H207	H	0.269155	-0.268472	0.376540
H208	H	0.769155	0.231528	0.876540
O209	O	0.144693	-0.272907	0.382968
O210	O	0.644693	0.227093	0.882968
C211	C	0.070530	-0.279037	0.467945
C212	C	0.570530	0.220963	0.967945
C213	C	0.106695	-0.247407	0.423701
C214	C	0.606695	0.252593	0.923701
H215	H	0.039789	-0.258433	0.500880
H216	H	0.539789	0.241567	1.000880
H217	H	0.105287	-0.299602	0.496694
H218	H	0.605287	0.200398	0.996694
H219	H	0.039706	-0.302500	0.438980
H220	H	0.539706	0.197500	0.938980
H221	H	0.137520	-0.223917	0.452618
H222	H	0.637520	0.276083	0.952618
H223	H	0.071904	-0.226874	0.394950
H224	H	0.571904	0.273126	0.894950
O225	O	0.989074	-0.159455	0.939602
O226	O	1.489074	0.340545	1.439602
C227	C	1.019740	-0.083039	0.919531
C228	C	1.519740	0.416961	1.419531
C229	C	0.975445	-0.114664	0.955657
C230	C	1.475445	0.385336	1.455657
H231	H	1.008746	-0.046819	0.932509
H232	H	1.508746	0.453181	1.432509
H233	H	1.012817	-0.087952	0.866886
H234	H	1.512817	0.412048	1.366886
H235	H	1.070487	-0.090940	0.932488
H236	H	1.570487	0.409060	1.432488
H237	H	0.924682	-0.106783	0.942753
H238	H	1.424682	0.393217	1.442753
H239	H	0.982423	-0.109745	1.008294
H240	H	1.482423	0.390255	1.508294
H241	H	0.982855	-0.959647	0.230679
H242	H	1.482855	-0.459647	0.730679
H243	H	0.982652	-0.472362	0.230620
H244	H	1.482652	0.027638	0.730620
O245	O	0.144758	-0.159463	0.224527
O246	O	0.644758	0.340537	0.724527
C247	C	0.124740	-0.083016	0.194138
C248	C	0.624740	0.416984	0.694138
C249	C	0.160907	-0.114687	0.238306
C250	C	0.660907	0.385313	0.738306
H251	H	0.137794	-0.046809	0.205253
H252	H	0.637794	0.453191	0.705253
H253	H	0.072101	-0.087918	0.201068
H254	H	0.572101	0.412082	0.701068
H255	H	0.137585	-0.090879	0.143358
H256	H	0.637585	0.409121	0.643358
H257	H	0.148115	-0.106844	0.289102
H258	H	0.648115	0.393156	0.789102
H259	H	0.213537	-0.109779	0.231321
H260	H	0.713537	0.390221	0.731321
O261	O	0.830365	-0.272935	0.668245
O262	O	1.330365	0.227065	1.168245
C263	C	0.821832	-0.333558	0.742485
C264	C	1.321832	0.166442	1.242485
C265	C	0.866123	-0.301932	0.706356
C266	C	1.366123	0.198068	1.206356
H267	H	0.850724	-0.357003	0.773317
H268	H	1.350724	0.142997	1.273317
H269	H	0.793044	-0.354136	0.707705
H270	H	1.293044	0.145864	1.207705
H271	H	0.788929	-0.312921	0.773215
H272	H	1.288929	0.187079	1.273215
H273	H	0.899063	-0.322534	0.675626
H274	H	1.399063	0.177466	1.175626
H275	H	0.894867	-0.281352	0.741170
H276	H	1.394867	0.218648	1.241170
O277	O	0.675191	-0.273096	0.382617
O278	O	1.175191	0.226904	0.882617
C279	C	0.749357	-0.333747	0.390916
C280	C	1.249357	0.166253	0.890916
C281	C	0.713196	-0.302073	0.346747
C282	C	1.213196	0.197927	0.846747
H283	H	0.780104	-0.357176	0.361932
H284	H	1.280104	0.142824	0.861932
H285	H	0.714598	-0.354340	0.419638
H286	H	1.214598	0.145660	0.919638
H287	H	0.780175	-0.313147	0.423885
H288	H	1.280175	0.186853	0.923885
H289	H	0.682378	-0.322638	0.313739
H290	H	1.182378	0.177362	0.813739
H291	H	0.747990	-0.281478	0.318068
H292	H	1.247990	0.218522	0.818068
O293	O	0.545491	-0.273055	0.382664
O294	O	1.045491	0.226945	0.882664
C295	C	0.471207	-0.333729	0.390992
C296	C	0.971207	0.166271	0.890992
C297	C	0.507397	-0.302072	0.346806
C298	C	1.007397	0.197928	0.846806
H299	H	0.440410	-0.357203	0.362018
H300	H	0.940410	0.142797	0.862018
H301	H	0.440456	-0.313161	0.423964
H302	H	0.940456	0.186839	0.923964
H303	H	0.506004	-0.354279	0.419712
H304	H	1.006004	0.145721	0.919712
H305	H	0.472646	-0.281515	0.318046
H306	H	0.972646	0.218485	0.818046
H307	H	0.538158	-0.322665	0.313876
H308	H	1.038158	0.177335	0.813876
O309	O	0.789934	-0.692003	0.423003
O310	O	1.289934	-0.192003	0.923003
C311	C	0.704986	-0.745066	0.431405
C312	C	1.204986	-0.245066	0.931405
C313	C	0.749304	-0.719238	0.387183
C314	C	1.249304	-0.219238	0.887183
H315	H	0.672135	-0.767100	0.402463
H316	H	1.172135	-0.267100	0.902463
H317	H	0.676150	-0.720273	0.460128
H318	H	1.176150	-0.220273	0.960128
H319	H	0.733898	-0.766972	0.464371
H320	H	1.233898	-0.266972	0.964371
H321	H	0.720441	-0.697332	0.354179
H322	H	1.220441	-0.197332	0.854179
H323	H	0.778142	-0.744056	0.358504
H324	H	1.278142	-0.244056	0.858504
H325	H	0.796346	-0.743938	0.416764
H326	H	1.296346	-0.243938	0.916764
H327	H	0.269165	-0.164062	0.230731
H328	H	0.769165	0.335938	0.730731
H329	H	1.023048	-0.743797	0.190453
H330	H	1.523048	-0.243797	0.690453
H331	H	0.836733	-1.044849	0.376588
H332	H	1.336733	-0.544849	0.876588
H333	H	0.982600	-0.387253	0.230603
H334	H	1.482600	0.112747	0.730603
O335	O	0.545549	-0.159646	0.224248
O336	O	1.045549	0.340354	0.724248
C337	C	0.471219	-0.153506	0.139319
C338	C	0.971219	0.346494	0.639319
C339	C	0.507377	-0.185141	0.183546
C340	C	1.007377	0.314859	0.683546
H341	H	0.440338	-0.174106	0.106409
H342	H	0.940338	0.325894	0.606409
H343	H	0.505982	-0.132954	0.110542
H344	H	1.005982	0.367046	0.610542
H345	H	0.440537	-0.130032	0.168300
H346	H	0.940537	0.369968	0.668300
H347	H	0.538060	-0.208642	0.154613
H348	H	1.038060	0.291358	0.654613
H349	H	0.472581	-0.205662	0.212324
H350	H	0.972581	0.294338	0.712324
H351	H	0.836608	-0.268269	1.063899
H352	H	1.336608	0.231731	1.563899
H353	H	1.022982	-0.603050	0.190431
H354	H	1.522982	-0.103050	0.690431
H355	H	0.982808	-0.163999	1.064005
H356	H	1.482808	0.336001	1.564005
H357	H	1.023023	-0.688157	0.190445
H358	H	1.523023	-0.188157	0.690445
O359	O	0.830261	-0.272861	0.939554
O360	O	1.330261	0.227139	1.439554
C361	C	0.750305	-0.329845	0.946432
C362	C	1.250305	0.170155	1.446432
C363	C	0.794634	-0.298207	0.982594
C364	C	1.294634	0.201793	1.482594
H365	H	0.721479	-0.350338	0.981214
H366	H	1.221479	0.149662	1.481214
H367	H	0.779146	-0.353369	0.915690
H368	H	1.279146	0.146631	1.415690
H369	H	0.717440	-0.309222	0.915614
H370	H	1.217440	0.190778	1.415614
H371	H	0.827507	-0.318794	1.013445
H372	H	1.327507	0.181206	1.513445
H373	H	0.765754	-0.274681	1.013296
H374	H	1.265754	0.225319	1.513296
O375	O	0.830340	-0.956007	0.382813
O376	O	1.330340	-0.456007	0.882813
C377	C	0.745292	-0.903139	0.391168
C378	C	1.245292	-0.403139	0.891168
C379	C	0.789625	-0.928932	0.346967
C380	C	1.289625	-0.428932	0.846967
H381	H	0.712353	-0.881249	0.362203
H382	H	1.212353	-0.381249	0.862203
H383	H	0.774127	-0.881107	0.424112
H384	H	1.274127	-0.381107	0.924112
H385	H	0.716544	-0.927996	0.419916
H386	H	1.216544	-0.427996	0.919916
H387	H	0.818381	-0.904108	0.318178
H388	H	1.318381	-0.404108	0.818178
H389	H	0.760753	-0.950971	0.314064
H390	H	1.260753	-0.450971	0.814064
H391	H	0.982890	-1.044770	0.230698
H392	H	1.482890	-0.544770	0.730698
O393	O	0.789904	-0.599565	0.423098
O394	O	1.289904	-0.099565	0.923098
C395	C	0.710043	-0.604572	0.502897
C396	C	1.210043	-0.104572	1.002897
C397	C	0.754384	-0.630325	0.458658
C398	C	1.254384	-0.130325	0.958658
H399	H	0.681323	-0.629430	0.531668
H400	H	1.181323	-0.129430	1.031668
H401	H	0.677085	-0.582658	0.473988
H402	H	1.177085	-0.082658	0.973988
H403	H	0.738932	-0.582557	0.535816
H404	H	1.238932	-0.082557	1.035816
H405	H	0.725546	-0.652364	0.425730
H406	H	1.225546	-0.152364	0.925730
H407	H	0.787344	-0.652210	0.487606
H408	H	1.287344	-0.152210	0.987606
O409	O	0.830142	-0.476085	0.382895
O410	O	1.330142	0.023915	0.882895
C411	C	0.750217	-0.471179	0.462633
C412	C	1.250217	0.028821	0.962633
C413	C	0.794511	-0.445370	0.418364
C414	C	1.294511	0.054630	0.918364
H415	H	0.721388	-0.446357	0.491313
H416	H	1.221388	0.053643	0.991313
H417	H	0.779086	-0.493090	0.495632
H418	H	1.279086	0.006910	0.995632
H419	H	0.717353	-0.493202	0.433690
H420	H	1.217353	0.006798	0.933690
H421	H	0.827383	-0.423323	0.447256
H422	H	1.327383	0.076677	0.947256
H423	H	0.765603	-0.423488	0.385363
H424	H	1.265603	0.076512	0.885363
O425	O	1.029411	-0.832665	0.184229
O426	O	1.529411	-0.332665	0.684229
C427	C	1.065145	-0.904929	0.148625
C428	C	1.565145	-0.404929	0.648625
C429	C	1.020799	-0.879120	0.192794
C430	C	1.520799	-0.379120	0.692794
H431	H	1.058189	-0.942492	0.155525
H432	H	1.558189	-0.442492	0.655525
H433	H	1.115902	-0.895681	0.159765
H434	H	1.615902	-0.395681	0.659765
H435	H	1.054144	-0.895717	0.097848
H436	H	1.554144	-0.395717	0.597848
H437	H	1.031743	-0.888318	0.243586
H438	H	1.531743	-0.388318	0.743586
H439	H	0.970056	-0.888370	0.181600
H440	H	1.470056	-0.388370	0.681600
O441	O	0.989153	-0.159576	0.538836
O442	O	1.489153	0.340424	1.038836
C443	C	1.069107	-0.102587	0.545839
C444	C	1.569107	0.397413	1.045839
C445	C	1.024783	-0.134211	0.581931
C446	C	1.524783	0.365789	1.081931
H447	H	1.097934	-0.082079	0.580665
H448	H	1.597934	0.417921	1.080665
H449	H	1.040262	-0.079076	0.515059
H450	H	1.540262	0.420924	1.015059
H451	H	1.101970	-0.123222	0.515065
H452	H	1.601970	0.376778	1.015065
H453	H	0.991911	-0.113613	0.612739
H454	H	1.491911	0.386387	1.112739
H455	H	1.053667	-0.157723	0.612671
H456	H	1.553667	0.342277	1.112671
H457	H	0.836451	-0.387339	0.376501
H458	H	1.336451	0.112661	0.876501
H459	H	0.982802	-0.164100	0.663167
H460	H	1.482802	0.335900	1.163167
H461	H	0.836591	-0.268397	0.543791
H462	H	1.336591	0.231603	1.043791
