data_functionalizedCrystal
_audit_creation_method	'MofGen! by Chris Wilmer'
_symmetry_space_group_name_H-M	'P1'
_symmetry_Int_Tables_number	1
_symmetry_cell_setting	triclinic
loop_
_symmetry_equiv_pos_as_xyz
  x,y,z
_cell_length_a	15.995350
_cell_length_b	15.995350
_cell_length_c	14.472310
_cell_angle_alpha	90.009379
_cell_angle_beta	90.001162
_cell_angle_gamma	96.507625
loop_
_atom_site_label
_atom_site_type_symbol
_atom_site_fract_x
_atom_site_fract_y
_atom_site_fract_z
O1	O	0.107921	-1.110997	-0.076758
O2	O	0.121248	-0.867221	-0.076776
O3	O	-0.007303	-0.995773	-0.076766
O4	O	0.236472	-0.982445	-0.076769
O5	O	-0.007296	-0.995740	0.076916
O6	O	0.121256	-0.867188	0.076906
O7	O	0.107928	-1.110963	0.076924
Cu8	Cu	0.114593	-0.989073	0.090947
Cu9	Cu	0.114584	-0.989112	-0.090800
O10	O	0.236480	-0.982412	0.076913
C11	C	-0.038494	-0.995205	0.000073
C12	C	-0.131444	-0.993553	0.000068
C13	C	0.120701	-0.836010	0.000062
C14	C	0.119049	-0.743060	0.000055
C15	C	0.108476	-1.142175	0.000083
C16	C	0.110127	-1.235125	0.000084
C17	C	-0.469192	-0.987621	0.000071
C18	C	-0.421758	-0.896069	-0.000281
C19	C	-0.325068	-0.897721	0.000066
C20	C	-0.301631	-0.990564	0.000069
C21	C	-0.342705	-1.035701	0.087831
C22	C	-0.439340	-1.033401	0.087904
C23	C	-0.439707	-1.035330	-0.086861
C24	C	-0.342762	-1.035309	-0.088021
C25	C	-0.206934	-0.992231	0.000071
C26	C	-0.563890	-0.985956	0.000075
C27	C	0.267671	-0.982980	0.000072
C28	C	0.360621	-0.984631	0.000071
N29	N	0.114598	-0.989051	0.218778
C30	C	0.113117	-0.405312	0.000074
C31	C	0.021565	-0.452746	0.000418
C32	C	0.023217	-0.549436	0.000065
C33	C	0.116060	-0.572873	0.000065
C34	C	0.161212	-0.531804	-0.087692
C35	C	0.158912	-0.435169	-0.087759
C36	C	0.160812	-0.434792	0.087007
C37	C	0.160790	-0.531737	0.088160
C38	C	0.117727	-0.667570	0.000057
C39	C	0.111452	-0.310614	0.000076
N40	N	0.114572	-0.989140	-0.218631
C41	C	0.114581	-0.989111	0.592869
C42	C	0.183135	-0.920095	0.553698
C43	C	0.183385	-0.920254	0.446610
C44	C	0.114590	-0.989081	0.407278
C45	C	0.133671	-1.076445	0.446122
C46	C	0.134159	-1.076057	0.553243
C47	C	0.026741	-0.971542	0.553398
C48	C	0.027327	-0.969538	0.446270
C49	C	0.114593	-0.989069	0.302390
C50	C	0.114579	-0.989128	0.697757
H51	H	-0.296649	-0.862239	-0.062846
F52	F	0.217890	-1.096293	0.585892
H53	H	0.012845	-0.905272	0.420883
H54	H	0.197002	-1.092297	0.419285
F55	F	0.250359	-0.550286	-0.091975
H56	H	0.085068	-1.129029	0.420643
F57	F	0.120214	-0.568907	-0.173059
F58	F	-0.305607	-0.994690	0.173193
H59	H	-0.024275	-1.021872	0.578728
F60	F	-0.023175	-0.586580	0.082289
H61	H	0.130885	-0.414242	0.153524
F62	F	-0.023306	-0.585845	-0.082433
F63	F	0.115865	-0.411254	-0.173502
H64	H	0.226128	-0.402921	-0.091741
F65	F	0.268593	-0.934891	0.413100
F66	F	-0.481221	-1.123558	-0.087631
H67	H	-0.014865	-0.433166	-0.062168
F68	F	0.071312	-1.145140	0.587113
H69	H	0.127830	-0.559040	0.153082
F70	F	0.002771	-0.890067	0.588744
H71	H	-0.460250	-1.005412	-0.153379
F72	F	-0.042479	-1.030980	0.411290
F73	F	-0.306761	-0.992506	-0.172894
H74	H	-0.440293	-0.859490	-0.063217
F75	F	0.249287	-0.551814	0.095088
F76	F	0.249040	-0.393279	0.087783
F77	F	0.168568	-0.835361	0.412282
F78	F	-0.026264	-0.428515	0.082678
F79	F	0.168511	-0.834934	0.587380
F80	F	0.267860	-0.934564	0.588855
H81	H	-0.441349	-0.859626	0.062299
H82	H	-0.327400	-1.103014	-0.093317
F83	F	-0.463260	-0.990340	0.173646
F84	F	-0.288638	-0.850993	0.082427
H85	H	-0.328579	-1.103909	0.091097
F86	F	-0.481493	-1.121254	0.093121
