data_functionalizedCrystal
_audit_creation_method	'MofGen! by Chris Wilmer'
_symmetry_space_group_name_H-M	'P1'
_symmetry_Int_Tables_number	1
_symmetry_cell_setting	triclinic
loop_
_symmetry_equiv_pos_as_xyz
  x,y,z
_cell_length_a	17.699104
_cell_length_b	14.185569
_cell_length_c	17.699083
_cell_angle_alpha	76.871494
_cell_angle_beta	96.712734
_cell_angle_gamma	76.872528
loop_
_atom_site_label
_atom_site_type_symbol
_atom_site_fract_x
_atom_site_fract_y
_atom_site_fract_z
O1	O	0.986861	0.083441	-0.112981
O2	O	1.486861	0.583441	0.387019
O3	O	0.766485	0.083438	-0.125417
O4	O	1.266485	0.583438	0.374583
O5	O	0.882901	0.083431	-0.009008
O6	O	1.382901	0.583431	0.490992
O7	O	0.870445	0.083448	-0.229389
O8	O	1.370445	0.583448	0.270611
O9	O	0.917291	-0.083406	0.025376
O10	O	1.417291	0.416594	0.525376
O11	O	0.800876	-0.083398	-0.091032
O12	O	1.300876	0.416602	0.408968
O13	O	1.021251	-0.083396	-0.078597
O14	O	1.521251	0.416604	0.421403
Cu15	Cu	0.914204	-0.098631	-0.081675
Cu16	Cu	1.414204	0.401369	0.418325
Cu17	Cu	0.873533	0.098673	-0.122339
Cu18	Cu	1.373533	0.598673	0.377661
O19	O	0.904836	-0.083389	-0.195005
O20	O	1.404836	0.416611	0.304995
C21	C	0.755484	0.000020	-0.107776
C22	C	1.255484	0.500020	0.392224
C23	C	0.671467	0.000019	-0.106431
C24	C	1.171467	0.500019	0.393569
N25	N	0.942815	-0.237404	-0.053074
N26	N	1.442815	0.262596	0.446926
C27	C	0.146593	0.000034	-0.167178
C28	C	0.646593	0.500034	0.332822
C29	C	0.225536	0.000037	-0.168438
C30	C	0.725536	0.500037	0.331562
C31	C	0.274155	0.000031	-0.100101
C32	C	0.774155	0.500031	0.399899
C33	C	0.243824	0.000033	-0.030503
C34	C	0.743824	0.500033	0.469497
C35	C	0.164881	0.000037	-0.029245
C36	C	0.664881	0.500037	0.470755
C37	C	0.562194	0.000017	-0.035573
C38	C	1.062194	0.500017	0.464427
C39	C	0.641142	0.000010	-0.036835
C40	C	1.141142	0.500010	0.463165
C41	C	0.622848	0.000017	-0.174765
C42	C	1.122848	0.500017	0.325235
C43	C	0.543905	0.000021	-0.173508
C44	C	1.043905	0.500021	0.326492
C45	C	0.513581	0.000028	-0.103911
C46	C	1.013581	0.500028	0.396089
C47	C	0.427981	0.000027	-0.102546
C48	C	0.927981	0.500027	0.397454
C49	C	0.359754	0.000025	-0.101464
C50	C	0.859754	0.500025	0.398536
C51	C	0.760869	-0.605042	-0.234930
C52	C	1.260869	-0.105042	0.265070
C53	C	0.782547	-0.710065	-0.213270
C54	C	1.282547	-0.210065	0.286730
C55	C	0.885654	-0.710032	-0.110229
C56	C	1.385654	-0.210032	0.389771
C57	C	0.863982	-0.605007	-0.131878
C58	C	1.363982	-0.105007	0.368122
C59	C	0.801590	-0.552520	-0.194229
C60	C	1.301590	-0.052520	0.305771
C61	C	0.904703	-0.552486	-0.091177
C62	C	1.404703	-0.052486	0.408823
C63	C	0.883036	-0.447470	-0.112827
C64	C	1.383036	0.052530	0.387173
C65	C	0.820648	-0.394975	-0.175177
C66	C	1.320648	0.105025	0.324823
C67	C	0.779923	-0.447504	-0.215879
C68	C	1.279923	0.052496	0.284121
C69	C	0.967099	-0.604975	-0.028829
C70	C	1.467099	-0.104975	0.471171
C71	C	1.007820	-0.552454	0.011872
C72	C	1.507820	-0.052454	0.511872
C73	C	0.986149	-0.447436	-0.009774
C74	C	1.486149	0.052564	0.490226
C75	C	0.923761	-0.394941	-0.072125
C76	C	1.423761	0.105059	0.427875
C77	C	1.026874	-0.394907	0.030927
C78	C	1.526874	0.105093	0.530927
C79	C	1.005207	-0.289891	0.009277
C80	C	1.505207	0.210109	0.509277
C81	C	0.902094	-0.289925	-0.093775
C82	C	1.402094	0.210075	0.406225
C83	C	1.032252	0.000025	-0.096238
C84	C	1.532252	0.500025	0.403762
C85	C	1.116268	0.000032	-0.097584
C86	C	1.616268	0.500032	0.402416
C87	C	0.899650	0.000012	0.036381
C88	C	1.399650	0.500012	0.536381
C89	C	0.898312	0.000012	0.120399
C90	C	1.398312	0.500012	0.620399
N91	N	0.844928	0.237446	-0.150933
N92	N	1.344928	0.737446	0.349067
C93	C	0.888086	0.000032	-0.240395
C94	C	1.388086	0.500032	0.259605
C95	C	0.889423	0.000039	-0.324414
C96	C	1.389423	0.500039	0.175586
C97	C	0.966645	0.000011	0.169015
C98	C	1.466645	0.500011	0.669015
C99	C	0.965380	0.000020	0.247957
C100	C	1.465380	0.500020	0.747957
C101	C	0.895784	0.000022	0.278282
C102	C	1.395784	0.500022	0.778282
C103	C	0.827445	0.000026	0.229659
C104	C	1.327445	0.500026	0.729659
C105	C	0.828709	0.000024	0.150718
C106	C	1.328709	0.500024	0.650718
C107	C	0.822349	0.000034	0.548021
C108	C	1.322349	0.500034	1.048021
C109	C	0.821091	0.000033	0.626969
C110	C	1.321091	0.500033	1.126969
C111	C	0.959020	0.000030	0.645260
C112	C	1.459020	0.500030	1.145260
C113	C	0.960284	0.000028	0.566318
C114	C	1.460284	0.500028	1.066318
C115	C	0.891944	0.000037	0.517701
C116	C	1.391944	0.500037	1.017701
C117	C	0.893315	0.000029	0.432104
C118	C	1.393315	0.500029	0.932104
C119	C	0.894414	0.000023	0.363880
C120	C	1.394414	0.500023	0.863880
H121	H	0.107014	0.000031	-0.222824
H122	H	0.607014	0.500031	0.277176
H123	H	0.140192	0.000038	0.027424
H124	H	0.640192	0.500038	0.527424
Cl125	Cl	0.733591	0.000038	0.665091
Cl126	Cl	1.233591	0.500038	1.165091
Cl127	Cl	0.823648	-0.223937	-0.172154
Cl128	Cl	1.323648	0.276063	0.327846
Cl129	Cl	1.047779	0.000028	0.528199
Cl130	Cl	1.547779	0.500028	1.028199
H131	H	0.647547	0.000016	-0.231435
H132	H	1.147547	0.500016	0.268565
Cl133	Cl	0.964089	-0.776023	-0.031848
Cl134	Cl	1.464089	-0.276023	0.468152
Cl135	Cl	0.736435	0.000048	0.486912
Cl136	Cl	1.236435	0.500048	0.986912
H137	H	0.803009	-0.309465	-0.192806
H138	H	1.303009	0.190535	0.307194
Cl139	Cl	0.739950	0.000041	0.267780
Cl140	Cl	1.239950	0.500041	0.767780
Cl141	Cl	1.044933	0.000022	0.706383
Cl142	Cl	1.544933	0.500022	1.206383
H143	H	0.984740	-0.690486	-0.011207
H144	H	1.484740	-0.190486	0.488793
Cl145	Cl	1.051290	0.000016	0.309072
Cl146	Cl	1.551290	0.500016	0.809072
H147	H	0.250220	0.000047	-0.225110
H148	H	0.750220	0.500047	0.274890
Cl149	Cl	0.742800	0.000029	0.089599
Cl150	Cl	1.242800	0.500029	0.589599
H151	H	0.504324	0.000021	-0.229153
H152	H	1.004324	0.500021	0.270847
H153	H	1.077679	-0.437656	0.081690
H154	H	1.577679	0.062344	0.581690
Cl155	Cl	0.524077	0.000049	0.051916
Cl156	Cl	1.024077	0.500049	0.551916
H157	H	0.283415	0.000034	0.025136
H158	H	0.783415	0.500034	0.525136
Cl159	Cl	0.682423	-0.539054	-0.313310
Cl160	Cl	1.182423	-0.039054	0.186690
Cl161	Cl	0.701477	-0.381516	-0.294259
Cl162	Cl	1.201477	0.118484	0.205741
Cl163	Cl	0.731347	-0.776084	-0.264449
Cl164	Cl	1.231347	-0.276084	0.235551
H165	H	0.680726	0.000008	0.018816
H166	H	1.180726	0.500008	0.518816
H167	H	1.058622	-0.595201	0.062637
H168	H	1.558622	-0.095201	0.562637
H169	H	1.038367	-0.247128	0.042420
H170	H	1.538367	0.252872	0.542420
H171	H	1.023319	0.000003	0.144332
H172	H	1.523319	0.500003	0.644332
