data_functionalizedCrystal
_audit_creation_method	'MofGen! by Chris Wilmer'
_symmetry_space_group_name_H-M	'P1'
_symmetry_Int_Tables_number	1
_symmetry_cell_setting	triclinic
loop_
_symmetry_equiv_pos_as_xyz
  x,y,z
_cell_length_a	6.817900
_cell_length_b	11.168129
_cell_length_c	10.992410
_cell_angle_alpha	91.929074
_cell_angle_beta	108.764651
_cell_angle_gamma	108.508637
loop_
_atom_site_label
_atom_site_type_symbol
_atom_site_fract_x
_atom_site_fract_y
_atom_site_fract_z
V1	V	-4.112914	-0.174705	-0.400604
O2	O	-4.072440	0.008395	-0.392967
O3	O	-4.089182	-0.346410	-0.397876
O4	O	-4.090527	-0.172017	-0.575317
O5	O	-4.071086	-0.167205	-0.214297
V6	V	-4.589975	-0.152804	-0.378319
O7	O	-4.388348	-0.222746	-0.449489
O8	O	-4.764739	-0.104762	-0.329435
O9	O	-4.390501	0.018902	-0.381048
O10	O	-4.747846	-0.335904	-0.385957
O11	O	-4.749200	-0.160304	-0.564626
O12	O	-4.389156	-0.155491	-0.203607
C13	C	-3.939343	-0.388268	-0.391559
C14	C	-4.001399	-0.528640	-0.390492
C15	C	-3.971406	-0.574085	-0.278199
C16	C	-4.035543	-0.719166	-0.277094
C17	C	-3.941056	-0.165811	-0.617901
C18	C	-4.004199	-0.164750	-0.760729
C19	C	-3.871396	-0.155083	-0.955852
C20	C	-3.805833	-0.156710	-0.807369
C21	C	-4.201264	-0.289253	-0.837841
C22	C	-4.265586	-0.288152	-0.986408
C23	C	-4.145193	-0.047070	-0.948360
C24	C	-4.074488	-0.046480	-0.799347
C25	C	-4.203683	0.060753	-0.387361
C26	C	-4.120866	0.201123	-0.388436
C27	C	-4.201969	-0.161701	-0.161016
C28	C	-4.118063	-0.162756	-0.018186
H29	H	-4.074566	-0.597139	-0.485813
C30	C	-4.089037	-0.410961	-0.669803
C31	C	-4.138588	-0.407797	-0.803291
H32	H	-4.050322	-0.484139	-0.648476
H33	H	-4.214416	-0.414810	-0.647738
H34	H	-3.968739	-0.336086	-0.622666
H35	H	-4.258898	-0.482668	-0.850428
H36	H	-4.013196	-0.403959	-0.825370
H37	H	-3.898257	-0.505586	-0.182879
C38	C	-4.071269	-0.905498	-0.171330
C39	C	-4.001037	-0.772004	-0.147301
H40	H	-4.049982	-0.938116	-0.091197
H41	H	-3.988003	-0.930347	-0.215419
H42	H	-4.223469	-0.938565	-0.223654
H43	H	-3.848832	-0.738936	-0.094985
H44	H	-4.084301	-0.747144	-0.103192
H45	H	-3.658061	-0.067187	-0.754022
H46	H	-3.931938	0.045622	-0.746983
C47	C	-4.625648	-0.413141	-1.136737
C48	C	-4.511165	-0.302768	-1.043989
H49	H	-4.777252	-0.422166	-1.172291
H50	H	-4.611873	-0.485561	-1.096710
H51	H	-4.565475	-0.406537	-1.204122
H52	H	-4.571327	-0.309377	-0.976598
H53	H	-4.524954	-0.230331	-1.084016
C54	C	-4.246557	-0.847505	-0.620974
C55	C	-4.155400	-0.746051	-0.518236
H56	H	-4.267858	-0.814882	-0.701105
H57	H	-4.384532	-0.902322	-0.619858
H58	H	-4.149075	-0.894103	-0.611643
H59	H	-4.252889	-0.699459	-0.527562
H60	H	-4.017404	-0.691213	-0.519354
H61	H	-3.754880	-0.064945	-0.974675
H62	H	-3.845824	-0.238204	-1.003850
C63	C	-3.668274	-0.272517	-0.639787
C64	C	-3.727792	-0.270485	-0.773864
H65	H	-3.620091	-0.342760	-0.619107
H66	H	-3.792247	-0.280945	-0.614566
H67	H	-3.552089	-0.195229	-0.594761
H68	H	-3.843989	-0.347770	-0.818890
H69	H	-3.603804	-0.262068	-0.799098
H70	H	-4.249355	-0.375747	-1.032684
C71	C	-4.576874	-0.415134	-0.869369
C72	C	-4.404165	-0.303284	-0.798959
H73	H	-4.702135	-0.423789	-0.845365
H74	H	-4.531767	-0.486719	-0.850777
H75	H	-4.613872	-0.410737	-0.959720
H76	H	-4.367156	-0.307686	-0.708608
H77	H	-4.449279	-0.231682	-0.817542
C78	C	-4.409382	0.050223	-0.940745
C79	C	-4.386757	-0.053162	-1.003496
H80	H	-4.558517	0.046448	-0.974786
H81	H	-4.316000	0.127868	-0.954706
H82	H	-4.369006	0.046452	-0.850185
H83	H	-4.427117	-0.049386	-1.094056
H84	H	-4.480171	-0.130827	-0.989546
H85	H	-4.043000	0.047474	-0.968713
H86	H	-4.216612	-0.045018	-0.766835
