data_functionalizedCrystal
_audit_creation_method	'MofGen! by Chris Wilmer'
_symmetry_space_group_name_H-M	'P1'
_symmetry_Int_Tables_number	1
_symmetry_cell_setting	triclinic
loop_
_symmetry_equiv_pos_as_xyz
  x,y,z
_cell_length_a	14.908782
_cell_length_b	16.625545
_cell_length_c	16.625539
_cell_angle_alpha	89.973757
_cell_angle_beta	93.285106
_cell_angle_gamma	86.732496
loop_
_atom_site_label
_atom_site_type_symbol
_atom_site_fract_x
_atom_site_fract_y
_atom_site_fract_z
Zn1	Zn	1.379088	-0.392086	-0.384643
Zn2	Zn	1.629088	-0.142086	-0.134643
Zn3	Zn	1.879088	0.107914	0.115357
Zn4	Zn	2.129088	0.357914	0.365357
Zn5	Zn	1.378981	-0.526919	-0.249817
Zn6	Zn	1.628981	-0.276919	0.000183
Zn7	Zn	1.878981	-0.026919	0.250183
Zn8	Zn	2.128981	0.223081	0.500183
Zn9	Zn	1.228239	-0.384336	-0.257619
Zn10	Zn	1.478239	-0.134336	-0.007619
Zn11	Zn	1.728239	0.115664	0.242381
Zn12	Zn	1.978239	0.365664	0.492381
Zn13	Zn	1.228189	-0.519103	-0.392399
Zn14	Zn	1.478189	-0.269103	-0.142399
Zn15	Zn	1.728189	-0.019103	0.107601
Zn16	Zn	1.978189	0.230897	0.357601
O17	O	1.303624	-0.455611	-0.321120
O18	O	1.553624	-0.205611	-0.071120
O19	O	1.803624	0.044389	0.178880
O20	O	2.053624	0.294389	0.428880
O21	O	1.505313	-0.416486	-0.360247
O22	O	1.755313	-0.166486	-0.110247
O23	O	2.005313	0.083514	0.139753
O24	O	2.255313	0.333514	0.389753
O25	O	1.358961	-0.508032	-0.138020
O26	O	1.608961	-0.258032	0.111980
O27	O	1.858961	-0.008032	0.361980
O28	O	2.108961	0.241968	0.611980
O29	O	1.248315	-0.272535	-0.274489
O30	O	1.498315	-0.022535	-0.024489
O31	O	1.748315	0.227465	0.225511
O32	O	1.998315	0.477465	0.475511
O33	O	1.505234	-0.515547	-0.261190
O34	O	1.755234	-0.265547	-0.011190
O35	O	2.005234	-0.015547	0.238810
O36	O	2.255234	0.234453	0.488810
O37	O	1.359144	-0.278229	-0.367813
O38	O	1.609144	-0.028229	-0.117813
O39	O	1.859144	0.221771	0.132187
O40	O	2.109144	0.471771	0.382187
O41	O	1.248212	-0.403277	-0.143753
O42	O	1.498212	-0.153277	0.106247
O43	O	1.748212	0.096723	0.356247
O44	O	1.998212	0.346723	0.606247
O45	O	1.101994	-0.395699	-0.282009
O46	O	1.351994	-0.145699	-0.032009
O47	O	1.601994	0.104301	0.217991
O48	O	1.851994	0.354301	0.467991
O49	O	1.248229	-0.502227	-0.504201
O50	O	1.498229	-0.252227	-0.254201
O51	O	1.748229	-0.002227	-0.004201
O52	O	1.998229	0.247773	0.245799
O53	O	1.101957	-0.494712	-0.381031
O54	O	1.351957	-0.244712	-0.131031
O55	O	1.601957	0.005288	0.118969
O56	O	1.851957	0.255288	0.368969
O57	O	1.359095	-0.408908	-0.498503
O58	O	1.609095	-0.158908	-0.248503
O59	O	1.859095	0.091092	0.001497
O60	O	2.109095	0.341092	0.251497
O61	O	1.358912	-0.638711	-0.268711
O62	O	1.608912	-0.388711	-0.018711
O63	O	1.858912	-0.138711	0.231289
O64	O	2.108912	0.111289	0.481289
O65	O	1.248126	-0.632969	-0.373465
O66	O	1.498126	-0.382969	-0.123465
O67	O	1.748126	-0.132969	0.126535
O68	O	1.998126	0.117031	0.376535
C69	C	1.069243	-0.443517	-0.333209
C70	C	1.319243	-0.193517	-0.083209
C71	C	1.569243	0.056483	0.166791
C72	C	1.819243	0.306483	0.416791
C73	C	0.968974	-0.438362	-0.338400
C74	C	1.218974	-0.188362	-0.088400
C75	C	1.468974	0.061638	0.161600
C76	C	1.718974	0.311638	0.411600
C77	C	0.780474	-0.531688	-0.244850
C78	C	1.030474	-0.281688	0.005150
C79	C	1.280474	-0.031688	0.255150
C80	C	1.530474	0.218312	0.505150
C81	C	0.686262	-0.526847	-0.249725
C82	C	0.936262	-0.276847	0.000275
C83	C	1.186262	-0.026847	0.250275
C84	C	1.436262	0.223153	0.500275
C85	C	0.686336	-0.423846	-0.353029
C86	C	0.936336	-0.173846	-0.103029
C87	C	1.186336	0.076154	0.146971
C88	C	1.436336	0.326154	0.396971
C89	C	0.780548	-0.428686	-0.348154
C90	C	1.030548	-0.178686	-0.098154
C91	C	1.280548	0.071314	0.151846
C92	C	1.530548	0.321314	0.401846
C93	C	0.827614	-0.482608	-0.294062
C94	C	1.077614	-0.232608	-0.044062
C95	C	1.327614	0.017392	0.205938
C96	C	1.577614	0.267392	0.455938
C97	C	0.921827	-0.487444	-0.289183
C98	C	1.171827	-0.237444	-0.039183
C99	C	1.421827	0.012556	0.210817
C100	C	1.671827	0.262556	0.460817
C101	C	0.921900	-0.384447	-0.392491
C102	C	1.171900	-0.134447	-0.142491
C103	C	1.421900	0.115553	0.107509
C104	C	1.671900	0.365553	0.357509
C105	C	0.827688	-0.379606	-0.397366
C106	C	1.077688	-0.129606	-0.147366
C107	C	1.327688	0.120394	0.102634
C108	C	1.577688	0.370394	0.352634
C109	C	1.303526	-0.665097	-0.321099
C110	C	1.553526	-0.415097	-0.071099
C111	C	1.803526	-0.165097	0.178901
C112	C	2.053526	0.084903	0.428901
C113	C	1.303567	-0.754720	-0.321113
C114	C	1.553567	-0.504720	-0.071113
C115	C	1.803567	-0.254720	0.178887
C116	C	2.053567	-0.004720	0.428887
C117	C	1.303602	-0.827504	-0.321128
C118	C	1.553602	-0.577504	-0.071128
C119	C	1.803602	-0.327504	0.178872
C120	C	2.053602	-0.077504	0.428872
C121	C	1.303654	-0.918815	-0.321143
C122	C	1.553654	-0.668815	-0.071143
C123	C	1.803654	-0.418815	0.178857
C124	C	2.053654	-0.168815	0.428857
C125	C	1.303701	-0.991594	-0.321150
C126	C	1.553701	-0.741594	-0.071150
C127	C	1.803701	-0.491594	0.178850
C128	C	2.053701	-0.241594	0.428850
C129	C	1.303753	-1.082911	-0.321164
C130	C	1.553753	-0.832911	-0.071164
C131	C	1.803753	-0.582911	0.178836
C132	C	2.053753	-0.332911	0.428836
C133	C	1.538921	-0.467753	-0.308983
C134	C	1.788921	-0.217753	-0.058983
C135	C	2.038921	0.032247	0.191017
C136	C	2.288921	0.282247	0.441017
C137	C	1.639190	-0.472927	-0.303812
C138	C	1.889190	-0.222927	-0.053812
C139	C	2.139190	0.027073	0.196188
C140	C	2.389190	0.277073	0.446188
C141	C	1.303669	-0.455560	-0.531426
C142	C	1.553669	-0.205560	-0.281426
C143	C	1.803669	0.044440	-0.031426
C144	C	2.053669	0.294440	0.218574
C145	C	1.303687	-0.455538	-0.621047
C146	C	1.553687	-0.205538	-0.371047
C147	C	1.803687	0.044462	-0.121047
C148	C	2.053687	0.294462	0.128953
C149	C	1.303747	-0.245308	-0.321156
C150	C	1.553747	0.004692	-0.071156
C151	C	1.803747	0.254692	0.178844
C152	C	2.053747	0.504692	0.428844
C153	C	1.303800	-0.155690	-0.321172
C154	C	1.553800	0.094310	-0.071172
C155	C	1.803800	0.344310	0.178828
C156	C	2.053800	0.594310	0.428828
C157	C	1.303702	-0.455521	-0.693828
C158	C	1.553702	-0.205521	-0.443828
C159	C	1.803702	0.044479	-0.193828
C160	C	2.053702	0.294479	0.056172
C161	C	1.303723	-0.455492	-0.785136
C162	C	1.553723	-0.205492	-0.535136
C163	C	1.803723	0.044508	-0.285136
C164	C	2.053723	0.294508	-0.035136
C165	C	1.303744	-0.455465	-0.857911
C166	C	1.553744	-0.205465	-0.607911
C167	C	1.803744	0.044535	-0.357911
C168	C	2.053744	0.294535	-0.107911
C169	C	1.303767	-0.455437	-0.949224
C170	C	1.553767	-0.205437	-0.699224
C171	C	1.803767	0.044563	-0.449224
C172	C	2.053767	0.294563	-0.199224
C173	C	1.303632	-0.455606	-0.111628
C174	C	1.553632	-0.205606	0.138372
C175	C	1.803632	0.044394	0.388372
C176	C	2.053632	0.294394	0.638372
C177	C	1.303788	-0.455410	-0.022000
C178	C	1.553788	-0.205410	0.228000
C179	C	1.803788	0.044590	0.478000
C180	C	2.053788	0.294590	0.728000
H181	H	0.647884	-0.566814	-0.209653
H182	H	0.897884	-0.316814	0.040347
H183	H	1.147884	-0.066814	0.290347
H184	H	1.397884	0.183186	0.540347
H185	H	0.648000	-0.379952	-0.397074
H186	H	0.898000	-0.129952	-0.147074
H187	H	1.148000	0.120048	0.102926
H188	H	1.398000	0.370048	0.352926
H189	H	0.789355	-0.335707	-0.441408
H190	H	1.039355	-0.085707	-0.191408
H191	H	1.289355	0.164293	0.058592
H192	H	1.539355	0.414293	0.308592
H193	H	0.960147	-0.531348	-0.245137
H194	H	1.210147	-0.281348	0.004863
H195	H	1.460147	-0.031348	0.254863
H196	H	1.710147	0.218652	0.504863
H197	H	0.818795	-0.575588	-0.200801
H198	H	1.068795	-0.325588	0.049199
H199	H	1.318795	-0.075588	0.299199
H200	H	1.568795	0.174412	0.549199
H201	H	0.960292	-0.344479	-0.432559
H202	H	1.210292	-0.094479	-0.182559
H203	H	1.460292	0.155521	0.067441
H204	H	1.710292	0.405521	0.317441
