data_functionalizedCrystal
_audit_creation_method	'MofGen! by Chris Wilmer'
_symmetry_space_group_name_H-M	'P1'
_symmetry_Int_Tables_number	1
_symmetry_cell_setting	triclinic
loop_
_symmetry_equiv_pos_as_xyz
  x,y,z
_cell_length_a	27.731993
_cell_length_b	19.188924
_cell_length_c	17.666332
_cell_angle_alpha	89.991448
_cell_angle_beta	90.002180
_cell_angle_gamma	82.881179
loop_
_atom_site_label
_atom_site_type_symbol
_atom_site_fract_x
_atom_site_fract_y
_atom_site_fract_z
O1	O	0.641200	0.082898	-0.062748
O2	O	1.141200	0.582898	0.437252
O3	O	0.500441	0.095570	-0.062795
O4	O	1.000441	0.595570	0.437205
O5	O	0.574884	-0.012449	-0.062761
O6	O	1.074884	0.487551	0.437239
O7	O	0.566757	0.190917	-0.062782
O8	O	1.066757	0.690917	0.437218
O9	O	0.574871	-0.012455	0.063136
O10	O	1.074871	0.487545	0.563136
O11	O	0.500428	0.095564	0.063102
O12	O	1.000428	0.595564	0.563102
O13	O	0.641187	0.082892	0.063149
O14	O	1.141187	0.582892	0.563149
Cu15	Cu	0.570806	0.089228	0.074621
Cu16	Cu	1.070806	0.589228	0.574621
Cu17	Cu	0.570822	0.089234	-0.074267
Cu18	Cu	1.070822	0.589234	0.425733
O19	O	0.566744	0.190911	0.063115
O20	O	1.066744	0.690911	0.563115
C21	C	0.482426	0.095307	0.000148
C22	C	0.982426	0.595307	0.500148
C23	C	0.428768	0.094524	0.000130
C24	C	0.928768	0.594524	0.500130
C25	C	0.574615	-0.038461	0.000188
C26	C	1.074615	0.461539	0.500188
C27	C	0.573827	-0.115961	0.000190
C28	C	1.073827	0.384039	0.500190
C29	C	0.045597	0.088849	-0.068459
C30	C	0.545597	0.588849	0.431541
C31	C	0.247264	0.091835	-0.068480
C32	C	0.747264	0.591835	0.431520
O33	O	0.273344	0.092196	-0.126845
O34	O	0.773344	0.592196	0.373155
N35	N	0.272478	0.092205	0.000145
N36	N	0.772478	0.592205	0.500145
C37	C	0.247273	0.091825	0.068780
C38	C	0.747273	0.591825	0.568780
O39	O	0.273348	0.092201	0.127149
O40	O	0.773348	0.592201	0.627149
C41	C	0.045608	0.088834	0.068800
C42	C	0.545608	0.588834	0.568800
C43	C	0.020396	0.088471	0.000171
C44	C	0.520396	0.588471	0.500171
C45	C	0.020385	0.088485	-0.137082
C46	C	0.520385	0.588485	0.362918
C47	C	-0.030029	0.087743	-0.137077
C48	C	0.469971	0.587743	0.362923
C49	C	-0.055231	0.087364	-0.068447
C50	C	0.444769	0.587364	0.431553
C51	C	-0.030018	0.087728	0.000177
C52	C	0.469982	0.587728	0.500177
C53	C	0.020405	0.088449	0.137434
C54	C	0.520405	0.588449	0.637434
C55	C	-0.030015	0.087699	0.137433
C56	C	0.469985	0.587699	0.637433
C57	C	-0.055227	0.087336	0.068804
C58	C	0.444773	0.587336	0.568804
C59	C	-0.105634	0.086607	0.068812
C60	C	0.394366	0.586607	0.568812
N61	N	-0.130848	0.086237	0.000187
N62	N	0.369152	0.586237	0.500187
C63	C	-0.105647	0.086615	-0.068442
C64	C	0.394353	0.586615	0.431558
C65	C	0.353150	0.093396	0.068765
C66	C	0.853150	0.593396	0.568765
C67	C	0.403566	0.094145	0.068760
C68	C	0.903566	0.594145	0.568760
C69	C	0.403553	0.094154	-0.068500
C70	C	0.903553	0.594154	0.431500
C71	C	0.353136	0.093410	-0.068494
C72	C	0.853136	0.593410	0.431506
C73	C	0.327936	0.093026	0.000140
C74	C	0.827936	0.593026	0.500140
C75	C	-0.211520	0.085057	-0.068425
C76	C	0.288480	0.585057	0.431575
C77	C	-0.261938	0.084317	-0.068413
C78	C	0.238062	0.584317	0.431587
C79	C	-0.261921	0.084305	0.068847
C80	C	0.238079	0.584305	0.568847
C81	C	-0.211507	0.085048	0.068835
C82	C	0.288493	0.585048	0.568835
C83	C	-0.186307	0.085422	0.000193
C84	C	0.313693	0.585422	0.500193
O85	O	-0.131744	0.086239	0.127147
O86	O	0.368256	0.586239	0.627147
O87	O	-0.131728	0.086223	-0.126803
O88	O	0.368272	0.586223	0.373197
C89	C	0.096011	0.089592	-0.068465
C90	C	0.596011	0.589592	0.431535
C91	C	0.121224	0.089956	0.000159
C92	C	0.621224	0.589956	0.500159
C93	C	0.096022	0.089578	0.068788
C94	C	0.596022	0.589578	0.568788
C95	C	0.171640	0.090705	0.000154
C96	C	0.671640	0.590705	0.500154
C97	C	0.196841	0.091083	-0.068475
C98	C	0.696841	0.591083	0.431525
C99	C	0.171627	0.090713	-0.137100
C100	C	0.671627	0.590713	0.362900
C101	C	0.121213	0.089970	-0.137094
C102	C	0.621213	0.589970	0.362906
C103	C	0.121236	0.089948	0.137413
C104	C	0.621236	0.589948	0.637413
C105	C	0.171650	0.090691	0.137402
C106	C	0.671650	0.590691	0.637402
C107	C	0.196852	0.091070	0.068772
C108	C	0.696852	0.591070	0.568772
C109	C	0.659201	0.083155	0.000204
C110	C	1.159201	0.583155	0.500204
C111	C	0.712860	0.083938	0.000217
C112	C	1.212860	0.583938	0.500217
C113	C	0.573466	-0.152354	-0.068437
C114	C	1.073466	0.347646	0.431563
C115	C	0.572718	-0.225172	-0.068443
C116	C	1.072718	0.274828	0.431557
C117	C	0.572341	-0.261595	0.000181
C118	C	1.072341	0.238405	0.500181
C119	C	0.572699	-0.225193	0.068817
C120	C	1.072699	0.274807	0.568817
C121	C	0.573442	-0.152375	0.068821
C122	C	1.073442	0.347625	0.568821
N123	N	0.598677	-0.381436	0.051266
N124	N	1.098677	0.118564	0.551266
N125	N	0.597973	-0.450610	0.051257
N126	N	1.097973	0.049390	0.551257
C127	C	0.570102	-0.480990	0.000173
C128	C	1.070102	0.019010	0.500173
N129	N	0.542968	-0.439584	-0.050913
N130	N	1.042968	0.060416	0.449087
N131	N	0.543675	-0.370404	-0.050907
N132	N	1.043675	0.129596	0.449093
C133	C	0.571535	-0.340553	0.000185
C134	C	1.071535	0.159447	0.500185
C135	C	0.568930	-0.596340	-0.068464
C136	C	1.068930	-0.096340	0.431536
C137	C	0.568179	-0.669159	-0.068468
C138	C	1.068179	-0.169159	0.431532
C139	C	0.568165	-0.669179	0.068795
C140	C	1.068165	-0.169179	0.568795
C141	C	0.568911	-0.596361	0.068796
C142	C	1.068911	-0.096361	0.568796
C143	C	0.569295	-0.559946	0.000164
C144	C	1.069295	-0.059946	0.500164
C145	C	0.567013	0.216924	0.000164
C146	C	1.067013	0.716924	0.500164
C147	C	0.567801	0.294423	0.000158
C148	C	1.067801	0.794423	0.500158
N149	N	0.570799	0.089223	0.179340
N150	N	1.070799	0.589223	0.679340
N151	N	0.570833	0.089234	-0.178986
N152	N	1.070833	0.589234	0.321014
C153	C	0.603773	0.041415	0.218965
C154	C	1.103773	0.541415	0.718965
C155	C	0.603776	0.041412	0.298212
C156	C	1.103776	0.541412	0.798212
C157	C	0.570809	0.089228	0.337832
C158	C	1.070809	0.589228	0.837832
C159	C	0.537829	0.137039	0.298198
C160	C	1.037829	0.637039	0.798198
C161	C	0.537824	0.137037	0.218952
C162	C	1.037824	0.637037	0.718952
N163	N	0.564524	0.151077	0.462243
N164	N	1.064524	0.651077	0.962243
N165	N	0.564532	0.151078	0.537524
N166	N	1.064532	0.651078	1.037524
C167	C	0.570822	0.089238	0.576596
C168	C	1.070822	0.589238	1.076596
N169	N	0.577113	0.027395	0.537544
N170	N	1.077113	0.527395	1.037544
N171	N	0.577108	0.027396	0.462257
N172	N	1.077108	0.527396	0.962257
C173	C	0.570811	0.089236	0.423761
C174	C	1.070811	0.589236	0.923761
C175	C	0.603801	0.041422	0.702150
C176	C	1.103801	0.541422	1.202150
C177	C	0.603800	0.041418	0.781399
C178	C	1.103800	0.541418	1.281399
C179	C	0.537856	0.137052	0.781383
C180	C	1.037856	0.637052	1.281383
C181	C	0.537854	0.137050	0.702136
C182	C	1.037854	0.637050	1.202136
C183	C	0.570829	0.089236	0.662524
C184	C	1.070829	0.589236	1.162524
H185	H	-0.282464	0.084023	-0.124301
H186	H	0.217536	0.584023	0.375699
C187	C	-0.183808	0.085472	-0.143934
C188	C	0.316192	0.585472	0.356066
N189	N	-0.162936	0.085790	-0.200808
N190	N	0.337064	0.585790	0.299192
H191	H	0.040924	0.088742	0.193319
H192	H	0.540924	0.588742	0.693319
C193	C	0.325435	0.092989	0.144273
C194	C	0.825435	0.592989	0.644273
N195	N	0.304561	0.092689	0.201147
N196	N	0.804561	0.592689	0.701147
C197	C	0.199359	0.091126	-0.212593
C198	C	0.699359	0.591126	0.287407
N199	N	0.220249	0.091433	-0.269451
N200	N	0.720249	0.591433	0.230549
C201	C	0.501592	0.189651	0.824961
C202	C	1.001592	0.689651	1.324961
N203	N	0.474277	0.229270	0.857787
N204	N	0.974277	0.729270	1.357787
H205	H	-0.050552	0.087444	-0.192962
H206	H	0.449448	0.587444	0.307038
C207	C	0.048099	0.088900	-0.212587
C208	C	0.548099	0.588900	0.287413
N209	N	0.068969	0.089217	-0.269462
N210	N	0.568969	0.589217	0.230538
C211	C	0.093520	0.089544	0.212915
C212	C	0.593520	0.589544	0.712915
N213	N	0.072646	0.089248	0.269789
N214	N	0.572646	0.589248	0.769789
H215	H	0.511005	0.175982	0.669871
H216	H	1.011005	0.675982	1.169871
C217	C	0.567750	-0.709241	0.144283
C218	C	1.067750	-0.209241	0.644283
N219	N	0.567437	-0.739418	0.201143
N220	N	1.067437	-0.239418	0.701143
C221	C	0.325408	0.093003	-0.143991
C222	C	0.825408	0.593003	0.356009
N223	N	0.304526	0.092693	-0.200859
N224	N	0.804526	0.592693	0.299141
C225	C	0.569345	-0.556280	-0.143960
C226	C	1.069345	-0.056280	0.356040
N227	N	0.569657	-0.526109	-0.200824
N228	N	1.069657	-0.026109	0.299176
C229	C	0.573884	-0.112302	-0.143934
C230	C	1.073884	0.387698	0.356066
N231	N	0.574198	-0.082132	-0.200799
N232	N	1.074198	0.417868	0.299201
H233	H	0.192173	0.090993	0.193292
H234	H	0.692173	0.590993	0.693292
H235	H	0.510986	0.175971	0.330461
H236	H	1.010986	0.675971	0.830461
H237	H	0.567883	-0.698788	-0.124354
H238	H	1.067883	-0.198788	0.375646
C239	C	0.640069	-0.011180	0.658574
C240	C	1.140069	0.488820	1.158574
N241	N	0.667386	-0.050802	0.625755
N242	N	1.167386	0.449198	1.125755
H243	H	0.569209	-0.566730	0.124679
H244	H	1.069209	-0.066730	0.624679
C245	C	0.640068	-0.011189	0.824986
C246	C	1.140068	0.488811	1.324986
N247	N	0.667384	-0.050817	0.857816
N248	N	1.167384	0.449183	1.357816
H249	H	0.630622	0.002481	0.186715
H250	H	1.130622	0.502481	0.686715
H251	H	-0.282449	0.083999	0.124723
H252	H	0.217551	0.583999	0.624723
H253	H	0.630628	0.002479	0.330481
H254	H	1.130628	0.502479	0.830481
C255	C	0.501569	0.189661	0.175364
C256	C	1.001569	0.689661	0.675364
N257	N	0.474269	0.229311	0.142532
N258	N	0.974269	0.729311	0.642532
C259	C	0.572283	-0.265260	0.144304
C260	C	1.072283	0.234740	0.644304
N261	N	0.571968	-0.295438	0.201164
N262	N	1.071968	0.204562	0.701164
C263	C	0.431285	0.094565	-0.143993
C264	C	0.931285	0.594565	0.356007
N265	N	0.452175	0.094868	-0.200851
N266	N	0.952175	0.594868	0.299149
C267	C	-0.183773	0.085453	0.144330
C268	C	0.316227	0.585453	0.644330
N269	N	-0.162886	0.085751	0.201195
N270	N	0.337114	0.585751	0.701195
C271	C	0.431293	0.094553	0.144257
C272	C	0.931293	0.594553	0.644257
N273	N	0.452176	0.094855	0.201125
N274	N	0.952176	0.594855	0.701125
H275	H	0.100689	0.089674	-0.192979
H276	H	0.600689	0.589674	0.307021
C277	C	-0.057732	0.087281	0.212938
C278	C	0.442268	0.587281	0.712938
N279	N	-0.078608	0.086969	0.269809
N280	N	0.421392	0.586969	0.769809
H281	H	0.572421	-0.254809	-0.124329
H282	H	1.072421	0.245191	0.375671
C283	C	0.573842	-0.112342	0.144319
C284	C	1.073842	0.387658	0.644319
N285	N	0.574145	-0.082188	0.201185
N286	N	1.074145	0.417812	0.701185
