data_functionalizedCrystal
_audit_creation_method	'MofGen! by Chris Wilmer'
_symmetry_space_group_name_H-M	'P1'
_symmetry_Int_Tables_number	1
_symmetry_cell_setting	triclinic
loop_
_symmetry_equiv_pos_as_xyz
  x,y,z
_cell_length_a	17.038272
_cell_length_b	15.944551
_cell_length_c	15.021413
_cell_angle_alpha	90.002826
_cell_angle_beta	90.004029
_cell_angle_gamma	92.694853
loop_
_atom_site_label
_atom_site_type_symbol
_atom_site_fract_x
_atom_site_fract_y
_atom_site_fract_z
O1	O	0.100827	-1.121728	-0.073940
O2	O	0.113259	-0.878066	-0.073962
O3	O	-0.006773	-0.998449	-0.073944
O4	O	0.220859	-1.001345	-0.073958
O5	O	-0.006755	-0.998429	0.074120
O6	O	0.113277	-0.878046	0.074102
O7	O	0.100844	-1.121708	0.074125
Zn8	Zn	0.107063	-0.999874	0.097622
Zn9	Zn	0.107041	-0.999900	-0.097459
O10	O	0.220876	-1.001326	0.074107
C11	C	0.112752	-0.846725	0.000067
C12	C	0.111205	-0.753369	0.000059
C13	C	-0.035893	-0.995805	0.000088
C14	C	-0.122688	-0.987945	0.000087
C15	C	0.101352	-1.153049	0.000093
C16	C	0.102899	-1.246405	0.000096
C17	C	-0.172781	-1.060103	0.000094
C18	C	-0.254334	-1.052713	0.000085
C19	C	-0.285792	-0.973165	0.000075
C20	C	-0.235693	-0.901002	0.000065
C21	C	-0.154142	-0.908393	0.000068
C22	C	-0.531558	-0.947056	0.000061
C23	C	-0.613115	-0.939671	0.000060
C24	C	-0.631751	-1.091383	0.000079
C25	C	-0.550197	-1.098766	0.000087
C26	C	-0.500105	-1.026603	0.000072
C27	C	-0.369152	-0.965610	0.000069
C28	C	-0.416747	-1.034159	0.000073
C29	C	0.249997	-1.003969	0.000073
C30	C	0.336792	-1.011829	0.000068
N31	N	0.107078	-0.999863	0.230759
C32	C	0.033105	-0.532936	0.000081
C33	C	0.069363	-0.474515	-0.072924
C34	C	0.108405	-0.582443	0.000070
C35	C	0.069398	-0.474519	0.073055
C36	C	0.105696	-0.417337	0.000084
C37	C	0.144684	-0.525252	-0.072996
C38	C	0.144709	-0.525262	0.073049
C39	C	0.181022	-0.466862	0.000026
C40	C	0.109964	-0.677557	0.000061
C41	C	0.104143	-0.322225	0.000087
N42	N	0.107019	-0.999917	-0.230597
C43	C	0.162555	-0.944187	0.470434
C44	C	0.177734	-1.021171	0.529775
C45	C	0.107059	-0.999883	0.412366
C46	C	0.091897	-0.922921	0.529768
C47	C	0.107041	-0.999896	0.587790
C48	C	0.122273	-1.076908	0.470400
C49	C	0.036405	-0.978606	0.470388
C50	C	0.051554	-1.055643	0.529702
C51	C	0.107070	-0.999875	0.311309
C52	C	0.107029	-0.999913	0.688846
H53	H	-0.295117	-1.111472	0.000093
O54	O	0.182563	-0.551715	-0.146807
C55	C	0.143012	-0.525263	-0.223559
H56	H	0.107381	-0.468671	-0.206548
H57	H	0.187751	-0.507148	-0.277466
H58	H	0.101923	-0.578579	-0.248728
O59	O	-0.519771	-1.176104	0.000061
C60	C	-0.581473	-1.238210	0.000092
H61	H	-0.636874	-1.210713	-0.027952
H62	H	-0.564427	-1.293407	-0.042881
H63	H	-0.593011	-1.260729	0.071130
O64	O	0.248944	-1.042792	0.560951
C65	C	0.239614	-1.116437	0.612571
H66	H	0.183096	-1.152556	0.592292
H67	H	0.291773	-1.157360	0.601133
H68	H	0.236429	-1.098948	0.686029
H69	H	0.243580	-0.438170	-0.000019
H70	H	0.037507	-0.452139	-0.134642
H71	H	0.176539	-0.547657	0.134769
O72	O	-0.266213	-0.823711	-0.000105
C73	C	-0.240605	-0.779375	-0.076783
H74	H	-0.223643	-0.825798	-0.130375
H75	H	-0.290012	-0.740113	-0.102528
H76	H	-0.187457	-0.736363	-0.059452
O77	O	0.076642	-0.845311	0.561026
C78	C	0.076118	-0.846584	0.654877
H79	H	0.111880	-0.900576	0.679594
H80	H	0.103019	-0.784661	0.681284
H81	H	0.013035	-0.855542	0.679642
H82	H	0.135160	-1.142018	0.444432
H83	H	-0.113356	-0.849634	0.000061
H84	H	0.037542	-0.452150	0.134774
O85	O	0.218686	-0.888158	0.439420
C86	C	0.293072	-0.910908	0.469700
H87	H	0.290869	-0.980735	0.486340
H88	H	0.338679	-0.897318	0.415431
H89	H	0.309818	-0.873067	0.531813
O90	O	-0.004363	-1.112016	0.560519
C91	C	0.011901	-1.193029	0.530086
H92	H	0.077062	-1.195282	0.513529
H93	H	-0.003841	-1.241013	0.584231
H94	H	-0.024367	-1.208300	0.467892
H95	H	-0.147175	-1.124879	0.000108
O96	O	-0.034777	-0.957001	0.439128
C97	C	-0.025215	-0.884208	0.386207
H98	H	0.037662	-0.878267	0.360222
H99	H	-0.067758	-0.888830	0.327644
H100	H	-0.037817	-0.826667	0.427960
O101	O	-0.680442	-1.161452	-0.000073
C102	C	-0.728189	-1.161716	-0.076747
H103	H	-0.698326	-1.120902	-0.130346
H104	H	-0.737356	-1.228723	-0.102484
H105	H	-0.787491	-1.135736	-0.059414
O106	O	-0.643545	-0.862330	0.000001
C107	C	-0.581846	-0.800220	0.000007
H108	H	-0.526445	-0.827729	-0.028017
H109	H	-0.598898	-0.745047	-0.042995
H110	H	-0.570304	-0.777662	0.071035
H111	H	-0.391130	-1.098927	0.000061
O112	O	-0.482824	-0.877023	0.000170
C113	C	-0.435099	-0.876736	0.076863
H114	H	-0.430971	-0.943698	0.102436
H115	H	-0.373810	-0.849831	0.059612
H116	H	-0.461925	-0.836447	0.130557
O117	O	-0.399677	-0.888321	-0.000094
C118	C	-0.374070	-0.843977	-0.076767
H119	H	-0.357098	-0.890395	-0.130360
H120	H	-0.423481	-0.804722	-0.102514
H121	H	-0.320928	-0.800959	-0.059429
H122	H	-0.029389	-0.561807	-0.000005
