data_functionalizedCrystal
_audit_creation_method	'MofGen! by Chris Wilmer'
_symmetry_space_group_name_H-M	'P1'
_symmetry_Int_Tables_number	1
_symmetry_cell_setting	triclinic
loop_
_symmetry_equiv_pos_as_xyz
  x,y,z
_cell_length_a	10.908891
_cell_length_b	12.837942
_cell_length_c	10.066280
_cell_angle_alpha	98.906416
_cell_angle_beta	78.571267
_cell_angle_gamma	102.543485
loop_
_atom_site_label
_atom_site_type_symbol
_atom_site_fract_x
_atom_site_fract_y
_atom_site_fract_z
O1	O	-1.666581	-0.167253	-0.113472
O2	O	-1.302416	-0.087974	-0.113478
O3	O	-1.476425	-0.277123	-0.113467
O4	O	-1.492572	0.021897	-0.113483
O5	O	-1.512586	-0.256236	0.113506
O6	O	-1.338578	-0.067086	0.113495
O7	O	-1.702742	-0.146366	0.113501
Zn8	Zn	-1.526401	-0.103409	0.149535
Zn9	Zn	-1.478757	-0.130930	-0.149512
O10	O	-1.528734	0.042784	0.113490
C11	C	-1.273562	-0.070121	0.000008
C12	C	-1.133709	-0.048056	0.000006
C13	C	-1.074850	-0.128563	0.000010
C14	C	-0.930304	-0.105760	0.000008
C15	C	-1.489050	-0.304360	0.000019
C16	C	-1.472778	-0.416632	0.000016
C17	C	-1.668386	-0.691315	-0.000009
C18	C	-1.653103	-0.796806	-0.000012
C19	C	-1.426929	-0.733109	-0.000001
C20	C	-1.442212	-0.627618	0.000002
C21	C	-1.562944	-0.606725	-0.000000
C22	C	-1.578228	-0.501231	0.000012
C23	C	-1.352053	-0.437537	0.000013
C24	C	-1.336770	-0.543028	0.000010
C25	C	-0.731596	-0.164217	0.000014
C26	C	-0.871449	-0.186278	0.000012
C27	C	-1.516108	0.070020	0.000001
C28	C	-1.532379	0.182292	-0.000005
N29	N	-1.558927	-0.084630	0.353626
N30	N	-1.446241	-0.149719	-0.353603
C31	C	-1.515111	-0.109950	0.578588
C32	C	-1.490047	-0.124405	0.421432
H33	H	-0.928060	-0.272092	0.000007
H34	H	-1.592625	-0.065197	0.636882
Br35	Br	-1.039350	0.094965	-0.000019
H36	H	-1.266197	-0.368649	0.000031
Br37	Br	-1.317024	-0.224295	0.549251
H38	H	-1.412518	-0.169150	0.363143
Br39	Br	-0.835950	0.037267	-0.000017
Br40	Br	-1.742078	-0.472875	0.000023
H41	H	-1.636442	-0.039869	0.411913
H42	H	-1.738964	-0.865679	-0.000023
Br43	Br	-1.169205	-0.271586	0.000010
Br44	Br	-1.172924	-0.571395	-0.000004
H45	H	-1.328631	-0.750142	-0.000014
Br46	Br	-1.832238	-0.662950	0.000030
