data_functionalizedCrystal
_audit_creation_method	'MofGen! by Chris Wilmer'
_symmetry_space_group_name_H-M	'P1'
_symmetry_Int_Tables_number	1
_symmetry_cell_setting	triclinic
loop_
_symmetry_equiv_pos_as_xyz
  x,y,z
_cell_length_a	14.519709
_cell_length_b	10.654550
_cell_length_c	9.730223
_cell_angle_alpha	89.996328
_cell_angle_beta	89.996979
_cell_angle_gamma	95.917462
loop_
_atom_site_label
_atom_site_type_symbol
_atom_site_fract_x
_atom_site_fract_y
_atom_site_fract_z
O1	O	1.224719	-0.164622	0.114110
O2	O	1.724719	0.335378	0.614110
O3	O	0.956342	-0.184008	0.114152
O4	O	1.456342	0.315992	0.614152
O5	O	1.096701	0.008484	0.114122
O6	O	1.596701	0.508484	0.614122
O7	O	1.084360	-0.357114	0.114141
O8	O	1.584360	0.142886	0.614141
O9	O	1.096694	0.008487	-0.114458
O10	O	1.596694	0.508487	0.385542
O11	O	0.956335	-0.184005	-0.114428
O12	O	1.456335	0.315995	0.385572
O13	O	1.224711	-0.164618	-0.114470
O14	O	1.724711	0.335382	0.385530
Zn15	Zn	1.090522	-0.174311	-0.150741
Zn16	Zn	1.590522	0.325689	0.349259
Zn17	Zn	1.090532	-0.174315	0.150423
Zn18	Zn	1.590532	0.325685	0.650423
O19	O	1.084353	-0.357110	-0.114439
O20	O	1.584353	0.142890	0.385561
C21	C	0.921974	-0.183103	-0.000132
C22	C	1.421974	0.316897	0.499868
C23	C	0.819579	-0.180396	-0.000116
C24	C	1.319579	0.319604	0.499884
C25	C	1.095791	0.055275	-0.000167
C26	C	1.595791	0.555275	0.499833
C27	C	1.093080	0.194692	-0.000165
C28	C	1.593080	0.694692	0.499835
N29	N	1.090522	-0.174307	-0.356277
N30	N	1.590522	0.325693	0.143723
C31	C	0.444631	-0.170428	-0.000179
C32	C	0.944631	0.329572	0.499821
C33	C	0.548954	-0.173196	-0.000162
C34	C	1.048954	0.326804	0.499838
C35	C	0.632102	-0.175412	-0.000147
C36	C	1.132102	0.324588	0.499853
C37	C	0.736431	-0.178180	-0.000131
C38	C	1.236431	0.321820	0.499869
C39	C	1.259079	-0.165524	-0.000182
C40	C	1.759079	0.334476	0.499818
C41	C	1.361475	-0.168231	-0.000189
C42	C	1.861475	0.331769	0.499811
C43	C	1.085262	-0.403901	-0.000147
C44	C	1.585262	0.096099	0.499853
C45	C	1.087973	-0.543318	-0.000140
C46	C	1.587973	-0.043318	0.499860
C47	C	1.175721	0.274972	-0.000177
C48	C	1.675721	0.774972	0.499823
C49	C	1.173168	0.405968	-0.000160
C50	C	1.673168	0.905968	0.499840
C51	C	1.005326	0.376391	-0.000124
C52	C	1.505326	0.876391	0.499876
C53	C	1.007880	0.245397	-0.000131
C54	C	1.507880	0.745397	0.499869
C55	C	1.152699	-0.089104	-0.572109
C56	C	1.652699	0.410896	-0.072109
C57	C	1.152693	-0.089105	-0.428226
C58	C	1.652693	0.410895	0.071774
C59	C	1.028359	-0.259522	-0.428219
C60	C	1.528359	0.240478	0.071781
C61	C	1.028370	-0.259525	-0.572099
C62	C	1.528370	0.240475	-0.072099
N63	N	1.090539	-0.174309	0.355960
N64	N	1.590539	0.325691	0.855960
H65	H	1.245096	0.233692	-0.000202
H66	H	1.745096	0.733692	0.499798
Cl67	Cl	1.277065	0.506887	-0.000173
Cl68	Cl	1.777065	1.006887	0.499827
Cl69	Cl	0.898223	0.440145	-0.000082
Cl70	Cl	1.398223	0.940145	0.499918
H71	H	0.940579	0.180029	-0.000117
H72	H	1.440579	0.680029	0.499883
H73	H	1.203321	-0.019717	-0.630680
H74	H	1.703321	0.480283	-0.130680
Cl75	Cl	1.230842	0.018012	-0.337801
Cl76	Cl	1.730842	0.518012	0.162199
H77	H	0.977742	-0.328901	-0.369630
H78	H	1.477742	0.171099	0.130370
Cl79	Cl	0.950225	-0.366655	-0.662536
Cl80	Cl	1.450225	0.133345	-0.162536
