data_functionalizedCrystal
_audit_creation_method	'MofGen! by Chris Wilmer'
_symmetry_space_group_name_H-M	'P1'
_symmetry_Int_Tables_number	1
_symmetry_cell_setting	triclinic
loop_
_symmetry_equiv_pos_as_xyz
  x,y,z
_cell_length_a	16.120490
_cell_length_b	16.120444
_cell_length_c	11.169417
_cell_angle_alpha	87.114796
_cell_angle_beta	92.899011
_cell_angle_gamma	90.165174
loop_
_atom_site_label
_atom_site_type_symbol
_atom_site_fract_x
_atom_site_fract_y
_atom_site_fract_z
Zn1	Zn	1.254309	-0.395826	0.798891
Zn2	Zn	1.754309	0.104174	1.298891
Zn3	Zn	1.247188	-0.534851	0.607815
Zn4	Zn	1.747188	-0.034851	1.107815
Zn5	Zn	1.115291	-0.388746	0.587567
Zn6	Zn	1.615291	0.111254	1.087567
Zn7	Zn	1.108159	-0.527772	0.797800
Zn8	Zn	1.608159	-0.027772	1.297800
O9	O	1.181237	-0.461799	0.698018
O10	O	1.681237	0.038201	1.198018
O11	O	1.369728	-0.420194	0.782475
O12	O	1.869728	0.079806	1.282475
O13	O	1.229696	-0.515469	0.437179
O14	O	1.729696	-0.015469	0.937179
O15	O	1.139697	-0.273321	0.607582
O16	O	1.639697	0.226679	1.107582
O17	O	1.364496	-0.522334	0.642092
O18	O	1.864496	-0.022334	1.142092
O19	O	1.241833	-0.278522	0.762841
O20	O	1.741833	0.221478	1.262841
O21	O	1.132792	-0.408127	0.422303
O22	O	1.632792	0.091873	0.922303
O23	O	0.997981	-0.401263	0.606524
O24	O	1.497981	0.098737	1.106524
O25	O	1.127542	-0.510269	0.965894
O26	O	1.627542	-0.010269	1.465894
O27	O	0.992741	-0.503404	0.760981
O28	O	1.492741	-0.003404	1.260981
O29	O	1.234918	-0.413330	0.966696
O30	O	1.734918	0.086670	1.466696
O31	O	1.222781	-0.650276	0.641034
O32	O	1.722781	-0.150276	1.141034
O33	O	1.120637	-0.645075	0.780615
O34	O	1.620637	-0.145075	1.280615
C35	C	0.965189	-0.450798	0.681438
C36	C	1.465189	0.049202	1.181438
C37	C	0.872762	-0.446111	0.674375
C38	C	1.372762	0.053889	1.174375
C39	C	0.659780	-0.486101	0.734658
C40	C	1.159780	0.013899	1.234658
C41	C	0.703542	-0.437563	0.661478
C42	C	1.203542	0.062437	1.161478
C43	C	0.797705	-0.442321	0.668656
C44	C	1.297705	0.057679	1.168656
C45	C	0.565608	-0.481344	0.727481
C46	C	1.065608	0.018656	1.227481
C47	C	1.170185	-0.677849	0.712931
C48	C	1.670185	-0.177849	1.212931
C49	C	1.165532	-0.770280	0.719357
C50	C	1.665532	-0.270280	1.219357
C51	C	1.205574	-0.983246	0.664958
C52	C	1.705574	-0.483246	1.164958
C53	C	1.157054	-0.939508	0.731103
C54	C	1.657054	-0.439508	1.231103
C55	C	1.161773	-0.845341	0.724565
C56	C	1.661773	-0.345341	1.224565
C57	C	1.200856	-1.077422	0.671494
C58	C	1.700856	-0.577422	1.171494
C59	C	1.398128	-0.472843	0.714664
C60	C	1.898128	0.027157	1.214664
C61	C	1.490554	-0.477550	0.721757
C62	C	1.990554	0.022450	1.221757
C63	C	1.181229	-0.461800	1.011060
C64	C	1.681229	0.038200	1.511060
C65	C	1.181225	-0.461800	1.144460
C66	C	1.681225	0.038200	1.644460
C67	C	1.192355	-0.244906	0.683075
C68	C	1.692355	0.255094	1.183075
C69	C	1.197093	-0.152479	0.676707
C70	C	1.697093	0.347521	1.176707
C71	C	1.181234	-0.461812	1.386194
C72	C	1.681234	0.038188	1.886194
C73	C	1.181228	-0.461801	1.252793
C74	C	1.681228	0.038199	1.752793
H75	H	0.693031	-0.531226	0.802693
H76	H	1.193031	-0.031226	1.302693
H77	H	0.670288	-0.392435	0.593436
H78	H	1.170288	0.107565	1.093436
H79	H	1.250653	-0.949972	0.603423
H80	H	1.750653	-0.449972	1.103423
H81	H	1.111971	-0.972786	0.792640
H82	H	1.611971	-0.472786	1.292640
