data_functionalizedCrystal
_audit_creation_method	'MofGen! by Chris Wilmer'
_symmetry_space_group_name_H-M	'P1'
_symmetry_Int_Tables_number	1
_symmetry_cell_setting	triclinic
loop_
_symmetry_equiv_pos_as_xyz
  x,y,z
_cell_length_a	17.077404
_cell_length_b	17.637651
_cell_length_c	17.077396
_cell_angle_alpha	101.244719
_cell_angle_beta	90.019501
_cell_angle_gamma	101.218991
loop_
_atom_site_label
_atom_site_type_symbol
_atom_site_fract_x
_atom_site_fract_y
_atom_site_fract_z
Zn1	Zn	1.136911	-0.314758	0.380585
Zn2	Zn	1.110293	-0.446980	0.222746
Zn3	Zn	1.005637	-0.314786	0.249327
Zn4	Zn	0.979095	-0.446933	0.353979
O5	O	1.057984	-0.380865	0.301659
O6	O	1.243225	-0.332306	0.359658
O7	O	1.096378	-0.429476	0.116419
O8	O	1.045299	-0.204143	0.288998
O9	O	1.223669	-0.429449	0.243694
O10	O	1.141745	-0.204122	0.385433
O11	O	1.019488	-0.332353	0.135948
O12	O	0.892271	-0.332308	0.263199
O13	O	1.000061	-0.429369	0.467362
O14	O	0.872771	-0.429396	0.340087
O15	O	1.116008	-0.332260	0.486909
O16	O	1.070641	-0.557614	0.217895
O17	O	0.974251	-0.557579	0.314312
C18	C	0.854039	-0.380850	0.301641
C19	C	0.766787	-0.380863	0.301647
C20	C	1.016699	-0.586284	0.260349
C21	C	0.999109	-0.674163	0.242703
C22	C	0.715648	-0.431493	0.341587
C23	C	0.633667	-0.431495	0.341599
C24	C	0.602826	-0.380870	0.301667
C25	C	0.653971	-0.330234	0.261726
C26	C	0.735951	-0.330229	0.261719
C27	C	0.483098	-0.330250	0.261742
C28	C	0.401113	-0.330256	0.261748
C29	C	0.380814	-0.431516	0.341622
C30	C	0.462794	-0.431511	0.341615
C31	C	0.513934	-0.380876	0.301673
C32	C	1.192124	-0.962840	0.435965
C33	C	1.175571	-1.045416	0.419370
C34	C	1.075208	-1.045545	0.318856
C35	C	1.091756	-0.962967	0.335440
C36	C	1.150214	-0.921621	0.393996
C37	C	1.049846	-0.921748	0.293470
C38	C	1.066390	-0.839177	0.310056
C39	C	1.124843	-0.797826	0.368611
C40	C	1.166758	-0.839051	0.410582
C41	C	0.991384	-0.963095	0.234919
C42	C	0.949474	-0.921876	0.192949
C43	C	0.966021	-0.839304	0.209531
C44	C	1.024475	-0.797953	0.268086
C45	C	0.924107	-0.798080	0.167561
C46	C	0.940651	-0.715509	0.184147
C47	C	1.041019	-0.715382	0.284672
C48	C	1.262725	-0.380880	0.301679
C49	C	1.349974	-0.380886	0.301687
C50	C	1.058043	-0.380806	0.506416
C51	C	1.058068	-0.380782	0.593670
C52	C	1.099452	-0.174643	0.343148
C53	C	1.117123	-0.086764	0.360828
C54	C	1.057982	-0.380866	0.097711
C55	C	1.058153	-0.380668	0.010502
C56	C	1.118444	-0.330213	0.644841
C57	C	1.118459	-0.330187	0.726827
C58	C	1.058100	-0.380733	0.757640
C59	C	0.997718	-0.431304	0.706463
C60	C	0.997701	-0.431326	0.624479
C61	C	0.997759	-0.431257	0.877343
C62	C	0.997777	-0.431236	0.959331
C63	C	1.118518	-0.330117	0.979690
C64	C	1.118500	-0.330139	0.897706
C65	C	1.058119	-0.380711	0.846535
H66	H	0.740751	-0.472721	0.374101
F67	F	0.861884	-0.842093	0.105254
F68	F	0.933439	-0.485146	0.570020
F69	F	1.182741	-0.276392	0.781278
F70	F	0.790378	-0.276340	0.219212
H71	H	0.948626	-0.472394	0.984416
H72	H	0.376007	-0.289023	0.229242
H73	H	0.487901	-0.472738	0.374126
F74	F	0.579244	-0.485382	0.384108
H75	H	0.339172	-0.472742	0.374147
F76	F	0.537524	-0.276357	0.219232
H77	H	0.628855	-0.289011	0.229217
H78	H	1.088628	-0.681717	0.332349
H79	H	0.906522	-0.681948	0.149971
H80	H	1.027609	-1.079220	0.271181
F81	F	1.254351	-0.918832	0.498279
F82	F	1.142256	-0.709947	0.386458
F83	F	1.228985	-0.795043	0.472896
H84	H	0.948571	-0.472458	0.731558
F85	F	1.182781	-0.276295	1.034151
F86	F	1.220186	-1.089282	0.464040
F87	F	1.182745	-0.276346	0.864914
H88	H	0.977908	-1.030329	0.221424
F89	F	0.887255	-0.965888	0.130637
F90	F	1.182691	-0.276417	0.612055
H91	H	0.948581	-0.472426	0.835683
