data_functionalizedCrystal
_audit_creation_method	'MofGen! by Chris Wilmer'
_symmetry_space_group_name_H-M	'P1'
_symmetry_Int_Tables_number	1
_symmetry_cell_setting	triclinic
loop_
_symmetry_equiv_pos_as_xyz
  x,y,z
_cell_length_a	27.440280
_cell_length_b	18.760487
_cell_length_c	18.760492
_cell_angle_alpha	90.035544
_cell_angle_beta	59.992235
_cell_angle_gamma	60.028988
loop_
_atom_site_label
_atom_site_type_symbol
_atom_site_fract_x
_atom_site_fract_y
_atom_site_fract_z
Zr1	Zr	0.533413	0.686795	-0.093190
O2	O	0.635082	0.572997	-0.207091
O3	O	0.431747	0.721665	-0.058264
O4	O	0.533416	0.721683	-0.206987
O5	O	0.533410	0.572982	0.058937
O6	O	0.533416	0.838986	-0.206914
O7	O	0.533413	0.572979	-0.058368
O8	O	0.351548	0.838953	0.059124
O9	O	0.715278	0.573014	-0.207101
O10	O	0.473563	0.824096	-0.043325
O11	O	0.473561	0.736556	0.044164
O12	O	0.593263	0.736578	-0.130938
O13	O	0.593261	0.649038	-0.043448
Zr14	Zr	0.533409	0.873884	0.094013
Zr15	Zr	0.533413	0.873879	-0.093075
Zr16	Zr	0.533409	0.686799	0.093898
Zr17	Zr	0.661316	0.686822	-0.093206
Zr18	Zr	0.405506	0.873856	0.094029
O19	O	0.635075	0.839014	0.059087
O20	O	0.635082	0.839007	-0.206928
O21	O	0.635076	0.573003	0.058923
O22	O	0.431740	0.987681	0.207915
O23	O	0.431746	0.987675	-0.058100
O24	O	0.431740	0.721671	0.207751
O25	O	0.533412	0.987697	-0.058113
O26	O	0.533406	0.838996	0.207810
O27	O	0.533406	0.721693	0.207738
O28	O	0.533409	0.987699	0.059192
O29	O	0.715278	0.721722	-0.207010
O30	O	0.351544	0.838957	0.207833
O31	O	0.351544	0.987664	0.207925
O32	O	0.351548	0.987660	0.059215
O33	O	0.715274	0.573018	-0.058392
O34	O	0.715274	0.721725	-0.058300
O35	O	0.473559	0.824100	0.131761
O36	O	0.473561	0.911640	0.044272
O37	O	0.593261	0.824122	-0.043341
O38	O	0.593259	0.736582	0.044149
C39	C	0.373424	0.780305	0.000432
C40	C	0.319126	0.780293	0.000439
C41	C	0.040241	0.844963	0.065085
C42	C	0.091263	0.844955	0.065088
O43	O	0.080085	0.899920	0.120070
N44	N	0.160955	0.780331	0.000422
C45	C	0.179626	0.715715	-0.064258
O46	O	0.243590	0.660747	-0.119262
C47	C	0.128605	0.715728	-0.064264
C48	C	0.058912	0.780351	0.000412
C49	C	-0.029449	0.909582	0.129755
C50	C	-0.080467	0.909589	0.129753
C51	C	-0.061796	0.844977	0.065080
C52	C	0.007894	0.780358	0.000409
C53	C	0.147276	0.651116	-0.128946
C54	C	0.096247	0.651135	-0.128947
C55	C	0.026554	0.715758	-0.064271
C56	C	-0.024454	0.715753	-0.064266
N57	N	-0.094146	0.780377	0.000401
C58	C	-0.112817	0.844989	0.065074
C59	C	0.286772	0.715695	-0.064241
C60	C	0.337793	0.715678	-0.064232
C61	C	0.249425	0.844919	0.065114
C62	C	0.198404	0.844932	0.065108
C63	C	0.217079	0.780319	0.000426
C64	C	-0.219956	0.844998	0.065063
C65	C	-0.270975	0.844997	0.065057
C66	C	-0.182603	0.715759	-0.064291
C67	C	-0.131589	0.715757	-0.064282
C68	C	-0.150270	0.780384	0.000399
O69	O	-0.013327	0.660818	-0.119222
O70	O	-0.176781	0.899955	0.120062
C71	C	0.533411	0.546325	0.000268
C72	C	0.533411	0.466903	0.000219
C73	C	0.595896	0.085402	-0.045169
C74	C	0.470926	0.176777	0.046300
C75	C	0.470925	0.251399	0.046225
C76	C	0.533411	0.243025	0.000451
C77	C	0.595897	0.160030	-0.045248
C78	C	0.408440	0.334400	0.091915
C79	C	0.408437	0.409028	0.091841
C80	C	0.470923	0.400655	0.046072
C81	C	0.533411	0.317653	0.000372
C82	C	0.595897	0.309279	-0.045401
C83	C	0.658386	0.226278	-0.091097
C84	C	0.658383	0.151656	-0.091017
C85	C	0.470926	0.475276	0.045993
C86	C	0.595898	0.383907	-0.045480
C87	C	0.693398	0.780373	0.000391
C88	C	0.747696	0.780385	0.000384
C89	C	0.533417	0.780334	-0.233607
C90	C	0.533419	0.780332	-0.313030
C91	C	0.533411	1.014353	0.000556
C92	C	0.533411	1.093776	0.000605
C93	C	0.533421	0.715704	-0.350385
C94	C	0.533413	0.844962	-0.350301
C95	C	0.533411	0.844966	-0.424921
C96	C	0.533413	0.780338	-0.462276
C97	C	0.533417	0.715707	-0.425010
C98	C	0.533400	0.909601	-0.462187
C99	C	0.533397	0.909607	-0.536811
C100	C	0.533404	0.844975	-0.574171
C101	C	0.533409	0.780341	-0.536901
C102	C	0.533411	0.715713	-0.574255
C103	C	0.533421	0.651074	-0.536991
C104	C	0.533424	0.651075	-0.462369
C105	C	0.533401	0.844974	-0.648792
C106	C	0.533407	0.715716	-0.648881
C107	C	0.533405	0.780345	0.234430
C108	C	0.533403	0.780347	0.313854
C109	C	0.373424	1.014319	0.000576
C110	C	0.319125	1.093730	0.000632
C111	C	0.373418	0.780311	0.234450
C112	C	0.319118	0.780301	0.313881
C113	C	0.373418	1.014325	0.234594
C114	C	0.319118	1.093737	0.314074
C115	C	0.693404	0.546353	-0.233771
C116	C	0.747704	0.466941	-0.313251
C117	C	0.693398	0.546359	0.000247
C118	C	0.747697	0.466948	0.000191
C119	C	0.693404	0.780368	-0.233627
C120	C	0.747704	0.780377	-0.313058
C121	C	0.293628	1.085325	-0.045074
C122	C	0.242616	1.159933	-0.045039
C123	C	0.217099	1.242945	0.000708
C124	C	0.242602	1.251348	0.046415
C125	C	0.293616	1.176741	0.046375
C126	C	0.293617	0.825993	0.396915
C127	C	0.242603	0.825981	0.471556
C128	C	0.217088	0.780281	0.463160
C129	C	0.242594	0.734582	0.380118
C130	C	0.293611	0.734590	0.305479
C131	C	0.293619	1.176733	0.305730
C132	C	0.242605	1.251357	0.380402
C133	C	0.217088	1.242983	0.463418
C134	C	0.242592	1.159979	0.471760
C135	C	0.293608	1.085357	0.397089
C136	C	0.773209	0.383945	-0.304906
C137	C	0.824239	0.309321	-0.379579
C138	C	0.849759	0.317695	-0.462594
C139	C	0.824252	0.400700	-0.470937
C140	C	0.773227	0.475322	-0.396265
C141	C	0.773200	0.475353	0.045890
C142	C	0.824226	0.400746	0.045834
C143	C	0.849744	0.317734	0.000085
C144	C	0.824239	0.309331	-0.045620
C145	C	0.773217	0.383937	-0.045569
C146	C	0.773203	0.826087	-0.304634
C147	C	0.824217	0.826113	-0.379261
C148	C	0.849734	0.780424	-0.462310
C149	C	0.824230	0.734714	-0.470731
C150	C	0.773214	0.734693	-0.396106
H151	H	-0.044663	0.962201	0.182421
H152	H	0.752458	0.697467	-0.402976
O153	O	0.745705	0.374868	-0.094851
H154	H	0.772020	0.304609	-0.126661
O155	O	0.533415	0.646006	-0.689176
H156	H	0.580137	0.608766	-0.757373
O157	O	0.745678	0.875379	-0.215064
H158	H	0.771978	0.907175	-0.221759
H159	H	0.314386	0.863208	0.403768
O160	O	0.851717	0.409826	0.095146
H161	H	0.891488	0.344007	0.087424
H162	H	-0.137211	0.962214	0.182416
O163	O	0.123237	0.914642	0.134853
H164	H	0.118833	0.959569	0.179817
O165	O	0.215071	0.685297	0.371060
H166	H	0.191829	0.711706	0.334844
O167	O	0.533426	0.581366	-0.577283
H168	H	0.533424	0.592231	-0.635433
H169	H	0.175548	0.780281	0.523943
O170	O	0.162077	1.323407	0.000743
H171	H	0.148617	1.382547	0.040225
H172	H	0.314388	1.183568	0.238141
H173	H	0.845015	0.697515	-0.538360
H174	H	0.420048	0.542852	0.083205
O175	O	0.533404	0.581383	-0.422157
H176	H	0.533388	0.592254	-0.363980
H177	H	0.752427	0.542939	0.083151
O178	O	-0.346145	0.914704	0.134820
H179	H	-0.378490	0.903855	0.123963
H180	H	0.533406	0.897584	-0.319881
O181	O	0.851721	0.875414	-0.370168
H182	H	0.825412	0.907165	-0.299881
H183	H	0.314370	1.183597	0.083600
O184	O	-0.240106	0.914695	0.134829
H185	H	-0.297140	0.959618	0.179798
H186	H	0.533393	0.962222	-0.431767
O187	O	0.215095	1.340877	0.371395
H188	H	0.241402	1.334156	0.301123
O189	O	0.533413	0.646007	-0.310177
H190	H	0.580129	0.608757	-0.310367
H191	H	0.752461	0.542898	-0.403070
H192	H	0.357568	0.341210	0.129182
H193	H	0.891276	0.780448	-0.523067
O194	O	0.533396	0.914678	-0.688991
H195	H	0.533398	0.959614	-0.650482
H196	H	0.646773	0.017820	-0.082370
O197	O	0.725764	0.217291	-0.140522
H198	H	0.728777	0.249198	-0.094466
O199	O	0.904801	0.237202	-0.543126
H200	H	0.885221	0.197790	-0.543097
O201	O	0.533405	0.979306	-0.577017
H202	H	0.533413	1.024237	-0.538511
O203	O	0.725779	0.062139	-0.140317
H204	H	0.715279	0.011657	-0.132584
H205	H	0.844998	0.241743	-0.372769
H206	H	0.221842	0.863197	0.539165
H207	H	0.234230	0.897530	0.117774
H208	H	0.891289	0.256991	0.000050
H209	H	0.394537	0.663046	-0.116888
H210	H	0.314403	1.017740	-0.082338
H211	H	0.845037	0.407508	-0.538537
O212	O	0.321120	0.685361	0.215893
H213	H	0.311311	0.731547	0.179791
O214	O	-0.056418	0.646052	-0.134034
H215	H	-0.031052	0.677128	-0.171272
O216	O	0.851765	0.219795	-0.094963
H217	H	0.891522	0.169336	-0.087308
H218	H	0.175547	1.303752	0.524213
H219	H	0.221857	1.153074	-0.082260
O220	O	0.306915	0.645997	-0.134001
H221	H	0.337876	0.580846	-0.130855
O222	O	0.222438	0.581427	-0.198717
H223	H	0.226837	0.536518	-0.243692
H224	H	0.221819	1.318946	0.083661
O225	O	0.215058	1.150951	0.561300
H226	H	0.175292	1.216789	0.611814
O227	O	0.321091	0.995843	0.406102
H228	H	0.344324	0.988258	0.442342
O229	O	0.116389	0.581441	-0.198709
H230	H	0.173423	0.536504	-0.243671
H231	H	-0.167412	0.663151	-0.116943
H232	H	0.646781	0.377077	-0.082745
H233	H	0.752434	0.377110	-0.237318
H234	H	0.420054	0.183589	0.083563
H235	H	0.357554	0.476605	0.129048
