data_functionalizedCrystal
_audit_creation_method	'MofGen! by Chris Wilmer'
_symmetry_space_group_name_H-M	'P1'
_symmetry_Int_Tables_number	1
_symmetry_cell_setting	triclinic
loop_
_symmetry_equiv_pos_as_xyz
  x,y,z
_cell_length_a	19.077713
_cell_length_b	16.625547
_cell_length_c	19.076919
_cell_angle_alpha	92.276735
_cell_angle_beta	94.658599
_cell_angle_gamma	87.732996
loop_
_atom_site_label
_atom_site_type_symbol
_atom_site_fract_x
_atom_site_fract_y
_atom_site_fract_z
Zn1	Zn	-0.296667	1.227387	-0.409952
Zn2	Zn	0.036667	1.560721	-0.076619
Zn3	Zn	0.370000	1.894054	0.256715
Zn4	Zn	-0.409812	1.237695	-0.296806
Zn5	Zn	-0.076479	1.571028	0.036527
Zn6	Zn	0.256855	1.904362	0.369861
Zn7	Zn	-0.291951	1.097767	-0.292073
Zn8	Zn	0.041383	1.431100	0.041260
Zn9	Zn	0.374716	1.764433	0.374593
Zn10	Zn	-0.414508	1.097707	-0.414641
Zn11	Zn	-0.081175	1.431041	-0.081307
Zn12	Zn	0.252159	1.764374	0.252026
O13	O	-0.353234	1.165139	-0.353368
O14	O	-0.019901	1.498472	-0.020035
O15	O	0.313432	1.831806	0.313299
O16	O	-0.311684	1.341587	-0.394962
O17	O	0.021649	1.674920	-0.061628
O18	O	0.354983	2.008253	0.271705
O19	O	-0.390239	1.223472	-0.197531
O20	O	-0.056905	1.556805	0.135802
O21	O	0.276428	1.890139	0.469136
O22	O	-0.193934	1.110672	-0.303767
O23	O	0.139400	1.444006	0.029566
O24	O	0.472733	1.777339	0.362899
O25	O	-0.394811	1.349160	-0.311833
O26	O	-0.061478	1.682493	0.021500
O27	O	0.271855	2.015826	0.354833
O28	O	-0.197399	1.205904	-0.390372
O29	O	0.135935	1.539237	-0.057039
O30	O	0.469268	1.872571	0.276294
O31	O	-0.303646	1.120667	-0.194054
O32	O	0.029687	1.454001	0.139279
O33	O	0.363020	1.787334	0.472613
O34	O	-0.308200	0.984927	-0.308314
O35	O	0.025134	1.318260	0.025020
O36	O	0.358467	1.651594	0.358353
O37	O	-0.402815	1.110571	-0.512666
O38	O	-0.069482	1.443904	-0.179332
O39	O	0.263852	1.777238	0.154001
O40	O	-0.398242	0.984883	-0.398363
O41	O	-0.064909	1.318217	-0.065030
O42	O	0.268425	1.651550	0.268303
O43	O	-0.316237	1.205846	-0.509221
O44	O	0.017096	1.539180	-0.175888
O45	O	0.350429	1.872513	0.157446
O46	O	-0.509077	1.223414	-0.316380
O47	O	-0.175744	1.556748	0.016954
O48	O	0.157589	1.890081	0.350287
O49	O	-0.512527	1.120566	-0.402952
O50	O	-0.179194	1.453899	-0.069619
O51	O	0.154139	1.787233	0.263714
C52	C	-0.353219	0.955649	-0.353334
C53	C	-0.019886	1.288983	-0.020001
C54	C	0.313447	1.622316	0.313333
C55	C	-0.353230	0.866028	-0.353337
C56	C	-0.019897	1.199362	-0.020004
C57	C	0.313436	1.532695	0.313330
C58	C	-0.353232	0.793246	-0.353346
C59	C	-0.019899	1.126579	-0.020012
C60	C	0.313434	1.459912	0.313321
C61	C	-0.353237	0.701937	-0.353364
C62	C	-0.019903	1.035270	-0.020030
C63	C	0.313430	1.368603	0.313303
C64	C	-0.353244	0.629160	-0.353382
C65	C	-0.019910	0.962493	-0.020048
C66	C	0.313423	1.295826	0.313285
C67	C	-0.353249	0.537845	-0.353399
C68	C	-0.019916	0.871178	-0.020066
C69	C	0.313417	1.204512	0.313268
C70	C	-0.536380	1.173123	-0.360704
C71	C	-0.203047	1.506457	-0.027370
C72	C	0.130287	1.839790	0.305963
C73	C	-0.614731	1.176612	-0.363866
C74	C	-0.281398	1.509945	-0.030532
C75	C	0.051935	1.843279	0.302801
C76	C	-1.055954	1.201630	-0.386523
C77	C	-0.722621	1.534963	-0.053189
C78	C	-0.389288	1.868297	0.280144
C79	C	-0.982335	1.198344	-0.383545
C80	C	-0.649001	1.531677	-0.050212
C81	C	-0.315668	1.865010	0.283121
C82	C	-0.943786	1.147161	-0.336936
C83	C	-0.610453	1.480494	-0.003603
C84	C	-0.277119	1.813827	0.329731
C85	C	-0.978861	1.099267	-0.293296
C86	C	-0.645527	1.432600	0.040037
C87	C	-0.312194	1.765934	0.373371
C88	C	-1.052479	1.102558	-0.296270
C89	C	-0.719145	1.435892	0.037063
C90	C	-0.385812	1.769225	0.370397
C91	C	-0.723424	1.132010	-0.323200
C92	C	-0.390091	1.465343	0.010134
C93	C	-0.056757	1.798676	0.343467
C94	C	-0.649801	1.128720	-0.320230
C95	C	-0.316468	1.462054	0.013103
C96	C	0.016866	1.795387	0.346436
C97	C	-0.653280	1.227798	-0.410479
C98	C	-0.319947	1.561132	-0.077146
C99	C	0.013387	1.894465	0.256187
C100	C	-0.726900	1.231081	-0.413452
C101	C	-0.393566	1.564415	-0.080119
C102	C	-0.060233	1.897748	0.253214
C103	C	-0.761968	1.183191	-0.369810
C104	C	-0.428634	1.516524	-0.036476
C105	C	-0.095301	1.849858	0.296857
N106	N	-0.868535	1.143798	-0.333893
N107	N	-0.535201	1.477132	-0.000560
N108	N	-0.201868	1.810465	0.332773
N109	N	-0.837217	1.186558	-0.372849
N110	N	-0.503884	1.519891	-0.039516
N111	N	-0.170551	1.853225	0.293818
C112	C	-0.169374	1.157145	-0.346019
C113	C	0.163959	1.490478	-0.012686
C114	C	0.497293	1.823812	0.320648
C115	C	-0.091024	1.153738	-0.342887
C116	C	0.242309	1.487072	-0.009554
C117	C	0.575643	1.820405	0.323779
C118	C	-0.360576	1.157052	-0.537237
C119	C	-0.027243	1.490386	-0.203903
C120	C	0.306091	1.823719	0.129430
C121	C	-0.363705	1.153606	-0.615591
C122	C	-0.030371	1.486939	-0.282257
C123	C	0.302962	1.820273	0.051076
C124	C	-0.353250	1.375447	-0.353402
C125	C	-0.019917	1.708780	-0.020069
C126	C	0.313417	2.042114	0.313264
C127	C	-0.353257	1.465068	-0.353417
C128	C	-0.019923	1.798401	-0.020084
C129	C	0.313410	2.131735	0.313250
C130	C	-0.320100	1.201589	-0.650609
C131	C	0.013233	1.534923	-0.317276
C132	C	0.346567	1.868256	0.016057
C133	C	-0.323037	1.198341	-0.724231
C134	C	0.010296	1.531675	-0.390898
C135	C	0.343630	1.865008	-0.057564
C136	C	-0.369582	1.147114	-0.762833
C137	C	-0.036249	1.480447	-0.429500
C138	C	0.297084	1.813781	-0.096166
C139	C	-0.413189	1.099125	-0.727809
C140	C	-0.079855	1.432459	-0.394476
C141	C	0.253478	1.765792	-0.061143
C142	C	-0.410248	1.102370	-0.654189
C143	C	-0.076914	1.435703	-0.320855
C144	C	0.256419	1.769036	0.012478
C145	C	-0.383208	1.132088	-0.983207
C146	C	-0.049875	1.465421	-0.649874
C147	C	0.283458	1.798755	-0.316540
C148	C	-0.386148	1.128849	-1.056832
C149	C	-0.052814	1.462182	-0.723499
C150	C	0.280519	1.795516	-0.390166
C151	C	-0.295995	1.228064	-1.053249
C152	C	0.037339	1.561398	-0.719916
C153	C	0.370672	1.894731	-0.386582
C154	C	-0.293061	1.231308	-0.979627
C155	C	0.040273	1.564641	-0.646294
C156	C	0.373606	1.897974	-0.312961
C157	C	-0.336664	1.183316	-0.944610
C158	C	-0.003331	1.516649	-0.611277
C159	C	0.330002	1.849983	-0.277943
N160	N	-0.372587	1.143795	-0.838086
N161	N	-0.039254	1.477128	-0.504753
N162	N	0.294080	1.810461	-0.171420
N163	N	-0.333656	1.186632	-0.869358
N164	N	-0.000322	1.519965	-0.536025
N165	N	0.333011	1.853298	-0.202691
C166	C	-0.345870	1.173239	-0.170213
C167	C	-0.012537	1.506572	0.163121
C168	C	0.320796	1.839905	0.496454
C169	C	-0.342543	1.176832	-0.091851
C170	C	-0.009210	1.510166	0.241482
C171	C	0.324123	1.843499	0.574816
H172	H	-1.087336	1.243300	-0.424484
H173	H	-0.754002	1.576634	-0.091151
H174	H	-0.420669	1.909967	0.242183
H175	H	-0.255160	1.273025	-0.948203
H176	H	0.078173	1.606358	-0.614869
H177	H	0.411506	1.939691	-0.281536
H178	H	-0.282200	1.243307	-0.619185
H179	H	0.051133	1.576640	-0.285851
H180	H	0.384467	1.909974	0.047482
Br181	Br	-0.442384	1.066955	-0.935692
Br182	Br	-0.109050	1.400288	-0.602359
Br183	Br	0.224283	1.733621	-0.269026
Br184	Br	-1.100074	1.037566	-0.237043
Br185	Br	-0.766741	1.370899	0.096290
Br186	Br	-0.433407	1.704233	0.429624
H187	H	-0.445748	1.063288	-0.625677
H188	H	-0.112415	1.396622	-0.292344
H189	H	0.220919	1.729955	0.040989
Br190	Br	-0.263890	1.263503	-0.771755
Br191	Br	0.069444	1.596837	-0.438422
Br192	Br	0.402777	1.930170	-0.105088
Br193	Br	-0.597485	1.059260	-0.256965
Br194	Br	-0.264151	1.392593	0.076369
Br195	Br	0.069182	1.725926	0.409702
H196	H	-0.953781	1.237341	-0.419076
H197	H	-0.620448	1.570675	-0.085743
H198	H	-0.287115	1.904008	0.247590
Br199	Br	-0.236820	1.293191	-1.100776
Br200	Br	0.096513	1.626524	-0.767443
Br201	Br	0.429846	1.959857	-0.434109
Br202	Br	-0.449318	1.059319	-1.109221
Br203	Br	-0.115985	1.392652	-0.775888
Br204	Br	0.217349	1.725985	-0.442554
Br205	Br	-0.476354	1.029596	-0.780197
Br206	Br	-0.143021	1.362930	-0.446863
Br207	Br	0.190313	1.696263	-0.113530
H208	H	-0.758281	1.272770	-0.451398
H209	H	-0.424947	1.606103	-0.118065
H210	H	-0.091614	1.939436	0.215268
H211	H	-0.751968	1.093014	-0.287663
H212	H	-0.418634	1.426347	0.045671
H213	H	-0.085301	1.759680	0.379004
Br214	Br	-0.926545	1.029809	-0.230035
Br215	Br	-0.593212	1.363143	0.103299
Br216	Br	-0.259879	1.696476	0.436632
Br217	Br	-0.605684	1.292788	-0.469706
Br218	Br	-0.272351	1.626121	-0.136373
Br219	Br	0.060983	1.959454	0.196961
