data_functionalizedCrystal
_audit_creation_method	'MofGen! by Chris Wilmer'
_symmetry_space_group_name_H-M	'P1'
_symmetry_Int_Tables_number	1
_symmetry_cell_setting	triclinic
loop_
_symmetry_equiv_pos_as_xyz
  x,y,z
_cell_length_a	21.295420
_cell_length_b	21.295417
_cell_length_c	13.033255
_cell_angle_alpha	97.149399
_cell_angle_beta	82.798508
_cell_angle_gamma	90.025484
loop_
_atom_site_label
_atom_site_type_symbol
_atom_site_fract_x
_atom_site_fract_y
_atom_site_fract_z
Zn1	Zn	1.007516	-0.295863	-0.590829
Zn2	Zn	0.994063	-0.387772	-0.416074
Zn3	Zn	0.888885	-0.282515	-0.416104
Zn4	Zn	0.902205	-0.401086	-0.590761
O5	O	0.948167	-0.341809	-0.503442
O6	O	1.093822	-0.308070	-0.567664
O7	O	0.968907	-0.362652	-0.269848
O8	O	0.904677	-0.196200	-0.439322
O9	O	1.083938	-0.375595	-0.439272
O10	O	0.991835	-0.206006	-0.567692
O11	O	0.891633	-0.285320	-0.269869
O12	O	0.802561	-0.298229	-0.439256
O13	O	0.927379	-0.398286	-0.737001
O14	O	0.812347	-0.385343	-0.567576
O15	O	1.004751	-0.320979	-0.737051
O16	O	0.981822	-0.477624	-0.439206
O17	O	0.914334	-0.487406	-0.567548
C18	C	0.784613	-0.341783	-0.503413
C19	C	0.714646	-0.341789	-0.503425
C20	C	0.948083	-0.505357	-0.503389
C21	C	0.948107	-0.575326	-0.503402
C22	C	0.220345	-0.306753	-0.570420
C23	C	0.286087	-0.306749	-0.570420
C24	C	0.313810	-0.341830	-0.503466
C25	C	0.275786	-0.376932	-0.436527
C26	C	0.210045	-0.376941	-0.436536
N27	N	0.410006	-0.339579	-0.411967
N28	N	0.472457	-0.339568	-0.411961
C29	C	0.511882	-0.341807	-0.503436
N30	N	0.486497	-0.344046	-0.594919
N31	N	0.424040	-0.344055	-0.594924
C32	C	0.385094	-0.341825	-0.503449
C33	C	0.621184	-0.306706	-0.570376
C34	C	0.686928	-0.306706	-0.570378
C35	C	0.676624	-0.376885	-0.436475
C36	C	0.610883	-0.376889	-0.436483
C37	C	0.583166	-0.341796	-0.503432
C38	C	0.993471	-0.613245	-0.570292
C39	C	0.993495	-0.678990	-0.570317
C40	C	0.948161	-0.706811	-0.503434
C41	C	0.902789	-0.668883	-0.436540
C42	C	0.902762	-0.603140	-0.436523
N43	N	0.936412	-0.803080	-0.411982
N44	N	0.936441	-0.865533	-0.412001
C45	C	0.948238	-0.904889	-0.503482
N46	N	0.960017	-0.879433	-0.594945
N47	N	0.959991	-0.816974	-0.594925
C48	C	0.948184	-0.778097	-0.503445
C49	C	0.993630	-1.014097	-0.570405
C50	C	0.993650	-1.079842	-0.570433
C51	C	0.902947	-1.069734	-0.436646
C52	C	0.902924	-1.003990	-0.436628
C53	C	0.948269	-0.976175	-0.503506
C54	C	1.112360	-0.341836	-0.503472
C55	C	1.182329	-0.341848	-0.503485
C56	C	0.969051	-0.362606	-0.776002
C57	C	0.977951	-0.371469	-0.892150
C58	C	0.948271	-0.177625	-0.503518
C59	C	0.948315	-0.107659	-0.503550
C60	C	0.952886	-0.346317	-1.063994
C61	C	0.943683	-0.337155	-0.943948
C62	C	0.927401	-0.321047	-0.231943
C63	C	0.918623	-0.312007	-0.115795
H64	H	0.197783	-0.278181	-0.624939
H65	H	0.317046	-0.278168	-0.624925
C66	C	0.869791	-0.263158	-1.055649
N67	N	0.833011	-0.226363	-1.010348
C68	C	0.728746	-0.268096	-0.644013
N69	N	0.760244	-0.239012	-0.699475
C70	C	1.043559	-1.121554	-0.644016
N71	N	1.081154	-1.152972	-0.699437
C72	C	0.894848	-0.288304	-0.883806
N73	N	0.858068	-0.251508	-0.838506
H74	H	1.014102	-0.407626	-0.936670
C75	C	0.306281	-0.415519	-0.362874
N76	N	0.329251	-0.444584	-0.307397
H77	H	0.699196	-0.405455	-0.381969
H78	H	0.598616	-0.278131	-0.624890
C79	C	0.168225	-0.415543	-0.362891
N80	N	0.136725	-0.444616	-0.307416
C81	C	0.853071	-1.100334	-0.363088
N82	N	0.815499	-1.123386	-0.307688
C83	C	1.043355	-0.582653	-0.643854
N84	N	1.080929	-0.559609	-0.699260
C85	C	0.569062	-0.415486	-0.362833
N86	N	0.537563	-0.444558	-0.307356
C87	C	1.043503	-0.983499	-0.643986
N88	N	1.081065	-0.960456	-0.699411
H89	H	1.030431	-0.709871	-0.624800
C90	C	0.852942	-0.699484	-0.362928
N91	N	0.815403	-0.722532	-0.307468
C92	C	0.852854	-0.561427	-0.362939
N93	N	0.815262	-0.530008	-0.307516
C94	C	1.001576	-0.395307	-1.124140
N95	N	1.038199	-0.432259	-1.169440
C96	C	0.853017	-0.962277	-0.363048
N97	N	0.815421	-0.930859	-0.307631
