data_functionalizedCrystal
_audit_creation_method	'MofGen! by Chris Wilmer'
_symmetry_space_group_name_H-M	'P1'
_symmetry_Int_Tables_number	1
_symmetry_cell_setting	triclinic
loop_
_symmetry_equiv_pos_as_xyz
  x,y,z
_cell_length_a	12.759401
_cell_length_b	19.805405
_cell_length_c	12.759393
_cell_angle_alpha	90.036554
_cell_angle_beta	90.020938
_cell_angle_gamma	90.027935
loop_
_atom_site_label
_atom_site_type_symbol
_atom_site_fract_x
_atom_site_fract_y
_atom_site_fract_z
Zn1	Zn	1.606181	-0.269403	0.593976
Zn2	Zn	2.106181	0.230597	1.093976
Zn3	Zn	1.606036	-0.382606	0.418277
Zn4	Zn	2.106036	0.117394	0.918277
Zn5	Zn	1.430480	-0.269439	0.418311
Zn6	Zn	1.930480	0.230561	0.918311
Zn7	Zn	1.430436	-0.382558	0.593915
Zn8	Zn	1.930436	0.117442	1.093915
O9	O	1.518283	-0.326001	0.506120
O10	O	2.018283	0.173999	1.006120
O11	O	1.753183	-0.284424	0.570681
O12	O	2.253183	0.215576	1.070681
O13	O	1.582706	-0.367629	0.271261
O14	O	2.082706	0.132371	0.771261
O15	O	1.453866	-0.174718	0.441653
O16	O	1.953866	0.325282	0.941653
O17	O	1.753076	-0.367594	0.441596
O18	O	2.253076	0.132406	0.941596
O19	O	1.582953	-0.174691	0.570713
O20	O	2.082953	0.325309	1.070713
O21	O	1.453725	-0.284486	0.271285
O22	O	1.953725	0.215514	0.771285
O23	O	1.283453	-0.284440	0.441594
O24	O	1.783453	0.215560	0.941594
O25	O	1.453791	-0.367513	0.740944
O26	O	1.953791	0.132487	1.240944
O27	O	1.283420	-0.367548	0.570609
O28	O	1.783420	0.132452	1.070609
O29	O	1.582910	-0.284378	0.740989
O30	O	2.082910	0.215622	1.240989
O31	O	1.582663	-0.477316	0.441536
O32	O	2.082663	0.022684	0.941536
O33	O	1.453650	-0.477281	0.570576
O34	O	1.953650	0.022719	1.070576
C35	C	1.245316	-0.325993	0.506099
C36	C	1.745316	0.174007	1.006099
C37	C	1.128539	-0.326006	0.506115
C38	C	1.628539	0.173994	1.006115
C39	C	1.518165	-0.501858	0.506069
C40	C	2.018165	-0.001858	1.006069
C41	C	1.518210	-0.577089	0.506082
C42	C	2.018210	-0.077089	1.006082
C43	C	1.073688	-0.369346	0.573187
C44	C	1.573688	0.130654	1.073187
C45	C	0.963964	-0.369349	0.573208
C46	C	1.463964	0.130651	1.073208
C47	C	0.963952	-0.282669	0.439075
C48	C	1.463952	0.217331	0.939075
C49	C	1.073674	-0.282663	0.439060
C50	C	1.573674	0.217337	0.939060
C51	C	1.585453	-0.612429	0.438962
C52	C	2.085453	-0.112429	0.938962
C53	C	1.585497	-0.683118	0.438985
C54	C	2.085497	-0.183118	0.938985
C55	C	1.518294	-0.718465	0.506124
C56	C	2.018294	-0.218465	1.006124
C57	C	1.451048	-0.683120	0.573252
C58	C	1.951048	-0.183120	1.073252
C59	C	1.451010	-0.612433	0.573234
C60	C	1.951010	-0.112433	1.073234
C61	C	1.451203	-0.968194	0.573330
C62	C	1.951203	-0.468194	1.073330
C63	C	1.451245	-1.038886	0.573342
C64	C	1.951245	-0.538886	1.073342
C65	C	1.585691	-1.038878	0.439081
C66	C	2.085691	-0.538878	0.939081
C67	C	1.585652	-0.968191	0.439063
C68	C	2.085652	-0.468191	0.939063
C69	C	1.518411	-0.932852	0.506194
C70	C	2.018411	-0.432852	1.006194
C71	C	1.518365	-0.856204	0.506170
C72	C	2.018365	-0.356204	1.006170
C73	C	1.518334	-0.795112	0.506144
C74	C	2.018334	-0.295112	1.006144
C75	C	1.792316	-0.326010	0.506141
C76	C	2.292316	0.173990	1.006141
C77	C	1.909093	-0.326014	0.506150
C78	C	2.409093	0.173986	1.006150
C79	C	1.518362	-0.325936	0.780153
C80	C	2.018362	0.174064	1.280153
C81	C	1.518395	-0.325909	0.896930
C82	C	2.018395	0.174091	1.396930
C83	C	1.518430	-0.149459	0.506194
C84	C	2.018430	0.350541	1.006194
C85	C	1.518493	-0.074227	0.506225
C86	C	2.018493	0.425773	1.006225
C87	C	1.518265	-0.326017	0.233152
C88	C	2.018265	0.173983	0.733152
C89	C	1.518435	-0.325854	0.116376
C90	C	2.018435	0.174146	0.616376
C91	C	1.585633	-0.282614	0.951817
C92	C	2.085633	0.217386	1.451817
C93	C	1.585650	-0.282584	1.061541
C94	C	2.085650	0.217416	1.561541
C95	C	1.451190	-0.369151	1.061481
C96	C	1.951190	0.130849	1.561481
C97	C	1.451168	-0.369177	0.951759
C98	C	1.951168	0.130823	1.451759
H99	H	0.919309	-0.404640	0.627827
H100	H	1.419309	0.095360	1.127827
H101	H	0.919267	-0.247382	0.384480
H102	H	1.419267	0.252618	0.884480
H103	H	1.396408	-0.404432	0.907069
H104	H	1.896408	0.095568	1.407069
H105	H	1.118356	-0.404637	0.627790
H106	H	1.618356	0.095363	1.127790
C107	C	1.658595	-0.235468	1.120995
C108	C	2.158595	0.264532	1.620995
C109	C	1.635791	-0.168507	1.094301
C110	C	2.135791	0.331493	1.594301
C111	C	1.702976	-0.125081	1.149036
C112	C	2.202976	0.374919	1.649036
H113	H	1.649050	-0.241552	1.194212
H114	H	2.149050	0.258448	1.694212
H115	H	1.729190	-0.245343	1.102998
H116	H	2.229190	0.254657	1.602998
H117	H	1.565213	-0.158635	1.112305
H118	H	2.065213	0.341365	1.612305
H119	H	1.645342	-0.162401	1.021094
H120	H	2.145342	0.337599	1.521094
H121	H	1.773572	-0.134957	1.131039
H122	H	2.273572	0.365043	1.631039
H123	H	1.693426	-0.131172	1.222250
H124	H	2.193426	0.368828	1.722250
H125	H	1.687520	-0.079644	1.130925
H126	H	2.187520	0.420356	1.630925
H127	H	1.396459	-0.404380	1.106137
H128	H	1.896459	0.095620	1.606137
H129	H	1.118335	-0.247366	0.384442
H130	H	1.618335	0.252634	0.884442
H131	H	1.396334	-0.711906	0.627923
H132	H	1.896334	-0.211906	1.127923
H133	H	1.640370	-0.247380	0.907178
H134	H	2.140370	0.252620	1.407178
H135	H	1.640173	-0.583654	0.384284
H136	H	2.140173	-0.083654	0.884284
H137	H	1.640252	-0.711888	0.384328
H138	H	2.140252	-0.211888	0.884328
C139	C	1.658733	-0.929936	0.366129
C140	C	2.158733	-0.429936	0.866129
C141	C	1.717654	-0.976016	0.307372
C142	C	2.217654	-0.476016	0.807372
C143	C	1.785001	-0.940802	0.240187
C144	C	2.285001	-0.440802	0.740187
H145	H	1.618672	-0.902403	0.320216
H146	H	2.118672	-0.402403	0.820216
H147	H	1.704529	-0.902331	0.406333
H148	H	2.204529	-0.402331	0.906333
H149	H	1.671864	-1.003610	0.267170
H150	H	2.171864	-0.503610	0.767170
H151	H	1.757737	-1.003551	0.353257
H152	H	2.257737	-0.503551	0.853257
H153	H	1.830797	-0.913197	0.280391
H154	H	2.330797	-0.413197	0.780391
H155	H	1.744931	-0.913270	0.194281
H156	H	2.244931	-0.413270	0.694281
H157	H	1.824993	-0.972061	0.200319
H158	H	2.324993	-0.472061	0.700319
H159	H	1.396452	-0.939426	0.627989
H160	H	1.896452	-0.439426	1.127989
C161	C	1.658857	-1.077275	0.366387
C162	C	2.158857	-0.577275	0.866387
C163	C	1.726211	-1.117766	0.425958
C164	C	2.226211	-0.617766	0.925958
C165	C	1.793639	-1.153134	0.359034
C166	C	2.293639	-0.653134	0.859034
H167	H	1.618849	-1.104958	0.320553
H168	H	2.118849	-0.604958	0.820553
H169	H	1.698932	-1.046114	0.326426
H170	H	2.198932	-0.546114	0.826426
H171	H	1.686140	-1.148923	0.465901
H172	H	2.186140	-0.648923	0.965901
H173	H	1.766242	-1.090100	0.471790
H174	H	2.266242	-0.590100	0.971790
H175	H	1.833714	-1.121973	0.319072
H176	H	2.333714	-0.621973	0.819072
H177	H	1.753622	-1.180813	0.313202
H178	H	2.253622	-0.680813	0.813202
H179	H	1.839353	-1.180606	0.399442
H180	H	2.339353	-0.680606	0.899442
C181	C	1.378243	-1.077142	0.646362
C182	C	1.878243	-0.577142	1.146362
C183	C	1.319369	-1.031066	0.705172
C184	C	1.819369	-0.531066	1.205172
C185	C	1.252124	-1.066283	0.772454
C186	C	1.752124	-0.566283	1.272454
H187	H	1.332406	-1.104765	0.606259
H188	H	1.832406	-0.604765	1.106259
H189	H	1.418409	-1.104658	0.692230
H190	H	1.918409	-0.604658	1.192230
H191	H	1.279207	-1.003562	0.659310
H192	H	1.779207	-0.503562	1.159310
H193	H	1.365178	-1.003442	0.745297
H194	H	1.865178	-0.503442	1.245297
H195	H	1.292289	-1.093799	0.818323
H196	H	1.792289	-0.593799	1.318323
H197	H	1.206294	-1.093905	0.732343
H198	H	1.706294	-0.593905	1.232343
H199	H	1.212177	-1.035026	0.812372
H200	H	1.712177	-0.535026	1.312372
H201	H	1.396256	-0.583660	0.627892
H202	H	1.896256	-0.083660	1.127892
