data_functionalizedCrystal
_audit_creation_method	'MofGen! by Chris Wilmer'
_symmetry_space_group_name_H-M	'P1'
_symmetry_Int_Tables_number	1
_symmetry_cell_setting	triclinic
loop_
_symmetry_equiv_pos_as_xyz
  x,y,z
_cell_length_a	8.559649
_cell_length_b	10.065875
_cell_length_c	8.597249
_cell_angle_alpha	73.472370
_cell_angle_beta	102.374876
_cell_angle_gamma	82.498341
loop_
_atom_site_label
_atom_site_type_symbol
_atom_site_fract_x
_atom_site_fract_y
_atom_site_fract_z
O1	O	-2.144206	0.123038	-0.081154
O2	O	-1.678286	0.113264	0.001971
O3	O	-1.925992	0.145885	-0.275472
O4	O	-1.896499	0.090416	0.196290
O5	O	-1.878757	-0.087346	-0.222378
O6	O	-1.631050	-0.119968	0.055065
O7	O	-2.096970	-0.110194	-0.028060
Zn8	Zn	-1.856510	-0.152111	0.021932
Zn9	Zn	-1.918746	0.155181	-0.048021
O10	O	-1.849263	-0.142816	0.249384
C11	C	-1.595084	-0.004093	0.034818
C12	C	-1.417543	-0.006297	0.053569
N13	N	-1.814048	-0.361830	0.069671
C14	C	-1.903962	-0.417723	-0.031420
C15	C	-1.871294	-0.579211	0.005332
C16	C	-1.180172	0.007163	-0.060906
C17	C	-1.357713	0.009369	-0.079658
C18	C	-1.901839	0.036308	-0.308763
C19	C	-1.900223	0.057281	-0.487057
N20	N	-1.961221	0.364902	-0.095774
C21	C	-1.873418	-0.033235	0.282674
C22	C	-1.875036	-0.054199	0.460966
H23	H	-1.442317	0.024474	-0.208066
H24	H	-1.712879	-0.433531	0.183423
Br25	Br	-1.276536	-0.031445	0.267603
Br26	Br	-1.841162	-0.240011	-0.385869
Br27	Br	-1.934136	0.243103	-0.640240
Br28	Br	-2.072179	-0.298186	-0.221383
Br29	Br	-2.130219	-0.515650	-0.285061
H30	H	-1.770118	-0.650908	0.119091
