data_functionalizedCrystal
_audit_creation_method	'MofGen! by Chris Wilmer'
_symmetry_space_group_name_H-M	'P1'
_symmetry_Int_Tables_number	1
_symmetry_cell_setting	triclinic
loop_
_symmetry_equiv_pos_as_xyz
  x,y,z
_cell_length_a	12.811438
_cell_length_b	12.837942
_cell_length_c	11.295675
_cell_angle_alpha	94.535486
_cell_angle_beta	91.299112
_cell_angle_gamma	89.411773
loop_
_atom_site_label
_atom_site_type_symbol
_atom_site_fract_x
_atom_site_fract_y
_atom_site_fract_z
O1	O	1.390614	0.157174	0.249181
O2	O	1.890614	0.657174	0.749181
O3	O	1.088646	0.170074	0.216577
O4	O	1.588646	0.670074	0.716577
O5	O	1.232935	0.012641	0.232149
O6	O	1.732935	0.512641	0.732149
O7	O	1.246326	0.314607	0.233610
O8	O	1.746326	0.814607	0.733610
O9	O	1.245577	-0.001166	0.035469
O10	O	1.745577	0.498834	0.535469
O11	O	1.101289	0.156268	0.019897
O12	O	1.601289	0.656268	0.519897
O13	O	1.403256	0.143368	0.052501
O14	O	1.903256	0.643368	0.552501
Cu15	Cu	1.253427	0.148557	0.018240
Cu16	Cu	1.753427	0.648557	0.518240
Cu17	Cu	1.238476	0.164885	0.250838
Cu18	Cu	1.738476	0.664885	0.750838
O19	O	1.258968	0.300801	0.036929
O20	O	1.758968	0.800801	0.536929
C21	C	1.056049	0.162025	0.114035
C22	C	1.556049	0.662025	0.614035
C23	C	0.940081	0.158597	0.101513
C24	C	1.440081	0.658597	0.601513
C25	C	0.783522	0.146241	-0.023339
C26	C	1.283522	0.646241	0.476661
C27	C	0.892484	0.149462	-0.011579
C28	C	1.392484	0.649462	0.488421
C29	C	0.878709	0.164515	0.202853
C30	C	1.378709	0.664515	0.702853
C31	C	0.769747	0.161294	0.191094
C32	C	1.269747	0.661294	0.691094
C33	C	0.722157	0.152155	0.077994
C34	C	1.222157	0.652155	0.577994
C35	C	0.613194	0.148927	0.066235
C36	C	1.113194	0.648927	0.566235
C37	C	0.599420	0.163988	0.280667
C38	C	1.099420	0.663988	0.780667
C39	C	0.708382	0.167209	0.292426
C40	C	1.208382	0.667209	0.792426
C41	C	1.234732	-0.032937	0.133321
C42	C	1.734732	0.467063	0.633321
C43	C	1.221240	-0.148175	0.131866
C44	C	1.721240	0.351825	0.631866
C45	C	1.383441	-0.387197	0.149404
C46	C	1.883441	0.112803	0.649404
C47	C	1.370769	-0.495474	0.148038
C48	C	1.870769	0.004526	0.648038
C49	C	1.183222	-0.473006	0.127776
C50	C	1.683222	0.026994	0.627776
C51	C	1.195895	-0.364730	0.129142
C52	C	1.695895	0.135270	0.629142
C53	C	1.296008	-0.321829	0.139955
C54	C	1.796008	0.178171	0.639955
C55	C	1.308680	-0.213551	0.141313
C56	C	1.808680	0.286449	0.641313
C57	C	1.121134	-0.191085	0.121059
C58	C	1.621134	0.308915	0.621059
C59	C	1.108461	-0.299362	0.119693
C60	C	1.608461	0.200638	0.619693
C61	C	1.435854	0.151417	0.155046
C62	C	1.935854	0.651417	0.655046
C63	C	1.551821	0.154845	0.167575
C64	C	2.051821	0.654845	0.667575
C65	C	1.257171	0.346379	0.135760
C66	C	1.757171	0.846379	0.635760
C67	C	1.270663	0.461617	0.137222
C68	C	1.770663	0.961617	0.637222
N69	N	1.263950	0.137072	-0.145355
N70	N	1.763950	0.637072	0.354645
C71	C	1.152094	0.259085	-0.406770
C72	C	1.652094	0.759085	0.093230
C73	C	1.160069	0.250396	-0.530569
C74	C	1.660069	0.750396	-0.030569
C75	C	1.287882	0.111012	-0.516754
C76	C	1.787882	0.611012	-0.016754
C77	C	1.279906	0.119701	-0.392955
C78	C	1.779906	0.619701	0.107045
C79	C	1.212009	0.193738	-0.337968
C80	C	1.712009	0.693738	0.162032
C81	C	1.204028	0.202421	-0.214167
C82	C	1.704028	0.702421	0.285833
C83	C	1.331846	0.063043	-0.200354
C84	C	1.831846	0.563043	0.299646
C85	C	1.339822	0.054355	-0.324153
C86	C	1.839822	0.554355	0.175847
N87	N	1.227960	0.176361	0.414434
N88	N	1.727960	0.676361	0.914434
H89	H	0.917475	0.171965	0.294934
H90	H	1.417475	0.671965	0.794934
C91	C	0.531910	0.170496	0.392140
C92	C	1.031910	0.670496	0.892140
N93	N	0.481061	0.175396	0.476100
N94	N	0.981061	0.675396	0.976100
C95	C	0.959981	0.142950	-0.123054
C96	C	1.459981	0.642950	0.376946
N97	N	1.010821	0.138045	-0.207021
N98	N	1.510821	0.638045	0.292979
H99	H	0.744774	0.138806	-0.115429
H100	H	1.244774	0.638806	0.384571
C101	C	1.493565	-0.340005	0.161292
C102	C	1.993565	0.159995	0.661292
N103	N	1.576512	-0.304462	0.170247
N104	N	2.076512	0.195538	0.670247
H105	H	0.747145	0.174654	0.384509
H106	H	1.247145	0.674654	0.884509
C107	C	1.397766	-0.008834	-0.124660
C108	C	1.897766	0.491166	0.375340
N109	N	1.447417	-0.062969	-0.067646
N110	N	1.947417	0.437031	0.432354
C111	C	1.077392	0.340512	-0.346283
C112	C	1.577392	0.840512	0.153717
N113	N	1.021123	0.401842	-0.300726
N114	N	1.521123	0.901842	0.199274
H115	H	1.049940	-0.137851	0.113355
H116	H	1.549940	0.362149	0.613355
H117	H	1.148740	0.262703	-0.169398
H118	H	1.648740	0.762703	0.330602
H119	H	1.441966	-0.548693	0.155737
H120	H	1.941966	-0.048693	0.655737
H121	H	1.390197	-0.178624	0.150113
H122	H	1.890197	0.321376	0.650113
C123	C	0.998343	-0.346566	0.107785
C124	C	1.498343	0.153434	0.607785
N125	N	0.915401	-0.382119	0.098808
N126	N	1.415401	0.117881	0.598808
C127	C	1.094153	0.322279	-0.606248
C128	C	1.594153	0.822279	-0.106248
N129	N	1.044502	0.376424	-0.663250
N130	N	1.544502	0.876424	-0.163250
H131	H	1.343170	0.050740	-0.561540
H132	H	1.843170	0.550740	-0.061540
H133	H	1.101714	-0.507954	0.118985
H134	H	1.601714	-0.007954	0.618985
H135	H	0.574448	0.141493	-0.025857
H136	H	1.074448	0.641493	0.474143
C137	C	1.414502	-0.027086	-0.384654
C138	C	1.914502	0.472914	0.115346
N139	N	1.470749	-0.088432	-0.430222
N140	N	1.970749	0.411568	0.069778
