data_functionalizedCrystal
_audit_creation_method	'MofGen! by Chris Wilmer'
_symmetry_space_group_name_H-M	'P1'
_symmetry_Int_Tables_number	1
_symmetry_cell_setting	triclinic
loop_
_symmetry_equiv_pos_as_xyz
  x,y,z
_cell_length_a	13.897449
_cell_length_b	16.120484
_cell_length_c	13.897441
_cell_angle_alpha	92.865635
_cell_angle_beta	89.976606
_cell_angle_gamma	92.926462
loop_
_atom_site_label
_atom_site_type_symbol
_atom_site_fract_x
_atom_site_fract_y
_atom_site_fract_z
Zn1	Zn	1.455182	-0.331862	-0.564892
Zn2	Zn	1.788515	0.001472	-0.231558
Zn3	Zn	2.121848	0.334805	0.101775
Zn4	Zn	1.446874	-0.471293	-0.411762
Zn5	Zn	1.780207	-0.137960	-0.078428
Zn6	Zn	2.113540	0.195373	0.254905
Zn7	Zn	1.293868	-0.331900	-0.403605
Zn8	Zn	1.627202	0.001433	-0.070272
Zn9	Zn	1.960535	0.334766	0.263062
Zn10	Zn	1.285654	-0.471237	-0.573004
Zn11	Zn	1.618987	-0.137904	-0.239670
Zn12	Zn	1.952321	0.195429	0.093663
O13	O	1.370394	-0.401573	-0.488315
O14	O	1.703728	-0.068240	-0.154982
O15	O	2.037061	0.265094	0.178351
O16	O	1.589061	-0.350365	-0.544598
O17	O	1.922394	-0.017032	-0.211264
O18	O	2.255727	0.316302	0.122069
O19	O	1.426538	-0.452842	-0.275700
O20	O	1.759872	-0.119509	0.057633
O21	O	2.093205	0.213825	0.390966
O22	O	1.322182	-0.215230	-0.418191
O23	O	1.655515	0.118104	-0.084858
O24	O	1.988848	0.451437	0.248475
O25	O	1.582957	-0.452805	-0.432094
O26	O	1.916290	-0.119471	-0.098760
O27	O	2.249624	0.213862	0.234573
O28	O	1.440698	-0.215201	-0.536688
O29	O	1.774031	0.118132	-0.203355
O30	O	2.107364	0.451465	0.129978
O31	O	1.314126	-0.350431	-0.269708
O32	O	1.647459	-0.017097	0.063626
O33	O	1.980793	0.316236	0.396959
O34	O	1.157798	-0.350376	-0.426057
O35	O	1.491131	-0.017043	-0.092724
O36	O	1.824464	0.316290	0.240610
O37	O	1.308181	-0.452709	-0.706907
O38	O	1.641515	-0.119376	-0.373574
O39	O	1.974848	0.213957	-0.040240
O40	O	1.151762	-0.452747	-0.550514
O41	O	1.485096	-0.119413	-0.217180
O42	O	1.818429	0.213920	0.116153
O43	O	1.432732	-0.350311	-0.700947
O44	O	1.766066	-0.016977	-0.367614
O45	O	2.099399	0.316356	-0.034281
O46	O	1.418573	-0.587951	-0.439959
O47	O	1.751906	-0.254618	-0.106626
O48	O	2.085240	0.078715	0.226707
O49	O	1.300125	-0.587910	-0.558423
O50	O	1.633459	-0.254577	-0.225090
O51	O	1.966792	0.078756	0.108244
C52	C	1.119781	-0.401560	-0.488281
C53	C	1.453114	-0.068227	-0.154948
C54	C	1.786448	0.265106	0.178386
C55	C	1.012566	-0.401575	-0.488290
C56	C	1.345899	-0.068242	-0.154957
C57	C	1.679233	0.265092	0.178376
C58	C	0.925496	-0.401578	-0.488307
C59	C	1.258829	-0.068244	-0.154973
C60	C	1.592163	0.265089	0.178360
C61	C	0.816263	-0.401584	-0.488336
C62	C	1.149597	-0.068250	-0.155003
C63	C	1.482930	0.265083	0.178330
C64	C	1.357583	-0.618181	-0.500977
C65	C	1.690916	-0.284848	-0.167644
C66	C	2.024249	0.048486	0.165689
C67	C	1.352190	-0.710847	-0.506427
C68	C	1.685523	-0.377513	-0.173093
C69	C	2.018856	-0.044180	0.160240
C70	C	1.342350	-0.880508	-0.516395
C71	C	1.675683	-0.547175	-0.183062
C72	C	2.009016	-0.213841	0.150272
C73	C	1.398612	-0.921798	-0.460252
C74	C	1.731945	-0.588465	-0.126918
C75	C	2.065279	-0.255131	0.206415
C76	C	1.393137	-1.016203	-0.465798
C77	C	1.726470	-0.682870	-0.132465
C78	C	2.059804	-0.349537	0.200868
C79	C	1.347823	-0.786094	-0.510850
C80	C	1.681157	-0.452761	-0.177516
C81	C	2.014490	-0.119427	0.155817
C82	C	1.621987	-0.401587	-0.488351
C83	C	1.955320	-0.068253	-0.155017
C84	C	2.288653	0.265080	0.178316
C85	C	1.729200	-0.401592	-0.488366
C86	C	2.062533	-0.068259	-0.155032
C87	C	2.395867	0.265074	0.178301
C88	C	1.370467	-0.401499	-0.739904
C89	C	1.703801	-0.068166	-0.406571
C90	C	2.037134	0.265167	-0.073238
C91	C	1.370498	-0.401468	-0.847116
C92	C	1.703832	-0.068135	-0.513783
C93	C	2.037165	0.265199	-0.180450
C94	C	1.383283	-0.184120	-0.475625
C95	C	1.716616	0.149214	-0.142292
C96	C	2.049949	0.482547	0.191042
C97	C	1.388775	-0.091454	-0.470217
C98	C	1.722108	0.241880	-0.136884
C99	C	2.055441	0.575213	0.196449
C100	C	1.370528	-0.401412	-1.043408
C101	C	1.703861	-0.068078	-0.710075
C102	C	2.037194	0.265255	-0.376742
C103	C	1.370508	-0.401445	-0.934178
C104	C	1.703842	-0.068112	-0.600844
C105	C	2.037175	0.265221	-0.267511
C106	C	1.370381	-0.401586	-0.237702
C107	C	1.703714	-0.068253	0.095631
C108	C	2.037048	0.265080	0.428965
C109	C	1.370551	-0.401383	-0.130477
C110	C	1.703884	-0.068050	0.202857
C111	C	2.037217	0.265284	0.536190
H112	H	1.450891	-0.886246	-0.408020
H113	H	1.784224	-0.552913	-0.074686
H114	H	2.117558	-0.219580	0.258647
H115	H	1.290074	-0.916057	-0.568622
H116	H	1.623407	-0.582724	-0.235288
H117	H	1.956740	-0.249390	0.098045
