data_functionalizedCrystal
_audit_creation_method	'MofGen! by Chris Wilmer'
_symmetry_space_group_name_H-M	'P1'
_symmetry_Int_Tables_number	1
_symmetry_cell_setting	triclinic
loop_
_symmetry_equiv_pos_as_xyz
  x,y,z
_cell_length_a	8.497367
_cell_length_b	8.497374
_cell_length_c	16.120530
_cell_angle_alpha	92.899701
_cell_angle_beta	92.935376
_cell_angle_gamma	90.038609
loop_
_atom_site_label
_atom_site_type_symbol
_atom_site_fract_x
_atom_site_fract_y
_atom_site_fract_z
Zn1	Zn	0.750850	1.014825	1.274790
Zn2	Zn	1.014604	0.751252	1.274867
Zn3	Zn	0.737428	0.737674	1.135407
Zn4	Zn	1.001192	1.001604	1.135471
O5	O	0.876018	0.876339	1.205134
O6	O	0.797068	0.991077	1.391470
O7	O	0.977831	0.528689	1.256373
O8	O	0.518440	0.774290	1.153837
O9	O	0.990846	0.797430	1.391527
O10	O	0.528301	0.977911	1.256241
O11	O	0.774191	0.518714	1.153912
O12	O	0.761186	0.761470	1.018746
O13	O	0.967989	1.224120	1.153947
O14	O	0.954973	0.955378	1.018793
O15	O	0.784063	1.233833	1.256303
O16	O	1.233593	0.784611	1.256435
O17	O	1.223740	0.968543	1.154022
C18	C	0.855169	0.855517	0.988518
C19	C	0.846288	0.846647	0.895849
C20	C	1.464532	0.876187	1.205076
C21	C	1.285899	0.876486	1.205181
C22	C	0.876020	1.287819	1.205128
C23	C	0.876037	1.466463	1.205130
C24	C	0.830036	0.830466	0.726181
C25	C	0.922117	0.922327	0.684927
C26	C	0.913074	0.913324	0.590518
C27	C	0.839077	0.839467	0.820598
C28	C	0.896950	0.897243	1.422596
C29	C	0.905870	0.906151	1.515265
H30	H	1.007739	1.007735	0.720513
H31	H	0.744420	0.745066	0.690598
