data_functionalizedCrystal
_audit_creation_method	'MofGen! by Chris Wilmer'
_symmetry_space_group_name_H-M	'P1'
_symmetry_Int_Tables_number	1
_symmetry_cell_setting	triclinic
loop_
_symmetry_equiv_pos_as_xyz
  x,y,z
_cell_length_a	13.262522
_cell_length_b	12.996460
_cell_length_c	13.339070
_cell_angle_alpha	89.996957
_cell_angle_beta	80.571184
_cell_angle_gamma	105.921327
loop_
_atom_site_label
_atom_site_type_symbol
_atom_site_fract_x
_atom_site_fract_y
_atom_site_fract_z
O1	O	1.432417	0.486407	-0.136425
O2	O	1.932417	0.986407	0.363575
O3	O	1.131151	0.402103	-0.151259
O4	O	1.631151	0.902103	0.348741
O5	O	1.247208	0.434577	0.003567
O6	O	1.747208	0.934577	0.503567
O7	O	1.316360	0.453934	-0.291251
O8	O	1.816360	0.953934	0.208749
O9	O	1.247189	0.263438	0.003576
O10	O	1.747189	0.763438	0.503576
O11	O	1.131131	0.230964	-0.151251
O12	O	1.631131	0.730964	0.348749
O13	O	1.432398	0.315268	-0.136416
O14	O	1.932398	0.815268	0.363584
Cu15	Cu	1.281763	0.257490	-0.143833
Cu16	Cu	1.781763	0.757490	0.356167
Cu17	Cu	1.281786	0.459882	-0.143843
Cu18	Cu	1.781786	0.959882	0.356157
O19	O	1.316340	0.282795	-0.291242
O20	O	1.816340	0.782795	0.208758
C21	C	1.091795	0.305523	-0.150424
C22	C	1.591795	0.805523	0.349576
C23	C	0.974551	0.272715	-0.147935
C24	C	1.474551	0.772715	0.352065
N25	N	1.281754	0.115140	-0.143825
N26	N	1.781754	0.615140	0.356175
C27	C	0.919467	0.164008	-0.146762
C28	C	1.419467	0.664008	0.353238
C29	C	0.809309	0.133174	-0.144414
C30	C	1.309309	0.633174	0.355586
C31	C	0.754226	0.211044	-0.143246
C32	C	1.254226	0.711044	0.356754
C33	C	0.809311	0.319754	-0.144426
C34	C	1.309311	0.819754	0.355574
C35	C	0.919478	0.350591	-0.146766
C36	C	1.419478	0.850591	0.353234
C37	C	0.754237	0.397627	-0.143250
C38	C	1.254237	0.897627	0.356750
C39	C	0.809323	0.506336	-0.144429
C40	C	1.309323	1.006336	0.355571
C41	C	0.919479	0.537168	-0.146770
C42	C	1.419479	1.037168	0.353230
C43	C	0.974562	0.459298	-0.147939
C44	C	1.474562	0.959298	0.352061
C45	C	0.644070	0.366790	-0.140909
C46	C	1.144070	0.866790	0.359091
C47	C	0.644082	0.553373	-0.140913
C48	C	1.144082	1.053373	0.359087
C49	C	0.754239	0.584207	-0.143261
C50	C	1.254239	1.084207	0.356739
C51	C	1.281784	-0.304666	-0.143844
C52	C	1.781784	0.195334	0.356156
C53	C	1.281774	-0.187863	-0.143842
C54	C	1.781774	0.312137	0.356158
C55	C	1.281770	-0.094766	-0.143835
C56	C	1.781770	0.405234	0.356165
C57	C	1.281758	0.022043	-0.143832
C58	C	1.781758	0.522043	0.356168
C59	C	1.471754	0.411850	-0.137252
C60	C	1.971754	0.911850	0.362748
C61	C	1.588998	0.444666	-0.139741
C62	C	2.088998	0.944666	0.360259
C63	C	1.235518	0.345740	0.041310
C64	C	1.735518	0.845740	0.541310
C65	C	1.200699	0.336001	0.153758
C66	C	1.700699	0.836001	0.653758
N67	N	1.281800	0.602233	-0.143843
N68	N	1.781800	1.102233	0.356157
C69	C	1.328031	0.371634	-0.328985
C70	C	1.828031	0.871634	0.171015
C71	C	1.362849	0.381380	-0.441433
C72	C	1.862849	0.881380	0.058567
C73	C	1.471428	0.411759	0.517412
C74	C	1.971428	0.911759	1.017412
C75	C	1.504145	0.420904	0.411761
C76	C	2.004145	0.920904	0.911761
C77	C	1.428286	0.399680	0.347256
C78	C	1.928286	0.899680	0.847256
C79	C	1.319705	0.369307	0.388410
C80	C	1.819705	0.869307	0.888410
C81	C	1.286985	0.360153	0.494071
C82	C	1.786985	0.860153	0.994071
C83	C	1.243843	0.348073	0.323915
C84	C	1.743843	0.848073	0.823915
C85	C	1.135262	0.317701	0.365069
C86	C	1.635262	0.817701	0.865069
C87	C	1.102548	0.308549	0.470720
C88	C	1.602548	0.808549	0.970720
C89	C	1.178406	0.329773	0.535226
C90	C	1.678406	0.829773	1.035226
C91	C	1.276563	0.357228	0.218254
C92	C	1.776563	0.857228	0.718254
C93	C	1.092120	0.305622	0.194913
C94	C	1.592120	0.805622	0.694913
C95	C	1.059404	0.296476	0.300563
C96	C	1.559404	0.796476	0.800563
H97	H	0.599232	0.278278	-0.139957
H98	H	1.099232	0.778278	0.360043
Cl99	Cl	0.740070	-0.003482	-0.142947
Cl100	Cl	1.240070	0.496518	0.357053
H101	H	1.454931	0.407128	0.261231
H102	H	1.954931	0.907128	0.761231
Cl103	Cl	0.922906	0.258296	0.352313
Cl104	Cl	1.422906	0.758296	0.852313
Cl105	Cl	0.988718	0.066128	-0.148225
Cl106	Cl	1.488718	0.566128	0.351775
Cl107	Cl	1.566779	0.438419	0.598507
Cl108	Cl	2.066779	0.938419	1.098507
Cl109	Cl	1.640640	0.459108	0.360031
Cl110	Cl	2.140640	0.959108	0.860031
H111	H	0.964324	0.625686	-0.147717
H112	H	1.464324	1.125686	0.352283
H113	H	1.151773	0.322332	0.621256
H114	H	1.651773	0.822332	1.121256
H115	H	1.014134	0.283810	0.504224
H116	H	1.514134	0.783810	1.004224
Cl117	Cl	0.574844	0.651274	-0.139454
Cl118	Cl	1.074844	1.151274	0.360546
Cl119	Cl	0.615741	0.172279	-0.140304
Cl120	Cl	1.115741	0.672279	0.359696
Cl121	Cl	1.113055	0.498057	-0.150904
Cl122	Cl	1.613055	0.998057	0.349096
H123	H	0.799105	0.672720	-0.144222
H124	H	1.299105	1.172720	0.355778
H125	H	1.364970	0.381957	0.184757
H126	H	1.864970	0.881957	0.684757
Cl127	Cl	0.996749	0.278930	0.113827
Cl128	Cl	1.496749	0.778930	0.613827
