data_functionalizedCrystal
_audit_creation_method	'MofGen! by Chris Wilmer'
_symmetry_space_group_name_H-M	'P1'
_symmetry_Int_Tables_number	1
_symmetry_cell_setting	triclinic
loop_
_symmetry_equiv_pos_as_xyz
  x,y,z
_cell_length_a	6.817900
_cell_length_b	17.982783
_cell_length_c	12.908943
_cell_angle_alpha	95.935216
_cell_angle_beta	100.860631
_cell_angle_gamma	102.448572
loop_
_atom_site_label
_atom_site_type_symbol
_atom_site_fract_x
_atom_site_fract_y
_atom_site_fract_z
V1	V	-3.991103	-0.104460	-0.329116
O2	O	-3.984603	0.005998	-0.322400
O3	O	-3.937759	-0.208067	-0.327298
O4	O	-3.929480	-0.102423	-0.472457
O5	O	-3.992940	-0.100377	-0.176236
V6	V	-4.477085	-0.091298	-0.310777
O7	O	-4.246967	-0.133330	-0.369342
O8	O	-4.671418	-0.062428	-0.270551
O9	O	-4.307223	0.012309	-0.312595
O10	O	-4.600982	-0.201756	-0.317493
O11	O	-4.592645	-0.095381	-0.463657
O12	O	-4.315502	-0.093335	-0.167436
C13	C	-3.781985	-0.233338	-0.322218
C14	C	-3.819568	-0.318036	-0.321687
C15	C	-3.806468	-0.347226	-0.224856
C16	C	-3.841802	-0.426809	-0.224361
C17	C	-3.890220	-0.477200	-0.320697
C18	C	-3.903326	-0.448006	-0.417536
C19	C	-3.868008	-0.368424	-0.418030
C20	C	-4.045766	-0.768949	-0.415544
C21	C	-4.081078	-0.848536	-0.415042
C22	C	-4.019559	-0.827334	-0.221875
C23	C	-3.984241	-0.747753	-0.222369
C24	C	-3.997360	-0.718565	-0.319207
C25	C	-3.959051	-0.632272	-0.319743
C26	C	-3.928515	-0.563492	-0.320162
C27	C	-3.771423	-0.098578	-0.507381
C28	C	-3.802290	-0.097599	-0.624566
C29	C	-4.223182	-0.103319	-0.855536
C30	C	-4.252193	-0.102399	-0.965642
C31	C	-3.889324	-0.094834	-0.954885
C32	C	-3.860313	-0.095754	-0.844779
C33	C	-4.027250	-0.099998	-0.795109
C34	C	-3.998239	-0.100923	-0.685002
C35	C	-3.635370	-0.093352	-0.674245
C36	C	-3.664381	-0.092432	-0.784351
C37	C	-4.126339	0.037576	-0.317673
C38	C	-4.067993	0.122273	-0.318210
C39	C	-4.136901	-0.097183	-0.132507
C40	C	-4.085273	-0.098158	-0.015321
H41	H	-4.008888	-0.851108	-0.143024
H42	H	-3.831137	-0.450571	-0.145512
C43	C	-3.754197	-0.292434	-0.120349
C44	C	-3.903340	-0.249760	-0.119986
C45	C	-3.855250	-0.199273	-0.023737
H46	H	-3.751497	-0.321123	-0.062522
H47	H	-3.623108	-0.258433	-0.113142
H48	H	-4.034395	-0.283757	-0.127182
H49	H	-3.906063	-0.221056	-0.177792
H50	H	-3.724160	-0.165272	-0.016530
H51	H	-3.852549	-0.227968	0.034083
H52	H	-3.956424	-0.170308	-0.023482
H53	H	-3.878698	-0.344660	-0.496880
C54	C	-4.464800	-0.105851	-1.031267
C55	C	-4.458669	-0.039726	-1.080290
C56	C	-4.654497	-0.042874	-1.140739
H57	H	-4.506500	-0.150208	-1.084340
H58	H	-4.560099	-0.108469	-0.985936
H59	H	-4.363402	-0.037115	-1.125619
H60	H	-4.417006	0.004641	-1.027243
H61	H	-4.749796	-0.045492	-1.095408
H62	H	-4.696180	-0.087234	-1.193806
H63	H	-4.650368	0.001993	-1.174001
H64	H	-4.134171	-0.104381	-0.644563
C65	C	-3.931802	-0.693170	-0.117665
C66	C	-3.927947	-0.735769	-0.032757
C67	C	-3.879684	-0.685516	0.063712
H68	H	-3.800658	-0.659193	-0.110315
H69	H	-4.032856	-0.664168	-0.117166
H70	H	-3.826899	-0.764757	-0.033255
H71	H	-4.059072	-0.769743	-0.040072
H72	H	-3.980737	-0.656514	0.064211
H73	H	-3.748542	-0.651541	0.071051
H74	H	-3.877081	-0.714412	0.121332
C75	C	-3.955573	-0.502617	-0.522204
C76	C	-3.794324	-0.485992	-0.575631
C77	C	-3.842389	-0.536275	-0.672064
H78	H	-3.974679	-0.554221	-0.508194
H79	H	-4.078446	-0.496388	-0.565399
H80	H	-3.671486	-0.492228	-0.532446
H81	H	-3.775193	-0.434398	-0.589669
H82	H	-3.965262	-0.530046	-0.715258
H83	H	-3.861497	-0.587876	-0.658043
H84	H	-3.733000	-0.524998	-0.708331
C85	C	-4.059980	-0.737413	-0.520786
C86	C	-4.109876	-0.798578	-0.605040
C87	C	-4.122955	-0.769553	-0.702008
H88	H	-4.163569	-0.709294	-0.528528
H89	H	-3.931389	-0.704359	-0.521674
H90	H	-4.238451	-0.831619	-0.604154
H91	H	-4.006308	-0.826703	-0.597334
H92	H	-3.994364	-0.736499	-0.702896
H93	H	-4.226543	-0.741434	-0.709739
H94	H	-4.156792	-0.811048	-0.759186
H95	H	-4.120507	-0.889564	-0.493495
C96	C	-3.422796	-0.089928	-0.608585
C97	C	-3.429078	-0.156066	-0.559584
C98	C	-3.233308	-0.152964	-0.499104
H99	H	-3.327431	-0.087325	-0.653862
H100	H	-3.381115	-0.045563	-0.555503
H101	H	-3.470733	-0.200419	-0.612660
H102	H	-3.524403	-0.158681	-0.514290
H103	H	-3.191627	-0.108599	-0.446022
H104	H	-3.137958	-0.150360	-0.544388
H105	H	-3.237549	-0.197834	-0.465842
H106	H	-4.359113	-0.106783	-0.815096
H107	H	-3.753419	-0.091374	-0.995344
H108	H	-3.528472	-0.088974	-0.824807
