data_functionalizedCrystal
_audit_creation_method	'MofGen! by Chris Wilmer'
_symmetry_space_group_name_H-M	'P1'
_symmetry_Int_Tables_number	1
_symmetry_cell_setting	triclinic
loop_
_symmetry_equiv_pos_as_xyz
  x,y,z
_cell_length_a	17.019282
_cell_length_b	19.188930
_cell_length_c	16.098546
_cell_angle_alpha	87.279071
_cell_angle_beta	88.846283
_cell_angle_gamma	83.267516
loop_
_atom_site_label
_atom_site_type_symbol
_atom_site_fract_x
_atom_site_fract_y
_atom_site_fract_z
O1	O	1.046079	0.089164	-0.005784
O2	O	1.546079	0.589164	0.494216
O3	O	0.817212	0.099774	0.010639
O4	O	1.317212	0.599774	0.510639
O5	O	0.938249	-0.007154	0.001937
O6	O	1.438249	0.492846	0.501937
O7	O	0.925042	0.196091	0.002917
O8	O	1.425042	0.696091	0.502917
O9	O	0.931206	-0.000910	-0.136069
O10	O	1.431206	0.499090	0.363931
O11	O	0.810168	0.106018	-0.127368
O12	O	1.310168	0.606018	0.372632
O13	O	1.039036	0.095408	-0.143790
O14	O	1.539036	0.595408	0.356210
Zn15	Zn	0.923484	0.101704	-0.157491
Zn16	Zn	1.423484	0.601704	0.342509
Zn17	Zn	0.932764	0.093477	0.024339
Zn18	Zn	1.432764	0.593477	0.524339
O19	O	0.917998	0.202335	-0.135089
O20	O	1.417998	0.702335	0.364911
C21	C	0.784409	0.102372	-0.056264
C22	C	1.284409	0.602372	0.443736
C23	C	0.697162	0.100803	-0.050004
C24	C	1.197162	0.600803	0.449996
C25	C	0.934300	-0.030045	-0.067038
C26	C	1.434300	0.469955	0.432962
C27	C	0.933015	-0.107555	-0.066953
C28	C	1.433015	0.392445	0.433047
C29	C	0.652339	0.103468	-0.122292
C30	C	1.152339	0.603468	0.377708
C31	C	0.570363	0.101982	-0.116413
C32	C	1.070363	0.601982	0.383587
C33	C	0.533211	0.097837	-0.038245
C34	C	1.033211	0.597837	0.461755
C35	C	0.578041	0.095170	0.034049
C36	C	1.078041	0.595170	0.534049
C37	C	0.660016	0.096650	0.028169
C38	C	1.160016	0.596650	0.528169
C39	C	0.285891	0.093192	-0.016727
C40	C	0.785891	0.593192	0.483273
C41	C	0.203909	0.091714	-0.010852
C42	C	0.703909	0.591714	0.489148
C43	C	0.196237	0.098525	-0.161315
C44	C	0.696237	0.598525	0.338685
C45	C	0.278214	0.100009	-0.167188
C46	C	0.778214	0.600009	0.332812
C47	C	0.323037	0.097338	-0.094895
C48	C	0.823037	0.597338	0.405105
C49	C	0.449418	0.096321	-0.032233
C50	C	0.949418	0.596321	0.467767
C51	C	0.406829	0.098850	-0.100907
C52	C	0.906829	0.598850	0.399093
C53	C	1.004037	-0.152130	-0.072053
C54	C	1.504037	0.347870	0.427947
C55	C	1.002831	-0.224960	-0.071953
C56	C	1.502831	0.275040	0.428047
C57	C	0.930599	-0.253212	-0.066769
C58	C	1.430599	0.246788	0.433231
C59	C	0.859569	-0.208627	-0.061664
C60	C	1.359569	0.291373	0.438336
C61	C	0.860777	-0.135799	-0.061756
C62	C	1.360777	0.364201	0.438244
N63	N	0.872989	-0.359363	-0.109774
N64	N	1.372989	0.140637	0.390226
N65	N	0.871847	-0.428547	-0.109689
N66	N	1.371847	0.071453	0.390311
C67	C	0.926955	-0.472639	-0.066491
C68	C	1.426955	0.027361	0.433509
N69	N	0.983260	-0.444934	-0.023393
N70	N	1.483260	0.055066	0.476607
N71	N	0.984406	-0.375743	-0.023482
N72	N	1.484406	0.124257	0.476518
C73	C	0.929281	-0.332181	-0.066669
C74	C	1.429281	0.167819	0.433331
C75	C	0.996674	-0.596186	-0.071482
C76	C	1.496674	-0.096186	0.428518
C77	C	0.995465	-0.669017	-0.071377
C78	C	1.495465	-0.169017	0.428623
C79	C	0.852201	-0.652682	-0.061096
C80	C	1.352201	-0.152682	0.438904
C81	C	0.853411	-0.579852	-0.061193
C82	C	1.353411	-0.079852	0.438807
C83	C	0.925650	-0.551609	-0.066390
C84	C	1.425650	-0.051609	0.433610
C85	C	1.071838	0.092810	-0.076886
C86	C	1.571838	0.592810	0.423114
C87	C	1.159086	0.094379	-0.083141
C88	C	1.659086	0.594379	0.416859
C89	C	0.921948	0.225226	-0.066112
C90	C	1.421948	0.725226	0.433888
C91	C	0.923233	0.302737	-0.066192
C92	C	1.423233	0.802737	0.433808
N93	N	0.917156	0.107319	-0.281585
N94	N	1.417156	0.607319	0.218415
C95	C	0.887712	0.133231	-0.804287
C96	C	1.387712	0.633231	-0.304287
C97	C	0.892155	0.129317	-0.717418
C98	C	1.392155	0.629317	-0.217418
C99	C	0.947989	0.080032	-0.677831
C100	C	1.447989	0.580032	-0.177831
C101	C	0.999376	0.034654	-0.725117
C102	C	1.499376	0.534654	-0.225117
C103	C	0.994929	0.038565	-0.811985
C104	C	1.494929	0.538565	-0.311985
C105	C	0.964097	0.065852	-0.415739
C106	C	1.464097	0.565852	0.084261
C107	C	0.968542	0.061945	-0.328865
C108	C	1.468542	0.561945	0.171135
C109	C	0.861319	0.156608	-0.321171
C110	C	1.361319	0.656608	0.178829
C111	C	0.856880	0.160517	-0.408041
C112	C	1.356880	0.660517	0.091959
C113	C	0.908265	0.115137	-0.455320
C114	C	1.408265	0.615137	0.044680
C115	C	0.952534	0.076032	-0.589036
C116	C	1.452534	0.576032	-0.089036
C117	C	0.903716	0.119135	-0.544113
C118	C	1.403716	0.619135	-0.044113
N119	N	0.939097	0.087858	0.148433
N120	N	1.439097	0.587858	0.648433
H121	H	0.682581	0.106849	-0.185946
H122	H	1.182581	0.606849	0.314054
H123	H	0.547786	0.091790	0.097696
H124	H	1.047786	0.591790	0.597696
H125	H	1.036771	0.001617	-0.850480
H126	H	1.536771	0.501617	-0.350480
H127	H	0.800757	-0.231634	-0.057441
H128	H	1.300757	0.268366	0.442559
H129	H	0.533873	0.104141	-0.175278
H130	H	1.033873	0.604141	0.324722
H131	H	1.062859	-0.129139	-0.076282
H132	H	1.562859	0.370861	0.423718
H133	H	0.811416	0.200649	-0.440271
H134	H	1.311416	0.700649	0.059729
H135	H	1.053302	-0.705310	-0.075526
H136	H	1.553302	-0.205310	0.424474
H137	H	0.850313	0.166263	-0.678922
H138	H	1.350313	0.666263	-0.178922
H139	H	1.005938	0.028902	-0.454227
H140	H	1.505938	0.528902	0.045773
H141	H	0.322376	0.091015	0.042140
H142	H	0.822376	0.591015	0.542140
H143	H	0.419160	0.092945	0.031412
H144	H	0.919160	0.592945	0.531412
H145	H	1.044835	-0.005478	-0.692880
H146	H	1.544835	0.494522	-0.192880
H147	H	0.159734	0.100698	-0.220172
H148	H	0.659734	0.600698	0.279828
H149	H	0.802941	-0.099505	-0.057602
H150	H	1.302941	0.400495	0.442398
H151	H	0.696510	0.094482	0.087034
H152	H	1.196510	0.594482	0.587034
H153	H	0.819483	0.193554	-0.282669
H154	H	1.319483	0.693554	0.217331
H155	H	1.060667	-0.261260	-0.076103
H156	H	1.560667	0.238740	0.423897
H157	H	0.308457	0.103382	-0.230841
H158	H	0.808457	0.603382	0.269159
H159	H	1.055495	-0.573188	-0.075710
H160	H	1.555495	-0.073188	0.424290
H161	H	0.793388	-0.675684	-0.056871
H162	H	1.293388	-0.175684	0.443129
H163	H	0.437082	0.102221	-0.164551
H164	H	0.937082	0.602221	0.335449
H165	H	0.173662	0.088340	0.052805
H166	H	0.673662	0.588340	0.552805
H167	H	1.014011	0.021810	-0.296638
H168	H	1.514011	0.521810	0.203362
H169	H	0.795578	-0.543558	-0.057044
H170	H	1.295578	-0.043558	0.442956
H171	H	0.842250	0.173367	-0.836513
H172	H	1.342250	0.673367	-0.336513
H173	H	0.858253	0.159260	-0.576347
H174	H	1.358253	0.659260	-0.076347
H175	H	0.997996	0.035904	-0.556797
H176	H	1.497996	0.535904	-0.056797
