data_functionalizedCrystal
_audit_creation_method	'MofGen! by Chris Wilmer'
_symmetry_space_group_name_H-M	'P1'
_symmetry_Int_Tables_number	1
_symmetry_cell_setting	triclinic
loop_
_symmetry_equiv_pos_as_xyz
  x,y,z
_cell_length_a	12.759401
_cell_length_b	19.121063
_cell_length_c	12.759401
_cell_angle_alpha	87.573089
_cell_angle_beta	90.003070
_cell_angle_gamma	92.469017
loop_
_atom_site_label
_atom_site_type_symbol
_atom_site_fract_x
_atom_site_fract_y
_atom_site_fract_z
Zn1	Zn	1.588145	-0.279744	0.611782
Zn2	Zn	2.088145	0.220256	1.111782
Zn3	Zn	1.580552	-0.397165	0.443574
Zn4	Zn	2.080552	0.102835	0.943574
Zn5	Zn	1.412495	-0.279731	0.436121
Zn6	Zn	1.912495	0.220269	0.936121
Zn7	Zn	1.404902	-0.397161	0.619215
Zn8	Zn	1.904902	0.102839	1.119215
O9	O	1.496524	-0.338450	0.527673
O10	O	1.996524	0.161550	1.027673
O11	O	1.734159	-0.295328	0.589477
O12	O	2.234159	0.204672	1.089477
O13	O	1.558260	-0.381583	0.295564
O14	O	2.058260	0.118417	0.795564
O15	O	1.442151	-0.181447	0.453192
O16	O	1.942151	0.318553	0.953192
O17	O	1.728580	-0.381596	0.465896
O18	O	2.228580	0.118404	0.965896
O19	O	1.571200	-0.181457	0.582250
O20	O	2.071200	0.318543	1.082250
O21	O	1.434789	-0.295304	0.290088
O22	O	1.934789	0.204696	0.790088
O23	O	1.264467	-0.295301	0.460400
O24	O	1.764467	0.204699	0.960400
O25	O	1.429209	-0.381590	0.765251
O26	O	1.929209	0.118410	1.265251
O27	O	1.258888	-0.381577	0.594919
O28	O	1.758888	0.118423	1.094919
O29	O	1.563837	-0.295324	0.759789
O30	O	2.063837	0.204676	1.259789
O31	O	1.550896	-0.495450	0.473104
O32	O	2.050896	0.004550	0.973104
O33	O	1.421846	-0.495448	0.602146
O34	O	1.921846	0.004552	1.102146
C35	C	1.223557	-0.338437	0.527658
C36	C	1.723557	0.161563	1.027658
C37	C	1.106780	-0.338449	0.527678
C38	C	1.606780	0.161551	1.027678
C39	C	1.049036	-0.383444	0.597615
C40	C	1.549036	0.116556	1.097615
C41	C	0.939311	-0.383453	0.597627
C42	C	1.439311	0.116547	1.097627
C43	C	0.945084	-0.293469	0.457755
C44	C	1.445084	0.206531	0.957755
C45	C	1.054807	-0.293457	0.457749
C46	C	1.554807	0.206543	0.957749
C47	C	1.101008	-0.428436	0.667544
C48	C	1.601008	0.071564	1.167544
C49	C	1.043264	-0.473436	0.737486
C50	C	1.543264	0.026564	1.237486
C51	C	0.933539	-0.473445	0.737498
C52	C	1.433539	0.026555	1.237498
C53	C	0.881559	-0.428454	0.667568
C54	C	1.381559	0.071546	1.167568
C55	C	1.484752	-0.520933	0.539263
C56	C	1.984752	-0.020933	1.039263
C57	C	1.479812	-0.599000	0.544257
C58	C	1.979812	-0.099000	1.044257
C59	C	1.544733	-0.635655	0.479473
C60	C	2.044733	-0.135655	0.979473
C61	C	1.540093	-0.709007	0.484175
C62	C	2.040093	-0.209007	0.984175
C63	C	1.470527	-0.745704	0.553657
C64	C	1.970527	-0.245704	1.053657
C65	C	1.405603	-0.709044	0.618448
C66	C	1.905603	-0.209044	1.118448
C67	C	1.410249	-0.635693	0.613750
C68	C	1.910249	-0.135693	1.113750
C69	C	1.453140	-0.967177	0.571205
C70	C	1.953140	-0.467177	1.071205
C71	C	1.448497	-1.040533	0.575896
C72	C	1.948497	-0.540533	1.075896
C73	C	1.582989	-1.040491	0.441624
C74	C	2.082989	-0.540491	0.941624
C75	C	1.587624	-0.967138	0.436928
C76	C	2.087624	-0.467138	0.936928
C77	C	1.522705	-0.930485	0.501723
C78	C	2.022705	-0.430485	1.001723
C79	C	1.465780	-0.820682	0.558463
C80	C	1.965780	-0.320682	1.058463
C81	C	1.527457	-0.855509	0.496921
C82	C	2.027457	-0.355509	0.996921
C83	C	1.770556	-0.338464	0.527689
C84	C	2.270556	0.161536	1.027689
C85	C	1.887332	-0.338470	0.527696
C86	C	2.387332	0.161530	1.027696
C87	C	1.496523	-0.338458	0.801707
C88	C	1.996523	0.161542	1.301707
C89	C	1.496523	-0.338462	0.918484
C90	C	1.996523	0.161538	1.418484
C91	C	1.508370	-0.155255	0.516061
C92	C	2.008370	0.344745	1.016061
C93	C	1.513418	-0.077187	0.511112
C94	C	2.013418	0.422813	1.011112
C95	C	1.560809	-0.383381	1.085926
C96	C	2.060809	0.116619	1.585926
C97	C	1.560806	-0.383382	0.976202
C98	C	2.060806	0.116618	1.476202
C99	C	1.432229	-0.293541	0.970496
C100	C	1.932229	0.206459	1.470496
C101	C	1.432227	-0.293544	1.080218
C102	C	1.932227	0.206456	1.580218
C103	C	1.625105	-0.428299	1.143638
C104	C	2.125105	0.071701	1.643638
C105	C	1.689397	-0.473221	1.091633
C106	C	2.189397	0.026779	1.591633
C107	C	1.689395	-0.473223	0.981909
C108	C	2.189395	0.026777	1.481909
C109	C	1.625100	-0.428303	0.924190
C110	C	2.125100	0.071697	1.424190
C111	C	1.496517	-0.338460	1.254706
C112	C	1.996517	0.161540	1.754706
C113	C	1.496523	-0.338462	1.137930
C114	C	1.996523	0.161538	1.637930
H115	H	1.190351	-0.428435	0.667540
H116	H	1.690351	0.071565	1.167540
H117	H	0.792214	-0.428459	0.667592
H118	H	1.292214	0.071541	1.167592
H119	H	0.886526	-0.510081	0.794455
H120	H	1.386526	-0.010081	1.294455
H121	H	1.391860	-1.070410	0.632495
H122	H	1.891860	-0.570410	1.132495
H123	H	1.348965	-0.738929	0.675027
H124	H	1.848965	-0.238929	1.175027
H125	H	1.085593	-0.510061	0.794427
H126	H	1.585593	-0.010061	1.294427
H127	H	0.902753	-0.256840	0.400820
H128	H	1.402753	0.243160	0.900820
H129	H	1.101824	-0.256812	0.400807
H130	H	1.601824	0.243188	0.900807
H131	H	1.601377	-0.605781	0.422889
H132	H	2.101377	-0.105781	0.922889
H133	H	1.357385	-0.605850	0.666506
H134	H	1.857385	-0.105850	1.166506
H135	H	1.584103	-0.825628	0.440353
H136	H	2.084103	-0.325628	0.940353
H137	H	1.625117	-0.428302	1.232981
H138	H	2.125117	0.071698	1.732981
H139	H	1.592958	-0.738847	0.431420
H140	H	2.092958	-0.238847	0.931420
H141	H	1.741739	-0.509796	1.138636
H142	H	2.241739	-0.009796	1.638636
H143	H	1.644271	-0.937261	0.380350
H144	H	2.144271	-0.437261	0.880350
H145	H	1.635844	-1.070341	0.388873
H146	H	2.135844	-0.570341	0.888873
H147	H	1.400278	-0.937340	0.623962
H148	H	1.900278	-0.437340	1.123962
H149	H	1.409137	-0.850568	0.615034
H150	H	1.909137	-0.350568	1.115034
H151	H	1.741738	-0.509804	0.939571
H152	H	2.241738	-0.009804	1.439571
H153	H	1.625090	-0.428316	0.834846
H154	H	2.125090	0.071684	1.334846
H155	H	1.379885	-0.256969	0.923492
H156	H	1.879885	0.243031	1.423492
H157	H	1.379883	-0.256965	1.122560
H158	H	1.879883	0.243035	1.622560
