data_functionalizedCrystal
_audit_creation_method	'MofGen! by Chris Wilmer'
_symmetry_space_group_name_H-M	'P1'
_symmetry_Int_Tables_number	1
_symmetry_cell_setting	triclinic
loop_
_symmetry_equiv_pos_as_xyz
  x,y,z
_cell_length_a	12.759401
_cell_length_b	16.959454
_cell_length_c	12.759393
_cell_angle_alpha	89.970996
_cell_angle_beta	89.979541
_cell_angle_gamma	90.021600
loop_
_atom_site_label
_atom_site_type_symbol
_atom_site_fract_x
_atom_site_fract_y
_atom_site_fract_z
Zn1	Zn	1.606222	-0.314616	-0.594026
Zn2	Zn	2.106222	0.185384	-0.094026
Zn3	Zn	1.606098	-0.446814	-0.418349
Zn4	Zn	2.106098	0.053186	0.081651
Zn5	Zn	1.430522	-0.314657	-0.418362
Zn6	Zn	1.930522	0.185343	0.081638
Zn7	Zn	1.430496	-0.446760	-0.593986
Zn8	Zn	1.930496	0.053240	-0.093986
O9	O	1.518335	-0.380712	-0.506181
O10	O	2.018335	0.119288	-0.006181
O11	O	1.753227	-0.332158	-0.570734
O12	O	2.253227	0.167842	-0.070734
O13	O	1.582767	-0.429322	-0.271330
O14	O	2.082767	0.070678	0.228670
O15	O	1.453892	-0.204040	-0.441686
O16	O	1.953892	0.295960	0.058314
O17	O	1.753136	-0.429283	-0.441665
O18	O	2.253136	0.070717	0.058335
O19	O	1.582978	-0.204011	-0.570746
O20	O	2.082978	0.295989	-0.070746
O21	O	1.453772	-0.332227	-0.271339
O22	O	1.953772	0.167773	0.228661
O23	O	1.283498	-0.332175	-0.441647
O24	O	1.783498	0.167825	0.058353
O25	O	1.453848	-0.429191	-0.741013
O26	O	1.953848	0.070809	-0.241013
O27	O	1.283479	-0.429231	-0.570678
O28	O	1.783479	0.070769	-0.070678
O29	O	1.582953	-0.332106	-0.741042
O30	O	2.082953	0.167894	-0.241042
O31	O	1.582742	-0.557418	-0.441626
O32	O	2.082742	-0.057418	0.058374
O33	O	1.453728	-0.557378	-0.570666
O34	O	1.953728	-0.057378	-0.070666
C35	C	1.245367	-0.380702	-0.506160
C36	C	1.745367	0.119298	-0.006160
C37	C	1.128591	-0.380717	-0.506176
C38	C	1.628591	0.119283	-0.006176
C39	C	1.518247	-0.586078	-0.506163
C40	C	2.018247	-0.086078	-0.006163
C41	C	1.518305	-0.673934	-0.506190
C42	C	2.018305	-0.173934	-0.006190
C43	C	1.073746	-0.431331	-0.573257
C44	C	1.573746	0.068669	-0.073257
C45	C	0.964022	-0.431334	-0.573277
C46	C	1.464022	0.068666	-0.073277
C47	C	0.963997	-0.330107	-0.439128
C48	C	1.463997	0.169893	0.060872
C49	C	1.073719	-0.330100	-0.439113
C50	C	1.573719	0.169900	0.060887
C51	C	1.451255	-1.045419	-0.573365
C52	C	1.951255	-0.545419	-0.073365
C53	C	1.585708	-1.045401	-0.439104
C54	C	2.085708	-0.545401	0.060896
C55	C	1.585671	-0.962855	-0.439094
C56	C	2.085671	-0.462855	0.060906
C57	C	1.518424	-0.921587	-0.506220
C58	C	2.018424	-0.421587	-0.006220
C59	C	1.451214	-0.962866	-0.573355
C60	C	1.951214	-0.462866	-0.073355
C61	C	1.652872	-0.921570	-0.371953
C62	C	2.152872	-0.421570	0.128047
C63	C	1.652837	-0.839019	-0.371940
C64	C	2.152837	-0.339019	0.128060
C65	C	1.585595	-0.797750	-0.439071
C66	C	2.085595	-0.297750	0.060929
C67	C	1.518383	-0.839034	-0.506210
C68	C	2.018383	-0.339034	-0.006210
C69	C	1.451136	-0.797767	-0.573335
C70	C	1.951136	-0.297767	-0.073335
C71	C	1.383928	-0.839049	-0.640480
C72	C	1.883928	-0.339049	-0.140480
C73	C	1.383971	-0.921597	-0.640486
C74	C	1.883971	-0.421597	-0.140486
C75	C	1.585552	-0.715202	-0.439065
C76	C	2.085552	-0.215202	0.060935
C77	C	1.451095	-0.715213	-0.573326
C78	C	1.951095	-0.215213	-0.073326
C79	C	1.792368	-0.380722	-0.506202
C80	C	2.292368	0.119278	-0.006202
C81	C	1.909145	-0.380726	-0.506212
C82	C	2.409145	0.119274	-0.006212
C83	C	1.518411	-0.380638	-0.780214
C84	C	2.018411	0.119362	-0.280214
C85	C	1.518444	-0.380607	-0.896991
C86	C	2.018444	0.119393	-0.396991
C87	C	1.518452	-0.174543	-0.506222
C88	C	2.018452	0.325457	-0.006222
C89	C	1.518502	-0.086687	-0.506239
C90	C	2.018502	0.413313	-0.006239
C91	C	1.585639	-0.431105	-1.061584
C92	C	2.085639	0.068895	-0.561584
C93	C	1.585613	-0.431143	-0.951860
C94	C	2.085613	0.068857	-0.451860
C95	C	1.451288	-0.330036	-0.951852
C96	C	1.951288	0.169964	-0.451852
C97	C	1.451309	-0.330003	-1.061574
C98	C	1.951309	0.169997	-0.561574
C99	C	1.518319	-0.380728	-0.233213
C100	C	2.018319	0.119272	0.266787
C101	C	1.518490	-0.380537	-0.116437
C102	C	2.018490	0.119463	0.383563
H103	H	1.118420	-0.472544	-0.627866
H104	H	1.618420	0.027456	-0.127866
H105	H	1.640451	-1.079005	-0.384447
H106	H	2.140451	-0.579005	0.115553
C107	C	1.377439	-0.274367	-1.121917
C108	C	1.877439	0.225633	-0.621917
N109	N	1.321803	-0.232465	-1.167367
N110	N	1.821803	0.267535	-0.667367
C111	C	1.659505	-0.486756	-0.891526
C112	C	2.159505	0.013244	-0.391526
N113	N	1.715170	-0.528641	-0.846083
N114	N	2.215170	-0.028641	-0.346083
H115	H	1.396539	-1.079035	-0.628035
H116	H	1.896539	-0.579035	-0.128035
H117	H	0.919373	-0.472547	-0.627903
H118	H	1.419373	0.027453	-0.127903
H119	H	1.329253	-0.955216	-0.695151
H120	H	1.829253	-0.455216	-0.195151
C121	C	1.726823	-0.966969	-0.298105
C122	C	2.226823	-0.466969	0.201895
N123	N	1.782523	-1.001167	-0.242477
N124	N	2.282523	-0.501167	0.257523
C125	C	1.377409	-0.274438	-0.891493
C126	C	1.877409	0.225562	-0.391493
N127	N	1.321768	-0.232557	-0.846031
N128	N	1.821768	0.267443	-0.346031
H129	H	1.707562	-0.805412	-0.317268
H130	H	2.207562	-0.305412	0.182732
H131	H	1.329171	-0.805439	-0.695130
H132	H	1.829171	-0.305439	-0.195130
C133	C	1.659477	-0.669795	-0.365212
C134	C	2.159477	-0.169795	0.134788
N135	N	1.715165	-0.635596	-0.309585
N136	N	2.215165	-0.135596	0.190415
H137	H	1.640341	-0.472254	-1.106250
H138	H	2.140341	0.027746	-0.606250
H139	H	0.919307	-0.288898	-0.384526
H140	H	1.419307	0.211102	0.115474
H141	H	1.396338	-0.681618	-0.627992
H142	H	1.896338	-0.181618	-0.127992
C143	C	1.134051	-0.274419	-0.365315
C144	C	1.634051	0.225581	0.134685
N145	N	1.179494	-0.232480	-0.309734
N146	N	1.679494	0.267520	0.190266
