data_functionalizedCrystal
_audit_creation_method	'MofGen! by Chris Wilmer'
_symmetry_space_group_name_H-M	'P1'
_symmetry_Int_Tables_number	1
_symmetry_cell_setting	triclinic
loop_
_symmetry_equiv_pos_as_xyz
  x,y,z
_cell_length_a	14.971506
_cell_length_b	15.021413
_cell_length_c	14.971486
_cell_angle_alpha	90.003812
_cell_angle_beta	96.381742
_cell_angle_gamma	90.007631
loop_
_atom_site_label
_atom_site_type_symbol
_atom_site_fract_x
_atom_site_fract_y
_atom_site_fract_z
O1	O	1.186939	0.074039	-0.116637
O2	O	1.436939	0.324039	0.133363
O3	O	1.686939	0.574039	0.383363
O4	O	1.936939	0.824039	0.633363
O5	O	0.926541	0.074039	-0.130577
O6	O	1.176541	0.324039	0.119423
O7	O	1.426541	0.574039	0.369423
O8	O	1.676541	0.824039	0.619423
O9	O	1.063719	0.074033	0.006593
O10	O	1.313719	0.324033	0.256593
O11	O	1.563719	0.574033	0.506593
O12	O	1.813719	0.824033	0.756593
O13	O	1.049760	0.074045	-0.253806
O14	O	1.299760	0.324045	-0.003806
O15	O	1.549760	0.574045	0.246194
O16	O	1.799760	0.824045	0.496194
O17	O	1.063697	-0.074032	0.006573
O18	O	1.313697	0.175968	0.256573
O19	O	1.563697	0.425968	0.506573
O20	O	1.813697	0.675968	0.756573
O21	O	0.926519	-0.074025	-0.130596
O22	O	1.176519	0.175975	0.119404
O23	O	1.426519	0.425975	0.369404
O24	O	1.676519	0.675975	0.619404
O25	O	1.186917	-0.074025	-0.116656
O26	O	1.436917	0.175975	0.133344
O27	O	1.686917	0.425975	0.383344
O28	O	1.936917	0.675975	0.633344
Zn29	Zn	1.056714	-0.097534	-0.123629
Zn30	Zn	1.306714	0.152466	0.126371
Zn31	Zn	1.556714	0.402466	0.376371
Zn32	Zn	1.806714	0.652466	0.626371
Zn33	Zn	1.056743	0.097547	-0.123604
Zn34	Zn	1.306743	0.347547	0.126396
Zn35	Zn	1.556743	0.597547	0.376396
Zn36	Zn	1.806743	0.847547	0.626396
O37	O	1.049738	-0.074019	-0.253826
O38	O	1.299738	0.175981	-0.003826
O39	O	1.549738	0.425981	0.246174
O40	O	1.799738	0.675981	0.496174
C41	C	0.893205	0.000007	-0.129960
C42	C	1.143205	0.250007	0.120040
C43	C	1.393205	0.500007	0.370040
C44	C	1.643205	0.750007	0.620040
C45	C	0.793909	0.000007	-0.128082
C46	C	1.043909	0.250007	0.121918
C47	C	1.293909	0.500007	0.371918
C48	C	1.543909	0.750007	0.621918
N49	N	1.056701	-0.230671	-0.123647
N50	N	1.306701	0.019329	0.126353
N51	N	1.556701	0.269329	0.376353
N52	N	1.806701	0.519329	0.626353
C53	C	0.355627	0.000020	-0.201500
C54	C	0.605627	0.250020	0.048500
C55	C	0.855627	0.500020	0.298500
C56	C	1.105627	0.750020	0.548500
C57	C	0.448927	0.000024	-0.203258
C58	C	0.698927	0.250024	0.046742
C59	C	0.948927	0.500024	0.296742
C60	C	1.198927	0.750024	0.546742
C61	C	0.506147	0.000016	-0.122665
C62	C	0.756147	0.250016	0.127335
C63	C	1.006147	0.500016	0.377335
C64	C	1.256147	0.750016	0.627335
C65	C	0.470062	0.000013	-0.040310
C66	C	0.720062	0.250013	0.209690
C67	C	0.970062	0.500013	0.459690
C68	C	1.220062	0.750013	0.709690
C69	C	0.376764	0.000016	-0.038553
C70	C	0.626764	0.250016	0.211447
C71	C	0.876764	0.500016	0.461447
C72	C	1.126764	0.750016	0.711447
C73	C	0.664525	0.000006	-0.043977
C74	C	0.914525	0.250006	0.206023
C75	C	1.164525	0.500006	0.456023
C76	C	1.414525	0.750006	0.706023
C77	C	0.757831	0.000002	-0.045733
C78	C	1.007831	0.250002	0.204267
C79	C	1.257831	0.500002	0.454267
C80	C	1.507831	0.750002	0.704267
C81	C	0.736689	0.000014	-0.208681
C82	C	0.986689	0.250014	0.041319
C83	C	1.236689	0.500014	0.291319
C84	C	1.486689	0.750014	0.541319
C85	C	0.643390	0.000017	-0.206924
C86	C	0.893390	0.250017	0.043076
C87	C	1.143390	0.500017	0.293076
C88	C	1.393390	0.750017	0.543076
C89	C	0.607312	0.000012	-0.124569
C90	C	0.857312	0.250012	0.125431
C91	C	1.107312	0.500012	0.375431
C92	C	1.357312	0.750012	0.625431
C93	C	0.993260	-0.470351	-0.187044
C94	C	1.243260	-0.220351	0.062956
C95	C	1.493260	0.029649	0.312956
C96	C	1.743260	0.279649	0.562956
C97	C	1.074101	-0.529685	-0.204497
C98	C	1.324101	-0.279685	0.045503
C99	C	1.574101	-0.029685	0.295503
C100	C	1.824101	0.220315	0.545503
C101	C	1.056724	-0.412278	-0.123624
C102	C	1.306724	-0.162278	0.126376
C103	C	1.556724	0.087722	0.376376
C104	C	1.806724	0.337722	0.626376
C105	C	0.975905	-0.529686	-0.106192
C106	C	1.225905	-0.279686	0.143808
C107	C	1.475905	-0.029686	0.393808
C108	C	1.725905	0.220314	0.643808
C109	C	1.056739	-0.587702	-0.123605
C110	C	1.306739	-0.337702	0.126395
C111	C	1.556739	-0.087702	0.376395
C112	C	1.806739	0.162298	0.626395
C113	C	1.137606	-0.470305	-0.141117
C114	C	1.387606	-0.220305	0.108883
C115	C	1.637606	0.029695	0.358883
C116	C	1.887606	0.279695	0.608883
C117	C	1.039356	-0.470301	-0.042777
C118	C	1.289356	-0.220301	0.207223
C119	C	1.539356	0.029699	0.457223
C120	C	1.789356	0.279699	0.707223
C121	C	1.120256	-0.529608	-0.060195
C122	C	1.370256	-0.279608	0.189805
C123	C	1.620256	-0.029608	0.439805
C124	C	1.870256	0.220392	0.689805
C125	C	1.056714	-0.311221	-0.123638
C126	C	1.306714	-0.061221	0.126362
C127	C	1.556714	0.188779	0.376362
C128	C	1.806714	0.438779	0.626362
C129	C	1.056758	-0.688757	-0.123590
C130	C	1.306758	-0.438757	0.126410
C131	C	1.556758	-0.188757	0.376410
C132	C	1.806758	0.061243	0.626410
C133	C	1.220252	0.000009	-0.117273
C134	C	1.470252	0.250009	0.132727
C135	C	1.720252	0.500009	0.382727
C136	C	1.970252	0.750009	0.632727
C137	C	1.319548	0.000014	-0.119151
C138	C	1.569548	0.250014	0.130849
C139	C	1.819548	0.500014	0.380849
C140	C	2.069548	0.750014	0.630849
C141	C	1.063084	0.000001	0.039908
C142	C	1.313084	0.250001	0.289908
C143	C	1.563084	0.500001	0.539908
C144	C	1.813084	0.750001	0.789908
C145	C	1.061213	0.000002	0.139205
C146	C	1.311213	0.250002	0.389205
C147	C	1.561213	0.500002	0.639205
C148	C	1.811213	0.750002	0.889205
N149	N	1.056763	0.230685	-0.123580
N150	N	1.306763	0.480685	0.126420
N151	N	1.556763	0.730685	0.376420
N152	N	1.806763	0.980685	0.626420
C153	C	1.050374	0.000015	-0.287141
C154	C	1.300374	0.250015	-0.037141
C155	C	1.550374	0.500015	0.212859
C156	C	1.800374	0.750015	0.462859
C157	C	1.052244	0.000020	-0.386438
C158	C	1.302244	0.250020	-0.136438
C159	C	1.552244	0.500020	0.113562
C160	C	1.802244	0.750020	0.363562
C161	C	1.141802	0.000001	0.196424
C162	C	1.391802	0.250001	0.446424
C163	C	1.641802	0.500001	0.696424
C164	C	1.891802	0.750001	0.946424
C165	C	1.140038	0.000010	0.289724
C166	C	1.390038	0.250010	0.539724
C167	C	1.640038	0.500010	0.789724
C168	C	1.890038	0.750010	1.039724
C169	C	1.057686	0.000013	0.325802
C170	C	1.307686	0.250013	0.575802
C171	C	1.557686	0.500013	0.825802
C172	C	1.807686	0.750013	1.075802
C173	C	0.977091	0.000017	0.268575
C174	C	1.227091	0.250017	0.518575
C175	C	1.477091	0.500017	0.768575
C176	C	1.727091	0.750017	1.018575
C177	C	0.978855	0.000014	0.175278
C178	C	1.228855	0.250014	0.425278
C179	C	1.478855	0.500014	0.675278
C180	C	1.728855	0.750014	0.925278
C181	C	0.973420	0.000020	0.463038
C182	C	1.223420	0.250020	0.713038
C183	C	1.473420	0.500020	0.963038
C184	C	1.723420	0.750020	1.213038
C185	C	0.971656	0.000021	0.556342
C186	C	1.221656	0.250021	0.806342
C187	C	1.471656	0.500021	1.056342
C188	C	1.721656	0.750021	1.306342
C189	C	1.134603	0.000016	0.577485
C190	C	1.384603	0.250016	0.827485
C191	C	1.634603	0.500016	1.077485
C192	C	1.884603	0.750016	1.327485
C193	C	1.136367	0.000013	0.484187
C194	C	1.386367	0.250013	0.734187
C195	C	1.636367	0.500013	0.984187
C196	C	1.886367	0.750013	1.234187
C197	C	1.055772	0.000015	0.426966
C198	C	1.305772	0.250015	0.676966
C199	C	1.555772	0.500015	0.926966
C200	C	1.805772	0.750015	1.176966
H201	H	0.309044	0.000020	-0.267128
H202	H	0.559044	0.250020	-0.017128
H203	H	0.809044	0.500020	0.232872
H204	H	1.059044	0.750020	0.482872
H205	H	0.907551	-0.555772	-0.091456
H206	H	1.157551	-0.305772	0.158544
H207	H	1.407551	-0.055772	0.408544
H208	H	1.657551	0.194228	0.658544
H209	H	0.910038	0.000025	0.297958
H210	H	1.160038	0.250025	0.547958
H211	H	1.410038	0.500025	0.797958
H212	H	1.660038	0.750025	1.047958
H213	H	0.804417	0.000003	0.019892
H214	H	1.054417	0.250003	0.269892
H215	H	1.304417	0.500003	0.519892
H216	H	1.554417	0.750003	0.769892
H217	H	1.088805	-0.555769	-0.272859
H218	H	1.338805	-0.305769	-0.022859
H219	H	1.588805	-0.055769	0.227141
H220	H	1.838805	0.194231	0.477141
H221	H	1.205975	-0.444331	-0.155935
H222	H	1.455975	-0.194331	0.094065
H223	H	1.705975	0.055669	0.344065
H224	H	1.955975	0.305669	0.594065
H225	H	1.208862	-0.000007	0.167057
H226	H	1.458862	0.249993	0.417057
H227	H	1.708862	0.499993	0.667057
H228	H	1.958862	0.749993	0.917057
H229	H	1.173990	-0.555463	-0.006552
H230	H	1.423990	-0.305463	0.243448
H231	H	1.673990	-0.055463	0.493448
H232	H	1.923990	0.194537	0.743448
H233	H	0.635155	0.000007	0.023086
H234	H	0.885155	0.250007	0.273086
H235	H	1.135155	0.500007	0.523086
H236	H	1.385155	0.750007	0.773086
H237	H	0.478297	0.000037	-0.270314
H238	H	0.728297	0.250037	-0.020314
H239	H	0.978297	0.500037	0.229686
H240	H	1.228297	0.750037	0.479686
H241	H	0.516658	0.000012	0.025310
H242	H	0.766658	0.250012	0.275310
H243	H	1.016658	0.500012	0.525310
H244	H	1.266658	0.750012	0.775310
H245	H	1.024628	-0.444197	0.025563
H246	H	1.274628	-0.194197	0.275563
H247	H	1.524628	0.055803	0.525563
H248	H	1.774628	0.305803	0.775563
H249	H	1.205662	0.000007	0.336309
H250	H	1.455662	0.250007	0.586309
H251	H	1.705662	0.500007	0.836309
H252	H	1.955662	0.750007	1.086309
H253	H	1.203426	0.000004	0.454815
H254	H	1.453426	0.250004	0.704815
H255	H	1.703426	0.500004	0.954815
H256	H	1.953426	0.750004	1.204815
H257	H	1.200227	0.000017	0.624078
H258	H	1.450227	0.250017	0.874078
H259	H	1.700227	0.500017	1.124078
H260	H	1.950227	0.750017	1.374078
H261	H	0.904597	0.000009	0.585714
H262	H	1.154597	0.250009	0.835714
H263	H	1.404597	0.500009	1.085714
H264	H	1.654597	0.750009	1.335714
H265	H	0.907791	0.000024	0.416451
H266	H	1.157791	0.250024	0.666451
H267	H	1.407791	0.500024	0.916451
H268	H	1.657791	0.750024	1.166451
H269	H	0.596803	0.000017	-0.272550
H270	H	0.846803	0.250017	-0.022550
H271	H	1.096803	0.500017	0.227450
H272	H	1.346803	0.750017	0.477450
H273	H	0.766067	0.000017	-0.275738
H274	H	1.016067	0.250017	-0.025738
H275	H	1.266067	0.500017	0.224262
H276	H	1.516067	0.750017	0.474262
H277	H	0.347391	0.000013	0.028503
H278	H	0.597391	0.250013	0.278503
H279	H	0.847391	0.500013	0.528503
H280	H	1.097391	0.750013	0.778503
H281	H	0.913232	0.000015	0.128690
H282	H	1.163232	0.250015	0.378690
H283	H	1.413232	0.500015	0.628690
H284	H	1.663232	0.750015	0.878690
H285	H	0.939645	-0.444333	-0.240719
H286	H	1.189645	-0.194333	0.009281
H287	H	1.439645	0.055667	0.259281
H288	H	1.689645	0.305667	0.509281
