data_functionalizedCrystal
_audit_creation_method	'MofGen! by Chris Wilmer'
_symmetry_space_group_name_H-M	'P1'
_symmetry_Int_Tables_number	1
_symmetry_cell_setting	triclinic
loop_
_symmetry_equiv_pos_as_xyz
  x,y,z
_cell_length_a	13.897449
_cell_length_b	16.959454
_cell_length_c	16.959447
_cell_angle_alpha	90.025463
_cell_angle_beta	89.982062
_cell_angle_gamma	89.978645
loop_
_atom_site_label
_atom_site_type_symbol
_atom_site_fract_x
_atom_site_fract_y
_atom_site_fract_z
Zn1	Zn	1.474660	0.314649	-0.446928
Zn2	Zn	1.474555	0.446838	-0.314757
Zn3	Zn	1.313357	0.314681	-0.314765
Zn4	Zn	1.313324	0.446792	-0.446896
O5	O	1.393974	0.380740	-0.380837
O6	O	1.609628	0.332190	-0.429405
O7	O	1.453142	0.429340	-0.204148
O8	O	1.334812	0.204066	-0.332313
O9	O	1.609551	0.429309	-0.332300
O10	O	1.453320	0.204042	-0.429413
O11	O	1.334710	0.332244	-0.204153
O12	O	1.178371	0.332200	-0.332283
O13	O	1.334756	0.429230	-0.557511
O14	O	1.178347	0.429261	-0.429359
O15	O	1.453289	0.332145	-0.557535
O16	O	1.453110	0.557443	-0.332269
O17	O	1.334654	0.557409	-0.429351
C18	C	1.393893	0.586106	-0.380823
C19	C	1.393947	0.673963	-0.380844
C20	C	1.143360	0.380730	-0.380819
C21	C	1.036146	0.380744	-0.380830
C22	C	1.394030	0.380679	-0.587005
C23	C	1.394054	0.380653	-0.674862
C24	C	0.839851	0.380747	-0.380850
C25	C	0.949083	0.380743	-0.380837
C26	C	1.645567	0.380751	-0.380855
C27	C	1.752781	0.380756	-0.380863
C28	C	1.394082	0.174572	-0.380867
C29	C	1.394127	0.086715	-0.380881
C30	C	1.332384	1.045451	-0.431382
C31	C	1.455833	1.045426	-0.330372
C32	C	1.455800	0.962880	-0.330365
C33	C	1.394056	0.921616	-0.380866
C34	C	1.332346	0.962897	-0.431374
C35	C	1.517501	0.921593	-0.279852
C36	C	1.517469	0.839042	-0.279842
C37	C	1.455730	0.797776	-0.330348
C38	C	1.394018	0.839062	-0.380859
C39	C	1.332275	0.797798	-0.431360
C40	C	1.270567	0.839083	-0.481875
C41	C	1.270607	0.921631	-0.481880
C42	C	1.455691	0.715227	-0.330343
C43	C	1.332237	0.715244	-0.431352
C44	C	1.455728	0.431193	-0.716134
C45	C	1.332397	0.330093	-0.716143
C46	C	1.332413	0.330070	-0.798689
C47	C	1.394087	0.380610	-0.839961
C48	C	1.455745	0.431173	-0.798688
C49	C	1.270750	0.279513	-0.839968
C50	C	1.270763	0.279489	-0.922519
C51	C	1.332443	0.330025	-0.963793
C52	C	1.394104	0.380590	-0.922515
C53	C	1.455778	0.431130	-0.963787
C54	C	1.517444	0.481691	-0.922510
C55	C	1.517424	0.481710	-0.839962
C56	C	1.332463	0.330007	-1.046342
C57	C	1.455794	0.431110	-1.046341
C58	C	1.393974	0.380744	-0.175470
C59	C	1.394137	0.380547	-0.087614
H60	H	1.281961	0.681652	-0.472480
H61	H	1.506096	1.079029	-0.289252
H62	H	1.220532	0.238372	-0.806358
H63	H	1.282146	1.079069	-0.472512
C64	C	1.203972	0.224553	-0.967436
C65	C	1.258616	0.173890	-1.014859
C66	C	1.197122	0.123282	-1.056259
H67	H	1.167212	0.194382	-0.931126
H68	H	1.161957	0.254766	-0.999673
H69	H	1.300614	0.143681	-0.982625
H70	H	1.295374	0.204040	-1.051184
H71	H	1.155107	0.153494	-1.088496
H72	H	1.160365	0.093116	-1.019943
H73	H	1.234188	0.088906	-1.088446
C74	C	1.265399	0.275251	-1.091199
C75	C	1.203554	0.319998	-1.138561
C76	C	1.141752	0.269581	-1.179886
H77	H	1.302206	0.240784	-1.123475
H78	H	1.228606	0.245170	-1.054821
H79	H	1.240343	0.350065	-1.174935
H80	H	1.166726	0.354463	-1.106304
H81	H	1.104958	0.239500	-1.143509
H82	H	1.178566	0.235116	-1.212158
H83	H	1.099776	0.299934	-1.212021
H84	H	1.567762	0.955196	-0.238731
C85	C	1.584521	0.536515	-0.795192
C86	C	1.679977	0.519294	-0.815263
C87	C	1.741807	0.569761	-0.774028
H88	H	1.570504	0.589646	-0.808680
H89	H	1.575740	0.529288	-0.740110
H90	H	1.688754	0.526528	-0.870333
H91	H	1.694024	0.466172	-0.801773
H92	H	1.733026	0.562533	-0.718946
H93	H	1.727781	0.622889	-0.787519
H94	H	1.806581	0.558078	-0.787635
C95	C	1.584576	0.794364	-0.224975
C96	C	1.638672	0.848172	-0.180765
C97	C	1.700513	0.807043	-0.130225
H98	H	1.547801	0.762196	-0.190435
H99	H	1.626621	0.762142	-0.255227
H100	H	1.596633	0.880381	-0.150516
H101	H	1.675466	0.880342	-0.215285
H102	H	1.742557	0.774820	-0.160477
H103	H	1.663730	0.774875	-0.095690
H104	H	1.737230	0.843544	-0.100228
C105	C	1.522516	0.670361	-0.275405
C106	C	1.467908	0.623043	-0.224691
C107	C	1.529437	0.581708	-0.174063
H108	H	1.564530	0.638053	-0.305576
H109	H	1.559273	0.706733	-0.245280
H110	H	1.431167	0.586675	-0.254813
H111	H	1.425896	0.655331	-0.194502
H112	H	1.566195	0.618081	-0.143937
H113	H	1.571449	0.549405	-0.204240
H114	H	1.492395	0.549604	-0.139642
C115	C	1.203453	0.966352	-0.536672
C116	C	1.108021	0.946322	-0.519402
C117	C	1.046132	0.987497	-0.569865
H118	H	1.212184	1.021437	-0.529492
H119	H	1.217467	0.952773	-0.589804
H120	H	1.094011	0.959907	-0.466283
H121	H	1.099260	0.891244	-0.526587
H122	H	1.060147	0.973918	-0.622997
H123	H	1.054871	1.042580	-0.562681
H124	H	0.981375	0.973907	-0.558159
H125	H	1.506021	0.472263	-1.079939
H126	H	1.567656	0.522844	-0.956125
C127	C	1.203637	0.794134	-0.536673
C128	C	1.216830	0.713007	-0.525860
C129	C	1.155202	0.671573	-0.576331
H130	H	1.138801	0.807613	-0.525113
H131	H	1.217733	0.807572	-0.589812
H132	H	1.202727	0.699574	-0.472732
H133	H	1.281653	0.699504	-0.537426
H134	H	1.169298	0.685011	-0.629470
H135	H	1.090369	0.685058	-0.564766
H136	H	1.164151	0.616524	-0.569006
H137	H	1.505938	0.472357	-0.682523
C138	C	1.265544	0.275254	-0.671193
C139	C	1.278741	0.286082	-0.590065
C140	C	1.217181	0.235567	-0.548630
H141	H	1.200691	0.286766	-0.684616
H142	H	1.279700	0.222125	-0.684685
H143	H	1.264578	0.339199	-0.576578
H144	H	1.343580	0.274565	-0.576618
H145	H	1.231337	0.182438	-0.562123
H146	H	1.152332	0.247083	-0.562060
H147	H	1.226133	0.242902	-0.493582
