data_functionalizedCrystal
_audit_creation_method	'MofGen! by Chris Wilmer'
_symmetry_space_group_name_H-M	'P1'
_symmetry_Int_Tables_number	1
_symmetry_cell_setting	triclinic
loop_
_symmetry_equiv_pos_as_xyz
  x,y,z
_cell_length_a	10.686220
_cell_length_b	12.827892
_cell_length_c	10.685880
_cell_angle_alpha	94.339956
_cell_angle_beta	89.641569
_cell_angle_gamma	94.396976
loop_
_atom_site_label
_atom_site_type_symbol
_atom_site_fract_x
_atom_site_fract_y
_atom_site_fract_z
Zn1	Zn	1.972253	-0.326209	-0.562376
Zn2	Zn	1.956034	-0.488709	-0.352625
Zn3	Zn	1.746382	-0.328338	-0.368698
Zn4	Zn	1.762451	-0.515271	-0.578397
O5	O	1.859280	-0.414632	-0.465524
O6	O	2.145644	-0.335757	-0.521120
O7	O	1.914711	-0.457210	-0.179216
O8	O	1.776407	-0.181817	-0.394412
O9	O	2.133729	-0.455145	-0.367017
O10	O	1.942353	-0.180253	-0.536706
O11	O	1.760681	-0.339387	-0.191025
O12	O	1.572971	-0.365143	-0.409947
O13	O	1.803795	-0.500416	-0.751813
O14	O	1.584777	-0.502481	-0.564012
O15	O	1.957935	-0.361513	-0.740042
O16	O	1.930293	-0.638471	-0.382552
O17	O	1.788068	-0.657986	-0.548426
C18	C	1.533358	-0.436926	-0.490463
C19	C	1.393929	-0.446491	-0.501161
C20	C	1.859200	-0.686146	-0.465508
C21	C	1.859284	-0.802295	-0.465534
C22	C	1.929758	-0.844387	-0.383532
C23	C	1.929846	-0.964434	-0.383557
C24	C	2.186475	-0.392251	-0.440488
C25	C	2.325906	-0.382713	-0.429820
C26	C	1.884466	-0.433690	-0.792716
C27	C	1.895199	-0.441812	-0.932146
C28	C	1.859397	-0.142057	-0.465565
C29	C	1.859447	-0.025901	-0.465582
C30	C	1.834264	-0.395567	-0.139599
C31	C	1.823775	-0.387135	-0.000151
H32	H	1.374336	-0.320794	-0.360555
C33	C	1.731192	-0.316594	-0.935410
C34	C	1.645056	-0.376933	-0.866310
C35	C	1.559759	-0.311985	-0.806633
H36	H	1.687692	-0.283356	-0.996633
H37	H	1.775266	-0.264852	-0.880557
H38	H	1.600986	-0.428656	-0.921159
H39	H	1.688519	-0.410170	-0.805067
H40	H	1.603833	-0.260242	-0.751779
H41	H	1.516269	-0.278750	-0.867864
H42	H	1.501313	-0.352913	-0.759733
H43	H	1.345493	-0.508421	-0.570422
H44	H	1.964569	-0.494841	-0.980597
H45	H	1.990034	-0.791553	-0.313312
H46	H	1.990178	-1.000669	-0.313349
H47	H	1.799019	-0.855132	-0.535762
H48	H	1.799102	-0.989674	-0.535787
