data_functionalizedCrystal
_audit_creation_method	'MofGen! by Chris Wilmer'
_symmetry_space_group_name_H-M	'P1'
_symmetry_Int_Tables_number	1
_symmetry_cell_setting	triclinic
loop_
_symmetry_equiv_pos_as_xyz
  x,y,z
_cell_length_a	10.685901
_cell_length_b	16.625545
_cell_length_c	10.686551
_cell_angle_alpha	85.592661
_cell_angle_beta	89.651709
_cell_angle_gamma	85.662197
loop_
_atom_site_label
_atom_site_type_symbol
_atom_site_fract_x
_atom_site_fract_y
_atom_site_fract_z
Zn1	Zn	1.972106	-0.389894	-0.561857
Zn2	Zn	1.955835	-0.534241	-0.352096
Zn3	Zn	1.746232	-0.388379	-0.368233
Zn4	Zn	1.762278	-0.513634	-0.577925
O5	O	1.859113	-0.456537	-0.465028
O6	O	2.145480	-0.418300	-0.520554
O7	O	1.914506	-0.522882	-0.178695
O8	O	1.776289	-0.275751	-0.393947
O9	O	2.133526	-0.524351	-0.366444
O10	O	1.942238	-0.276864	-0.536202
O11	O	1.760512	-0.415718	-0.190550
O12	O	1.572828	-0.395736	-0.409527
O13	O	1.803636	-0.489229	-0.751336
O14	O	1.584616	-0.487760	-0.563587
O15	O	1.957796	-0.398318	-0.739531
O16	O	1.930064	-0.644337	-0.382024
O17	O	1.787859	-0.629196	-0.547939
C18	C	1.533208	-0.439348	-0.490052
C19	C	1.393787	-0.432013	-0.500788
C20	C	1.858973	-0.666022	-0.464999
C21	C	1.859032	-0.755645	-0.465020
C22	C	1.859082	-0.828429	-0.465041
C23	C	1.859157	-0.919740	-0.465063
C24	C	1.859224	-0.992519	-0.465074
C25	C	1.859297	-1.083836	-0.465094
C26	C	2.186290	-0.473793	-0.439907
C27	C	2.325713	-0.481147	-0.429201
C28	C	1.884321	-0.441644	-0.792222
C29	C	1.895063	-0.435297	-0.931653
C30	C	1.859289	-0.246234	-0.465082
C31	C	1.859364	-0.156615	-0.465105
C32	C	1.834075	-0.471318	-0.139101
C33	C	1.823575	-0.477450	0.000348
H34	H	1.374094	-0.528826	-0.359709
C35	C	1.987837	-0.380813	-0.996168
C36	C	2.109516	-0.406355	-0.954875
C37	C	2.195014	-0.356190	-1.014300
H38	H	1.968063	-0.326611	-0.976223
H39	H	1.983083	-0.383672	-1.084444
H40	H	2.114267	-0.403488	-0.866620
H41	H	2.129330	-0.460550	-0.974820
H42	H	2.190259	-0.359050	-1.102576
H43	H	2.175228	-0.301991	-0.994351
H44	H	2.277583	-0.373518	-0.986300
C45	C	1.329364	-0.368531	-0.593672
C46	C	1.370701	-0.382230	-0.715322
C47	C	1.311370	-0.323776	-0.800919
H48	H	1.349349	-0.316241	-0.574001
H49	H	1.241082	-0.371888	-0.588900
H50	H	1.458963	-0.378866	-0.720089
H51	H	1.350715	-0.434509	-0.735032
H52	H	1.223087	-0.327133	-0.796147
H53	H	1.331359	-0.271490	-0.781237
H54	H	1.339399	-0.333067	-0.883469
C55	C	1.731167	-0.532193	-0.935101
C56	C	1.760862	-0.611981	-0.964743
C57	C	1.675780	-0.662435	-0.905285
H58	H	1.648475	-0.515096	-0.962931
H59	H	1.736021	-0.529403	-0.846818
H60	H	1.755997	-0.614768	-1.053007
H61	H	1.843540	-0.629102	-0.936910
H62	H	1.680633	-0.659644	-0.817002
H63	H	1.593092	-0.645330	-0.933121
H64	H	1.695923	-0.716577	-0.925380
