data_functionalizedCrystal
_audit_creation_method	'MofGen! by Chris Wilmer'
_symmetry_space_group_name_H-M	'P1'
_symmetry_Int_Tables_number	1
_symmetry_cell_setting	triclinic
loop_
_symmetry_equiv_pos_as_xyz
  x,y,z
_cell_length_a	29.839134
_cell_length_b	29.839131
_cell_length_c	21.395355
_cell_angle_alpha	90.020172
_cell_angle_beta	90.034273
_cell_angle_gamma	90.036281
loop_
_atom_site_label
_atom_site_type_symbol
_atom_site_fract_x
_atom_site_fract_y
_atom_site_fract_z
Zn1	Zn	0.686774	-0.178967	0.354417
Zn2	Zn	1.186774	0.321033	0.854417
Zn3	Zn	0.686690	-0.254082	0.249636
Zn4	Zn	1.186690	0.245918	0.749636
Zn5	Zn	0.611641	-0.178960	0.249636
Zn6	Zn	1.111641	0.321040	0.749636
Zn7	Zn	0.611605	-0.254064	0.354359
Zn8	Zn	1.111605	0.245936	0.854359
O9	O	0.649177	-0.216518	0.302012
O10	O	1.149177	0.283482	0.802012
O11	O	0.749630	-0.188942	0.340542
O12	O	1.249630	0.311058	0.840542
O13	O	0.676715	-0.244122	0.161958
O14	O	1.176715	0.255878	0.661958
O15	O	0.621658	-0.116094	0.263559
O16	O	1.121658	0.383906	0.763559
O17	O	0.749568	-0.244128	0.263560
O18	O	1.249568	0.255872	0.763560
O19	O	0.676858	-0.116099	0.340541
O20	O	1.176858	0.383901	0.840541
O21	O	0.621576	-0.188930	0.161958
O22	O	1.121576	0.311070	0.661958
O23	O	0.548769	-0.188912	0.263503
O24	O	1.048769	0.311088	0.763503
O25	O	0.621596	-0.244097	0.442044
O26	O	1.121596	0.255903	0.942044
O27	O	0.548742	-0.244091	0.340442
O28	O	1.048742	0.255909	0.840442
O29	O	0.676823	-0.188924	0.442087
O30	O	1.176823	0.311076	0.942087
O31	O	0.676680	-0.316947	0.263504
O32	O	1.176680	0.183053	0.763504
O33	O	0.621515	-0.316933	0.340443
O34	O	1.121515	0.183067	0.840443
C35	C	0.532455	-0.216499	0.301967
C36	C	1.032455	0.283501	0.801967
C37	C	0.482520	-0.216502	0.301962
C38	C	0.982520	0.283498	0.801962
C39	C	0.172873	-0.245292	0.342025
C40	C	0.672873	0.254708	0.842025
C41	C	-0.014800	-0.245305	0.342053
C42	C	0.485200	0.254695	0.842053
O43	O	-0.039069	-0.269762	0.376089
O44	O	0.460931	0.230238	0.876089
N45	N	-0.038265	-0.216535	0.302059
N46	N	0.461735	0.283465	0.802059
C47	C	-0.014808	-0.187758	0.262058
C48	C	0.485192	0.312242	0.762058
O49	O	-0.039072	-0.163284	0.228046
O50	O	0.460928	0.336716	0.728046
C51	C	0.172864	-0.187743	0.262034
C52	C	0.672864	0.312257	0.762034
C53	C	0.196326	-0.216518	0.302026
C54	C	0.696326	0.283482	0.802026
C55	C	0.196335	-0.274065	0.382014
C56	C	0.696335	0.225935	0.882014
C57	C	0.243250	-0.274063	0.382005
C58	C	0.743250	0.225937	0.882005
C59	C	0.266704	-0.245289	0.342005
C60	C	0.766704	0.254711	0.842005
C61	C	0.243242	-0.216516	0.302016
C62	C	0.743242	0.283484	0.802016
C63	C	0.196320	-0.158964	0.222037
C64	C	0.696320	0.341036	0.722037
C65	C	0.243241	-0.158962	0.222035
C66	C	0.743241	0.341038	0.722035
C67	C	0.266703	-0.187737	0.262027
C68	C	0.766703	0.312263	0.762027
C69	C	0.313611	-0.187740	0.262007
C70	C	0.813611	0.312260	0.762007
N71	N	0.337075	-0.216510	0.302001
N72	N	0.837075	0.283490	0.802001
C73	C	0.313621	-0.245285	0.342000
C74	C	0.813621	0.254715	0.842000
C75	C	-0.113338	-0.187768	0.262073
C76	C	0.386662	0.312232	0.762073
C77	C	-0.160256	-0.187772	0.262078
C78	C	0.339744	0.312228	0.762078
C79	C	-0.160246	-0.245319	0.342074
C80	C	0.339754	0.254681	0.842074
C81	C	-0.113327	-0.245317	0.342065
C82	C	0.386673	0.254683	0.842065
C83	C	-0.089874	-0.216538	0.302067
C84	C	0.410126	0.283462	0.802067
C85	C	0.412147	-0.245279	0.341976
C86	C	0.912147	0.254721	0.841976
C87	C	0.459067	-0.245276	0.341961
C88	C	0.959067	0.254724	0.841961
C89	C	0.459052	-0.187728	0.261968
C90	C	0.959052	0.312272	0.761968
C91	C	0.412137	-0.187732	0.261980
C92	C	0.912137	0.312268	0.761980
C93	C	0.388685	-0.216509	0.301990
C94	C	0.888685	0.283491	0.801990
O95	O	0.337908	-0.163292	0.227994
O96	O	0.837908	0.336708	0.727994
O97	O	0.337894	-0.269748	0.376017
O98	O	0.837894	0.230252	0.876017
C99	C	0.125957	-0.245294	0.342035
C100	C	0.625957	0.254706	0.842035
C101	C	0.102495	-0.216521	0.302045
C102	C	0.602495	0.283479	0.802045
C103	C	0.125949	-0.187747	0.262046
C104	C	0.625949	0.312253	0.762046
C105	C	0.055578	-0.216526	0.302051
C106	C	0.555578	0.283474	0.802051
C107	C	0.032124	-0.245300	0.342050
C108	C	0.532124	0.254700	0.842050
C109	C	0.055588	-0.274070	0.382044
C110	C	0.555588	0.225930	0.882044
C111	C	0.102504	-0.274068	0.382034
C112	C	0.602504	0.225932	0.882034
C113	C	0.102485	-0.158977	0.222052
C114	C	0.602485	0.341023	0.722052
C115	C	0.055569	-0.158982	0.222065
C116	C	0.555569	0.341018	0.722065
C117	C	0.032116	-0.187756	0.262064
C118	C	0.532116	0.312244	0.762064
C119	C	0.649096	-0.333241	0.301981
C120	C	1.149096	0.166759	0.801981
C121	C	0.649103	-0.383175	0.301988
C122	C	1.149103	0.116825	0.801988
C123	C	0.677954	-0.692813	0.262008
C124	C	1.177954	-0.192813	0.762008
C125	C	0.678010	-0.880486	0.262032
C126	C	1.178010	-0.380486	0.762032
O127	O	0.702476	-0.904746	0.228016
O128	O	1.202476	-0.404746	0.728016
N129	N	0.649271	-0.903960	0.302059
N130	N	1.149271	-0.403960	0.802059
C131	C	0.620518	-0.880514	0.342085
C132	C	1.120518	-0.380514	0.842085
O133	O	0.596078	-0.904786	0.376135
O134	O	1.096078	-0.404786	0.876135
C135	C	0.620465	-0.692841	0.342064
C136	C	1.120465	-0.192841	0.842064
C137	C	0.649203	-0.669369	0.302030
C138	C	1.149203	-0.169369	0.802030
C139	C	0.706690	-0.669341	0.221978
C140	C	1.206690	-0.169341	0.721978
C141	C	0.706674	-0.622426	0.221970
C142	C	1.206674	-0.122426	0.721970
C143	C	0.677922	-0.598982	0.261992
C144	C	1.177922	-0.098982	0.761992
C145	C	0.649187	-0.622454	0.302022
C146	C	1.149187	-0.122454	0.802022
C147	C	0.591715	-0.669395	0.382093
C148	C	1.091715	-0.169395	0.882093
C149	C	0.591705	-0.622474	0.382085
C150	C	1.091705	-0.122474	0.882085
C151	C	0.620443	-0.599002	0.342051
C152	C	1.120443	-0.099002	0.842051
C153	C	0.620419	-0.552095	0.342036
C154	C	1.120419	-0.052095	0.842036
N155	N	0.649158	-0.528621	0.302009
N156	N	1.149158	-0.028621	0.802009
C157	C	0.677910	-0.552064	0.261987
C158	C	1.177910	-0.052064	0.761987
C159	C	0.620547	-0.979044	0.342093
C160	C	1.120547	-0.479044	0.842093
C161	C	0.620560	-1.025962	0.342098
C162	C	1.120560	-0.525962	0.842098
C163	C	0.678052	-1.025931	0.262045
C164	C	1.178052	-0.525931	0.762045
C165	C	0.678037	-0.979013	0.262038
C166	C	1.178037	-0.479013	0.762038
C167	C	0.649286	-0.955570	0.302066
C168	C	1.149286	-0.455570	0.802066
C169	C	0.677874	-0.453539	0.261973
C170	C	1.177874	0.046461	0.761973
C171	C	0.677854	-0.406619	0.261966
C172	C	1.177854	0.093381	0.761966
C173	C	0.620364	-0.406654	0.342021
C174	C	1.120364	0.093346	0.842021
C175	C	0.620382	-0.453569	0.342025
C176	C	1.120382	0.046431	0.842025
C177	C	0.649140	-0.477010	0.301999
C178	C	1.149140	0.022990	0.801999
O179	O	0.595970	-0.527806	0.376039
O180	O	1.095970	-0.027806	0.876039
O181	O	0.702353	-0.527784	0.227952
O182	O	1.202353	-0.027784	0.727952
C183	C	0.677970	-0.739729	0.262016
C184	C	1.177970	-0.239729	0.762016
C185	C	0.649234	-0.763200	0.302046
C186	C	1.149234	-0.263200	0.802046
C187	C	0.620483	-0.739757	0.342068
C188	C	1.120483	-0.239757	0.842068
C189	C	0.649247	-0.810118	0.302051
C190	C	1.149247	-0.310118	0.802051
C191	C	0.677998	-0.833562	0.262029
C192	C	1.177998	-0.333562	0.762029
C193	C	0.706737	-0.810088	0.222002
C194	C	1.206737	-0.310088	0.722002
C195	C	0.706721	-0.763172	0.221994
C196	C	1.206721	-0.263172	0.721994
C197	C	0.591744	-0.763231	0.382094
C198	C	1.091744	-0.263231	0.882094
C199	C	0.591762	-0.810147	0.382099
C200	C	1.091762	-0.310147	0.882099
C201	C	0.620513	-0.833590	0.342077
C202	C	1.120513	-0.333590	0.842077
C203	C	0.766356	-0.216538	0.302057
C204	C	1.266356	0.283462	0.802057
C205	C	0.816290	-0.216546	0.302077
C206	C	1.316290	0.283454	0.802077
C207	C	0.649215	-0.216509	0.465435
C208	C	1.149215	0.283491	0.965435
C209	C	0.649231	-0.216505	0.535076
C210	C	1.149231	0.283495	1.035076
C211	C	0.649271	-0.099340	0.302057
C212	C	1.149271	0.400660	0.802057
C213	C	0.649311	-0.049406	0.302076
C214	C	1.149311	0.450594	0.802076
C215	C	0.649166	-0.216495	0.139224
C216	C	1.149166	0.283505	0.639224
C217	C	0.649237	-0.216372	0.069583
C218	C	1.149237	0.283628	0.569583
C219	C	0.677986	-0.187775	0.567813
C220	C	1.177986	0.312225	1.067813
C221	C	0.677985	-0.187756	0.633248
C222	C	1.177985	0.312244	1.133248
C223	C	0.649234	-0.216475	0.665945
C224	C	1.149234	0.283525	1.165945
C225	C	0.620473	-0.245207	0.633200
C226	C	1.120473	0.254793	1.133200
C227	C	0.620471	-0.245222	0.567766
C228	C	1.120471	0.254778	1.067766
C229	C	0.645659	-0.256926	0.769608
C230	C	1.145659	0.243074	1.269608
C231	C	0.645664	-0.256911	0.835041
C232	C	1.145664	0.243089	1.335041
C233	C	0.649237	-0.216427	0.867766
C234	C	1.149237	0.283573	1.367766
C235	C	0.652815	-0.175957	0.835049
C236	C	1.152815	0.324043	1.335049
C237	C	0.652813	-0.175972	0.769615
C238	C	1.152813	0.324028	1.269615
C239	C	0.649233	-0.216461	0.736897
C240	C	1.149233	0.283539	1.236897
C241	C	0.677993	-0.187674	0.971455
C242	C	1.177993	0.312326	1.471455
C243	C	0.677989	-0.187654	1.036891
C244	C	1.177989	0.312346	1.536891
C245	C	0.620480	-0.245109	1.036842
C246	C	1.120480	0.254891	1.536842
C247	C	0.620481	-0.245125	0.971407
C248	C	1.120481	0.254875	1.471407
C249	C	0.649240	-0.216408	0.938717
C250	C	1.149240	0.283592	1.438717
H251	H	-0.179349	-0.268748	0.374643
H252	H	0.320651	0.231252	0.874643
H253	H	0.597068	-0.268522	0.944753
H254	H	1.097068	0.231478	1.444753
H255	H	-0.094247	-0.164332	0.229498
H256	H	0.405753	0.335668	0.729498
H257	H	0.701400	-0.164358	0.659907
H258	H	1.201400	0.335642	1.159907
H259	H	0.121602	-0.297500	0.414600
H260	H	0.621602	0.202500	0.914600
H261	H	0.262334	-0.135523	0.189467
H262	H	0.762334	0.364477	0.689467
H263	H	0.262349	-0.297494	0.414572
H264	H	0.762349	0.202506	0.914572
H265	H	0.597133	-0.959960	0.374690
H266	H	1.097133	-0.459960	0.874690
C267	C	0.641753	-0.300893	0.870445
C268	C	1.141753	0.199107	1.370445
C269	C	0.638604	-0.336349	0.827783
C270	C	1.138604	0.163651	1.327783
C271	C	0.634994	-0.376871	0.860373
C272	C	1.134994	0.123129	1.360373
H273	H	0.667484	-0.304906	0.895992
H274	H	1.167484	0.195094	1.395992
H275	H	0.615701	-0.300319	0.895938
H276	H	1.115701	0.199681	1.395938
H277	H	0.664653	-0.336923	0.802301
H278	H	1.164653	0.163077	1.302301
H279	H	0.612873	-0.332350	0.802234
H280	H	1.112873	0.167650	1.302234
H281	H	0.608942	-0.376298	0.885866
H282	H	1.108942	0.123702	1.385866
H283	H	0.660727	-0.380880	0.885919
H284	H	1.160727	0.119120	1.385919
H285	H	0.632853	-0.400932	0.831432
H286	H	1.132853	0.099068	1.331432
H287	H	0.036471	-0.135550	0.189493
H288	H	0.536471	0.364450	0.689493
H289	H	0.121576	-0.135545	0.189480
H290	H	0.621576	0.364455	0.689480
H291	H	0.701256	-0.387510	0.229364
H292	H	1.201256	0.112490	0.729364
H293	H	0.642629	-0.289884	0.742969
H294	H	1.142629	0.210116	1.242969
C295	C	0.589269	-0.276370	0.532107
C296	C	1.089269	0.223630	1.032107
C297	C	0.595416	-0.270231	0.467805
C298	C	1.095416	0.229769	0.967805
C299	C	0.566677	-0.298913	0.434935
C300	C	1.066677	0.201087	0.934935
H301	H	0.595791	-0.306572	0.542761
H302	H	1.095791	0.193428	1.042761
H303	H	0.559080	-0.269783	0.542768
H304	H	1.059080	0.230217	1.042768
H305	H	0.625599	-0.276821	0.457149
H306	H	1.125599	0.223179	0.957149
H307	H	0.588891	-0.240035	0.457133
H308	H	1.088891	0.259965	0.957133
H309	H	0.536487	-0.292326	0.445597
H310	H	1.036487	0.207674	0.945597
H311	H	0.573201	-0.329113	0.445594
H312	H	1.073201	0.170887	0.945594
H313	H	0.570841	-0.294748	0.391304
H314	H	1.070841	0.205252	0.891304
H315	H	0.597062	-0.268588	0.659826
H316	H	1.097062	0.231412	1.159826
C317	C	0.709112	-0.478903	0.218445
C318	C	1.209112	0.021097	0.718445
C319	C	0.734262	-0.448298	0.183379
C320	C	1.234262	0.051702	0.683379
C321	C	0.763036	-0.471647	0.143266
C322	C	1.263036	0.028353	0.643266
H323	H	0.728727	-0.497182	0.242369
H324	H	1.228727	0.002818	0.742369
H325	H	0.691953	-0.497221	0.191086
H326	H	1.191953	0.002779	0.691086
H327	H	0.751421	-0.429988	0.210734
H328	H	1.251421	0.070012	0.710734
H329	H	0.714659	-0.430019	0.159442
H330	H	1.214659	0.069981	0.659442
H331	H	0.745877	-0.489965	0.115908
H332	H	1.245877	0.010035	0.615908
H333	H	0.782648	-0.489925	0.167195
H334	H	1.282648	0.010075	0.667195
H335	H	0.780101	-0.450885	0.119465
H336	H	1.280101	0.049115	0.619465
H337	H	0.478167	-0.268710	0.374528
H338	H	0.978167	0.231290	0.874528
C339	C	0.737972	-0.835465	0.178482
C340	C	1.237972	-0.335465	0.678482
C341	C	0.763132	-0.804872	0.143410
C342	C	1.263132	-0.304872	0.643410
C343	C	0.791906	-0.828236	0.103312
C344	C	1.291906	-0.328236	0.603312
H345	H	0.757580	-0.853743	0.202418
H346	H	1.257580	-0.353743	0.702418
H347	H	0.720811	-0.853784	0.151127
H348	H	1.220811	-0.353784	0.651127
H349	H	0.780292	-0.786561	0.170761
H350	H	1.280292	-0.286561	0.670761
H351	H	0.743536	-0.786594	0.119461
H352	H	1.243536	-0.286594	0.619461
H353	H	0.774745	-0.846555	0.075957
H354	H	1.274745	-0.346555	0.575957
H355	H	0.811511	-0.846513	0.127253
H356	H	1.311511	-0.346513	0.627253
H357	H	0.808978	-0.807482	0.079506
H358	H	1.308978	-0.307482	0.579506
C359	C	0.560541	-0.835546	0.425636
C360	C	1.060541	-0.335546	0.925636
C361	C	0.535370	-0.804967	0.460693
C362	C	1.035370	-0.304967	0.960693
C363	C	0.506613	-0.828347	0.500815
C364	C	1.006613	-0.328347	1.000815
H365	H	0.540939	-0.853879	0.401719
H366	H	1.040939	-0.353879	0.901719
H367	H	0.577715	-0.853811	0.453000
H368	H	1.077715	-0.353811	0.953000
H369	H	0.518197	-0.786710	0.433333
H370	H	1.018197	-0.286710	0.933333
H371	H	0.554960	-0.786633	0.484624
H372	H	1.054960	-0.286633	0.984624
H373	H	0.523787	-0.846612	0.528179
H374	H	1.023787	-0.346612	1.028179
H375	H	0.487014	-0.846679	0.476892
H376	H	0.987014	-0.346679	0.976892
H377	H	0.489534	-0.807603	0.524610
H378	H	0.989534	-0.307603	1.024610
H379	H	0.730076	-0.603318	0.189373
H380	H	1.230076	-0.103318	0.689373
H381	H	0.701403	-0.164391	0.541201
H382	H	1.201403	0.335609	1.041201
C383	C	0.737924	-0.694708	0.178450
C384	C	1.237924	-0.194708	0.678450
C385	C	0.763075	-0.664101	0.143388
C386	C	1.263075	-0.164101	0.643388
C387	C	0.791848	-0.687449	0.103271
C388	C	1.291848	-0.187449	0.603271
H389	H	0.757539	-0.712989	0.202372
H390	H	1.257539	-0.212989	0.702372
H391	H	0.720763	-0.713023	0.151090
H392	H	1.220763	-0.213023	0.651090
H393	H	0.780234	-0.645794	0.170745
H394	H	1.280234	-0.145794	0.670745
H395	H	0.743472	-0.645820	0.119454
H396	H	1.243472	-0.145820	0.619454
H397	H	0.774687	-0.705764	0.075911
H398	H	1.274687	-0.205764	0.575911
H399	H	0.811459	-0.705729	0.127198
H400	H	1.311459	-0.205729	0.627198
H401	H	0.808913	-0.666686	0.079472
H402	H	1.308913	-0.166686	0.579472
C403	C	0.030038	-0.305261	0.425450
C404	C	0.530038	0.194739	0.925450
C405	C	-0.016071	-0.299091	0.416903
C406	C	0.483929	0.200909	0.916903
C407	C	-0.039625	-0.327808	0.456883
C408	C	0.460375	0.172192	0.956883
H409	H	0.037647	-0.335456	0.416246
H410	H	0.537647	0.164544	0.916246
H411	H	0.037725	-0.298724	0.467577
H412	H	0.537725	0.201276	0.967577
H413	H	-0.023755	-0.305631	0.374785
H414	H	0.476245	0.194369	0.874785
H415	H	-0.023694	-0.268902	0.426111
H416	H	0.476306	0.231098	0.926111
H417	H	-0.031938	-0.321272	0.499011
H418	H	0.468062	0.178728	0.999011
H419	H	-0.032012	-0.358001	0.447676
H420	H	0.467988	0.141999	0.947676
H421	H	-0.070912	-0.323623	0.451094
H422	H	0.429088	0.176377	0.951094
H423	H	0.701438	-0.959905	0.229440
H424	H	1.201438	-0.459905	0.729440
H425	H	0.701463	-1.045027	0.229458
H426	H	1.201463	-0.545027	0.729458
H427	H	0.596953	-0.387559	0.374604
H428	H	1.096953	0.112441	0.874604
H429	H	0.177226	-0.135533	0.189469
H430	H	0.677226	0.364467	0.689469
C431	C	0.386609	-0.156459	0.218666
C432	C	0.886609	0.343541	0.718666
C433	C	0.359710	-0.127709	0.254232
C434	C	0.859710	0.372291	0.754232
C435	C	0.336189	-0.098890	0.214359
C436	C	0.836189	0.401110	0.714359
H437	H	0.407251	-0.139281	0.194834
H438	H	0.907251	0.360719	0.694834
H439	H	0.368250	-0.173593	0.191330
H440	H	0.868250	0.326407	0.691330
H441	H	0.378068	-0.110576	0.281556
H442	H	0.878068	0.389424	0.781556
H443	H	0.339060	-0.144874	0.278063
H444	H	0.839060	0.355126	0.778063
H445	H	0.317830	-0.116024	0.187023
H446	H	0.817830	0.383976	0.687023
H447	H	0.356835	-0.081715	0.190529
H448	H	0.856835	0.418285	0.690529
H449	H	0.317933	-0.079382	0.238484
H450	H	0.817933	0.420618	0.738484
H451	H	0.655725	-0.143020	0.742980
H452	H	1.155725	0.356980	1.242980
H453	H	0.655725	-0.142991	0.861692
H454	H	1.155725	0.357009	1.361692
C455	C	0.560440	-0.597104	0.425571
C456	C	1.060440	-0.097104	0.925571
C457	C	0.535272	-0.627706	0.460618
C458	C	1.035272	-0.127706	0.960618
C459	C	0.506464	-0.604352	0.500678
C460	C	1.006464	-0.104352	1.000678
H461	H	0.577562	-0.578775	0.452949
H462	H	1.077562	-0.078775	0.952949
H463	H	0.540842	-0.578837	0.401590
H464	H	1.040842	-0.078837	0.901590
H465	H	0.554869	-0.645965	0.484598
H466	H	1.054869	-0.145965	0.984598
H467	H	0.518142	-0.646036	0.433257
H468	H	1.018142	-0.146036	0.933257
H469	H	0.486865	-0.586085	0.476697
H470	H	0.986865	-0.086085	0.976697
H471	H	0.523589	-0.586024	0.528051
H472	H	1.023589	-0.086024	1.028051
H473	H	0.489381	-0.625112	0.524458
H474	H	0.989381	-0.125112	1.024458
C475	C	-0.185807	-0.156592	0.218663
C476	C	0.314193	0.343408	0.718663
C477	C	-0.231917	-0.162761	0.227206
C478	C	0.268083	0.337239	0.727206
C479	C	-0.255466	-0.134052	0.187213
C480	C	0.244534	0.365948	0.687213
H481	H	-0.178154	-0.126395	0.227858
H482	H	0.321846	0.373605	0.727858
H483	H	-0.178162	-0.163135	0.176539
H484	H	0.321838	0.336865	0.676539
H485	H	-0.239559	-0.156215	0.269320
H486	H	0.260441	0.343785	0.769320
H487	H	-0.239584	-0.192952	0.218006
H488	H	0.260416	0.307048	0.718006
H489	H	-0.247821	-0.140595	0.145089
H490	H	0.252179	0.359405	0.645089
H491	H	-0.247809	-0.103857	0.196411
H492	H	0.252191	0.396143	0.696411
H493	H	-0.286754	-0.138237	0.192999
H494	H	0.213246	0.361763	0.692999
H495	H	0.730122	-0.744065	0.189395
H496	H	1.230122	-0.244065	0.689395
C497	C	0.709228	-0.156444	0.936070
C498	C	1.209228	0.343556	1.436070
C499	C	0.734400	-0.131266	0.978749
C500	C	1.234400	0.368734	1.478749
C501	C	0.763174	-0.102488	0.946178
C502	C	1.263174	0.397512	1.446178
H503	H	0.728830	-0.173588	0.910559
H504	H	1.228830	0.326412	1.410559
H505	H	0.692068	-0.136850	0.910544
H506	H	1.192068	0.363150	1.410544
H507	H	0.751560	-0.150858	1.004265
H508	H	1.251560	0.349142	1.504265
H509	H	0.714811	-0.114113	1.004262
H510	H	1.214811	0.385887	1.504262
H511	H	0.746013	-0.082894	0.920651
H512	H	1.246013	0.417106	1.420651
H513	H	0.782772	-0.119636	0.920667
H514	H	1.282772	0.380364	1.420667
H515	H	0.780254	-0.085399	0.975130
H516	H	1.280254	0.414601	1.475130
C517	C	0.589252	-0.479114	0.385521
C518	C	1.089252	0.020886	0.885521
C519	C	0.614685	-0.506017	0.425714
C520	C	1.114685	-0.006017	0.925714
C521	C	0.586026	-0.529557	0.465789
C522	C	1.086026	-0.029557	0.965789
H523	H	0.572114	-0.458484	0.409414
H524	H	1.072114	0.041516	0.909414
H525	H	0.569700	-0.497472	0.361544
H526	H	1.069700	0.002528	0.861544
H527	H	0.634229	-0.487661	0.449688
H528	H	1.134229	0.012339	0.949688
H529	H	0.631822	-0.526656	0.401838
H530	H	1.131822	-0.026656	0.901838
H531	H	0.566475	-0.547915	0.441813
H532	H	1.066475	-0.047915	0.941813
H533	H	0.568890	-0.508923	0.489678
H534	H	1.068890	-0.008923	0.989678
H535	H	0.603278	-0.547817	0.493061
H536	H	1.103278	-0.047817	0.993061
H537	H	0.478157	-0.164302	0.229400
H538	H	0.978157	0.335698	0.729400
C539	C	0.589338	-1.051362	0.385627
C540	C	1.089338	-0.551362	0.885627
C541	C	0.564167	-1.020783	0.420685
C542	C	1.064167	-0.520783	0.920685
C543	C	0.535406	-1.044162	0.460800
C544	C	1.035406	-0.544162	0.960800
H545	H	0.569735	-1.069692	0.361705
H546	H	1.069735	-0.569692	0.861705
H547	H	0.606508	-1.069630	0.412990
H548	H	1.106508	-0.569630	0.912990
H549	H	0.546998	-1.002522	0.393325
H550	H	1.046998	-0.502522	0.893325
H551	H	0.583758	-1.002452	0.444620
H552	H	1.083758	-0.502452	0.944620
H553	H	0.552576	-1.062430	0.488164
H554	H	1.052576	-0.562430	0.988164
H555	H	0.515807	-1.062492	0.436873
H556	H	1.015807	-0.562492	0.936873
H557	H	0.518327	-1.023418	0.484596
H558	H	1.018327	-0.523418	0.984596
C559	C	0.589316	-0.276277	1.072446
C560	C	1.089316	0.223723	1.572446
C561	C	0.595480	-0.270124	1.136758
C562	C	1.095480	0.229876	1.636758
C563	C	0.566785	-0.298834	1.169579
C564	C	1.066785	0.201166	1.669579
H565	H	0.559117	-0.269733	1.061777
H566	H	1.059117	0.230267	1.561777
H567	H	0.595876	-0.306474	1.061760
H568	H	1.095876	0.193526	1.561760
H569	H	0.588918	-0.239934	1.147440
H570	H	1.088918	0.260066	1.647440
H571	H	0.625674	-0.276671	1.147446
H572	H	1.125674	0.223329	1.647446
H573	H	0.573344	-0.329031	1.158893
H574	H	1.073344	0.170969	1.658893
H575	H	0.536587	-0.292287	1.158905
H576	H	1.036587	0.207713	1.658905
H577	H	0.570966	-0.294666	1.213218
H578	H	1.070966	0.205334	1.713218
H579	H	0.393059	-0.268711	0.374557
H580	H	0.893059	0.231289	0.874557
H581	H	0.177244	-0.297496	0.414590
H582	H	0.677244	0.202504	0.914590
H583	H	-0.094227	-0.268747	0.374631
H584	H	0.405773	0.231253	0.874631
H585	H	0.568311	-0.688498	0.414689
H586	H	1.068311	-0.188498	0.914689
H587	H	0.568331	-0.744147	0.414686
H588	H	1.068331	-0.244147	0.914686
H589	H	0.701405	-0.164256	1.063544
H590	H	1.201405	0.335744	1.563544
