data_functionalizedCrystal
_audit_creation_method	'MofGen! by Chris Wilmer'
_symmetry_space_group_name_H-M	'P1'
_symmetry_Int_Tables_number	1
_symmetry_cell_setting	triclinic
loop_
_symmetry_equiv_pos_as_xyz
  x,y,z
_cell_length_a	13.897449
_cell_length_b	17.077402
_cell_length_c	13.897441
_cell_angle_alpha	89.968703
_cell_angle_beta	89.978743
_cell_angle_gamma	90.026055
loop_
_atom_site_label
_atom_site_type_symbol
_atom_site_fract_x
_atom_site_fract_y
_atom_site_fract_z
Zn1	Zn	1.474632	-0.312473	-0.545438
Zn2	Zn	1.724632	-0.062473	-0.295438
Zn3	Zn	1.974632	0.187527	-0.045438
Zn4	Zn	2.224632	0.437527	0.204562
Zn5	Zn	1.474511	-0.443753	-0.384135
Zn6	Zn	1.724511	-0.193753	-0.134135
Zn7	Zn	1.974511	0.056247	0.115865
Zn8	Zn	2.224511	0.306247	0.365865
Zn9	Zn	1.313327	-0.312507	-0.384149
Zn10	Zn	1.563327	-0.062507	-0.134149
Zn11	Zn	1.813327	0.187493	0.115851
Zn12	Zn	2.063327	0.437493	0.365851
Zn13	Zn	1.313281	-0.443703	-0.545380
Zn14	Zn	1.563281	-0.193703	-0.295380
Zn15	Zn	1.813281	0.056297	-0.045380
Zn16	Zn	2.063281	0.306297	0.204620
O17	O	1.393938	-0.378109	-0.464776
O18	O	1.643938	-0.128109	-0.214776
O19	O	1.893938	0.121891	0.035224
O20	O	2.143938	0.371891	0.285224
O21	O	1.609597	-0.329895	-0.524060
O22	O	1.859597	-0.079895	-0.274060
O23	O	2.109597	0.170105	-0.024060
O24	O	2.359597	0.420105	0.225940
O25	O	1.453098	-0.426379	-0.249155
O26	O	1.703098	-0.176379	0.000845
O27	O	1.953098	0.073621	0.250845
O28	O	2.203098	0.323621	0.500845
O29	O	1.334794	-0.202656	-0.405575
O30	O	1.584794	0.047344	-0.155575
O31	O	1.834794	0.297344	0.094425
O32	O	2.084794	0.547344	0.344425
O33	O	1.609508	-0.426346	-0.405551
O34	O	1.859508	-0.176346	-0.155551
O35	O	2.109508	0.073654	0.094449
O36	O	2.359508	0.323654	0.344449
O37	O	1.453304	-0.202631	-0.524073
O38	O	1.703304	0.047369	-0.274073
O39	O	1.953304	0.297369	-0.024073
O40	O	2.203304	0.547369	0.225927
O41	O	1.334677	-0.329953	-0.249166
O42	O	1.584677	-0.079953	0.000834
O43	O	1.834677	0.170047	0.250834
O44	O	2.084677	0.420047	0.500834
O45	O	1.178339	-0.329904	-0.405519
O46	O	1.428339	-0.079904	-0.155519
O47	O	1.678339	0.170096	0.094481
O48	O	1.928339	0.420096	0.344481
O49	O	1.334717	-0.426260	-0.680370
O50	O	1.584717	-0.176260	-0.430370
O51	O	1.834717	0.073740	-0.180370
O52	O	2.084717	0.323740	0.069630
O53	O	1.178306	-0.426293	-0.523974
O54	O	1.428306	-0.176293	-0.273974
O55	O	1.678306	0.073707	-0.023974
O56	O	1.928306	0.323707	0.226026
O57	O	1.453260	-0.329846	-0.680412
O58	O	1.703260	-0.079846	-0.430412
O59	O	1.953260	0.170154	-0.180412
O60	O	2.203260	0.420154	0.069588
O61	O	1.453053	-0.553594	-0.405494
O62	O	1.703053	-0.303594	-0.155494
O63	O	1.953053	-0.053594	0.094506
O64	O	2.203053	0.196406	0.344506
O65	O	1.334599	-0.553557	-0.523960
O66	O	1.584599	-0.303557	-0.273960
O67	O	1.834599	-0.053557	-0.023960
O68	O	2.084599	0.196443	0.226040
C69	C	1.143323	-0.378097	-0.464742
C70	C	1.393323	-0.128097	-0.214742
C71	C	1.643323	0.121903	0.035258
C72	C	1.893323	0.371903	0.285258
C73	C	1.036109	-0.378111	-0.464751
C74	C	1.286109	-0.128111	-0.214751
C75	C	1.536109	0.121889	0.035249
C76	C	1.786109	0.371889	0.285249
C77	C	1.393834	-0.582057	-0.464741
C78	C	1.643834	-0.332057	-0.214741
C79	C	1.893834	-0.082057	0.035259
C80	C	2.143834	0.167943	0.285259
C81	C	1.393878	-0.669307	-0.464758
C82	C	1.643878	-0.419307	-0.214758
C83	C	1.893878	-0.169307	0.035242
C84	C	2.143878	0.080693	0.285242
C85	C	1.455752	-1.045045	-0.526591
C86	C	1.705752	-0.795045	-0.276591
C87	C	1.955752	-0.545045	-0.026591
C88	C	2.205752	-0.295045	0.223409
C89	C	1.455708	-0.963064	-0.526568
C90	C	1.705708	-0.713064	-0.276568
C91	C	1.955708	-0.463064	-0.026568
C92	C	2.205708	-0.213064	0.223432
C93	C	1.394031	-0.922156	-0.464815
C94	C	1.644031	-0.672156	-0.214815
C95	C	1.894031	-0.422156	0.035185
C96	C	2.144031	-0.172156	0.285185
C97	C	1.332400	-0.963232	-0.403074
C98	C	1.582400	-0.713232	-0.153074
C99	C	1.832400	-0.463232	0.096926
C100	C	2.082400	-0.213232	0.346926
C101	C	1.332449	-1.045211	-0.403093
C102	C	1.582449	-0.795211	-0.153093
C103	C	1.832449	-0.545211	0.096907
C104	C	2.082449	-0.295211	0.346907
C105	C	1.332300	-0.792362	-0.403041
C106	C	1.582300	-0.542362	-0.153041
C107	C	1.832300	-0.292362	0.096959
C108	C	2.082300	-0.042362	0.346959
C109	C	1.332250	-0.710378	-0.403024
C110	C	1.582250	-0.460378	-0.153024
C111	C	1.832250	-0.210378	0.096976
C112	C	2.082250	0.039622	0.346976
C113	C	1.455560	-0.710215	-0.526516
C114	C	1.705560	-0.460215	-0.276516
C115	C	1.955560	-0.210215	-0.026516
C116	C	2.205560	0.039785	0.223484
C117	C	1.455609	-0.792194	-0.526535
C118	C	1.705609	-0.542194	-0.276535
C119	C	1.955609	-0.292194	-0.026535
C120	C	2.205609	-0.042194	0.223465
C121	C	1.393976	-0.833265	-0.464795
C122	C	1.643976	-0.583265	-0.214795
C123	C	1.893976	-0.333265	0.035205
C124	C	2.143976	-0.083265	0.285205
C125	C	0.949040	-0.378114	-0.464767
C126	C	1.199040	-0.128114	-0.214767
C127	C	1.449040	0.121886	0.035233
C128	C	1.699040	0.371886	0.285233
C129	C	0.839807	-0.378119	-0.464796
C130	C	1.089807	-0.128119	-0.214796
C131	C	1.339807	0.121881	0.035204
C132	C	1.589807	0.371881	0.285204
C133	C	1.645531	-0.378122	-0.464810
C134	C	1.895531	-0.128122	-0.214810
C135	C	2.145531	0.121878	0.035190
C136	C	2.395531	0.371878	0.285190
C137	C	1.752745	-0.378127	-0.464825
C138	C	2.002745	-0.128127	-0.214825
C139	C	2.252745	0.121873	0.035175
C140	C	2.502745	0.371873	0.285175
C141	C	1.393997	-0.378043	-0.716369
C142	C	1.643997	-0.128043	-0.466369
C143	C	1.893997	0.121957	-0.216369
C144	C	2.143997	0.371957	0.033631
C145	C	1.394022	-0.378015	-0.823583
C146	C	1.644022	-0.128015	-0.573583
C147	C	1.894022	0.121985	-0.323583
C148	C	2.144022	0.371985	-0.073583
C149	C	1.394068	-0.173365	-0.464832
C150	C	1.644068	0.076635	-0.214832
C151	C	1.894068	0.326635	0.035168
C152	C	2.144068	0.576635	0.285168
C153	C	1.394123	-0.086115	-0.464856
C154	C	1.644123	0.163885	-0.214856
C155	C	1.894123	0.413885	0.035144
C156	C	2.144123	0.663885	0.285144
C157	C	1.394042	-0.377993	-0.910653
C158	C	1.644042	-0.127993	-0.660653
C159	C	1.894042	0.122007	-0.410653
C160	C	2.144042	0.372007	-0.160653
C161	C	1.394069	-0.377958	-1.019885
C162	C	1.644069	-0.127958	-0.769885
C163	C	1.894069	0.122042	-0.519885
C164	C	2.144069	0.372042	-0.269885
C165	C	1.393934	-0.378118	-0.214161
C166	C	1.643934	-0.128118	0.035839
C167	C	1.893934	0.121882	0.285839
C168	C	2.143934	0.371882	0.535839
C169	C	1.394096	-0.377925	-0.106948
C170	C	1.644096	-0.127925	0.143052
C171	C	1.894096	0.122075	0.393052
C172	C	2.144096	0.372075	0.643052
H173	H	1.505967	-1.078346	-0.576886
H174	H	1.755967	-0.828346	-0.326886
H175	H	2.005967	-0.578346	-0.076886
H176	H	2.255967	-0.328346	0.173114
H177	H	1.505830	-0.825500	-0.576822
H178	H	1.755830	-0.575500	-0.326822
H179	H	2.005830	-0.325500	-0.076822
H180	H	2.255830	-0.075500	0.173178
H181	H	1.282027	-0.677074	-0.352737
H182	H	1.532027	-0.427074	-0.102737
H183	H	1.782027	-0.177074	0.147263
H184	H	2.032027	0.072926	0.397263
H185	H	1.505744	-0.676771	-0.576787
H186	H	1.755744	-0.426771	-0.326787
H187	H	2.005744	-0.176771	-0.076787
H188	H	2.255744	0.073229	0.173213
O189	O	1.522205	-0.918763	-0.593125
O190	O	1.772205	-0.668763	-0.343125
O191	O	2.022205	-0.418763	-0.093125
O192	O	2.272205	-0.168763	0.156875
H193	H	1.565102	-0.960982	-0.636067
H194	H	1.815102	-0.710982	-0.386067
H195	H	2.065102	-0.460982	-0.136067
H196	H	2.315102	-0.210982	0.113933
H197	H	1.282114	-0.825799	-0.352764
H198	H	1.532114	-0.575799	-0.102764
H199	H	1.782114	-0.325799	0.147236
H200	H	2.032114	-0.075799	0.397236
H201	H	1.282184	-0.929920	-0.352789
H202	H	1.532184	-0.679920	-0.102789
H203	H	1.782184	-0.429920	0.147211
H204	H	2.032184	-0.179920	0.397211
O205	O	1.265974	-1.089515	-0.336513
O206	O	1.515974	-0.839515	-0.086513
O207	O	1.765974	-0.589515	0.163487
O208	O	2.015974	-0.339515	0.413487
H209	H	1.223070	-1.047298	-0.293576
H210	H	1.473070	-0.797298	-0.043576
H211	H	1.723070	-0.547298	0.206424
H212	H	1.973070	-0.297298	0.456424
