data_functionalizedCrystal
_audit_creation_method	'MofGen! by Chris Wilmer'
_symmetry_space_group_name_H-M	'P1'
_symmetry_Int_Tables_number	1
_symmetry_cell_setting	triclinic
loop_
_symmetry_equiv_pos_as_xyz
  x,y,z
_cell_length_a	16.625548
_cell_length_b	12.759400
_cell_length_c	12.759393
_cell_angle_alpha	90.031564
_cell_angle_beta	89.978332
_cell_angle_gamma	89.984247
loop_
_atom_site_label
_atom_site_type_symbol
_atom_site_fract_x
_atom_site_fract_y
_atom_site_fract_z
Zn1	Zn	1.232733	0.418174	-0.594070
Zn2	Zn	1.732733	0.918174	-0.094070
Zn3	Zn	1.232652	0.593893	-0.418390
Zn4	Zn	1.732652	1.093893	0.081610
Zn5	Zn	1.097892	0.418232	-0.418400
Zn6	Zn	1.597892	0.918232	0.081600
Zn7	Zn	1.097883	0.593815	-0.594022
Zn8	Zn	1.597883	1.093815	-0.094022
O9	O	1.165290	0.506029	-0.506221
O10	O	1.665290	1.006029	-0.006221
O11	O	1.345554	0.441492	-0.570782
O12	O	1.845554	0.941492	-0.070782
O13	O	1.214745	0.570648	-0.271371
O14	O	1.714745	1.070648	0.228629
O15	O	1.115817	0.271203	-0.441727
O16	O	1.615817	0.771203	0.058273
O17	O	1.345495	0.570592	-0.441711
O18	O	1.845495	1.070592	0.058289
O19	O	1.214883	0.271161	-0.570791
O20	O	1.714883	0.771161	-0.070791
O21	O	1.115738	0.441591	-0.271378
O22	O	1.615738	0.941591	0.228622
O23	O	0.985059	0.441515	-0.441680
O24	O	1.485059	0.941515	0.058320
O25	O	1.115802	0.570459	-0.741050
O26	O	1.615802	1.070459	-0.241050
O27	O	0.985052	0.570515	-0.570709
O28	O	1.485052	1.070515	-0.070709
O29	O	1.214875	0.441417	-0.741085
O30	O	1.714875	0.941417	-0.241085
O31	O	1.214737	0.740904	-0.441664
O32	O	1.714737	1.240904	0.058336
O33	O	1.115723	0.740847	-0.570700
O34	O	1.615723	1.240847	-0.070700
C35	C	1.165242	0.778996	-0.506199
C36	C	1.665242	1.278996	-0.006199
C37	C	1.165295	0.895773	-0.506225
C38	C	1.665295	1.395773	-0.006225
C39	C	0.955799	0.506014	-0.506191
C40	C	1.455799	1.006014	-0.006191
C41	C	0.866178	0.506033	-0.506204
C42	C	1.366178	1.006033	-0.006204
C43	C	1.165346	0.505923	-0.780254
C44	C	1.665346	1.005923	-0.280254
C45	C	1.165371	0.505878	-0.897031
C46	C	1.665371	1.005878	-0.397031
C47	C	0.538002	0.506039	-0.506249
C48	C	1.038002	1.006039	-0.006249
C49	C	0.629311	0.506035	-0.506233
C50	C	1.129311	1.006035	-0.006233
C51	C	0.702087	0.506037	-0.506225
C52	C	1.202087	1.006037	-0.006225
C53	C	0.793402	0.506031	-0.506211
C54	C	1.293402	1.006031	-0.006211
C55	C	1.375599	0.506045	-0.506251
C56	C	1.875599	1.006045	-0.006251
C57	C	1.465220	0.506051	-0.506264
C58	C	1.965220	1.006051	-0.006264
C59	C	1.165360	0.231995	-0.506266
C60	C	1.665360	0.731995	-0.006266
C61	C	1.165390	0.115219	-0.506285
C62	C	1.665390	0.615219	-0.006285
C63	C	1.216909	0.950630	-0.439110
C64	C	1.716909	1.450630	0.060890
C65	C	1.216959	1.060354	-0.439142
C66	C	1.716959	1.560354	0.060858
C67	C	1.113774	1.060354	-0.573407
C68	C	1.613774	1.560354	-0.073407
C69	C	1.113729	0.950632	-0.573379
C70	C	1.613729	1.450632	-0.073379
C71	C	1.268476	0.895770	-0.371955
C72	C	1.768476	1.395770	0.128045
C73	C	1.320093	0.950627	-0.304834
C74	C	1.820093	1.450627	0.195166
C75	C	1.320142	1.060351	-0.304867
C76	C	1.820142	1.560351	0.195133
C77	C	1.268575	1.115218	-0.372020
C78	C	1.768575	1.615218	0.127980
C79	C	1.216965	0.438679	-0.951913
C80	C	1.716965	0.938679	-0.451913
C81	C	1.216984	0.438641	-1.061637
C82	C	1.716984	0.938641	-0.561637
C83	C	1.113812	0.573010	-1.061587
C84	C	1.613812	1.073010	-0.561587
C85	C	1.113789	0.573041	-0.951865
C86	C	1.613789	1.073041	-0.451865
C87	C	1.268546	0.371515	-0.897079
C88	C	1.768546	0.871515	-0.397079
C89	C	1.320146	0.304311	-0.951961
C90	C	1.820146	0.804311	-0.451961
C91	C	1.320165	0.304273	-1.061685
C92	C	1.820165	0.804273	-0.561685
C93	C	1.268585	0.371439	-1.116527
C94	C	1.768585	0.871439	-0.616527
C95	C	1.165280	0.506058	-0.233253
C96	C	1.665280	1.006058	0.266747
C97	C	1.165412	0.505808	-0.116477
C98	C	1.665412	1.005808	0.383523
H99	H	1.268439	0.806428	-0.371918
H100	H	1.768439	1.306428	0.128082
H101	H	1.268625	1.204563	-0.372049
H102	H	1.768625	1.704563	0.127951
H103	H	1.071789	1.105035	-0.628079
H104	H	1.571789	1.605035	-0.128079
H105	H	1.362174	0.249546	-1.106367
H106	H	1.862174	0.749546	-0.606367
C107	C	1.056939	0.890286	-0.647193
C108	C	1.556939	1.390286	-0.147193
N109	N	1.014161	0.844833	-0.702789
N110	N	1.514161	1.344833	-0.202789
H111	H	1.268595	0.371390	-1.205872
H112	H	1.768595	0.871390	-0.705872
C113	C	1.376923	1.120691	-0.231035
C114	C	1.876923	1.620691	0.268965
N115	N	1.419688	1.166137	-0.175418
N116	N	1.919688	1.666137	0.324582
H117	H	1.268538	0.371540	-0.807736
H118	H	1.768538	0.871540	-0.307736
H119	H	1.362135	0.249621	-0.907302
H120	H	1.862135	0.749621	-0.407302
C121	C	1.057079	0.646888	-1.121918
C122	C	1.557079	1.146888	-0.621918
N123	N	1.014348	0.702535	-1.167359
N124	N	1.514348	1.202535	-0.667359
H125	H	1.362082	0.905949	-0.250166
H126	H	1.862082	1.405949	0.249834
C127	C	1.057037	0.646969	-0.891491
C128	C	1.557037	1.146969	-0.391491
N129	N	1.014289	0.702653	-0.846018
N130	N	1.514289	1.202653	-0.346018
