data_functionalizedCrystal
_audit_creation_method	'MofGen! by Chris Wilmer'
_symmetry_space_group_name_H-M	'P1'
_symmetry_Int_Tables_number	1
_symmetry_cell_setting	triclinic
loop_
_symmetry_equiv_pos_as_xyz
  x,y,z
_cell_length_a	6.817900
_cell_length_b	15.301058
_cell_length_c	17.078509
_cell_angle_alpha	96.108178
_cell_angle_beta	80.693456
_cell_angle_gamma	75.823722
loop_
_atom_site_label
_atom_site_type_symbol
_atom_site_fract_x
_atom_site_fract_y
_atom_site_fract_z
V1	V	4.013461	-0.281055	-0.110313
O2	O	4.022663	-0.275798	0.004739
O3	O	3.944452	-0.279042	-0.218192
O4	O	3.968665	-0.403674	-0.108863
O5	O	3.998283	-0.150304	-0.105347
V6	V	4.499292	-0.265427	-0.096523
O7	O	4.269656	-0.315336	-0.140565
O8	O	4.693294	-0.231146	-0.066272
O9	O	4.345094	-0.267439	0.011356
O10	O	4.607486	-0.270683	-0.211575
O11	O	4.631867	-0.396177	-0.101489
O12	O	4.320881	-0.142808	-0.097973
C13	C	3.784323	-0.274585	-0.244483
C14	C	3.809211	-0.273757	-0.332677
C15	C	3.929762	-0.268622	-0.828680
C16	C	3.906394	-0.269404	-0.745813
C17	C	4.076178	-0.274285	-0.708432
C18	C	4.269347	-0.278393	-0.753923
C19	C	4.292716	-0.277618	-0.836789
C20	C	4.025749	-0.277091	-0.461034
C21	C	4.002363	-0.277863	-0.378161
C22	C	3.639412	-0.268875	-0.370058
C23	C	3.662796	-0.268095	-0.452925
C24	C	3.855964	-0.272208	-0.498409
N25	N	4.052295	-0.275081	-0.623728
N26	N	3.879847	-0.271419	-0.583112
C27	C	3.815208	-0.433564	-0.105022
C28	C	3.859730	-0.533805	-0.104550
C29	C	3.907398	-0.593715	-0.177007
C30	C	3.949239	-0.687902	-0.176562
C31	C	3.943397	-0.722176	-0.103660
C32	C	3.895730	-0.662259	-0.031198
C33	C	3.853904	-0.568074	-0.031644
C34	C	3.982905	-0.858570	-0.030274
C35	C	4.024730	-0.952761	-0.029828
C36	C	4.078240	-0.978398	-0.175192
C37	C	4.036414	-0.884213	-0.175638
C38	C	3.988746	-0.824302	-0.103176
C39	C	4.168565	-0.271894	0.037643
C40	C	4.122914	-0.272728	0.125836
C41	C	4.137680	-0.112913	-0.101817
C42	C	4.072397	-0.012671	-0.102284
H43	H	4.183034	-0.280438	-0.498057
C44	C	4.505196	-0.282131	-0.886821
N45	N	4.665243	-0.285533	-0.924505
C46	C	4.018330	-0.990462	0.050367
N47	N	4.013517	-1.018858	0.110772
H48	H	3.944099	-0.809792	0.028732
C49	C	4.042844	-0.846513	-0.255834
N50	N	4.047697	-0.818119	-0.316239
C51	C	3.801460	-0.502172	0.048064
N52	N	3.761964	-0.452536	0.108102
H53	H	3.749112	-0.266059	-0.708783
H54	H	3.482142	-0.265528	-0.333016
H55	H	3.890988	-0.690173	0.028160
H56	H	3.791503	-0.264650	-0.859110
H57	H	3.524528	-0.264104	-0.483353
H58	H	4.407589	-0.282373	-0.723481
H59	H	4.140628	-0.281828	-0.347727
H60	H	3.912145	-0.565816	-0.236372
H61	H	3.988060	-0.736678	-0.235564
C62	C	4.130689	-1.044302	-0.254902
N63	N	4.170190	-1.093945	-0.314937
