data_functionalizedCrystal
_audit_creation_method	'MofGen! by Chris Wilmer'
_symmetry_space_group_name_H-M	'P1'
_symmetry_Int_Tables_number	1
_symmetry_cell_setting	triclinic
loop_
_symmetry_equiv_pos_as_xyz
  x,y,z
_cell_length_a	17.699104
_cell_length_b	6.394989
_cell_length_c	16.776229
_cell_angle_alpha	90.003593
_cell_angle_beta	89.991971
_cell_angle_gamma	95.105386
loop_
_atom_site_label
_atom_site_type_symbol
_atom_site_fract_x
_atom_site_fract_y
_atom_site_fract_z
O1	O	1.006766	-0.264339	-0.066299
O2	O	0.786740	-0.298657	-0.066297
O3	O	0.899876	0.022581	-0.066299
O4	O	0.893630	-0.585578	-0.066297
O5	O	0.899861	0.022601	0.066278
O6	O	0.786724	-0.298638	0.066280
O7	O	1.006750	-0.264319	0.066277
Zn8	Zn	0.896735	-0.281475	0.087328
Zn9	Zn	0.896756	-0.281501	-0.087347
O10	O	0.893614	-0.585558	0.066279
C11	C	0.758523	-0.297411	-0.000008
C12	C	0.674468	-0.293699	-0.000007
C13	C	0.151308	-0.461329	-0.000015
C14	C	0.230287	-0.464804	-0.000018
C15	C	0.276980	-0.276225	-0.000018
C16	C	0.244690	-0.084158	-0.000024
C17	C	0.165712	-0.080686	-0.000027
C18	C	0.563199	-0.098158	-0.000011
C19	C	0.642182	-0.101645	-0.000005
C20	C	0.627773	-0.482276	-0.000002
C21	C	0.548796	-0.478804	-0.000005
C22	C	0.516513	-0.286739	-0.000015
C23	C	0.430874	-0.282973	-0.000014
C24	C	0.362617	-0.279988	-0.000013
C25	C	1.034968	-0.265566	-0.000013
C26	C	1.119023	-0.269277	-0.000019
C27	C	0.898633	0.100407	-0.000013
C28	C	0.894859	0.336623	-0.000014
N29	N	0.896726	-0.281456	0.206539
N30	N	0.896770	-0.281504	-0.206559
C31	C	0.946839	-0.139270	0.248255
C32	C	0.946844	-0.139268	0.331708
C33	C	0.896738	-0.281464	0.373442
C34	C	0.846620	-0.423658	0.331720
C35	C	0.846612	-0.423648	0.248269
C36	C	0.846647	-0.423699	0.668267
C37	C	0.846660	-0.423702	0.751724
C38	C	0.946879	-0.139319	0.751705
C39	C	0.946871	-0.139309	0.668255
C40	C	0.896751	-0.281494	0.626540
C41	C	0.896746	-0.281492	0.536052
C42	C	0.896746	-0.281479	0.463929
H43	H	0.654067	-0.638665	0.000003
Cl44	Cl	1.009843	0.039485	0.384152
Cl45	Cl	0.303390	0.152915	-0.000026
H46	H	0.805819	-0.539430	0.365705
H47	H	0.113295	-0.614893	-0.000009
Cl48	Cl	0.270870	-0.706252	-0.000018
Cl49	Cl	0.490100	-0.715884	-0.000003
Cl50	Cl	0.125126	0.160761	-0.000032
H51	H	0.680198	0.051929	-0.000008
H52	H	0.987674	-0.023527	0.634277
Cl53	Cl	1.009837	0.039493	0.195798
Cl54	Cl	0.783607	-0.602398	0.195827
H55	H	0.987687	-0.023538	0.785679
Cl56	Cl	0.783664	-0.602474	0.804189
H57	H	0.805839	-0.539474	0.634309
H58	H	0.536924	0.058233	-0.000017
