data_functionalizedCrystal
_audit_creation_method	'MofGen! by Chris Wilmer'
_symmetry_space_group_name_H-M	'P1'
_symmetry_Int_Tables_number	1
_symmetry_cell_setting	triclinic
loop_
_symmetry_equiv_pos_as_xyz
  x,y,z
_cell_length_a	16.974800
_cell_length_b	10.540510
_cell_length_c	16.053789
_cell_angle_alpha	92.862569
_cell_angle_beta	89.238068
_cell_angle_gamma	83.950335
loop_
_atom_site_label
_atom_site_type_symbol
_atom_site_fract_x
_atom_site_fract_y
_atom_site_fract_z
O1	O	1.049984	0.161588	-0.001547
O2	O	0.820562	0.183280	0.013961
O3	O	0.940519	-0.012385	0.005852
O4	O	0.930027	0.357254	0.006562
O5	O	0.934526	-0.021898	-0.132602
O6	O	0.814569	0.173767	-0.124493
O7	O	1.043990	0.152075	-0.140001
Zn8	Zn	0.928328	0.161411	-0.154230
Zn9	Zn	0.936225	0.173945	0.028190
O10	O	0.924033	0.347741	-0.131892
C11	C	0.788189	0.177879	-0.053280
C12	C	0.700654	0.175942	-0.047362
C13	C	0.656268	0.169843	-0.120056
C14	C	0.574022	0.168002	-0.114498
C15	C	0.536163	0.172270	-0.036247
C16	C	0.580555	0.178366	0.036452
C17	C	0.662801	0.180197	0.030894
C18	C	0.290536	0.167341	-0.011530
C19	C	0.208285	0.165513	-0.005977
C20	C	0.201757	0.155147	-0.156928
C21	C	0.284004	0.156987	-0.162479
C22	C	0.328390	0.163076	-0.089781
N23	N	0.452094	0.170393	-0.030564
N24	N	0.412458	0.164943	-0.095464
C25	C	0.936741	-0.064429	-0.063320
C26	C	0.934402	-0.205329	-0.063157
C27	C	1.017722	-0.424563	-0.069108
C28	C	1.020231	-0.277998	-0.068960
C29	C	0.893888	-0.243729	0.018875
C30	C	0.892003	-0.390446	0.019065
C31	C	0.883400	-0.401035	-0.138263
C32	C	0.887426	-0.254852	-0.139579
C33	C	1.076364	0.157477	-0.072758
C34	C	1.163899	0.159414	-0.078670
C35	C	0.927812	0.399784	-0.062718
C36	C	0.930151	0.540685	-0.062875
N37	N	0.922944	0.152856	-0.278726
C38	C	0.969303	0.226587	-0.325551
C39	C	0.965547	0.220594	-0.412704
C40	C	0.915429	0.140876	-0.453031
C41	C	0.869069	0.067136	-0.406201
C42	C	0.872829	0.073123	-0.319049
C43	C	0.899015	0.114737	-0.713332
C44	C	0.895256	0.108759	-0.800490
C45	C	0.991736	0.262215	-0.806987
C46	C	0.995488	0.268201	-0.719833
C47	C	0.949131	0.194456	-0.673011
N48	N	0.911587	0.134751	-0.542115
N49	N	0.952978	0.200575	-0.583929
N50	N	0.941615	0.182490	0.152686
H51	H	0.326666	0.172295	0.047667
H52	H	1.052155	-0.253273	-0.127958
H53	H	0.827963	-0.411842	0.026986
O54	O	0.543652	0.182559	0.112401
C55	C	0.461544	0.179607	0.101721
H56	H	0.444462	0.215083	0.037823
H57	H	0.427708	0.243842	0.152351
H58	H	0.446067	0.077511	0.106354
H59	H	0.698939	0.185166	0.090089
H60	H	0.537888	0.163015	-0.173693
O61	O	0.693023	0.165467	-0.196091
C62	C	0.679243	0.051957	-0.241215
H63	H	0.664363	-0.022338	-0.195918
H64	H	0.734643	0.013910	-0.279295
H65	H	0.627585	0.072510	-0.284921
H66	H	0.908081	-0.447910	-0.200036
O67	O	0.820399	-0.010195	-0.445500
C68	C	0.826988	0.000371	-0.532462
H69	H	0.849453	0.095597	-0.545899
H70	H	0.766442	-0.004786	-0.561569
H71	H	0.870396	-0.081154	-0.560237
H72	H	1.029478	0.322252	-0.845119
O73	O	0.158624	0.148995	-0.227520
C74	C	0.119163	0.037720	-0.229373
H75	H	0.151618	-0.035611	-0.188609
H76	H	0.118138	-0.003788	-0.296251
H77	H	0.055826	0.062577	-0.204760
H78	H	1.010110	0.291509	-0.292722
H79	H	0.916864	-0.230932	-0.200230
O80	O	0.827716	0.001461	-0.273686
C81	C	0.782687	-0.070207	-0.327966
H82	H	0.775694	-0.021900	-0.389798
H83	H	0.721739	-0.076013	-0.298601
H84	H	0.814215	-0.170659	-0.339392
H85	H	0.177462	0.168992	0.057748
H86	H	0.314823	0.153505	-0.226200
O87	O	1.044056	0.345798	-0.680623
C88	C	0.998634	0.436119	-0.626991
H89	H	0.934844	0.448270	-0.649030
H90	H	1.024389	0.531674	-0.627743
H91	H	0.999940	0.401452	-0.560834
H92	H	0.854440	0.043843	-0.833321
O93	O	0.812387	-0.195257	-0.140107
C94	C	0.771919	-0.218874	-0.066135
H95	H	0.800993	-0.309983	-0.039231
H96	H	0.707419	-0.230595	-0.080506
H97	H	0.774620	-0.135144	-0.018854
H98	H	0.926947	-0.209473	0.075651
H99	H	1.048705	-0.471119	-0.128068
H100	H	0.861268	0.054688	-0.675220
H101	H	0.924588	-0.427234	0.076136
O102	O	1.060176	-0.472707	-0.004458
C103	C	1.011091	-0.537739	0.046364
H104	H	0.946486	-0.500141	0.037249
H105	H	1.026993	-0.521304	0.114542
H106	H	1.020101	-0.644354	0.028399
O107	O	1.064299	-0.240141	-0.003975
C108	C	1.017108	-0.151997	0.049535
H109	H	0.965454	-0.105275	0.013366
H110	H	1.054417	-0.075494	0.074963
H111	H	0.993294	-0.203942	0.103543
H112	H	0.818936	-0.421864	-0.134439
O113	O	0.818688	-0.185295	0.027636
C114	C	0.811728	-0.108299	0.102292
H115	H	0.859468	-0.144664	0.147138
H116	H	0.750778	-0.112626	0.132041
H117	H	0.819311	-0.005348	0.088065
O118	O	1.010603	0.292350	-0.458060
C119	C	1.055654	0.363978	-0.403779
H120	H	1.025738	0.375827	-0.339457
H121	H	1.060003	0.462040	-0.429324
H122	H	1.117648	0.311992	-0.398663
