data_functionalizedCrystal
_audit_creation_method	'MofGen! by Chris Wilmer'
_symmetry_space_group_name_H-M	'P1'
_symmetry_Int_Tables_number	1
_symmetry_cell_setting	triclinic
loop_
_symmetry_equiv_pos_as_xyz
  x,y,z
_cell_length_a	16.120490
_cell_length_b	18.050588
_cell_length_c	16.120297
_cell_angle_alpha	87.127354
_cell_angle_beta	89.870317
_cell_angle_gamma	87.121953
loop_
_atom_site_label
_atom_site_type_symbol
_atom_site_fract_x
_atom_site_fract_y
_atom_site_fract_z
Zn1	Zn	1.247402	-0.376307	0.534535
Zn2	Zn	1.254339	-0.494531	0.395477
Zn3	Zn	1.115393	-0.363751	0.388456
Zn4	Zn	1.108295	-0.493840	0.527450
O5	O	1.181357	-0.432107	0.461479
O6	O	1.364689	-0.397533	0.521992
O7	O	1.241781	-0.472218	0.278180
O8	O	1.132972	-0.261496	0.407860
O9	O	1.369785	-0.484393	0.419827
O10	O	1.229959	-0.270721	0.515184
O11	O	1.139699	-0.376134	0.273022
O12	O	0.998085	-0.375464	0.400990
O13	O	1.120874	-0.483215	0.644755
O14	O	0.992870	-0.471040	0.503109
O15	O	1.223075	-0.396863	0.649961
O16	O	1.234898	-0.598360	0.412957
O17	O	1.127600	-0.597852	0.509917
C18	C	0.965305	-0.421815	0.450519
C19	C	0.872876	-0.417431	0.445850
C20	C	0.659910	-0.454844	0.485700
C21	C	0.703653	-0.409433	0.437325
C22	C	0.797817	-0.413884	0.442070
C23	C	0.565737	-0.450394	0.480956
C24	C	1.181253	-0.625054	0.461449
C25	C	1.181283	-0.707601	0.461468
C26	C	1.123022	-0.956182	0.514199
C27	C	1.197812	-0.911194	0.538443
C28	C	1.181454	-1.004732	0.461523
C29	C	1.106581	-0.902635	0.437291
C30	C	1.181366	-0.858742	0.461498
C31	C	1.256283	-0.960835	0.485808
C32	C	1.165002	-0.952276	0.384618
C33	C	1.239847	-0.907312	0.408836
C34	C	1.181503	-1.088833	0.461540
C35	C	1.181325	-0.774643	0.461481
C36	C	1.398253	-0.442441	0.472483
C37	C	1.490681	-0.446844	0.477172
C38	C	1.170409	-0.441363	0.678374
C39	C	1.165743	-0.445307	0.770801
C40	C	1.181484	-0.238410	0.461529
C41	C	1.181537	-0.155867	0.461550
C42	C	1.192311	-0.422837	0.245431
C43	C	1.197138	-0.418691	0.153012
C44	C	1.157195	-0.452489	0.940026
C45	C	1.205684	-0.411511	0.983793
C46	C	1.200927	-0.415507	1.077955
C47	C	1.161950	-0.448494	0.845855
H48	H	0.670382	-0.367211	0.392345
C49	C	1.097005	-0.503293	0.984198
C50	C	1.053188	-0.540308	0.925315
C51	C	0.997730	-0.587108	0.965986
H52	H	1.127031	-0.538632	1.019695
H53	H	1.059069	-0.474585	1.016224
H54	H	1.091118	-0.569014	0.893303
H55	H	1.023145	-0.504987	0.889816
H56	H	0.959794	-0.558400	0.998012
H57	H	1.027763	-0.622442	1.001481
H58	H	0.967988	-0.612223	0.926040
C59	C	1.265701	-0.360600	0.939514
C60	C	1.246588	-0.287136	0.959645
C61	C	1.301851	-0.240217	0.918864
H62	H	1.320893	-0.374626	0.956511
H63	H	1.260950	-0.364572	0.881191
H64	H	1.251347	-0.283167	1.017956
H65	H	1.191406	-0.273088	0.942646
H66	H	1.297099	-0.244190	0.860540
H67	H	1.357039	-0.254250	0.935864
H68	H	1.288886	-0.190366	0.932510
C69	C	1.146578	-0.976451	0.297870
C70	C	1.207005	-0.950561	0.242629
C71	C	1.190043	-0.972810	0.162708
H72	H	1.147274	-1.029120	0.298303
H73	H	1.093386	-0.956422	0.280688
H74	H	1.260183	-0.970594	0.259807
H75	H	1.206319	-0.897894	0.242171
H76	H	1.136851	-0.952781	0.145526
H77	H	1.190739	-1.025479	0.163150
H78	H	1.231035	-0.955241	0.125216
H79	H	0.693179	-0.497063	0.530675
H80	H	1.211696	-0.893012	0.603470
C81	C	1.057379	-0.984935	0.573724
C82	C	1.095388	-1.033073	0.634702
C83	C	1.034949	-1.059584	0.689545
H84	H	1.029787	-0.944345	0.599365
H85	H	1.018195	-1.010868	0.543919
H86	H	1.134558	-1.007139	0.664504
H87	H	1.122975	-1.073674	0.609086
H88	H	0.995764	-1.085517	0.659740
H89	H	1.007360	-1.018990	0.715180
H90	H	1.060728	-1.092253	0.730920
C91	C	1.340612	-0.994648	0.513388
C92	C	1.331060	-1.040549	0.585039
C93	C	1.408724	-1.071704	0.610479
H94	H	1.364102	-1.023151	0.470443
H95	H	1.376284	-0.956138	0.525003
H96	H	1.295402	-1.079054	0.573420
H97	H	1.307585	-1.012065	0.628000
H98	H	1.444396	-1.033194	0.622093
H99	H	1.432208	-1.100202	0.567528
H100	H	1.402255	-1.102846	0.659100
C101	C	1.305878	-0.878916	0.349543
C102	C	1.384039	-0.908680	0.375277
C103	C	1.444889	-0.882530	0.320688
H104	H	1.294787	-0.893641	0.295080
H105	H	1.305236	-0.826257	0.349533
H106	H	1.384679	-0.961328	0.375278
H107	H	1.395156	-0.893958	0.429731
H108	H	1.444247	-0.829871	0.320677
H109	H	1.433790	-0.897256	0.266228
H110	H	1.497929	-0.902715	0.338144
C111	C	1.022122	-0.868863	0.410068
C112	C	0.961240	-0.893662	0.465435
C113	C	0.883423	-0.862585	0.440379
H114	H	1.022715	-0.816255	0.409765
H115	H	1.010034	-0.883580	0.355818
H116	H	0.973324	-0.878941	0.519671
H117	H	0.960620	-0.946266	0.465746
H118	H	0.871335	-0.877302	0.386129
H119	H	0.884024	-0.809979	0.440076
H120	H	0.842104	-0.879412	0.477937
