data_functionalizedCrystal
_audit_creation_method	'MofGen! by Chris Wilmer'
_symmetry_space_group_name_H-M	'P1'
_symmetry_Int_Tables_number	1
_symmetry_cell_setting	triclinic
loop_
_symmetry_equiv_pos_as_xyz
  x,y,z
_cell_length_a	13.339070
_cell_length_b	11.804783
_cell_length_c	13.262508
_cell_angle_alpha	118.762330
_cell_angle_beta	80.569504
_cell_angle_gamma	80.565097
loop_
_atom_site_label
_atom_site_type_symbol
_atom_site_fract_x
_atom_site_fract_y
_atom_site_fract_z
O1	O	1.358877	-0.077735	-0.545869
O2	O	1.059559	-0.053416	-0.470762
O3	O	1.206833	-0.012593	-0.344706
O4	O	1.211603	-0.118557	-0.671925
O5	O	1.246626	-0.227699	-0.397404
O6	O	1.099352	-0.268522	-0.523459
O7	O	1.398669	-0.292840	-0.598567
Cu8	Cu	1.252644	-0.300322	-0.565825
Cu9	Cu	1.205585	-0.045934	-0.503504
O10	O	1.251395	-0.333663	-0.724622
C11	C	1.040957	-0.156860	-0.484423
C12	C	0.926243	-0.144615	-0.446606
C13	C	0.580203	-0.239818	-0.740651
C14	C	0.687982	-0.251320	-0.776185
C15	C	0.747552	-0.224646	-0.693793
C16	C	0.699334	-0.186465	-0.575862
C17	C	0.591543	-0.174952	-0.540322
C18	C	0.758892	-0.159779	-0.493464
C19	C	0.710674	-0.121599	-0.375532
C20	C	0.602894	-0.110088	-0.339999
C21	C	0.543323	-0.136763	-0.422390
C22	C	0.866683	-0.171293	-0.529004
C23	C	0.878023	-0.106426	-0.328674
C24	C	0.770245	-0.094924	-0.293141
N25	N	1.285750	-0.479245	-0.609660
C26	C	1.092948	-0.770600	-0.354378
C27	C	1.067882	-0.635205	-0.321203
C28	C	1.122347	-0.596208	-0.393315
C29	C	1.201882	-0.692620	-0.498606
C30	C	1.226955	-0.828026	-0.531779
C31	C	1.256354	-0.653634	-0.570716
C32	C	1.335889	-0.750046	-0.676007
C33	C	1.360958	-0.885439	-0.709175
C34	C	1.306493	-0.924436	-0.637063
C35	C	1.231281	-0.518228	-0.537543
C36	C	1.365288	-0.575654	-0.714944
C37	C	1.390354	-0.711049	-0.748119
C38	C	1.417271	-0.189393	-0.584904
C39	C	1.531983	-0.201630	-0.622720
C40	C	1.223337	-0.106304	-0.328318
C41	C	1.213217	-0.065057	-0.200973
N42	N	1.172486	0.132991	-0.459662
C43	C	1.234891	-0.239950	-0.741009
C44	C	1.245009	-0.281187	-0.868353
C45	C	1.271451	-0.417822	0.043101
C46	C	1.280952	-0.456575	-0.076545
C47	C	1.264019	-0.358699	-0.107658
C48	C	1.237584	-0.222063	-0.019113
C49	C	1.228075	-0.183304	0.100547
C50	C	1.220642	-0.124182	-0.050213
C51	C	1.194207	0.012455	0.038333
C52	C	1.184700	0.051206	0.157979
C53	C	1.201632	-0.046670	0.189093
C54	C	1.230152	-0.162940	-0.169872
C55	C	1.186775	0.071577	-0.112427
C56	C	1.177275	0.110331	0.007219
H57	H	0.563635	-0.078985	-0.243967
N58	N	1.446739	-0.989425	-0.822738
H59	H	1.454358	-1.081116	-0.832809
H60	H	1.515976	-0.965997	-0.817737
N61	N	0.739984	-0.292478	-0.903367
H62	H	0.685893	-0.307627	-0.950169
H63	H	0.799211	-0.378407	-0.942023
N64	N	1.156281	0.198569	0.253469
H65	H	1.147035	0.254693	0.215601
H66	H	1.214798	0.216209	0.293690
N67	N	1.274276	-0.400480	-0.236702
H68	H	1.204706	-0.360339	-0.243651
H69	H	1.293632	-0.501893	-0.288005
N70	N	0.427073	-0.124346	-0.384046
H71	H	0.418095	-0.188579	-0.355694
H72	H	0.396720	-0.147013	-0.454176
N73	N	1.145500	-0.414259	-0.423988
H74	H	1.087750	-0.369098	-0.444204
H75	H	1.176558	-0.344589	-0.368384
N76	N	1.476135	-0.815040	-0.861680
H77	H	1.483748	-0.906728	-0.871747
H78	H	1.545374	-0.791616	-0.856680
N79	N	1.148767	0.257699	0.102725
H80	H	1.080509	0.282445	0.164250
H81	H	1.139542	0.313725	0.064768
H82	H	1.302486	-0.567825	-0.148633
H83	H	1.003128	-0.556715	-0.235474
N84	N	1.034220	-0.812657	-0.276600
H85	H	1.062177	-0.913060	-0.313591
H86	H	0.956218	-0.788761	-0.270003
N87	N	0.515951	-0.268580	-0.829502
H88	H	0.562849	-0.294515	-0.909604
H89	H	0.456240	-0.185464	-0.799572
H90	H	1.285228	-0.497497	0.068449
H91	H	1.101933	-0.485962	-0.366298
N92	N	0.863800	-0.237058	-0.732115
H93	H	0.885309	-0.265297	-0.819326
H94	H	0.906654	-0.306822	-0.720812
N95	N	1.168485	0.177136	-0.145988
H96	H	1.234802	0.162859	-0.204954
H97	H	1.150247	0.269536	-0.071689
N98	N	0.918675	-0.212481	-0.656198
H99	H	0.977890	-0.298445	-0.694948
H100	H	0.948327	-0.138885	-0.655779
H101	H	1.409639	-0.543905	-0.773663
H102	H	1.251666	-0.274190	-0.241954
H103	H	0.730968	-0.063827	-0.197116
N104	N	0.942259	-0.077644	-0.239796
H105	H	1.017857	-0.090736	-0.280205
H106	H	0.940645	-0.141209	-0.209378
N107	N	1.334169	-1.070290	-0.672298
H108	H	1.287806	-1.080297	-0.610456
H109	H	1.410924	-1.100787	-0.676779
N110	N	1.191390	-0.004889	0.318139
H111	H	1.134272	-0.038168	0.346274
H112	H	1.172108	0.096520	0.369435
