data_functionalizedCrystal
_audit_creation_method	'MofGen! by Chris Wilmer'
_symmetry_space_group_name_H-M	'P1'
_symmetry_Int_Tables_number	1
_symmetry_cell_setting	triclinic
loop_
_symmetry_equiv_pos_as_xyz
  x,y,z
_cell_length_a	12.645330
_cell_length_b	13.897449
_cell_length_c	13.897441
_cell_angle_alpha	89.977141
_cell_angle_beta	90.027301
_cell_angle_gamma	89.982475
loop_
_atom_site_label
_atom_site_type_symbol
_atom_site_fract_x
_atom_site_fract_y
_atom_site_fract_z
Zn1	Zn	-0.422010	-1.474703	0.545458
Zn2	Zn	-0.599306	-1.474597	0.384169
Zn3	Zn	-0.422056	-1.313392	0.384170
Zn4	Zn	-0.599232	-1.313373	0.545415
O5	O	-0.510651	-1.394016	0.464803
O6	O	-0.445541	-1.609670	0.524080
O7	O	-0.575843	-1.453176	0.249187
O8	O	-0.273703	-1.334842	0.405584
O9	O	-0.575799	-1.609592	0.405581
O10	O	-0.273669	-1.453356	0.524081
O11	O	-0.445619	-1.334739	0.249188
O12	O	-0.445547	-1.178408	0.405543
O13	O	-0.575673	-1.334811	0.680403
O14	O	-0.575717	-1.178394	0.524009
O15	O	-0.445469	-1.453339	0.680434
O16	O	-0.747643	-1.453158	0.405540
O17	O	-0.747589	-1.334708	0.524007
C18	C	-0.786081	-1.393946	0.464790
C19	C	-0.903911	-1.394004	0.464816
C20	C	-0.510630	-1.143402	0.464772
C21	C	-0.510646	-1.036188	0.464781
C22	C	-0.510557	-1.394085	0.716396
C23	C	-0.510517	-1.394114	0.823610
C24	C	-1.071485	-1.319794	0.539574
C25	C	-0.948925	-1.319415	0.539333
C26	C	-0.948509	-1.366485	0.363159
C27	C	-1.071108	-1.366032	0.363613
C28	C	-1.070999	-1.496187	0.490891
C29	C	-0.948392	-1.495561	0.493113
C30	C	-0.234146	-1.394113	0.464838
C31	C	-0.116316	-1.394154	0.464852
C32	C	-0.510645	-0.839893	0.464799
C33	C	-0.510642	-0.949125	0.464787
C34	C	-0.510666	-0.645609	0.464826
C35	C	-0.510655	-0.752823	0.464812
C36	C	-0.510668	-1.394003	0.214189
C37	C	-0.510409	-1.394161	0.106975
C38	C	-0.510446	-1.394140	1.019905
C39	C	-0.510488	-1.394122	0.910673
H40	H	-1.100893	-1.336854	0.615198
N41	N	-1.111875	-1.529456	0.587397
H42	H	-1.081828	-1.595054	0.602679
H43	H	-1.191598	-1.533280	0.585298
H44	H	-1.102386	-1.244625	0.522543
H45	H	-0.918768	-1.336632	0.614711
N46	N	-0.910188	-1.219223	0.516476
H47	H	-0.972754	-1.175134	0.506512
H48	H	-0.866025	-1.220942	0.455969
H49	H	-1.099800	-1.291445	0.341556
N50	N	-1.110407	-1.434652	0.287354
H51	H	-1.048088	-1.465059	0.253589
H52	H	-1.154763	-1.398265	0.239058
N53	N	-0.909898	-1.435945	0.287391
H54	H	-0.863010	-1.486040	0.318308
H55	H	-0.868411	-1.399681	0.236993
N56	N	-0.907967	-1.268719	0.333403
H57	H	-0.860723	-1.242115	0.385617
H58	H	-0.969710	-1.223792	0.322960
H59	H	-0.917744	-1.553880	0.442654
N60	N	-0.909778	-1.523061	0.592211
H61	H	-0.863661	-1.469965	0.618671
H62	H	-0.867485	-1.584577	0.588065
N63	N	-1.109393	-1.569575	0.418806
H64	H	-1.155912	-1.536944	0.369518
H65	H	-1.151215	-1.621044	0.453203
