data_functionalizedCrystal
_audit_creation_method	'MofGen! by Chris Wilmer'
_symmetry_space_group_name_H-M	'P1'
_symmetry_Int_Tables_number	1
_symmetry_cell_setting	triclinic
loop_
_symmetry_equiv_pos_as_xyz
  x,y,z
_cell_length_a	18.050591
_cell_length_b	13.032868
_cell_length_c	13.032268
_cell_angle_alpha	103.285901
_cell_angle_beta	82.843153
_cell_angle_gamma	82.790955
loop_
_atom_site_label
_atom_site_type_symbol
_atom_site_fract_x
_atom_site_fract_y
_atom_site_fract_z
Zn1	Zn	1.031174	0.499205	0.654364
Zn2	Zn	1.531174	0.999205	1.154364
Zn3	Zn	1.031078	0.654288	0.499305
Zn4	Zn	1.531078	1.154288	0.999305
Zn5	Zn	0.925053	0.476687	0.476766
Zn6	Zn	1.425053	0.976687	0.976766
Zn7	Zn	0.888887	0.676744	0.676820
Zn8	Zn	1.388887	1.176744	1.176820
O9	O	0.969048	0.576731	0.576814
O10	O	1.469048	1.076731	1.076814
O11	O	1.135080	0.519802	0.633830
O12	O	1.635080	1.019802	1.133830
O13	O	1.032109	0.611907	0.347699
O14	O	1.532109	1.111907	0.847699
O15	O	0.954306	0.331046	0.481494
O16	O	1.454306	0.831046	0.981494
O17	O	1.135010	0.633742	0.519908
O18	O	1.635010	1.133742	1.019908
O19	O	1.032272	0.347590	0.611975
O20	O	1.532272	0.847590	1.111975
O21	O	0.954213	0.481424	0.331139
O22	O	1.454213	0.981424	0.831139
O23	O	0.816337	0.503199	0.503269
O24	O	1.316337	1.003199	1.003269
O25	O	0.892666	0.672015	0.822458
O26	O	1.392666	1.172015	1.322458
O27	O	0.789766	0.650180	0.650248
O28	O	1.289766	1.150180	1.150248
O29	O	0.997203	0.541577	0.805959
O30	O	1.497203	1.041577	1.305959
O31	O	0.997041	0.805895	0.541683
O32	O	1.497041	1.305895	1.041683
O33	O	0.892574	0.822393	0.672103
O34	O	1.392574	1.322393	1.172103
C35	C	0.940890	0.852684	0.611799
C36	C	1.440890	1.352684	1.111799
C37	C	0.928908	0.970743	0.626801
C38	C	1.428908	1.470743	1.126801
C39	C	0.776106	0.576684	0.576750
C40	C	1.276106	1.076684	1.076750
C41	C	0.693559	0.576693	0.576751
C42	C	1.193559	1.076693	1.076751
C43	C	0.940911	0.611813	0.853820
C44	C	1.440911	1.111813	1.353820
C45	C	0.928921	0.626763	0.971864
C46	C	1.428921	1.126763	1.471864
C47	C	0.508528	0.496702	0.496977
C48	C	1.008528	0.996702	0.996977
C49	C	0.451912	0.590263	0.483136
C50	C	0.951912	1.090263	0.983136
C51	C	0.542421	0.576731	0.576803
C52	C	1.042421	1.076731	1.076803
C53	C	0.451953	0.483203	0.590646
C54	C	0.951953	0.983203	1.090646
C55	C	0.396429	0.576759	0.576850
C56	C	0.896429	1.076759	1.076850
C57	C	0.486891	0.670336	0.562918
C58	C	0.986891	1.170336	1.062918
C59	C	0.486939	0.563217	0.670465
C60	C	0.986939	1.063217	1.170465
C61	C	0.430334	0.656849	0.656669
C62	C	0.930334	1.156849	1.156669
C63	C	0.626523	0.576713	0.576773
C64	C	1.126523	1.076713	1.076773
C65	C	0.312327	0.576788	0.576882
C66	C	0.812327	1.076788	1.076882
C67	C	1.162744	0.576779	0.576878
C68	C	1.662744	1.076779	1.076878
C69	C	1.245285	0.576799	0.576906
C70	C	1.745285	1.076799	1.076906
C71	C	0.975290	1.015186	0.569009
C72	C	1.475290	1.515186	1.069009
C73	C	0.962907	1.137205	0.584513
C74	C	1.462907	1.637205	1.084513
C75	C	0.997311	1.299701	0.541704
C76	C	1.497311	1.799701	1.041704
C77	C	1.009295	1.181644	0.526712
C78	C	1.509295	1.681644	1.026712
C79	C	0.997126	0.541708	0.300875
C80	C	1.497126	1.041708	0.800875
C81	C	1.009291	0.526459	0.182794
C82	C	1.509291	1.026459	0.682794
C83	C	0.975298	0.568890	1.016329
C84	C	1.475298	1.068890	1.516329
C85	C	0.962907	0.584340	1.138333
C86	C	1.462907	1.084340	1.638333
H87	H	0.436286	0.601715	0.403949
H88	H	0.936286	1.101715	0.903949
N89	N	0.898158	1.206440	0.665266
N90	N	1.398158	1.706440	1.165266
H91	H	0.918673	1.258650	0.720328
H92	H	1.418673	1.758650	1.220328
H93	H	0.863536	1.246976	0.627788
H94	H	1.363536	1.746976	1.127788
H95	H	1.058177	1.129363	0.465755
H96	H	1.558177	1.629363	0.965755
N97	N	1.040057	0.488129	0.947117
N98	N	1.540057	0.988129	1.447117
H99	H	1.019557	0.433112	0.894839
H100	H	1.519557	0.933112	1.394839
H101	H	1.074667	0.525627	0.906665
H102	H	1.574667	1.025627	1.406665
H103	H	0.880035	1.023029	0.687761
H104	H	1.380035	1.523029	1.187761
N105	N	0.898151	0.665115	1.207545
N106	N	1.398151	1.165115	1.707545
H107	H	0.918660	0.720128	1.259814
H108	H	1.418660	1.220128	1.759814
H109	H	0.868922	0.701536	1.161041
H110	H	1.368922	1.201536	1.661041
N111	N	1.074039	0.445662	1.113593
N112	N	1.574039	0.945662	1.613593
H113	H	1.073714	0.446073	1.036246
H114	H	1.573714	0.946073	1.536246
H115	H	1.123439	0.464636	1.135035
H116	H	1.623439	0.964636	1.635035
H117	H	0.880038	0.687741	1.024119
H118	H	1.380038	1.187741	1.524119
H119	H	0.502390	0.749455	0.551141
H120	H	1.002390	1.249455	1.051141
H121	H	0.436334	0.404103	0.602300
H122	H	0.936334	0.904103	1.102300
H123	H	0.396601	0.724608	0.724204
H124	H	0.896601	1.224608	1.224204
H125	H	0.542388	0.429081	0.429413
H126	H	1.042388	0.929081	0.929413
H127	H	0.502587	0.551733	0.749623
H128	H	1.002587	1.051733	1.249623
H129	H	1.024169	0.962903	0.508056
H130	H	1.524169	1.462903	1.008056
