data_functionalizedCrystal
_audit_creation_method	'MofGen! by Chris Wilmer'
_symmetry_space_group_name_H-M	'P1'
_symmetry_Int_Tables_number	1
_symmetry_cell_setting	triclinic
loop_
_symmetry_equiv_pos_as_xyz
  x,y,z
_cell_length_a	10.686220
_cell_length_b	16.120297
_cell_length_c	10.686285
_cell_angle_alpha	91.272393
_cell_angle_beta	89.654569
_cell_angle_gamma	97.011720
loop_
_atom_site_label
_atom_site_type_symbol
_atom_site_fract_x
_atom_site_fract_y
_atom_site_fract_z
Zn1	Zn	1.931205	-0.354352	0.381220
Zn2	Zn	1.957821	-0.203616	0.578617
Zn3	Zn	1.730559	-0.224834	0.386727
Zn4	Zn	1.737647	-0.352697	0.606906
O5	O	1.839308	-0.283875	0.488368
O6	O	2.110851	-0.326168	0.393262
O7	O	1.935847	-0.089836	0.543629
O8	O	1.743070	-0.251587	0.211240
O9	O	2.130405	-0.215423	0.538288
O10	O	1.890484	-0.346743	0.207194
O11	O	1.768879	-0.105425	0.402648
O12	O	1.555385	-0.249983	0.430078
O13	O	1.755150	-0.469511	0.586502
O14	O	1.560592	-0.343924	0.591842
O15	O	1.897357	-0.470727	0.420692
O16	O	1.942720	-0.213819	0.757126
O17	O	1.780959	-0.323349	0.777910
C18	C	1.512324	-0.299077	0.514628
C19	C	1.372440	-0.305599	0.525895
C20	C	1.824075	-0.501196	0.506138
C21	C	1.817584	-0.593805	0.513711
C22	C	1.805683	-0.763368	0.527512
C23	C	1.873151	-0.805242	0.448829
C24	C	1.866529	-0.899593	0.456508
C25	C	1.812303	-0.669009	0.519835
C26	C	2.167569	-0.268613	0.462005
C27	C	2.307455	-0.262110	0.450771
C28	C	1.865530	-0.266118	0.812829
C29	C	1.876860	-0.258545	0.951628
C30	C	1.854547	-0.067400	0.470570
C31	C	1.861254	0.025201	0.462626
C32	C	1.813017	-0.301717	0.162638
C33	C	1.801814	-0.309320	0.023831
H34	H	1.321055	-0.347818	0.598842
H35	H	1.742956	-0.798375	0.600638
C36	C	1.956757	-0.758415	0.351427
C37	C	1.946808	-0.672784	0.363094
C38	C	2.023808	-0.629617	0.273397
H39	H	1.930657	-0.777975	0.270073
H40	H	2.041850	-0.767648	0.364038
H41	H	1.861732	-0.663556	0.350473
H42	H	1.972916	-0.653199	0.444428
H43	H	2.108901	-0.638850	0.286009
H44	H	1.997702	-0.649184	0.192050
H45	H	2.017077	-0.571512	0.281309
H46	H	1.728896	-0.358586	0.979463
C47	C	1.375729	-0.205732	0.353476
C48	C	1.287753	-0.166903	0.286453
C49	C	1.350610	-0.114951	0.196827
H50	H	1.420386	-0.238186	0.297547
H51	H	1.433378	-0.164363	0.394083
H52	H	1.230126	-0.208266	0.245848
H53	H	1.243091	-0.134434	0.342348
H54	H	1.408259	-0.073583	0.237434
H55	H	1.395266	-0.147411	0.140906
H56	H	1.290930	-0.088594	0.151349
H57	H	1.949775	-0.209271	0.996003
