data_functionalizedCrystal
_audit_creation_method	'MofGen! by Chris Wilmer'
_symmetry_space_group_name_H-M	'P1'
_symmetry_Int_Tables_number	1
_symmetry_cell_setting	triclinic
loop_
_symmetry_equiv_pos_as_xyz
  x,y,z
_cell_length_a	21.395362
_cell_length_b	12.759394
_cell_length_c	12.759387
_cell_angle_alpha	89.968340
_cell_angle_beta	89.957714
_cell_angle_gamma	90.030716
loop_
_atom_site_label
_atom_site_type_symbol
_atom_site_fract_x
_atom_site_fract_y
_atom_site_fract_z
Zn1	Zn	0.957918	-0.417766	-0.594610
Zn2	Zn	1.457918	0.082234	-0.094610
Zn3	Zn	0.957853	-0.593483	-0.418927
Zn4	Zn	1.457853	-0.093483	0.081073
Zn5	Zn	0.853136	-0.417867	-0.418880
Zn6	Zn	1.353136	0.082133	0.081120
Zn7	Zn	0.853132	-0.593452	-0.594500
Zn8	Zn	1.353132	-0.093452	-0.094500
O9	O	0.905510	-0.505642	-0.506729
O10	O	1.405510	-0.005642	-0.006729
O11	O	1.045588	-0.441045	-0.571371
O12	O	1.545588	0.058955	-0.071371
O13	O	0.943937	-0.570242	-0.271900
O14	O	1.443937	-0.070242	0.228100
O15	O	0.867065	-0.270832	-0.442217
O16	O	1.367065	0.229168	0.057783
O17	O	1.045539	-0.570144	-0.442298
O18	O	1.545539	-0.070144	0.057702
O19	O	0.944048	-0.270758	-0.571325
O20	O	1.444048	0.229242	-0.071325
O21	O	0.867002	-0.441218	-0.271865
O22	O	1.367002	0.058782	0.228135
O23	O	0.765458	-0.441188	-0.442110
O24	O	1.265458	0.058812	0.057890
O25	O	0.867057	-0.570091	-0.741535
O26	O	1.367057	-0.070091	-0.241535
O27	O	0.765454	-0.570190	-0.571137
O28	O	1.265454	-0.070190	-0.071137
O29	O	0.944044	-0.441016	-0.741616
O30	O	1.444044	0.058984	-0.241616
O31	O	0.943932	-0.740500	-0.442191
O32	O	1.443932	-0.240500	0.057809
O33	O	0.866994	-0.740477	-0.571184
O34	O	1.366994	-0.240477	-0.071184
C35	C	0.742722	-0.505697	-0.506607
C36	C	1.242722	-0.005697	-0.006607
C37	C	0.673081	-0.505746	-0.506580
C38	C	1.173081	-0.005746	-0.006580
C39	C	0.640382	-0.573007	-0.573664
C40	C	1.140382	-0.073007	-0.073664
C41	C	0.574947	-0.572981	-0.573711
C42	C	1.074947	-0.072981	-0.073711
C43	C	0.542213	-0.505706	-0.506655
C44	C	1.042213	-0.005706	-0.006655
C45	C	0.574919	-0.438433	-0.439566
C46	C	1.074919	0.061567	0.060434
C47	C	0.640353	-0.438453	-0.439529
C48	C	1.140353	0.061547	0.060471
C49	C	0.438488	-0.497270	-0.412072
C50	C	0.938488	0.002730	0.087928
C51	C	0.373055	-0.497258	-0.412108
C52	C	0.873055	0.002742	0.087892
C53	C	0.340392	-0.505637	-0.506771
C54	C	0.840392	-0.005637	-0.006771
C55	C	0.373170	-0.514052	-0.601401
C56	C	0.873170	-0.014052	-0.101401
C57	C	0.438604	-0.514072	-0.601364
C58	C	0.938604	-0.014072	-0.101364
C59	C	0.471260	-0.505676	-0.506688
C60	C	0.971260	-0.005676	-0.006688
C61	C	0.236741	-0.572873	-0.573911
C62	C	0.736741	-0.072873	-0.073911
C63	C	0.171304	-0.572840	-0.573960
C64	C	0.671304	-0.072840	-0.073960
C65	C	0.171278	-0.438297	-0.439806
C66	C	0.671278	0.061703	0.060194
C67	C	0.236713	-0.438325	-0.439767
C68	C	0.736713	0.061675	0.060233
C69	C	0.269441	-0.505619	-0.506818
C70	C	0.769441	-0.005619	-0.006818
C71	C	0.905472	-0.778609	-0.506704
C72	C	1.405472	-0.278609	-0.006704
C73	C	0.905513	-0.895386	-0.506728
C74	C	1.405513	-0.395386	-0.006728
C75	C	0.985689	-0.895356	-0.372509
C76	C	1.485689	-0.395356	0.127491
C77	C	1.025794	-0.950202	-0.305412
C78	C	1.525794	-0.450202	0.194588
C79	C	1.025830	-1.059923	-0.305440
C80	C	1.525830	-0.559923	0.194560
C81	C	0.985760	-1.114802	-0.372576
C82	C	1.485760	-0.614802	0.127424
C83	C	0.945656	-1.059956	-0.439673
C84	C	1.445656	-0.559956	0.060327
C85	C	0.945622	-0.950232	-0.439635
C86	C	1.445622	-0.450232	0.060365
C87	C	0.865484	-1.059986	-0.573895
C88	C	1.365484	-0.559986	-0.073895
C89	C	0.865443	-0.950264	-0.573863
C90	C	1.365443	-0.450264	-0.073863
C91	C	0.825413	-1.114864	-0.641030
C92	C	1.325413	-0.614864	-0.141030
C93	C	0.785305	-1.060018	-0.708124
C94	C	1.285305	-0.560018	-0.208124
C95	C	0.785269	-0.950290	-0.708092
C96	C	1.285269	-0.450290	-0.208092
C97	C	0.825338	-0.895418	-0.640960
C98	C	1.325338	-0.395418	-0.140960
C99	C	1.068933	-0.505587	-0.506852
C100	C	1.568933	-0.005587	-0.006852
C101	C	1.138574	-0.505563	-0.506904
C102	C	1.638574	-0.005563	-0.006904
C103	C	0.905557	-0.505539	-0.780763
C104	C	1.405557	-0.005539	-0.280763
C105	C	0.905577	-0.505495	-0.897539
C106	C	1.405577	-0.005495	-0.397539
C107	C	0.905565	-0.231608	-0.506778
C108	C	1.405565	0.268392	-0.006778
C109	C	0.905588	-0.114832	-0.506798
C110	C	1.405588	0.385168	-0.006798
C111	C	0.985749	-0.371097	-0.897643
C112	C	1.485749	0.128903	-0.397643
C113	C	1.025843	-0.303882	-0.952556
C114	C	1.525843	0.196118	-0.452556
C115	C	1.025858	-0.303844	-1.062278
C116	C	1.525858	0.196156	-0.562278
C117	C	0.985774	-0.371025	-1.117089
C118	C	1.485774	0.128975	-0.617089
C119	C	0.945679	-0.438240	-1.062176
C120	C	1.445679	0.061760	-0.562176
C121	C	0.945669	-0.438273	-0.952452
C122	C	1.445669	0.061727	-0.452452
C123	C	0.865505	-0.572631	-1.062073
C124	C	1.365505	-0.072631	-0.562073
C125	C	0.865492	-0.572676	-0.952351
C126	C	1.365492	-0.072676	-0.452351
C127	C	0.825421	-0.639813	-1.116884
C128	C	1.325421	-0.139813	-0.616884
C129	C	0.785328	-0.707034	-1.061971
C130	C	1.285328	-0.207034	-0.561971
C131	C	0.785315	-0.707071	-0.952243
C132	C	1.285315	-0.207071	-0.452243
C133	C	0.825398	-0.639891	-0.897438
C134	C	1.325398	-0.139891	-0.397438
C135	C	0.905499	-0.505669	-0.233762
C136	C	1.405499	-0.005669	0.266238
C137	C	0.905600	-0.505416	-0.116985
C138	C	1.405600	-0.005416	0.383015
H139	H	0.667025	-0.627801	-0.628264
H140	H	1.167025	-0.127801	-0.128264
H141	H	0.346372	-0.490412	-0.335054
H142	H	0.846372	0.009588	0.164946
H143	H	0.465077	-0.490442	-0.334981
H144	H	0.965077	0.009558	0.165019
H145	H	1.058503	-0.249105	-1.106988
H146	H	1.558503	0.250895	-0.606988
O147	O	0.825289	-0.777076	-0.640932
O148	O	1.325289	-0.277076	-0.140932
H149	H	0.872529	-0.748032	-0.662257
H150	H	1.372529	-0.248032	-0.162257
O151	O	0.337952	-0.523065	-0.703517
O152	O	0.837952	-0.023065	-0.203517
H153	H	0.350495	-0.597863	-0.742587
H154	H	0.850495	-0.097863	-0.242587
O155	O	0.742093	-0.779479	-1.121086
O156	O	1.242093	-0.279479	-0.621086
H157	H	0.770124	-0.832911	-1.171093
H158	H	1.270124	-0.332911	-0.671093
O159	O	0.825433	-0.639777	-1.235227
O160	O	1.325433	-0.139777	-0.735227
H161	H	0.860051	-0.581761	-1.264206
H162	H	1.360051	-0.081761	-0.764206
H163	H	0.144682	-0.627609	-0.628594
H164	H	0.644682	-0.127609	-0.128594
H165	H	0.825448	-1.204205	-0.641053
H166	H	1.325448	-0.704205	-0.141053
H167	H	0.548263	-0.383655	-0.384971
H168	H	1.048263	0.116345	0.115029
O169	O	0.985733	-0.371145	-0.779300
O170	O	1.485733	0.128855	-0.279300
H171	H	1.020338	-0.313136	-0.750412
H172	H	1.520338	0.186864	-0.250412
O173	O	0.135982	-0.365729	-0.367481
O174	O	0.635982	0.134271	0.132519
H175	H	0.148486	-0.383651	-0.284987
H176	H	0.648486	0.116349	0.215013
H177	H	0.752614	-0.905640	-0.762734
H178	H	1.252614	-0.405640	-0.262734
H179	H	1.058478	-0.249183	-0.907917
H180	H	1.558478	0.250817	-0.407917
H181	H	0.666976	-0.383678	-0.384901
H182	H	1.166976	0.116322	0.115099
O183	O	1.069015	-0.891019	-0.233005
O184	O	1.569015	-0.391019	0.266995
H185	H	1.118189	-0.911979	-0.251141
H186	H	1.618189	-0.411979	0.248859
H187	H	0.465289	-0.520921	-0.678415
H188	H	0.965289	-0.020921	-0.178415
H189	H	0.752659	-0.761794	-0.907539
H190	H	1.252659	-0.261794	-0.407539
H191	H	0.825394	-0.639919	-0.808097
H192	H	1.325394	-0.139919	-0.308097
H193	H	0.548319	-0.627752	-0.628342
H194	H	1.048319	-0.127752	-0.128342
H195	H	0.263389	-0.627662	-0.628514
H196	H	0.763389	-0.127662	-0.128514
O197	O	0.985783	-0.370981	-1.235432
O198	O	1.485783	0.129019	-0.735432
H199	H	1.020397	-0.312957	-1.264408
H200	H	1.520397	0.187043	-0.764408
H201	H	0.263336	-0.383560	-0.385134
H202	H	0.763336	0.116440	0.114866
O203	O	0.985646	-0.777013	-0.372477
O204	O	1.485646	-0.277013	0.127523
H205	H	1.020248	-0.748067	-0.314529
H206	H	1.520248	-0.248067	0.185471
H207	H	1.058490	-1.104579	-0.250809
H208	H	1.558490	-0.604579	0.249191
O209	O	0.985799	-1.233144	-0.372604
O210	O	1.485799	-0.733144	0.127396
H211	H	1.033062	-1.261971	-0.393931
H212	H	1.533062	-0.761971	0.106069
O213	O	0.742083	-1.119202	-0.780518
O214	O	1.242083	-0.619202	-0.280518
H215	H	0.748844	-1.204712	-0.769262
H216	H	1.248844	-0.704712	-0.269262
