data_functionalizedCrystal
_audit_creation_method	'MofGen! by Chris Wilmer'
_symmetry_space_group_name_H-M	'P1'
_symmetry_Int_Tables_number	1
_symmetry_cell_setting	triclinic
loop_
_symmetry_equiv_pos_as_xyz
  x,y,z
_cell_length_a	14.560438
_cell_length_b	14.560438
_cell_length_c	14.560438
_cell_angle_alpha	60.000905
_cell_angle_beta	90.002315
_cell_angle_gamma	59.999939
loop_
_atom_site_label
_atom_site_type_symbol
_atom_site_fract_x
_atom_site_fract_y
_atom_site_fract_z
Zr1	Zr	0.884767	1.005260	-0.120478
O2	O	0.738115	1.196866	-0.267128
O3	O	0.929724	0.813658	-0.075525
O4	O	0.929719	1.005262	-0.267125
O5	O	0.738124	1.005260	0.075613
O6	O	1.080860	1.005259	-0.267120
O7	O	0.738120	1.005262	-0.075527
O8	O	1.080868	0.662515	0.075618
O9	O	0.738116	1.348004	-0.267125
O10	O	1.061692	0.892463	-0.056346
O11	O	0.948900	0.892463	0.056445
O12	O	0.948895	1.118052	-0.169140
O13	O	0.836103	1.118053	-0.056349
Zr14	Zr	1.125826	1.005252	0.120582
Zr15	Zr	1.125820	1.005256	-0.120470
Zr16	Zr	0.884773	1.005256	0.120574
Zr17	Zr	0.884768	1.246308	-0.120474
Zr18	Zr	1.125825	0.764204	0.120577
O19	O	1.080869	1.196854	0.075628
O20	O	1.080861	1.196860	-0.267117
O21	O	0.738124	1.196860	0.075617
O22	O	1.272478	0.813646	0.267232
O23	O	1.272469	0.813651	-0.075513
O24	O	0.929733	0.813652	0.267220
O25	O	1.272470	1.005252	-0.075510
O26	O	1.080874	1.005250	0.267229
O27	O	0.929733	1.005253	0.267224
O28	O	1.272473	1.005250	0.075631
O29	O	0.929720	1.348000	-0.267119
O30	O	1.080873	0.662511	0.267223
O31	O	1.272478	0.662508	0.267229
O32	O	1.272473	0.662511	0.075625
O33	O	0.738120	1.348001	-0.075521
O34	O	0.929725	1.347997	-0.075515
O35	O	1.061698	0.892459	0.169244
O36	O	1.174490	0.892459	0.056453
O37	O	1.061693	1.118048	-0.056342
O38	O	0.948901	1.118049	0.056449
C39	C	1.005296	0.703742	0.000046
C40	C	1.005296	0.601411	0.000044
C41	C	0.703777	1.005262	0.000042
C42	C	0.601444	1.005263	0.000039
C43	C	1.064170	0.553335	-0.058832
C44	C	1.064174	0.457176	-0.058821
C45	C	0.946422	0.457181	0.058943
C46	C	0.946425	0.553332	0.058938
C47	C	0.553358	1.005267	-0.083224
C48	C	0.457213	1.005255	-0.083209
C49	C	0.457244	1.005241	0.083336
C50	C	0.553392	1.005244	0.083325
C51	C	0.601410	1.005287	-0.166510
C52	C	0.553324	1.005292	-0.249781
C53	C	0.457178	1.005279	-0.249766
C54	C	0.409118	1.005262	-0.166480
C55	C	1.306816	1.005250	0.000062
C56	C	1.409149	1.005248	0.000065
C57	C	1.005289	1.005261	-0.301468
C58	C	1.005286	1.005263	-0.403801
C59	C	1.005297	1.306770	0.000058
C60	C	1.005297	1.409101	0.000059
C61	C	0.946409	1.123016	-0.510754
C62	C	0.946422	1.123010	-0.606903
C63	C	1.064192	0.887487	-0.489131
C64	C	1.064185	0.887494	-0.392984
C65	C	1.005304	1.005251	0.301571
C66	C	1.005307	1.005249	0.403904
C67	C	1.306816	0.703736	0.000056
C68	C	1.409149	0.601403	0.000058
C69	C	1.005304	0.703737	0.301566
C70	C	1.005306	0.601404	0.403897
C71	C	1.306823	0.703731	0.301576
C72	C	1.409159	0.601397	0.403910
C73	C	0.703770	1.306780	-0.301472
C74	C	0.601434	1.409115	-0.403806
C75	C	0.703777	1.306775	0.000048
C76	C	0.601445	1.409108	0.000046
C77	C	1.005290	1.306775	-0.301462
C78	C	1.005287	1.409108	-0.403793
C79	C	1.398349	0.553327	-0.058819
C80	C	1.494505	0.457182	-0.058821
C81	C	1.612258	0.457195	0.058938
C82	C	1.516103	0.553345	0.058933
C83	C	1.064185	0.553324	0.510852
C84	C	1.064175	0.457181	0.606999
C85	C	0.946404	0.457202	0.489222
C86	C	0.946409	0.553350	0.393077
C87	C	1.516113	0.553317	0.393114
C88	C	1.612264	0.457171	0.489272
C89	C	1.494494	0.457189	0.607018
C90	C	1.398345	0.553340	0.510861
H91	H	1.112108	0.592477	-0.106785
H92	H	1.524905	0.592493	0.106877
H93	H	1.524923	0.592445	0.306033
H94	H	1.112136	0.791600	-0.305892
Br95	Br	0.392020	1.005220	0.196358
H96	H	0.592464	1.005295	-0.317584
H97	H	1.311252	0.592490	0.519660
Br98	Br	1.144116	0.618538	0.525537
Br99	Br	1.144079	0.391939	0.752152
Br100	Br	0.618660	1.005228	0.196334
H101	H	0.898450	1.218910	-0.519567
Br102	Br	0.866484	0.618620	0.247912
H103	H	0.418033	1.005271	-0.317561
H104	H	1.112116	0.418033	-0.106761
H105	H	1.699348	0.418029	0.480474
Br106	Br	0.866531	0.618572	0.138860
H107	H	0.898490	0.418024	0.106890
Br108	Br	0.866518	1.282825	-0.752055
H109	H	1.485703	0.418048	0.694108
H110	H	0.898454	0.418063	0.480427
Br111	Br	0.278645	1.005224	-0.166454
Br112	Br	1.144114	0.727666	-0.474461
Br113	Br	0.731887	1.005316	-0.166540
H114	H	1.311265	0.592465	-0.106771
H115	H	1.485701	0.418044	-0.106766
H116	H	1.699350	0.418052	0.106874
