data_functionalizedCrystal
_audit_creation_method	'MofGen! by Chris Wilmer'
_symmetry_space_group_name_H-M	'P1'
_symmetry_Int_Tables_number	1
_symmetry_cell_setting	triclinic
loop_
_symmetry_equiv_pos_as_xyz
  x,y,z
_cell_length_a	12.759401
_cell_length_b	18.215405
_cell_length_c	18.215399
_cell_angle_alpha	90.030551
_cell_angle_beta	89.983502
_cell_angle_gamma	89.974954
loop_
_atom_site_label
_atom_site_type_symbol
_atom_site_fract_x
_atom_site_fract_y
_atom_site_fract_z
Zn1	Zn	1.606160	0.292989	-0.416037
Zn2	Zn	2.106160	0.792989	0.083963
Zn3	Zn	1.606030	0.416060	-0.292965
Zn4	Zn	2.106030	0.916060	0.207035
Zn5	Zn	1.430468	0.293012	-0.292992
Zn6	Zn	1.930468	0.793012	0.207008
Zn7	Zn	1.430420	0.416018	-0.415997
Zn8	Zn	1.930420	0.916018	0.084003
O9	O	1.518269	0.354520	-0.354498
O10	O	2.018269	0.854520	0.145502
O11	O	1.753164	0.309322	-0.399717
O12	O	2.253164	0.809322	0.100283
O13	O	1.582707	0.399765	-0.189984
O14	O	2.082707	0.899765	0.310016
O15	O	1.453849	0.190025	-0.309342
O16	O	1.953849	0.690025	0.190658
O17	O	1.753068	0.399742	-0.309297
O18	O	2.253068	0.899742	0.190703
O19	O	1.582929	0.190008	-0.399743
O20	O	2.082929	0.690008	0.100257
O21	O	1.453723	0.309362	-0.190004
O22	O	1.953723	0.809362	0.309996
O23	O	1.283441	0.309322	-0.309303
O24	O	1.783441	0.809322	0.190697
O25	O	1.453766	0.399671	-0.518987
O26	O	1.953766	0.899671	-0.018987
O27	O	1.283405	0.399694	-0.399675
O28	O	1.783405	0.899694	0.100325
O29	O	1.582882	0.309282	-0.519016
O30	O	2.082882	0.809282	-0.019016
O31	O	1.582659	0.519039	-0.309258
O32	O	2.082659	1.019039	0.190742
O33	O	1.453640	0.519008	-0.399649
O34	O	1.953640	1.019008	0.100351
C35	C	1.245302	0.354506	-0.354488
C36	C	1.745302	0.854506	0.145512
C37	C	1.128525	0.354518	-0.354501
C38	C	1.628525	0.854518	0.145499
C39	C	1.518333	0.354469	-0.546451
C40	C	2.018333	0.854469	-0.046451
C41	C	1.518361	0.354447	-0.628250
C42	C	2.018361	0.854447	-0.128250
C43	C	1.518159	0.545726	-0.354462
C44	C	2.018159	1.045726	0.145538
C45	C	1.518207	0.627525	-0.354472
C46	C	2.018207	1.127525	0.145528
C47	C	1.073672	0.401650	-0.401480
C48	C	1.573672	0.901650	0.098520
C49	C	0.963948	0.401660	-0.401488
C50	C	1.463948	0.901660	0.098512
C51	C	0.963940	0.307403	-0.307532
C52	C	1.463940	0.807403	0.192468
C53	C	1.073662	0.307390	-0.307528
C54	C	1.573662	0.807390	0.192472
C55	C	1.128535	0.448778	-0.448452
C56	C	1.628535	0.948778	0.051548
C57	C	1.073682	0.495915	-0.495434
C58	C	1.573682	0.995915	0.004566
C59	C	0.963958	0.495924	-0.495442
C60	C	1.463958	0.995924	0.004558
C61	C	0.909087	0.448797	-0.448468
C62	C	1.409087	0.948797	0.051532
C63	C	1.792303	0.354534	-0.354508
C64	C	2.292303	0.854534	0.145492
C65	C	1.909079	0.354540	-0.354513
C66	C	2.409079	0.854540	0.145487
C67	C	1.518409	0.162567	-0.354549
C68	C	2.018409	0.662567	0.145451
C69	C	1.518469	0.080768	-0.354571
C70	C	2.018469	0.580768	0.145429
C71	C	1.585546	0.815710	-0.307492
C72	C	2.085546	1.315710	0.192508
C73	C	1.585592	0.892569	-0.307510
C74	C	2.085592	1.392569	0.192490
C75	C	1.451128	0.892577	-0.401557
C76	C	1.951128	1.392577	0.098443
C77	C	1.451087	0.815720	-0.401542
C78	C	1.951087	1.315720	0.098458
C79	C	1.518294	0.777288	-0.354505
C80	C	2.018294	1.277288	0.145495
C81	C	1.518382	0.931004	-0.354538
C82	C	2.018382	1.431004	0.145462
C83	C	1.518433	1.014338	-0.354558
C84	C	2.018433	1.514338	0.145442
C85	C	1.518245	0.693949	-0.354487
C86	C	2.018245	1.193949	0.145513
C87	C	1.585616	0.307338	-0.816460
C88	C	2.085616	0.807338	-0.316460
C89	C	1.585628	0.307316	-0.893319
C90	C	2.085628	0.807316	-0.393319
C91	C	1.451180	0.401443	-0.893277
C92	C	1.951180	0.901443	-0.393277
C93	C	1.451163	0.401461	-0.816420
C94	C	1.951163	0.901461	-0.316420
C95	C	1.518387	0.354409	-0.778013
C96	C	2.018387	0.854409	-0.278013
C97	C	1.518416	0.354370	-0.931729
C98	C	2.018416	0.854370	-0.431729
C99	C	1.518429	0.354347	-1.015063
C100	C	2.018429	0.854347	-0.515063
C101	C	1.518373	0.354431	-0.694674
C102	C	2.018373	0.854431	-0.194674
C103	C	1.518266	0.354517	-0.163292
C104	C	2.018266	0.854517	0.336708
C105	C	1.518442	0.354332	-0.081493
C106	C	2.018442	0.854332	0.418507
H107	H	1.217878	0.448777	-0.448450
H108	H	1.717878	0.948777	0.051550
H109	H	1.640371	0.268985	-0.924619
H110	H	2.140371	0.768985	-0.424619
H111	H	1.396410	0.439791	-0.785116
H112	H	1.896410	0.939791	-0.285116
H113	H	1.640271	0.784421	-0.269193
H114	H	2.140271	1.284421	0.230807
Cl115	Cl	1.366681	0.460595	-0.941565
Cl116	Cl	1.866681	0.960595	-0.441565
Cl117	Cl	1.670144	0.940868	-0.248406
Cl118	Cl	2.170144	1.440868	0.251594
Cl119	Cl	1.366640	0.940896	-0.460683
Cl120	Cl	1.866640	1.440896	0.039317
Cl121	Cl	1.366541	0.767414	-0.460654
Cl122	Cl	1.866541	1.267414	0.039346
H123	H	1.640350	0.269023	-0.785192
H124	H	2.140350	0.769023	-0.285192
H125	H	0.919300	0.534300	-0.533703
H126	H	1.419300	1.034300	-0.033703
H127	H	1.118365	0.534279	-0.533683
H128	H	1.618365	1.034279	-0.033683
H129	H	1.118325	0.269006	-0.269279
H130	H	1.618325	0.769006	0.230721
H131	H	0.919256	0.269035	-0.269287
H132	H	1.419256	0.769035	0.230713
Cl133	Cl	0.771147	0.448805	-0.448486
Cl134	Cl	1.271147	0.948805	0.051514
