data_functionalizedCrystal
_audit_creation_method	'MofGen! by Chris Wilmer'
_symmetry_space_group_name_H-M	'P1'
_symmetry_Int_Tables_number	1
_symmetry_cell_setting	triclinic
loop_
_symmetry_equiv_pos_as_xyz
  x,y,z
_cell_length_a	14.971482
_cell_length_b	19.288865
_cell_length_c	13.448316
_cell_angle_alpha	89.988163
_cell_angle_beta	89.993798
_cell_angle_gamma	83.374428
loop_
_atom_site_label
_atom_site_type_symbol
_atom_site_fract_x
_atom_site_fract_y
_atom_site_fract_z
O1	O	1.186460	0.090505	-0.082691
O2	O	1.686460	0.590505	0.417309
O3	O	0.926001	0.101347	-0.082697
O4	O	1.426001	0.601347	0.417303
O5	O	1.063757	-0.005180	-0.082674
O6	O	1.563757	0.494820	0.417326
O7	O	1.048704	0.197032	-0.082714
O8	O	1.548704	0.697032	0.417286
O9	O	1.063739	-0.005186	0.082710
O10	O	1.563739	0.494814	0.582710
O11	O	0.925984	0.101341	0.082687
O12	O	1.425984	0.601341	0.582687
O13	O	1.186443	0.090499	0.082693
O14	O	1.686443	0.590499	0.582693
Cu15	Cu	1.056212	0.095919	0.097791
Cu16	Cu	1.556212	0.595919	0.597791
Cu17	Cu	1.056232	0.095927	-0.097795
Cu18	Cu	1.556232	0.595927	0.402205
O19	O	1.048687	0.197026	0.082670
O20	O	1.548687	0.697026	0.582670
C21	C	0.892670	0.100860	-0.000006
C22	C	1.392670	0.600860	0.499994
C23	C	0.793381	0.099408	-0.000007
C24	C	1.293381	0.599408	0.499993
C25	C	0.746730	0.098721	0.090145
C26	C	1.246730	0.598721	0.590145
C27	C	0.653439	0.097346	0.090146
C28	C	1.153439	0.597346	0.590146
C29	C	0.606800	0.096663	-0.000006
C30	C	1.106800	0.596663	0.499994
C31	C	0.653457	0.097348	-0.090164
C32	C	1.153457	0.597348	0.409836
C33	C	0.746747	0.098718	-0.090165
C34	C	1.246747	0.598718	0.409835
C35	C	0.459010	0.094494	-0.090157
C36	C	0.959010	0.594494	0.409843
C37	C	0.365713	0.093125	-0.090158
C38	C	0.865713	0.593125	0.409842
C39	C	0.365703	0.093121	0.090153
C40	C	0.865703	0.593121	0.590153
C41	C	0.458993	0.094492	0.090153
C42	C	0.958993	0.594492	0.590153
C43	C	0.505643	0.095178	-0.000006
C44	C	1.005643	0.595178	0.499994
C45	C	1.063264	-0.031061	0.000021
C46	C	1.563264	0.468939	0.500021
C47	C	1.061810	-0.108169	0.000030
C48	C	1.561810	0.391831	0.500030
C49	C	1.142639	-0.152603	0.000036
C50	C	1.642639	0.347397	0.500036
C51	C	1.141273	-0.225054	0.000021
C52	C	1.641273	0.274946	0.500021
C53	C	1.059073	-0.253069	0.000018
C54	C	1.559073	0.246931	0.500018
C55	C	0.978234	-0.208626	0.000006
C56	C	1.478234	0.291374	0.500006
C57	C	0.979602	-0.136176	0.000011
C58	C	1.479602	0.363824	0.500011
C59	C	0.994449	-0.361569	0.057947
C60	C	1.494449	0.138431	0.557947
C61	C	0.993084	-0.434018	0.057947
C62	C	1.493084	0.065982	0.557947
C63	C	1.054850	-0.476528	-0.000004
C64	C	1.554850	0.023472	0.499996
C65	C	1.117996	-0.446583	-0.057943
C66	C	1.617996	0.053417	0.442057
C67	C	1.119364	-0.374133	-0.057938
C68	C	1.619364	0.125867	0.442062
C69	C	1.057581	-0.331628	0.000011
C70	C	1.557581	0.168372	0.500011
C71	C	1.134203	-0.599523	-0.000016
C72	C	1.634203	-0.099523	0.499984
C73	C	1.132834	-0.671975	-0.000038
C74	C	1.632834	-0.171975	0.499962
C75	C	0.969793	-0.655545	-0.000043
C76	C	1.469793	-0.155545	0.499957
C77	C	0.971165	-0.583094	-0.000031
C78	C	1.471165	-0.083094	0.499969
C79	C	1.053372	-0.555088	-0.000013
C80	C	1.553372	-0.055088	0.499987
C81	C	1.219774	0.090986	-0.000001
C82	C	1.719774	0.590986	0.499999
C83	C	1.319063	0.092438	-0.000006
C84	C	1.819063	0.592438	0.499994
C85	C	1.049180	0.222907	-0.000027
C86	C	1.549180	0.722907	0.499973
C87	C	1.050634	0.300015	-0.000042
C88	C	1.550634	0.800015	0.499958
N89	N	1.056204	0.095913	0.235355
N90	N	1.556204	0.595913	0.735355
N91	N	1.056247	0.095927	-0.235359
N92	N	1.556247	0.595927	0.264641
C93	C	1.117221	0.048762	0.287406
C94	C	1.617221	0.548762	0.787406
C95	C	1.117226	0.048762	0.391509
C96	C	1.617226	0.548762	0.891509
C97	C	1.056219	0.095916	0.443560
C98	C	1.556219	0.595916	0.943560
C99	C	0.995195	0.143069	0.391502
C100	C	1.495195	0.643069	0.891502
C101	C	0.995186	0.143066	0.287400
C102	C	1.495186	0.643066	0.787400
C103	C	0.995220	0.143074	0.608482
C104	C	1.495220	0.643074	1.108482
C105	C	0.995230	0.143078	0.712590
C106	C	1.495230	0.643078	1.212590
C107	C	1.117260	0.048770	0.712590
C108	C	1.617260	0.548770	1.212590
C109	C	1.117251	0.048767	0.608489
C110	C	1.617251	0.548767	1.108489
C111	C	1.056229	0.095921	0.556438
C112	C	1.556229	0.595921	1.056438
H113	H	0.784728	0.099279	-0.163576
H114	H	1.284728	0.599279	0.336424
C115	C	0.928060	0.194918	0.448750
C116	C	1.428060	0.694918	0.948750
H117	H	0.891705	0.222989	0.402838
H118	H	1.391705	0.722989	0.902838
H119	H	0.960091	0.223884	0.489357
H120	H	1.460091	0.723884	0.989357
H121	H	0.890943	0.169860	0.489362
H122	H	1.390943	0.669860	0.989362
C123	C	1.184386	-0.003100	0.769837
C124	C	1.684386	0.496900	1.269837
H125	H	1.220726	-0.031177	0.723927
H126	H	1.720726	0.468823	1.223927
H127	H	1.152340	-0.032058	0.810465
H128	H	1.652340	0.467942	1.310465
H129	H	1.221518	0.021943	0.810427
H130	H	1.721518	0.521943	1.310427
C131	C	0.928121	0.194941	0.769850
C132	C	1.428121	0.694941	1.269850
H133	H	0.936876	0.188193	0.839303
H134	H	1.436876	0.688193	1.339303
H135	H	0.868458	0.187318	0.752812
H136	H	1.368458	0.687318	1.252812
H137	H	0.937641	0.241314	0.752770
H138	H	1.437641	0.741314	1.252770
C139	C	0.798030	0.099473	0.189310
C140	C	1.298030	0.599473	0.689310
H141	H	0.860271	0.100394	0.176402
H142	H	1.360271	0.600394	0.676402
H143	H	0.789726	0.058774	0.226362
H144	H	1.289726	0.558774	0.726362
H145	H	0.775747	0.139726	0.226342
H146	H	1.275747	0.639726	0.726342
C147	C	1.224626	-0.568712	-0.000007
C148	C	1.724626	-0.068712	0.499993
H149	H	1.272571	-0.605555	-0.000020
H150	H	1.772571	-0.105555	0.499980
H151	H	1.228544	-0.540803	0.057670
H152	H	1.728544	-0.040803	0.557670
H153	H	1.228553	-0.540779	-0.057683
H154	H	1.728553	-0.040779	0.442317
C155	C	0.928071	0.194934	0.230145
C156	C	1.428071	0.694934	0.730145
H157	H	0.891744	0.223023	0.276052
H158	H	1.391744	0.723023	0.776052
H159	H	0.890939	0.169899	0.189552
H160	H	1.390939	0.669899	0.689552
H161	H	0.960129	0.223890	0.189518
H162	H	1.460129	0.723890	0.689518
H163	H	0.496964	0.095052	0.163563
H164	H	0.996964	0.595052	0.663563
H165	H	0.905345	-0.546915	-0.000031
H166	H	1.405345	-0.046915	0.499969
H167	H	0.615463	0.096774	0.163557
H168	H	1.115463	0.596774	0.663557
H169	H	0.327715	0.092563	0.163564
H170	H	0.827715	0.592563	0.663564
H171	H	1.209578	-0.129805	0.000048
H172	H	1.709578	0.370195	0.500048
C173	C	0.314408	0.092390	-0.189321
C174	C	0.814408	0.592390	0.310679
H175	H	0.355551	0.092992	-0.243017
H176	H	0.855551	0.592992	0.256983
H177	H	0.271037	0.132336	-0.193062
H178	H	0.771037	0.632336	0.306938
H179	H	0.284993	0.051384	-0.193069
H180	H	0.784993	0.551384	0.306931
C181	C	0.510323	0.095254	-0.189331
C182	C	1.010323	0.595254	0.310669
H183	H	0.469185	0.094660	-0.243022
H184	H	0.969185	0.594660	0.256978
H185	H	0.553707	0.055318	-0.193077
H186	H	1.053707	0.555318	0.306923
H187	H	0.539723	0.136269	-0.193079
H188	H	1.039723	0.636269	0.306921
H189	H	1.207095	-0.261239	0.000022
H190	H	1.707095	0.238761	0.500022
C191	C	1.188809	-0.341193	-0.121675
C192	C	1.688809	0.158807	0.378325
H193	H	1.225397	-0.376882	-0.156198
H194	H	1.725397	0.123118	0.343802
H195	H	1.225454	-0.316574	-0.079904
H196	H	1.725454	0.183426	0.420096
H197	H	1.158412	-0.309809	-0.168266
H198	H	1.658412	0.190191	0.331734
C199	C	1.185937	-0.493334	-0.121700
C200	C	1.685937	0.006666	0.378300
H201	H	1.176073	-0.540771	-0.113419
H202	H	1.676073	-0.040771	0.386581
H203	H	1.245339	-0.487431	-0.101330
H204	H	1.745339	0.012569	0.398670
H205	H	1.178298	-0.480651	-0.189692
H206	H	1.678298	0.019349	0.310308
C207	C	1.184329	-0.003109	0.230159
C208	C	1.684329	0.496891	0.730159
H209	H	1.220663	-0.031194	0.276072
H210	H	1.720663	0.468806	0.776072
H211	H	1.221456	0.021921	0.189529
H212	H	1.721456	0.521921	0.689529
H213	H	1.152263	-0.032068	0.189570
H214	H	1.652263	0.467932	0.689570
C215	C	1.221750	-0.720853	-0.000029
C216	C	1.721750	-0.220853	0.499971
H217	H	1.270902	-0.693794	-0.000007
H218	H	1.770902	-0.193794	0.499993
H219	H	1.224620	-0.749447	-0.057704
H220	H	1.724620	-0.249447	0.442296
H221	H	1.224591	-0.749466	0.057649
H222	H	1.724591	-0.249466	0.557649
H223	H	0.902865	-0.678354	-0.000050
H224	H	1.402865	-0.178354	0.499950
H225	H	0.615476	0.096787	-0.163567
H226	H	1.115476	0.596787	0.336433
H227	H	0.941663	-0.458393	0.105119
H228	H	1.441663	0.041607	0.605119
C229	C	0.926502	-0.314813	0.121697
C230	C	1.426502	0.185187	0.621697
H231	H	0.888709	-0.343023	0.156211
H232	H	1.388709	0.156977	0.656211
H233	H	0.890924	-0.282904	0.079927
H234	H	1.390924	0.217096	0.579927
H235	H	0.957960	-0.289676	0.168294
H236	H	1.457960	0.210324	0.668294
H237	H	1.166933	0.010374	0.566109
H238	H	1.666933	0.510374	1.066109
C239	C	0.887817	-0.239439	0.000006
C240	C	1.387817	0.260561	0.500006
H241	H	0.898578	-0.288952	0.000014
H242	H	1.398578	0.211048	0.500014
H243	H	0.854552	-0.224183	-0.057667
H244	H	1.354552	0.275817	0.442333
H245	H	0.854543	-0.224199	0.057686
H246	H	1.354543	0.275801	0.557686
C247	C	0.890687	-0.087297	0.000013
C248	C	1.390687	0.412703	0.500013
H249	H	0.841534	-0.114355	0.000014
H250	H	1.341534	0.385645	0.500014
H251	H	0.887838	-0.058679	-0.057654
H252	H	1.387838	0.441321	0.442346
H253	H	0.887828	-0.058707	0.057700
H254	H	1.387828	0.441293	0.557700
H255	H	1.166910	0.010368	0.433888
H256	H	1.666910	0.510368	0.933888
H257	H	0.945526	0.181469	0.566106
H258	H	1.445526	0.681469	1.066106
