data_functionalizedCrystal
_audit_creation_method	'MofGen! by Chris Wilmer'
_symmetry_space_group_name_H-M	'P1'
_symmetry_Int_Tables_number	1
_symmetry_cell_setting	triclinic
loop_
_symmetry_equiv_pos_as_xyz
  x,y,z
_cell_length_a	14.044191
_cell_length_b	14.044202
_cell_length_c	12.503572
_cell_angle_alpha	93.856143
_cell_angle_beta	93.844747
_cell_angle_gamma	86.807761
loop_
_atom_site_label
_atom_site_type_symbol
_atom_site_fract_x
_atom_site_fract_y
_atom_site_fract_z
O1	O	1.272127	-0.235249	-0.089306
O2	O	1.605460	0.098084	0.244027
O3	O	1.938794	0.431418	0.577361
O4	O	0.995454	-0.226937	-0.089318
O5	O	1.328787	0.106396	0.244015
O6	O	1.662120	0.439730	0.577348
O7	O	1.129635	-0.092755	-0.089283
O8	O	1.462968	0.240578	0.244050
O9	O	1.796301	0.573912	0.577384
O10	O	1.137946	-0.369431	-0.089341
O11	O	1.471280	-0.036098	0.243992
O12	O	1.804613	0.297236	0.577325
O13	O	1.139729	-0.082651	0.089361
O14	O	1.473063	0.250683	0.422695
O15	O	1.806396	0.584016	0.756028
O16	O	1.005549	-0.216833	0.089326
O17	O	1.338882	0.116501	0.422660
O18	O	1.672215	0.449834	0.755993
O19	O	1.282222	-0.225145	0.089339
O20	O	1.615555	0.108189	0.422672
O21	O	1.948889	0.441522	0.756005
Cu22	Cu	1.144807	-0.220066	0.105644
Cu23	Cu	1.478140	0.113267	0.438977
Cu24	Cu	1.811474	0.446601	0.772311
Cu25	Cu	1.132869	-0.232016	-0.105624
Cu26	Cu	1.466202	0.101318	0.227709
Cu27	Cu	1.799535	0.434651	0.561043
O28	O	1.148041	-0.359327	0.089303
O29	O	1.481374	-0.025993	0.422637
O30	O	1.814708	0.307340	0.755970
C31	C	0.964879	-0.218248	0.000003
C32	C	1.298212	0.115085	0.333336
C33	C	1.631546	0.448418	0.666670
C34	C	0.858735	-0.207401	-0.000000
C35	C	1.192069	0.125932	0.333333
C36	C	1.525402	0.459265	0.666666
C37	C	0.613279	-0.264502	-0.000002
C38	C	0.946612	0.068831	0.333332
C39	C	1.279945	0.402165	0.666665
C40	C	0.664402	-0.187585	0.000013
C41	C	0.997736	0.145749	0.333346
C42	C	1.331069	0.479082	0.666679
C43	C	0.772539	-0.198613	0.000005
C44	C	1.105873	0.134720	0.333339
C45	C	1.439206	0.468053	0.666672
C46	C	0.505132	-0.253475	0.000006
C47	C	0.838465	0.079859	0.333339
C48	C	1.171799	0.413192	0.666672
C49	C	1.131045	-0.052081	0.000044
C50	C	1.464379	0.281253	0.333378
C51	C	1.797712	0.614586	0.666711
C52	C	1.120198	0.054064	0.000059
C53	C	1.453531	0.387397	0.333393
C54	C	1.786865	0.720730	0.666726
C55	C	1.312797	-0.233834	0.000015
C56	C	1.646130	0.099500	0.333348
C57	C	1.979463	0.432833	0.666682
C58	C	1.418940	-0.244681	0.000011
C59	C	1.752273	0.088652	0.333345
C60	C	2.085607	0.421986	0.666678
N61	N	1.124472	-0.240413	-0.254218
N62	N	1.457805	0.092920	0.079115
N63	N	1.791139	0.426253	0.412448
C64	C	1.177295	0.299519	0.000034
C65	C	1.510629	0.632852	0.333367
C66	C	1.843962	0.966186	0.666701
C67	C	1.100379	0.248396	0.000035
C68	C	1.433713	0.581729	0.333368
C69	C	1.767046	0.915062	0.666702
C70	C	1.111409	0.140259	0.000048
C71	C	1.444742	0.473593	0.333382
C72	C	1.778076	0.806926	0.666715
C73	C	1.166267	0.407665	0.000021
C74	C	1.499600	0.740999	0.333354
C75	C	1.832934	1.074332	0.666687
C76	C	1.146629	0.599999	-0.000012
C77	C	1.479962	0.933333	0.333322
C78	C	1.813296	1.266666	0.666655
C79	C	1.157472	0.493857	0.000010
C80	C	1.490806	0.827190	0.333343
C81	C	1.824139	1.160524	0.666677
C82	C	1.112112	-0.252766	-0.473337
C83	C	1.445445	0.080567	-0.140003
C84	C	1.778779	0.413900	0.193330
C85	C	1.165568	-0.199311	-0.526650
C86	C	1.498901	0.134022	-0.193317
C87	C	1.832234	0.467355	0.140017
C88	C	1.158691	-0.206185	-0.648575
C89	C	1.492024	0.127149	-0.315242
C90	C	1.825357	0.460482	0.018092
C91	C	1.118988	-0.245894	-0.351401
C92	C	1.452321	0.087439	-0.018067
C93	C	1.785655	0.420773	0.315266
N94	N	1.153211	-0.211661	0.254239
N95	N	1.486544	0.121672	0.587572
N96	N	1.819877	0.455005	0.920905
H97	H	0.650721	-0.338630	-0.000021
H98	H	0.984055	-0.005296	0.333313
H99	H	1.317388	0.328037	0.666646
H100	H	0.626953	-0.113455	-0.000048
H101	H	0.960286	0.219878	0.333286
H102	H	1.293620	0.553211	0.666619
H103	H	1.026246	0.285841	0.000028
H104	H	1.359579	0.619174	0.333361
H105	H	1.692912	0.952507	0.666694
H106	H	1.251423	0.262077	0.000046
H107	H	1.584757	0.595410	0.333380
H108	H	1.918090	0.928743	0.666713
H109	H	1.216497	-0.148384	-0.480724
H110	H	1.549830	0.184949	-0.147390
H111	H	1.883164	0.518282	0.185943
H112	H	1.061185	-0.303689	-0.519258
H113	H	1.394518	0.029645	-0.185924
H114	H	1.727851	0.362978	0.147409
