data_functionalizedCrystal
_audit_creation_method	'MofGen! by Chris Wilmer'
_symmetry_space_group_name_H-M	'P1'
_symmetry_Int_Tables_number	1
_symmetry_cell_setting	triclinic
loop_
_symmetry_equiv_pos_as_xyz
  x,y,z
_cell_length_a	14.519731
_cell_length_b	14.519709
_cell_length_c	13.596369
_cell_angle_alpha	89.999709
_cell_angle_beta	89.993029
_cell_angle_gamma	96.315501
loop_
_atom_site_label
_atom_site_type_symbol
_atom_site_fract_x
_atom_site_fract_y
_atom_site_fract_z
O1	O	0.120892	-1.223878	-0.081666
O2	O	0.370892	-0.973878	0.168334
O3	O	0.620892	-0.723878	0.418334
O4	O	0.870892	-0.473878	0.668334
O5	O	0.135128	-0.955402	-0.081696
O6	O	0.385128	-0.705402	0.168304
O7	O	0.635128	-0.455402	0.418304
O8	O	0.885128	-0.205402	0.668304
O9	O	-0.006227	-1.096748	-0.081671
O10	O	0.243773	-0.846748	0.168329
O11	O	0.493773	-0.596748	0.418329
O12	O	0.743773	-0.346748	0.668329
O13	O	0.262247	-1.082532	-0.081690
O14	O	0.512247	-0.832532	0.168310
O15	O	0.762247	-0.582532	0.418310
O16	O	1.012247	-0.332532	0.668310
O17	O	-0.006235	-1.096734	0.081912
O18	O	0.243765	-0.846734	0.331912
O19	O	0.493765	-0.596734	0.581912
O20	O	0.743765	-0.346734	0.831912
O21	O	0.135120	-0.955388	0.081887
O22	O	0.385120	-0.705388	0.331887
O23	O	0.635120	-0.455388	0.581887
O24	O	0.885120	-0.205388	0.831887
O25	O	0.120884	-1.223864	0.081917
O26	O	0.370884	-0.973864	0.331917
O27	O	0.620884	-0.723864	0.581917
O28	O	0.870884	-0.473864	0.831917
Zn29	Zn	0.128001	-1.089623	0.107874
Zn30	Zn	0.378001	-0.839623	0.357874
Zn31	Zn	0.628001	-0.589623	0.607874
Zn32	Zn	0.878001	-0.339623	0.857874
Zn33	Zn	0.128011	-1.089642	-0.107653
Zn34	Zn	0.378011	-0.839642	0.142347
Zn35	Zn	0.628011	-0.589642	0.392347
Zn36	Zn	0.878011	-0.339642	0.642347
O37	O	0.262239	-1.082518	0.081892
O38	O	0.512239	-0.832518	0.331892
O39	O	0.762239	-0.582518	0.581892
O40	O	1.012239	-0.332518	0.831892
C41	C	0.134461	-0.921035	0.000092
C42	C	0.384461	-0.671035	0.250092
C43	C	0.634461	-0.421035	0.500092
C44	C	0.884461	-0.171035	0.750092
C45	C	0.132473	-0.818654	0.000080
C46	C	0.382473	-0.568654	0.250080
C47	C	0.632473	-0.318654	0.500080
C48	C	0.882473	-0.068654	0.750080
C49	C	-0.040591	-1.096075	0.000121
C50	C	0.209409	-0.846075	0.250121
C51	C	0.459409	-0.596075	0.500121
C52	C	0.709409	-0.346075	0.750121
C53	C	-0.142971	-1.094079	0.000121
C54	C	0.107029	-0.844079	0.250121
C55	C	0.357029	-0.594079	0.500121
C56	C	0.607029	-0.344079	0.750121
C57	C	-0.226115	-1.092457	0.000119
C58	C	0.023885	-0.842457	0.250119
C59	C	0.273885	-0.592457	0.500119
C60	C	0.523885	-0.342457	0.750119
C61	C	-0.330424	-1.090430	0.000111
C62	C	-0.080424	-0.840430	0.250111
C63	C	0.169576	-0.590430	0.500111
C64	C	0.419576	-0.340430	0.750111
C65	C	-0.413563	-1.088822	0.000104
C66	C	-0.163563	-0.838822	0.250104
C67	C	0.086437	-0.588822	0.500104
C68	C	0.336437	-0.338822	0.750104
C69	C	-0.517878	-1.086795	0.000098
C70	C	-0.267878	-0.836795	0.250098
C71	C	-0.017878	-0.586795	0.500098
C72	C	0.232122	-0.336795	0.750098
C73	C	0.121551	-1.258230	0.000128
C74	C	0.371551	-1.008230	0.250128
C75	C	0.621551	-0.758230	0.500128
C76	C	0.871551	-0.508230	0.750128
C77	C	0.123539	-1.360612	0.000132
C78	C	0.373539	-1.110612	0.250132
C79	C	0.623539	-0.860612	0.500132
C80	C	0.873539	-0.610612	0.750132
C81	C	0.296603	-1.083191	0.000099
C82	C	0.546603	-0.833191	0.250099
C83	C	0.796603	-0.583191	0.500099
C84	C	1.046603	-0.333191	0.750099
C85	C	0.398983	-1.085187	0.000092
C86	C	0.648983	-0.835187	0.250092
C87	C	0.898983	-0.585187	0.500092
C88	C	1.148983	-0.335187	0.750092
N89	N	0.127994	-1.089617	0.254966
N90	N	0.377994	-0.839617	0.504966
N91	N	0.627994	-0.589617	0.754966
N92	N	0.877994	-0.339617	1.004966
C93	C	0.125153	-0.443757	0.000126
C94	C	0.375153	-0.193757	0.250126
C95	C	0.625153	0.056243	0.500126
C96	C	0.875153	0.306243	0.750126
C97	C	0.127186	-0.548065	0.000113
C98	C	0.377186	-0.298065	0.250113
C99	C	0.627186	-0.048065	0.500113
C100	C	0.877186	0.201935	0.750113
C101	C	0.128813	-0.631202	0.000102
C102	C	0.378813	-0.381202	0.250102
C103	C	0.628813	-0.131202	0.500102
C104	C	0.878813	0.118798	0.750102
C105	C	0.130846	-0.735517	0.000091
C106	C	0.380846	-0.485517	0.250091
C107	C	0.630846	-0.235517	0.500091
C108	C	0.880846	0.014483	0.750091
N109	N	0.128011	-1.089655	-0.254745
N110	N	0.378011	-0.839655	-0.004745
N111	N	0.628011	-0.589655	0.245255
N112	N	0.878011	-0.339655	0.495255
C113	C	0.128012	-1.089641	0.656257
C114	C	0.378012	-0.839641	0.906257
C115	C	0.628012	-0.589641	1.156257
C116	C	0.878012	-0.339641	1.406257
C117	C	0.128010	-1.089632	0.544606
C118	C	0.378010	-0.839632	0.794606
C119	C	0.628010	-0.589632	1.044606
C120	C	0.878010	-0.339632	1.294606
C121	C	0.128004	-1.089630	0.455615
C122	C	0.378004	-0.839630	0.705615
C123	C	0.628004	-0.589630	0.955615
C124	C	0.878004	-0.339630	1.205615
C125	C	0.128000	-1.089619	0.343957
C126	C	0.378000	-0.839619	0.593957
C127	C	0.628000	-0.589619	0.843957
C128	C	0.878000	-0.339619	1.093957
