data_functionalizedCrystal
_audit_creation_method	'MofGen! by Chris Wilmer'
_symmetry_space_group_name_H-M	'P1'
_symmetry_Int_Tables_number	1
_symmetry_cell_setting	triclinic
loop_
_symmetry_equiv_pos_as_xyz
  x,y,z
_cell_length_a	17.699104
_cell_length_b	17.699083
_cell_length_c	16.776229
_cell_angle_alpha	89.992455
_cell_angle_beta	89.991971
_cell_angle_gamma	83.287266
loop_
_atom_site_label
_atom_site_type_symbol
_atom_site_fract_x
_atom_site_fract_y
_atom_site_fract_z
O1	O	1.004069	0.095788	-0.066306
O2	O	0.783692	0.108224	-0.066304
O3	O	0.900107	-0.008183	-0.066298
O4	O	0.887654	0.212195	-0.066312
O5	O	0.900091	-0.008190	0.066278
O6	O	0.783677	0.108217	0.066272
O7	O	1.004053	0.095781	0.066271
Zn8	Zn	0.893863	0.101998	0.087321
Zn9	Zn	0.893883	0.102007	-0.087354
O10	O	0.887639	0.212188	0.066264
C11	C	0.755488	0.107772	-0.000016
C12	C	0.671471	0.106427	-0.000015
C13	C	0.146600	0.167171	-0.000027
C14	C	0.225543	0.168430	-0.000029
C15	C	0.274161	0.100095	-0.000025
C16	C	0.243831	0.030496	-0.000026
C17	C	0.164889	0.029238	-0.000029
C18	C	0.562197	0.035569	-0.000014
C19	C	0.641144	0.036833	-0.000008
C20	C	0.622852	0.174762	-0.000014
C21	C	0.543909	0.173503	-0.000017
C22	C	0.513587	0.103905	-0.000022
C23	C	0.427987	0.102541	-0.000021
C24	C	0.359759	0.101459	-0.000020
C25	C	0.899653	-0.036383	-0.000010
C26	C	0.898314	-0.120402	-0.000009
C27	C	0.966647	-0.169017	-0.000009
C28	C	0.965385	-0.247961	-0.000016
C29	C	0.895789	-0.278287	-0.000018
C30	C	0.827451	-0.229665	-0.000021
C31	C	0.828714	-0.150723	-0.000019
C32	C	0.822356	-0.548028	-0.000027
C33	C	0.821098	-0.626976	-0.000026
C34	C	0.959026	-0.645266	-0.000024
C35	C	0.960289	-0.566324	-0.000022
C36	C	0.891952	-0.517709	-0.000029
C37	C	0.893321	-0.432110	-0.000023
C38	C	0.894419	-0.363885	-0.000018
C39	C	1.032258	0.096233	-0.000020
C40	C	1.116275	0.097578	-0.000026
C41	C	0.888093	0.240388	-0.000026
C42	C	0.889431	0.324406	-0.000031
N43	N	0.893854	0.101991	0.206532
N44	N	0.893897	0.102008	-0.206566
C45	C	0.945418	0.050467	0.248252
C46	C	0.945422	0.050466	0.331704
C47	C	0.893866	0.101994	0.373435
C48	C	0.842296	0.153520	0.331709
C49	C	0.842289	0.153516	0.248259
C50	C	0.842324	0.153535	0.668257
C51	C	0.842336	0.153536	0.751713
C52	C	0.945457	0.050485	0.751702
C53	C	0.945450	0.050481	0.668251
C54	C	0.893878	0.102004	0.626533
C55	C	0.893873	0.102004	0.536045
C56	C	0.893874	0.101999	0.463922
H57	H	0.680728	-0.018817	-0.000006
Br58	Br	1.058126	-0.313937	-0.000015
Br59	Br	0.309811	-0.062246	-0.000024
Br60	Br	0.726640	-0.668132	-0.000028
Br61	Br	0.729612	-0.482060	-0.000042
H62	H	1.016961	-0.541638	-0.000017
H63	H	0.140200	-0.027432	-0.000030
Br64	Br	0.772337	0.223458	0.611643
Br65	Br	0.772319	0.223447	0.388341
H66	H	0.647550	0.231432	-0.000013
Br67	Br	0.477932	0.266247	-0.000019
Br68	Br	1.061104	-0.127869	0.000005
Br69	Br	0.772363	0.223471	0.808348
H70	H	1.014670	-0.684858	-0.000022
H71	H	0.800300	0.195471	0.214291
H72	H	0.770785	-0.254362	-0.000027
H73	H	0.107020	0.222818	-0.000025
H74	H	0.773070	-0.111140	-0.000020
H75	H	0.250230	0.225100	-0.000038
Br76	Br	1.015425	-0.019446	0.611619
Br77	Br	1.015398	-0.019462	0.191626
Br78	Br	0.521054	-0.058885	-0.000045
Br79	Br	1.015448	-0.019443	0.808323
H80	H	0.987409	0.008511	0.365672
