data_functionalizedCrystal
_audit_creation_method	'MofGen! by Chris Wilmer'
_symmetry_space_group_name_H-M	'P1'
_symmetry_Int_Tables_number	1
_symmetry_cell_setting	triclinic
loop_
_symmetry_equiv_pos_as_xyz
  x,y,z
_cell_length_a	25.427154
_cell_length_b	25.426324
_cell_length_c	25.422586
_cell_angle_alpha	60.006367
_cell_angle_beta	60.012446
_cell_angle_gamma	59.992398
loop_
_atom_site_label
_atom_site_type_symbol
_atom_site_fract_x
_atom_site_fract_y
_atom_site_fract_z
O1	O	0.072968	-0.768436	0.642532
O2	O	0.027520	-0.598284	0.517710
O3	O	0.135268	-0.705940	0.517611
O4	O	-0.034780	-0.660780	0.642632
O5	O	0.171018	-0.670200	0.553260
O6	O	0.063270	-0.562544	0.553360
O7	O	0.108718	-0.732696	0.678182
Zn8	Zn	0.091670	-0.641945	0.621431
Zn9	Zn	0.044568	-0.689034	0.574461
O10	O	0.000970	-0.625039	0.678281
N11	N	0.123818	-0.609812	0.653490
N12	N	0.012426	-0.721173	0.542402
C13	C	0.168482	-0.466269	0.698103
C14	C	0.168494	-0.565177	0.698095
C15	C	0.193243	-0.540453	0.722807
C16	C	0.301113	-0.521853	0.665993
C17	C	0.368545	-0.544324	0.643486
C18	C	0.368579	-0.653434	0.685090
C19	C	0.301149	-0.630961	0.707599
C20	C	0.184722	-0.432539	0.631812
C21	C	0.162210	-0.365100	0.609357
C22	C	0.107225	-0.365129	0.719489
C23	C	0.129737	-0.432567	0.741943
C24	C	0.102194	-0.548896	0.714421
C25	C	0.079702	-0.571372	0.691949
C26	C	0.189805	-0.626409	0.636839
C27	C	0.212300	-0.603934	0.659303
C28	C	0.102289	-0.548918	0.830735
C29	C	0.079866	-0.571415	0.898171
C30	C	0.190015	-0.626466	0.898104
C31	C	0.212437	-0.603971	0.830666
C32	C	0.168573	-0.565195	0.796984
C33	C	0.267418	-0.565170	0.698047
C34	C	-0.130981	-0.765617	0.497386
C35	C	-0.032127	-0.765741	0.497606
C36	C	-0.056804	-0.790430	0.472789
C37	C	-0.075480	-0.898263	0.529507
C38	C	-0.053057	-0.965702	0.552014
C39	C	0.056052	-0.965829	0.510599
C40	C	0.033627	-0.898392	0.488091
C41	C	-0.164787	-0.781859	0.563659
C42	C	-0.232219	-0.759299	0.586018
C43	C	-0.232034	-0.704261	0.475827
C44	C	-0.164602	-0.726821	0.453469
C45	C	-0.048372	-0.699446	0.481299
C46	C	-0.025938	-0.677008	0.503867
C47	C	0.028987	-0.787155	0.559036
C48	C	0.006552	-0.809596	0.536475
C49	C	-0.048188	-0.699454	0.364860
C50	C	-0.025608	-0.677017	0.297425
C51	C	0.029406	-0.787170	0.297492
C52	C	0.006827	-0.809605	0.364929
C53	C	-0.031972	-0.765745	0.398611
C54	C	-0.032140	-0.864611	0.497548
N55	N	0.401319	-0.609788	0.653344
O56	O	0.621664	-0.620517	0.494685
O57	O	0.621901	-0.745740	0.664659
O58	O	0.621803	-0.745452	0.556857
O59	O	0.621762	-0.620805	0.602487
O60	O	0.514676	-0.709815	0.592658
O61	O	0.514774	-0.710104	0.700460
O62	O	0.514537	-0.584881	0.530485
Zn63	Zn	0.497647	-0.641834	0.621157
Zn64	Zn	0.638791	-0.688787	0.573988
O65	O	0.514635	-0.585169	0.638287
N66	N	0.735119	-0.720834	0.541794
N67	N	0.123794	-0.332357	0.653504
O68	O	-0.034774	-0.111885	0.642639
O69	O	0.135202	-0.111860	0.517412
O70	O	0.027364	-0.111888	0.517742
O71	O	0.073064	-0.111857	0.642310
O72	O	0.063120	-0.219026	0.553444
O73	O	0.170958	-0.218998	0.553115
O74	O	0.000983	-0.219022	0.678342
Zn75	Zn	0.091647	-0.236020	0.621397
Zn76	Zn	0.044537	-0.094862	0.574357
O77	O	0.108821	-0.218994	0.678013
N78	N	0.012383	0.001474	0.542251
N79	N	0.124036	-0.609854	0.930891
O80	O	0.113202	-0.768401	1.151342
O81	O	-0.011992	-0.598359	1.151385
O82	O	-0.011700	-0.706176	1.151343
O83	O	0.112910	-0.660584	1.151384
O84	O	0.023980	-0.670446	1.044212
O85	O	0.023689	-0.562630	1.044253
O86	O	0.148882	-0.732671	1.044211
Zn87	Zn	0.091951	-0.641977	1.027223
Zn88	Zn	0.044940	-0.689053	1.168373
O89	O	0.148590	-0.624854	1.044252
N90	N	0.012853	-0.721183	1.264704
C91	C	0.041135	-0.558973	0.518338
C92	C	0.174567	-0.692292	0.518215
C93	C	0.095103	-0.772007	0.677553
C94	C	-0.038330	-0.638687	0.677677
C95	C	0.568366	-0.745166	0.703974
C96	C	0.568246	-0.744810	0.570474
C97	C	0.568069	-0.585454	0.491172
C98	C	0.568192	-0.585812	0.624671
C99	C	0.174449	-0.165294	0.517975
C100	C	0.040949	-0.165460	0.518427
C101	C	-0.038309	-0.165456	0.677735
C102	C	0.095236	-0.165423	0.677328
C103	C	-0.011393	-0.559072	1.097824
C104	C	-0.011024	-0.692583	1.097752
C105	C	0.148283	-0.771958	1.097772
C106	C	0.147922	-0.638440	1.097820
H107	H	0.025889	-0.558152	0.925643
H108	H	0.105023	-0.165413	0.716462
H109	H	0.187590	-0.820792	1.097751
O110	O	-0.096566	-0.627143	0.724534
C111	C	-0.174133	-0.561965	0.792470
C112	C	-0.108164	-0.574979	0.739412
H113	H	-0.183537	-0.519782	0.804506
H114	H	-0.174279	-0.606685	0.837422
H115	H	-0.213445	-0.549769	0.774727
H116	H	-0.068815	-0.587159	0.757095
H117	H	-0.108073	-0.530249	0.694472
O118	O	0.015278	-0.555529	0.707893
C119	C	-0.091561	-0.498552	0.764910
C120	C	-0.018619	-0.516456	0.746912
H121	H	-0.118987	-0.466949	0.796449
H122	H	-0.104838	-0.544302	0.792400
H123	H	-0.104856	-0.471115	0.719160
H124	H	-0.005271	-0.543877	0.792629
H125	H	-0.005381	-0.470683	0.719397
H126	H	0.104814	-0.820885	0.716757
H127	H	0.066565	-0.517338	0.803314
H128	H	0.568427	-0.784476	0.752793
O129	O	0.232508	-0.164851	0.470874
C130	C	0.289536	-0.108814	0.363482
C131	C	0.223741	-0.109236	0.416763
H132	H	0.282472	-0.063847	0.319725
H133	H	0.312847	-0.153525	0.349183
H134	H	0.322009	-0.108739	0.382116
H135	H	0.191219	-0.109289	0.398175
H136	H	0.200482	-0.064528	0.431054
O137	O	0.194647	-0.626738	1.097710
C138	C	0.262327	-0.561346	1.042243
C139	C	0.209422	-0.574539	1.042280
H140	H	0.274279	-0.519135	0.997439
H141	H	0.307354	-0.606000	1.042189
H142	H	0.244479	-0.549112	1.087105
H143	H	0.227209	-0.586757	0.997425
H144	H	0.164405	-0.529875	1.042367
O145	O	0.232785	-0.703673	0.471295
C146	C	0.298870	-0.661249	0.362709
C147	C	0.232905	-0.648280	0.415784
H148	H	0.298994	-0.616468	0.317820
H149	H	0.308283	-0.703363	0.350561
H150	H	0.338189	-0.673508	0.380477
H151	H	0.193545	-0.635993	0.398060
H152	H	0.223548	-0.606183	0.427923
O153	O	0.029486	-0.500693	0.471547
C154	C	-0.035837	-0.423100	0.403745
C155	C	-0.022705	-0.489120	0.456727
H156	H	-0.078043	-0.413717	0.391757
H157	H	0.008830	-0.422862	0.358752
H158	H	-0.048047	-0.383821	0.421539
H159	H	-0.010512	-0.528436	0.438994
H160	H	-0.067383	-0.489303	0.501710
H161	H	-0.050697	-0.510236	1.097837
H162	H	0.019779	-0.863579	0.549754
O163	O	0.568293	-0.791607	0.558927
C164	C	0.568358	-0.900157	0.601058
C165	C	0.568321	-0.847222	0.614215
H166	H	0.568367	-0.945130	0.645753
H167	H	0.613174	-0.912210	0.558891
H168	H	0.523508	-0.882297	0.588798
H169	H	0.613140	-0.865038	0.626503
H170	H	0.523475	-0.835178	0.656364
H171	H	0.225736	-0.658027	0.925521
O172	O	0.568007	-0.538628	0.432893
C173	C	0.567839	-0.508656	0.326818
C174	C	0.567926	-0.561748	0.392783
H175	H	0.567759	-0.527324	0.294375
H176	H	0.612654	-0.494571	0.303611
H177	H	0.522989	-0.464744	0.333654
H178	H	0.612746	-0.605694	0.386004
H179	H	0.523081	-0.575777	0.415968
O180	O	0.568292	-0.539114	0.636246
C181	C	0.623712	-0.468767	0.605215
C182	C	0.623685	-0.521658	0.592046
H183	H	0.668485	-0.454628	0.569478
H184	H	0.623814	-0.487642	0.656369
H185	H	0.578822	-0.424839	0.599521
H186	H	0.668567	-0.565604	0.597704
H187	H	0.623548	-0.502731	0.540897
O188	O	0.029188	-0.165517	0.471823
C189	C	-0.047372	-0.165544	0.442401
C190	C	-0.034138	-0.165482	0.495236
H191	H	-0.098574	-0.165502	0.461306
H192	H	-0.011745	-0.210399	0.428339
H193	H	-0.041603	-0.120726	0.398419
H194	H	-0.039915	-0.210270	0.539252
H195	H	-0.069763	-0.120598	0.509244
O196	O	-0.096592	-0.165423	0.724555
C197	C	-0.202702	-0.165460	0.754540
C198	C	-0.136729	-0.165489	0.701459
H199	H	-0.235166	-0.165527	0.735891
H200	H	-0.225867	-0.120605	0.768571
H201	H	-0.195892	-0.210278	0.798479
H202	H	-0.143482	-0.120701	0.657485
H203	H	-0.113586	-0.210374	0.687483
H204	H	0.066522	-0.517340	0.746005
O205	O	0.276850	-0.619822	0.797982
C206	C	0.383735	-0.676832	0.805036
C207	C	0.310807	-0.658917	0.842129
H208	H	0.411211	-0.708454	0.840713
H209	H	0.397021	-0.631089	0.773483
H210	H	0.396962	-0.704255	0.773444
H211	H	0.297528	-0.631510	0.873756
H212	H	0.297560	-0.704684	0.873641
O213	O	0.232393	-0.663959	0.599067
C214	C	0.319617	-0.672543	0.499803
C215	C	0.271404	-0.629949	0.542515
H216	H	0.351178	-0.645069	0.454079
H217	H	0.292201	-0.685805	0.486480
H218	H	0.351194	-0.718312	0.527258
H219	H	0.239814	-0.584153	0.515100
H220	H	0.298859	-0.616739	0.555841
O221	O	0.268516	-0.673125	0.738697
C222	C	0.275669	-0.783724	0.777616
C223	C	0.312706	-0.736043	0.742373
H224	H	0.311381	-0.834605	0.780612
H225	H	0.244087	-0.770235	0.750065
H226	H	0.244114	-0.781633	0.828309
H227	H	0.344296	-0.738109	0.691680
H228	H	0.344247	-0.749548	0.769973
O229	O	0.401178	-0.502156	0.612336
C230	C	0.394030	-0.391567	0.573474
C231	C	0.356991	-0.439251	0.608750
H232	H	0.358320	-0.340700	0.570576
H233	H	0.425552	-0.393575	0.522749
H234	H	0.425645	-0.405138	0.601025
H235	H	0.325340	-0.425713	0.581253
H236	H	0.325509	-0.437235	0.659478
H237	H	-0.050155	-0.702322	1.097697
H238	H	0.266286	-0.617183	0.646003
H239	H	0.273654	-0.468282	0.658214
O240	O	0.222325	-0.465179	0.589141
C241	C	0.274504	-0.458032	0.477533
C242	C	0.231903	-0.420988	0.525789
H243	H	0.282273	-0.422320	0.426303
H244	H	0.249807	-0.489591	0.485269
H245	H	0.323014	-0.489617	0.485308
H246	H	0.183386	-0.389368	0.518043
H247	H	0.256650	-0.389470	0.518041
H248	H	0.175430	-0.337636	0.555374
O249	O	0.069577	-0.332485	0.762160
C250	C	0.017466	-0.339628	0.873767
C251	C	0.060095	-0.376674	0.825513
H252	H	0.009798	-0.375338	0.924998
H253	H	-0.031088	-0.308082	0.866082
H254	H	0.042171	-0.308029	0.865938
H255	H	0.035447	-0.408307	0.833312
H256	H	0.108647	-0.408179	0.833210
O257	O	-0.041456	-0.612595	0.264745
C258	C	-0.098388	-0.505710	0.271803
C259	C	-0.080502	-0.578647	0.308894
H260	H	-0.129947	-0.478241	0.307481
H261	H	-0.125816	-0.492375	0.240168
H262	H	-0.052595	-0.492516	0.240292
H263	H	-0.126261	-0.591892	0.340440
H264	H	-0.053048	-0.591942	0.340487
H265	H	0.396045	-0.707006	0.692856
H266	H	0.116505	-0.460032	0.795926
H267	H	0.060986	-0.822887	0.270075
O268	O	-0.085971	-0.656865	0.397602
C269	C	-0.188669	-0.618224	0.473618
C270	C	-0.145958	-0.666479	0.436571
H271	H	-0.237172	-0.625989	0.505144
H272	H	-0.196433	-0.566978	0.437933
H273	H	-0.163997	-0.626012	0.505237
H274	H	-0.170594	-0.658751	0.404951
H275	H	-0.138193	-0.717709	0.472291
H276	H	0.020039	-0.863588	0.392405
H277	H	-0.039168	-0.623025	0.490592
O278	O	0.066532	-0.829845	0.596804
C279	C	0.118676	-0.941470	0.649106
C280	C	0.076139	-0.893192	0.606338
H281	H	0.126468	-0.992696	0.656817
H282	H	0.093914	-0.933722	0.697634
H283	H	0.167180	-0.933724	0.624488
H284	H	0.027629	-0.900908	0.630899
H285	H	0.100952	-0.900952	0.557813
H286	H	-0.079862	-0.663733	0.449648
H287	H	0.109606	-0.993335	0.502902
O288	O	0.075803	-0.865772	0.456980
C289	C	0.169344	-0.845228	0.366200
C290	C	0.121635	-0.882221	0.401378
H291	H	0.206403	-0.858504	0.321232
H292	H	0.194912	-0.858523	0.399536
H293	H	0.142003	-0.791229	0.351769
H294	H	0.148927	-0.936229	0.415813
H295	H	0.096067	-0.868873	0.368021
O296	O	-0.095243	-0.998291	0.583030
C297	C	-0.174561	-1.018812	0.576978
C298	C	-0.126796	-0.981873	0.541748
H299	H	-0.200075	-1.005562	0.543612
H300	H	-0.211661	-1.005443	0.621889
H301	H	-0.147270	-1.072820	0.591503
H302	H	-0.154032	-0.927857	0.527179
H303	H	-0.089698	-0.995295	0.496865
O304	O	-0.132226	-0.819514	0.606405
C305	C	-0.139527	-0.871749	0.718061
C306	C	-0.176481	-0.829086	0.669720
H307	H	-0.175291	-0.879512	0.769261
H308	H	-0.107970	-0.847099	0.710413
H309	H	-0.107953	-0.920261	0.710291
H310	H	-0.208090	-0.780566	0.677461
H311	H	-0.207997	-0.853787	0.677380
O312	O	-0.265136	-0.775101	0.650383
C313	C	-0.341358	-0.826909	0.739550
C314	C	-0.304131	-0.809040	0.666649
H315	H	-0.372885	-0.854363	0.752726
H316	H	-0.372972	-0.781146	0.752818
H317	H	-0.305736	-0.858487	0.767088
H318	H	-0.339707	-0.777479	0.639062
H319	H	-0.272508	-0.854830	0.653431
O320	O	-0.264598	-0.666566	0.433081
C321	C	-0.257302	-0.614408	0.321426
C322	C	-0.220345	-0.657091	0.369765
H323	H	-0.221539	-0.606746	0.270225
H324	H	-0.288839	-0.565850	0.329104
H325	H	-0.288895	-0.639070	0.329170
H326	H	-0.188717	-0.632486	0.362051
H327	H	-0.188849	-0.705647	0.362076
H328	H	-0.129033	-0.870764	0.537213
H329	H	-0.137077	-0.713589	0.399501
