data_functionalizedCrystal
_audit_creation_method	'MofGen! by Chris Wilmer'
_symmetry_space_group_name_H-M	'P1'
_symmetry_Int_Tables_number	1
_symmetry_cell_setting	triclinic
loop_
_symmetry_equiv_pos_as_xyz
  x,y,z
_cell_length_a	38.077489
_cell_length_b	38.067077
_cell_length_c	38.077507
_cell_angle_alpha	90.000455
_cell_angle_beta	59.999079
_cell_angle_gamma	119.999774
loop_
_atom_site_label
_atom_site_type_symbol
_atom_site_fract_x
_atom_site_fract_y
_atom_site_fract_z
O1	O	-0.309769	-0.299421	0.550691
O2	O	-0.237856	-0.248335	0.427707
O3	O	-0.309767	-0.248334	0.499619
O4	O	-0.237857	-0.299422	0.478779
O5	O	-0.251356	-0.189908	0.499619
O6	O	-0.179445	-0.189909	0.427707
O7	O	-0.251358	-0.240995	0.550691
Cu8	Cu	-0.210068	-0.210117	0.489199
Cu9	Cu	-0.279146	-0.279213	0.489199
O10	O	-0.179446	-0.240996	0.478779
C11	C	-0.431903	-0.025616	0.520830
C12	C	-0.474466	-0.046952	0.521127
C13	C	-0.431903	-0.089229	0.520830
C14	C	-0.474466	-0.110468	0.521127
C15	C	-0.495499	-0.089229	0.520830
C16	C	-0.410967	-0.046952	0.521127
C17	C	-0.317377	0.127785	0.509316
C18	C	-0.293964	0.171227	0.506061
C19	C	-0.314061	0.193020	0.504427
C20	C	-0.288671	0.240125	0.500889
C21	C	-0.357574	0.171367	0.506052
C22	C	-0.380988	0.127927	0.509312
C23	C	-0.360887	0.106136	0.510945
C24	C	-0.637345	-0.128073	0.509316
C25	C	-0.677520	-0.148095	0.506061
C26	C	-0.697672	-0.189988	0.504425
C27	C	-0.741226	-0.211698	0.500889
C28	C	-0.677650	-0.211860	0.506050
C29	C	-0.637482	-0.191842	0.509313
C30	C	-0.617330	-0.149944	0.510943
C31	C	-0.317377	-0.128074	0.509316
C32	C	-0.293960	-0.148095	0.506055
C33	C	-0.314057	-0.189989	0.504421
C34	C	-0.288668	-0.211698	0.500883
C35	C	-0.357567	-0.211860	0.506044
C36	C	-0.380980	-0.191837	0.509303
C37	C	-0.360884	-0.149945	0.510943
C38	C	-0.386276	0.059033	0.514477
C39	C	-0.406514	0.021487	0.517294
C40	C	-0.406514	-0.110936	0.517294
C41	C	-0.386276	-0.128239	0.514477
C42	C	-0.539053	-0.110936	0.517294
C43	C	-0.573772	-0.128239	0.514477
O44	O	-0.857627	-0.299420	0.478779
O45	O	-0.755484	-0.248332	0.499619
O46	O	-0.755483	-0.248333	0.427707
O47	O	-0.857628	-0.299419	0.550691
O48	O	-0.755484	-0.189907	0.427707
O49	O	-0.755485	-0.189906	0.499619
O50	O	-0.857628	-0.240994	0.478779
Cu51	Cu	-0.806557	-0.210115	0.489199
Cu52	Cu	-0.806555	-0.279211	0.489199
O53	O	-0.857629	-0.240993	0.550691
C54	C	0.005990	-0.025604	0.082923
C55	C	-0.015040	-0.046940	0.125187
C56	C	-0.057600	-0.089220	0.082921
C57	C	-0.078533	-0.110460	0.125185
C58	C	-0.057599	-0.089220	0.146515
C59	C	-0.015041	-0.046940	0.061689
C60	C	0.147818	0.127804	-0.020082
C61	C	0.187988	0.171248	-0.040238
C62	C	0.208139	0.193041	-0.018506
C63	C	0.251688	0.240148	-0.040355
C64	C	0.188120	0.171387	0.023381
C65	C	0.147957	0.127945	0.043532
C66	C	0.127807	0.106154	0.021798
C67	C	-0.107941	-0.128069	0.299874
C68	C	-0.131211	-0.148093	0.343303
C69	C	-0.174724	-0.189988	0.365090
C70	C	-0.199962	-0.211701	0.412179
C71	C	-0.194964	-0.211861	0.343442
C72	C	-0.171690	-0.191841	0.300012
C73	C	-0.128177	-0.149940	0.278231
C74	C	-0.107948	-0.128068	-0.020091
C75	C	-0.131223	-0.148090	-0.040248
C76	C	-0.174736	-0.189987	-0.018518
C77	C	-0.199975	-0.211697	-0.040370
C78	C	-0.194974	-0.211858	0.023367
C79	C	-0.171699	-0.191834	0.043522
C80	C	-0.128182	-0.149939	0.021787
C81	C	0.084254	0.059049	0.043653
C82	C	0.049539	0.021501	0.061072
C83	C	-0.082836	-0.110928	0.061067
C84	C	-0.102950	-0.128232	0.043646
C85	C	-0.082833	-0.110929	0.193605
C86	C	-0.102946	-0.128233	0.231140
C87	C	-0.039340	-0.361089	0.463921
C88	C	-0.060372	-0.403366	0.463624
C89	C	-0.102936	-0.361089	0.463921
C90	C	-0.123871	-0.403366	0.463624
C91	C	-0.102935	-0.424702	0.463921
C92	C	-0.060373	-0.339850	0.463624
C93	C	0.024233	-0.297333	0.469082
C94	C	0.064407	-0.277171	0.472339
C95	C	0.084556	-0.298908	0.473973
C96	C	0.128114	-0.277050	0.477507
C97	C	0.064538	-0.340806	0.472346
C98	C	0.024367	-0.360966	0.469087
C99	C	0.004214	-0.339229	0.467457
C100	C	-0.107930	-0.493454	0.469082
C101	C	-0.131205	-0.536898	0.472339
C102	C	-0.174719	-0.558687	0.473973
C103	C	-0.199959	-0.605792	0.477507
C104	C	-0.194961	-0.537036	0.472346
C105	C	-0.171685	-0.493594	0.469087
C106	C	-0.128172	-0.471805	0.467457
C107	C	-0.107932	-0.297333	0.469082
C108	C	-0.131212	-0.277174	0.472345
C109	C	-0.174725	-0.298911	0.473979
C110	C	-0.199966	-0.277054	0.477513
C111	C	-0.194966	-0.340807	0.472354
C112	C	-0.171690	-0.360969	0.469093
C113	C	-0.128173	-0.339230	0.467457
O114	O	-0.237853	0.378675	0.478779
O115	O	-0.309767	0.255658	0.499619
O116	O	-0.237853	0.327589	0.427707
O117	O	-0.309766	0.306744	0.550691
O118	O	-0.179444	0.327587	0.427707
O119	O	-0.251357	0.255657	0.499619
O120	O	-0.179443	0.378673	0.478779
Cu121	Cu	-0.210067	0.317165	0.489199
Cu122	Cu	-0.279143	0.317167	0.489199
O123	O	-0.251357	0.306742	0.550691
O124	O	-0.251369	-0.240997	-0.127486
O125	O	-0.179458	-0.189905	-0.076416
O126	O	-0.251379	-0.189917	-0.076408
O127	O	-0.179448	-0.240986	-0.127493
O128	O	-0.309783	-0.248347	-0.018000
O129	O	-0.237862	-0.248335	-0.018007
O130	O	-0.309773	-0.299427	-0.069078
Cu131	Cu	-0.279150	-0.279216	-0.038210
Cu132	Cu	-0.210081	-0.210116	-0.107284
O133	O	-0.237852	-0.299415	-0.069085
O134	O	0.368074	0.378701	-0.069053
O135	O	0.265945	0.255681	-0.017989
O136	O	0.265929	0.327604	-0.017979
O137	O	0.368089	0.306778	-0.069063
O138	O	0.265929	0.327605	-0.076389
O139	O	0.265944	0.255682	-0.076399
O140	O	0.368073	0.378701	-0.127463
Cu141	Cu	0.317008	0.317192	-0.107265
Cu142	Cu	0.317010	0.317191	-0.038188
O143	O	0.368089	0.306778	-0.127473
C144	C	-0.449880	-0.424703	0.810860
C145	C	-0.428847	-0.403368	0.832093
C146	C	-0.386282	-0.361090	0.747264
C147	C	-0.365347	-0.339852	0.768594
C148	C	-0.386284	-0.361091	0.810860
C149	C	-0.428846	-0.403367	0.768594
C150	C	-0.513453	-0.493455	0.810694
C151	C	-0.553629	-0.536898	0.830713
C152	C	-0.573778	-0.558687	0.872593
C153	C	-0.617337	-0.605792	0.894300
C154	C	-0.553760	-0.537036	0.894461
C155	C	-0.513588	-0.493595	0.874445
C156	C	-0.493435	-0.471806	0.832561
C157	C	-0.381290	-0.361257	0.874599
C158	C	-0.358014	-0.341233	0.894756
C159	C	-0.314500	-0.299343	0.873025
C160	C	-0.289260	-0.277631	0.894877
C161	C	-0.294258	-0.277468	0.831137
C162	C	-0.317533	-0.297490	0.810983
C163	C	-0.361047	-0.339384	0.832714
C164	C	-0.381286	-0.361255	0.678529
C165	C	-0.358005	-0.341232	0.635095
C166	C	-0.314491	-0.299341	0.613312
C167	C	-0.289249	-0.277629	0.566220
C168	C	-0.294250	-0.277470	0.634956
C169	C	-0.317526	-0.297490	0.678388
C170	C	-0.361044	-0.339383	0.700173
C171	C	-1.102943	-0.361093	0.810861
C172	C	-1.123878	-0.403370	0.832093
C173	C	-1.039345	-0.361091	0.747264
C174	C	-1.060376	-0.403368	0.768593
C175	C	-1.102940	-0.424704	0.810859
C176	C	-1.060379	-0.339853	0.768595
C177	C	-1.107942	-0.297339	0.810697
C178	C	-1.131219	-0.277178	0.830717
C179	C	-1.174734	-0.298916	0.872597
C180	C	-1.199976	-0.277060	0.894304
C181	C	-1.194974	-0.340814	0.894464
C182	C	-1.171696	-0.360972	0.874447
C183	C	-1.128182	-0.339235	0.832563
C184	C	-1.171838	-0.493458	0.874598
C185	C	-1.195250	-0.536901	0.894753
C186	C	-1.175152	-0.558689	0.873021
C187	C	-1.200536	-0.605793	0.894872
C188	C	-1.131638	-0.537036	0.831134
C189	C	-1.108226	-0.493595	0.810980
C190	C	-1.128328	-0.471807	0.832712
C191	C	-0.975772	-0.297334	0.678530
C192	C	-0.935600	-0.277174	0.635096
C193	C	-0.915450	-0.298909	0.613312
C194	C	-0.871891	-0.277051	0.566220
C195	C	-0.935467	-0.340806	0.634955
C196	C	-0.975639	-0.360968	0.678388
C197	C	-0.995790	-0.339231	0.700173
C198	C	-0.386266	0.291898	0.810855
C199	C	-0.428819	0.291616	0.832084
C200	C	-0.386264	0.291903	0.747258
C201	C	-0.428817	0.291622	0.768584
C202	C	-0.449845	0.291924	0.810849
C203	C	-0.365334	0.291595	0.768590
C204	C	-0.317382	0.297033	0.810695
C205	C	-0.293973	0.300280	0.830716
C206	C	-0.314066	0.301920	0.872594
C207	C	-0.288686	0.305443	0.894303
C208	C	-0.357570	0.300308	0.894459
C209	C	-0.380978	0.297059	0.874440
C210	C	-0.360882	0.295423	0.832558
C211	C	-0.513402	0.297107	0.874581
C212	C	-0.553566	0.300381	0.894734
C213	C	-0.573708	0.302026	0.873000
C214	C	-0.617255	0.305578	0.894847
C215	C	-0.553694	0.300394	0.831115
C216	C	-0.513534	0.297119	0.810964
C217	C	-0.493388	0.295477	0.832698
C218	C	-0.317377	0.297044	0.678529
C219	C	-0.293963	0.300303	0.635096
C220	C	-0.314053	0.301948	0.613310
C221	C	-0.288670	0.305478	0.566219
C222	C	-0.357553	0.300339	0.634950
C223	C	-0.380968	0.297082	0.678381
C224	C	-0.360878	0.295435	0.700169
C225	C	-0.431896	-0.025620	0.082911
C226	C	-0.410960	-0.046956	0.061678
C227	C	-0.495492	-0.089232	0.146507
C228	C	-0.474459	-0.110471	0.125178
C229	C	-0.431896	-0.089233	0.082912
C230	C	-0.474460	-0.046955	0.125177
C231	C	-0.381549	0.127781	0.044074
C232	C	-0.358277	0.171223	0.024056
C233	C	-0.314759	0.193015	-0.017827
C234	C	-0.289518	0.240120	-0.039531
C235	C	-0.294517	0.171362	-0.039693
C236	C	-0.317793	0.127922	-0.019678
C237	C	-0.361311	0.106132	0.022208
C238	C	-0.317367	-0.128078	-0.020100
C239	C	-0.293953	-0.148100	-0.040257
C240	C	-0.314046	-0.189993	-0.018528
C241	C	-0.288660	-0.211703	-0.040377
C242	C	-0.357560	-0.211865	0.023362
C243	C	-0.380978	-0.191846	0.043515
C244	C	-0.360874	-0.149948	0.021780
C245	C	-0.637342	-0.128075	0.299868
C246	C	-0.677513	-0.148095	0.343300
C247	C	-0.697666	-0.189989	0.365088
C248	C	-0.741221	-0.211698	0.412180
C249	C	-0.677643	-0.211860	0.343443
C250	C	-0.637471	-0.191838	0.300012
C251	C	-0.617326	-0.149946	0.278227
C252	C	-0.386544	0.059029	0.043910
C253	C	-0.406659	0.021483	0.061209
C254	C	-0.539048	-0.110939	0.193598
C255	C	-0.573767	-0.128241	0.231134
C256	C	-0.406506	-0.110940	0.061059
C257	C	-0.386267	-0.128243	0.043638
O258	O	-1.251348	-0.744342	0.923575
O259	O	-1.179442	-0.621326	0.872507
O260	O	-1.251350	-0.693258	0.872505
O261	O	-1.179439	-0.672411	0.923577
O262	O	-1.309764	-0.693261	0.930918
O263	O	-1.237856	-0.621330	0.930920
O264	O	-1.309761	-0.744346	0.981987
Cu265	Cu	-1.279142	-0.682838	0.961787
Cu266	Cu	-1.210061	-0.682834	0.892707
O267	O	-1.237853	-0.672414	0.981989
C268	C	0.006024	0.348803	0.082912
C269	C	-0.015007	0.349101	0.061678
C270	C	-0.057573	0.348804	0.146507
C271	C	-0.078507	0.349103	0.125176
C272	C	-0.057570	0.348805	0.082910
C273	C	-0.015010	0.349100	0.125178
C274	C	0.147867	0.337282	0.044081
C275	C	0.188042	0.334025	0.024065
C276	C	0.208195	0.332390	-0.017818
C277	C	0.251750	0.328850	-0.039520
C278	C	0.188175	0.334016	-0.039686
C279	C	0.148008	0.337279	-0.019672
C280	C	0.127854	0.338912	0.022214
C281	C	-0.107911	0.337292	-0.020106
C282	C	-0.131182	0.334036	-0.040265
C283	C	-0.174699	0.332401	-0.018537
C284	C	-0.199938	0.328865	-0.040388
C285	C	-0.194942	0.334027	0.023352
C286	C	-0.171667	0.337289	0.043507
C287	C	-0.128150	0.338919	0.021774
C288	C	-0.107926	0.337287	0.299869
C289	C	-0.131203	0.334025	0.343302
C290	C	-0.174721	0.332392	0.365088
C291	C	-0.199963	0.328853	0.412180
C292	C	-0.194960	0.334016	0.343441
C293	C	-0.171683	0.337276	0.300011
C294	C	-0.128162	0.338915	0.278227
C295	C	0.084296	0.342446	0.043914
C296	C	0.049578	0.345265	0.061212
C297	C	-0.082811	0.345268	0.193598
C298	C	-0.102928	0.342450	0.231134
C299	C	-0.082805	0.345270	0.061055
C300	C	-0.102919	0.342453	0.043634
H301	H	-0.376709	-0.029817	0.521592
H302	H	-0.569923	-0.554522	0.812904
C303	C	-0.498245	-0.157395	0.521771
N304	N	-0.516155	-0.192739	0.522256
C305	C	0.210287	0.195361	0.047283
N306	N	0.226983	0.213419	0.065287
H307	H	-0.112758	0.349579	0.142303
H308	H	-0.301018	0.295701	0.696267
H309	H	-0.258813	-0.243358	0.617216
H310	H	-0.570101	0.301733	0.813421
C311	C	-0.108937	-0.560710	0.474129
N312	N	-0.092167	-0.578647	0.475478
C313	C	-0.193935	0.339077	0.089582
N314	N	-0.210709	0.340422	0.124287
C315	C	-0.246112	0.302075	0.611295
N316	N	-0.210067	0.303412	0.593365
C317	C	-0.491575	-0.469777	0.898502
N318	N	-0.474995	-0.451837	0.916623
C319	C	-0.498241	-0.157399	0.148313
N320	N	-0.516153	-0.192744	0.165737
H321	H	-1.115275	-0.554783	0.813442
C322	C	-0.491248	0.295297	0.898493
N323	N	-0.474559	0.293935	0.916503
H324	H	-0.258554	0.301592	0.812911
H325	H	-0.072515	-0.093954	-0.037791
C326	C	-0.295524	0.104108	-0.043730
N327	N	-0.278750	0.086171	-0.061846
C328	C	-0.997937	-0.273421	0.702493
N329	N	-1.014634	-0.255410	0.720540
H330	H	-0.114741	-0.130278	-0.074352
H331	H	-0.072497	-0.475714	0.467751
H332	H	-0.620942	-0.093960	0.510647
H333	H	-0.072497	-0.279629	0.467748
H334	H	0.131416	0.110066	-0.037783
H335	H	-0.693812	-0.130284	0.360922
H336	H	-0.301009	-0.093962	0.510648
H337	H	-0.301017	0.295699	0.776593
C338	C	0.002348	-0.407052	0.467297
N339	N	-0.014237	-0.441764	0.465949
H340	H	0.204590	0.332689	-0.073788
H341	H	-0.416416	0.110300	0.510637
H342	H	-0.301008	0.110047	0.510647
H343	H	-0.620940	-0.093963	0.282133
H344	H	-0.416401	0.295744	0.892244
C345	C	-0.491519	0.295322	0.764892
N346	N	-0.474937	0.293970	0.730190
C347	C	0.008774	0.349746	0.014763
N348	N	0.026684	0.350231	-0.020572
H349	H	-0.301042	-0.279680	0.696010
H350	H	-0.373928	0.301643	0.928561
H351	H	-0.446391	0.291186	0.751444
C352	C	-0.380287	-0.365296	0.940832
N353	N	-0.397062	-0.383418	0.975537
H354	H	-0.376710	-0.029825	0.026950
C355	C	-0.498247	-0.023811	0.521774
N356	N	-0.516158	-0.006382	0.522260
C357	C	-0.060058	0.339082	0.275910
N358	N	-0.024005	0.340432	0.257864
H359	H	-0.300997	-0.093965	-0.037801
C360	C	-0.429421	0.103815	0.090146
N361	N	-0.465478	0.085762	0.124847
C362	C	-0.380540	0.195039	0.048113
N363	N	-0.397308	0.212978	0.066234
H364	H	-0.188174	-0.395083	0.467771
H365	H	0.080951	-0.358502	0.473676
C366	C	-0.575576	0.302178	0.940805
N367	N	-0.592156	0.303532	0.975507
C368	C	-0.242830	0.332220	0.367405
N369	N	-0.278884	0.330868	0.385454
H370	H	-0.230394	-0.554783	0.473676
H371	H	-0.492062	-0.029824	0.142299
H372	H	-1.042780	-0.305117	0.751472
C373	C	-0.246100	-0.124035	0.504270
N374	N	-0.210053	-0.105913	0.502929
H375	H	-0.258535	0.188854	0.504736
H376	H	0.204284	0.188876	-0.074341
C377	C	-1.060362	-0.469778	0.764906
N378	N	-1.024311	-0.451839	0.730201
H379	H	-0.258820	-0.243357	0.813444
C380	C	-0.379654	0.302149	0.610984
N381	N	-0.396300	0.303510	0.592931
H382	H	-0.373935	0.189113	0.504723
H383	H	-1.230409	-0.358511	0.928568
C384	C	-1.170148	-0.426511	0.879008
N385	N	-1.204998	-0.443942	0.914343
C386	C	-0.295268	-0.273430	0.764909
N387	N	-0.278496	-0.255307	0.730204
H388	H	-0.258523	-0.130289	-0.074362
C389	C	-0.108941	-0.231086	0.474127
N390	N	-0.092166	-0.196372	0.475470
C391	C	-0.193955	-0.469780	0.467306
N392	N	-0.210732	-0.451845	0.465969
H393	H	-0.188170	-0.209653	0.282389
H394	H	-0.693817	-0.130283	0.504736
H395	H	-0.373928	-0.245972	0.504709
H396	H	-0.230402	-0.358508	0.473687
C397	C	-0.452625	-0.426508	0.745458
N398	N	-0.470534	-0.443937	0.728033
H399	H	-0.416389	0.295770	0.696000
C400	C	0.002071	-0.273417	0.467282
N401	N	-0.014622	-0.255404	0.465928
H402	H	-0.259086	0.189108	-0.073795
H403	H	-0.331095	-0.305116	0.751467
H404	H	0.002597	0.349584	0.142300
H405	H	0.080703	-0.243058	0.473662
H406	H	-0.446452	-0.420499	0.866821
H407	H	-0.373921	-0.245975	0.041055
C408	C	-0.699819	-0.257945	0.504255
N409	N	-0.716517	-0.292655	0.502901
H410	H	-0.230372	0.332700	0.041042
C411	C	-0.380277	-0.365292	0.611292
N412	N	-0.397052	-0.383414	0.593361
C413	C	-0.615443	-0.215893	0.511074
N414	N	-0.598834	-0.234004	0.512389
C415	C	-0.124793	-0.157391	0.148315
N416	N	-0.159634	-0.192740	0.165736
C417	C	-0.428846	-0.215900	0.511097
N418	N	-0.464900	-0.234026	0.512450
C419	C	-0.575934	-0.561009	0.940536
N420	N	-0.592635	-0.579062	0.975240
C421	C	-0.319079	0.290928	0.745461
N422	N	-0.284243	0.290423	0.728042
H423	H	-1.042768	-0.420493	0.751467
C424	C	-0.913576	-0.231084	0.611295
N425	N	-0.896985	-0.196367	0.593367
C426	C	-0.428839	-0.215904	0.089591
N427	N	-0.464886	-0.234025	0.124298
H428	H	-0.621172	-0.209649	0.282391
C429	C	0.008739	-0.023798	0.148322
N430	N	0.026648	-0.006368	0.165747
H431	H	0.131662	0.110317	0.077634
C432	C	0.125989	0.339068	-0.043726
N433	N	0.109402	0.340413	-0.061844
C434	C	-0.699812	-0.257946	0.367409
N435	N	-0.716510	-0.292658	0.385459
H436	H	-1.072508	-0.279635	0.776595
H437	H	-0.416722	-0.395365	0.696265
H438	H	-0.072511	-0.093954	0.282142
C439	C	-0.108936	0.332239	0.367110
N440	N	-0.092162	0.330896	0.385041
C441	C	0.125707	0.339084	0.090153
N442	N	0.109015	0.340443	0.124853
H443	H	0.002563	-0.029809	0.026962
C444	C	-0.108917	0.332243	-0.086338
N445	N	-0.092147	0.330891	-0.121041
H446	H	-0.188180	-0.209647	0.077625
C447	C	-0.108949	-0.124029	0.367113
N448	N	-0.092182	-0.105903	0.385046
H449	H	-1.114734	-0.243064	0.812911
H450	H	-1.188175	-0.395085	0.892253
C451	C	-1.243115	-0.560714	0.940827
N452	N	-1.279167	-0.578653	0.975530
C453	C	-0.913299	-0.364717	0.610990
N454	N	-0.896599	-0.382724	0.592939
H455	H	0.204338	0.332699	0.041873
H456	H	-0.230390	-0.245976	0.361180
C457	C	-0.242839	-0.257948	0.047270
N458	N	-0.278889	-0.292662	0.065273
C459	C	-0.060039	0.339092	-0.044017
N460	N	-0.023982	0.340449	-0.062025
H461	H	-0.158121	-0.420494	0.463147
C462	C	-0.193946	0.339068	0.276201
N463	N	-0.210715	0.340419	0.258268
H464	H	-0.042762	-0.420491	0.463138
H465	H	-0.042768	-0.305113	0.463144
H466	H	-0.497048	-0.475715	0.776592
H467	H	-0.416723	-0.395369	0.892298
H468	H	-1.188208	-0.475719	0.892296
H469	H	-0.991932	-0.395080	0.696010
H470	H	-0.446421	0.291137	0.866812
