data_functionalizedCrystal
_audit_creation_method	'MofGen! by Chris Wilmer'
_symmetry_space_group_name_H-M	'P1'
_symmetry_Int_Tables_number	1
_symmetry_cell_setting	triclinic
loop_
_symmetry_equiv_pos_as_xyz
  x,y,z
_cell_length_a	14.908558
_cell_length_b	11.169416
_cell_length_c	14.908308
_cell_angle_alpha	86.725012
_cell_angle_beta	90.175599
_cell_angle_gamma	93.291225
loop_
_atom_site_label
_atom_site_type_symbol
_atom_site_fract_x
_atom_site_fract_y
_atom_site_fract_z
Zn1	Zn	1.345355	0.626364	-0.587635
Zn2	Zn	1.353952	0.816202	-0.437294
Zn3	Zn	1.203668	0.603308	-0.428631
Zn4	Zn	1.194979	0.814772	-0.578947
O5	O	1.274488	0.715162	-0.508127
O6	O	1.472322	0.661794	-0.574953
O7	O	1.341251	0.778910	-0.310320
O8	O	1.222501	0.438421	-0.449734
O9	O	1.478639	0.801266	-0.464499
O10	O	1.326597	0.455360	-0.566553
O11	O	1.230837	0.622499	-0.303955
O12	O	1.076688	0.621113	-0.441310
O13	O	1.207693	0.798830	-0.705925
O14	O	1.070305	0.776474	-0.551746
O15	O	1.318173	0.660408	-0.712308
O16	O	1.332826	0.983958	-0.456075
O17	O	1.216030	0.982908	-0.560146
C18	C	1.040871	0.696137	-0.494646
C19	C	0.940927	0.688029	-0.488900
C20	C	0.803352	0.595607	-0.423397
C21	C	0.897258	0.603219	-0.428793
C22	C	0.890682	0.765230	-0.543618
C23	C	0.796775	0.757618	-0.538223
C24	C	0.753114	0.672805	-0.478110
C25	C	0.659206	0.665199	-0.472710
C26	C	0.652631	0.827204	-0.587540
C27	C	0.746537	0.834816	-0.592935
C28	C	1.274441	1.026983	-0.508129
C29	C	1.274502	1.160390	-0.508165
C30	C	1.509018	0.734261	-0.521661
C31	C	1.608961	0.742400	-0.527429
C32	C	1.261005	0.732031	-0.742654
C33	C	1.255259	0.739220	-0.842595
C34	C	1.274550	1.402126	-0.508155
C35	C	1.274551	1.268729	-0.508189
C36	C	1.359502	0.608561	-1.037044
C37	C	1.354106	0.615312	-1.130948
C38	C	1.239067	0.759465	-1.124309
C39	C	1.244463	0.752714	-1.030405
C40	C	1.304683	0.677261	-0.986776
C41	C	1.310083	0.670518	-0.892870
C42	C	1.195040	0.814664	-0.886233
C43	C	1.189644	0.821414	-0.980137
C44	C	1.287971	0.698275	-0.274515
C45	C	1.293891	0.690762	-0.174584
H46	H	0.611717	0.890065	-0.632090
Cl47	Cl	1.126131	0.901049	-0.823034
Cl48	Cl	0.945587	0.871860	-0.619169
Cl49	Cl	0.960412	0.506163	-0.360010
Cl50	Cl	1.113942	0.916263	-1.034994
H51	H	0.767802	0.526551	-0.374449
H52	H	1.190038	0.820895	-1.159849
H53	H	0.623658	0.596139	-0.423764
H54	H	0.782099	0.903865	-0.641880
Cl55	Cl	1.385790	0.575667	-0.838023
H56	H	1.408540	0.547131	-1.001521
H57	H	1.398743	0.559366	-1.171873
