data_functionalizedCrystal
_audit_creation_method	'MofGen! by Chris Wilmer'
_symmetry_space_group_name_H-M	'P1'
_symmetry_Int_Tables_number	1
_symmetry_cell_setting	triclinic
loop_
_symmetry_equiv_pos_as_xyz
  x,y,z
_cell_length_a	10.489741
_cell_length_b	13.596369
_cell_length_c	14.519709
_cell_angle_alpha	89.993066
_cell_angle_beta	84.109659
_cell_angle_gamma	89.997383
loop_
_atom_site_label
_atom_site_type_symbol
_atom_site_fract_x
_atom_site_fract_y
_atom_site_fract_z
O1	O	1.692699	-0.081733	0.130116
O2	O	2.192699	0.418267	0.630116
O3	O	1.321376	-0.081748	0.142329
O4	O	1.821376	0.418252	0.642329
O5	O	1.516882	-0.081731	0.002038
O6	O	2.016882	0.418269	0.502038
O7	O	1.497192	-0.081750	0.270407
O8	O	1.997192	0.418250	0.770407
O9	O	1.516863	0.081851	0.002030
O10	O	2.016863	0.581851	0.502030
O11	O	1.321356	0.081834	0.142322
O12	O	1.821356	0.581834	0.642322
O13	O	1.692679	0.081850	0.130108
O14	O	2.192679	0.581850	0.630108
Zn15	Zn	1.507015	0.107814	0.136214
Zn16	Zn	2.007015	0.607814	0.636214
Zn17	Zn	1.507040	-0.107713	0.136224
Zn18	Zn	2.007040	0.392287	0.636224
O19	O	1.497173	0.081833	0.270400
O20	O	1.997173	0.581833	0.770400
C21	C	1.273844	0.000041	0.141403
C22	C	1.773844	0.500041	0.641403
C23	C	1.132243	0.000035	0.138643
C24	C	1.632243	0.500035	0.638643
C25	C	1.515955	0.000060	-0.032331
C26	C	2.015955	0.500060	0.467669
C27	C	1.513205	0.000061	-0.134727
C28	C	2.013205	0.500061	0.365273
N29	N	1.507006	0.254906	0.136206
N30	N	2.007006	0.754906	0.636206
C31	C	1.065034	0.000051	0.049380
C32	C	1.565034	0.500051	0.549380
C33	C	0.972477	-0.080605	0.091551
C34	C	1.472477	0.419395	0.591551
C35	C	0.972491	0.080675	0.091565
C36	C	1.472491	0.580675	0.591565
C37	C	1.041551	-0.080687	0.180851
C38	C	1.541551	0.419313	0.680851
C39	C	1.041576	0.080665	0.180852
C40	C	1.541576	0.580665	0.680852
C41	C	0.949046	-0.000010	0.223088
C42	C	1.449046	0.499990	0.723088
C43	C	1.740211	0.000058	0.131035
C44	C	2.240211	0.500058	0.631035
C45	C	1.881812	0.000057	0.133794
C46	C	2.381812	0.500057	0.633794
N47	N	1.507059	-0.254805	0.136224
N48	N	2.007059	0.245195	0.636224
C49	C	1.507039	0.656197	0.136225
C50	C	2.007039	1.156197	0.636225
C51	C	1.507026	0.544546	0.136223
C52	C	2.007026	1.044546	0.636223
C53	C	1.507023	0.455555	0.136216
C54	C	2.007023	0.955555	0.636216
C55	C	1.507009	0.343897	0.136213
C56	C	2.007009	0.843897	0.636213
C57	C	1.503082	0.000035	-0.509678
C58	C	2.003082	0.500035	-0.009678
C59	C	1.505893	0.000042	-0.405355
C60	C	2.005893	0.500042	0.094645
C61	C	1.508143	0.000048	-0.322206
C62	C	2.008143	0.500048	0.177794
C63	C	1.510955	0.000054	-0.217876
C64	C	2.010955	0.500054	0.282124
C65	C	1.498100	0.000039	0.304768
C66	C	1.998100	0.500039	0.804768
C67	C	1.500850	0.000032	0.407165
C68	C	2.000850	0.500032	0.907165
H69	H	1.115488	-0.000045	-0.024000
H70	H	1.615488	0.499955	0.476000
C71	C	0.931746	-0.171435	0.041025
C72	C	1.431746	0.328565	0.541025
C73	C	0.990995	-0.171050	-0.049887
C74	C	1.490995	0.328950	0.450113
C75	C	0.953498	-0.254696	-0.096467
C76	C	1.453498	0.245304	0.403533
H77	H	0.956534	-0.228786	0.072035
H78	H	1.456534	0.271214	0.572035
H79	H	0.841322	-0.171076	0.040072
H80	H	1.341322	0.328924	0.540072
H81	H	1.081400	-0.171419	-0.048930
H82	H	1.581400	0.328581	0.451070
H83	H	0.966215	-0.113719	-0.080922
H84	H	1.466215	0.386281	0.419078
H85	H	0.863073	-0.254337	-0.097420
H86	H	1.363073	0.245663	0.402580
H87	H	0.978287	-0.312040	-0.065450
H88	H	1.478287	0.187960	0.434550
H89	H	0.993683	-0.254441	-0.158158
H90	H	1.493683	0.245559	0.341842
C91	C	1.082394	-0.171681	0.231103
C92	C	1.582394	0.328319	0.731103
C93	C	1.215559	-0.170664	0.233050
C94	C	1.715559	0.329336	0.733050
C95	C	1.253234	-0.254477	0.279320
C96	C	1.753234	0.245523	0.779320
H97	H	1.041765	-0.172004	0.292659
H98	H	1.541765	0.327996	0.792659
H99	H	1.058264	-0.228910	0.199599
H100	H	1.558264	0.271090	0.699599
H101	H	1.239676	-0.113451	0.264556
H102	H	1.739676	0.386549	0.764556
H103	H	1.256220	-0.170356	0.171508
H104	H	1.756220	0.329644	0.671508
H105	H	1.229104	-0.311706	0.247816
H106	H	1.729104	0.188294	0.747816
H107	H	1.212596	-0.254792	0.340873
H108	H	1.712596	0.245208	0.840873
H109	H	1.343590	-0.253803	0.280640
H110	H	1.843590	0.246197	0.780640
H111	H	0.898856	-0.000059	0.296546
H112	H	1.398856	0.499941	0.796546
H113	H	1.072220	0.148853	0.218587
H114	H	1.572220	0.648853	0.718587
C115	C	0.931897	0.171565	0.041039
C116	C	1.431897	0.671565	0.541039
C117	C	0.991208	0.171187	-0.049856
C118	C	1.491208	0.671187	0.450144
C119	C	0.953860	0.254899	-0.096430
C120	C	1.453860	0.754899	0.403570
H121	H	0.841497	0.171312	0.040036
H122	H	1.341497	0.671312	0.540036
H123	H	0.956756	0.228865	0.072101
H124	H	1.456756	0.728865	0.572101
H125	H	0.966342	0.113902	-0.080910
H126	H	1.466342	0.613902	0.419090
H127	H	1.081607	0.171455	-0.048880
H128	H	1.581607	0.671455	0.451120
H129	H	0.978718	0.312199	-0.065368
H130	H	1.478718	0.812199	0.434632
H131	H	0.863459	0.254638	-0.097426
H132	H	1.363459	0.754638	0.402574
H133	H	0.994105	0.254658	-0.158104
H134	H	1.494105	0.754658	0.341896
