data_functionalizedCrystal
_audit_creation_method	'MofGen! by Chris Wilmer'
_symmetry_space_group_name_H-M	'P1'
_symmetry_Int_Tables_number	1
_symmetry_cell_setting	triclinic
loop_
_symmetry_equiv_pos_as_xyz
  x,y,z
_cell_length_a	10.723024
_cell_length_b	14.971486
_cell_length_c	14.048226
_cell_angle_alpha	90.006640
_cell_angle_beta	90.006140
_cell_angle_gamma	84.040999
loop_
_atom_site_label
_atom_site_type_symbol
_atom_site_fract_x
_atom_site_fract_y
_atom_site_fract_z
O1	O	-1.655881	-0.125456	-0.079155
O2	O	-1.292603	-0.137464	-0.079158
O3	O	-1.483979	-0.001312	-0.079150
O4	O	-1.464505	-0.261608	-0.079164
O5	O	-1.483955	-0.001304	0.079172
O6	O	-1.292580	-0.137456	0.079163
O7	O	-1.655858	-0.125447	0.079166
Zn8	Zn	-1.474215	-0.131450	0.104302
Zn9	Zn	-1.474245	-0.131461	-0.104294
O10	O	-1.464482	-0.261599	0.079158
C11	C	-1.483096	0.032022	0.000011
C12	C	-1.480486	0.131333	0.000010
C13	C	-1.246101	-0.136586	0.000002
C14	C	-1.107574	-0.133971	0.000001
C15	C	-1.702360	-0.126325	0.000004
C16	C	-1.840887	-0.128940	-0.000001
C17	C	-1.031795	-0.210155	-0.000004
C18	C	-0.888620	-0.207454	-0.000005
C19	C	-1.465364	-0.294933	-0.000005
C20	C	-1.467974	-0.394244	-0.000010
N21	N	-1.474203	-0.131442	0.246662
C22	C	-1.592914	0.187954	0.000011
C23	C	-1.590455	0.281267	0.000002
C24	C	-1.475566	0.317956	-0.000003
C25	C	-1.363129	0.261327	-0.000007
C26	C	-1.365590	0.168016	-0.000004
C27	C	-1.358008	0.455817	-0.000011
C28	C	-1.355546	0.549134	-0.000012
C29	C	-1.582872	0.569068	-0.000004
C30	C	-1.585333	0.475757	-0.000002
C31	C	-1.472896	0.419134	-0.000004
N32	N	-1.474267	-0.131462	-0.246654
C33	C	-1.558971	-0.071180	0.296484
C34	C	-1.558980	-0.071179	0.396142
C35	C	-1.474225	-0.131446	0.445976
C36	C	-1.389448	-0.191712	0.396147
C37	C	-1.389435	-0.191708	0.296491
C38	C	-1.389484	-0.191719	0.603861
C39	C	-1.389499	-0.191725	0.703524
C40	C	-1.559029	-0.071190	0.703512
C41	C	-1.559016	-0.071186	0.603856
C42	C	-1.474240	-0.131453	0.554034
H43	H	-1.072915	-0.277377	-0.000002
O44	O	-1.641107	-0.012561	0.247996
C45	C	-1.574152	0.043075	0.190421
H46	H	-1.476587	0.008057	0.175478
H47	H	-1.565524	0.109209	0.228880
C48	C	-1.764292	0.104824	0.114116
C49	C	-1.644465	0.061811	0.095756
H50	H	-1.807666	0.116386	0.055724
H51	H	-1.809403	0.067345	0.152908
H52	H	-1.757085	0.159931	0.146167
H53	H	-1.651674	0.006701	0.063717
H54	H	-1.599357	0.099283	0.056957
H55	H	-1.320447	-0.240792	0.563300
H56	H	-0.823506	-0.272673	-0.000013
H57	H	-1.628056	-0.022119	0.744083
O58	O	-1.697043	0.440263	-0.000035
C59	C	-1.795755	0.510246	-0.000010
H60	H	-1.760694	0.573837	-0.029988
H61	H	-1.830428	0.523243	0.075946
C62	C	-1.947171	0.405129	-0.025273
C63	C	-1.904112	0.483231	-0.062099
H64	H	-2.014014	0.388464	-0.063568
H65	H	-1.880668	0.357979	-0.025286
H66	H	-1.976056	0.415970	0.038023
H67	H	-1.875213	0.472385	-0.125389
H68	H	-1.970613	0.530378	-0.062098
H69	H	-0.905993	-0.063717	-0.000003
H70	H	-1.266449	0.409717	-0.000015
H71	H	-1.066454	-0.066749	-0.000020
H72	H	-1.628003	-0.022108	0.436706
O73	O	-1.704628	0.152466	-0.000029
C74	C	-1.803331	0.222457	-0.000009
H75	H	-1.768255	0.286045	-0.029982
H76	H	-1.838012	0.235455	0.075945
C77	C	-1.954762	0.117353	-0.025287
C78	C	-1.911684	0.195452	-0.062107
H79	H	-2.021603	0.100695	-0.063588
H80	H	-1.888265	0.070199	-0.025296
H81	H	-1.983654	0.128195	0.038007
H82	H	-1.882779	0.184606	-0.125395
H83	H	-1.978179	0.242604	-0.062110
H84	H	-1.628035	-0.022116	0.563281
O85	O	-1.307032	-0.250287	0.751787
C86	C	-1.232211	-0.303485	0.686446
H87	H	-1.230754	-0.266806	0.615411
H88	H	-1.272788	-0.370210	0.675837
C89	C	-1.099422	-0.366056	0.812608
C90	C	-1.097625	-0.321003	0.725363
H91	H	-1.016404	-0.376867	0.836615
H92	H	-1.149833	-0.330219	0.856631
H93	H	-1.133242	-0.421656	0.803755
H94	H	-1.063820	-0.265400	0.734219
H95	H	-1.047205	-0.356832	0.681343
H96	H	-1.682005	0.327365	0.000005
O97	O	-1.306942	-0.250163	0.444513
C98	C	-1.183402	-0.234821	0.420168
H99	H	-1.182691	-0.163201	0.392785
H100	H	-1.146809	-0.284157	0.362321
C101	C	-1.099715	-0.336128	0.542342
C102	C	-1.098841	-0.248161	0.508717
H103	H	-1.047551	-0.344361	0.596961
H104	H	-1.182946	-0.346467	0.558742
H105	H	-1.069224	-0.377232	0.494128
H106	H	-1.129347	-0.207060	0.556926
H107	H	-1.015613	-0.237815	0.492327
H108	H	-1.674423	0.615175	-0.000005
H109	H	-1.261993	0.579003	-0.000000
H110	H	-1.269584	0.291207	-0.000017
H111	H	-1.320407	-0.240778	0.255927
H112	H	-1.274039	0.121915	-0.000006
