data_functionalizedCrystal
_audit_creation_method	'MofGen! by Chris Wilmer'
_symmetry_space_group_name_H-M	'P1'
_symmetry_Int_Tables_number	1
_symmetry_cell_setting	triclinic
loop_
_symmetry_equiv_pos_as_xyz
  x,y,z
_cell_length_a	10.968094
_cell_length_b	27.732048
_cell_length_c	26.210047
_cell_angle_alpha	89.990375
_cell_angle_beta	102.111008
_cell_angle_gamma	83.700154
loop_
_atom_site_label
_atom_site_type_symbol
_atom_site_fract_x
_atom_site_fract_y
_atom_site_fract_z
O1	O	1.654262	0.067776	0.102999
O2	O	1.290872	0.074267	0.071050
O3	O	1.483853	0.000695	0.088026
O4	O	1.461281	0.141348	0.086022
O5	O	1.483793	0.000694	0.172879
O6	O	1.290812	0.074267	0.155903
O7	O	1.654201	0.067775	0.187852
Cu8	Cu	1.472501	0.071021	0.179625
Cu9	Cu	1.472573	0.071022	0.079277
O10	O	1.461221	0.141348	0.170875
C11	C	1.244366	0.073795	0.109390
C12	C	1.105882	0.072384	0.097215
C13	C	0.900974	0.070290	0.123157
C14	C	1.044103	0.071753	0.135746
C15	C	1.483349	-0.017315	0.130413
C16	C	1.481922	-0.070979	0.130291
C17	C	1.586979	-0.409142	0.139502
C18	C	1.581686	-0.610835	0.139029
O19	O	1.677753	-0.641495	0.147453
N20	N	1.467256	-0.630668	0.128969
C21	C	1.354142	-0.600075	0.119023
O22	O	1.256691	-0.621573	0.110450
C23	C	1.359437	-0.398384	0.119492
C24	C	1.473874	-0.378553	0.129558
C25	C	1.701407	-0.389311	0.149566
C26	C	1.702729	-0.338891	0.149687
C27	C	1.589624	-0.308302	0.139743
C28	C	1.475196	-0.328133	0.129679
C29	C	1.246324	-0.367792	0.109542
C30	C	1.247658	-0.317366	0.109659
C31	C	1.362095	-0.297536	0.119725
C32	C	1.363413	-0.247124	0.119856
N33	N	1.477842	-0.227290	0.129916
C34	C	1.590948	-0.257880	0.139860
C35	C	1.351370	-0.705967	0.118778
C36	C	1.350046	-0.756389	0.118662
C37	C	1.577590	-0.767145	0.138667
C38	C	1.578913	-0.716722	0.138787
C39	C	1.465800	-0.686133	0.128839
C40	C	1.593716	-0.151993	0.140113
C41	C	1.595028	-0.101568	0.140235
C42	C	1.367484	-0.090816	0.120227
C43	C	1.366171	-0.141237	0.120108
C44	C	1.479297	-0.171825	0.130050
O45	O	1.267397	-0.216435	0.111431
O46	O	1.688384	-0.236373	0.148420
C47	C	1.585657	-0.459563	0.139381
C48	C	1.471229	-0.479394	0.129316
C49	C	1.358124	-0.448804	0.119373
C50	C	1.469905	-0.529816	0.129200
C51	C	1.583011	-0.560405	0.139144
C52	C	1.697441	-0.540572	0.149204
C53	C	1.698763	-0.490152	0.149324
C54	C	1.243694	-0.468638	0.109312
C55	C	1.242381	-0.519058	0.109193
C56	C	1.355487	-0.549648	0.119137
C57	C	1.700708	0.068247	0.149510
C58	C	1.839191	0.069659	0.161682
C59	C	1.461725	0.159358	0.128488
C60	C	1.463151	0.213022	0.128606
N61	N	1.472460	0.071021	0.250205
N62	N	1.472624	0.071018	0.008697
C63	C	1.547659	0.100598	0.609326
C64	C	1.547696	0.100598	0.822988
O65	O	1.611604	0.125740	0.856225
N66	N	1.472602	0.071017	0.843112
C67	C	1.397500	0.041431	0.809816
O68	O	1.333639	0.016267	0.831836
C69	C	1.397471	0.041429	0.596156
C70	C	1.472560	0.071016	0.576035
C71	C	1.622743	0.130182	0.589205
C72	C	1.622728	0.130184	0.535792
C73	C	1.547629	0.100601	0.502501
C74	C	1.472545	0.071018	0.522622
C75	C	1.322376	0.011842	0.562862
C76	C	1.322378	0.011843	0.509445
C77	C	1.397467	0.041430	0.489324
C78	C	1.397430	0.041437	0.435918
N79	N	1.472524	0.071018	0.415795
C80	C	1.547624	0.100600	0.449086
C81	C	1.397519	0.041435	0.921991
C82	C	1.397524	0.041436	0.975406
C83	C	1.547723	0.100602	0.988574
C84	C	1.547710	0.100603	0.935158
C85	C	1.472613	0.071016	0.901868
C86	C	1.547585	0.100602	0.336915
C87	C	1.547560	0.100603	0.283497
C88	C	1.397367	0.041435	0.270333
C89	C	1.397387	0.041436	0.323746
C90	C	1.472506	0.071021	0.357037
O91	O	1.333566	0.016304	0.402652
O92	O	1.611496	0.125753	0.427059
C93	C	1.547674	0.100596	0.662739
C94	C	1.472590	0.071013	0.682861
C95	C	1.397491	0.041430	0.649569
C96	C	1.472596	0.071014	0.736275
C97	C	1.547695	0.100596	0.769567
C98	C	1.622789	0.130177	0.749443
C99	C	1.622774	0.130178	0.696031
C100	C	1.322397	0.011849	0.669693
C101	C	1.322417	0.011851	0.723106
C102	C	1.397516	0.041433	0.756397
H103	H	1.685834	-0.176892	0.148207
H104	H	1.261232	-0.012252	0.579235
H105	H	1.672098	-0.700580	0.146983
H106	H	1.097167	0.072293	0.178050
H107	H	1.256860	-0.772530	0.110474
N108	N	1.320712	0.011204	0.236319
N109	N	1.336574	-0.033787	0.243681
H110	H	1.282455	-0.055144	0.219657
N111	N	1.624443	0.130817	0.914616
N112	N	1.740817	0.125436	0.930805
H113	H	1.795019	0.146774	0.916300
H114	H	1.683931	0.154266	0.776558
H115	H	1.261258	-0.012241	0.739482
N116	N	1.320682	0.011224	0.344312
N117	N	1.237848	0.029803	0.366851
H118	H	1.183682	0.008463	0.381374
N119	N	0.905774	0.070345	0.214747
N120	N	0.966244	0.105098	0.230340
H121	H	1.013269	0.105584	0.267818
N122	N	1.816954	-0.420552	0.159739
N123	N	1.841580	-0.449887	0.197679
H124	H	1.923193	-0.471948	0.204870
N125	N	0.834396	0.069604	0.070091
N126	N	0.718223	0.068415	0.059940
H127	H	0.671202	0.067930	0.022461
N128	N	1.711928	-0.081313	0.150506
N129	N	1.738081	-0.054372	0.117036
H130	H	1.820639	-0.040067	0.124288
N131	N	1.125466	-0.539303	0.098915
N132	N	1.024494	-0.511980	0.090038
H133	H	0.941924	-0.526276	0.082776
H134	H	1.795916	-0.322750	0.157882
N135	N	1.624290	0.130817	0.262947
N136	N	1.707135	0.112233	0.240417
H137	H	1.761328	0.133570	0.225905
H138	H	1.669685	-0.792060	0.146764
H139	H	1.259254	-0.681065	0.110677
N140	N	1.129416	-0.388031	0.099258
N141	N	1.028449	-0.360705	0.090376
H142	H	0.945875	-0.374998	0.083110
H143	H	1.683919	0.154271	0.679654
N144	N	1.039312	0.071697	0.044146
N145	N	0.923139	0.070506	0.033994
H146	H	0.876122	0.070020	-0.003486
H147	H	1.261224	-0.012251	0.482342
H148	H	1.155545	-0.292463	0.101557
H149	H	1.272987	-0.157384	0.111925
N150	N	1.128141	-0.437403	0.099152
N151	N	1.025989	-0.455123	0.090171
H152	H	0.944371	-0.433065	0.082996
H153	H	1.336363	0.017340	0.894890
N154	N	1.251966	-0.059558	0.110076
N155	N	1.253178	-0.014540	0.110185
H156	H	1.171593	0.007538	0.103013
H157	H	1.791949	-0.474011	0.157521
H158	H	1.789535	-0.565487	0.157302
N159	N	1.624328	0.130823	0.370908
N160	N	1.691356	0.157233	0.352927
H161	H	1.745552	0.178579	0.376934
N162	N	1.699423	0.160415	0.515251
N163	N	1.766455	0.186826	0.544989
H164	H	1.820622	0.208180	0.530485
N165	N	1.699476	0.160403	0.623200
N166	N	1.766506	0.186810	0.605217
H167	H	1.820699	0.208158	0.629222
H168	H	1.608866	0.124691	1.015689
N169	N	1.320791	0.011226	0.995952
N170	N	1.204415	0.016604	0.979767
H171	H	1.150220	-0.004734	0.994277
H172	H	1.261243	-0.012241	0.642591
