data_functionalizedCrystal
_audit_creation_method	'MofGen! by Chris Wilmer'
_symmetry_space_group_name_H-M	'P1'
_symmetry_Int_Tables_number	1
_symmetry_cell_setting	triclinic
loop_
_symmetry_equiv_pos_as_xyz
  x,y,z
_cell_length_a	8.559649
_cell_length_b	16.992695
_cell_length_c	16.053919
_cell_angle_alpha	92.719206
_cell_angle_beta	93.160960
_cell_angle_gamma	80.223444
loop_
_atom_site_label
_atom_site_type_symbol
_atom_site_fract_x
_atom_site_fract_y
_atom_site_fract_z
O1	O	0.342528	1.022713	0.069389
O2	O	0.338840	0.794650	0.069398
O3	O	0.110648	0.928774	0.069392
O4	O	0.570721	0.888589	0.069395
O5	O	0.098025	0.923625	-0.069465
O6	O	0.326217	0.789501	-0.069458
O7	O	0.329905	1.017564	-0.069467
Zn8	Zn	0.326057	0.902715	-0.091509
Zn9	Zn	0.342688	0.909499	0.091440
O10	O	0.558098	0.883440	-0.069461
C11	C	0.045196	0.929245	-0.000035
C12	C	-0.131027	0.938310	-0.000031
C13	C	0.340962	1.049065	-0.000038
C14	C	0.355120	1.135257	-0.000036
C15	C	0.327784	0.763149	-0.000029
C16	C	0.313626	0.676957	-0.000025
C17	C	0.623550	0.882969	-0.000033
C18	C	0.799773	0.873904	-0.000031
N19	N	0.314706	0.898091	-0.216368
C20	C	0.218513	1.193724	-0.000035
C21	C	0.231825	1.274708	-0.000038
C22	C	0.381747	1.297225	-0.000036
C23	C	0.518364	1.238751	-0.000041
C24	C	0.505050	1.157768	-0.000044
C25	C	0.436929	1.537500	-0.000033
C26	C	0.450233	1.618491	-0.000027
C27	C	0.163692	1.654442	-0.000026
C28	C	0.150392	1.573456	-0.000024
C29	C	0.287009	1.514989	-0.000032
N30	N	0.395358	1.380004	-0.000037
N31	N	0.273396	1.432211	-0.000038
C32	C	0.255775	0.874351	-0.739990
C33	C	0.263776	0.877576	-0.652584
C34	C	0.370039	0.920577	-0.608893
C35	C	0.468295	0.960361	-0.652611
C36	C	0.460285	0.957139	-0.740014
C37	C	0.404953	0.934654	-0.347489
C38	C	0.412959	0.937870	-0.260080
C39	C	0.208437	0.855087	-0.260059
C40	C	0.200443	0.851865	-0.347465
C41	C	0.298693	0.891652	-0.391175
N42	N	0.378223	0.923873	-0.519550
N43	N	0.290500	0.888361	-0.480516
N44	N	0.354027	0.914130	0.216298
H45	H	-0.206606	1.000389	-0.000040
C46	C	-0.138637	0.745870	-0.071405
C47	C	-0.098218	0.790102	-0.000024
H48	H	-0.075645	0.694135	-0.071401
H49	H	-0.247638	0.741173	-0.071402
H50	H	-0.120014	0.772301	-0.119822
H51	H	-0.116853	0.763674	0.048393
H52	H	0.010808	0.794795	-0.000020
C53	C	-0.063379	1.237402	-0.000040
C54	C	0.053712	1.168978	-0.000037
H55	H	-0.165122	1.222125	-0.000048
H56	H	-0.047827	1.270031	0.048380
H57	H	-0.056613	1.266448	-0.048465
H58	H	0.046953	1.139935	0.048391
H59	H	0.038154	1.136336	-0.048462
C60	C	0.635861	0.933505	-0.161823
C61	C	0.529760	0.985145	-0.212049
H62	H	0.707968	0.962689	-0.132175
H63	H	0.578491	0.910275	-0.123289
H64	H	0.693099	0.892536	-0.195948
H65	H	0.472514	1.026110	-0.177923
H66	H	0.587136	1.008387	-0.250587
C67	C	0.669646	1.041867	-0.661417
C68	C	0.585102	1.007629	-0.604588
H69	H	0.741754	1.071051	-0.631769
H70	H	0.726872	1.000890	-0.695523
H71	H	0.597643	1.076891	-0.695489
H72	H	0.657104	0.972600	-0.570519
H73	H	0.527873	1.048611	-0.570466
H74	H	0.120584	1.322310	-0.000040
C75	C	0.597864	1.726671	-0.000039
C76	C	0.615037	1.643242	-0.000044
H77	H	0.699603	1.741951	-0.000048
H78	H	0.536762	1.745530	-0.048451
H79	H	0.545603	1.749112	0.048394
H80	H	0.667288	1.620801	-0.048481
H81	H	0.676164	1.624375	0.048372
H82	H	0.169252	0.839330	-0.775557
C83	C	-0.131507	1.617130	-0.000041
C84	C	-0.014409	1.548708	-0.000036
H85	H	-0.233247	1.601849	-0.000053
H86	H	-0.115963	1.649758	0.048382
H87	H	-0.124739	1.646177	-0.048464
H88	H	-0.021169	1.519663	0.048390
H89	H	-0.029958	1.516067	-0.048463
C90	C	0.721495	1.510111	-0.000025
C91	C	0.587098	1.473241	-0.000034
H92	H	0.814206	1.470435	-0.000020
H93	H	0.716324	1.540652	-0.048442
H94	H	0.725112	1.544240	0.048403
H95	H	0.583475	1.439116	-0.048465
H96	H	0.592270	1.442686	0.048388
C97	C	0.662789	1.048472	0.071333
C98	C	0.655209	1.093495	-0.000043
H99	H	0.755489	1.008790	0.071326
H100	H	0.666440	1.082602	0.119748
H101	H	0.571585	1.023479	0.071322
H102	H	0.746408	1.118493	-0.000029
H103	H	0.651572	1.059360	-0.048471
H104	H	0.052467	1.702054	-0.000020
H105	H	0.640434	1.257090	-0.000045
C106	C	0.060834	0.795415	-0.661343
C107	C	0.155782	0.833845	-0.604536
H108	H	-0.005833	0.768412	-0.631679
H109	H	-0.002646	0.833877	-0.695416
H110	H	0.126594	0.757881	-0.695452
H111	H	0.090021	0.871383	-0.570431
H112	H	0.219268	0.795378	-0.570449
H113	H	0.113910	0.816851	-0.383032
C114	C	0.474677	1.057563	-0.838291
C115	C	0.568287	1.000866	-0.788066
H116	H	0.541354	1.084563	-0.867950
H117	H	0.410261	1.031491	-0.876816
H118	H	0.408948	1.095094	-0.804165
H119	H	0.634008	0.963331	-0.822193
H120	H	0.632731	1.026939	-0.749537
H121	H	0.128446	0.822695	-0.224461
H122	H	0.484957	0.967051	-0.383068
