data_functionalizedCrystal
_audit_creation_method	'MofGen! by Chris Wilmer'
_symmetry_space_group_name_H-M	'P1'
_symmetry_Int_Tables_number	1
_symmetry_cell_setting	triclinic
loop_
_symmetry_equiv_pos_as_xyz
  x,y,z
_cell_length_a	17.699083
_cell_length_b	17.699077
_cell_length_c	16.776229
_cell_angle_alpha	89.994802
_cell_angle_beta	89.995692
_cell_angle_gamma	83.281795
loop_
_atom_site_label
_atom_site_type_symbol
_atom_site_fract_x
_atom_site_fract_y
_atom_site_fract_z
O1	O	-0.095688	-1.004080	0.066279
O2	O	-0.108145	-0.783701	0.066283
O3	O	0.008273	-0.900117	0.066274
O4	O	-0.212106	-0.887664	0.066288
O5	O	0.008273	-0.900104	-0.066302
O6	O	-0.108145	-0.783688	-0.066293
O7	O	-0.095688	-1.004067	-0.066297
Zn8	Zn	-0.101916	-0.893875	-0.087345
Zn9	Zn	-0.101917	-0.893893	0.087331
O10	O	-0.212106	-0.887651	-0.066288
C11	C	-0.107700	-0.755498	-0.000004
C12	C	-0.106363	-0.671479	-0.000003
C13	C	0.036470	-0.899664	-0.000014
C14	C	0.120488	-0.898326	-0.000015
C15	C	-0.096133	-1.032271	-0.000008
C16	C	-0.097470	-1.116289	-0.000004
C17	C	-0.240303	-0.888104	0.000002
C18	C	-0.324321	-0.889443	0.000008
C19	C	0.169110	-0.966659	-0.000017
C20	C	0.248054	-0.965397	-0.000010
C21	C	0.278373	-0.895800	-0.000006
C22	C	0.229744	-0.827461	-0.000001
C23	C	0.150803	-0.828724	-0.000003
C24	C	0.548107	-0.822366	0.000005
C25	C	0.627055	-0.821108	0.000004
C26	C	0.645358	-0.959039	-0.000002
C27	C	0.566417	-0.960302	-0.000003
C28	C	0.517795	-0.891963	0.000006
C29	C	0.432196	-0.893333	-0.000000
C30	C	0.363971	-0.894430	-0.000006
N31	N	-0.101916	-0.893869	-0.206556
C32	C	-0.105733	-0.632005	-0.072271
C33	C	-0.104464	-0.553062	-0.072272
C34	C	-0.103832	-0.513595	-0.000004
C35	C	-0.104460	-0.553075	0.072270
C36	C	-0.105722	-0.632017	0.072270
C37	C	-0.099366	-0.234712	0.072271
C38	C	-0.098106	-0.155764	0.072265
C39	C	-0.098108	-0.155757	-0.072271
C40	C	-0.099371	-0.234699	-0.072271
C41	C	-0.099995	-0.274173	0.000002
C42	C	-0.101369	-0.359772	0.000002
C43	C	-0.102464	-0.427997	-0.000003
C44	C	-0.147763	-0.939684	-0.248267
C45	C	-0.147760	-0.939693	-0.331719
C46	C	-0.101913	-0.893881	-0.373459
C47	C	-0.056060	-0.848064	-0.331742
C48	C	-0.056060	-0.848061	-0.248291
C49	C	-0.056061	-0.848080	-0.668289
C50	C	-0.056067	-0.848085	-0.751745
C51	C	-0.147762	-0.939712	-0.751717
C52	C	-0.147761	-0.939708	-0.668267
C53	C	-0.101906	-0.893894	-0.626557
C54	C	-0.101908	-0.893887	-0.536068
C55	C	-0.101914	-0.893884	-0.463946
N56	N	-0.101911	-0.893905	0.206542
H57	H	0.144431	-1.023333	-0.000025
N58	N	-0.197217	-0.989092	-0.203251
H59	H	-0.226258	-1.018118	-0.242342
H60	H	-0.164168	-1.026151	-0.168624
N61	N	0.697807	-1.032745	-0.000002
H62	H	0.688065	-1.063124	0.049141
H63	H	0.688051	-1.063048	-0.049184
N64	N	-0.103782	-0.510483	-0.150217
H65	H	-0.103842	-0.547531	-0.195999
H66	H	-0.150431	-0.471867	-0.153604
N67	N	0.495674	-0.748660	0.000011
H68	H	0.441063	-0.760015	0.000016
H69	H	0.505480	-0.718334	0.049162
H70	H	-0.018727	-0.810768	-0.365732
N71	N	0.098356	-0.755022	0.000005
H72	H	0.129540	-0.710741	0.000006
H73	H	0.065205	-0.752535	-0.049142
N74	N	-0.100045	-0.277265	-0.150219
H75	H	-0.100941	-0.333265	-0.139252
H76	H	-0.146725	-0.257241	-0.181778
H77	H	-0.018730	-0.810779	-0.785727
H78	H	0.541735	-1.016974	-0.000010
H79	H	-0.018723	-0.810776	-0.634339
N80	N	-0.197210	-0.989118	-0.623248
H81	H	-0.226253	-1.018147	-0.662335
H82	H	-0.164157	-1.026175	-0.588623
N83	N	-0.006605	-0.798649	-0.203301
H84	H	-0.021602	-0.743555	-0.217825
H85	H	-0.013579	-0.805664	-0.144117
H86	H	0.651737	-0.764431	0.000006
N87	N	-0.097434	-0.113181	-0.150226
H88	H	-0.097592	-0.057052	-0.139269
H89	H	-0.050223	-0.132483	-0.181310
H90	H	0.254436	-0.770794	0.000007
N91	N	-0.197173	-0.989145	-0.376709
H92	H	-0.226208	-1.018173	-0.337605
H93	H	-0.234224	-0.956111	-0.411357
H94	H	-0.097590	-0.123632	0.131118
N95	N	-0.197221	-0.989129	-0.796704
H96	H	-0.190265	-0.982185	-0.855904
H97	H	-0.182200	-1.044200	-0.782107
H98	H	-0.099872	-0.266843	0.131120
N99	N	0.300497	-1.039099	-0.000017
H100	H	0.269311	-1.083379	-0.000027
H101	H	0.333652	-1.041568	-0.049165
H102	H	-0.103939	-0.520935	0.131112
N103	N	-0.106423	-0.674569	-0.150219
H104	H	-0.105830	-0.637580	-0.196000
H105	H	-0.060047	-0.713549	-0.153372
H106	H	-0.106237	-0.664156	0.131118
