data_functionalizedCrystal
_audit_creation_method	'MofGen! by Chris Wilmer'
_symmetry_space_group_name_H-M	'P1'
_symmetry_Int_Tables_number	1
_symmetry_cell_setting	triclinic
loop_
_symmetry_equiv_pos_as_xyz
  x,y,z
_cell_length_a	16.956995
_cell_length_b	17.666332
_cell_length_c	16.992695
_cell_angle_alpha	90.006422
_cell_angle_beta	83.361347
_cell_angle_gamma	90.012625
loop_
_atom_site_label
_atom_site_type_symbol
_atom_site_fract_x
_atom_site_fract_y
_atom_site_fract_z
O1	O	1.060105	0.063001	0.032364
O2	O	1.560105	0.563001	0.532364
O3	O	0.829695	0.062991	0.059778
O4	O	1.329695	0.562991	0.559778
O5	O	0.943976	0.062990	-0.068012
O6	O	1.443976	0.562990	0.431988
O7	O	0.945823	0.063002	0.160154
O8	O	1.445823	0.563002	0.660154
O9	O	0.943954	-0.062907	-0.068017
O10	O	1.443954	0.437093	0.431983
O11	O	0.829673	-0.062906	0.059773
O12	O	1.329673	0.437094	0.559773
O13	O	1.060083	-0.062896	0.032359
O14	O	1.560083	0.437104	0.532359
Cu15	Cu	0.944876	-0.074396	0.046066
Cu16	Cu	1.444876	0.425604	0.546066
Cu17	Cu	0.944902	0.074491	0.046072
Cu18	Cu	1.444902	0.574491	0.546072
O19	O	0.945802	-0.062895	0.160149
O20	O	1.445802	0.437105	0.660149
C21	C	0.800065	0.000041	0.061179
C22	C	1.300065	0.500041	0.561179
C23	C	0.711811	0.000038	0.065352
C24	C	1.211811	0.500038	0.565352
C25	C	0.214500	0.000068	0.096570
C26	C	0.714500	0.500068	0.596570
C27	C	0.297425	0.000067	0.092643
C28	C	0.797425	0.500067	0.592643
C29	C	0.343815	0.000057	0.018931
C30	C	0.843815	0.500057	0.518931
C31	C	0.307278	0.000056	-0.050860
C32	C	0.807278	0.500056	0.449140
C33	C	0.224354	0.000062	-0.046932
C34	C	0.724354	0.500062	0.453068
C35	C	0.592349	0.000043	-0.000510
C36	C	1.092349	0.500043	0.499490
C37	C	0.675278	0.000034	-0.004433
C38	C	1.175278	0.500034	0.495567
C39	C	0.665419	0.000046	0.139071
C40	C	1.165419	0.500046	0.639071
C41	C	0.582495	0.000048	0.142992
C42	C	1.082495	0.500048	0.642992
C43	C	0.545964	0.000051	0.073202
C44	C	1.045964	0.500051	0.573202
N45	N	0.428578	0.000054	0.014915
N46	N	0.928578	0.500054	0.514915
N47	N	0.461203	0.000060	0.077218
N48	N	0.961203	0.500060	0.577218
N49	N	0.944864	-0.179116	0.046061
N50	N	1.444864	0.320884	0.546061
C51	C	0.995487	-0.218726	-0.010500
C52	C	1.495487	0.281274	0.489500
C53	C	0.995491	-0.297974	-0.010504
C54	C	1.495491	0.202026	0.489496
C55	C	0.944881	-0.337608	0.046066
C56	C	1.444881	0.162392	0.546066
C57	C	0.894248	-0.297988	0.102631
C58	C	1.394248	0.202012	0.602631
C59	C	0.894239	-0.218742	0.102628
C60	C	1.394239	0.281258	0.602628
N61	N	0.939175	-0.462023	0.115816
N62	N	1.439175	0.037977	0.615816
N63	N	0.939188	-0.537303	0.115815
N64	N	1.439188	-0.037303	0.615815
C65	C	0.944902	-0.576372	0.046075
C66	C	1.444902	-0.076372	0.546075
N67	N	0.950619	-0.537316	-0.023668
N68	N	1.450619	-0.037316	0.476332
N69	N	0.950610	-0.462028	-0.023667
N70	N	1.450610	0.037972	0.476333
C71	C	0.944884	-0.423537	0.046074
C72	C	1.444884	0.076463	0.546074
C73	C	0.995533	-0.701911	-0.010494
C74	C	1.495533	-0.201911	0.489506
C75	C	0.995532	-0.781160	-0.010499
C76	C	1.495532	-0.281160	0.489501
C77	C	0.894293	-0.781173	0.102642
C78	C	1.394293	-0.281173	0.602642
C79	C	0.894290	-0.701926	0.102640
C80	C	1.394290	-0.201926	0.602640
C81	C	0.944914	-0.662300	0.046073
C82	C	1.444914	-0.162300	0.546073
C83	C	1.089713	0.000055	0.030958
C84	C	1.589713	0.500055	0.530958
C85	C	1.177967	0.000064	0.026785
C86	C	1.677967	0.500064	0.526785
C87	C	0.941589	0.000041	-0.097073
C88	C	1.441589	0.500041	0.402927
C89	C	0.934498	0.000041	-0.183657
C90	C	1.434498	0.500041	0.316343
N91	N	0.944920	0.179211	0.046070
N92	N	1.444920	0.679211	0.546070
C93	C	1.002913	0.000043	-0.238332
C94	C	1.502913	0.500043	0.261668
C95	C	0.996246	0.000050	-0.319686
C96	C	1.496246	0.500050	0.180314
C97	C	0.921163	0.000050	-0.346365
C98	C	1.421163	0.500050	0.153635
C99	C	0.852743	0.000050	-0.291683
C100	C	1.352743	0.500050	0.208317
C101	C	0.859411	0.000049	-0.210331
C102	C	1.359411	0.500049	0.289669
C103	C	0.893527	0.000059	-0.588171
C104	C	1.393527	0.500059	-0.088171
C105	C	0.886865	0.000058	-0.669531
C106	C	1.386865	0.500058	-0.169531
C107	C	1.030368	0.000060	-0.697528
C108	C	1.530368	0.500060	-0.197528
C109	C	1.037029	0.000054	-0.616172
C110	C	1.537029	0.500054	-0.116172
C111	C	0.968609	0.000058	-0.561498
C112	C	1.468609	0.500058	-0.061498
N113	N	0.914346	0.000054	-0.429522
N114	N	1.414346	0.500054	0.070478
N115	N	0.975427	0.000059	-0.478343
N116	N	1.475427	0.500059	0.021657
C117	C	0.948189	0.000055	0.189210
C118	C	1.448189	0.500055	0.689210
C119	C	0.955280	0.000060	0.275795
C120	C	1.455280	0.500060	0.775795
H121	H	0.713048	0.000030	-0.064462
H122	H	1.213048	0.500030	0.435538
H123	H	0.803700	0.000047	-0.165814
H124	H	1.303700	0.500047	0.334186
H125	H	1.036706	-0.186465	-0.056562
H126	H	1.536706	0.313535	0.443438
H127	H	1.051957	0.000050	-0.364200
H128	H	1.551957	0.500050	0.135800
C129	C	0.838561	-0.341579	0.164843
C130	C	1.338561	0.158421	0.664843
H131	H	0.808400	-0.306635	0.198522
H132	H	1.308400	0.193365	0.698522
H133	H	0.869183	-0.372486	0.195524
H134	H	1.369183	0.127514	0.695524
H135	H	0.803724	-0.372499	0.138855
H136	H	1.303724	0.127501	0.638855
C137	C	0.804270	0.000071	-0.698875
C138	C	1.304270	0.500071	-0.198875
H139	H	0.764476	0.000082	-0.654663
H140	H	1.264476	0.500082	-0.154663
H141	H	0.798671	-0.043830	-0.730035
H142	H	1.298671	0.456170	-0.230035
H143	H	0.798708	0.043981	-0.730024
H144	H	1.298708	0.543981	-0.230024
H145	H	1.098170	0.000054	-0.594458
H146	H	1.598170	0.500054	-0.094458
C147	C	1.051221	-0.824732	-0.072717
C148	C	1.551221	-0.324732	0.427283
H149	H	1.081373	-0.789779	-0.106399
H150	H	1.581373	-0.289779	0.393601
H151	H	1.020594	-0.855660	-0.103393
H152	H	1.520594	-0.355660	0.396607
H153	H	1.086068	-0.855631	-0.046739
H154	H	1.586068	-0.355631	0.453261
C155	C	1.105623	0.000066	-0.757669
C156	C	1.605623	0.500066	-0.257669
H157	H	1.090901	0.000074	-0.809942
H158	H	1.590901	0.500074	-0.309942
H159	H	1.136193	-0.043833	-0.750096
H160	H	1.636193	0.456167	-0.250096
H161	H	1.136198	0.043978	-0.750081
H162	H	1.636198	0.543978	-0.250081
C163	C	0.838622	-0.824761	0.164867
C164	C	1.338622	-0.324761	0.664867
H165	H	0.845880	-0.877631	0.156771
H166	H	1.345880	-0.377631	0.656771
H167	H	0.785083	-0.811790	0.159792
H168	H	1.285083	-0.311790	0.659792
H169	H	0.850569	-0.811764	0.216431
H170	H	1.350569	-0.311764	0.716431
H171	H	0.327165	0.000077	0.149470
H172	H	0.827165	0.500077	0.649470
C173	C	0.838621	-0.658349	0.164869
C174	C	1.338621	-0.158349	0.664869
H175	H	0.845862	-0.605477	0.156765
H176	H	1.345862	-0.105477	0.656765
H177	H	0.850571	-0.671329	0.216428
H178	H	1.350571	-0.171329	0.716428
H179	H	0.785078	-0.671349	0.159796
H180	H	1.285078	-0.171349	0.659796
H181	H	0.837815	0.000062	-0.543665
H182	H	1.337815	0.500062	-0.043665
H183	H	0.695172	0.000045	0.195890
H184	H	1.195172	0.500045	0.695890
H185	H	0.176733	0.000070	0.156595
H186	H	0.676733	0.500070	0.656595
H187	H	0.791609	0.000054	-0.313411
H188	H	1.291609	0.500054	0.186589
H189	H	0.544728	0.000058	0.203017
H190	H	1.044728	0.500058	0.703017
H191	H	0.345056	0.000053	-0.110878
H192	H	0.845056	0.500053	0.389122
C193	C	0.552175	0.000033	-0.077276
C194	C	1.052175	0.500033	0.422724
H195	H	0.591683	0.000016	-0.121737
H196	H	1.091683	0.500016	0.378263
H197	H	0.520044	0.043936	-0.078736
H198	H	1.020044	0.543936	0.421264
H199	H	0.520021	-0.043875	-0.078723
H200	H	1.020021	0.456125	0.421277
C201	C	0.184168	0.000056	-0.123695
C202	C	0.684168	0.500056	0.376305
H203	H	0.223672	0.000043	-0.168159
H204	H	0.723672	0.500043	0.331841
H205	H	0.152038	0.043961	-0.125146
H206	H	0.652038	0.543961	0.374854
H207	H	0.152011	-0.043850	-0.125145
H208	H	0.652011	0.456150	0.374855
H209	H	1.036716	-0.330230	-0.056564
H210	H	1.536716	0.169770	0.443436
H211	H	0.853015	-0.186490	0.148687
H212	H	1.353015	0.313510	0.648687
H213	H	1.064053	0.000039	-0.216618
H214	H	1.564053	0.500039	0.283382
C215	C	1.051207	-0.658319	-0.072722
C216	C	1.551207	-0.158319	0.427278
H217	H	1.081349	-0.693263	-0.106417
H218	H	1.581349	-0.193263	0.393583
H219	H	1.086051	-0.627392	-0.046757
H220	H	1.586051	-0.127392	0.453243
H221	H	1.020562	-0.627419	-0.103394
H222	H	1.520562	-0.127419	0.396606
