data_functionalizedCrystal
_audit_creation_method	'MofGen! by Chris Wilmer'
_symmetry_space_group_name_H-M	'P1'
_symmetry_Int_Tables_number	1
_symmetry_cell_setting	triclinic
loop_
_symmetry_equiv_pos_as_xyz
  x,y,z
_cell_length_a	14.853567
_cell_length_b	27.732048
_cell_length_c	13.330367
_cell_angle_alpha	89.990394
_cell_angle_beta	89.995418
_cell_angle_gamma	83.138793
loop_
_atom_site_label
_atom_site_type_symbol
_atom_site_fract_x
_atom_site_fract_y
_atom_site_fract_z
O1	O	1.195342	0.063107	-0.083366
O2	O	0.932760	0.070624	-0.083384
O3	O	1.072207	-0.003493	-0.083355
O4	O	1.055896	0.137224	-0.083395
O5	O	1.072187	-0.003495	0.083492
O6	O	0.932740	0.070622	0.083463
O7	O	1.195322	0.063105	0.083481
Cu8	Cu	1.064029	0.066864	0.098707
Cu9	Cu	1.064053	0.066865	-0.098609
O10	O	1.055876	0.137222	0.083453
C11	C	0.899167	0.070283	0.000037
C12	C	0.799100	0.069262	0.000031
C13	C	0.387353	0.020920	0.000067
C14	C	0.364639	0.108973	0.000041
C15	C	0.458657	0.109933	0.000038
C16	C	0.517028	0.066385	0.000047
C17	C	0.481380	0.021878	0.000061
C18	C	0.494313	0.154439	0.000015
C19	C	0.588336	0.155401	0.000010
C20	C	0.646708	0.111853	0.000027
C21	C	0.611055	0.067344	0.000041
C22	C	0.669425	0.023796	0.000051
C23	C	0.633774	-0.020713	0.000072
C24	C	0.539752	-0.021670	0.000077
C25	C	0.740730	0.112809	0.000021
C26	C	0.763452	0.024755	0.000044
C27	C	1.071854	-0.021503	0.000071
C28	C	1.070823	-0.075162	0.000079
C29	C	1.146736	-0.413622	0.000033
C30	C	1.142911	-0.615300	0.000019
O31	O	1.212328	-0.646231	-0.000020
N32	N	1.060225	-0.634810	0.000014
C33	C	0.978490	-0.603898	0.000006
O34	O	0.908073	-0.625120	-0.000009
C35	C	0.982316	-0.402221	0.000013
C36	C	1.065007	-0.382714	0.000028
C37	C	1.229421	-0.394114	0.000047
C38	C	1.230376	-0.343698	0.000056
C39	C	1.148647	-0.312790	0.000051
C40	C	1.065963	-0.332298	0.000037
C41	C	0.900582	-0.371310	-0.000002
C42	C	0.901546	-0.320888	-0.000003
C43	C	0.984237	-0.301381	0.000012
C44	C	0.985189	-0.250973	0.000041
N45	N	1.067875	-0.231462	0.000046
C46	C	1.149604	-0.262371	0.000051
C47	C	0.976487	-0.709781	0.000004
C48	C	0.975530	-0.760200	0.000004
C49	C	1.139952	-0.771599	0.000015
C50	C	1.140908	-0.721179	0.000022
C51	C	1.059173	-0.690271	0.000009
C52	C	1.151604	-0.156492	0.000071
C53	C	1.152552	-0.106071	0.000084
C54	C	0.988131	-0.094677	0.000068
C55	C	0.987183	-0.145094	0.000060
C56	C	1.068926	-0.176001	0.000058
O57	O	0.915809	-0.220013	0.000069
O58	O	1.220011	-0.241139	0.000044
C59	C	1.145781	-0.464039	0.000024
C60	C	1.063097	-0.483547	0.000010
C61	C	0.981367	-0.452638	0.000005
C62	C	1.062140	-0.533966	0.000010
C63	C	1.143869	-0.564874	0.000015
C64	C	1.226555	-0.545364	0.000020
C65	C	1.227510	-0.494947	0.000029
C66	C	0.898682	-0.472149	0.000000
C67	C	0.897733	-0.522566	-0.000008
C68	C	0.979462	-0.553474	-0.000003
C69	C	1.228915	0.063446	0.000058
C70	C	1.328982	0.064467	0.000057
C71	C	1.056228	0.155232	0.000024
C72	C	1.057259	0.208891	0.000009
N73	N	1.064019	0.066862	0.237488
N74	N	1.064070	0.066863	-0.237391
C75	C	1.002304	0.099672	0.710098
C76	C	1.125827	0.034055	0.710092
C77	C	1.125817	0.034054	0.605074
C78	C	1.064050	0.066862	0.552563
C79	C	1.002294	0.099672	0.605070
C80	C	1.187578	0.001248	0.552558
C81	C	1.187571	0.001246	0.447533
C82	C	1.125799	0.034052	0.395021
C83	C	1.064040	0.066863	0.447535
C84	C	1.002273	0.099671	0.395024
C85	C	0.940509	0.132480	0.447536
C86	C	0.940522	0.132479	0.552557
C87	C	1.125786	0.034053	0.289999
C88	C	1.002263	0.099672	0.289996
H89	H	0.358321	-0.015319	0.000088
H90	H	0.833246	-0.387184	-0.000020
H91	H	0.832126	-0.446987	-0.000006
N92	N	0.935647	0.135059	0.233357
H93	H	0.895990	0.116548	0.189795
H94	H	0.896585	0.155833	0.282621
H95	H	0.317109	0.144427	0.000025
N96	N	0.813387	-0.287552	-0.000022
H97	H	0.760864	-0.307564	-0.000032
H98	H	0.810188	-0.266390	0.061832
N99	N	1.314702	-0.578710	0.000022
H100	H	1.350817	-0.572424	-0.061825
H101	H	1.350735	-0.572424	0.061917
N102	N	1.254174	-0.034138	0.609210
H103	H	1.244265	-0.068453	0.590945
H104	H	1.318054	-0.028473	0.590919
H105	H	0.769753	0.149048	0.000006
N106	N	0.873924	0.167865	0.609205
H107	H	0.883825	0.202181	0.590911
H108	H	0.810044	0.162196	0.590933
N109	N	1.228103	-0.804942	0.000008
H110	H	1.280636	-0.784937	0.000008
H111	H	1.231281	-0.826116	0.061859
N112	N	0.899986	-0.061333	0.000049
H113	H	0.847453	-0.081339	0.000037
H114	H	0.896791	-0.040170	0.061900
N115	N	0.935684	0.135055	0.766727
H116	H	0.945056	0.130077	0.841226
H117	H	0.945613	0.169356	0.748357
H118	H	1.219892	-0.090191	0.000099
H119	H	0.510716	-0.057907	0.000118
H120	H	0.890222	0.159195	0.404769
H121	H	1.218168	-0.181651	0.000066
N122	N	0.696733	-0.067681	0.000075
H123	H	0.761703	-0.060317	0.000063
H124	H	0.685267	-0.087075	0.061937
N125	N	1.319565	-0.322661	0.000069
H126	H	1.371187	-0.349898	0.000068
H127	H	1.323554	-0.301986	-0.061783
N128	N	1.254172	-0.034143	0.390896
H129	H	1.293824	-0.015635	0.347302
H130	H	1.293241	-0.054919	0.440159
H131	H	1.176078	0.007343	0.247249
N132	N	0.431350	0.201401	-0.000012
H133	H	0.391837	0.202954	-0.061862
H134	H	0.391890	0.202937	0.061880
N135	N	0.888320	-0.676452	0.000002
H136	H	0.885042	-0.655284	0.061852
H137	H	0.885100	-0.655305	-0.061889
N138	N	1.192450	-0.001325	0.766722
H139	H	1.183088	0.003654	0.841221
H140	H	1.182516	-0.035627	0.748385
N141	N	0.897998	-0.166138	0.000058
H142	H	0.846369	-0.138905	0.000059
H143	H	0.894028	-0.186799	-0.061803
H144	H	0.617355	0.191643	-0.000007
N145	N	0.826400	-0.022217	0.000063
H146	H	0.815002	-0.041633	-0.061777
H147	H	0.891348	-0.014820	0.000093
H148	H	0.830391	-0.538443	-0.000011
N149	N	1.317579	-0.427447	0.000053
H150	H	1.370096	-0.407431	0.000063
H151	H	1.320757	-0.448617	0.061909
N152	N	1.230094	-0.700140	0.000039
H153	H	1.281719	-0.727376	0.000045
H154	H	1.234086	-0.679466	-0.061814
H155	H	1.294846	-0.479069	0.000041
N156	N	0.886343	-0.781238	0.000015
H157	H	0.834718	-0.754002	0.000013
H158	H	0.882363	-0.801904	-0.061835
