data_functionalizedCrystal
_audit_creation_method	'MofGen! by Chris Wilmer'
_symmetry_space_group_name_H-M	'P1'
_symmetry_Int_Tables_number	1
_symmetry_cell_setting	triclinic
loop_
_symmetry_equiv_pos_as_xyz
  x,y,z
_cell_length_a	14.519709
_cell_length_b	14.971486
_cell_length_c	13.448316
_cell_angle_alpha	89.998199
_cell_angle_beta	90.015021
_cell_angle_gamma	96.352862
loop_
_atom_site_label
_atom_site_type_symbol
_atom_site_fract_x
_atom_site_fract_y
_atom_site_fract_z
O1	O	-0.120184	1.187015	-0.082597
O2	O	-0.134576	0.926623	-0.082626
O3	O	0.006863	1.063723	-0.082583
O4	O	-0.261623	1.049915	-0.082640
O5	O	0.006871	1.063706	0.082801
O6	O	-0.134567	0.926606	0.082758
O7	O	-0.120175	1.186998	0.082787
Cu8	Cu	-0.127371	1.056800	0.097873
Cu9	Cu	-0.127381	1.056820	-0.097712
O10	O	-0.261614	1.049898	0.082744
C11	C	-0.133928	0.893289	0.000063
C12	C	-0.131999	0.793991	0.000053
C13	C	0.041226	1.063071	0.000114
C14	C	0.143606	1.061142	0.000129
C15	C	-0.215091	0.736812	0.000036
C16	C	-0.213273	0.643512	0.000052
C17	C	-0.128363	0.607392	0.000076
C18	C	-0.045265	0.664578	0.000095
C19	C	-0.047084	0.757876	0.000087
C20	C	-0.041480	0.470113	0.000110
C21	C	-0.039661	0.376808	0.000116
C22	C	-0.207669	0.355749	0.000074
C23	C	-0.209488	0.449047	0.000066
C24	C	-0.126390	0.506227	0.000084
C25	C	0.518498	1.054043	0.000155
C26	C	0.414191	1.056015	0.000148
C27	C	0.331056	1.057593	0.000143
C28	C	0.226742	1.059564	0.000134
C29	C	0.704022	1.050550	0.000080
C30	C	0.601642	1.052478	0.000164
C31	C	-0.120823	1.220331	0.000096
C32	C	-0.122752	1.319630	0.000100
N33	N	-0.127363	1.056792	0.235438
N34	N	-0.127381	1.056835	-0.235276
C35	C	-0.064759	1.117519	0.287497
C36	C	-0.064759	1.117525	0.391600
C37	C	-0.127366	1.056807	0.443642
C38	C	-0.189973	0.996074	0.391575
C39	C	-0.189968	0.996065	0.287474
C40	C	-0.189979	0.996099	0.608556
C41	C	-0.189985	0.996109	0.712664
C42	C	-0.064769	1.117559	0.712682
C43	C	-0.064765	1.117549	0.608581
C44	C	-0.127373	1.056817	0.556521
H45	H	-0.284234	0.766213	0.000016
H46	H	-0.013792	1.167009	0.755075
C47	C	-0.258841	0.929280	0.551292
N48	N	-0.310707	0.878953	0.508162
C49	C	-0.304680	0.580619	0.000051
N50	N	-0.373533	0.533248	0.000059
C51	C	-0.258844	0.929268	0.230209
N52	N	-0.310724	0.878954	0.187079
H53	H	0.023871	0.635162	0.000129
H54	H	-0.278629	0.478453	0.000037
C55	C	0.044323	0.820773	0.000102
N56	N	0.113174	0.868146	0.000116
H57	H	-0.275331	0.309188	0.000065
H58	H	-0.240965	0.946665	0.755031
C59	C	0.053745	0.337078	0.000145
N60	N	0.124099	0.307154	0.000166
H61	H	0.026188	0.516667	0.000126
C62	C	0.004116	1.184314	0.230261
N63	N	0.055998	1.234623	0.187153
H64	H	-0.240946	0.946632	0.433954
H65	H	-0.013782	1.166972	0.433987
C66	C	0.004107	1.184342	0.551337
N67	N	0.055984	1.234649	0.508220
