data_functionalizedCrystal
_audit_creation_method	'MofGen! by Chris Wilmer'
_symmetry_space_group_name_H-M	'P1'
_symmetry_Int_Tables_number	1
_symmetry_cell_setting	triclinic
loop_
_symmetry_equiv_pos_as_xyz
  x,y,z
_cell_length_a	20.919309
_cell_length_b	14.395555
_cell_length_c	14.395555
_cell_angle_alpha	60.000749
_cell_angle_beta	89.999957
_cell_angle_gamma	57.442980
loop_
_atom_site_label
_atom_site_type_symbol
_atom_site_fract_x
_atom_site_fract_y
_atom_site_fract_z
Zr1	Zr	0.641785	0.944205	-0.085642
O2	O	0.535419	1.150023	-0.239981
O3	O	0.674389	0.746724	-0.038327
O4	O	0.674394	0.940510	-0.232123
O5	O	0.535413	0.956244	0.106681
O6	O	0.784024	0.928112	-0.225926
O7	O	0.535414	0.956237	-0.046186
O8	O	0.784014	0.581463	0.120738
O9	O	0.535422	1.302892	-0.239983
O10	O	0.770113	0.815610	-0.013526
O11	O	0.688297	0.824868	0.095933
O12	O	0.688303	1.053027	-0.132237
O13	O	0.606488	1.062285	-0.022778
Zr14	Zr	0.816630	0.924442	0.168046
Zr15	Zr	0.816631	0.924431	-0.075760
Zr16	Zr	0.641784	0.944216	0.158163
Zr17	Zr	0.641790	1.188014	-0.085646
Zr18	Zr	0.816625	0.680634	0.168049
O19	O	0.784026	1.121923	0.120731
O20	O	0.784028	1.121907	-0.225929
O21	O	0.535417	1.150039	0.106679
O22	O	0.922996	0.718624	0.322385
O23	O	0.922998	0.718608	-0.024275
O24	O	0.674387	0.746740	0.308332
O25	O	0.923002	0.912403	-0.024278
O26	O	0.784021	0.928137	0.314526
O27	O	0.674391	0.940535	0.308330
O28	O	0.923001	0.912410	0.128589
O29	O	0.674402	1.287175	-0.232128
O30	O	0.784013	0.581472	0.314531
O31	O	0.922993	0.565755	0.322387
O32	O	0.922994	0.565746	0.128594
O33	O	0.535421	1.302901	-0.046191
O34	O	0.674401	1.287184	-0.038335
O35	O	0.770112	0.815620	0.214640
O36	O	0.851927	0.806362	0.105181
O37	O	0.770118	1.043779	-0.013529
O38	O	0.688302	1.053037	0.095929
C39	C	0.729201	0.629356	0.041206
C40	C	0.729199	0.525853	0.041207
C41	C	0.684592	0.470308	0.100893
C42	C	0.652263	0.488216	-0.008209
C43	C	0.761508	0.323552	0.150276
C44	C	0.696825	0.545192	-0.067961
C45	C	0.806113	0.380460	0.090605
C46	C	0.773803	0.398412	-0.018561
C47	C	0.510502	0.959058	0.028840
C48	C	0.436275	0.967452	0.024644
C49	C	0.444105	0.847470	0.084633
C50	C	0.374358	0.855366	0.080688
C51	C	0.296782	0.983245	0.016747
C52	C	0.288954	1.103236	-0.043243
C53	C	0.358700	1.095339	-0.039291
C54	C	0.084058	1.013289	0.001721
C55	C	0.014310	1.021177	-0.002230
C56	C	0.099719	0.773306	0.121704
C57	C	0.169463	0.765420	0.125645
C58	C	0.161629	0.885411	0.065659
C59	C	0.225489	0.991319	0.012711
C60	C	0.232921	0.877336	0.069703
C61	C	0.947913	0.909589	0.053564
C62	C	1.022140	0.901195	0.057759
C63	C	0.729209	0.934310	-0.263762
C64	C	0.729210	0.934305	-0.367264
C65	C	0.729214	1.239291	0.041197
C66	C	0.729216	1.342794	0.041196
C67	C	0.773820	0.804854	-0.363126
C68	C	0.696891	0.875745	-0.460497
C69	C	0.806120	0.863421	-0.454322
C70	C	0.652236	1.005201	-0.463274
C71	C	0.761519	0.992853	-0.457082
C72	C	0.684545	1.063840	-0.554473
C73	C	0.729206	0.934337	0.346165
C74	C	0.729205	0.934342	0.449667
C75	C	0.947907	0.604622	0.053568
C76	C	1.022131	0.492724	0.057765
C77	C	0.729199	0.629370	0.346169
C78	C	0.729197	0.525872	0.449673
C79	C	0.947905	0.604636	0.358531
C80	C	1.022129	0.492743	0.466230
C81	C	0.510510	1.264011	-0.276128
C82	C	0.436286	1.375904	-0.383827
C83	C	0.510508	1.264025	0.028836
C84	C	0.436284	1.375923	0.024639
C85	C	0.729216	1.239277	-0.263766
C86	C	0.729218	1.342775	-0.367269
C87	C	1.014282	0.445003	-0.002239
C88	C	1.084017	0.339877	0.001682
C89	C	1.161601	0.282468	0.065613
C90	C	1.169449	0.330199	0.125618
C91	C	1.099715	0.435330	0.121690
C92	C	1.099700	0.435363	0.459671
C93	C	1.169448	0.330241	0.560856
C94	C	1.161623	0.282493	0.668600
C95	C	1.084045	0.339883	0.675157
C96	C	1.014298	0.445010	0.573972
C97	C	0.358715	1.433295	-0.377267
C98	C	0.288967	1.538448	-0.478453
C99	C	0.296792	1.586201	-0.586197
C100	C	0.374370	1.528805	-0.592753
C101	C	0.444117	1.423661	-0.491569
C102	C	0.444133	1.423654	0.084632
C103	C	0.374398	1.528807	0.080685
C104	C	0.296814	1.586219	0.016750
C105	C	0.288966	1.538483	-0.043250
C106	C	0.358700	1.433340	-0.039309
C107	C	0.684584	0.470332	0.445538
C108	C	0.761514	0.323535	0.542906
C109	C	0.652289	0.488220	0.536737
C110	C	0.806171	0.380370	0.545680
C111	C	0.696891	0.545135	0.539494
C112	C	0.773866	0.398342	0.636882
H113	H	0.587224	0.532755	-0.050000
Cl114	Cl	1.249314	0.150328	0.795794
H115	H	0.871166	0.803467	-0.451544
H116	H	1.106086	0.474224	0.371950
Cl117	Cl	0.916783	0.517125	0.582239
H118	H	0.587248	0.532749	0.533976
Cl119	Cl	0.803712	0.177303	0.546733
H120	H	0.225788	1.585245	-0.095305
Cl121	Cl	0.541625	0.686699	0.165014
H122	H	0.106088	0.675616	0.170541
H123	H	0.811524	0.367200	-0.069113
H124	H	1.077686	0.300991	0.762895
Cl125	Cl	0.348818	1.373339	-0.114729
H126	H	0.951115	0.491744	-0.054312
Cl127	Cl	1.249260	0.150301	0.070541
Cl128	Cl	0.906506	0.311729	0.155165
H129	H	0.380740	0.757664	0.129539
H130	H	1.077611	0.301029	-0.047182
H131	H	0.380732	1.567699	-0.680490
Cl132	Cl	0.626219	1.232981	-0.680715
Cl133	Cl	0.626428	0.518727	0.319109
H134	H	1.232627	0.283442	0.177669
H135	H	0.380804	1.567655	0.129549
Cl136	Cl	0.541659	1.351506	0.165009
Cl137	Cl	0.348857	1.373285	-0.241831
H138	H	0.871245	0.335635	0.548534
Cl139	Cl	0.626285	0.518884	0.178728
H140	H	1.232610	0.283524	0.555497
Cl141	Cl	0.551765	1.097681	-0.467691
Cl142	Cl	1.109597	0.495300	0.197141
H143	H	-0.048857	1.125317	-0.054303
Cl144	Cl	0.831972	0.635868	-0.236695
H145	H	0.507276	1.376933	-0.496923
Cl146	Cl	0.266984	0.604651	0.206031
Cl147	Cl	0.832195	0.350021	0.763121
H148	H	0.788872	1.042293	-0.454562
H149	H	0.225806	1.585163	-0.473092
Cl150	Cl	0.209101	1.718382	-0.713391
H151	H	0.669537	0.639882	0.536961
Cl152	Cl	0.654531	0.691335	-0.210450
Cl153	Cl	0.074200	1.164136	-0.073695
Cl154	Cl	0.803686	0.177352	0.292690
Cl155	Cl	0.191430	1.263999	-0.123618
H156	H	0.352320	1.193041	-0.088126
Cl157	Cl	0.330444	0.716580	0.150093
H158	H	0.162319	1.095438	-0.039350
Cl159	Cl	0.209155	1.718398	0.011810
H160	H	0.669557	0.826258	-0.462973
