data_functionalizedCrystal
_audit_creation_method	'MofGen! by Chris Wilmer'
_symmetry_space_group_name_H-M	'P1'
_symmetry_Int_Tables_number	1
_symmetry_cell_setting	triclinic
loop_
_symmetry_equiv_pos_as_xyz
  x,y,z
_cell_length_a	18.050591
_cell_length_b	18.050589
_cell_length_c	12.759387
_cell_angle_alpha	90.029987
_cell_angle_beta	90.027746
_cell_angle_gamma	90.024669
loop_
_atom_site_label
_atom_site_type_symbol
_atom_site_fract_x
_atom_site_fract_y
_atom_site_fract_z
Zn1	Zn	1.135351	-0.295691	0.594214
Zn2	Zn	1.135244	-0.419899	0.418537
Zn3	Zn	1.011153	-0.295720	0.418528
Zn4	Zn	1.011118	-0.419836	0.594154
O5	O	1.073217	-0.357786	0.506358
O6	O	1.239262	-0.312182	0.570938
O7	O	1.118753	-0.403466	0.271514
O8	O	1.027687	-0.191792	0.441855
O9	O	1.239183	-0.403437	0.441869
O10	O	1.118935	-0.191770	0.570930
O11	O	1.027584	-0.312232	0.271508
O12	O	0.907224	-0.312170	0.441797
O13	O	1.027628	-0.403328	0.741183
O14	O	0.907198	-0.403357	0.570828
O15	O	1.118901	-0.312120	0.741227
O16	O	1.118720	-0.523816	0.441811
O17	O	1.027525	-0.523769	0.570836
C18	C	0.880265	-0.357760	0.506306
C19	C	0.797719	-0.357767	0.506308
C20	C	0.548886	-0.308128	0.436307
C21	C	0.598327	-0.290033	0.532187
C22	C	0.500598	-0.357805	0.506394
C23	C	0.598239	-0.375846	0.410477
C24	C	0.646584	-0.357784	0.506347
C25	C	0.548953	-0.339675	0.602325
C26	C	0.548860	-0.425520	0.480550
C27	C	0.598279	-0.407450	0.576497
C28	C	0.416500	-0.357815	0.506420
C29	C	0.730680	-0.357775	0.506332
C30	C	1.073127	-0.550739	0.506341
C31	C	1.073157	-0.633284	0.506368
C32	C	1.023614	-0.832736	0.576508
C33	C	1.005506	-0.882183	0.480636
C34	C	1.073230	-0.784415	0.506382
C35	C	1.091373	-0.882050	0.602265
C36	C	1.073299	-0.930400	0.506404
C37	C	1.055087	-0.832774	0.410459
C38	C	1.140985	-0.832636	0.532153
C39	C	1.122904	-0.882061	0.436215
C40	C	1.073188	-0.700316	0.506371
C41	C	1.073340	-1.014496	0.506404
C42	C	1.266922	-0.357813	0.506412
C43	C	1.349468	-0.357825	0.506434
C44	C	1.073273	-0.357714	0.780392
C45	C	1.073297	-0.357683	0.897169
C46	C	1.073327	-0.164081	0.506399
C47	C	1.073374	-0.081535	0.506416
C48	C	1.073204	-0.357805	0.233391
C49	C	1.073324	-0.357627	0.116614
C50	C	1.168346	-0.262713	0.897234
C51	C	1.215881	-0.215217	0.952128
C52	C	1.215899	-0.215190	1.061850
C53	C	1.168375	-0.262663	1.116680
C54	C	1.120840	-0.310158	1.061787
C55	C	1.120829	-0.310182	0.952062
C56	C	1.025789	-0.405123	1.061721
C57	C	1.025773	-0.405155	0.951999
C58	C	0.978265	-0.452595	1.116551
C59	C	0.930733	-0.500096	1.061657
C60	C	0.930717	-0.500122	0.951929
C61	C	0.978238	-0.452651	0.897105
H62	H	0.981593	-0.811078	0.635727
H63	H	0.978233	-0.452670	0.807764
H64	H	1.106692	-0.903695	0.683344
Cl65	Cl	0.917087	-0.915783	0.446983
H66	H	1.168388	-0.262630	1.206021
H67	H	1.198239	-0.810859	0.553977
H68	H	1.039702	-0.811219	0.329359
H69	H	0.620042	-0.232757	0.554045
H70	H	1.164892	-0.903582	0.376853
Cl71	Cl	0.515398	-0.243236	0.344944
Cl72	Cl	0.631553	-0.472299	0.668075
H73	H	1.168343	-0.262737	0.807893
H74	H	0.978280	-0.452567	1.205892
Cl75	Cl	0.515283	-0.513920	0.446777
Cl76	Cl	1.275604	-0.155523	0.883194
Cl77	Cl	0.631668	-0.399420	0.285273
H78	H	0.892039	-0.538740	1.106309
Cl79	Cl	0.515670	-0.315997	0.727568
H80	H	1.254602	-0.176510	1.106544
H81	H	0.892000	-0.538791	0.907241
