data_functionalizedCrystal
_audit_creation_method	'MofGen! by Chris Wilmer'
_symmetry_space_group_name_H-M	'P1'
_symmetry_Int_Tables_number	1
_symmetry_cell_setting	triclinic
loop_
_symmetry_equiv_pos_as_xyz
  x,y,z
_cell_length_a	14.446369
_cell_length_b	19.851628
_cell_length_c	19.851628
_cell_angle_alpha	90.005228
_cell_angle_beta	59.995856
_cell_angle_gamma	60.006118
loop_
_atom_site_label
_atom_site_type_symbol
_atom_site_fract_x
_atom_site_fract_y
_atom_site_fract_z
Zr1	Zr	1.013120	-0.088308	0.648948
O2	O	1.206239	-0.195874	0.541378
O3	O	0.820001	-0.055335	0.681928
O4	O	1.013097	-0.195858	0.681926
O5	O	1.013161	0.055499	0.541377
O6	O	1.013079	-0.195845	0.792788
O7	O	1.013143	-0.055350	0.541380
O8	O	0.667666	0.055526	0.792791
O9	O	1.358574	-0.195872	0.541374
O10	O	0.899421	-0.041260	0.778723
O11	O	0.899447	0.041455	0.695986
O12	O	1.126793	-0.123994	0.695984
O13	O	1.126820	-0.041279	0.613246
Zr14	Zr	1.013120	0.088504	0.825754
Zr15	Zr	1.013091	-0.088287	0.825760
Zr16	Zr	1.013149	0.088483	0.648943
Zr17	Zr	1.256077	-0.088306	0.648940
Zr18	Zr	0.770163	0.088502	0.825762
O19	O	1.206239	0.055531	0.792774
O20	O	1.206198	-0.195843	0.792782
O21	O	1.206279	0.055500	0.541371
O22	O	0.820001	0.196070	0.933324
O23	O	0.819961	-0.055304	0.933332
O24	O	0.820042	0.196039	0.681920
O25	O	1.013079	-0.055302	0.933325
O26	O	1.013143	0.196055	0.792776
O27	O	1.013161	0.196041	0.681914
O28	O	1.013097	0.055546	0.933322
O29	O	1.358551	-0.195855	0.681915
O30	O	0.667689	0.196052	0.792787
O31	O	0.667666	0.196069	0.933329
O32	O	0.667643	0.055543	0.933333
O33	O	1.358597	-0.055347	0.541369
O34	O	1.358574	-0.055330	0.681911
O35	O	0.899447	0.124190	0.778718
O36	O	0.899421	0.041475	0.861456
O37	O	1.126793	-0.041258	0.778716
O38	O	1.126820	0.041457	0.695979
C39	C	0.709217	0.000096	0.737361
C40	C	0.606076	0.000095	0.737364
C41	C	0.459743	-0.052329	0.789280
C42	C	0.566668	-0.052105	0.789574
C43	C	0.479227	0.089987	0.775426
C44	C	0.371848	0.089703	0.775804
C45	C	0.546823	-0.036637	0.647313
C46	C	0.655297	-0.038459	0.647457
C47	C	1.013084	-0.221040	0.737358
C48	C	1.013072	-0.296093	0.737360
C49	C	0.889128	-0.432349	0.782471
C50	C	0.951108	-0.499811	0.704675
C51	C	1.013106	-0.433524	0.737352
C52	C	0.951119	-0.499797	0.815132
C53	C	1.013130	-0.566273	0.737351
C54	C	1.075086	-0.499998	0.659511
C55	C	1.075079	-0.499973	0.770023
C56	C	1.137149	-0.567448	0.692182
C57	C	1.013089	-0.357049	0.737354
C58	C	1.013157	-0.642750	0.737341
C59	C	1.317023	0.000101	0.737342
C60	C	1.420164	0.000102	0.737338
C61	C	1.013156	0.000071	0.516187
C62	C	1.013168	0.000062	0.441125
C63	C	1.013156	0.221237	0.737344
C64	C	1.013168	0.296289	0.737342
C65	C	1.137112	-0.045020	0.214667
C66	C	1.075132	-0.077707	0.192309
C67	C	1.013134	0.000086	0.303719
C68	C	1.075121	0.032758	0.192336
C69	C	1.013110	0.000108	0.170987
C70	C	0.951154	-0.032647	0.282349
C71	C	0.951161	0.077861	0.282374
C72	C	0.889091	0.045194	0.260069
C73	C	1.013151	0.000071	0.380181
C74	C	1.013083	0.000122	0.094529
C75	C	1.013084	0.000125	0.958516
C76	C	1.013072	0.000134	1.033577
C77	C	0.709182	0.000123	0.958525
C78	C	0.606028	0.000131	1.033590
C79	C	0.709253	0.221234	0.737354
C80	C	0.606124	0.296286	0.737355
C81	C	0.709217	0.221261	0.958519
C82	C	0.606076	0.296322	1.033581
C83	C	1.317023	-0.221065	0.516184
C84	C	1.420164	-0.296125	0.441122
C85	C	1.317058	0.000074	0.516177
C86	C	1.420212	0.000066	0.441113
C87	C	1.316987	-0.221038	0.737348
C88	C	1.420116	-0.296089	0.737347
C89	C	0.557586	-0.043060	1.025655
C90	C	0.460675	-0.043068	1.096180
C91	C	0.412202	0.000119	1.174637
C92	C	0.460654	0.043310	1.182570
C93	C	0.557569	0.043314	1.112047
C94	C	0.557693	0.374725	0.780541
C95	C	0.460805	0.445251	0.780539
C96	C	0.412343	0.437335	0.737355
C97	C	0.460784	0.358888	0.694164
C98	C	0.557676	0.288364	0.694161
C99	C	0.557625	0.288395	1.112026
C100	C	0.460726	0.358915	1.182562
C101	C	0.412273	0.437362	1.174650
C102	C	0.460733	0.445288	1.096196
C103	C	0.557637	0.374768	1.025663
C104	C	1.468626	-0.288198	0.362676
C105	C	1.565556	-0.358719	0.292140
C106	C	1.614014	-0.437166	0.300052
C107	C	1.565548	-0.445092	0.378506
C108	C	1.468627	-0.374572	0.449040
C109	C	1.468664	0.043249	0.449047
C110	C	1.565602	0.043238	0.378523
C111	C	1.614078	0.000049	0.300065
C112	C	1.565622	-0.043140	0.292132
C113	C	1.468693	-0.043134	0.362655
C114	C	1.468548	-0.288147	0.780539
C115	C	1.565436	-0.358660	0.780555
C116	C	1.613898	-0.437113	0.737372
C117	C	1.565457	-0.445053	0.694179
C118	C	1.468564	-0.374542	0.694169
H119	H	0.281087	0.119114	0.842051
H120	H	1.241941	-0.083219	0.196214
H121	H	1.605016	-0.508972	0.384938
H122	H	1.693004	0.000050	0.242647
C123	C	0.610933	0.202083	0.646664
H124	H	0.675586	0.161208	0.652838
H125	H	0.541340	0.195915	0.667998
H126	H	0.648752	0.195893	0.589841
C127	C	0.407527	0.531532	0.828059
H128	H	0.450254	0.526139	0.853787
H129	H	0.423428	0.560839	0.790790
H130	H	0.316024	0.560842	0.868933
H131	H	0.421312	0.352455	0.659004
C132	C	0.407425	0.350183	1.268850
H133	H	0.450149	0.293361	1.263453
H134	H	0.423314	0.375887	1.298165
H135	H	0.315924	0.375901	1.298160
C136	C	1.618946	-0.090637	0.205826
H137	H	1.683600	-0.084443	0.164968
H138	H	1.656751	-0.147452	0.199624
H139	H	1.549376	-0.069302	0.199637
C140	C	1.415390	-0.090626	0.353918
H141	H	1.458139	-0.116338	0.297089
H142	H	1.431247	-0.131491	0.379631
H143	H	1.323894	-0.053341	0.379627
H144	H	0.898786	-0.060345	0.321046
H145	H	1.429170	-0.381036	0.512912
H146	H	1.692795	-0.494521	0.737387
C147	C	1.415356	0.090762	0.535341
H148	H	1.458116	0.116469	0.529954
H149	H	1.323865	0.131632	0.564651
H150	H	1.431232	0.053489	0.564651
H151	H	1.429105	-0.224273	0.815704
H152	H	0.597062	0.224525	1.118484
H153	H	0.596998	0.078489	1.118519
H154	H	1.605038	0.078410	0.384998
H155	H	0.656007	-0.118299	0.764052
C156	C	0.777542	-0.127921	0.609037
H157	H	0.798511	-0.141724	0.647618
H158	H	0.760492	-0.164223	0.595087
H159	H	0.849056	-0.133000	0.560707
H160	H	0.898694	-0.500441	0.880912
H161	H	0.597140	0.381186	0.815706
H162	H	0.421238	-0.078240	1.089704
H163	H	0.784176	0.083339	0.278677
C164	C	1.618718	-0.349911	0.828058
H165	H	1.575991	-0.293087	0.853759
H166	H	1.602820	-0.375607	0.868939
H167	H	1.710220	-0.375629	0.790773
C168	C	0.305670	0.514927	1.252242
H169	H	0.283751	0.498963	1.300092
H170	H	0.337425	0.546836	1.252256
H171	H	0.230050	0.546825	1.252255
H172	H	0.784302	-0.374509	0.820560
C173	C	0.331377	0.145348	0.728008
H174	H	0.265543	0.145548	0.727912
H175	H	0.298246	0.199952	0.753804
H176	H	0.405377	0.124862	0.672816
H177	H	1.127523	-0.143472	0.153499
C178	C	1.415317	-0.383284	0.646640
H179	H	1.350667	-0.330058	0.652814
H180	H	1.484917	-0.412597	0.589826
H181	H	1.377498	-0.412584	0.667969
C182	C	1.618850	-0.531352	0.646623
H183	H	1.576153	-0.525992	0.620881
H184	H	1.710343	-0.560609	0.605771
H185	H	1.602997	-0.560693	0.683869
C186	C	0.510048	-0.141982	0.754969
H187	H	0.507356	-0.148243	0.708663
H188	H	0.597588	-0.178313	0.738622
H189	H	0.456214	-0.154698	0.796453
H190	H	0.333286	0.000110	1.232056
C191	C	0.880444	0.166681	0.334809
H192	H	0.807178	0.180073	0.387797
H193	H	0.938979	0.170940	0.340517
H194	H	0.851532	0.203832	0.308461
H195	H	0.370076	-0.027069	0.855296
C196	C	0.516050	-0.017673	0.879287
H197	H	0.429977	-0.003760	0.915694
H198	H	0.572148	-0.058204	0.891298
H199	H	0.514770	0.030205	0.886221
C200	C	0.407413	0.531582	1.087504
H201	H	0.342751	0.572439	1.140751
H202	H	0.476971	0.537783	1.058199
H203	H	0.369589	0.537767	1.058212
H204	H	1.127551	0.060380	0.153533
H205	H	0.597052	-0.078238	0.961777
C206	C	0.509289	0.145057	0.726790
H207	H	0.599686	0.113641	0.682736
H208	H	0.458596	0.165479	0.705171
H209	H	0.488152	0.190020	0.762459
C210	C	0.407313	0.090820	1.268876
H211	H	0.342646	0.084635	1.309734
H212	H	0.476862	0.069509	1.275078
H213	H	0.369492	0.147637	1.275065
C214	C	0.427116	0.129999	0.864073
H215	H	0.482464	0.092063	0.878022
H216	H	0.425833	0.178213	0.867630
H217	H	0.340902	0.144389	0.901263
C218	C	0.305756	0.514916	0.737369
H219	H	0.283850	0.562763	0.769283
H220	H	0.337516	0.514925	0.682349
H221	H	0.230125	0.514930	0.760504
H222	H	0.597072	0.381234	0.961791
H223	H	1.429177	-0.224329	0.356218
H224	H	1.127453	-0.499409	0.593702
C225	C	1.278871	-0.645460	0.640569
H226	H	1.322706	-0.645951	0.585342
H227	H	1.323219	-0.645526	0.663300
H228	H	1.278115	-0.693037	0.641211
H229	H	1.692933	-0.494581	0.242612
C230	C	0.600279	-0.124708	0.604359
H231	H	0.545845	-0.139898	0.640934
H232	H	0.601199	-0.126521	0.556198
H233	H	0.686768	-0.162046	0.589466
C234	C	0.698689	0.007773	0.590778
H235	H	0.687297	0.051392	0.621342
H236	H	0.788319	-0.029345	0.546228
H237	H	0.647188	0.029817	0.569812
H238	H	1.605000	-0.352250	0.228267
C239	C	0.513356	0.014701	0.594784
H240	H	0.422668	0.058306	0.627513
H241	H	0.563033	0.037052	0.575240
H242	H	0.533692	-0.019585	0.549200
H243	H	0.898717	-0.500490	0.677037
H244	H	1.127424	-0.499262	0.797680
