data_functionalizedCrystal
_audit_creation_method	'MofGen! by Chris Wilmer'
_symmetry_space_group_name_H-M	'P1'
_symmetry_Int_Tables_number	1
_symmetry_cell_setting	triclinic
loop_
_symmetry_equiv_pos_as_xyz
  x,y,z
_cell_length_a	15.995288
_cell_length_b	17.699083
_cell_length_c	16.176319
_cell_angle_alpha	89.998611
_cell_angle_beta	90.002282
_cell_angle_gamma	96.625101
loop_
_atom_site_label
_atom_site_type_symbol
_atom_site_fract_x
_atom_site_fract_y
_atom_site_fract_z
O1	O	-0.105888	1.004233	-0.068622
O2	O	-0.119665	0.783875	-0.068648
O3	O	0.009127	0.900102	-0.068639
O4	O	-0.234680	0.888006	-0.068632
O5	O	0.009135	0.900086	0.068854
O6	O	-0.119657	0.783859	0.068845
O7	O	-0.105880	1.004217	0.068871
Cu8	Cu	-0.112768	0.894037	0.081412
Cu9	Cu	-0.112777	0.894056	-0.081190
O10	O	-0.234672	0.887990	0.068861
C11	C	0.040326	0.899603	0.000105
C12	C	0.133276	0.898129	0.000096
C13	C	-0.119167	0.755669	0.000095
C14	C	-0.117686	0.671649	0.000084
C15	C	0.303454	0.895406	0.000104
C16	C	0.351089	0.978161	0.000113
C17	C	0.447774	0.976655	0.000428
C18	C	0.471007	0.892726	0.000111
C19	C	0.429793	0.851659	0.078467
C20	C	0.333163	0.853749	0.078529
C21	C	0.332876	0.852542	-0.077832
C22	C	0.429821	0.852554	-0.078858
C23	C	0.565699	0.891207	0.000118
C24	C	0.208761	0.896922	0.000103
C25	C	-0.193284	0.623138	0.000087
C26	C	-0.191888	0.544193	0.000097
C27	C	-0.114892	0.513760	0.000100
C28	C	-0.039289	0.562277	0.000100
C29	C	-0.040686	0.641221	0.000095
C30	C	-0.033652	0.243905	0.000120
C31	C	-0.032260	0.164955	0.000123
C32	C	-0.184853	0.146878	0.000122
C33	C	-0.186251	0.225822	0.000118
C34	C	-0.110647	0.274332	0.000122
C35	C	-0.112162	0.359933	0.000112
C36	C	-0.113376	0.428160	0.000104
C37	C	0.734131	0.888500	0.000116
C38	C	0.641185	0.890004	0.000119
C39	C	-0.106378	1.032423	0.000126
C40	C	-0.107859	1.116443	0.000131
N41	N	-0.112760	0.894029	0.195777
N42	N	-0.112778	0.894069	-0.195555
C43	C	-0.055755	0.945510	0.239046
C44	C	-0.055754	0.945514	0.325593
C45	C	-0.112763	0.894040	0.368870
C46	C	-0.169772	0.842553	0.325595
C47	C	-0.169768	0.842546	0.239050
C48	C	-0.169787	0.842579	0.674624
C49	C	-0.169788	0.842591	0.761175
C50	C	-0.055773	0.945547	0.761167
C51	C	-0.055769	0.945540	0.674621
C52	C	-0.112775	0.894051	0.631354
C53	C	-0.112774	0.894046	0.537510
C54	C	-0.112769	0.894047	0.462712
H55	H	0.332675	1.011418	-0.056076
H56	H	0.458206	0.879826	0.137006
C57	C	0.056925	1.047303	0.316891
C58	C	0.006896	1.002115	0.373153
H59	H	0.095597	1.082252	0.346255
H60	H	0.087013	1.015811	0.283148
H61	H	0.022091	1.074501	0.283124
H62	H	0.041729	0.974912	0.406917
H63	H	-0.023194	1.033611	0.406911
H64	H	0.443767	0.789990	0.081153
C65	C	0.056941	1.047305	0.683308
C66	C	0.006900	1.002119	0.627052
H67	H	0.095635	1.082230	0.653940
H68	H	0.022124	1.074524	0.717053
H69	H	0.087011	1.015803	0.717074
H70	H	-0.023176	1.033620	0.593290
H71	H	0.041721	0.974898	0.593292
C72	C	0.046276	0.740487	0.070771
C73	C	0.042415	0.694545	0.000091
H74	H	0.097584	0.773403	0.070771
H75	H	0.000227	0.769907	0.070763
H76	H	0.043650	0.709306	0.118713
H77	H	0.045035	0.725726	-0.047851
H78	H	0.088476	0.665123	0.000091
C79	C	0.420939	1.047429	0.122306
C80	C	0.485466	1.020003	0.076709
H81	H	0.444210	1.074186	0.169405
H82	H	0.392988	1.080747	0.088803
H83	H	0.381865	1.005950	0.139647
H84	H	0.524537	1.061482	0.059363
H85	H	0.513431	0.986683	0.110218
C86	C	0.505522	0.841560	-0.205648
C87	C	0.466769	0.893036	-0.157131
H88	H	0.528320	0.866555	-0.253975
H89	H	0.549386	0.822886	-0.174913
H90	H	0.465137	0.800333	-0.220973
H91	H	0.507156	0.934261	-0.141801
H92	H	0.422901	0.911722	-0.187873
C93	C	0.332376	0.849948	-0.226239
C94	C	0.305281	0.889328	-0.158035
H95	H	0.315335	0.872662	-0.275749
H96	H	0.391975	0.852088	-0.225211
H97	H	0.308180	0.798386	-0.224018
H98	H	0.329481	0.940889	-0.160253
H99	H	0.245670	0.887195	-0.159064
C100	C	0.117323	0.253834	0.000116
C101	C	0.049451	0.297221	0.000119
H102	H	0.168629	0.286753	0.000110
H103	H	0.114694	0.222668	0.048060
H104	H	0.114683	0.222665	-0.047834
H105	H	0.052087	0.328386	0.048072
H106	H	0.052081	0.328399	-0.047831
C107	C	-0.220411	0.796853	0.458265
C108	C	-0.232440	0.785973	0.373164
H109	H	-0.259107	0.761925	0.487629
H110	H	-0.164547	0.788646	0.472453
H111	H	-0.229437	0.847364	0.472431
H112	H	-0.223409	0.735462	0.358997
H113	H	-0.288318	0.794173	0.358971
C114	C	-0.282481	0.740800	0.752495
C115	C	-0.232450	0.785999	0.808747
H116	H	-0.321159	0.705862	0.781866
H117	H	-0.312563	0.772285	0.718734
H118	H	-0.247649	0.713588	0.718744
H119	H	-0.267282	0.813216	0.842494
H120	H	-0.202366	0.754510	0.842523
H121	H	0.331490	1.010937	0.056183
H122	H	0.314906	0.883330	0.137331
H123	H	0.445041	0.791366	-0.083833
H124	H	-0.216187	0.800624	0.203821
H125	H	0.300980	0.791525	-0.078586
C126	C	0.350297	0.720909	0.085669
C127	C	0.289422	0.771718	0.083035
H128	H	0.323294	0.670269	0.088458
H129	H	0.384062	0.726796	0.037285
H130	H	0.384811	0.731198	0.133060
H131	H	0.254912	0.761433	0.035640
H132	H	0.255643	0.765828	0.131424
H133	H	-0.248948	0.250596	0.000112
H134	H	0.023403	0.537492	0.000114
C135	C	-0.283770	0.826124	0.577305
C136	C	-0.232460	0.785993	0.627075
H137	H	-0.322463	0.791188	0.547947
H138	H	-0.313835	0.857622	0.611063
H139	H	-0.249808	0.856768	0.539143
H140	H	-0.266422	0.755353	0.665242
H141	H	-0.202393	0.754482	0.593314
H142	H	0.476301	1.008924	-0.055727
H143	H	-0.255983	0.647910	0.000084
C144	C	-0.250481	0.017834	0.000140
C145	C	-0.267961	0.093553	0.000129
H146	H	-0.301788	-0.015084	0.000147
H147	H	-0.218911	0.008610	-0.047802
H148	H	-0.218902	0.008621	0.048092
H149	H	-0.299535	0.102767	-0.047827
H150	H	-0.299545	0.102780	0.048076
C151	C	-0.342863	0.534253	0.000084
C152	C	-0.274988	0.490870	0.000096
H153	H	-0.394167	0.501332	0.000080
H154	H	-0.340234	0.565422	0.048025
H155	H	-0.340227	0.565419	-0.047869
H156	H	-0.277621	0.459708	0.048053
H157	H	-0.277618	0.459689	-0.047850
H158	H	-0.009335	0.987429	0.203815
H159	H	0.030442	0.140180	0.000126
H160	H	-0.009354	0.987469	0.796404
