data_functionalizedCrystal
_audit_creation_method	'MofGen! by Chris Wilmer'
_symmetry_space_group_name_H-M	'P1'
_symmetry_Int_Tables_number	1
_symmetry_cell_setting	triclinic
loop_
_symmetry_equiv_pos_as_xyz
  x,y,z
_cell_length_a	16.959447
_cell_length_b	15.297475
_cell_length_c	15.297327
_cell_angle_alpha	91.625546
_cell_angle_beta	80.355411
_cell_angle_gamma	99.680832
loop_
_atom_site_label
_atom_site_type_symbol
_atom_site_fract_x
_atom_site_fract_y
_atom_site_fract_z
Zn1	Zn	-0.728477	-1.278622	0.580754
Zn2	Zn	-0.614641	-1.253167	0.727221
Zn3	Zn	-0.570301	-1.132157	0.555406
Zn4	Zn	-0.720763	-1.106765	0.701788
O5	O	-0.658545	-1.192678	0.641292
O6	O	-0.735161	-1.397811	0.621436
O7	O	-0.498149	-1.237089	0.704465
O8	O	-0.575955	-1.172865	0.436210
O9	O	-0.651526	-1.379110	0.729045
O10	O	-0.692166	-1.280472	0.454834
O11	O	-0.465573	-1.148183	0.578233
O12	O	-0.568475	-1.006222	0.553571
O13	O	-0.832395	-1.129588	0.685697
O14	O	-0.679019	-0.987567	0.661117
O15	O	-0.838063	-1.255851	0.596774
O16	O	-0.644046	-1.212468	0.846406
O17	O	-0.722013	-1.104906	0.827720
C18	C	-0.618099	-0.965115	0.601834
C19	C	-0.600817	-0.867758	0.584975
C20	C	-0.864711	-1.192727	0.641226
C21	C	-0.952566	-1.192748	0.641198
C22	C	-0.687026	-1.153193	0.868845
C23	C	-0.699250	-1.136382	0.966207
C24	C	-1.321101	-1.127129	0.687422
C25	C	-1.326998	-1.258607	0.594826
C26	C	-1.244450	-1.258581	0.594840
C27	C	-1.200224	-1.192828	0.641147
C28	C	-1.238546	-1.127102	0.687440
C29	C	-1.206124	-1.324311	0.548556
C30	C	-1.123571	-1.324287	0.548570
C31	C	-1.079343	-1.258530	0.594872
C32	C	-1.117669	-1.192801	0.641165
C33	C	-1.073443	-1.127049	0.687472
C34	C	-1.111767	-1.061315	0.733761
C35	C	-1.194317	-1.061345	0.733742
C36	C	-0.996792	-1.258500	0.594891
C37	C	-0.990888	-1.127021	0.687490
C38	C	-0.453183	-1.192690	0.641304
C39	C	-0.365327	-1.192882	0.641115
C40	C	-0.699150	-1.421129	0.680905
C41	C	-0.716454	-1.518482	0.697786
C42	C	-0.782064	-0.554513	0.761794
C43	C	-0.798299	-0.645983	0.777641
C44	C	-0.748930	-0.701431	0.729476
C45	C	-0.683322	-0.665401	0.665461
C46	C	-0.667081	-0.573921	0.649618
C47	C	-0.633948	-0.720839	0.617299
C48	C	-0.568340	-0.684809	0.553285
C49	C	-0.552103	-0.593338	0.537444
C50	C	-0.601471	-0.537890	0.585609
C51	C	-0.650189	-0.812319	0.633143
C52	C	-0.535207	-0.831727	0.520966
C53	C	-0.518971	-0.740257	0.505120
C54	C	-0.629975	-1.232340	0.412855
C55	C	-0.617800	-1.249242	0.315509
C56	C	-0.571507	-1.313193	1.279477
C57	C	-0.560018	-1.328987	1.188001
C58	C	-0.594825	-1.280838	1.132548
C59	C	-0.641124	-1.216890	1.168580
C60	C	-0.652609	-1.201089	1.260065
C61	C	-0.675927	-1.168734	1.113136
C62	C	-0.722226	-1.104786	1.149168
C63	C	-0.733710	-1.088988	1.240644
C64	C	-0.698902	-1.137138	1.296096
C65	C	-0.664441	-1.184535	1.021651
C66	C	-0.745543	-1.072431	1.002239
C67	C	-0.757033	-1.056636	1.093715
H68	H	-0.954883	-1.073470	0.725190
H69	H	-0.522321	-1.381052	1.158667
H70	H	-0.465553	-0.710908	0.452999
H71	H	-0.794730	-1.004569	1.123066
Br72	Br	-0.944787	-1.347709	0.532086
Br73	Br	-0.887332	-0.694875	0.864517
H74	H	-0.543166	-1.352384	1.324633
H75	H	-0.822248	-0.509359	0.801009
H76	H	-0.773885	-1.033221	0.957088
Br77	Br	-0.739225	-0.861206	0.720017
H78	H	-1.352307	-1.073608	0.725106
H79	H	-1.092375	-1.377811	0.510878
H80	H	-0.588257	-0.463407	0.572709
Br81	Br	-1.051739	-0.972089	0.796612
H82	H	-1.363013	-1.312144	0.557130
Br83	Br	-0.463056	-0.544439	0.450577
H84	H	-0.495006	-0.876873	0.481747
H85	H	-0.626744	-1.236601	0.992322
H86	H	-0.762154	-0.775910	0.742382
Br87	Br	-0.714070	-1.115312	1.420180
H88	H	-0.771398	-1.036907	1.269976
H89	H	-1.242140	-1.377847	0.510862
Br90	Br	-0.579517	-1.302539	1.008446
H91	H	-1.225529	-1.007831	0.771431
