data_functionalizedCrystal
_audit_creation_method	'MofGen! by Chris Wilmer'
_symmetry_space_group_name_H-M	'P1'
_symmetry_Int_Tables_number	1
_symmetry_cell_setting	triclinic
loop_
_symmetry_equiv_pos_as_xyz
  x,y,z
_cell_length_a	14.044220
_cell_length_b	19.288859
_cell_length_c	17.766277
_cell_angle_alpha	89.993887
_cell_angle_beta	89.995720
_cell_angle_gamma	88.161302
loop_
_atom_site_label
_atom_site_type_symbol
_atom_site_fract_x
_atom_site_fract_y
_atom_site_fract_z
O1	O	1.256993	0.167413	-0.062514
O2	O	1.590327	0.500747	0.270820
O3	O	1.923660	0.834080	0.604153
O4	O	0.981050	0.161372	-0.062533
O5	O	1.314383	0.494705	0.270801
O6	O	1.647717	0.828039	0.604134
O7	O	1.126998	0.063775	-0.062518
O8	O	1.460332	0.397108	0.270815
O9	O	1.793665	0.730441	0.604149
O10	O	1.111045	0.265011	-0.062528
O11	O	1.444379	0.598344	0.270805
O12	O	1.777712	0.931677	0.604139
O13	O	1.126973	0.063767	0.062670
O14	O	1.460306	0.397101	0.396004
O15	O	1.793639	0.730434	0.729337
O16	O	0.981025	0.161365	0.062656
O17	O	1.314358	0.494698	0.395989
O18	O	1.647691	0.828032	0.729323
O19	O	1.256968	0.167406	0.062675
O20	O	1.590301	0.500739	0.396008
O21	O	1.923634	0.834073	0.729342
Cu22	Cu	1.118994	0.164385	0.074096
Cu23	Cu	1.452327	0.497718	0.407429
Cu24	Cu	1.785660	0.831052	0.740763
Cu25	Cu	1.119024	0.164393	-0.073954
Cu26	Cu	1.452357	0.497727	0.259380
Cu27	Cu	1.785691	0.831060	0.592713
O28	O	1.111020	0.265004	0.062660
O29	O	1.444353	0.598337	0.395994
O30	O	1.777686	0.931670	0.729327
C31	C	0.945734	0.158724	0.000059
C32	C	1.279068	0.492058	0.333393
C33	C	1.612401	0.825391	0.666726
C34	C	0.840542	0.150836	0.000052
C35	C	1.173876	0.484170	0.333385
C36	C	1.507209	0.817503	0.666719
C37	C	1.126473	0.037862	0.000076
C38	C	1.459806	0.371195	0.333409
C39	C	1.793140	0.704528	0.666742
C40	C	1.124935	-0.039341	0.000074
C41	C	1.458268	0.293992	0.333408
C42	C	1.791602	0.627326	0.666741
C43	C	1.200167	-0.598548	0.000060
C44	C	1.533500	-0.265215	0.333393
C45	C	1.866833	0.068119	0.666726
C46	C	1.201620	-0.526008	0.000066
C47	C	1.534953	-0.192675	0.333400
C48	C	1.868287	0.140659	0.666733
C49	C	1.115984	-0.486804	0.000060
C50	C	1.449318	-0.153470	0.333393
C51	C	1.782651	0.179863	0.666727
C52	C	1.028889	-0.520145	0.000066
C53	C	1.362222	-0.186811	0.333400
C54	C	1.695555	0.146522	0.666733
C55	C	1.027438	-0.592683	0.000067
C56	C	1.360771	-0.259350	0.333401
C57	C	1.694105	0.073983	0.666734
C58	C	1.052127	-0.369631	-0.043802
C59	C	1.385460	-0.036298	0.289531
C60	C	1.718793	0.297036	0.622865
C61	C	1.053581	-0.297094	-0.043807
C62	C	1.386915	0.036239	0.289526
C63	C	1.720248	0.369573	0.622859
C64	C	1.120456	-0.263070	0.000061
C65	C	1.453789	0.070263	0.333395
C66	C	1.787123	0.403596	0.666728
C67	C	1.185892	-0.301594	0.043926
C68	C	1.519225	0.031740	0.377259
C69	C	1.852559	0.365073	0.710592
C70	C	1.184441	-0.374132	0.043926
C71	C	1.517775	-0.040799	0.377260
C72	C	1.851108	0.292535	0.710593
C73	C	1.117548	-0.408147	0.000060
C74	C	1.450881	-0.074814	0.333393
C75	C	1.784215	0.258519	0.666726
C76	C	1.209122	-0.151082	0.000068
C77	C	1.542455	0.182251	0.333401
C78	C	1.875789	0.515585	0.666734
C79	C	1.210572	-0.078541	0.000079
C80	C	1.543905	0.254793	0.333412
C81	C	1.877238	0.588126	0.666746
C82	C	1.037838	-0.072679	0.000072
C83	C	1.371171	0.260655	0.333405
C84	C	1.704505	0.593988	0.666738
C85	C	1.036391	-0.145218	0.000068
C86	C	1.369724	0.188115	0.333401
C87	C	1.703057	0.521448	0.666734
C88	C	1.122035	-0.184416	0.000062
C89	C	1.455369	0.148917	0.333396
C90	C	1.788702	0.482251	0.666729
C91	C	0.647943	0.136416	0.000068
C92	C	0.981276	0.469749	0.333401
C93	C	1.314610	0.803083	0.666734
C94	C	0.590069	0.192359	0.000068
C95	C	0.923403	0.525693	0.333401
C96	C	1.256736	0.859026	0.666735
C97	C	0.482900	0.184335	0.000077
C98	C	0.816234	0.517669	0.333410
C99	C	1.149567	0.851002	0.666743
C100	C	0.755122	0.144439	0.000059
C101	C	1.088455	0.477772	0.333392
C102	C	1.421789	0.811105	0.666726
C103	C	1.292284	0.170054	0.000081
C104	C	1.625617	0.503387	0.333415
C105	C	1.958950	0.836721	0.666748
C106	C	1.397475	0.177942	0.000084
C107	C	1.730809	0.511275	0.333417
C108	C	2.064142	0.844608	0.666750
C109	C	1.111545	0.290917	0.000065
C110	C	1.444878	0.624250	0.333398
C111	C	1.778211	0.957583	0.666732
C112	C	1.113083	0.368119	0.000062
C113	C	1.446416	0.701453	0.333395
C114	C	1.779749	1.034786	0.666728
N115	N	1.118979	0.164379	0.178226
N116	N	1.452313	0.497712	0.511560
N117	N	1.785646	0.831046	0.844893
N118	N	1.119046	0.164394	-0.178084
N119	N	1.452379	0.497727	0.155249
N120	N	1.785713	0.831061	0.488583
C121	C	1.183626	0.121187	0.217620
C122	C	1.516959	0.454521	0.550953
C123	C	1.850293	0.787854	0.884286
C124	C	1.183632	0.121184	0.296422
C125	C	1.516965	0.454518	0.629755
C126	C	1.850298	0.787851	0.963088
C127	C	1.118999	0.164386	0.335827
C128	C	1.452333	0.497719	0.669160
C129	C	1.785666	0.831053	1.002494
C130	C	1.054341	0.207580	0.296424
C131	C	1.387674	0.540914	0.629758
C132	C	1.721007	0.874247	0.963091
C133	C	1.054331	0.207577	0.217624
C134	C	1.387664	0.540910	0.550957
C135	C	1.720997	0.874244	0.884291
C136	C	1.106311	0.226859	0.460661
C137	C	1.439645	0.560192	0.793995
C138	C	1.772978	0.893525	1.127328
C139	C	1.106328	0.226863	0.539460
C140	C	1.439661	0.560197	0.872794
C141	C	1.772994	0.893530	1.206127
C142	C	1.119025	0.164396	0.578873
C143	C	1.452358	0.497729	0.912207
C144	C	1.785691	0.831063	1.245540
C145	C	1.131725	0.101922	0.539478
C146	C	1.465059	0.435256	0.872811
C147	C	1.798392	0.768589	1.206145
C148	C	1.131715	0.101919	0.460678
C149	C	1.465049	0.435252	0.794011
C150	C	1.798382	0.768586	1.127344
C151	C	1.119003	0.164394	0.421273
C152	C	1.452336	0.497727	0.754606
C153	C	1.785669	0.831061	1.087939
C154	C	1.183681	0.121197	0.703713
C155	C	1.517014	0.454531	1.037046
C156	C	1.850347	0.787864	1.370379
C157	C	1.183680	0.121193	0.782516
C158	C	1.517013	0.454526	1.115849
C159	C	1.850346	0.787860	1.449183
C160	C	1.054393	0.207595	0.782517
C161	C	1.387727	0.540929	1.115850
C162	C	1.721060	0.874262	1.449184
C163	C	1.054390	0.207593	0.703715
C164	C	1.387723	0.540927	1.037049
C165	C	1.721057	0.874260	1.370382
C166	C	1.119039	0.164395	0.664318
C167	C	1.452372	0.497729	0.997651
C168	C	1.785705	0.831062	1.330984
H169	H	1.269906	-0.630458	0.000059
H170	H	1.603239	-0.297125	0.333393
H171	H	1.936572	0.036208	0.666726
H172	H	1.281489	-0.051403	0.000082
H173	H	1.614822	0.281931	0.333416
H174	H	1.948156	0.615264	0.666749
H175	H	1.236265	0.086011	0.185545
H176	H	1.569598	0.419345	0.518878
H177	H	1.902931	0.752678	0.852211
H178	H	0.621008	0.246280	0.000062
H179	H	0.954342	0.579613	0.333395
H180	H	1.287675	0.912947	0.666728
H181	H	0.617006	0.082499	0.000074
H182	H	0.950339	0.415833	0.333408
H183	H	1.283672	0.749166	0.666741
H184	H	1.236276	0.086011	0.328502
H185	H	1.569610	0.419345	0.661835
H186	H	1.902943	0.752678	0.995168
H187	H	1.142054	0.051051	0.428605
H188	H	1.475387	0.384384	0.761939
H189	H	1.808720	0.717717	1.095272
H190	H	0.965477	-0.172358	0.000064
H191	H	1.298811	0.160975	0.333397
H192	H	1.632144	0.494309	0.666731
H193	H	1.001765	0.242768	0.814600
H194	H	1.335098	0.576101	1.147934
H195	H	1.668432	0.909435	1.481267
H196	H	1.272537	-0.498863	0.000065
H197	H	1.605870	-0.165530	0.333398
H198	H	1.939203	0.167803	0.666732
H199	H	0.997657	-0.397326	-0.079520
H200	H	1.330990	-0.063993	0.253814
H201	H	1.664324	0.269341	0.587147
H202	H	0.968112	-0.040759	0.000073
H203	H	1.301445	0.292574	0.333406
H204	H	1.634778	0.625908	0.666740
H205	H	1.237720	-0.405495	0.079643
H206	H	1.571053	-0.072161	0.412977
H207	H	1.904387	0.261172	0.746310
H208	H	1.142064	0.051055	0.571566
H209	H	1.475397	0.384389	0.904900
H210	H	1.808730	0.717722	1.238233
H211	H	1.236319	0.086021	0.671634
H212	H	1.569652	0.419354	1.004967
H213	H	1.902986	0.752687	1.338301
H214	H	1.236320	0.086017	0.814591
H215	H	1.569653	0.419351	1.147924
H216	H	1.902987	0.752684	1.481257
H217	H	0.959164	-0.488220	0.000064
H218	H	1.292497	-0.154886	0.333397
H219	H	1.625830	0.178447	0.666730
H220	H	1.001752	0.242767	0.671639
H221	H	1.335086	0.576100	1.004972
H222	H	1.668419	0.909434	1.338306
H223	H	1.095992	0.277733	0.571530
H224	H	1.429326	0.611067	0.904863
H225	H	1.762659	0.944400	1.238197
H226	H	1.001686	0.242750	0.185549
H227	H	1.335020	0.576083	0.518882
H228	H	1.668353	0.909416	0.852216
H229	H	1.095955	0.277729	0.428578
H230	H	1.429289	0.611063	0.761911
H231	H	1.762622	0.944396	1.095244
H232	H	1.240342	-0.273893	0.079653
H233	H	1.573675	0.059440	0.412986
H234	H	1.907009	0.392773	0.746320
H235	H	1.001715	0.242755	0.328512
H236	H	1.335048	0.576088	0.661845
H237	H	1.668381	0.909421	0.995179
H238	H	1.278859	-0.182998	0.000064
H239	H	1.612192	0.150335	0.333397
H240	H	1.945526	0.483668	0.666730
H241	H	1.000304	-0.265734	-0.079528
H242	H	1.333637	0.067599	0.253805
H243	H	1.666970	0.400933	0.587139
H244	H	0.956521	-0.619822	0.000071
H245	H	1.289855	-0.286489	0.333404
H246	H	1.623188	0.046845	0.666737
