data_functionalizedCrystal
_audit_creation_method	'MofGen! by Chris Wilmer'
_symmetry_space_group_name_H-M	'P1'
_symmetry_Int_Tables_number	1
_symmetry_cell_setting	triclinic
loop_
_symmetry_equiv_pos_as_xyz
  x,y,z
_cell_length_a	14.853567
_cell_length_b	13.448316
_cell_length_c	14.971486
_cell_angle_alpha	90.002892
_cell_angle_beta	83.624530
_cell_angle_gamma	90.001944
loop_
_atom_site_label
_atom_site_type_symbol
_atom_site_fract_x
_atom_site_fract_y
_atom_site_fract_z
O1	O	1.196344	0.082624	0.116777
O2	O	0.933882	0.082641	0.130688
O3	O	1.072148	0.082625	-0.006466
O4	O	1.058078	0.082640	0.253931
O5	O	1.072134	-0.082759	-0.006465
O6	O	0.933868	-0.082743	0.130689
O7	O	1.196330	-0.082760	0.116778
Cu8	Cu	1.065098	-0.097852	0.123734
Cu9	Cu	1.065114	0.097733	0.123732
O10	O	1.058065	-0.082744	0.253932
C11	C	0.900287	-0.000049	0.130058
C12	C	0.800203	-0.000043	0.128169
N13	N	1.065093	-0.235417	0.123734
C14	C	1.010394	-0.712664	0.069374
C15	C	1.010391	-0.608561	0.069371
C16	C	1.065116	-0.556498	0.123725
C17	C	1.119854	-0.608544	0.178077
C18	C	1.119862	-0.712645	0.178074
C19	C	1.119834	-0.391564	0.178080
C20	C	1.119826	-0.287455	0.178085
C21	C	1.010363	-0.287479	0.069378
C22	C	1.010370	-0.391580	0.069375
C23	C	1.065108	-0.443619	0.123729
C24	C	0.387686	-0.000070	0.038712
C25	C	0.366375	-0.000060	0.201655
C26	C	0.460408	-0.000056	0.203431
C27	C	0.518085	-0.000058	0.122846
C28	C	0.481728	-0.000064	0.040486
C29	C	0.496772	-0.000041	0.285790
C30	C	0.590811	-0.000036	0.287569
C31	C	0.648490	-0.000046	0.206984
C32	C	0.612127	-0.000052	0.124620
C33	C	0.669804	-0.000054	0.044035
C34	C	0.633444	-0.000068	-0.038330
C35	C	0.539407	-0.000073	-0.040100
C36	C	0.742527	-0.000040	0.208754
C37	C	0.763847	-0.000048	0.045809
C38	C	1.229926	-0.000068	0.117408
C39	C	1.330009	-0.000068	0.119297
C40	C	1.071512	-0.000067	-0.039791
C41	C	1.069626	-0.000066	-0.139088
N42	N	1.065126	0.235297	0.123725
C43	C	1.150854	-0.000072	-0.196299
C44	C	1.149076	-0.000062	-0.289598
C45	C	1.066071	-0.000053	-0.325686
C46	C	0.984838	-0.000044	-0.268468
C47	C	0.986616	-0.000047	-0.175170
C48	C	0.981137	-0.000040	-0.462931
C49	C	0.979359	-0.000039	-0.556235
C50	C	1.143598	-0.000055	-0.577360
C51	C	1.145376	-0.000058	-0.484062
C52	C	1.064142	-0.000051	-0.426850
C53	C	1.058701	-0.000050	0.287257
C54	C	1.060586	-0.000045	0.386554
H55	H	0.965826	-0.755046	0.025118
Cl56	Cl	0.293867	-0.000043	0.302955
Cl57	Cl	0.941553	-0.543145	0.001070
H58	H	1.215220	-0.000069	-0.336176
Cl59	Cl	1.188675	-0.778066	0.246399
Cl60	Cl	0.875008	-0.000028	-0.601601
Cl61	Cl	0.705962	-0.000063	-0.139631
H62	H	0.965804	-0.433967	0.025120
Cl63	Cl	0.493691	-0.000084	-0.143634
H64	H	0.917253	-0.000030	-0.297857
H65	H	0.810802	-0.000053	-0.019814
H66	H	0.620407	-0.000025	0.354635
H67	H	0.358077	-0.000085	-0.028347
H68	H	0.920472	-0.000042	-0.128589
Cl69	Cl	1.188659	-0.222006	0.246380
Cl70	Cl	0.941549	-0.222060	0.001048
H71	H	0.449806	-0.000029	0.351397
Cl72	Cl	1.249727	-0.000064	-0.438696
H73	H	0.772127	-0.000031	0.275814
Cl74	Cl	1.188651	-0.456983	0.246409
Cl75	Cl	1.255209	-0.000093	-0.150942
H76	H	0.914988	-0.000031	-0.416351
H77	H	1.209742	-0.000058	-0.623946
H78	H	1.164417	-0.566146	0.222328
