data_functionalizedCrystal
_audit_creation_method	'MofGen! by Chris Wilmer'
_symmetry_space_group_name_H-M	'P1'
_symmetry_Int_Tables_number	1
_symmetry_cell_setting	triclinic
loop_
_symmetry_equiv_pos_as_xyz
  x,y,z
_cell_length_a	10.654550
_cell_length_b	10.540514
_cell_length_c	9.130313
_cell_angle_alpha	90.001878
_cell_angle_beta	89.996220
_cell_angle_gamma	84.500032
loop_
_atom_site_label
_atom_site_type_symbol
_atom_site_fract_x
_atom_site_fract_y
_atom_site_fract_z
O1	O	1.667881	0.178297	-0.121909
O2	O	1.302407	0.195284	-0.121884
O3	O	1.493498	0.002079	-0.121899
O4	O	1.476789	0.371502	-0.121894
O5	O	1.493496	0.002084	0.121700
O6	O	1.302404	0.195290	0.121715
O7	O	1.667878	0.178302	0.121690
Cu8	Cu	1.485141	0.186796	0.143945
Cu9	Cu	1.485144	0.186790	-0.144139
O10	O	1.476787	0.371507	0.121705
C11	C	1.255607	0.194040	-0.000082
C12	C	1.116163	0.190308	-0.000073
C13	C	1.492251	-0.045221	-0.000103
C14	C	1.488522	-0.186170	-0.000114
C15	C	1.036707	0.304064	-0.000093
C16	C	0.905685	0.300550	-0.000118
C17	C	0.933588	0.069514	-0.000110
C18	C	1.064607	0.073029	-0.000074
C19	C	1.020597	0.437451	-0.000104
C20	C	0.889575	0.433937	-0.000129
C21	C	1.625188	-0.256924	-0.000119
C22	C	1.621355	-0.403536	0.000444
C23	C	1.414195	-0.378476	0.138739
C24	C	1.418997	-0.231938	0.138846
C25	C	1.416977	-0.231545	-0.138181
C26	C	1.415658	-0.378523	-0.139996
C27	C	1.714678	0.179547	-0.000115
C28	C	1.854122	0.183278	-0.000134
C29	C	1.478034	0.418808	-0.000094
C30	C	1.481763	0.559756	-0.000093
N31	N	1.485148	0.186800	0.346568
N32	N	1.485147	0.186777	-0.346762
C33	C	1.569786	0.101278	0.423213
C34	C	1.569782	0.101263	0.576550
C35	C	1.400500	0.272303	0.576582
C36	C	1.400499	0.272311	0.423248
C37	C	1.667523	0.002533	0.423195
C38	C	1.667520	0.002518	0.576532
H39	H	1.129297	-0.019602	-0.000037
N40	N	1.290514	-0.172230	-0.139888
N41	N	1.199815	-0.239125	-0.136741
H42	H	1.110503	-0.197230	-0.137938
H43	H	1.680622	-0.228426	-0.099678
N44	N	1.781897	0.041328	0.363468
N45	N	1.778870	0.137246	0.282581
H46	H	1.859641	0.164651	0.240387
H47	H	1.679855	-0.226624	0.099213
N48	N	1.293073	-0.171639	0.146314
N49	N	1.274185	-0.052760	0.147738
H50	H	1.185253	-0.010176	0.153027
N51	N	1.687750	-0.455900	0.126017
N52	N	1.737057	-0.384149	0.213519
H53	H	1.783952	-0.421128	0.302211
H54	H	1.674502	-0.446223	-0.099054
N55	N	1.629229	-0.113152	0.636205
N56	N	1.702582	-0.181134	0.717090
H57	H	1.675534	-0.262820	0.759240
H58	H	1.313913	-0.402681	-0.148792
H59	H	1.764037	0.024268	0.618143
H60	H	1.331570	0.341938	0.360845
N61	N	0.880902	-0.050267	-0.000102
N62	N	0.763920	-0.053392	-0.000121
H63	H	0.726710	-0.137990	-0.000115
H64	H	1.468343	-0.203727	0.243016
N65	N	1.057407	0.502839	0.127835
N66	N	0.975897	0.546019	0.217950
H67	H	1.001896	0.592172	0.308323
N68	N	1.065334	0.490727	-0.132044
N69	N	0.989272	0.527687	-0.230880
H70	H	1.020868	0.565310	-0.324067
N71	N	1.474030	-0.192074	-0.270251
N72	N	1.411235	-0.121031	-0.358553
H73	H	1.451540	-0.093156	-0.451821
N74	N	1.640572	-0.119853	0.370945
N75	N	1.636010	-0.140560	0.236339
H76	H	1.616974	-0.226992	0.199433
N77	N	1.285577	-0.406422	0.144719
N78	N	1.242174	-0.472335	0.046493
H79	H	1.151337	-0.492074	0.050712
N80	N	0.832246	0.484509	0.131778
N81	N	0.771160	0.415877	0.211157
H82	H	0.730663	0.451594	0.304310
H83	H	1.465038	-0.419540	-0.242706
N84	N	0.837238	0.496932	-0.128055
N85	N	0.870445	0.456954	-0.252372
H86	H	0.833479	0.501428	-0.342724
N87	N	1.472338	-0.431906	0.268833
N88	N	1.563522	-0.515458	0.259661
H89	H	1.604592	-0.553195	0.351537
H90	H	1.331580	0.341922	0.639032
