data_functionalizedCrystal
_audit_creation_method	'MofGen! by Chris Wilmer'
_symmetry_space_group_name_H-M	'P1'
_symmetry_Int_Tables_number	1
_symmetry_cell_setting	triclinic
loop_
_symmetry_equiv_pos_as_xyz
  x,y,z
_cell_length_a	11.026607
_cell_length_b	15.944545
_cell_length_c	9.482900
_cell_angle_alpha	99.332832
_cell_angle_beta	78.636152
_cell_angle_gamma	96.041094
loop_
_atom_site_label
_atom_site_type_symbol
_atom_site_fract_x
_atom_site_fract_y
_atom_site_fract_z
O1	O	1.629099	0.341445	-0.120926
O2	O	2.129099	0.841445	0.379074
O3	O	1.275790	0.301392	-0.120925
O4	O	1.775790	0.801392	0.379075
O5	O	1.462094	0.200604	-0.120908
O6	O	1.962094	0.700604	0.379092
O7	O	1.442795	0.442233	-0.120943
O8	O	1.942795	0.942233	0.379057
O9	O	1.424251	0.221182	0.120881
O10	O	1.924251	0.721182	0.620881
O11	O	1.237948	0.321970	0.120864
O12	O	1.737948	0.821970	0.620864
O13	O	1.591256	0.362022	0.120863
O14	O	2.091256	0.862022	0.620863
Cu15	Cu	1.411147	0.343875	0.142941
Cu16	Cu	1.911147	0.843875	0.642941
Cu17	Cu	1.455900	0.319540	-0.143003
Cu18	Cu	1.955900	0.819540	0.356997
O19	O	1.404953	0.462811	0.120846
O20	O	1.904953	0.962811	0.620846
C21	C	1.211658	0.304292	-0.000030
C22	C	1.711658	0.804292	0.499970
C23	C	1.076942	0.282266	-0.000028
C24	C	1.576942	0.782266	0.499972
C25	C	1.442372	0.179478	-0.000012
C26	C	1.942372	0.679478	0.499988
C27	C	1.439973	0.085869	-0.000008
C28	C	1.939973	0.585869	0.499992
C29	C	1.003141	0.343085	-0.000038
C30	C	1.503141	0.843085	0.499962
C31	C	0.863906	0.320320	-0.000037
C32	C	1.363906	0.820320	0.499963
C33	C	1.317329	-0.203306	-0.000037
C34	C	1.817329	0.296694	0.499963
C35	C	1.395119	-0.153928	-0.119253
C36	C	1.895119	0.346072	0.380747
C37	C	1.431426	-0.251071	-0.000049
C38	C	1.931426	0.248929	0.499951
C39	C	1.357840	-0.133663	0.119132
C40	C	1.857840	0.366337	0.619132
C41	C	1.435619	-0.085521	-0.000027
C42	C	1.935619	0.414479	0.499973
C43	C	1.509200	-0.202934	-0.119364
C44	C	2.009200	0.297066	0.380636
C45	C	1.471888	-0.182665	0.119129
C46	C	1.971888	0.317335	0.619129
C47	C	1.549766	-0.133310	-0.000116
C48	C	2.049766	0.366690	0.499884
C49	C	1.429007	-0.346440	-0.000064
C50	C	1.929007	0.153560	0.499936
C51	C	1.438048	0.009846	-0.000023
C52	C	1.938048	0.509846	0.499977
C53	C	1.655389	0.359122	-0.000035
C54	C	2.155389	0.859122	0.499965
C55	C	1.790106	0.381148	-0.000046
C56	C	2.290106	0.881148	0.499954
C57	C	1.424675	0.483937	-0.000053
C58	C	1.924675	0.983937	0.499947
C59	C	1.427075	0.577544	-0.000066
C60	C	1.927075	1.077544	0.499934
N61	N	1.379679	0.360992	0.344058
N62	N	1.879679	0.860992	0.844058
N63	N	1.487377	0.302418	-0.344120
N64	N	1.987377	0.802418	0.155880
C65	C	1.446610	0.324583	0.416263
C66	C	1.946610	0.824583	0.916263
C67	C	1.420436	0.338832	0.583678
C68	C	1.920436	0.838832	1.083678
H69	H	1.043036	0.412007	-0.000040
H70	H	1.543036	0.912007	0.499960
H71	H	1.564057	0.260691	0.593762
H72	H	2.064057	0.760691	1.093762
H73	H	0.829993	0.450076	-0.000047
H74	H	1.329993	0.950076	0.499953
H75	H	1.343748	0.380552	0.645796
H76	H	1.843748	0.880552	1.145796
H77	H	1.362708	-0.140855	-0.220041
H78	H	1.862708	0.359145	0.279959
H79	H	0.824021	0.251391	-0.000064
H80	H	1.324021	0.751391	0.499936
H81	H	1.037052	0.213340	-0.000056
H82	H	1.537052	0.713340	0.499944
H83	H	1.219088	-0.233822	-0.000153
H84	H	1.719088	0.266178	0.499847
H85	H	1.573141	-0.233048	-0.220262
H86	H	2.073141	0.266952	0.279738
H87	H	1.302995	0.402709	0.406181
H88	H	1.802995	0.902709	0.906181
H89	H	1.504255	-0.195759	0.219920
H90	H	2.004255	0.304241	0.719920
H91	H	1.293861	-0.103458	0.219917
H92	H	1.793861	0.396542	0.719917
H93	H	1.648112	-0.102959	-0.000184
H94	H	2.148112	0.397041	0.499816
H95	H	1.523285	0.282858	0.354142
H96	H	2.023285	0.782858	0.854142
