data_functionalizedCrystal
_audit_creation_method	'MofGen! by Chris Wilmer'
_symmetry_space_group_name_H-M	'P1'
_symmetry_Int_Tables_number	1
_symmetry_cell_setting	triclinic
loop_
_symmetry_equiv_pos_as_xyz
  x,y,z
_cell_length_a	17.077404
_cell_length_b	18.101395
_cell_length_c	17.077396
_cell_angle_alpha	89.970929
_cell_angle_beta	89.982940
_cell_angle_gamma	90.031329
loop_
_atom_site_label
_atom_site_type_symbol
_atom_site_fract_x
_atom_site_fract_y
_atom_site_fract_z
Zn1	Zn	1.199991	-0.294813	-0.443848
Zn2	Zn	1.199885	-0.418666	-0.312585
Zn3	Zn	1.068728	-0.294843	-0.312596
Zn4	Zn	1.068672	-0.418618	-0.443808
O5	O	1.134319	-0.356735	-0.378209
O6	O	1.309824	-0.311250	-0.426448
O7	O	1.182466	-0.402272	-0.202739
O8	O	1.086209	-0.191206	-0.330029
O9	O	1.309746	-0.402244	-0.330009
O10	O	1.182647	-0.191184	-0.426459
O11	O	1.086106	-0.311300	-0.202748
O12	O	0.958874	-0.311254	-0.329990
O13	O	1.086112	-0.402163	-0.553660
O14	O	0.958832	-0.402192	-0.426391
O15	O	1.182592	-0.311204	-0.553690
O16	O	1.182411	-0.522292	-0.329970
O17	O	1.086010	-0.522257	-0.426379
C18	C	0.930371	-0.356722	-0.378188
C19	C	0.843121	-0.356734	-0.378197
C20	C	0.802130	-0.404156	-0.428312
C21	C	0.720150	-0.404158	-0.428325
C22	C	0.679162	-0.356740	-0.378218
C23	C	0.720159	-0.309312	-0.328100
C24	C	0.802138	-0.309308	-0.328092
C25	C	0.549289	-0.309327	-0.328119
C26	C	0.467304	-0.309333	-0.328126
C27	C	0.467301	-0.404177	-0.428352
C28	C	0.549280	-0.404172	-0.428344
C29	C	0.590271	-0.356745	-0.378225
C30	C	1.134214	-0.549146	-0.378186
C31	C	1.134241	-0.631460	-0.378203
C32	C	1.134413	-0.930551	-0.378245
C33	C	1.073900	-0.899234	-0.439054
C34	C	1.073613	-0.813616	-0.438863
C35	C	1.134328	-0.782168	-0.378225
C36	C	1.111934	-0.813322	-0.295495
C37	C	1.111544	-0.898967	-0.295859
C38	C	1.217452	-0.898893	-0.399437
C39	C	1.216963	-0.813242	-0.401252
C40	C	1.134281	-0.698309	-0.378208
C41	C	1.134458	-1.014410	-0.378256
C42	C	1.339063	-0.356749	-0.378231
C43	C	1.426313	-0.356755	-0.378241
C44	C	1.134358	-0.356675	-0.582954
C45	C	1.134374	-0.356650	-0.670203
C46	C	1.134446	-0.163573	-0.378250
C47	C	1.134500	-0.081259	-0.378267
C48	C	1.184620	-0.403932	-1.046016
C49	C	1.184600	-0.403954	-0.964036
C50	C	1.134425	-0.356597	-0.923053
C51	C	1.084260	-0.309221	-0.964054
C52	C	1.084277	-0.309204	-1.046033
C53	C	1.084231	-0.309259	-0.793184
C54	C	1.084215	-0.309275	-0.711200
C55	C	1.184555	-0.404010	-0.711186
C56	C	1.184571	-0.403992	-0.793165
C57	C	1.134407	-0.356615	-0.834161
C58	C	1.134326	-0.356741	-0.174261
C59	C	1.134461	-0.356558	-0.087012
H60	H	0.835512	-0.270688	-0.287287
Cl61	Cl	0.668621	-0.463777	-0.491330
H62	H	1.225436	-0.442540	-0.930660
H63	H	0.582661	-0.270700	-0.287314
H64	H	1.043433	-0.270626	-1.079411
Cl65	Cl	1.095239	-0.781089	-0.533573
Cl66	Cl	1.247707	-0.463466	-1.097529
Cl67	Cl	1.177839	-0.781876	-0.223633
H68	H	0.433922	-0.442792	-0.469163
H69	H	1.225432	-0.442551	-0.826532
H70	H	1.225400	-0.442586	-0.677803
H71	H	1.264433	-0.791831	-0.360190
H72	H	1.051876	-0.791938	-0.277221
Cl73	Cl	1.095310	-0.930958	-0.534073
H74	H	1.262536	-0.919144	-0.355148
Cl75	Cl	1.021134	-0.249743	-0.659679
H76	H	0.835496	-0.442772	-0.469113
Cl77	Cl	1.021192	-0.249676	-0.912533
Cl78	Cl	1.243039	-0.781801	-0.495253
H79	H	1.012063	-0.793194	-0.424826
H80	H	0.582650	-0.442788	-0.469141
H81	H	1.237869	-0.920440	-0.458736
H82	H	1.012724	-0.920821	-0.425192
Cl83	Cl	0.668631	-0.249696	-0.265112
Cl84	Cl	0.415778	-0.249724	-0.265129
Cl85	Cl	1.017827	-0.929916	-0.268144
H86	H	1.043382	-0.270680	-0.826561
Cl87	Cl	1.176630	-0.930959	-0.223517
