data_functionalizedCrystal
_audit_creation_method	'MofGen! by Chris Wilmer'
_symmetry_space_group_name_H-M	'P1'
_symmetry_Int_Tables_number	1
_symmetry_cell_setting	triclinic
loop_
_symmetry_equiv_pos_as_xyz
  x,y,z
_cell_length_a	10.489741
_cell_length_b	10.654550
_cell_length_c	9.730223
_cell_angle_alpha	90.003749
_cell_angle_beta	89.998920
_cell_angle_gamma	95.487962
loop_
_atom_site_label
_atom_site_type_symbol
_atom_site_fract_x
_atom_site_fract_y
_atom_site_fract_z
O1	O	0.179156	-1.667918	-0.114402
O2	O	0.196226	-1.302447	-0.114380
O3	O	0.002089	-1.493499	-0.114383
O4	O	0.373293	-1.476867	-0.114399
O5	O	0.002094	-1.493497	0.114196
O6	O	0.196231	-1.302445	0.114200
O7	O	0.179161	-1.667916	0.114178
Zn8	Zn	0.187697	-1.485180	0.150481
Zn9	Zn	0.187690	-1.485183	-0.150683
O10	O	0.373298	-1.476864	0.114181
C11	C	-0.045439	-1.492241	-0.000094
C12	C	-0.187067	-1.488483	-0.000096
C13	C	0.194975	-1.255648	-0.000087
C14	C	0.191225	-1.116203	-0.000079
C15	C	0.180412	-1.714715	-0.000118
C16	C	0.184162	-1.854160	-0.000136
C17	C	-0.255148	-1.366923	-0.000099
C18	C	-0.347296	-1.424346	0.112599
C19	C	-0.347276	-1.424377	-0.112763
C20	C	-0.277350	-1.545956	0.112695
C21	C	-0.277319	-1.545970	-0.112768
C22	C	-0.369440	-1.603481	-0.000043
C23	C	0.420826	-1.478122	-0.000111
C24	C	0.562454	-1.481880	-0.000118
N25	N	0.187700	-1.485187	0.356017
C26	C	0.305530	-1.036771	-0.000103
C27	C	0.301999	-0.905748	-0.000127
C28	C	0.069849	-0.933603	-0.000107
C29	C	0.073381	-1.064623	-0.000073
C30	C	0.423374	-1.088351	-0.000109
C31	C	0.537688	-1.008917	-0.000135
C32	C	0.534157	-0.877895	-0.000159
C33	C	0.416312	-0.826306	-0.000156
N34	N	0.187677	-1.485186	-0.356220
C35	C	0.101766	-1.569807	0.427942
C36	C	0.101751	-1.569803	0.571825
C37	C	0.273615	-1.400557	0.571846
C38	C	0.273623	-1.400555	0.427966
C39	C	0.015843	-1.654439	0.355993
C40	C	-0.070097	-1.739066	0.427918
C41	C	-0.070113	-1.739063	0.571801
C42	C	0.015812	-1.654432	0.643759
H43	H	-0.378281	-1.372910	0.207883
O44	O	-0.240468	-1.607383	0.226349
C45	C	-0.178741	-1.713391	0.186130
H46	H	-0.139762	-1.698637	0.077367
H47	H	-0.096388	-1.726242	0.259664
H48	H	-0.250157	-1.801014	0.188836
O49	O	-0.037772	-1.141611	-0.000122
C50	C	-0.142541	-1.067993	-0.000106
H51	H	-0.111037	-0.970524	-0.043403
H52	H	-0.222698	-1.115611	-0.066460
H53	H	-0.178609	-1.058316	0.109552
O54	O	-0.384421	-1.362988	-0.226328
C55	C	-0.518656	-1.361313	-0.225423
H56	H	-0.555577	-1.373437	-0.115574
H57	H	-0.544827	-1.267494	-0.268107
H58	H	-0.564109	-1.441650	-0.291854
O59	O	0.645313	-0.800912	-0.000238
C60	C	0.750075	-0.874540	-0.000199
H61	H	0.718559	-0.972029	-0.043450
H62	H	0.830231	-0.826962	-0.066579
H63	H	0.786150	-0.884167	0.109461
H64	H	0.426262	-1.195034	-0.000096
O65	O	0.015848	-1.654677	0.216227
C66	C	0.042950	-1.774109	0.168162
H67	H	0.017506	-1.847863	0.251074
H68	H	-0.015970	-1.799295	0.071898
H69	H	0.149226	-1.771745	0.142644
O70	O	0.652046	-1.059233	-0.000197
C71	C	0.630657	-1.191908	-0.000140
H72	H	0.531381	-1.221781	-0.043401
H73	H	0.706125	-1.232821	-0.066502
H74	H	0.637170	-1.228407	0.109527
O75	O	0.412944	-0.699022	-0.000419
C76	C	0.475459	-0.647634	-0.118796
H77	H	0.475448	-0.723403	-0.201524
H78	H	0.423082	-0.565992	-0.158551
H79	H	0.578395	-0.611952	-0.092040
H80	H	-0.026095	-0.891588	-0.000127
O81	O	0.357278	-1.318488	0.358148
C82	C	0.483747	-1.340012	0.393328
H83	H	0.485324	-1.440563	0.432879
H84	H	0.547628	-1.326144	0.298705
H85	H	0.520555	-1.270735	0.476845
H86	H	-0.140062	-1.807963	0.369322
H87	H	-0.140097	-1.807961	0.630361
O88	O	-0.240128	-1.607114	-0.226480
C89	C	-0.154146	-1.525287	-0.303710
H90	H	-0.107355	-1.448253	-0.233846
H91	H	-0.077158	-1.580892	-0.350239
H92	H	-0.208394	-1.480551	-0.389495
H93	H	-0.418912	-1.703518	0.000014
O94	O	0.015658	-1.654623	0.783528
C95	C	-0.078647	-1.747429	0.831586
H96	H	-0.100177	-1.822048	0.748671
H97	H	-0.042294	-1.793499	0.927852
H98	H	-0.169724	-1.701786	0.857097
H99	H	0.343573	-1.331655	0.630444
H100	H	-0.205449	-1.266977	0.000020
