data_functionalizedCrystal
_audit_creation_method	'MofGen! by Chris Wilmer'
_symmetry_space_group_name_H-M	'P1'
_symmetry_Int_Tables_number	1
_symmetry_cell_setting	triclinic
loop_
_symmetry_equiv_pos_as_xyz
  x,y,z
_cell_length_a	12.759401
_cell_length_b	12.645330
_cell_length_c	12.759393
_cell_angle_alpha	89.968610
_cell_angle_beta	89.981295
_cell_angle_gamma	90.012807
loop_
_atom_site_label
_atom_site_type_symbol
_atom_site_fract_x
_atom_site_fract_y
_atom_site_fract_z
Zn1	Zn	1.606273	-0.421981	-0.593977
Zn2	Zn	1.606173	-0.599282	-0.418295
Zn3	Zn	1.430574	-0.422034	-0.418316
Zn4	Zn	1.430569	-0.599203	-0.593937
O5	O	1.518397	-0.510625	-0.506131
O6	O	1.753280	-0.445511	-0.570680
O7	O	1.582839	-0.575825	-0.271277
O8	O	1.453924	-0.273679	-0.441644
O9	O	1.753207	-0.575774	-0.441608
O10	O	1.583009	-0.273640	-0.570701
O11	O	1.453827	-0.445601	-0.271292
O12	O	1.283552	-0.445525	-0.441605
O13	O	1.453917	-0.575639	-0.740963
O14	O	1.283549	-0.575690	-0.570632
O15	O	1.583005	-0.445434	-0.740993
O16	O	1.582835	-0.747619	-0.441569
O17	O	1.453820	-0.747561	-0.570612
C18	C	1.245430	-0.510605	-0.506117
C19	C	1.128653	-0.510622	-0.506136
C20	C	1.073817	-0.578508	-0.573209
C21	C	0.964093	-0.578522	-0.573221
C22	C	0.964051	-0.442761	-0.439076
C23	C	1.073773	-0.442743	-0.439071
C24	C	1.128697	-0.646388	-0.640274
C25	C	1.073861	-0.714280	-0.707352
C26	C	0.964137	-0.714293	-0.707364
C27	C	0.909249	-0.646415	-0.640297
C28	C	1.518344	-0.786055	-0.506106
C29	C	1.518418	-0.903885	-0.506131
C30	C	1.599451	-1.071441	-0.424785
C31	C	1.599715	-0.948881	-0.424984
C32	C	1.548446	-0.948258	-0.616875
C33	C	1.549089	-1.070856	-0.616443
C34	C	1.407325	-1.071214	-0.477824
C35	C	1.407858	-0.948610	-0.475340
C36	C	1.792430	-0.510645	-0.506146
C37	C	1.909207	-0.510654	-0.506152
C38	C	1.518472	-0.510522	-0.780165
C39	C	1.518503	-0.510478	-0.896941
C40	C	1.518479	-0.234120	-0.506179
C41	C	1.518513	-0.116289	-0.506200
C42	C	1.451371	-0.442619	-1.061536
C43	C	1.451348	-0.442657	-0.951812
C44	C	1.585695	-0.578258	-0.951801
C45	C	1.585723	-0.578214	-1.061523
C46	C	1.384204	-0.374802	-1.116401
C47	C	1.317014	-0.307020	-1.061549
C48	C	1.316990	-0.307057	-0.951825
C49	C	1.384157	-0.374877	-0.896952
C50	C	1.518383	-0.510651	-0.233164
C51	C	1.518555	-0.510396	-0.116388
H52	H	0.919492	-0.769567	-0.761989
H53	H	0.919353	-0.387498	-0.384473
H54	H	1.347020	-1.100218	-0.537121
H55	H	1.384214	-0.374765	-1.205743
Cl56	Cl	0.771309	-0.646426	-0.640322
H57	H	1.262336	-0.251797	-1.106233
H58	H	1.640377	-0.633474	-0.907115
H59	H	1.385216	-0.919620	-0.393842
Cl60	Cl	1.142715	-0.357399	-0.354748
Cl61	Cl	1.309724	-0.901342	-0.560180
Cl62	Cl	1.726861	-0.903467	-0.453968
H63	H	1.262288	-0.251859	-0.907167
H64	H	1.492720	-1.100519	-0.679193
H65	H	1.580927	-0.918884	-0.342869
H66	H	1.380019	-1.102230	-0.398476
Cl67	Cl	1.674568	-1.114879	-0.653550
H68	H	1.384139	-0.374895	-0.807607
Cl69	Cl	1.266635	-0.646379	-0.640261
Cl70	Cl	1.460195	-0.903268	-0.713041
H71	H	1.640431	-0.633402	-1.106184
H72	H	1.628801	-0.917468	-0.641312
Cl73	Cl	1.142860	-0.799602	-0.791666
Cl74	Cl	1.570817	-1.117084	-0.297630
Cl75	Cl	1.725919	-1.118876	-0.453435
