data_functionalizedCrystal
_audit_creation_method	'MofGen! by Chris Wilmer'
_symmetry_space_group_name_H-M	'P1'
_symmetry_Int_Tables_number	1
_symmetry_cell_setting	triclinic
loop_
_symmetry_equiv_pos_as_xyz
  x,y,z
_cell_length_a	14.395555
_cell_length_b	14.446369
_cell_length_c	14.446369
_cell_angle_alpha	60.000250
_cell_angle_beta	90.003244
_cell_angle_gamma	60.000723
loop_
_atom_site_label
_atom_site_type_symbol
_atom_site_fract_x
_atom_site_fract_y
_atom_site_fract_z
Zr1	Zr	0.894923	1.013195	-0.121472
O2	O	0.746595	1.206313	-0.269290
O3	O	0.940393	0.820076	-0.076152
O4	O	0.940395	1.013185	-0.269271
O5	O	0.746593	1.013212	0.076157
O6	O	1.093269	1.013178	-0.269263
O7	O	0.746593	1.013204	-0.076171
O8	O	1.093265	0.667742	0.076192
O9	O	0.746596	1.358648	-0.269297
O10	O	1.073875	0.899504	-0.056825
O11	O	0.959786	0.899515	0.056850
O12	O	0.959789	1.126876	-0.170523
O13	O	0.845700	1.126887	-0.056848
Zr14	Zr	1.138740	1.013197	0.121487
Zr15	Zr	1.138740	1.013184	-0.121460
Zr16	Zr	0.894923	1.013208	0.121474
Zr17	Zr	0.894926	1.256153	-0.121484
Zr18	Zr	1.138738	0.770239	0.121498
O19	O	1.093270	1.206316	0.076167
O20	O	1.093271	1.206297	-0.269272
O21	O	0.746595	1.206331	0.076149
O22	O	1.287068	0.820079	0.269305
O23	O	1.287069	0.820060	-0.076134
O24	O	0.940392	0.820095	0.269287
O25	O	1.287070	1.013180	-0.076143
O26	O	1.093268	1.013207	0.269286
O27	O	0.940394	1.013214	0.269278
O28	O	1.287070	1.013188	0.076186
O29	O	0.940398	1.358640	-0.269287
O30	O	1.093265	0.667752	0.269302
O31	O	1.287067	0.667744	0.269312
O32	O	1.287067	0.667733	0.076202
O33	O	0.746596	1.358659	-0.076187
O34	O	0.940398	1.358650	-0.076177
O35	O	1.073874	0.899516	0.170538
O36	O	1.187963	0.899505	0.056862
O37	O	1.073877	1.126877	-0.056835
O38	O	0.959788	1.126888	0.056840
C39	C	1.016829	0.709293	0.000021
C40	C	1.016828	0.606151	0.000026
C41	C	0.945217	0.459148	0.072049
C42	C	0.944828	0.566768	0.071758
C43	C	0.964337	0.655142	-0.123512
C44	C	0.963799	0.547910	-0.123138
C45	C	1.140980	0.372690	0.050477
C46	C	1.140798	0.478841	0.052998
C47	C	0.711854	1.013210	-0.000009
C48	C	0.608348	1.013214	-0.000014
C49	C	0.485554	1.137187	-0.061997
C50	C	0.454718	1.075209	-0.106910
C51	C	0.454761	1.075188	0.044890
C52	C	0.578875	0.951235	-0.044990
C53	C	0.578914	0.951232	0.106870
C54	C	0.548152	0.889163	0.061984
C55	C	1.321809	1.013182	0.000024
C56	C	1.425315	1.013178	0.000029
C57	C	1.016832	1.013179	-0.303882
C58	C	1.016832	1.013174	-0.407019
C59	C	1.016834	1.317099	-0.000007
C60	C	1.016835	1.420241	-0.000011
C61	C	1.089144	0.869785	-0.481991
C62	C	1.088831	0.869689	-0.374663
C63	C	0.892867	1.084407	-0.481589
C64	C	0.893264	1.083497	-0.588448
C65	C	1.067483	1.086442	-0.590012
C66	C	1.069991	1.083739	-0.481340
C67	C	1.016831	1.013213	0.303897
C68	C	1.016831	1.013218	0.407034
C69	C	1.321806	0.709279	0.000038
C70	C	1.425312	0.606132	0.000048
C71	C	1.016828	0.709309	0.303911
C72	C	1.016827	0.606173	0.407053
C73	C	1.321806	0.709296	0.303927
C74	C	1.425311	0.606155	0.407074
C75	C	0.711857	1.317096	-0.303912
C76	C	0.608352	1.420237	-0.407060
C77	C	0.711857	1.317113	-0.000023
C78	C	0.608351	1.420260	-0.000033
C79	C	1.016835	1.317083	-0.303896
C80	C	1.016836	1.420219	-0.407038
C81	C	1.644449	0.459813	0.071390
C82	C	1.536840	0.566741	0.071790
C83	C	1.428651	0.479276	0.052350
C84	C	1.536799	0.371894	0.052874
C85	C	1.535422	0.546864	-0.123685
C86	C	1.429081	0.655340	-0.123491
C87	C	0.944523	0.459862	0.482038
C88	C	0.944829	0.566783	0.374705
C89	C	1.140794	0.479314	0.481619
C90	C	1.140405	0.371939	0.588482
C91	C	0.966187	0.546920	0.590051
C92	C	0.963672	0.655390	0.481375
C93	C	1.500561	0.459821	0.625442
C94	C	1.392849	0.566764	0.518205
C95	C	1.500116	0.479302	0.410395
C96	C	1.607357	0.371905	0.518169
C97	C	1.608978	0.546850	0.516822
C98	C	1.499919	0.655341	0.410848
H99	H	0.853255	0.655571	0.036756
H100	H	0.401201	1.127601	-0.197284
F101	F	1.499190	0.342632	0.697305
H102	H	1.197215	0.341984	0.667066
H103	H	1.498228	0.497049	0.679406
H104	H	0.980240	0.370284	0.163244
F105	F	1.043649	0.796568	-0.480636
F106	F	0.648602	0.882820	-0.094766
F107	F	1.535836	0.508375	0.308099
F108	F	1.029209	0.692818	-0.196741
F109	F	0.819381	1.222304	-0.517193
F110	F	0.648865	0.882810	0.224970
H111	H	0.980037	0.530061	0.162727
H112	H	1.607073	0.281159	0.568503
F113	F	1.322274	0.517822	0.521396
F114	F	1.601026	0.598590	-0.180786
F115	F	0.840263	1.017336	-0.588098
F116	F	1.710434	0.332734	0.483343
F117	F	1.501842	0.332732	-0.010679
H118	H	1.429604	0.745827	-0.162561
F119	F	0.452304	1.274206	-0.130612
H120	H	1.012594	0.525936	-0.179745
H121	H	0.573808	0.784246	0.114407
H122	H	1.053702	0.813442	-0.320876
F123	F	1.715224	0.508488	0.025772
H124	H	1.587323	0.281141	0.143903
H125	H	0.873857	0.747452	-0.164205
H126	H	0.872446	0.588609	-0.163556
H127	H	1.538460	0.656089	0.036712
F128	F	1.198283	0.250197	0.167572
F129	F	1.432410	0.428923	0.407592
H130	H	1.350107	0.501523	0.002869
H131	H	1.338396	0.656110	0.519824
H132	H	0.401255	1.127612	0.082850
F133	F	1.325252	0.697329	-0.198848
F134	F	1.208146	0.796628	-0.303705
F135	F	1.716559	0.342620	0.189950
H136	H	1.180665	0.813488	-0.479645
H137	H	0.836452	1.188731	-0.667035
F138	F	0.844287	0.773651	0.414168
F139	F	1.192056	0.427079	0.171958
F140	F	0.839487	1.019747	-0.414144
H141	H	1.180955	0.281184	0.588214
F142	F	1.425855	0.428877	0.170203
F143	F	1.184997	1.026446	-0.595385
F144	F	1.025356	0.697391	0.514729
F145	F	1.614399	0.598554	0.582209
H146	H	1.161324	1.031790	-0.429916
H147	H	1.015044	1.192115	-0.668218
H148	H	1.525536	0.687463	0.331696
H149	H	1.022797	1.188418	-0.506863
F150	F	1.499418	0.514462	-0.193517
F151	F	1.540060	0.517780	0.191065
H152	H	1.198654	0.500338	0.005973
F153	F	0.825513	0.683572	0.303756
H154	H	1.448341	0.745801	0.411409
H155	H	1.687473	0.522049	0.489383
H156	H	0.853004	0.497105	0.479697
F157	F	1.211054	0.338734	-0.017799
H158	H	0.854184	0.494913	0.037340
H159	H	0.979330	0.370194	0.481009
F160	F	0.848674	0.598648	0.595427
F161	F	0.990751	0.517812	0.304401
H162	H	1.181629	0.440752	0.430016
F163	F	1.214280	0.508386	0.517215
F164	F	1.034696	0.514518	0.692295
