data_functionalizedCrystal
_audit_creation_method	'MofGen! by Chris Wilmer'
_symmetry_space_group_name_H-M	'P1'
_symmetry_Int_Tables_number	1
_symmetry_cell_setting	triclinic
loop_
_symmetry_equiv_pos_as_xyz
  x,y,z
_cell_length_a	17.038272
_cell_length_b	17.038272
_cell_length_c	16.098538
_cell_angle_alpha	92.930266
_cell_angle_beta	92.920305
_cell_angle_gamma	88.888444
loop_
_atom_site_label
_atom_site_type_symbol
_atom_site_fract_x
_atom_site_fract_y
_atom_site_fract_z
O1	O	0.167266	-1.052033	-0.069152
O2	O	0.417266	-0.802033	0.180848
O3	O	0.667266	-0.552033	0.430848
O4	O	0.917266	-0.302033	0.680848
O5	O	0.164557	-0.824222	-0.069177
O6	O	0.414557	-0.574222	0.180823
O7	O	0.664557	-0.324222	0.430823
O8	O	0.914557	-0.074222	0.680823
O9	O	0.052006	-0.936773	-0.069158
O10	O	0.302006	-0.686773	0.180842
O11	O	0.552006	-0.436773	0.430842
O12	O	0.802006	-0.186773	0.680842
O13	O	0.279817	-0.939482	-0.069171
O14	O	0.529817	-0.689482	0.180829
O15	O	0.779817	-0.439482	0.430829
O16	O	1.029817	-0.189482	0.680829
O17	O	0.058553	-0.930197	0.069354
O18	O	0.308553	-0.680197	0.319354
O19	O	0.558553	-0.430197	0.569354
O20	O	0.808553	-0.180197	0.819354
O21	O	0.171104	-0.817646	0.069335
O22	O	0.421104	-0.567646	0.319335
O23	O	0.671104	-0.317646	0.569335
O24	O	0.921104	-0.067646	0.819335
O25	O	0.173813	-1.045456	0.069359
O26	O	0.423813	-0.795456	0.319359
O27	O	0.673813	-0.545456	0.569359
O28	O	0.923813	-0.295456	0.819359
Zn29	Zn	0.173498	-0.930507	0.091339
Zn30	Zn	0.423498	-0.680507	0.341339
Zn31	Zn	0.673498	-0.430507	0.591339
Zn32	Zn	0.923498	-0.180507	0.841339
Zn33	Zn	0.164872	-0.939172	-0.091156
Zn34	Zn	0.414872	-0.689172	0.158844
Zn35	Zn	0.664872	-0.439172	0.408844
Zn36	Zn	0.914872	-0.189172	0.658844
O37	O	0.286364	-0.932905	0.069341
O38	O	0.536364	-0.682905	0.319341
O39	O	0.786364	-0.432905	0.569341
O40	O	1.036364	-0.182905	0.819341
C41	C	0.165367	-0.791641	0.000076
C42	C	0.415367	-0.541641	0.250076
C43	C	0.665367	-0.291641	0.500076
C44	C	0.915367	-0.041641	0.750076
C45	C	0.158019	-0.704358	0.000067
C46	C	0.408019	-0.454358	0.250067
C47	C	0.658019	-0.204358	0.500067
C48	C	0.908019	0.045642	0.750067
N49	N	0.179385	-0.924599	0.215887
N50	N	0.429385	-0.674599	0.465887
N51	N	0.679385	-0.424599	0.715887
N52	N	0.929385	-0.174599	0.965887
C53	C	0.025987	-0.931022	0.000097
C54	C	0.275987	-0.681022	0.250097
C55	C	0.525987	-0.431022	0.500097
C56	C	0.775987	-0.181022	0.750097
C57	C	-0.061297	-0.923674	0.000096
C58	C	0.188703	-0.673674	0.250096
C59	C	0.438703	-0.423674	0.500096
C60	C	0.688703	-0.173674	0.750096
C61	C	-0.106906	-0.991137	0.000104
C62	C	0.143094	-0.741137	0.250104
C63	C	0.393094	-0.491137	0.500104
C64	C	0.643094	-0.241137	0.750104
C65	C	-0.188918	-0.984229	0.000096
C66	C	0.061082	-0.734229	0.250096
C67	C	0.311082	-0.484229	0.500096
C68	C	0.561082	-0.234229	0.750096
C69	C	-0.225320	-0.909856	0.000085
C70	C	0.024680	-0.659856	0.250085
C71	C	0.274680	-0.409856	0.500085
C72	C	0.524680	-0.159856	0.750085
C73	C	-0.179705	-0.842388	0.000074
C74	C	0.070295	-0.592388	0.250074
C75	C	0.320295	-0.342388	0.500074
C76	C	0.570295	-0.092388	0.750074
C77	C	-0.097694	-0.849297	0.000077
C78	C	0.152306	-0.599297	0.250077
C79	C	0.402306	-0.349297	0.500077
C80	C	0.652306	-0.099297	0.750077
C81	C	-0.472708	-0.885446	0.000071
C82	C	-0.222708	-0.635446	0.250071
C83	C	0.027292	-0.385446	0.500071
C84	C	0.277292	-0.135446	0.750071
C85	C	-0.554725	-0.878541	0.000071
C86	C	-0.304725	-0.628541	0.250071
C87	C	-0.054725	-0.378541	0.500071
C88	C	0.195275	-0.128541	0.750071
C89	C	-0.563932	-1.020383	0.000091
C90	C	-0.313932	-0.770383	0.250091
C91	C	-0.063932	-0.520383	0.500091
C92	C	0.186068	-0.270383	0.750091
C93	C	-0.481920	-1.027286	0.000098
C94	C	-0.231920	-0.777286	0.250098
C95	C	0.018080	-0.527286	0.500098
C96	C	0.268080	-0.277286	0.750098
C97	C	-0.436312	-0.959818	0.000083
C98	C	-0.186312	-0.709818	0.250083
C99	C	0.063688	-0.459818	0.500083
C100	C	0.313688	-0.209818	0.750083
C101	C	-0.309149	-0.902792	0.000079
C102	C	-0.059149	-0.652792	0.250079
C103	C	0.190851	-0.402792	0.500079
C104	C	0.440851	-0.152792	0.750079
C105	C	-0.352485	-0.966882	0.000084
C106	C	-0.102485	-0.716882	0.250084
C107	C	0.147515	-0.466882	0.500084
C108	C	0.397515	-0.216882	0.750084
C109	C	0.312383	-0.938656	0.000083
C110	C	0.562383	-0.688656	0.250083
C111	C	0.812383	-0.438656	0.500083
C112	C	1.062383	-0.188656	0.750083
C113	C	0.399666	-0.946005	0.000079
C114	C	0.649666	-0.696005	0.250079
C115	C	0.899666	-0.446005	0.500079
C116	C	1.149666	-0.196005	0.750079
C117	C	0.173002	-1.078037	0.000105
C118	C	0.423002	-0.828037	0.250105
C119	C	0.673002	-0.578037	0.500105
C120	C	0.923002	-0.328037	0.750105
C121	C	0.180351	-1.165320	0.000108
C122	C	0.430351	-0.915320	0.250108
C123	C	0.680351	-0.665320	0.500108
C124	C	0.930351	-0.415320	0.750108
C125	C	0.225482	-0.658749	0.000064
C126	C	0.475482	-0.408749	0.250064
C127	C	0.725482	-0.158749	0.500064
C128	C	0.975482	0.091251	0.750064
C129	C	0.218574	-0.576737	0.000075
C130	C	0.468574	-0.326737	0.250075
C131	C	0.718574	-0.076737	0.500075
C132	C	0.968574	0.173263	0.750075
C133	C	0.144201	-0.540335	0.000085
C134	C	0.394201	-0.290335	0.250085
C135	C	0.644201	-0.040335	0.500085
C136	C	0.894201	0.209665	0.750085
C137	C	0.076733	-0.585950	0.000090
C138	C	0.326733	-0.335950	0.250090
C139	C	0.576733	-0.085950	0.500090
C140	C	0.826733	0.164050	0.750090
C141	C	0.083642	-0.667961	0.000084
C142	C	0.333642	-0.417961	0.250084
C143	C	0.583642	-0.167961	0.500084
C144	C	0.833642	0.082039	0.750084
C145	C	0.119792	-0.292946	0.000108
C146	C	0.369792	-0.042946	0.250108
C147	C	0.619792	0.207054	0.500108
C148	C	0.869792	0.457054	0.750108
C149	C	0.112887	-0.210929	0.000112
C150	C	0.362887	0.039071	0.250112
C151	C	0.612887	0.289071	0.500112
C152	C	0.862887	0.539071	0.750112
C153	C	0.254729	-0.201722	0.000098
C154	C	0.504729	0.048278	0.250098
C155	C	0.754729	0.298278	0.500098
C156	C	1.004729	0.548278	0.750098
C157	C	0.261632	-0.283734	0.000088
C158	C	0.511632	-0.033734	0.250088
C159	C	0.761632	0.216266	0.500088
C160	C	1.011632	0.466266	0.750088
C161	C	0.194164	-0.329342	0.000098
C162	C	0.444164	-0.079342	0.250098
C163	C	0.694164	0.170658	0.500098
C164	C	0.944164	0.420658	0.750098
C165	C	0.137138	-0.456505	0.000094
C166	C	0.387138	-0.206505	0.250094
C167	C	0.637138	0.043495	0.500094
C168	C	0.887138	0.293495	0.750094
C169	C	0.201228	-0.413170	0.000094
C170	C	0.451228	-0.163170	0.250094
C171	C	0.701228	0.086830	0.500094
C172	C	0.951228	0.336830	0.750094
N173	N	0.158979	-0.945085	-0.215705
N174	N	0.408979	-0.695085	0.034295
N175	N	0.658979	-0.445085	0.284295
N176	N	0.908979	-0.195085	0.534295
C177	C	0.131633	-0.972390	0.259480
C178	C	0.381633	-0.722390	0.509480
C179	C	0.631633	-0.472390	0.759480
C180	C	0.881633	-0.222390	1.009480
C181	C	0.135759	-0.968265	0.346668
C182	C	0.385759	-0.718265	0.596668
C183	C	0.635759	-0.468265	0.846668
C184	C	0.885759	-0.218265	1.096668
C185	C	0.187642	-0.916352	0.390262
C186	C	0.437642	-0.666352	0.640262
C187	C	0.687642	-0.416352	0.890262
C188	C	0.937642	-0.166352	1.140262
C189	C	0.235395	-0.868556	0.346663
C190	C	0.485395	-0.618556	0.596663
C191	C	0.735395	-0.368556	0.846663
C192	C	0.985395	-0.118556	1.096663
C193	C	0.231265	-0.872678	0.259476
C194	C	0.481265	-0.622678	0.509476
C195	C	0.731265	-0.372678	0.759476
C196	C	0.981265	-0.122678	1.009476
C197	C	0.202602	-0.901410	0.653510
C198	C	0.452602	-0.651410	0.903510
C199	C	0.702602	-0.401410	1.153510
C200	C	0.952602	-0.151410	1.403510
C201	C	0.206731	-0.897294	0.740702
C202	C	0.456731	-0.647294	0.990702
C203	C	0.706731	-0.397294	1.240702
C204	C	0.956731	-0.147294	1.490702
C205	C	0.107093	-0.997003	0.740702
C206	C	0.357093	-0.747003	0.990702
C207	C	0.607093	-0.497003	1.240702
C208	C	0.857093	-0.247003	1.490702
C209	C	0.102971	-1.001123	0.653513
C210	C	0.352971	-0.751123	0.903513
C211	C	0.602971	-0.501123	1.153513
C212	C	0.852971	-0.251123	1.403513
C213	C	0.150721	-0.953324	0.609922
C214	C	0.400721	-0.703324	0.859922
C215	C	0.650721	-0.453324	1.109922
C216	C	0.900721	-0.203324	1.359922
C217	C	0.191862	-0.912136	0.479383
C218	C	0.441862	-0.662136	0.729383
C219	C	0.691862	-0.412136	0.979383
C220	C	0.941862	-0.162136	1.229383
C221	C	0.146496	-0.957536	0.520803
C222	C	0.396496	-0.707536	0.770803
C223	C	0.646496	-0.457536	1.020803
C224	C	0.896496	-0.207536	1.270803
H225	H	-0.077274	-1.051699	0.000118
H226	H	0.172726	-0.801699	0.250118
H227	H	0.422726	-0.551699	0.500118
H228	H	0.672726	-0.301699	0.750118
H229	H	-0.226050	-1.039165	0.000104
H230	H	0.023950	-0.789165	0.250104
H231	H	0.273950	-0.539165	0.500104
H232	H	0.523950	-0.289165	0.750104
Cl233	Cl	-0.016765	-0.540188	0.000107
Cl234	Cl	0.233235	-0.290188	0.250107
Cl235	Cl	0.483235	-0.040188	0.500107
Cl236	Cl	0.733235	0.209812	0.750107
Cl237	Cl	-0.415384	-0.800628	0.000050
Cl238	Cl	-0.165384	-0.550628	0.250050
Cl239	Cl	0.084616	-0.300628	0.500050
Cl240	Cl	0.334616	-0.050628	0.750050
H241	H	-0.601075	-1.075312	0.000101
H242	H	-0.351075	-0.825312	0.250101
H243	H	-0.101075	-0.575312	0.500101
H244	H	0.148925	-0.325312	0.750101
H245	H	0.089389	-1.014666	0.223992
H246	H	0.339389	-0.764666	0.473992
H247	H	0.589389	-0.514666	0.723992
H248	H	0.839389	-0.264666	0.973992
Cl249	Cl	-0.225468	-0.748890	0.000051
Cl250	Cl	0.024532	-0.498890	0.250051
Cl251	Cl	0.274532	-0.248890	0.500051
Cl252	Cl	0.524532	0.001110	0.750051
Cl253	Cl	0.043643	-0.410737	0.000102
Cl254	Cl	0.293643	-0.160737	0.250102
Cl255	Cl	0.543643	0.089263	0.500102
Cl256	Cl	0.793643	0.339263	0.750102
H257	H	0.028706	-0.705095	0.000086
H258	H	0.278706	-0.455095	0.250086
H259	H	0.528706	-0.205095	0.500086
H260	H	0.778706	0.044905	0.750086
H261	H	0.261782	-0.442811	0.000091
H262	H	0.511782	-0.192811	0.250091
H263	H	0.761782	0.057189	0.500091
H264	H	1.011782	0.307189	0.750091
H265	H	0.096876	-1.007180	0.382161
H266	H	0.346876	-0.757180	0.632161
H267	H	0.596876	-0.507180	0.882161
H268	H	0.846876	-0.257180	1.132161
H269	H	0.060724	-1.043394	0.618021
H270	H	0.310724	-0.793394	0.868021
H271	H	0.560724	-0.543394	1.118021
H272	H	0.810724	-0.293394	1.368021
Cl273	Cl	0.291296	-0.812591	0.204674
Cl274	Cl	0.541296	-0.562591	0.454674
Cl275	Cl	0.791296	-0.312591	0.704674
Cl276	Cl	1.041296	-0.062591	0.954674
H277	H	0.068216	-1.035918	0.776202
H278	H	0.318216	-0.785918	1.026202
H279	H	0.568216	-0.535918	1.276202
H280	H	0.818216	-0.285918	1.526202
Cl281	Cl	0.300616	-0.803289	0.401465
Cl282	Cl	0.550616	-0.553289	0.651465
Cl283	Cl	0.800616	-0.303289	0.901465
Cl284	Cl	1.050616	-0.053289	1.151465
Cl285	Cl	0.081272	-1.022793	0.465999
Cl286	Cl	0.331272	-0.772793	0.715999
Cl287	Cl	0.581272	-0.522793	0.965999
Cl288	Cl	0.831272	-0.272793	1.215999
Cl289	Cl	-0.040357	-0.764483	0.000064
Cl290	Cl	0.209643	-0.514483	0.250064
Cl291	Cl	0.459643	-0.264483	0.500064
Cl292	Cl	0.709643	-0.014483	0.750064
Cl293	Cl	-0.306721	-1.060377	0.000093
Cl294	Cl	-0.056721	-0.810377	0.250093
Cl295	Cl	0.193279	-0.560377	0.500093
Cl296	Cl	0.443279	-0.310377	0.750093
Cl297	Cl	0.271962	-0.832027	0.795500
Cl298	Cl	0.521962	-0.582027	1.045500
Cl299	Cl	0.771962	-0.332027	1.295500
Cl300	Cl	1.021962	-0.082027	1.545500
Cl301	Cl	0.262633	-0.841325	0.598715
Cl302	Cl	0.512633	-0.591325	0.848715
Cl303	Cl	0.762633	-0.341325	1.098715
Cl304	Cl	1.012633	-0.091325	1.348715
Cl305	Cl	0.257087	-0.846878	0.534190
Cl306	Cl	0.507087	-0.596878	0.784190
Cl307	Cl	0.757087	-0.346878	1.034190
Cl308	Cl	1.007087	-0.096878	1.284190
H309	H	-0.584359	-0.817975	0.000075
H310	H	-0.334359	-0.567975	0.250075
H311	H	-0.084359	-0.317975	0.500075
H312	H	0.165641	-0.067975	0.750075
H313	H	-0.452287	-1.087848	0.000107
H314	H	-0.202287	-0.837848	0.250107
H315	H	0.047713	-0.587848	0.500107
H316	H	0.297713	-0.337848	0.750107
H317	H	-0.338796	-0.842238	0.000072
H318	H	-0.088796	-0.592238	0.250072
H319	H	0.161204	-0.342238	0.500072
H320	H	0.411204	-0.092238	0.750072
H321	H	0.286045	-0.688381	0.000056
H322	H	0.536045	-0.438381	0.250056
H323	H	0.786045	-0.188381	0.500056
H324	H	1.036045	0.061619	0.750056
Cl325	Cl	0.303390	-0.519403	0.000066
Cl326	Cl	0.553390	-0.269403	0.250066
Cl327	Cl	0.803390	-0.019403	0.500066
Cl328	Cl	1.053390	0.230597	0.750066
H329	H	0.052321	-0.181294	0.000118
H330	H	0.302321	0.068706	0.250118
H331	H	0.552321	0.318706	0.500118
H332	H	0.802321	0.568706	0.750118
H333	H	0.322194	-0.313367	0.000070
H334	H	0.572194	-0.063367	0.250070
H335	H	0.822194	0.186633	0.500070
H336	H	1.072194	0.436633	0.750070
H337	H	0.309658	-0.164579	0.000092
H338	H	0.559658	0.085421	0.250092
H339	H	0.809658	0.335421	0.500092
H340	H	1.059658	0.585421	0.750092
H341	H	0.064854	-0.330070	0.000117
H342	H	0.314854	-0.080070	0.250117
H343	H	0.564854	0.169930	0.500117
H344	H	0.814854	0.419930	0.750117
