data_functionalizedCrystal
_audit_creation_method	'MofGen! by Chris Wilmer'
_symmetry_space_group_name_H-M	'P1'
_symmetry_Int_Tables_number	1
_symmetry_cell_setting	triclinic
loop_
_symmetry_equiv_pos_as_xyz
  x,y,z
_cell_length_a	19.805407
_cell_length_b	16.120297
_cell_length_c	19.805405
_cell_angle_alpha	87.131250
_cell_angle_beta	89.974343
_cell_angle_gamma	92.872735
loop_
_atom_site_label
_atom_site_type_symbol
_atom_site_fract_x
_atom_site_fract_y
_atom_site_fract_z
Zn1	Zn	1.015332	-0.471487	0.288903
Zn2	Zn	1.020985	-0.332069	0.396352
Zn3	Zn	0.907884	-0.332078	0.283181
Zn4	Zn	0.902113	-0.471420	0.402052
O5	O	0.961579	-0.401763	0.342622
O6	O	1.110798	-0.453017	0.303166
O7	O	1.010762	-0.215408	0.376560
O8	O	0.922187	-0.350602	0.189225
O9	O	1.114950	-0.350587	0.382108
O10	O	1.001129	-0.453025	0.193429
O11	O	0.927668	-0.215415	0.293413
O12	O	0.812403	-0.350538	0.298940
O13	O	0.912351	-0.588091	0.391822
O14	O	0.808163	-0.452912	0.386274
O15	O	0.995533	-0.588140	0.308693
O16	O	1.005166	-0.350523	0.491823
O17	O	0.917832	-0.452903	0.496011
C18	C	0.785724	-0.401719	0.342605
C19	C	0.710492	-0.401720	0.342615
C20	C	0.246511	-0.455039	0.388177
C21	C	0.317200	-0.455022	0.388175
C22	C	0.354727	-0.401796	0.342640
C23	C	0.321563	-0.348579	0.297108
C24	C	0.250875	-0.348593	0.297114
C25	C	0.606638	-0.348520	0.297085
C26	C	0.677331	-0.348512	0.297081
C27	C	0.672963	-0.454949	0.388146
C28	C	0.602276	-0.454963	0.388152
C29	C	0.569117	-0.401743	0.342623
C30	C	0.492468	-0.401762	0.342626
C31	C	0.431375	-0.401781	0.342632
C32	C	0.952668	-0.619210	0.351532
C33	C	0.948870	-0.711873	0.355328
C34	C	0.941913	-0.881529	0.362245
C35	C	0.981378	-0.922849	0.322796
C36	C	0.977506	-1.017252	0.326645
C37	C	0.945783	-0.787118	0.358397
C38	C	1.138119	-0.401809	0.342640
C39	C	1.213351	-0.401828	0.342647
C40	C	0.961504	-0.401723	0.518476
C41	C	0.961533	-0.401734	0.593709
C42	C	0.970494	-0.185163	0.333698
C43	C	0.974422	-0.092500	0.329711
C44	C	0.961671	-0.401822	0.166082
C45	C	0.961710	-0.401847	0.090851
C46	C	1.007048	-0.348480	0.626852
C47	C	1.007076	-0.348498	0.697542
C48	C	0.961585	-0.401767	0.735086
C49	C	0.916068	-0.455027	0.701937
C50	C	0.916044	-0.455012	0.631250
C51	C	0.916165	-0.455088	0.987013
C52	C	0.916192	-0.455097	1.057706
C53	C	1.007197	-0.348575	1.053305
C54	C	1.007173	-0.348560	0.982617
C55	C	0.961659	-0.401823	0.949475
C56	C	0.961630	-0.401803	0.872826
C57	C	0.961610	-0.401783	0.811733
H58	H	0.352123	-0.305238	0.260035
N59	N	1.053573	-0.294091	0.731381
N60	N	1.052286	-0.217157	0.720362
H61	H	1.085129	-0.178730	0.744259
H62	H	0.699970	-0.498281	0.425220
H63	H	1.044213	-0.305181	0.952051
N64	N	0.895885	-0.926077	0.408245
N65	N	0.900725	-0.916428	0.470316
H66	H	0.868216	-0.947895	0.502803
H67	H	1.018071	-0.887326	0.286132
N68	N	1.053515	-0.294054	0.588515
N69	N	1.094150	-0.246510	0.618120
H70	H	1.126970	-0.208071	0.591046
H71	H	1.044259	-0.305209	1.080298
H72	H	0.879149	-0.498481	1.088273
H73	H	0.579649	-0.305182	0.260015
H74	H	0.879105	-0.498455	0.960035
N75	N	0.869610	-0.509442	0.740296
N76	N	0.869638	-0.509449	0.803409
H77	H	0.836825	-0.547881	0.830500
N78	N	0.869560	-0.509420	0.597392
N79	N	0.870854	-0.586354	0.608408
H80	H	0.838027	-0.624785	0.584497
N81	N	0.208190	-0.509421	0.434690
N82	N	0.237810	-0.556926	0.475339
H83	H	0.210749	-0.595334	0.508192
N84	N	0.351061	-0.509379	0.434689
N85	N	0.317547	-0.556900	0.475339
H86	H	0.341461	-0.595292	0.508193
H87	H	0.571724	-0.498308	0.425229
H88	H	0.707884	-0.305167	0.259998
H89	H	0.223877	-0.305264	0.260037
