data_functionalizedCrystal
_audit_creation_method	'MofGen! by Chris Wilmer'
_symmetry_space_group_name_H-M	'P1'
_symmetry_Int_Tables_number	1
_symmetry_cell_setting	triclinic
loop_
_symmetry_equiv_pos_as_xyz
  x,y,z
_cell_length_a	6.817900
_cell_length_b	11.102288
_cell_length_c	11.102300
_cell_angle_alpha	91.947187
_cell_angle_beta	108.605850
_cell_angle_gamma	108.605689
loop_
_atom_site_label
_atom_site_type_symbol
_atom_site_fract_x
_atom_site_fract_y
_atom_site_fract_z
V1	V	-4.111530	-0.175839	-0.396257
O2	O	-4.070563	0.008450	-0.388713
O3	O	-4.088307	-0.348659	-0.393547
O4	O	-4.088311	-0.173134	-0.569078
O5	O	-4.070559	-0.168290	-0.211967
V6	V	-4.588633	-0.153796	-0.374214
O7	O	-4.386872	-0.224192	-0.444609
O8	O	-4.763488	-0.105442	-0.325862
O9	O	-4.388649	0.019025	-0.376924
O10	O	-4.746997	-0.338085	-0.381757
O11	O	-4.747001	-0.161344	-0.558503
O12	O	-4.388645	-0.156501	-0.201393
C13	C	-3.938618	-0.390789	-0.387295
C14	C	-4.001085	-0.532072	-0.386232
C15	C	-4.214440	-0.604920	-0.392073
C16	C	-4.273128	-0.737671	-0.391083
C17	C	-3.905082	-0.724713	-0.378406
C18	C	-3.846402	-0.591966	-0.379405
C19	C	-3.938622	-0.166888	-0.611201
C20	C	-4.001088	-0.165819	-0.752483
C21	C	-4.214446	-0.171665	-0.825332
C22	C	-4.273125	-0.170657	-0.958081
C23	C	-3.905070	-0.157963	-0.945120
C24	C	-3.846389	-0.158962	-0.812373
C25	C	-4.201681	0.061148	-0.383172
C26	C	-4.118453	0.202429	-0.384244
C27	C	-4.201677	-0.162751	-0.159263
C28	C	-4.118448	-0.163813	-0.017979
H29	H	-3.779151	-0.773495	-0.372845
H30	H	-4.446859	-0.796980	-0.395841
C31	C	-4.507829	-0.177085	-1.038208
N32	N	-4.684616	-0.181924	-1.098560
C33	C	-4.384613	-0.179193	-0.759456
N34	N	-4.512788	-0.184857	-0.709841
C35	C	-3.611683	-0.511827	-0.372976
N36	N	-3.434901	-0.451467	-0.368136
H37	H	-4.340396	-0.556158	-0.397630
H38	H	-3.779130	-0.152383	-0.993899
H39	H	-3.672636	-0.154192	-0.753055
