data_functionalizedCrystal
_audit_creation_method	'MofGen! by Chris Wilmer'
_symmetry_space_group_name_H-M	'P1'
_symmetry_Int_Tables_number	1
_symmetry_cell_setting	triclinic
loop_
_symmetry_equiv_pos_as_xyz
  x,y,z
_cell_length_a	16.120530
_cell_length_b	17.640280
_cell_length_c	17.639306
_cell_angle_alpha	92.178650
_cell_angle_beta	76.531836
_cell_angle_gamma	104.611321
loop_
_atom_site_label
_atom_site_type_symbol
_atom_site_fract_x
_atom_site_fract_y
_atom_site_fract_z
Zn1	Zn	1.464957	0.470544	-0.422237
Zn2	Zn	1.453739	0.571245	-0.269195
Zn3	Zn	1.289552	0.435152	-0.288804
Zn4	Zn	1.344761	0.590807	-0.392141
O5	O	1.388252	0.516937	-0.343094
O6	O	1.582484	0.490527	-0.406325
O7	O	1.404159	0.530194	-0.164500
O8	O	1.294410	0.332562	-0.327306
O9	O	1.574242	0.564511	-0.293885
O10	O	1.423279	0.358564	-0.425339
O11	O	1.283532	0.430207	-0.178907
O12	O	1.177861	0.449175	-0.298123
O13	O	1.388506	0.597852	-0.503429
O14	O	1.218423	0.563534	-0.374044
O15	O	1.476813	0.509495	-0.525540
O16	O	1.457693	0.681125	-0.264702
O17	O	1.377627	0.695497	-0.355030
C18	C	1.422461	0.716134	-0.304490
C19	C	1.437180	0.801361	-0.288003
C20	C	1.167283	0.504637	-0.334946
C21	C	1.072759	0.499398	-0.331474
C22	C	1.440069	0.559803	-0.543083
C23	C	1.462150	0.578070	-0.628306
C24	C	0.899703	0.489816	-0.325146
C25	C	0.877666	0.544126	-0.361087
C26	C	0.781372	0.538795	-0.357566
C27	C	0.996005	0.495146	-0.328666
C28	C	1.610085	0.529285	-0.351275
C29	C	1.704617	0.534547	-0.354761
C30	C	1.353938	0.316967	-0.381867
C31	C	1.339315	0.231751	-0.398389
C32	C	1.276855	1.119140	-0.468632
C33	C	1.290681	1.199218	-0.453116
C34	C	1.374146	1.184213	-0.359159
C35	C	1.360331	1.104132	-0.374670
C36	C	1.311684	1.071602	-0.429407
C37	C	1.395159	1.056593	-0.335445
C38	C	1.381341	0.976519	-0.350952
C39	C	1.332694	0.943982	-0.405684
C40	C	1.297865	0.991527	-0.444913
C41	C	1.443801	1.089124	-0.280704
C42	C	1.478630	1.041586	-0.241479
C43	C	1.464817	0.961511	-0.256990
C44	C	1.416170	0.928974	-0.311722
C45	C	1.499646	0.913966	-0.217760
C46	C	1.485827	0.833891	-0.233267
C47	C	1.402351	0.848899	-0.327229
C48	C	1.220785	0.377896	-0.946117
C49	C	1.241556	0.395078	-1.026195
C50	C	1.367152	0.499183	-1.011175
C51	C	1.346394	0.482007	-0.931095
C52	C	1.273209	0.421363	-0.898572
C53	C	1.398818	0.525475	-0.883550
C54	C	1.378059	0.508303	-0.803476
C55	C	1.304876	0.447663	-0.770947
C56	C	1.252450	0.404192	-0.818499
C57	C	1.471999	0.586122	-0.916073
C58	C	1.524423	0.629590	-0.868528
C59	C	1.503668	0.612414	-0.788454
C60	C	1.430485	0.551775	-0.755925
C61	C	1.556094	0.655886	-0.740903
C62	C	1.535335	0.638714	-0.660829
C63	C	1.409726	0.534603	-0.675851
C64	C	1.336677	0.474185	-0.143896
C65	C	1.314723	0.455711	-0.058721
H66	H	0.931118	0.594626	-0.394502
Cl67	Cl	0.817181	0.411852	-0.273559
H68	H	1.362745	0.822414	-0.371807
Cl69	Cl	1.278772	0.426080	-0.670280
H70	H	1.192863	0.354802	-0.792019
H71	H	1.321436	0.878778	-0.418303
Cl72	Cl	1.236717	0.950628	-0.513734
Cl73	Cl	1.128787	0.301649	-0.905227
H74	H	1.237249	1.092655	-0.513210
H75	H	1.413752	1.210709	-0.314591
Cl76	Cl	1.529602	0.774123	-0.183947
Cl77	Cl	1.246878	1.258977	-0.502425
Cl78	Cl	1.461211	1.189798	-0.261239
Cl79	Cl	1.560792	0.954869	-0.148946
H80	H	1.518235	1.068082	-0.196910
Cl81	Cl	1.317728	0.458356	-0.634961
H82	H	1.198863	0.359674	-1.064905
Cl83	Cl	1.459149	0.575421	-1.052068
Cl84	Cl	1.498098	0.607707	-1.016740
Cl85	Cl	1.616421	0.705827	-0.909421
Cl86	Cl	1.648085	0.732129	-0.781796
H87	H	1.578034	0.674100	-0.622119
