data_functionalizedCrystal
_audit_creation_method	'MofGen! by Chris Wilmer'
_symmetry_space_group_name_H-M	'P1'
_symmetry_Int_Tables_number	1
_symmetry_cell_setting	triclinic
loop_
_symmetry_equiv_pos_as_xyz
  x,y,z
_cell_length_a	17.019311
_cell_length_b	17.038272
_cell_length_c	16.098538
_cell_angle_alpha	92.920305
_cell_angle_beta	83.390489
_cell_angle_gamma	87.245400
loop_
_atom_site_label
_atom_site_type_symbol
_atom_site_fract_x
_atom_site_fract_y
_atom_site_fract_z
O1	O	1.060282	0.092293	-0.145296
O2	O	1.560282	0.592293	0.354704
O3	O	0.830686	0.105819	-0.128832
O4	O	1.330686	0.605819	0.371168
O5	O	0.944119	-0.014753	-0.136960
O6	O	1.444119	0.485247	0.363040
O7	O	0.946849	0.212865	-0.137169
O8	O	1.446849	0.712865	0.362831
O9	O	0.937491	-0.007737	0.002028
O10	O	1.437491	0.492263	0.502028
O11	O	0.824057	0.112835	0.010156
O12	O	1.324057	0.612835	0.510156
O13	O	1.053654	0.099309	-0.006308
O14	O	1.553654	0.599309	0.493692
Zn15	Zn	0.937804	0.107186	0.023991
Zn16	Zn	1.437804	0.607186	0.523991
Zn17	Zn	0.946536	0.097942	-0.159131
Zn18	Zn	1.446536	0.597942	0.340869
O19	O	0.940221	0.219881	0.001819
O20	O	1.440221	0.719881	0.501819
C21	C	0.797849	0.108952	-0.057221
C22	C	1.297849	0.608952	0.442779
C23	C	0.709882	0.107823	-0.050913
C24	C	1.209882	0.607823	0.449087
C25	C	0.212171	0.101659	-0.011436
C26	C	0.712171	0.601659	0.488564
C27	C	0.294826	0.102719	-0.017365
C28	C	0.794826	0.602719	0.482635
C29	C	0.339767	0.099419	-0.096093
C30	C	0.839767	0.599419	0.403907
C31	C	0.302049	0.095067	-0.168897
C32	C	0.802049	0.595067	0.331103
C33	C	0.219395	0.094012	-0.162967
C34	C	0.719395	0.594012	0.337033
C35	C	0.589509	0.102416	-0.117787
C36	C	1.089509	0.602416	0.382213
C37	C	0.672169	0.103469	-0.123711
C38	C	1.172169	0.603469	0.376289
C39	C	0.664940	0.111123	0.027821
C40	C	1.164940	0.611123	0.527821
C41	C	0.582286	0.110063	0.033744
C42	C	1.082286	0.610063	0.533744
C43	C	0.544574	0.105715	-0.039060
C44	C	1.044574	0.605715	0.460940
C45	C	0.424254	0.100500	-0.102155
C46	C	0.924254	0.600500	0.397845
C47	C	0.460088	0.104640	-0.032997
C48	C	0.960088	0.604640	0.467003
C49	C	0.938323	-0.040362	-0.067288
C50	C	1.438323	0.459638	0.432712
C51	C	0.930917	-0.127122	-0.066757
C52	C	1.430917	0.372878	0.433243
C53	C	0.998910	-0.177539	-0.071632
C54	C	1.498910	0.322461	0.428368
C55	C	0.991947	-0.259059	-0.071140
C56	C	1.491947	0.240941	0.428860
C57	C	0.916991	-0.290160	-0.065768
C58	C	1.416991	0.209840	0.434232
C59	C	0.848994	-0.239737	-0.060896
C60	C	1.348994	0.260263	0.439104
C61	C	0.855957	-0.158219	-0.061393
C62	C	1.355957	0.341781	0.438607
C63	C	0.892389	-0.535809	-0.064016
C64	C	1.392389	-0.035809	0.435984
C65	C	0.885431	-0.617333	-0.063516
C66	C	1.385431	-0.117333	0.436484
C67	C	1.028385	-0.636649	-0.073762
C68	C	1.528385	-0.136649	0.426238
C69	C	1.035342	-0.555129	-0.074254
C70	C	1.535342	-0.055129	0.425746
C71	C	0.967345	-0.504713	-0.069386
C72	C	1.467345	-0.004713	0.430614
C73	C	0.909872	-0.373486	-0.065263
C74	C	1.409872	0.126514	0.434737
C75	C	0.974464	-0.421389	-0.069897
C76	C	1.474464	0.078611	0.430103
C77	C	1.086491	0.096177	-0.077921
C78	C	1.586491	0.596177	0.422079
C79	C	1.174459	0.097305	-0.084235
C80	C	1.674459	0.597305	0.415765
C81	C	0.946017	0.245490	-0.067854
C82	C	1.446017	0.745490	0.432146
C83	C	0.953423	0.332250	-0.068391
C84	C	1.453423	0.832250	0.431609
N85	N	0.931849	0.113494	0.148967
N86	N	1.431849	0.613494	0.648967
N87	N	0.952496	0.091628	-0.284108
N88	N	1.452496	0.591628	0.215892
C89	C	0.980015	0.062336	0.189101
C90	C	1.480015	0.562336	0.689101
C91	C	0.975858	0.066756	0.276588
C92	C	1.475858	0.566756	0.776588
C93	C	0.923538	0.122338	0.323939
C94	C	1.423538	0.622338	0.823939
C95	C	0.875367	0.173498	0.283799
C96	C	1.375367	0.673498	0.783799
C97	C	0.879521	0.169074	0.196314
C98	C	1.379521	0.669074	0.696314
C99	C	0.908479	0.138364	0.588268
C100	C	1.408479	0.638364	1.088268
C101	C	0.904331	0.142786	0.675758
C102	C	1.404331	0.642786	1.175758
C103	C	1.004821	0.036043	0.668541
C104	C	1.504821	0.536043	1.168541
C105	C	1.008973	0.031626	0.581054
C106	C	1.508973	0.531626	1.081054
C107	C	0.960799	0.082783	0.540923
C108	C	1.460799	0.582783	1.040923
C109	C	0.919289	0.126859	0.413364
C110	C	1.419289	0.626859	0.913364
C111	C	0.965045	0.078258	0.451499
C112	C	1.465045	0.578258	0.951499
H113	H	0.558815	0.098873	-0.177070
H114	H	1.058815	0.598873	0.322930
O115	O	0.705612	0.115826	0.106343
O116	O	1.205612	0.615826	0.606343
H117	H	0.770636	0.116013	0.088998
H118	H	1.270636	0.616013	0.588998
H119	H	0.188691	0.090468	-0.222248
H120	H	0.688691	0.590468	0.277752
H121	H	0.708758	0.100787	-0.187825
H122	H	1.208758	0.600787	0.312175
H123	H	1.022623	0.017079	0.150553
H124	H	1.522623	0.517079	0.650553
H125	H	1.051576	-0.013633	0.542503
H126	H	1.551576	0.486367	1.042503
H127	H	0.423493	0.107331	0.031103
H128	H	0.923493	0.607331	0.531103
O129	O	0.782619	-0.103841	-0.056127
O130	O	1.282619	0.396159	0.443873
H131	H	0.785069	-0.069099	-0.112761
H132	H	1.285069	0.430901	0.387239
H133	H	1.044041	-0.005608	0.701225
H134	H	1.544041	0.494392	1.201225
H135	H	0.832763	0.218752	0.322358
H136	H	1.332763	0.718752	0.822358
H137	H	0.848842	-0.398818	-0.060887
H138	H	1.348842	0.101182	0.439113
H139	H	0.861723	0.188050	0.714308
H140	H	1.361723	0.688050	1.214308
O141	O	0.827556	0.224241	0.153028
O142	O	1.327556	0.724241	0.653028
H143	H	0.839222	0.211817	0.084240
H144	H	1.339222	0.711817	0.584240
H145	H	0.545701	0.112734	0.097852
H146	H	1.045701	0.612734	0.597852
O147	O	1.021462	0.018306	0.400422
O148	O	1.521462	0.518306	0.900422
H149	H	1.083041	0.028849	0.412713
H150	H	1.583041	0.528849	0.912713
H151	H	0.876691	0.172117	0.451925
H152	H	1.376691	0.672117	0.951925
H153	H	0.175586	0.104350	0.052673
H154	H	0.675586	0.604350	0.552673
O155	O	0.472736	0.096919	-0.187065
O156	O	0.972736	0.596919	0.312935
H157	H	0.507112	0.150481	-0.193151
H158	H	1.007112	0.650481	0.306849
H159	H	0.869255	0.180019	0.555599
H160	H	1.369255	0.680019	1.055599
H161	H	0.787963	-0.265067	-0.056527
H162	H	1.287963	0.234933	0.443473
O163	O	0.335504	0.107447	0.061152
O164	O	0.835504	0.607447	0.561152
H165	H	0.290367	0.109566	0.116892
H166	H	0.790367	0.609566	0.616892
O167	O	0.350514	0.091509	-0.253815
O168	O	0.850514	0.591509	0.246185
H169	H	0.339834	0.036202	-0.289249
H170	H	0.839834	0.536202	0.210751
O171	O	1.027823	0.011594	0.319877
O172	O	1.527823	0.511594	0.819877
H173	H	1.064914	-0.027787	0.272253
H174	H	1.564914	0.472213	0.772253
H175	H	1.059946	-0.152222	-0.076001
H176	H	1.559946	0.347778	0.423999
H177	H	1.047314	-0.300105	-0.075108
H178	H	1.547314	0.199895	0.424892
O179	O	1.116192	-0.521593	-0.080067
O180	O	1.616192	-0.021593	0.419933
H181	H	1.146436	-0.539022	-0.025788
H182	H	1.646436	-0.039022	0.474212
O183	O	1.101723	-0.691024	-0.079018
O184	O	1.601723	-0.191024	0.420982
H185	H	1.084292	-0.752934	-0.077776
H186	H	1.584292	-0.252934	0.422224
H187	H	0.824389	-0.642652	-0.059128
H188	H	1.324389	-0.142652	0.440872
H189	H	0.837021	-0.494770	-0.060051
H190	H	1.337021	0.005230	0.439949
H191	H	1.035494	-0.396063	-0.074290
H192	H	1.535494	0.103937	0.425710
