data_functionalizedCrystal
_audit_creation_method	'MofGen! by Chris Wilmer'
_symmetry_space_group_name_H-M	'P1'
_symmetry_Int_Tables_number	1
_symmetry_cell_setting	triclinic
loop_
_symmetry_equiv_pos_as_xyz
  x,y,z
_cell_length_a	12.594517
_cell_length_b	21.295412
_cell_length_c	12.594516
_cell_angle_alpha	90.020623
_cell_angle_beta	89.988061
_cell_angle_gamma	89.986042
loop_
_atom_site_label
_atom_site_type_symbol
_atom_site_fract_x
_atom_site_fract_y
_atom_site_fract_z
Zn1	Zn	1.627293	-0.355795	0.423886
Zn2	Zn	2.127293	0.144205	0.923886
Zn3	Zn	1.627176	-0.250539	0.601878
Zn4	Zn	2.127176	0.249461	1.101878
Zn5	Zn	1.449289	-0.250557	0.423902
Zn6	Zn	1.949289	0.249443	0.923902
Zn7	Zn	1.449279	-0.355788	0.601810
Zn8	Zn	1.949279	0.144212	1.101810
O9	O	1.538259	-0.303170	0.512869
O10	O	2.038259	0.196830	1.012869
O11	O	1.776223	-0.341827	0.447519
O12	O	2.276223	0.158173	0.947519
O13	O	1.603534	-0.162452	0.578305
O14	O	2.103534	0.337548	1.078305
O15	O	1.472955	-0.264528	0.274954
O16	O	1.972955	0.235472	0.774954
O17	O	1.776137	-0.264496	0.578289
O18	O	2.276137	0.235504	1.078289
O19	O	1.603733	-0.341846	0.274942
O20	O	2.103733	0.158154	0.774942
O21	O	1.472842	-0.162466	0.447546
O22	O	1.972842	0.337534	0.947546
O23	O	1.300342	-0.264521	0.447479
O24	O	1.800342	0.235479	0.947479
O25	O	1.472938	-0.443878	0.578172
O26	O	1.972938	0.056122	1.078172
O27	O	1.300335	-0.341834	0.578188
O28	O	1.800335	0.158166	1.078188
O29	O	1.603724	-0.443883	0.447452
O30	O	2.103724	0.056117	0.947452
O31	O	1.603525	-0.264490	0.750815
O32	O	2.103525	0.235510	1.250815
O33	O	1.472824	-0.341816	0.750765
O34	O	1.972824	0.158184	1.250765
C35	C	1.261718	-0.303179	0.512829
C36	C	1.761718	0.196821	1.012829
C37	C	1.143413	-0.303198	0.512837
C38	C	1.643413	0.196802	1.012837
C39	C	1.074187	-0.345167	0.584068
C40	C	1.574187	0.154833	1.084068
C41	C	1.003379	-0.360648	0.487025
C42	C	1.503379	0.139352	0.987025
C43	C	1.003421	-0.287704	0.609961
C44	C	1.503421	0.212296	1.109961
C45	C	1.074164	-0.318709	0.415742
C46	C	1.574164	0.181291	0.915742
C47	C	1.074212	-0.245739	0.538743
C48	C	1.574212	0.254261	1.038743
C49	C	1.003437	-0.261197	0.441632
C50	C	1.503437	0.238803	0.941632
C51	C	1.538343	-0.467360	0.512803
C52	C	2.038343	0.032640	1.012803
C53	C	1.538378	-0.537328	0.512774
C54	C	2.038378	-0.037328	1.012774
C55	C	1.470344	-0.570192	0.444681
C56	C	1.970344	-0.070192	0.944681
C57	C	1.470341	-0.635935	0.444661
C58	C	1.970341	-0.135935	0.944661
C59	C	1.538389	-0.668811	0.512724
C60	C	2.038389	-0.168811	1.012724
C61	C	1.606428	-0.635939	0.580831
C62	C	2.106428	-0.135939	1.080831
C63	C	1.606422	-0.570198	0.580856
C64	C	2.106422	-0.070198	1.080856
N65	N	1.631565	-0.772041	0.520859
N66	N	2.131565	-0.272041	1.020859
N67	N	1.631567	-0.834492	0.520829
N68	N	2.131567	-0.334492	1.020829
C69	C	1.538409	-0.866886	0.512653
C70	C	2.038409	-0.366886	1.012653
N71	N	1.445246	-0.834468	0.504487
N72	N	1.945246	-0.334468	1.004487
N73	N	1.445245	-0.772011	0.504512
N74	N	1.945245	-0.272011	1.004512
C75	C	1.538403	-0.740096	0.512704
C76	C	2.038403	-0.240096	1.012704
C77	C	1.470366	-0.971035	0.444534
C78	C	1.970366	-0.471035	0.944534
C79	C	1.470360	-1.036779	0.444522
C80	C	1.970360	-0.536779	0.944522
C81	C	1.606457	-1.036782	0.580686
C82	C	2.106457	-0.536782	1.080686
C83	C	1.606453	-0.971039	0.580704
C84	C	2.106453	-0.471039	1.080704
C85	C	1.538409	-0.938170	0.512622
C86	C	2.038409	-0.438170	1.012622
C87	C	1.815880	-0.303160	0.512910
C88	C	2.315880	0.196840	1.012910
C89	C	1.934186	-0.303157	0.512928
C90	C	2.434186	0.196843	1.012928
C91	C	1.538190	-0.303164	0.789410
C92	C	2.038190	0.196836	1.289410
C93	C	1.538257	-0.303182	0.907715
C94	C	2.038257	0.196818	1.407715
C95	C	1.538238	-0.139618	0.512858
C96	C	2.038238	0.360382	1.012858
C97	C	1.538408	-0.069650	0.512586
C98	C	2.038408	0.430350	1.012586
C99	C	1.538358	-0.303190	0.235248
C100	C	2.038358	0.196810	0.735248
C101	C	1.538401	-0.303198	0.116942
C102	C	2.038401	0.196802	0.616942
C103	C	1.467162	-0.345210	0.976979
C104	C	1.967162	0.154790	1.476979
C105	C	1.441225	-0.287772	1.047834
C106	C	1.941225	0.212228	1.547834
C107	C	1.564292	-0.360630	1.047660
C108	C	2.064292	0.139370	1.547660
C109	C	1.512268	-0.245714	0.977011
C110	C	2.012268	0.254286	1.477011
C111	C	1.635380	-0.318610	0.976831
C112	C	2.135380	0.181390	1.476831
C113	C	1.609480	-0.261132	1.047653
C114	C	2.109480	0.238868	1.547653
H115	H	1.105254	-0.380705	0.644190
H116	H	1.605254	0.119295	1.144190
C117	C	1.746240	-0.336244	0.934704
C118	C	2.246240	0.163756	1.434704
H119	H	1.764590	-0.377086	0.958861
H120	H	2.264590	0.122914	1.458861
H121	H	1.796944	-0.306803	0.959980
H122	H	2.296944	0.193197	1.459980
H123	H	1.745577	-0.335735	0.859282
H124	H	2.245577	0.164265	1.359282
C125	C	1.395494	-0.534039	0.369799
C126	C	1.895494	-0.034039	0.869799
H127	H	1.354970	-0.563031	0.329247
H128	H	1.854970	-0.063031	0.829247
H129	H	1.436225	-0.508401	0.323441
H130	H	1.936225	-0.008401	0.823441
H131	H	1.349093	-0.508386	0.410521
H132	H	1.849093	-0.008386	0.910521
C133	C	0.961322	-0.426262	0.457480
C134	C	1.461322	0.073738	0.957480
H135	H	0.985534	-0.456049	0.508130
H136	H	1.485534	0.043951	1.008130
H137	H	0.986573	-0.437551	0.389006
H138	H	1.486573	0.062449	0.889006
H139	H	0.885899	-0.425667	0.457104
H140	H	1.385899	0.074333	0.957104
H141	H	0.972341	-0.274618	0.692058
H142	H	1.472341	0.225382	1.192058
H143	H	1.105108	-0.331851	0.333620
H144	H	1.605108	0.168149	0.833620
H145	H	1.406932	-0.380700	0.945946
H146	H	1.906932	0.119300	1.445946
H147	H	1.105349	-0.197178	0.560651
H148	H	1.605349	0.302822	1.060651
C149	C	1.681287	-0.672097	0.655695
C150	C	2.181287	-0.172097	1.155695
H151	H	1.721802	-0.643106	0.696258
H152	H	2.221802	-0.143106	1.196258
H153	H	1.727680	-0.697749	0.614974
H154	H	2.227680	-0.197749	1.114974
H155	H	1.640553	-0.697735	0.702058
H156	H	2.140553	-0.197735	1.202058
H157	H	1.661828	-0.543440	0.636305
H158	H	2.161828	-0.043440	1.136305
C159	C	0.961721	-0.213227	0.360225
C160	C	1.461721	0.286773	0.860225
H161	H	0.920211	-0.182408	0.395644
H162	H	1.420211	0.317592	0.895644
H163	H	0.919234	-0.234176	0.308954
H164	H	1.419234	0.265824	0.808954
H165	H	1.019987	-0.193496	0.325864
H166	H	1.519987	0.306504	0.825864
C167	C	1.593967	-0.426250	1.089582
C168	C	2.093967	0.073750	1.589582
H169	H	1.543332	-0.456051	1.065370
H170	H	2.043332	0.043949	1.565370
H171	H	1.594444	-0.425695	1.164999
H172	H	2.094444	0.074305	1.664999
H173	H	1.662426	-0.437491	1.064216
H174	H	2.162426	0.062509	1.564216
H175	H	1.414959	-0.944271	0.389099
H176	H	1.914959	-0.444271	0.889099
C177	C	1.395508	-0.672093	0.369748
C178	C	1.895508	-0.172093	0.869748
H179	H	1.354988	-0.643101	0.329201
H180	H	1.854988	-0.143101	0.829201
H181	H	1.349117	-0.697733	0.410438
H182	H	1.849117	-0.197733	0.910438
H183	H	1.436261	-0.697743	0.323370
H184	H	1.936261	-0.197743	0.823370
C185	C	1.395520	-1.072929	0.369613
C186	C	1.895520	-0.572929	0.869613
H187	H	1.355005	-1.043935	0.329066
H188	H	1.855005	-0.543935	0.829066
H189	H	1.349126	-1.098566	0.410306
H190	H	1.849126	-0.598566	0.910306
H191	H	1.436266	-1.098584	0.323235
H192	H	1.936266	-0.598584	0.823235
C193	C	1.482460	-0.180075	0.935270
C194	C	1.982460	0.319925	1.435270
H195	H	1.482551	-0.180476	0.859840
H196	H	1.982551	0.319524	1.359840
H197	H	1.532692	-0.150201	0.960032
H198	H	2.032692	0.349799	1.460032
H199	H	1.413726	-0.169061	0.960173
H200	H	1.913726	0.330939	1.460173
C201	C	1.681311	-1.072938	0.655553
C202	C	2.181311	-0.572938	1.155553
H203	H	1.671576	-1.116798	0.645782
H204	H	2.171576	-0.616798	1.145782
H205	H	1.665711	-1.062156	0.727069
H206	H	2.165711	-0.562156	1.227069
H207	H	1.752833	-1.062173	0.639980
H208	H	2.252833	-0.562173	1.139980
C209	C	1.681304	-0.934887	0.655595
C210	C	2.181304	-0.434887	1.155595
H211	H	1.721839	-0.963881	0.696122
H212	H	2.221839	-0.463881	1.196122
H213	H	1.640575	-0.909231	0.701975
H214	H	2.140575	-0.409231	1.201975
H215	H	1.727695	-0.909253	0.614884
H216	H	2.227695	-0.409253	1.114884
C217	C	1.330359	-0.270145	1.089973
C218	C	1.830359	0.229855	1.589973
H219	H	1.335251	-0.233003	1.131491
H220	H	1.835251	0.266997	1.631491
H221	H	1.303687	-0.303413	1.132533
H222	H	1.803687	0.196587	1.632533
H223	H	1.283742	-0.263137	1.031880
H224	H	1.783742	0.236863	1.531880
C225	C	1.690779	-0.213076	1.089323
C226	C	2.190779	0.286924	1.589323
H227	H	1.672162	-0.172310	1.065003
H228	H	2.172162	0.327690	1.565003
H229	H	1.759514	-0.223681	1.063938
H230	H	2.259514	0.276319	1.563938
H231	H	1.690797	-0.213581	1.164748
H232	H	2.190797	0.286419	1.664748
