data_functionalizedCrystal
_audit_creation_method	'MofGen! by Chris Wilmer'
_symmetry_space_group_name_H-M	'P1'
_symmetry_Int_Tables_number	1
_symmetry_cell_setting	triclinic
loop_
_symmetry_equiv_pos_as_xyz
  x,y,z
_cell_length_a	19.121241
_cell_length_b	17.077402
_cell_length_c	17.077396
_cell_angle_alpha	89.968612
_cell_angle_beta	87.539368
_cell_angle_gamma	92.457116
loop_
_atom_site_label
_atom_site_type_symbol
_atom_site_fract_x
_atom_site_fract_y
_atom_site_fract_z
Zn1	Zn	1.073745	-0.261404	-0.495123
Zn2	Zn	1.323745	-0.011404	-0.245123
Zn3	Zn	1.573745	0.238596	0.004877
Zn4	Zn	1.823745	0.488596	0.254877
Zn5	Zn	1.073667	-0.392687	-0.363850
Zn6	Zn	1.323667	-0.142687	-0.113850
Zn7	Zn	1.573667	0.107313	0.136150
Zn8	Zn	1.823667	0.357313	0.386150
Zn9	Zn	0.956296	-0.267024	-0.358261
Zn10	Zn	1.206296	-0.017024	-0.108261
Zn11	Zn	1.456296	0.232976	0.141739
Zn12	Zn	1.706296	0.482976	0.391739
Zn13	Zn	0.956263	-0.398222	-0.489466
Zn14	Zn	1.206263	-0.148222	-0.239466
Zn15	Zn	1.456263	0.101778	0.010534
Zn16	Zn	1.706263	0.351778	0.260534
O17	O	1.014993	-0.329834	-0.426675
O18	O	1.264993	-0.079834	-0.176675
O19	O	1.514993	0.170166	0.073325
O20	O	1.764993	0.420166	0.323325
O21	O	1.172021	-0.274151	-0.482415
O22	O	1.422021	-0.024151	-0.232415
O23	O	1.672021	0.225849	0.017585
O24	O	1.922021	0.475849	0.267585
O25	O	1.058079	-0.376052	-0.253260
O26	O	1.308079	-0.126052	-0.003260
O27	O	1.558079	0.123948	0.246740
O28	O	1.808079	0.373948	0.496740
O29	O	0.971923	-0.156429	-0.376444
O30	O	1.221923	0.093571	-0.126444
O31	O	1.471923	0.343571	0.123556
O32	O	1.721923	0.593571	0.373556
O33	O	1.171964	-0.370603	-0.385970
O34	O	1.421964	-0.120603	-0.135970
O35	O	1.671964	0.129397	0.114030
O36	O	1.921964	0.379397	0.364030
O37	O	1.058212	-0.152301	-0.476996
O38	O	1.308212	0.097699	-0.226996
O39	O	1.558212	0.347699	0.023004
O40	O	1.808212	0.597699	0.273004
O41	O	0.971847	-0.283728	-0.249154
O42	O	1.221847	-0.033728	0.000846
O43	O	1.471847	0.216272	0.250846
O44	O	1.721847	0.466272	0.500846
O45	O	0.858005	-0.289096	-0.370959
O46	O	1.108005	-0.039096	-0.120959
O47	O	1.358005	0.210904	0.129041
O48	O	1.608005	0.460904	0.379041
O49	O	0.971866	-0.380038	-0.600064
O50	O	1.221866	-0.130038	-0.350064
O51	O	1.471866	0.119962	-0.100064
O52	O	1.721866	0.369962	0.149936
O53	O	0.857981	-0.385487	-0.467354
O54	O	1.107981	-0.135487	-0.217354
O55	O	1.357981	0.114513	0.032646
O56	O	1.607981	0.364513	0.282646
O57	O	1.058179	-0.279519	-0.604220
O58	O	1.308179	-0.029519	-0.354220
O59	O	1.558179	0.220481	-0.104220
O60	O	1.808179	0.470481	0.145780
O61	O	1.058046	-0.503270	-0.380485
O62	O	1.308046	-0.253270	-0.130485
O63	O	1.558046	-0.003270	0.119515
O64	O	1.808046	0.246730	0.369515
O65	O	0.971790	-0.507337	-0.472774
O66	O	1.221790	-0.257337	-0.222774
O67	O	1.471790	-0.007337	0.027226
O68	O	1.721790	0.242663	0.277226
C69	C	0.832508	-0.338502	-0.417937
C70	C	1.082508	-0.088502	-0.167937
C71	C	1.332508	0.161498	0.082063
C72	C	1.582508	0.411498	0.332063
C73	C	0.754441	-0.342229	-0.414217
C74	C	1.004441	-0.092229	-0.164217
C75	C	1.254441	0.157771	0.085783
C76	C	1.504441	0.407771	0.335783
C77	C	1.014925	-0.533785	-0.426640
C78	C	1.264925	-0.283785	-0.176640
C79	C	1.514925	-0.033785	0.073360
C80	C	1.764925	0.216215	0.323360
C81	C	1.014960	-0.621033	-0.426655
C82	C	1.264960	-0.371033	-0.176655
C83	C	1.514960	-0.121033	0.073345
C84	C	1.764960	0.128967	0.323345
C85	C	1.059920	-0.659878	-0.378656
C86	C	1.309920	-0.409878	-0.128656
C87	C	1.559920	-0.159878	0.121344
C88	C	1.809920	0.090122	0.371344
C89	C	1.059954	-0.741856	-0.378677
C90	C	1.309954	-0.491856	-0.128677
C91	C	1.559954	-0.241856	0.121323
C92	C	1.809954	0.008144	0.371323
C93	C	1.015025	-0.784990	-0.426694
C94	C	1.265025	-0.534990	-0.176694
C95	C	1.515025	-0.284990	0.073306
C96	C	1.765025	-0.034990	0.323306
C97	C	0.970063	-0.746140	-0.474699
C98	C	1.220063	-0.496140	-0.224699
C99	C	1.470063	-0.246140	0.025301
C100	C	1.720063	0.003860	0.275301
C101	C	0.970033	-0.664162	-0.474681
C102	C	1.220033	-0.414162	-0.224681
C103	C	1.470033	-0.164162	0.025319
C104	C	1.720033	0.085838	0.275319
C105	C	0.970128	-0.917007	-0.474732
C106	C	1.220128	-0.667007	-0.224732
C107	C	1.470128	-0.417007	0.025268
C108	C	1.720128	-0.167007	0.275268
C109	C	0.970158	-0.998990	-0.474749
C110	C	1.220158	-0.748990	-0.224749
C111	C	1.470158	-0.498990	0.025251
C112	C	1.720158	-0.248990	0.275251
C113	C	1.060050	-0.994701	-0.378728
C114	C	1.310050	-0.744701	-0.128728
C115	C	1.560050	-0.494701	0.121272
C116	C	1.810050	-0.244701	0.371272
C117	C	1.060019	-0.912723	-0.378710
C118	C	1.310019	-0.662723	-0.128710
C119	C	1.560019	-0.412723	0.121290
C120	C	1.810019	-0.162723	0.371290
C121	C	1.015057	-0.873879	-0.426714
C122	C	1.265057	-0.623879	-0.176714
C123	C	1.515057	-0.373879	0.073286
C124	C	1.765057	-0.123879	0.323286
C125	C	0.717795	-0.293842	-0.462760
C126	C	0.967795	-0.043842	-0.212760
C127	C	1.217795	0.206158	0.037240
C128	C	1.467795	0.456158	0.287240
C129	C	0.644442	-0.297341	-0.459259
C130	C	0.894442	-0.047341	-0.209259
C131	C	1.144442	0.202659	0.040741
C132	C	1.394442	0.452659	0.290741
C133	C	0.607736	-0.349230	-0.407217
C134	C	0.857736	-0.099230	-0.157217
C135	C	1.107736	0.150770	0.092783
C136	C	1.357736	0.400770	0.342783
C137	C	0.644387	-0.397619	-0.358669
C138	C	0.894387	-0.147619	-0.108669
C139	C	1.144387	0.102381	0.141331
C140	C	1.394387	0.352381	0.391331
C141	C	0.717739	-0.394117	-0.362167
C142	C	0.967739	-0.144117	-0.112167
C143	C	1.217739	0.105883	0.137833
C144	C	1.467739	0.355883	0.387833
C145	C	0.386260	-0.362311	-0.394135
C146	C	0.636260	-0.112311	-0.144135
C147	C	0.886260	0.137689	0.105865
C148	C	1.136260	0.387689	0.355865
C149	C	0.312903	-0.365812	-0.390642
C150	C	0.562903	-0.115812	-0.140642
C151	C	0.812903	0.134188	0.109358
C152	C	1.062903	0.384188	0.359358
C153	C	0.312963	-0.265532	-0.491232
C154	C	0.562963	-0.015532	-0.241232
C155	C	0.812963	0.234468	0.008768
C156	C	1.062963	0.484468	0.258768
C157	C	0.386316	-0.262037	-0.494729
C158	C	0.636316	-0.012037	-0.244729
C159	C	0.886316	0.237963	0.005271
C160	C	1.136316	0.487963	0.255271
C161	C	0.422961	-0.310423	-0.446177
C162	C	0.672961	-0.060423	-0.196177
C163	C	0.922961	0.189577	0.053823
C164	C	1.172961	0.439577	0.303823
C165	C	0.532758	-0.352809	-0.403638
C166	C	0.782758	-0.102809	-0.153638
C167	C	1.032758	0.147191	0.096362
C168	C	1.282758	0.397191	0.346362
C169	C	0.497938	-0.306840	-0.449753
C170	C	0.747938	-0.056840	-0.199753
C171	C	0.997938	0.193160	0.050247
C172	C	1.247938	0.443160	0.300247
C173	C	1.198190	-0.321133	-0.435447
C174	C	1.448190	-0.071133	-0.185447
C175	C	1.698190	0.178867	0.064553
C176	C	1.948190	0.428867	0.314553
C177	C	1.276258	-0.317425	-0.439185
C178	C	1.526258	-0.067425	-0.189185
C179	C	1.776258	0.182575	0.060815
C180	C	2.026258	0.432575	0.310815
C181	C	1.015028	-0.329769	-0.631421
C182	C	1.265028	-0.079769	-0.381421
C183	C	1.515028	0.170231	-0.131421
C184	C	1.765028	0.420231	0.118579
C185	C	1.015042	-0.329741	-0.718671
C186	C	1.265042	-0.079741	-0.468671
C187	C	1.515042	0.170259	-0.218671
C188	C	1.765042	0.420259	0.031329
C189	C	1.015080	-0.125086	-0.426727
C190	C	1.265080	0.124914	-0.176727
C191	C	1.515080	0.374914	0.073273
C192	C	1.765080	0.624914	0.323273
C193	C	1.015117	-0.037834	-0.426750
C194	C	1.265117	0.212166	-0.176750
C195	C	1.515117	0.462166	0.073250
C196	C	1.765117	0.712166	0.323250
C197	C	1.060007	-0.377720	-1.096629
C198	C	1.310007	-0.127720	-0.846629
C199	C	1.560007	0.122280	-0.596629
C200	C	1.810007	0.372280	-0.346629
C201	C	1.059989	-0.377744	-1.014648
C202	C	1.309989	-0.127744	-0.764648
C203	C	1.559989	0.122256	-0.514648
C204	C	1.809989	0.372256	-0.264648
C205	C	1.015088	-0.329684	-0.971522
C206	C	1.265088	-0.079684	-0.721522
C207	C	1.515088	0.170316	-0.471522
C208	C	1.765088	0.420316	-0.221522
C209	C	0.970196	-0.281603	-1.010382
C210	C	1.220196	-0.031603	-0.760382
C211	C	1.470196	0.218397	-0.510382
C212	C	1.720196	0.468397	-0.260382
C213	C	0.970210	-0.281584	-1.092362
C214	C	1.220210	-0.031584	-0.842362
C215	C	1.470210	0.218416	-0.592362
C216	C	1.720210	0.468416	-0.342362
C217	C	0.970169	-0.281644	-0.839511
C218	C	1.220169	-0.031644	-0.589511
C219	C	1.470169	0.218356	-0.339511
C220	C	1.720169	0.468356	-0.089511
C221	C	0.970155	-0.281662	-0.757525
C222	C	1.220155	-0.031662	-0.507525
C223	C	1.470155	0.218338	-0.257525
C224	C	1.720155	0.468338	-0.007525
C225	C	1.059948	-0.377805	-0.761797
C226	C	1.309948	-0.127805	-0.511797
C227	C	1.559948	0.122195	-0.261797
C228	C	1.809948	0.372195	-0.011797
C229	C	1.059963	-0.377785	-0.843777
C230	C	1.309963	-0.127785	-0.593777
C231	C	1.559963	0.122215	-0.343777
C232	C	1.809963	0.372215	-0.093777
C233	C	1.015072	-0.329703	-0.882631
C234	C	1.265072	-0.079703	-0.632631
C235	C	1.515072	0.170297	-0.382631
C236	C	1.765072	0.420297	-0.132631
C237	C	1.014999	-0.329841	-0.222727
C238	C	1.264999	-0.079841	0.027273
C239	C	1.514999	0.170159	0.277273
C240	C	1.764999	0.420159	0.527273
C241	C	1.015120	-0.329641	-0.135483
C242	C	1.265120	-0.079641	0.114517
C243	C	1.515120	0.170359	0.364517
C244	C	1.765120	0.420359	0.614517
H245	H	1.096503	-0.624764	-0.339551
H246	H	1.346503	-0.374764	-0.089551
H247	H	1.596503	-0.124764	0.160449
H248	H	1.846503	0.125236	0.410449
F249	F	0.493686	-0.408034	-0.348255
F250	F	0.743686	-0.158034	-0.098255
F251	F	0.993686	0.091966	0.151745
F252	F	1.243686	0.341966	0.401745
H253	H	0.933633	-0.242475	-0.975262
H254	H	1.183633	0.007525	-0.725262
H255	H	1.433633	0.257525	-0.475262
H256	H	1.683633	0.507525	-0.225262
F257	F	0.922250	-0.792048	-0.525807
F258	F	1.172250	-0.542048	-0.275807
F259	F	1.422250	-0.292048	-0.025807
F260	F	1.672250	-0.042048	0.224193
H261	H	0.933660	-0.242432	-1.123995
H262	H	1.183660	0.007568	-0.873995
H263	H	1.433660	0.257568	-0.623995
H264	H	1.683660	0.507568	-0.373995
H265	H	0.933423	-0.632536	-0.513767
H266	H	1.183423	-0.382536	-0.263767
H267	H	1.433423	-0.132536	-0.013767
H268	H	1.683423	0.117464	0.236233
H269	H	0.933595	-0.242525	-0.722414
H270	H	1.183595	0.007475	-0.472414
H271	H	1.433595	0.257475	-0.222414
H272	H	1.683595	0.507475	0.027586
H273	H	0.416087	-0.401711	-0.354602
H274	H	0.666087	-0.151711	-0.104602
H275	H	0.916087	0.098289	0.145398
H276	H	1.166087	0.348289	0.395398
F277	F	0.922399	-0.230460	-0.880860
F278	F	1.172399	0.019540	-0.630860
F279	F	1.422399	0.269540	-0.380860
F280	F	1.672399	0.519540	-0.130860
H281	H	0.527827	-0.264588	-0.492121
H282	H	0.777827	-0.014588	-0.242121
H283	H	1.027827	0.235412	0.007879
H284	H	1.277827	0.485412	0.257879
H285	H	1.096529	-0.416916	-0.878888
H286	H	1.346529	-0.166916	-0.628888
H287	H	1.596529	0.083084	-0.378888
H288	H	1.846529	0.333084	-0.128888
F289	F	1.107723	-0.428980	-0.720445
F290	F	1.357723	-0.178980	-0.470445
F291	F	1.607723	0.071020	-0.220445
F292	F	1.857723	0.321020	0.029555
F293	F	0.922276	-0.875668	-0.525825
F294	F	1.172276	-0.625668	-0.275825
F295	F	1.422276	-0.375668	-0.025825
F296	F	1.672276	-0.125668	0.224175
H297	H	1.096564	-0.773480	-0.339591
H298	H	1.346564	-0.523480	-0.089591
H299	H	1.596564	-0.273480	0.160409
H300	H	1.846564	-0.023480	0.410409
F301	F	1.107802	-0.428868	-1.142520
F302	F	1.357802	-0.178868	-0.892520
F303	F	1.607802	0.071132	-0.642520
F304	F	1.857802	0.321132	-0.392520
F305	F	1.107837	-0.866819	-0.327604
F306	F	1.357837	-0.616819	-0.077604
F307	F	1.607837	-0.366819	0.172396
F308	F	1.857837	-0.116819	0.422396
H309	H	0.416197	-0.219786	-0.537109
H310	H	0.666197	0.030214	-0.287109
H311	H	0.916197	0.280214	-0.037109
H312	H	1.166197	0.530214	0.212891
F313	F	0.273958	-0.214039	-0.542899
F314	F	0.523958	0.035961	-0.292899
F315	F	0.773958	0.285961	-0.042899
F316	F	1.023958	0.535961	0.207101
F317	F	0.605320	-0.452840	-0.303278
F318	F	0.855320	-0.202840	-0.053278
F319	F	1.105320	0.047160	0.196722
F320	F	1.355320	0.297160	0.446722
F321	F	1.107897	-1.036043	-0.327633
F322	F	1.357897	-0.786043	-0.077633
F323	F	1.607897	-0.536043	0.172367
F324	F	1.857897	-0.286043	0.422367
H325	H	0.933585	-1.034106	-0.513864
H326	H	1.183585	-0.784106	-0.263864
H327	H	1.433585	-0.534106	-0.013864
H328	H	1.683585	-0.284106	0.236136
F329	F	0.605444	-0.245842	-0.510927
F330	F	0.855444	0.004158	-0.260927
F331	F	1.105444	0.254158	-0.010927
F332	F	1.355444	0.504158	0.239073
F333	F	0.756853	-0.238617	-0.518154
F334	F	1.006853	0.011383	-0.268154
F335	F	1.256853	0.261383	-0.018154
F336	F	1.506853	0.511383	0.231846
H337	H	1.096532	-0.416904	-0.983017
H338	H	1.346532	-0.166904	-0.733017
H339	H	1.596532	0.083096	-0.483017
H340	H	1.846532	0.333096	-0.233017
F341	F	0.273840	-0.421057	-0.335265
F342	F	0.523840	-0.171057	-0.085265
F343	F	0.773840	0.078943	0.164735
F344	F	1.023840	0.328943	0.414735
H345	H	0.747575	-0.433518	-0.322637
H346	H	0.997575	-0.183518	-0.072637
H347	H	1.247575	0.066482	0.177363
H348	H	1.497575	0.316482	0.427363
