data_functionalizedCrystal
_audit_creation_method	'MofGen! by Chris Wilmer'
_symmetry_space_group_name_H-M	'P1'
_symmetry_Int_Tables_number	1
_symmetry_cell_setting	triclinic
loop_
_symmetry_equiv_pos_as_xyz
  x,y,z
_cell_length_a	15.995292
_cell_length_b	16.974959
_cell_length_c	16.053802
_cell_angle_alpha	88.925605
_cell_angle_beta	87.423561
_cell_angle_gamma	83.436270
loop_
_atom_site_label
_atom_site_type_symbol
_atom_site_fract_x
_atom_site_fract_y
_atom_site_fract_z
O1	O	1.107722	0.104689	0.062388
O2	O	1.607722	0.604689	0.562388
O3	O	0.863970	0.117282	0.061535
O4	O	1.363970	0.617282	0.561535
O5	O	0.992240	-0.003745	0.069698
O6	O	1.492240	0.496255	0.569698
O7	O	0.979453	0.225716	0.054225
O8	O	1.479453	0.725716	0.554225
O9	O	0.999292	-0.010386	-0.068713
O10	O	1.499292	0.489614	0.431287
O11	O	0.871023	0.110640	-0.076876
O12	O	1.371023	0.610640	0.423124
O13	O	1.114775	0.098048	-0.076023
O14	O	1.614775	0.598048	0.423977
Zn15	Zn	0.994019	0.103290	-0.098425
Zn16	Zn	1.494019	0.603290	0.401575
Zn17	Zn	0.984727	0.112040	0.083937
Zn18	Zn	1.484727	0.612040	0.583937
O19	O	0.986506	0.219074	-0.084186
O20	O	1.486506	0.719074	0.415814
C21	C	0.836300	0.113448	-0.007636
C22	C	1.336300	0.613448	0.492364
C23	C	0.743343	0.111912	-0.007534
C24	C	1.243343	0.611912	0.492466
C25	C	0.995145	-0.036428	0.002474
C26	C	1.495145	0.463572	0.502474
C27	C	0.993287	-0.123918	0.008379
C28	C	1.493287	0.376082	0.508379
C29	C	0.982484	-0.616013	0.049806
C30	C	1.482484	-0.116013	0.549806
C31	C	0.984223	-0.533806	0.044241
C32	C	1.484223	-0.033806	0.544241
C33	C	0.988930	-0.496339	-0.033990
C34	C	1.488930	0.003661	0.466010
C35	C	0.991907	-0.541084	-0.106660
C36	C	1.491907	-0.041084	0.393340
C37	C	0.990174	-0.623290	-0.101094
C38	C	1.490174	-0.123290	0.398906
C39	C	0.994531	-0.250870	-0.058726
C40	C	1.494531	0.249130	0.441274
C41	C	0.996261	-0.168657	-0.064286
C42	C	1.496261	0.331343	0.435714
C43	C	0.988578	-0.161385	0.086615
C44	C	1.488578	0.338615	0.586615
C45	C	0.986841	-0.243593	0.092174
C46	C	1.486841	0.256407	0.592174
C47	C	0.989822	-0.288331	0.019504
C48	C	1.489822	0.211669	0.519504
N49	N	0.990705	-0.412310	-0.039680
N50	N	1.490705	0.087690	0.460320
N51	N	0.988053	-0.372359	0.025195
N52	N	1.488053	0.127641	0.525195
C53	C	0.405591	0.106264	-0.007144
C54	C	0.905591	0.606264	0.492856
C55	C	0.429094	0.193632	-0.012725
C56	C	0.929094	0.693632	0.487275
C57	C	0.525789	0.195277	-0.013152
C58	C	1.025789	0.695277	0.486848
C59	C	0.573154	0.109066	-0.007337
C60	C	1.073154	0.609066	0.492663
C61	C	0.547976	0.061601	-0.083429
C62	C	1.047976	0.561601	0.416571
C63	C	0.451186	0.060547	-0.083420
C64	C	0.951186	0.560547	0.416580
C65	C	0.443307	0.066315	0.074099
C66	C	0.943307	0.566315	0.574099
C67	C	0.539754	0.069602	0.074922
C68	C	1.039754	0.569602	0.574922
C69	C	0.667854	0.110646	-0.007449
C70	C	1.167854	0.610646	0.492551
C71	C	0.310892	0.104682	-0.007037
C72	C	0.810892	0.604682	0.492963
C73	C	1.142445	0.101881	-0.006850
C74	C	1.642445	0.601881	0.493150
C75	C	1.235401	0.103418	-0.006947
C76	C	1.735401	0.603418	0.493053
C77	C	0.983600	0.251757	-0.016960
C78	C	1.483600	0.751757	0.483040
C79	C	0.985458	0.339248	-0.022859
C80	C	1.485458	0.839248	0.477141
N81	N	0.978386	0.118006	0.208395
N82	N	1.478386	0.618006	0.708395
N83	N	1.000366	0.097317	-0.222883
N84	N	1.500366	0.597317	0.277117
C85	C	1.033069	0.066608	0.255556
C86	C	1.533069	0.566608	0.755556
C87	C	1.028632	0.070780	0.342681
C88	C	1.528632	0.570780	0.842681
C89	C	0.969506	0.126347	0.382645
C90	C	1.469506	0.626347	0.882645
C91	C	0.914820	0.177751	0.335478
C92	C	1.414820	0.677751	0.835478
C93	C	0.919262	0.173582	0.248354
C94	C	1.419262	0.673582	0.748354
C95	C	0.950122	0.144552	0.642826
C96	C	1.450122	0.644552	1.142826
C97	C	0.945682	0.148716	0.729957
C98	C	1.445682	0.648716	1.229957
C99	C	1.059496	0.041745	0.737154
C100	C	1.559496	0.541745	1.237154
C101	C	1.063930	0.037578	0.650029
C102	C	1.563930	0.537578	1.150029
C103	C	1.009247	0.088985	0.602869
C104	C	1.509247	0.588985	1.102869
N105	N	0.964967	0.130611	0.471701
N106	N	1.464967	0.630611	0.971701
N107	N	1.013790	0.084724	0.513814
N108	N	1.513790	0.584724	1.013814
H109	H	0.978643	-0.646512	0.113509
H110	H	1.478643	-0.146512	0.613509
H111	H	1.081213	0.021356	0.223024
H112	H	1.581213	0.521356	0.723024
H113	H	0.874733	0.215437	0.209956
H114	H	1.374733	0.715437	0.709956
C115	C	0.981754	-0.284812	0.178234
C116	C	1.481754	0.215188	0.678234
N117	N	0.977954	-0.315862	0.243057
N118	N	1.477954	0.184138	0.743057
C119	C	0.387474	0.242798	0.060779
C120	C	0.887474	0.742798	0.560779
N121	N	0.356119	0.279830	0.116145
N122	N	0.856119	0.779830	0.616145
C123	C	0.997797	-0.300070	-0.138666
C124	C	1.497797	0.199930	0.361334
N125	N	1.000253	-0.337129	-0.198881
N126	N	1.500253	0.162871	0.301119
H127	H	0.981802	-0.497383	0.103412
H128	H	1.481802	0.002617	0.603412
C129	C	0.985312	-0.112168	0.166547
C130	C	1.485312	0.387832	0.666547
N131	N	0.982858	-0.075099	0.226755
N132	N	1.482858	0.424901	0.726755
H133	H	0.403026	0.224411	-0.071345
H134	H	0.903026	0.724411	0.428655
C135	C	1.001447	-0.127446	-0.150350
C136	C	1.501447	0.372554	0.349650
N137	N	1.005354	-0.096406	-0.215169
N138	N	1.505354	0.403594	0.284831
C139	C	0.997081	-0.499866	-0.192715
C140	C	1.497081	0.000134	0.307285
N141	N	1.000973	-0.468821	-0.257533
N142	N	1.500973	0.031179	0.242467
C143	C	0.993443	-0.672502	-0.181032
C144	C	1.493443	-0.172502	0.318968
N145	N	0.995907	-0.709568	-0.241243
N146	N	1.495907	-0.209568	0.258757
H147	H	0.542009	0.232194	0.041200
H148	H	1.042009	0.732194	0.541200
H149	H	0.436668	-0.003674	-0.082691
H150	H	0.936668	0.496326	0.417309
H151	H	0.411992	0.096494	0.132163
H152	H	0.911992	0.596494	0.632163
C153	C	1.128948	-0.023573	0.606077
C154	C	1.628948	0.476427	1.106077
N155	N	1.177910	-0.069644	0.572974
N156	N	1.677910	0.430356	1.072974
C157	C	0.880583	0.209795	0.773918
C158	C	1.380583	0.709795	1.273918
N159	N	0.831531	0.255779	0.807031
N160	N	1.331531	0.755779	1.307031
H161	H	0.547166	0.226963	-0.072226
H162	H	1.047166	0.726963	0.427774
H163	H	0.427451	0.087957	-0.144543
H164	H	0.927451	0.587957	0.355457
H165	H	0.555419	0.104206	0.131248
H166	H	1.055419	0.604206	0.631248
C167	C	1.119640	-0.014802	0.789037
C168	C	1.619640	0.485198	1.289037
N169	N	1.164942	-0.057396	0.828115
N170	N	1.664942	0.442604	1.328115
H171	H	0.579844	-0.001980	-0.082088
H172	H	1.079844	0.498020	0.417912
C173	C	0.579210	0.098765	-0.165657
C174	C	1.079210	0.598765	0.334343
N175	N	0.602731	0.126762	-0.227591
N176	N	1.102731	0.626762	0.272409
C177	C	0.583757	-0.015103	0.087101
C178	C	1.083757	0.484897	0.587101
N179	N	0.616898	-0.078908	0.096267
N180	N	1.116898	0.421092	0.596267
C181	C	0.424158	-0.020513	0.080682
C182	C	0.924158	0.479487	0.580682
N183	N	0.409730	-0.085909	0.085635
N184	N	0.909730	0.414091	0.585635
H185	H	1.073160	0.028927	0.381079
H186	H	1.573160	0.528927	0.881079
H187	H	0.905595	0.186408	0.604436
H188	H	1.405595	0.686408	1.104436
H189	H	0.866681	0.222998	0.368020
H190	H	1.366681	0.722998	0.868020
