data_functionalizedCrystal
_audit_creation_method	'MofGen! by Chris Wilmer'
_symmetry_space_group_name_H-M	'P1'
_symmetry_Int_Tables_number	1
_symmetry_cell_setting	triclinic
loop_
_symmetry_equiv_pos_as_xyz
  x,y,z
_cell_length_a	19.188930
_cell_length_b	19.188905
_cell_length_c	18.266242
_cell_angle_alpha	90.016065
_cell_angle_beta	90.010255
_cell_angle_gamma	83.139668
loop_
_atom_site_label
_atom_site_type_symbol
_atom_site_fract_x
_atom_site_fract_y
_atom_site_fract_z
O1	O	0.087084	0.926160	0.061010
O2	O	0.098837	0.722847	0.060986
O3	O	-0.008696	0.830371	0.060984
O4	O	0.194617	0.818636	0.061011
O5	O	-0.008699	0.830353	-0.060778
O6	O	0.098834	0.722828	-0.060776
O7	O	0.087081	0.926142	-0.060752
Zn8	Zn	0.092957	0.824482	-0.080097
Zn9	Zn	0.092961	0.824506	0.080330
O10	O	0.194614	0.818618	-0.060751
C11	C	0.098458	0.696826	0.000102
C12	C	0.097324	0.619321	0.000092
C13	C	0.096781	0.582939	0.066466
C14	C	0.095708	0.510115	0.066475
C15	C	0.095164	0.473678	0.000106
C16	C	0.095711	0.510068	-0.066277
C17	C	0.096791	0.582890	-0.066284
N18	N	0.053734	0.364651	-0.049292
N19	N	0.052706	0.295474	-0.049280
C20	C	0.091911	0.254272	0.000123
N21	N	0.132173	0.284861	0.049526
N22	N	0.133198	0.354045	0.049517
C23	C	0.093993	0.394716	0.000106
C24	C	0.090206	0.138926	0.066512
C25	C	0.089137	0.066100	0.066518
C26	C	0.089133	0.066056	-0.066236
C27	C	0.090209	0.138879	-0.066240
C28	C	0.090742	0.175310	0.000136
C29	C	-0.034708	0.829982	0.000101
C30	C	-0.112213	0.828841	0.000095
C31	C	-0.157142	0.891933	0.000099
C32	C	-0.229966	0.890861	0.000110
C33	C	-0.257857	0.826694	0.000103
C34	C	-0.212917	0.763594	0.000103
C35	C	-0.140095	0.764668	0.000099
N36	N	-0.365858	0.777640	-0.041341
N37	N	-0.435037	0.776624	-0.041338
C38	C	-0.477265	0.823456	0.000118
N39	N	-0.447703	0.871352	0.041561
N40	N	-0.378518	0.872369	0.041556
C41	C	-0.336819	0.825523	0.000108
C42	C	-0.601159	0.885390	0.000135
C43	C	-0.673984	0.884315	0.000151
C44	C	-0.656933	0.757047	0.000137
C45	C	-0.584110	0.758123	0.000128
C46	C	-0.556228	0.822296	0.000124
C47	C	0.220626	0.819007	0.000134
C48	C	0.298131	0.820148	0.000145
C49	C	0.087460	0.952163	0.000134
C50	C	0.088594	1.029668	0.000148
N51	N	0.092954	0.824471	-0.189583
C52	C	0.135196	0.866681	-0.227875
C53	C	0.135194	0.866692	-0.304520
C54	C	0.092958	0.824481	-0.342870
C55	C	0.050708	0.782269	-0.304570
C56	C	0.050706	0.782264	-0.227926
N57	N	0.091244	0.763333	-0.463231
N58	N	0.091250	0.763339	-0.536039
C59	C	0.092961	0.824495	-0.573793
N60	N	0.094679	0.885645	-0.535988
N61	N	0.094677	0.885637	-0.463173
C62	C	0.092955	0.824482	-0.425977
C63	C	0.135202	0.866721	-0.695191
C64	C	0.135195	0.866734	-0.771838
C65	C	0.050714	0.782304	-0.771886
C66	C	0.050717	0.782298	-0.695241
C67	C	0.092965	0.824505	-0.656898
N68	N	0.092959	0.824523	0.189817
H69	H	0.097234	0.612511	-0.120336
H70	H	0.016322	0.747923	-0.664064
H71	H	0.090647	0.168589	0.120559
O72	O	0.095087	0.474766	-0.130795
C73	C	0.034887	0.500641	-0.171176
H74	H	0.015518	0.556223	-0.152311
H75	H	-0.008056	0.465336	-0.161977
C76	C	0.077089	0.433248	-0.276368
C77	C	0.053303	0.501517	-0.253202
H78	H	0.088447	0.433785	-0.326966
H79	H	0.117646	0.415813	-0.249162
H80	H	0.041299	0.403834	-0.268696
H81	H	0.089096	0.530927	-0.260866
H82	H	0.012753	0.518956	-0.280411
O83	O	-0.540362	0.696899	0.000149
C84	C	-0.470108	0.711606	0.000128
H85	H	-0.467483	0.766443	0.023185
H86	H	-0.449050	0.708884	-0.058288
C87	C	-0.428580	0.589918	0.019554
C88	C	-0.425356	0.657268	0.047878
H89	H	-0.400974	0.556399	0.049005
H90	H	-0.475912	0.580010	0.019565
H91	H	-0.411033	0.587661	-0.029127
H92	H	-0.442910	0.659527	0.096553
H93	H	-0.378026	0.667176	0.047876
O94	O	0.095151	0.474876	0.131019
C95	C	0.095876	0.522644	0.189602
H96	H	0.074546	0.577510	0.170138
H97	H	0.151992	0.522888	0.210020
C98	C	0.075873	0.432990	0.276209
C99	C	0.049670	0.500377	0.252305
H100	H	0.047374	0.419254	0.314890
H101	H	0.075387	0.400807	0.236742
H102	H	0.122636	0.433202	0.293220
H103	H	0.002912	0.500162	0.235287
H104	H	0.050147	0.532559	0.291772
H105	H	0.088699	0.036479	0.120570
O106	O	0.090602	0.174210	-0.130737
C107	C	0.029890	0.164489	-0.171128
H108	H	-0.012660	0.150148	-0.132294
H109	H	0.042930	0.120372	-0.212509
C110	C	0.055694	0.250451	-0.259508
C111	C	0.003431	0.232843	-0.211810
H112	H	0.039374	0.292613	-0.284605
H113	H	0.096599	0.256999	-0.232297
H114	H	0.066556	0.213681	-0.293985
H115	H	-0.007423	0.269608	-0.177329
H116	H	-0.037476	0.226303	-0.239016
H117	H	-0.103513	0.713289	0.000096
O118	O	-0.574185	0.947785	0.000176
C119	C	-0.629461	1.003244	0.000174
H120	H	-0.678867	0.983826	0.023226
H121	H	-0.639840	1.022693	-0.058236
C122	C	-0.548401	1.087634	0.019625
C123	C	-0.609081	1.063785	0.047943
H124	H	-0.535829	1.124979	0.049088
H125	H	-0.511159	1.050271	0.019624
H126	H	-0.557058	1.103836	-0.029049
H127	H	-0.600420	1.047575	0.096613
H128	H	-0.646321	1.101147	0.047954
O129	O	0.088476	0.030658	-0.130691
C130	C	0.027404	-0.003376	-0.134657
H131	H	-0.014522	0.024244	-0.096994
H132	H	0.040254	-0.060393	-0.116823
C133	C	0.051461	-0.034765	-0.260216
C134	C	-0.000035	-0.000838	-0.213962
H135	H	0.034537	-0.033203	-0.309135
H136	H	0.092609	-0.011839	-0.257543
H137	H	0.062166	-0.082277	-0.245345
H138	H	-0.010732	0.046674	-0.228828
H139	H	-0.041185	-0.023757	-0.216639
H140	H	-0.710565	0.935694	0.000158
H141	H	-0.134445	0.944187	0.000097
H142	H	0.169595	0.901052	-0.196661
H143	H	0.016324	0.747936	-0.803110
H144	H	-0.679641	0.704801	0.000135
O145	O	0.176296	0.907713	-0.341613
C146	C	0.213568	0.944980	-0.291336
H147	H	0.217713	0.916065	-0.236709
H148	H	0.184669	0.999874	-0.283174
C149	C	0.282629	0.986109	-0.388325
C150	C	0.287725	0.950591	-0.321234
H151	H	0.328371	0.989573	-0.406768
H152	H	0.257516	0.961004	-0.422199
H153	H	0.258543	1.031850	-0.381514
H154	H	0.311802	0.904848	-0.328047
H155	H	0.312844	0.975689	-0.287362
H156	H	0.169592	0.901111	-0.803013
H157	H	-0.266555	0.942239	0.000116
O158	O	0.009655	0.741191	-0.190840
C159	C	-0.027642	0.703951	-0.241120
H160	H	0.001270	0.699792	-0.295751
H161	H	-0.082521	0.732885	-0.249268
C162	C	-0.068816	0.634915	-0.144138
C163	C	-0.033302	0.629801	-0.211236
H164	H	-0.072311	0.589177	-0.125704
H165	H	-0.043691	0.660006	-0.110263
H166	H	-0.114545	0.659029	-0.150938
H167	H	0.012429	0.605695	-0.204434
H168	H	-0.058420	0.604704	-0.245109
O169	O	-0.239974	0.701245	0.000225
C170	C	-0.216969	0.662801	0.063275
H171	H	-0.201929	0.700336	0.107353
H172	H	-0.169387	0.623744	0.049014
C173	C	-0.294904	0.576761	0.037730
C174	C	-0.276437	0.622863	0.091871
H175	H	-0.331585	0.552123	0.055368
H176	H	-0.310401	0.602660	-0.004749
H177	H	-0.255247	0.544220	0.025851
H178	H	-0.316091	0.655408	0.103742
H179	H	-0.260948	0.596969	0.134353
H180	H	0.016319	0.747901	-0.335800
H181	H	0.169603	0.901089	-0.663971
H182	H	0.097215	0.612597	0.120515
