data_functionalizedCrystal
_audit_creation_method	'MofGen! by Chris Wilmer'
_symmetry_space_group_name_H-M	'P1'
_symmetry_Int_Tables_number	1
_symmetry_cell_setting	triclinic
loop_
_symmetry_equiv_pos_as_xyz
  x,y,z
_cell_length_a	12.645331
_cell_length_b	16.120484
_cell_length_c	16.120256
_cell_angle_alpha	84.383827
_cell_angle_beta	92.878155
_cell_angle_gamma	87.075450
loop_
_atom_site_label
_atom_site_type_symbol
_atom_site_fract_x
_atom_site_fract_y
_atom_site_fract_z
Zn1	Zn	1.566080	0.356785	-0.489464
Zn2	Zn	2.066080	0.856785	0.010536
Zn3	Zn	1.565947	0.489471	-0.356773
Zn4	Zn	2.065947	0.989471	0.143227
Zn5	Zn	1.398270	0.349715	-0.349708
Zn6	Zn	1.898270	0.849715	0.150292
Zn7	Zn	1.379289	0.496514	-0.496496
Zn8	Zn	1.879289	0.996514	0.003504
O9	O	1.477397	0.423121	-0.423110
O10	O	1.977397	0.923121	0.076890
O11	O	1.714408	0.374398	-0.471876
O12	O	2.214408	0.874398	0.028124
O13	O	1.551592	0.465025	-0.238874
O14	O	2.051592	0.965025	0.261126
O15	O	1.428530	0.233687	-0.362347
O16	O	1.928530	0.733687	0.137653
O17	O	1.714310	0.471882	-0.374389
O18	O	2.214310	0.971882	0.125611
O19	O	1.551819	0.238882	-0.465025
O20	O	2.051819	0.738882	0.034975
O21	O	1.428401	0.362347	-0.233683
O22	O	1.928401	0.862347	0.266317
O23	O	1.247407	0.369176	-0.369166
O24	O	1.747407	0.869176	0.130834
O25	O	1.396180	0.483885	-0.612526
O26	O	1.896180	0.983885	-0.112526
O27	O	1.233462	0.477029	-0.477010
O28	O	1.733462	0.977029	0.022990
O29	O	1.533414	0.381227	-0.607359
O30	O	2.033414	0.881227	-0.107359
O31	O	1.533187	0.607371	-0.381208
O32	O	2.033187	1.107371	0.118792
O33	O	1.396051	0.612545	-0.483861
O34	O	1.896051	1.112545	0.016139
C35	C	1.201970	0.423100	-0.423085
C36	C	1.701970	0.923100	0.076915
C37	C	1.084138	0.423112	-0.423095
C38	C	1.584138	0.923112	0.076905
C39	C	1.462572	0.640286	-0.434082
C40	C	1.962572	1.140286	0.065918
C41	C	1.456325	0.733192	-0.438804
C42	C	1.956325	1.233192	0.061196
C43	C	1.462694	0.434130	-0.641117
C44	C	1.962694	0.934130	-0.141117
C45	C	1.456429	0.438822	-0.734019
C46	C	1.956429	0.938822	-0.234019
C47	C	0.925308	0.354983	-0.355592
C48	C	1.425308	0.854983	0.144408
C49	C	1.047875	0.355137	-0.355317
C50	C	1.547875	0.855137	0.144683
C51	C	1.035270	0.509941	-0.403489
C52	C	1.535270	1.009941	0.096511
C53	C	0.912725	0.509564	-0.403033
C54	C	1.412725	1.009564	0.096967
C55	C	0.912503	0.405263	-0.510495
C56	C	1.412503	0.905263	-0.010495
C57	C	1.035275	0.403271	-0.509904
C58	C	1.535275	0.903271	-0.009904
C59	C	1.753899	0.423143	-0.423136
C60	C	2.253899	0.923143	0.076864
C61	C	1.871727	0.423152	-0.423147
C62	C	2.371727	0.923152	0.076853
C63	C	1.492307	0.205109	-0.412114
C64	C	1.992307	0.705109	0.087886
C65	C	1.498660	0.112205	-0.407428
C66	C	1.998660	0.612205	0.092572
C67	C	1.444925	0.903292	-0.447442
C68	C	1.944925	1.403292	0.052558
C69	C	1.510057	0.942110	-0.398792
C70	C	2.010057	1.442110	0.101208
C71	C	1.503714	1.036760	-0.403598
C72	C	2.003714	1.536760	0.096402
C73	C	1.451267	0.808634	-0.442637
C74	C	1.951267	1.308634	0.057363
C75	C	1.510068	0.398634	-0.942945
C76	C	2.010068	0.898634	-0.442945
C77	C	1.444958	0.447353	-0.904104
C78	C	1.944958	0.947353	-0.404104
C79	C	1.451342	0.442605	-0.809460
C80	C	1.951342	0.942605	-0.309460
C81	C	1.503685	0.403381	-1.037598
C82	C	2.003685	0.903381	-0.537598
C83	C	1.492107	0.412094	-0.205948
C84	C	1.992107	0.912094	0.294052
C85	C	1.498593	0.407168	-0.113035
C86	C	1.998593	0.907168	0.386965
H87	H	0.899280	0.290252	-0.367198
H88	H	1.399280	0.790252	0.132802
O89	O	0.865554	0.471092	-0.577104
O90	O	1.365554	0.971092	-0.077104
H91	H	0.889743	0.533442	-0.562279
H92	H	1.389743	1.033442	-0.062279
H93	H	1.570581	0.904259	-0.353531
H94	H	2.070581	1.404259	0.146469
H95	H	1.384404	0.941140	-0.492699
H96	H	1.884404	1.441140	0.007301
H97	H	1.384414	0.492623	-0.941931
H98	H	1.884414	0.992623	-0.441931
O99	O	1.590271	0.338675	-0.892850
O100	O	2.090271	0.838675	-0.392850
H101	H	1.582769	0.344322	-0.825299
H102	H	2.082769	0.844322	-0.325299
H103	H	0.897887	0.366302	-0.291150
H104	H	1.397887	0.866302	0.208850
O105	O	1.092282	0.269659	-0.370890
O106	O	1.592282	0.769659	0.129110
H107	H	1.026205	0.227838	-0.378683
H108	H	1.526205	0.727838	0.121317
H109	H	1.080595	0.366600	-0.290498
H110	H	1.580595	0.866600	0.209502
H111	H	0.876649	0.561834	-0.450334
H112	H	1.376649	1.061834	0.049666
O113	O	0.878874	0.530339	-0.318622
O114	O	1.378874	1.030339	0.181378
H115	H	0.905186	0.593012	-0.306959
H116	H	1.405186	1.093012	0.193041
O117	O	1.065364	0.578769	-0.466871
O118	O	1.565364	1.078769	0.033129
H119	H	1.115596	0.551756	-0.513126
H120	H	1.615596	1.051756	-0.013126
H121	H	1.068954	0.525998	-0.340477
H122	H	1.568954	1.025998	0.159523
H123	H	1.067549	0.339398	-0.524769
H124	H	1.567549	0.839398	-0.024769
O125	O	0.875305	0.323167	-0.535255
O126	O	1.375305	0.823167	-0.035255
H127	H	0.787306	0.325371	-0.538988
H128	H	1.287306	0.825371	-0.038988
O129	O	1.067383	0.464738	-0.579660
O130	O	1.567383	0.964738	-0.079660
H131	H	1.155091	0.461584	-0.581691
H132	H	1.655091	0.961584	-0.081691
