data_functionalizedCrystal
_audit_creation_method	'MofGen! by Chris Wilmer'
_symmetry_space_group_name_H-M	'P1'
_symmetry_Int_Tables_number	1
_symmetry_cell_setting	triclinic
loop_
_symmetry_equiv_pos_as_xyz
  x,y,z
_cell_length_a	19.188933
_cell_length_b	19.188930
_cell_length_c	18.266242
_cell_angle_alpha	90.011475
_cell_angle_beta	89.992377
_cell_angle_gamma	96.854825
loop_
_atom_site_label
_atom_site_type_symbol
_atom_site_fract_x
_atom_site_fract_y
_atom_site_fract_z
O1	O	0.926148	-0.087175	-0.060865
O2	O	1.426148	0.412825	0.439135
O3	O	0.722837	-0.098908	-0.060873
O4	O	1.222837	0.401092	0.439127
O5	O	0.830360	0.008614	-0.060854
O6	O	1.330360	0.508614	0.439146
O7	O	0.818626	-0.194697	-0.060883
O8	O	1.318626	0.305303	0.439117
O9	O	0.830342	0.008620	0.060908
O10	O	1.330342	0.508620	0.560908
O11	O	0.722819	-0.098902	0.060889
O12	O	1.222819	0.401098	0.560889
O13	O	0.926130	-0.087170	0.060897
O14	O	1.426130	0.412830	0.560897
Zn15	Zn	0.824472	-0.093035	0.080226
Zn16	Zn	1.324472	0.406965	0.580226
Zn17	Zn	0.824496	-0.093042	-0.080201
Zn18	Zn	1.324496	0.406958	0.419799
O19	O	0.818608	-0.194692	0.060879
O20	O	1.318608	0.305308	0.560879
C21	C	0.696817	-0.098525	0.000008
C22	C	1.196817	0.401475	0.500008
C23	C	0.619313	-0.097384	0.000005
C24	C	1.119313	0.402616	0.500005
C25	C	0.066067	-0.089242	-0.066358
C26	C	0.566067	0.410758	0.433642
C27	C	0.138892	-0.090310	-0.066361
C28	C	0.638892	0.409690	0.433639
C29	C	0.175299	-0.090844	0.000011
C30	C	0.675299	0.409156	0.500011
C31	C	0.138878	-0.090292	0.066391
C32	C	0.638878	0.409708	0.566391
C33	C	0.066056	-0.089217	0.066392
C34	C	0.566056	0.410783	0.566392
N35	N	0.284311	-0.132260	0.049409
N36	N	0.784311	0.367740	0.549409
N37	N	0.353489	-0.133283	0.049403
N38	N	0.853489	0.366717	0.549403
C39	C	0.394707	-0.094082	0.000012
C40	C	0.894707	0.405918	0.500012
N41	N	0.364134	-0.053828	-0.049385
N42	N	0.864134	0.446172	0.450615
N43	N	0.294949	-0.052808	-0.049382
N44	N	0.794949	0.447192	0.450618
C45	C	0.254262	-0.092009	0.000017
C46	C	0.754262	0.407991	0.500017
C47	C	0.510084	-0.095787	-0.066367
C48	C	1.010084	0.404213	0.433633
C49	C	0.582911	-0.096851	-0.066368
C50	C	1.082911	0.403149	0.433632
C51	C	0.582894	-0.096840	0.066386
C52	C	1.082894	0.403160	0.566386
C53	C	0.510071	-0.095769	0.066385
C54	C	1.010071	0.404231	0.566385
C55	C	0.473669	-0.095246	0.000006
C56	C	0.973669	0.404754	0.500006
C57	C	0.829971	0.034628	0.000029
C58	C	1.329971	0.534628	0.500029
C59	C	0.828830	0.112132	0.000035
C60	C	1.328830	0.612132	0.500035
C61	C	0.952150	-0.087553	0.000015
C62	C	1.452150	0.412447	0.500015
C63	C	1.029655	-0.088694	0.000013
C64	C	1.529655	0.411306	0.500013
C65	C	0.818997	-0.220705	-0.000006
C66	C	1.318997	0.279295	0.499994
C67	C	0.820137	-0.298210	-0.000017
C68	C	1.320137	0.201790	0.499983
N69	N	0.824461	-0.093030	0.189713
N70	N	1.324461	0.406970	0.689713
C71	C	0.891921	0.157056	0.000041
C72	C	1.391921	0.657056	0.500041
C73	C	0.890849	0.229880	0.000029
C74	C	1.390849	0.729880	0.500029
C75	C	0.826683	0.257777	0.000026
C76	C	1.326683	0.757777	0.500026
C77	C	0.763584	0.212843	0.000016
C78	C	1.263584	0.712843	0.500016
C79	C	0.764658	0.140021	0.000021
C80	C	1.264658	0.640021	0.500021
N81	N	0.777630	0.365784	0.041462
N82	N	1.277630	0.865784	0.541462
N83	N	0.776614	0.434962	0.041460
N84	N	1.276614	0.934962	0.541460
C85	C	0.823445	0.477185	0.000011
C86	C	1.323445	0.977185	0.500011
N87	N	0.871340	0.447618	-0.041425
N88	N	1.371340	0.947618	0.458575
N89	N	0.872358	0.378433	-0.041419
N90	N	1.372358	0.878433	0.458581
C91	C	0.825512	0.336739	0.000021
C92	C	1.325512	0.836739	0.500021
C93	C	0.885378	0.601073	0.000004
C94	C	1.385378	1.101073	0.500004
C95	C	0.884304	0.673898	-0.000013
C96	C	1.384304	1.173898	0.499987
C97	C	0.757037	0.656860	-0.000019
C98	C	1.257037	1.156860	0.499981
C99	C	0.758113	0.584037	-0.000010
C100	C	1.258113	1.084037	0.499990
C101	C	0.822286	0.556148	0.000005
C102	C	1.322286	1.056148	0.500005
N103	N	0.824512	-0.093042	-0.189688
N104	N	1.324512	0.406958	0.310312
C105	C	0.872087	-0.045442	0.228030
C106	C	1.372087	0.454558	0.728030
C107	C	0.872092	-0.045439	0.304675
C108	C	1.372092	0.454561	0.804675
C109	C	0.824476	-0.093035	0.342999
C110	C	1.324476	0.406965	0.842999
C111	C	0.776841	-0.140626	0.304673
C112	C	1.276841	0.359374	0.804673
C113	C	0.776833	-0.140624	0.228030
C114	C	1.276833	0.359376	0.728030
N115	N	0.815400	-0.154843	0.463323
N116	N	1.315400	0.345157	0.963323
N117	N	0.815412	-0.154843	0.536131
N118	N	1.315412	0.345157	1.036131
C119	C	0.824496	-0.093045	0.573922
C120	C	1.324496	0.406955	1.073922
N121	N	0.833581	-0.031245	0.536154
N122	N	1.333581	0.468755	1.036154
N123	N	0.833573	-0.031245	0.463339
N124	N	1.333573	0.468755	0.963339
C125	C	0.824479	-0.093043	0.426106
C126	C	1.324479	0.406957	0.926106
C127	C	0.872130	-0.045450	0.695346
C128	C	1.372130	0.454550	1.195346
C129	C	0.872129	-0.045446	0.771992
C130	C	1.372129	0.454554	1.271992
C131	C	0.776882	-0.140640	0.771990
C132	C	1.276882	0.359360	1.271990
C133	C	0.776879	-0.140638	0.695345
C134	C	1.276879	0.359362	1.195345
C135	C	0.824506	-0.093044	0.657028
C136	C	1.324506	0.406956	1.157028
H137	H	0.168525	-0.090726	0.120432
H138	H	0.668525	0.409274	0.620432
C139	C	0.051660	-0.028870	0.179550
C140	C	0.551660	0.471130	0.679550
C141	C	0.026029	-0.088620	0.139355
C142	C	0.526029	0.411380	0.639355
H143	H	0.026950	-0.028506	0.224596
H144	H	0.526950	0.471494	0.724596
H145	H	0.045170	0.012001	0.152283
H146	H	0.545170	0.512001	0.652283
H147	H	0.100240	-0.029591	0.189042
H148	H	0.600240	0.470409	0.689042
H149	H	-0.022551	-0.087896	0.129858
H150	H	0.477449	0.412104	0.629858
H151	H	0.032513	-0.129501	0.166628
H152	H	0.532513	0.370499	0.666628
H153	H	0.711340	0.235562	0.000012
H154	H	1.211340	0.735562	0.500012
C155	C	0.735507	-0.261615	0.795560
C156	C	1.235507	0.238385	1.295560
C157	C	0.724539	-0.192959	0.814106
C158	C	1.224539	0.307041	1.314106
H159	H	0.703187	-0.293912	0.821561
H160	H	1.203187	0.206088	1.321561
H161	H	0.782073	-0.269079	0.808113
H162	H	1.282073	0.230921	1.308113
H163	H	0.728686	-0.268416	0.744428
H164	H	1.228686	0.231584	1.244428
H165	H	0.731365	-0.186156	0.865237
H166	H	1.231365	0.313844	1.365237
H167	H	0.677961	-0.185492	0.801559
H168	H	1.177961	0.314508	1.301559
C169	C	0.761434	-0.235696	0.609134
C170	C	1.261434	0.264304	1.109134
C171	C	0.724534	-0.192957	0.653222
C172	C	1.224534	0.307043	1.153222
H173	H	0.729115	-0.267994	0.583127
H174	H	1.229115	0.232006	1.083127
H175	H	0.790415	-0.260736	0.639022
H176	H	1.290415	0.239264	1.139022
H177	H	0.789788	-0.207342	0.575344
H178	H	1.289788	0.292658	1.075344
H179	H	0.696184	-0.221312	0.687015
H180	H	1.196184	0.278688	1.187015
H181	H	0.695541	-0.167916	0.623331
H182	H	1.195541	0.332084	1.123331
H183	H	0.713280	0.103444	0.000016
H184	H	1.213280	0.603444	0.500016
H185	H	0.738049	-0.179376	0.196831
H186	H	1.238049	0.320624	0.696831
C187	C	1.011067	0.625226	-0.000009
C188	C	1.511067	1.125226	0.499991
C189	C	0.955914	0.570412	0.000002
C190	C	1.455914	1.070412	0.500002
H191	H	1.054612	0.606297	-0.000017
H192	H	1.554612	1.106297	0.499983
H193	H	1.008002	0.653283	0.042448
H194	H	1.508002	1.153283	0.542448
H195	H	1.007997	0.653266	-0.042475
H196	H	1.507997	1.153266	0.457525
H197	H	0.958982	0.542375	0.042470
H198	H	1.458982	1.042375	0.542470
H199	H	0.958981	0.542343	-0.042460
H200	H	1.458981	1.042343	0.457540
C201	C	0.963487	0.321651	-0.062554
C202	C	1.463487	0.821651	0.437446
C203	C	0.960203	0.279272	0.000040
C204	C	1.460203	0.779272	0.500040
H205	H	1.006305	0.352139	-0.062546
H206	H	1.506305	0.852139	0.437454
H207	H	0.925121	0.348680	-0.062556
H208	H	1.425121	0.848680	0.437444
H209	H	0.961275	0.292874	-0.105010
H210	H	1.461275	0.792874	0.394990
H211	H	0.962410	0.308049	0.042497
H212	H	1.462410	0.808049	0.542497
H213	H	0.998580	0.252241	0.000049
H214	H	1.498580	0.752241	0.500049
H215	H	0.480423	-0.095326	0.120432
H216	H	0.980423	0.404674	0.620432
C217	C	0.073405	-0.089353	-0.197579
C218	C	0.573405	0.410647	0.302421
C219	C	0.026058	-0.088652	-0.139321
C220	C	0.526058	0.411348	0.360679
H221	H	0.048703	-0.088982	-0.242622
H222	H	0.548703	0.411018	0.257378
H223	H	0.096352	-0.130478	-0.194825
H224	H	0.596352	0.369522	0.305175
H225	H	0.107262	-0.049066	-0.194804
H226	H	0.607262	0.450934	0.305196
H227	H	-0.007797	-0.128942	-0.142093
H228	H	0.492203	0.371058	0.357907
H229	H	0.003099	-0.047522	-0.142076
H230	H	0.503099	0.452478	0.357924
C231	C	0.436224	-0.034584	-0.143375
C232	C	0.936224	0.465416	0.356625
C233	C	0.470068	-0.095204	-0.139329
C234	C	0.970068	0.404796	0.360671
H235	H	0.411519	-0.034228	-0.188417
H236	H	0.911519	0.465772	0.311583
H237	H	0.470080	0.005697	-0.140614
H238	H	0.970080	0.505697	0.359386
H239	H	0.404113	-0.034117	-0.103842
H240	H	0.904113	0.465883	0.396158
H241	H	0.502183	-0.095668	-0.178859
H242	H	1.002183	0.404332	0.321141
H243	H	0.436209	-0.135495	-0.142097
H244	H	0.936209	0.364505	0.357903
C245	C	0.212768	-0.151544	-0.143362
C246	C	0.712768	0.348456	0.356638
C247	C	0.178931	-0.090918	-0.139319
C248	C	0.678931	0.409082	0.360681
H249	H	0.237489	-0.151917	-0.188401
H250	H	0.737489	0.348083	0.311599
H251	H	0.178907	-0.191821	-0.140608
H252	H	0.678907	0.308179	0.359392
H253	H	0.244864	-0.152003	-0.103825
H254	H	0.744864	0.347997	0.396175
H255	H	0.146831	-0.090462	-0.178853
H256	H	0.646831	0.409538	0.321147
H257	H	0.212796	-0.050631	-0.142080
H258	H	0.712796	0.449369	0.357920
H259	H	0.612537	-0.097273	0.120428
H260	H	1.112537	0.402727	0.620428
C261	C	0.575605	-0.096769	-0.197587
C262	C	1.075605	0.403231	0.302413
C263	C	0.622938	-0.097452	-0.139329
C264	C	1.122938	0.402548	0.360671
H265	H	0.600318	-0.097145	-0.242630
H266	H	1.100318	0.402855	0.257370
H267	H	0.552650	-0.055648	-0.194826
H268	H	1.052650	0.444352	0.305174
H269	H	0.541752	-0.137060	-0.194820
H270	H	1.041752	0.362940	0.305180
H271	H	0.656788	-0.057159	-0.142093
H272	H	1.156788	0.442841	0.357907
H273	H	0.645905	-0.138578	-0.142092
H274	H	1.145905	0.361422	0.357908
H275	H	0.738070	-0.179379	0.335881
H276	H	1.238070	0.320621	0.835881
C277	C	1.000737	0.149149	-0.062544
C278	C	1.500737	0.649149	0.437456
C279	C	0.962459	0.126402	0.000048
C280	C	1.462459	0.626402	0.500048
H281	H	1.044282	0.130220	-0.062541
H282	H	1.544282	0.630220	0.437459
H283	H	1.009123	0.198943	-0.062539
H284	H	1.509123	0.698943	0.437461
H285	H	0.974769	0.133700	-0.105001
H286	H	1.474769	0.633700	0.394999
H287	H	0.988425	0.141856	0.042506
H288	H	1.488425	0.641856	0.542506
H289	H	0.954075	0.076597	0.000050
H290	H	1.454075	0.576597	0.500050
C291	C	0.956945	0.765650	-0.062612
C292	C	1.456945	1.265650	0.437388
C293	C	0.953661	0.723280	-0.000012
C294	C	1.453661	1.223280	0.499988
H295	H	0.999767	0.796132	-0.062613
H296	H	1.499767	1.296132	0.437387
H297	H	0.918583	0.792684	-0.062615
H298	H	1.418583	1.292684	0.437385
H299	H	0.954726	0.736866	-0.105064
H300	H	1.454726	1.236866	0.394936
H301	H	0.955875	0.752063	0.042440
H302	H	1.455875	1.252063	0.542440
H303	H	0.992034	0.696243	-0.000002
H304	H	1.492034	1.196243	0.499998
H305	H	0.704792	0.679573	-0.000025
H306	H	1.204792	1.179573	0.499975
H307	H	0.910909	-0.006694	0.664147
H308	H	1.410909	0.493306	1.164147
C309	C	0.966290	0.048632	0.764292
C310	C	1.466290	0.548632	1.264292
C311	C	0.924488	0.006864	0.814114
C312	C	1.424488	0.506864	1.314114
H313	H	0.998618	0.080922	0.790298
H314	H	1.498618	0.580922	1.290298
H315	H	0.937309	0.073681	0.734413
H316	H	1.437309	0.573681	1.234413
H317	H	0.991303	0.019618	0.734383
H318	H	1.491303	0.519618	1.234383
H319	H	0.899470	0.035877	0.844019
H320	H	1.399470	0.535877	1.344019
H321	H	0.953472	-0.018187	0.844005
H322	H	1.453472	0.481813	1.344005
C323	C	0.632212	0.574513	-0.000005
C324	C	1.132212	1.074513	0.499995
C325	C	0.688761	0.534652	-0.000003
C326	C	1.188761	1.034652	0.499997
H327	H	0.589395	0.544023	0.000002
H328	H	1.089395	1.044023	0.500002
H329	H	0.634444	0.603258	-0.042466
H330	H	1.134444	1.103258	0.457534
H331	H	0.634441	0.603284	0.042456
H332	H	1.134441	1.103284	0.542456
H333	H	0.686535	0.505884	-0.042467
H334	H	1.186535	1.005884	0.457533
H335	H	0.686528	0.505895	0.042463
H336	H	1.186528	1.005895	0.542463
H337	H	0.910867	-0.006687	0.196834
H338	H	1.410867	0.493313	0.696834
H339	H	0.910876	-0.006686	0.335878
H340	H	1.410876	0.493314	0.835878
