data_functionalizedCrystal
_audit_creation_method	'MofGen! by Chris Wilmer'
_symmetry_space_group_name_H-M	'P1'
_symmetry_Int_Tables_number	1
_symmetry_cell_setting	triclinic
loop_
_symmetry_equiv_pos_as_xyz
  x,y,z
_cell_length_a	14.519709
_cell_length_b	15.625110
_cell_length_c	13.596369
_cell_angle_alpha	108.078255
_cell_angle_beta	89.993066
_cell_angle_gamma	83.974355
loop_
_atom_site_label
_atom_site_type_symbol
_atom_site_fract_x
_atom_site_fract_y
_atom_site_fract_z
O1	O	0.120415	1.196396	0.344985
O2	O	0.620415	1.696396	0.844985
O3	O	0.134756	0.933946	0.251361
O4	O	0.634756	1.433946	0.751361
O5	O	-0.006656	1.072130	0.300664
O6	O	0.493344	1.572130	0.800664
O7	O	0.261827	1.058213	0.295682
O8	O	0.761827	1.558213	0.795682
O9	O	-0.006663	1.072116	0.464242
O10	O	0.493337	1.572116	0.964242
O11	O	0.134749	0.933932	0.414939
O12	O	0.634749	1.433932	0.914939
O13	O	0.120407	1.196383	0.508563
O14	O	0.620407	1.696383	1.008563
Zn15	Zn	0.127577	1.065155	0.487723
Zn16	Zn	0.627577	1.565155	0.987723
Zn17	Zn	0.127587	1.065173	0.272202
Zn18	Zn	0.627587	1.565173	0.772202
O19	O	0.261819	1.058199	0.459260
O20	O	0.761819	1.558199	0.959260
C21	C	0.134102	0.900351	0.321169
C22	C	0.634102	1.400351	0.821169
C23	C	0.132154	0.800268	0.285466
C24	C	0.632154	1.300268	0.785466
C25	C	-0.041019	1.071474	0.382222
C26	C	0.458981	1.571474	0.882222
C27	C	-0.143399	1.069531	0.381529
C28	C	0.356601	1.569531	0.881529
C29	C	0.129414	0.659211	0.145986
C30	C	0.629414	1.159211	0.645986
C31	C	0.131244	0.753254	0.179544
C32	C	0.631244	1.253254	0.679544
C33	C	0.131240	0.753247	0.357873
C34	C	0.631240	1.253247	0.857873
C35	C	0.129414	0.659202	0.324329
C36	C	0.629414	1.159202	0.824329
C37	C	0.128500	0.612191	0.218385
C38	C	0.628500	1.112191	0.718385
C39	C	0.128500	0.612182	0.396728
C40	C	0.628500	1.112182	0.896728
C41	C	0.126670	0.518145	0.363188
C42	C	0.626670	1.018145	0.863188
C43	C	0.125753	0.471128	0.257248
C44	C	0.625753	0.971128	0.757248
C45	C	0.126670	0.518154	0.184844
C46	C	0.626670	1.018154	0.684844
C47	C	0.129408	0.659195	0.502673
C48	C	0.629408	1.159195	1.002673
C49	C	0.128494	0.612175	0.575072
C50	C	0.628494	1.112175	1.075072
C51	C	0.126670	0.518135	0.541531
C52	C	0.626670	1.018135	1.041531
C53	C	0.125754	0.471118	0.435591
C54	C	0.625754	0.971118	0.935591
C55	C	0.125754	0.471109	0.613935
C56	C	0.625754	0.971109	1.113935
C57	C	0.123924	0.377072	0.580394
C58	C	0.623924	0.877072	1.080394
C59	C	0.123923	0.377081	0.402050
C60	C	0.623923	0.877081	0.902050
C61	C	-0.518292	1.062376	0.378951
C62	C	-0.018292	1.562376	0.878951
C63	C	-0.413985	1.064362	0.379668
C64	C	0.086015	1.564362	0.879668
C65	C	-0.330849	1.065953	0.380241
C66	C	0.169151	1.565953	0.880241
C67	C	-0.226535	1.067940	0.380956
C68	C	0.273465	1.567940	0.880956
C69	C	0.296183	1.058854	0.377700
C70	C	0.796183	1.558854	0.877700
C71	C	0.398563	1.060798	0.378386
C72	C	0.898563	1.560798	0.878386
C73	C	0.121061	1.229978	0.438754
C74	C	0.621061	1.729978	0.938754
C75	C	0.123010	1.330061	0.474449
C76	C	0.623010	1.830061	0.974449
N77	N	0.127570	1.065149	0.634813
N78	N	0.627570	1.565149	1.134813
N79	N	0.127587	1.065186	0.125114
N80	N	0.627587	1.565186	0.625114
C81	C	0.127588	1.065172	1.036112
C82	C	0.627588	1.565172	1.536112
C83	C	0.127586	1.065163	0.924457
C84	C	0.627586	1.565163	1.424457
C85	C	0.127579	1.065161	0.835466
C86	C	0.627579	1.565161	1.335466
C87	C	0.127576	1.065151	0.723804
C88	C	0.627576	1.565151	1.223804
H89	H	0.124264	0.394556	0.229940
H90	H	0.624264	0.894556	0.729940
O91	O	0.123103	0.326099	0.658242
O92	O	0.623103	0.826099	1.158242
H93	H	0.060707	0.351851	0.710411
H94	H	0.560707	0.851851	1.210411
O95	O	0.126736	0.521822	0.728199
O96	O	0.626736	1.021822	1.228199
H97	H	0.189191	0.495837	0.761685
H98	H	0.689191	0.995837	1.261685
O99	O	0.129489	0.662878	0.689338
O100	O	0.629489	1.162878	1.189338
H101	H	0.130923	0.736167	0.700500
H102	H	0.630923	1.236167	1.200500
H103	H	0.125936	0.479874	0.098573
H104	H	0.625936	0.979874	0.598573
O105	O	0.122935	0.326370	0.287779
O106	O	0.622935	0.826370	0.787779
H107	H	0.186091	0.336489	0.248619
H108	H	0.686091	0.836489	0.748619
H109	H	0.128680	0.620931	0.059714
H110	H	0.628680	1.120931	0.559714
O111	O	0.132238	0.803973	0.101452
O112	O	0.632238	1.303973	0.601452
H113	H	0.131302	0.755480	0.022150
H114	H	0.631302	1.255480	0.522150
H115	H	0.131980	0.791537	0.444134
H116	H	0.631980	1.291537	0.944134
H117	H	0.130899	0.735766	0.529978
H118	H	0.630899	1.235766	1.029978
