data_functionalizedCrystal
_audit_creation_method	'MofGen! by Chris Wilmer'
_symmetry_space_group_name_H-M	'P1'
_symmetry_Int_Tables_number	1
_symmetry_cell_setting	triclinic
loop_
_symmetry_equiv_pos_as_xyz
  x,y,z
_cell_length_a	6.817900
_cell_length_b	12.840946
_cell_length_c	11.102188
_cell_angle_alpha	81.893580
_cell_angle_beta	108.603875
_cell_angle_gamma	88.344365
loop_
_atom_site_label
_atom_site_type_symbol
_atom_site_fract_x
_atom_site_fract_y
_atom_site_fract_z
V1	V	-3.924907	0.325216	-0.178851
O2	O	-3.887502	0.319025	0.005495
O3	O	-3.902951	0.322992	-0.351651
O4	O	-3.820299	0.467054	-0.177461
O5	O	-3.970725	0.173966	-0.169902
V6	V	-4.412392	0.307125	-0.156641
O7	O	-4.177475	0.364900	-0.227572
O8	O	-4.610021	0.267442	-0.107920
O9	O	-4.211141	0.309350	0.016159
O10	O	-4.567193	0.313316	-0.340987
O11	O	-4.483970	0.458376	-0.165591
O12	O	-4.293793	0.165287	-0.158032
C13	C	-3.756203	0.317862	-0.393733
C14	C	-3.819164	0.316989	-0.535008
C15	C	-3.843384	0.221059	-0.582345
C16	C	-3.902564	0.220243	-0.715088
C17	C	-3.913289	0.411294	-0.753148
C18	C	-3.854125	0.412109	-0.620407
C19	C	-3.650784	0.501626	-0.171530
C20	C	-3.646637	0.619758	-0.171534
C21	C	-4.109685	0.012587	-0.164011
C22	C	-4.126681	0.130716	-0.163983
V23	V	-3.907883	0.811384	-0.178888
O24	O	-3.943099	0.962591	-0.169954
O25	O	-3.813407	0.664199	-0.177481
O26	O	-3.884390	0.852788	-0.351688
O27	O	-3.871625	0.772696	0.005458
V28	V	-4.393426	0.848829	-0.156688
O29	O	-4.162387	0.795857	-0.227610
O30	O	-4.588328	0.887042	-0.107975
O31	O	-4.265088	0.984766	-0.158091
O32	O	-4.475400	0.703538	-0.165625
O33	O	-4.546875	0.893433	-0.341037
O34	O	-4.194105	0.796177	0.016116
C35	C	-4.021233	0.314477	0.058234
C36	C	-3.937508	0.315357	0.199507
C37	C	-3.737193	0.860323	-0.393761
C38	C	-3.798820	0.897315	-0.535036
C39	C	-4.005234	0.771674	0.058202
C40	C	-3.922882	0.733645	0.199479
C41	C	-4.008796	0.920141	-0.607909
C42	C	-4.066728	0.954914	-0.740649
C43	C	-3.914680	0.966854	-0.800516
C44	C	-3.704686	0.944028	-0.727632
C45	C	-3.646756	0.909262	-0.594893
C46	C	-3.711117	0.703363	0.259320
C47	C	-3.633706	0.667643	0.392067
C48	C	-3.768068	0.662199	0.464969
C49	C	-3.979851	0.692488	0.405120
C50	C	-4.057255	0.728214	0.272377
H51	H	-4.237724	0.973492	-0.799974
C52	C	-3.978425	1.005087	-0.946534
C53	C	-4.209407	1.030183	-1.026683
C54	C	-4.273166	1.068412	-1.172702
C55	C	-4.105943	1.081544	-1.238572
C56	C	-3.874946	1.056448	-1.158422
C57	C	-3.811187	1.018219	-1.012403
H58	H	-4.333209	1.020462	-0.977923
H59	H	-4.444166	1.086990	-1.232034
H60	H	-4.153141	1.109844	-1.346664
H61	H	-3.751144	1.066169	-1.207182
H62	H	-3.640186	0.999641	-0.953071
C63	C	-3.563293	0.709352	0.179145
C64	C	-3.380075	0.779619	0.210143
C65	C	-3.232234	0.785611	0.129977
C66	C	-3.267613	0.721337	0.018813
C67	C	-3.450839	0.651065	-0.012192
C68	C	-3.598680	0.645073	0.067974
H69	H	-3.353879	0.827203	0.292439
H70	H	-3.096598	0.837631	0.152930
H71	H	-3.158172	0.725773	-0.040531
H72	H	-3.477036	0.603481	-0.094487
H73	H	-3.734316	0.593053	0.045022
C74	C	-3.400750	0.634318	0.457879
C75	C	-3.252980	0.640288	0.377675
C76	C	-3.020028	0.606962	0.443482
C77	C	-2.934846	0.567665	0.589493
C78	C	-3.082618	0.561693	0.669706
C79	C	-3.315570	0.595019	0.603899
H80	H	-3.316034	0.669380	0.269581
H81	H	-2.910638	0.611383	0.384102
H82	H	-2.762402	0.542995	0.638208
H83	H	-3.019564	0.532601	0.777800
H84	H	-3.424960	0.590598	0.663279
H85	H	-3.580903	0.953755	-0.776396
H86	H	-3.705014	0.633105	0.573056
C87	C	-4.127638	0.686481	0.485320
C88	C	-4.042472	0.647166	0.631328
C89	C	-4.190259	0.641147	0.711530
C90	C	-4.423211	0.674444	0.645724
C91	C	-4.508388	0.713762	0.499709
C92	C	-4.360602	0.719780	0.419507
H93	H	-3.870017	0.622515	0.680048
H94	H	-4.127204	0.612041	0.819620
H95	H	-4.532612	0.669988	0.705095
H96	H	-4.680844	0.738412	0.450988
H97	H	-4.423657	0.748886	0.311416
H98	H	-3.941759	0.488738	-0.822695
H99	H	-3.922285	0.142128	-0.753623
C100	C	-3.804943	0.116432	-0.488402
C101	C	-3.981106	0.042473	-0.497155
C102	C	-3.942671	-0.062156	-0.403214
C103	C	-3.728074	-0.092826	-0.300519
C104	C	-3.551897	-0.018865	-0.291762
C105	C	-3.590332	0.085764	-0.385703
H106	H	-4.139976	0.065175	-0.573179
H107	H	-4.073090	-0.116907	-0.409697
H108	H	-3.699622	-0.170279	-0.230979
H109	H	-3.393027	-0.041568	-0.215738
H110	H	-3.459913	0.140514	-0.379220
H111	H	-3.834414	0.490231	-0.581867
H112	H	-4.132629	0.910420	-0.559185
H113	H	-3.475772	0.890675	-0.535570
H114	H	-4.229695	0.752863	0.223664
