data_functionalizedCrystal
_audit_creation_method	'MofGen! by Chris Wilmer'
_symmetry_space_group_name_H-M	'P1'
_symmetry_Int_Tables_number	1
_symmetry_cell_setting	triclinic
loop_
_symmetry_equiv_pos_as_xyz
  x,y,z
_cell_length_a	19.077212
_cell_length_b	19.120785
_cell_length_c	19.076919
_cell_angle_alpha	90.270819
_cell_angle_beta	90.114942
_cell_angle_gamma	94.653042
loop_
_atom_site_label
_atom_site_type_symbol
_atom_site_fract_x
_atom_site_fract_y
_atom_site_fract_z
Zn1	Zn	1.047852	-0.254945	0.429244
Zn2	Zn	1.381185	0.078388	0.762578
Zn3	Zn	1.714518	0.411721	1.095911
Zn4	Zn	1.047883	-0.367491	0.306732
Zn5	Zn	1.381216	-0.034158	0.640065
Zn6	Zn	1.714549	0.299175	0.973399
Zn7	Zn	0.935082	-0.254576	0.307036
Zn8	Zn	1.268416	0.078758	0.640370
Zn9	Zn	1.601749	0.412091	0.973703
Zn10	Zn	0.925318	-0.376859	0.419049
Zn11	Zn	1.258651	-0.043526	0.752382
Zn12	Zn	1.591985	0.289808	1.085715
O13	O	0.989034	-0.313468	0.365515
O14	O	1.322367	0.019866	0.698849
O15	O	1.655700	0.353199	1.032182
O16	O	1.146344	-0.266109	0.417132
O17	O	1.479677	0.067224	0.750466
O18	O	1.813010	0.400558	1.083799
O19	O	1.037019	-0.348438	0.208623
O20	O	1.370352	-0.015104	0.541956
O21	O	1.703685	0.318229	0.875290
O22	O	0.954115	-0.156348	0.327642
O23	O	1.287448	0.176986	0.660975
O24	O	1.620781	0.510319	0.994309
O25	O	1.146366	-0.348796	0.327123
O26	O	1.479700	-0.015463	0.660456
O27	O	1.813033	0.317870	0.993790
O28	O	1.036966	-0.156619	0.417428
O29	O	1.370299	0.176714	0.750761
O30	O	1.703632	0.510047	1.084094
O31	O	0.954145	-0.265479	0.208847
O32	O	1.287478	0.067854	0.542180
O33	O	1.620811	0.401188	0.875513
O34	O	0.835299	-0.274562	0.317755
O35	O	1.168632	0.058771	0.651089
O36	O	1.501966	0.392104	0.984422
O37	O	0.937473	-0.364762	0.518551
O38	O	1.270807	-0.031429	0.851884
O39	O	1.604140	0.301905	1.185217
O40	O	0.828125	-0.364403	0.400050
O41	O	1.161459	-0.031070	0.733384
O42	O	1.494792	0.302263	1.066717
O43	O	1.027498	-0.275193	0.526041
O44	O	1.360831	0.058141	0.859375
O45	O	1.694165	0.391474	1.192708
O46	O	1.027551	-0.467011	0.317237
O47	O	1.360884	-0.133678	0.650570
O48	O	1.694217	0.199656	0.983903
O49	O	0.937503	-0.473893	0.399755
O50	O	1.270837	-0.140560	0.733089
O51	O	1.604170	0.192773	1.066422
C52	C	0.806175	-0.320460	0.357830
C53	C	1.139509	0.012873	0.691163
C54	C	1.472842	0.346207	1.024497
C55	C	0.727946	-0.323469	0.354558
C56	C	1.061280	0.009865	0.687891
C57	C	1.394613	0.343198	1.021225
C58	C	0.287600	-0.345020	0.331125
C59	C	0.620934	-0.011687	0.664458
C60	C	0.954267	0.321647	0.997791
C61	C	0.361105	-0.342189	0.334194
C62	C	0.694438	-0.008856	0.667527
C63	C	1.027772	0.324478	1.000861
C64	C	0.397842	-0.297799	0.382661
C65	C	0.731175	0.035534	0.715995
C66	C	1.064508	0.368868	1.049328
C67	C	0.361070	-0.256232	0.428058
C68	C	0.694403	0.077101	0.761391
C69	C	1.027737	0.410434	1.094725
C70	C	0.287567	-0.259060	0.424985
C71	C	0.620900	0.074273	0.758318
C72	C	0.954233	0.407606	1.091651
C73	C	0.617671	-0.284730	0.396881
C74	C	0.951005	0.048603	0.730215
C75	C	1.284338	0.381937	1.063548
C76	C	0.691180	-0.281907	0.399952
C77	C	1.024513	0.051427	0.733286
C78	C	1.357846	0.384760	1.066619
C79	C	0.691210	-0.367863	0.306087
C80	C	1.024543	-0.034529	0.639421
C81	C	1.357876	0.298804	0.972754
C82	C	0.617705	-0.370690	0.303021
C83	C	0.951038	-0.037356	0.636355
C84	C	1.284372	0.295977	0.969688
C85	C	0.580940	-0.329120	0.348415
C86	C	0.914273	0.004213	0.681749
C87	C	1.247606	0.337546	1.015082
N88	N	0.472975	-0.294906	0.385801
N89	N	0.806309	0.038428	0.719135
N90	N	1.139642	0.371761	1.052468
N91	N	0.505808	-0.332010	0.345272
N92	N	0.839141	0.001323	0.678605
N93	N	1.172475	0.334656	1.011938
C94	C	0.981489	-0.495934	0.357373
C95	C	1.314823	-0.162601	0.690706
C96	C	1.648156	0.170732	1.024039
C97	C	0.978325	-0.573993	0.353915
C98	C	1.311659	-0.240659	0.687249
C99	C	1.644992	0.092674	1.020582
C100	C	0.958249	-1.015473	0.332037
C101	C	1.291582	-0.682140	0.665371
C102	C	1.624915	-0.348806	0.998704
C103	C	0.961223	-0.942129	0.335286
C104	C	1.294556	-0.608795	0.668619
C105	C	1.627890	-0.275462	1.001952
C106	C	1.005814	-0.905541	0.383691
C107	C	1.339148	-0.572208	0.717024
C108	C	1.672481	-0.238875	1.050357
C109	C	1.047429	-0.942303	0.428855
C110	C	1.380762	-0.608969	0.762188
C111	C	1.714095	-0.275636	1.095521
C112	C	1.044450	-1.015646	0.425609
C113	C	1.377783	-0.682312	0.758942
C114	C	1.711117	-0.348979	1.092276
C115	C	1.016961	-0.684097	0.395834
C116	C	1.350294	-0.350764	0.729167
C117	C	1.683628	-0.017430	1.062500
C118	C	1.019938	-0.610748	0.399075
C119	C	1.353271	-0.277415	0.732408
C120	C	1.686605	0.055918	1.065741
C121	C	0.933731	-0.610580	0.305506
C122	C	1.267064	-0.277247	0.638839
C123	C	1.600398	0.056087	0.972173
C124	C	0.930759	-0.683924	0.302262
C125	C	1.264093	-0.350591	0.635595
C126	C	1.597426	-0.017258	0.968929
C127	C	0.972371	-0.720679	0.347428
C128	C	1.305704	-0.387346	0.680762
C129	C	1.639038	-0.054012	1.014095
C130	C	1.008857	-0.830572	0.387011
C131	C	1.342191	-0.497238	0.720344
C132	C	1.675524	-0.163905	1.053677
C133	C	0.969324	-0.795648	0.344111
C134	C	1.302657	-0.462314	0.677444
C135	C	1.635990	-0.128981	1.010778
C136	C	1.172606	-0.306449	0.373231
C137	C	1.505939	0.026884	0.706565
C138	C	1.839273	0.360218	1.039898
C139	C	1.250834	-0.303458	0.376519
C140	C	1.584167	0.029875	0.709853
C141	C	1.917500	0.363209	1.043186
C142	C	0.981393	-0.321063	0.548457
C143	C	1.314726	0.012270	0.881790
C144	C	1.648060	0.345603	1.215123
C145	C	0.978137	-0.324300	0.626415
C146	C	1.311470	0.009033	0.959748
C147	C	1.644804	0.342366	1.293082
C148	C	0.996626	-0.130289	0.373706
C149	C	1.329959	0.203045	0.707039
C150	C	1.663293	0.536378	1.040373
C151	C	0.999861	-0.052229	0.377196
C152	C	1.333195	0.281105	0.710530
C153	C	1.666528	0.614438	1.043863
C154	C	0.996687	-0.305849	0.183290
C155	C	1.330020	0.027484	0.516623
C156	C	1.663354	0.360817	0.849957
C157	C	1.000088	-0.302410	0.105346
C158	C	1.333421	0.030924	0.438680
C159	C	1.666754	0.364257	0.772013
C160	C	1.023476	-0.279189	0.666941
C161	C	1.356809	0.054144	1.000275
C162	C	1.690143	0.387478	1.333608
C163	C	1.020408	-0.282228	0.740191
C164	C	1.353742	0.051105	1.073525
C165	C	1.687075	0.384439	1.406858
C166	C	0.972004	-0.330382	0.772914
C167	C	1.305338	0.002951	1.106247
C168	C	1.638671	0.336285	1.439581
C169	C	0.926660	-0.375495	0.732383
C170	C	1.259994	-0.042162	1.065716
C171	C	1.593327	0.291171	1.399049
C172	C	0.929725	-0.372452	0.659134
C173	C	1.263059	-0.039119	0.992467
C174	C	1.596392	0.294214	1.325800
C175	C	0.957809	-0.344480	0.991566
C176	C	1.291142	-0.011147	1.324899
C177	C	1.624475	0.322187	1.658233
C178	C	0.954749	-0.347521	1.064820
C179	C	1.288082	-0.014188	1.398153
C180	C	1.621415	0.319146	1.731487
C181	C	1.048496	-0.254252	1.072624
C182	C	1.381829	0.079081	1.405957
C183	C	1.715163	0.412414	1.739291
C184	C	1.051559	-0.251217	0.999373
C185	C	1.384893	0.082117	1.332707
C186	C	1.718226	0.415450	1.666040
C187	C	1.006213	-0.296327	0.958848
C188	C	1.339546	0.037006	1.292182
C189	C	1.672880	0.370340	1.625515
N190	N	0.968869	-0.333491	0.847787
N191	N	1.302202	-0.000158	1.181121
N192	N	1.635535	0.333176	1.514454
N193	N	1.009346	-0.293214	0.883976
N194	N	1.342679	0.040119	1.217310
N195	N	1.676012	0.373452	1.550643
H196	H	0.257694	-0.381171	0.291660
H197	H	0.591028	-0.047837	0.624994
H198	H	0.924361	0.285496	0.958327
H199	H	0.915330	-0.386736	1.091460
H200	H	1.248663	-0.053402	1.424794
H201	H	1.581997	0.279931	1.758127
H202	H	0.927338	-0.912203	0.298514
H203	H	1.260672	-0.578869	0.631847
H204	H	1.594005	-0.245536	0.965181
F205	F	0.400233	-0.386411	0.285865
F206	F	0.733566	-0.053077	0.619199
F207	F	1.066899	0.280256	0.952532
F208	F	0.578614	-0.417919	0.251421
F209	F	0.911947	-0.084586	0.584754
F210	F	1.245280	0.248748	0.918087
F211	F	1.068688	-0.234237	0.783319
F212	F	1.402021	0.099096	1.116653
F213	F	1.735354	0.432429	1.449986
H214	H	0.721152	-0.401705	0.269130
H215	H	1.054485	-0.068372	0.602463
H216	H	1.387818	0.264961	0.935796
H217	H	1.062894	-0.239979	0.640304
H218	H	1.396227	0.093355	0.973638
H219	H	1.729561	0.426688	1.306971
H220	H	0.721089	-0.245754	0.439420
H221	H	1.054422	0.087579	0.772753
H222	H	1.387755	0.420912	1.106086
H223	H	0.390987	-0.220086	0.467518
H224	H	0.724320	0.113247	0.800852
H225	H	1.057654	0.446581	1.134185
F226	F	0.909547	-0.392491	0.948445
F227	F	1.242880	-0.059158	1.281779
F228	F	1.576213	0.274175	1.615112
F229	F	0.883298	-0.722858	0.250744
F230	F	1.216632	-0.389525	0.584077
F231	F	1.549965	-0.056191	0.917410
F232	F	0.578552	-0.240492	0.445198
F233	F	0.911886	0.092841	0.778532
F234	F	1.245219	0.426174	1.111865
H235	H	0.257632	-0.225214	0.461948
H236	H	0.590966	0.108120	0.795281
H237	H	0.924299	0.441453	1.128614
H238	H	1.045166	-0.800776	0.426422
H239	H	1.378499	-0.467443	0.759755
H240	H	1.711833	-0.134109	1.093088
F241	F	0.910792	-1.054405	0.280514
F242	F	1.244125	-0.721072	0.613847
F243	F	1.577458	-0.387739	0.947181
F244	F	0.889446	-0.571458	0.257442
F245	F	1.222780	-0.238124	0.590775
F246	F	1.556113	0.095209	0.924109
F247	F	1.096752	-0.206244	1.115759
F248	F	1.430085	0.127089	1.449092
F249	F	1.763418	0.460422	1.782425
F250	F	0.881468	-0.420464	0.616003
F251	F	1.214801	-0.087131	0.949336
F252	F	1.548134	0.246202	1.282670
F253	F	0.921864	-0.834588	0.292600
F254	F	1.255197	-0.501255	0.625934
F255	F	1.588531	-0.167922	0.959267
F256	F	1.103078	-0.199965	0.964553
F257	F	1.436411	0.133369	1.297886
F258	F	1.769744	0.466702	1.631220
H259	H	0.887246	-0.414701	0.759031
H260	H	1.220580	-0.081368	1.092364
H261	H	1.553913	0.251966	1.425698
H262	H	1.056252	-0.580962	0.438494
H263	H	1.389586	-0.247629	0.771827
H264	H	1.722919	0.085704	1.105160
F265	F	1.061242	-0.723205	0.443909
F266	F	1.394576	-0.389872	0.777243
F267	F	1.727909	-0.056539	1.110576
F268	F	1.088739	-1.054764	0.473675
F269	F	1.422073	-0.721430	0.807008
F270	F	1.755406	-0.388097	1.140341
F271	F	1.094880	-0.903362	0.480377
F272	F	1.428213	-0.570029	0.813710
F273	F	1.761547	-0.236695	1.147044
