data_functionalizedCrystal
_audit_creation_method	'MofGen! by Chris Wilmer'
_symmetry_space_group_name_H-M	'P1'
_symmetry_Int_Tables_number	1
_symmetry_cell_setting	triclinic
loop_
_symmetry_equiv_pos_as_xyz
  x,y,z
_cell_length_a	15.944551
_cell_length_b	11.792241
_cell_length_c	10.868271
_cell_angle_alpha	89.999850
_cell_angle_beta	90.000173
_cell_angle_gamma	83.846077
loop_
_atom_site_label
_atom_site_type_symbol
_atom_site_fract_x
_atom_site_fract_y
_atom_site_fract_z
O1	O	1.115184	0.146380	-0.102180
O2	O	0.870716	0.164428	-0.102209
O3	O	0.998883	-0.009815	-0.102201
O4	O	0.987018	0.320623	-0.102188
O5	O	0.998872	-0.009822	0.102443
O6	O	0.870706	0.164421	0.102436
O7	O	1.115174	0.146374	0.102465
Zn8	Zn	0.992938	0.155396	0.134942
Zn9	Zn	0.992952	0.155405	-0.134686
O10	O	0.987007	0.320617	0.102457
C11	C	0.839414	0.163675	0.000109
C12	C	0.746157	0.161429	0.000098
C13	C	0.998132	-0.052104	0.000116
C14	C	0.995901	-0.178099	0.000103
N15	N	0.992935	0.155389	0.318956
C16	C	0.530789	0.048056	0.000117
C17	C	0.470012	0.100706	-0.100782
C18	C	0.575413	0.157365	0.000112
C19	C	0.470024	0.100725	0.100982
C20	C	0.410483	0.153432	0.000131
C21	C	0.515864	0.210045	-0.100870
C22	C	0.515882	0.210049	0.100984
C23	C	0.455123	0.262778	0.000061
C24	C	0.670426	0.159628	0.000100
C25	C	0.315471	0.151178	0.000135
C26	C	1.146476	0.147126	0.000143
C27	C	1.239733	0.149372	0.000147
C28	C	0.987758	0.362905	0.000136
C29	C	0.989989	0.488900	0.000142
C30	C	0.994091	0.719579	0.000111
C31	C	0.991811	0.591212	0.000128
N32	N	0.992962	0.155403	-0.318700
C33	C	0.992948	0.155403	0.569962
C34	C	0.992938	0.155399	0.430284
H35	H	0.449697	0.054475	-0.186088
H36	H	0.449724	0.054469	0.186281
H37	H	0.422374	0.353590	0.000009
N38	N	0.542835	0.271256	0.213965
H39	H	0.514187	0.351907	0.214758
H40	H	0.526351	0.229819	0.290097
N41	N	0.542606	0.271239	-0.213996
H42	H	0.571627	0.339541	-0.188410
H43	H	0.582776	0.217627	-0.264133
N44	N	0.574360	-0.072129	0.000001
H45	H	0.557796	-0.113272	-0.076290
H46	H	0.637480	-0.069687	0.000829
