data_functionalizedCrystal
_audit_creation_method	'MofGen! by Chris Wilmer'
_symmetry_space_group_name_H-M	'P1'
_symmetry_Int_Tables_number	1
_symmetry_cell_setting	triclinic
loop_
_symmetry_equiv_pos_as_xyz
  x,y,z
_cell_length_a	10.540535
_cell_length_b	10.540539
_cell_length_c	9.616153
_cell_angle_alpha	89.999906
_cell_angle_beta	89.995499
_cell_angle_gamma	84.524567
loop_
_atom_site_label
_atom_site_type_symbol
_atom_site_fract_x
_atom_site_fract_y
_atom_site_fract_z
O1	O	1.685895	0.178868	-0.115562
O2	O	1.316482	0.195730	-0.115581
O3	O	1.509617	0.002592	-0.115570
O4	O	1.492761	0.372006	-0.115574
O5	O	1.509590	0.002596	0.115722
O6	O	1.316455	0.195734	0.115710
O7	O	1.685869	0.178872	0.115729
Zn8	Zn	1.501158	0.187304	0.152442
Zn9	Zn	1.501193	0.187298	-0.152294
O10	O	1.492734	0.372010	0.115717
C11	C	1.269165	0.194469	0.000062
C12	C	1.128217	0.190689	0.000055
C13	C	1.508339	-0.044709	0.000073
C14	C	1.504557	-0.185657	0.000066
C15	C	1.091546	0.049675	0.000062
C16	C	0.944946	0.045698	0.000601
C17	C	0.918866	0.255062	0.131892
C18	C	1.065631	0.258062	0.131989
C19	C	1.065545	0.260109	-0.131042
C20	C	0.919199	0.253588	-0.132760
C21	C	1.359640	-0.369081	-0.000461
C22	C	1.363474	-0.222463	0.000060
C23	C	1.572438	-0.247313	0.132148
C24	C	1.567623	-0.393858	0.132259
C25	C	1.570523	-0.394380	-0.130762
C26	C	1.571822	-0.247399	-0.132509
C27	C	1.733185	0.180133	0.000083
C28	C	1.874134	0.183913	0.000081
C29	C	1.494011	0.419311	0.000071
C30	C	1.497793	0.560259	0.000070
N31	N	1.501143	0.187307	0.360417
N32	N	1.501218	0.187285	-0.360269
C33	C	1.397513	0.290276	0.580780
C34	C	1.397741	0.290661	0.419613
C35	C	1.633867	0.217438	0.418872
C36	C	1.633302	0.218167	0.580090
C37	C	1.473371	0.053868	0.580328
C38	C	1.470324	0.054733	0.419101
H39	H	0.915619	-0.009945	-0.093868
H40	H	1.304124	-0.399286	0.093722
H41	H	1.133526	-0.004477	-0.094449
Cl42	Cl	1.127641	0.183882	0.284697
H43	H	0.916482	-0.009669	0.095648
Cl44	Cl	1.158618	-0.032532	0.145789
H45	H	1.088661	0.361437	0.137620
Cl46	Cl	0.845754	0.412181	0.138893
H47	H	0.890608	0.201810	-0.230276
Cl48	Cl	1.425326	0.443499	0.360038
Cl49	Cl	1.319577	0.019466	0.360118
H50	H	0.887952	0.206251	0.230366
Cl51	Cl	1.099740	0.420309	-0.132976
Cl52	Cl	0.843489	0.409338	-0.145679
Cl53	Cl	1.280392	-0.157981	0.146475
H54	H	1.303919	-0.397682	-0.095179
Cl55	Cl	1.424803	0.442241	0.643274
H56	H	1.712922	0.144473	0.380525
Cl57	Cl	1.131111	0.192168	-0.285348
Cl58	Cl	1.327077	0.009616	0.643166
H59	H	1.310061	-0.179861	-0.094622
Cl60	Cl	1.245461	0.262754	0.358591
H61	H	1.517433	-0.422055	0.230988
H62	H	1.658764	0.313675	0.378482
Cl63	Cl	1.670901	0.368448	0.638130
H64	H	1.522155	-0.206541	-0.230219
H65	H	1.712945	0.146176	0.619083
H66	H	1.669088	-0.441828	0.138256
H67	H	1.676045	-0.224961	0.137064
Cl68	Cl	1.499604	-0.181547	0.283899
Cl69	Cl	1.590107	-0.064483	0.639184
Cl70	Cl	1.579225	-0.069281	0.356918
Cl71	Cl	1.730633	-0.210001	-0.144825
Cl72	Cl	1.500029	-0.443077	-0.285326
H73	H	1.672427	-0.441608	-0.131645
H74	H	1.298588	0.272424	0.619587
