data_functionalizedCrystal
_audit_creation_method	'MofGen! by Chris Wilmer'
_symmetry_space_group_name_H-M	'P1'
_symmetry_Int_Tables_number	1
_symmetry_cell_setting	triclinic
loop_
_symmetry_equiv_pos_as_xyz
  x,y,z
_cell_length_a	19.288864
_cell_length_b	19.288864
_cell_length_c	17.766277
_cell_angle_alpha	90.023305
_cell_angle_beta	89.979562
_cell_angle_gamma	96.863758
loop_
_atom_site_label
_atom_site_type_symbol
_atom_site_fract_x
_atom_site_fract_y
_atom_site_fract_z
O1	O	-0.921351	0.086644	0.062871
O2	O	-0.719090	0.098333	0.062825
O3	O	-0.826065	-0.008642	0.062803
O4	O	-0.814376	0.193619	0.062893
O5	O	-0.826051	-0.008638	-0.062386
O6	O	-0.719076	0.098337	-0.062364
O7	O	-0.921337	0.086648	-0.062317
Cu8	Cu	-0.820205	0.092493	-0.073771
Cu9	Cu	-0.820222	0.092488	0.074279
O10	O	-0.814362	0.193623	-0.062295
C11	C	-0.693207	0.097959	0.000224
C12	C	-0.616103	0.096830	0.000203
C13	C	-0.825682	-0.034516	0.000198
C14	C	-0.824553	-0.111620	0.000167
C15	C	-0.947220	0.087022	0.000286
C16	C	-1.024324	0.088151	0.000311
C17	C	-0.814745	0.219497	0.000311
C18	C	-0.815874	0.296601	0.000347
C19	C	-0.571407	0.159598	0.000243
C20	C	-0.498960	0.158537	0.000251
C21	C	-0.471212	0.094705	0.000234
C22	C	-0.515918	0.031929	0.000190
C23	C	-0.588364	0.032991	0.000175
C24	C	-0.362955	0.044524	0.044096
C25	C	-0.290511	0.043464	0.044116
C26	C	-0.247767	0.091425	0.000278
C27	C	-0.277474	0.140457	-0.043570
C28	C	-0.349920	0.141520	-0.043585
C29	C	-0.392658	0.093546	0.000250
C30	C	-0.124514	0.153047	0.000326
C31	C	-0.052066	0.151984	0.000329
C32	C	-0.069026	0.025374	0.000275
C33	C	-0.141473	0.026439	0.000265
C34	C	-0.169212	0.090278	0.000293
N35	N	-0.820198	0.092495	-0.177902
C36	C	-0.753106	0.341297	0.000317
C37	C	-0.754167	0.413744	0.000301
C38	C	-0.817999	0.441492	0.000298
C39	C	-0.880775	0.396786	0.000332
C40	C	-0.879713	0.324340	0.000357
C41	C	-0.868173	0.549743	-0.043589
C42	C	-0.869233	0.622187	-0.043618
C43	C	-0.821279	0.664937	0.000227
C44	C	-0.772253	0.635235	0.044091
C45	C	-0.771190	0.562790	0.044115
C46	C	-0.819158	0.520046	0.000273
C47	C	-0.759657	0.788190	0.000180
C48	C	-0.760720	0.860638	0.000168
C49	C	-0.887330	0.843677	0.000192
C50	C	-0.886265	0.771231	0.000212
C51	C	-0.822426	0.743492	0.000202
C52	C	-0.862227	0.134494	-0.782159
C53	C	-0.862220	0.134501	-0.703358
C54	C	-0.820228	0.092480	-0.663990
C55	C	-0.778227	0.050464	-0.703432
C56	C	-0.778230	0.050464	-0.782232
C57	C	-0.818502	0.029856	-0.539176
C58	C	-0.818504	0.029855	-0.460377
C59	C	-0.820215	0.092482	-0.420944
C60	C	-0.821939	0.155111	-0.460320
C61	C	-0.821942	0.155111	-0.539120
C62	C	-0.820220	0.092476	-0.578545
C63	C	-0.862203	0.134507	-0.296066
C64	C	-0.862191	0.134515	-0.217263
C65	C	-0.778202	0.050472	-0.217339
C66	C	-0.778210	0.050470	-0.296140
C67	C	-0.820214	0.092486	-0.335500
N68	N	-0.820234	0.092480	0.178409
H69	H	-0.593987	0.211580	0.000268
H70	H	-0.177866	-0.024674	0.000236
Cl71	Cl	-0.159390	0.233300	0.000354
Cl72	Cl	-0.914971	0.187353	-0.167691
H73	H	-0.624756	-0.018124	0.000143
H74	H	-0.046435	-0.026600	0.000308
H75	H	-0.909150	0.646365	-0.079337
Cl76	Cl	-0.915026	0.187311	-0.653776
H77	H	-0.744036	0.016252	-0.671374
H78	H	-0.907229	0.514941	-0.079291
H79	H	-0.932748	0.419382	0.000344
Cl80	Cl	-0.915004	0.187329	-0.345550
Cl81	Cl	-0.824104	0.233842	-0.588619
Cl82	Cl	-0.958628	0.268147	0.000392
H83	H	-0.744008	0.016263	-0.185287
Cl84	Cl	-0.915026	0.187320	-0.831635
H85	H	-0.744018	0.016255	-0.328246
Cl86	Cl	-0.681804	0.916829	0.000140
H87	H	-0.823333	0.206109	-0.428215
H88	H	-0.817102	-0.021146	-0.571275
Cl89	Cl	-0.816331	-0.048877	-0.410884
H90	H	-0.374105	0.181442	-0.079290
H91	H	-0.493322	-0.020044	0.000187
H92	H	-0.744033	0.016250	-0.814337
H93	H	-0.242673	0.179511	-0.079268
Cl94	Cl	-0.253170	-0.018169	0.099247
Cl95	Cl	-0.442760	0.237451	0.000300
H96	H	-0.397752	0.005467	0.079799
Cl97	Cl	-0.672852	0.306429	0.000313
Cl98	Cl	-0.675253	0.469944	0.000260
H99	H	-0.015674	0.203099	0.000357
Cl100	Cl	-0.709565	0.525451	0.099260
H101	H	-0.733200	0.670042	0.079789
Cl102	Cl	-0.679404	0.753314	0.000172
H103	H	-0.939303	0.866269	0.000245
Cl104	Cl	-0.965178	0.715038	0.000242
