data_functionalizedCrystal
_audit_creation_method	'MofGen! by Chris Wilmer'
_symmetry_space_group_name_H-M	'P1'
_symmetry_Int_Tables_number	1
_symmetry_cell_setting	triclinic
loop_
_symmetry_equiv_pos_as_xyz
  x,y,z
_cell_length_a	14.908783
_cell_length_b	18.050590
_cell_length_c	14.908308
_cell_angle_alpha	93.264736
_cell_angle_beta	89.788727
_cell_angle_gamma	93.309344
loop_
_atom_site_label
_atom_site_type_symbol
_atom_site_fract_x
_atom_site_fract_y
_atom_site_fract_z
Zn1	Zn	1.345325	-0.259750	-0.587820
Zn2	Zn	1.845325	0.240250	-0.087820
Zn3	Zn	1.353911	-0.376401	-0.437456
Zn4	Zn	1.853911	0.123599	0.062544
Zn5	Zn	1.203639	-0.258946	-0.428792
Zn6	Zn	1.703639	0.241054	0.071208
Zn7	Zn	1.194937	-0.390621	-0.579078
Zn8	Zn	1.694937	0.109379	-0.079078
O9	O	1.274453	-0.321430	-0.508287
O10	O	1.774453	0.178570	-0.008287
O11	O	1.472292	-0.269609	-0.575159
O12	O	1.972292	0.230391	-0.075159
O13	O	1.341212	-0.354532	-0.310484
O14	O	1.841212	0.145468	0.189516
O15	O	1.222482	-0.155127	-0.449920
O16	O	1.722482	0.344873	0.050080
O17	O	1.478600	-0.355312	-0.464688
O18	O	1.978600	0.144688	0.035312
O19	O	1.326579	-0.155718	-0.566758
O20	O	1.826579	0.344282	-0.066758
O21	O	1.230807	-0.268239	-0.304118
O22	O	1.730807	0.231761	0.195882
O23	O	1.076657	-0.282028	-0.441442
O24	O	1.576657	0.217972	0.058558
O25	O	1.207652	-0.379549	-0.706060
O26	O	1.707652	0.120451	-0.206060
O27	O	1.070264	-0.378770	-0.551857
O28	O	1.570264	0.121230	-0.051857
O29	O	1.318141	-0.283398	-0.712484
O30	O	1.818141	0.216602	-0.212484
O31	O	1.332774	-0.482212	-0.456210
O32	O	1.832774	0.017788	0.043790
O33	O	1.215977	-0.492660	-0.560258
O34	O	1.715977	0.007340	-0.060258
C35	C	1.040835	-0.331855	-0.494761
C36	C	1.540835	0.168145	0.005239
C37	C	0.940890	-0.336335	-0.488996
C38	C	1.440890	0.163665	0.011004
C39	C	0.746504	-0.255648	-0.593373
C40	C	1.246504	0.244352	-0.093373
C41	C	0.652598	-0.259854	-0.587960
C42	C	1.152598	0.240146	-0.087960
C43	C	0.659169	-0.348949	-0.472751
C44	C	1.159169	0.151051	0.027249
C45	C	0.753076	-0.344742	-0.478165
C46	C	1.253076	0.155258	0.021835
C47	C	0.796740	-0.298091	-0.538479
C48	C	1.296740	0.201909	-0.038479
C49	C	0.890648	-0.293890	-0.543897
C50	C	1.390648	0.206110	-0.043897
C51	C	0.897218	-0.382980	-0.428684
C52	C	1.397218	0.117020	0.071316
C53	C	0.803311	-0.387186	-0.423271
C54	C	1.303311	0.112814	0.076729
C55	C	1.274386	-0.514383	-0.508247
C56	C	1.774386	-0.014383	-0.008247
C57	C	1.274438	-0.596927	-0.508264
C58	C	1.774438	-0.096927	-0.008264
C59	C	1.338072	-0.790668	-0.451774
C60	C	1.838072	-0.290668	0.048226
C61	C	1.355299	-0.843138	-0.535104
C62	C	1.855299	-0.343138	-0.035104
C63	C	1.274487	-0.748057	-0.508303
C64	C	1.774487	-0.248057	-0.008303
C65	C	1.257349	-0.842666	-0.425015
C66	C	1.757349	-0.342666	0.074985
C67	C	1.274536	-0.894041	-0.508334
C68	C	1.774536	-0.394041	-0.008334
C69	C	1.291753	-0.799440	-0.591679
C70	C	1.791753	-0.299440	-0.091679
C71	C	1.193768	-0.798963	-0.481532
C72	C	1.693768	-0.298963	0.018468
C73	C	1.210961	-0.851415	-0.564918
C74	C	1.710961	-0.351415	-0.064918
C75	C	1.274461	-0.663959	-0.508285
C76	C	1.774461	-0.163959	-0.008285
C77	C	1.274562	-0.978138	-0.508361
C78	C	1.774562	-0.478138	-0.008361
C79	C	1.508984	-0.310964	-0.521865
C80	C	2.008984	0.189036	-0.021865
C81	C	1.608927	-0.306504	-0.527652
C82	C	2.108927	0.193496	-0.027652
C83	C	1.260968	-0.333149	-0.742809
C84	C	1.760968	0.166851	-0.242809
C85	C	1.255222	-0.338144	-0.842748
C86	C	1.755222	0.161856	-0.342748
C87	C	1.274544	-0.127723	-0.508348
C88	C	1.774544	0.372277	-0.008348
C89	C	1.274582	-0.045176	-0.508374
C90	C	1.774582	0.454824	-0.008374
C91	C	1.359474	-0.247389	-1.037235
C92	C	1.859474	0.252611	-0.537235
C93	C	1.354077	-0.252079	-1.131137
C94	C	1.854077	0.247921	-0.631137
C95	C	1.239028	-0.352209	-1.124456
C96	C	1.739028	0.147791	-0.624456
C97	C	1.244425	-0.347519	-1.030554
C98	C	1.744425	0.152481	-0.530554
C99	C	1.304651	-0.295108	-0.986947
C100	C	1.804651	0.204892	-0.486947
C101	C	1.310051	-0.290423	-0.893043
C102	C	1.810051	0.209577	-0.393043
C103	C	1.194998	-0.390548	-0.886363
C104	C	1.694998	0.109452	-0.386363
C105	C	1.189602	-0.395238	-0.980266
C106	C	1.689602	0.104762	-0.480266
C107	C	1.287937	-0.309699	-0.274680
C108	C	1.787937	0.190301	0.225320
C109	C	1.293858	-0.304488	-0.174751
C110	C	1.793858	0.195512	0.325249
H111	H	0.767747	-0.425165	-0.374162
H112	H	1.267747	0.074835	0.125838
H113	H	1.306197	-0.780449	-0.662184
H114	H	1.806197	-0.280449	-0.162184
N115	N	0.951410	-0.428756	-0.369473
N116	N	1.451410	0.071244	0.130527
H117	H	0.938750	-0.414666	-0.304310
H118	H	1.438750	0.085334	0.195690
H119	H	0.934237	-0.483245	-0.382458
H120	H	1.434237	0.016755	0.117542
H121	H	1.242833	-0.861755	-0.354566
H122	H	1.742833	-0.361755	0.145434
H123	H	1.398718	-0.213220	-1.172078
H124	H	1.898718	0.286780	-0.672078
N125	N	1.375009	-0.233900	-0.846006
N126	N	1.875009	0.266100	-0.346006
H127	H	1.408918	-0.204381	-0.892116
H128	H	1.908918	0.295619	-0.392116
H129	H	1.340660	-0.199222	-0.804935
H130	H	1.840660	0.300778	-0.304935
H131	H	1.157206	-0.877768	-0.612794
H132	H	1.657206	-0.377768	-0.112794
N133	N	0.612055	-0.399247	-0.407695
N134	N	1.112055	0.100753	0.092305
H135	H	0.570989	-0.437272	-0.441913
H136	H	1.070989	0.062728	0.058087
H137	H	0.658176	-0.425449	-0.373747
H138	H	1.158176	0.074551	0.126253
N139	N	0.937743	-0.243580	-0.608953
N140	N	1.437743	0.256420	-0.108953
H141	H	1.004856	-0.247359	-0.604060
H142	H	1.504856	0.252641	-0.104060
H143	H	0.917643	-0.259169	-0.672194
H144	H	1.417643	0.240831	-0.172194
H145	H	1.140566	-0.437908	-1.015783
H146	H	1.640566	0.062092	-0.515783
H147	H	1.189995	-0.394879	-1.159977
H148	H	1.689995	0.105121	-0.659977
H149	H	1.125507	-0.779453	-0.458848
H150	H	1.625507	-0.279453	0.041152
H151	H	1.150359	-0.429407	-0.845409
H152	H	1.650359	0.070593	-0.345409
N153	N	1.424445	-0.190882	-0.990191
N154	N	1.924445	0.309118	-0.490191
H155	H	1.390173	-0.156149	-0.949115
H156	H	1.890173	0.343851	-0.449115
H157	H	1.468312	-0.217334	-0.953695
H158	H	1.968312	0.282666	-0.453695
N159	N	0.793606	-0.205344	-0.658431
N160	N	1.293606	0.294656	-0.158431
H161	H	0.747532	-0.179096	-0.692390
H162	H	1.247532	0.320904	-0.192390
H163	H	0.834670	-0.167358	-0.624154
H164	H	1.334670	0.332642	-0.124154
N165	N	0.598422	-0.214068	-0.647166
N166	N	1.098422	0.285932	-0.147166
H167	H	0.611085	-0.228156	-0.712328
H168	H	1.111085	0.271844	-0.212328
H169	H	0.532326	-0.223824	-0.634513
H170	H	1.032326	0.276176	-0.134513
N171	N	1.409309	-0.755579	-0.388518
N172	N	1.909309	-0.255579	0.111482
H173	H	1.470279	-0.771583	-0.408872
H174	H	1.970279	-0.271583	0.091128
H175	H	1.408327	-0.699682	-0.388549
H176	H	1.908327	-0.199682	0.111451
N177	N	1.445741	-0.868963	-0.565127
N178	N	1.945741	-0.368963	-0.065127
H179	H	1.493716	-0.846714	-0.522377
H180	H	1.993716	-0.346714	-0.022377
H181	H	1.444822	-0.924969	-0.565487
H182	H	1.944822	-0.424969	-0.065487
