data_functionalizedCrystal
_audit_creation_method	'MofGen! by Chris Wilmer'
_symmetry_space_group_name_H-M	'P1'
_symmetry_Int_Tables_number	1
_symmetry_cell_setting	triclinic
loop_
_symmetry_equiv_pos_as_xyz
  x,y,z
_cell_length_a	19.188930
_cell_length_b	19.188930
_cell_length_c	9.565339
_cell_angle_alpha	89.982345
_cell_angle_beta	90.004134
_cell_angle_gamma	96.855221
loop_
_atom_site_label
_atom_site_type_symbol
_atom_site_fract_x
_atom_site_fract_y
_atom_site_fract_z
O1	O	0.087162	-0.926145	0.116725
O2	O	0.098896	-0.722833	0.116631
O3	O	-0.008627	-0.830356	0.116654
O4	O	0.194685	-0.818622	0.116703
O5	O	-0.008618	-0.830347	-0.115867
O6	O	0.098904	-0.722824	-0.115889
O7	O	0.087170	-0.926136	-0.115795
Zn8	Zn	0.093039	-0.824479	-0.152760
Zn9	Zn	0.093028	-0.824491	0.153596
O10	O	0.194693	-0.818613	-0.115817
C11	C	-0.034634	-0.829972	0.000389
C12	C	-0.112138	-0.828831	0.000377
C13	C	0.098520	-0.696818	0.000359
C14	C	0.097380	-0.619313	0.000322
C15	C	0.087546	-0.952151	0.000480
C16	C	0.088687	-1.029656	0.000527
C17	C	-0.157062	-0.891922	0.000399
C18	C	-0.229886	-0.890850	0.000421
C19	C	-0.257782	-0.826684	0.000392
C20	C	-0.212849	-0.763585	0.000378
C21	C	-0.140026	-0.764658	0.000370
N22	N	-0.365785	-0.777634	-0.078761
N23	N	-0.434963	-0.776618	-0.078757
C24	C	-0.477191	-0.823446	0.000419
N25	N	-0.447628	-0.871338	0.079573
N26	N	-0.378444	-0.872356	0.079562
C27	C	-0.336745	-0.825513	0.000402
C28	C	-0.601079	-0.885379	0.000467
C29	C	-0.673904	-0.884305	0.000498
C30	C	-0.656865	-0.757038	0.000441
C31	C	-0.584042	-0.758114	0.000424
C32	C	-0.556154	-0.822286	0.000431
C33	C	0.220700	-0.818997	0.000450
C34	C	0.298204	-0.820138	0.000472
N35	N	0.093046	-0.824475	-0.361839
C36	C	0.160470	-0.574389	0.000359
C37	C	0.159399	-0.501566	0.000374
C38	C	0.095233	-0.473669	0.000380
C39	C	0.032133	-0.518603	0.000335
C40	C	0.033207	-0.591425	0.000306
N41	N	0.046183	-0.365692	0.079561
N42	N	0.045167	-0.296513	0.079592
C43	C	0.091994	-0.254260	0.000465
N44	N	0.139886	-0.283798	-0.078677
N45	N	0.140904	-0.352983	-0.078701
C46	C	0.094062	-0.394707	0.000411
C47	C	0.153928	-0.130372	0.000516
C48	C	0.152853	-0.057547	0.000523
C49	C	0.025586	-0.074586	0.000498
C50	C	0.026662	-0.147409	0.000477
C51	C	0.090835	-0.175298	0.000493
C52	C	0.143149	-0.775154	-0.546222
C53	C	0.080298	-0.761224	-0.453019
C54	C	0.155892	-0.838374	-0.452972
C55	C	0.030132	-0.810538	-0.546174
C56	C	0.105767	-0.887716	-0.546135
C57	C	0.042870	-0.873813	-0.452975
N58	N	0.093015	-0.824499	0.362675
H59	H	-0.134360	-0.944176	0.000409
H60	H	0.185485	-0.733406	-0.587164
O61	O	0.226312	-0.853946	-0.398774
H62	H	0.219236	-0.902580	-0.334908
H63	H	0.069523	-0.707754	-0.412107
O64	O	-0.041388	-0.195866	0.000454
H65	H	-0.043941	-0.229422	-0.094338
O66	O	-0.013326	-0.929083	-0.399080
H67	H	-0.012620	-0.928991	-0.283050
O68	O	-0.535582	-0.690065	0.000386
H69	H	-0.501999	-0.687512	-0.094386
O70	O	-0.040302	-0.794889	-0.600156
H71	H	-0.039752	-0.794993	-0.716188
O72	O	-0.686947	-0.687830	0.000401
H73	H	-0.668884	-0.657528	0.095161
O74	O	-0.570997	-0.954592	0.000495
H75	H	-0.512811	-0.944740	0.000466
H76	H	-0.103449	-0.713281	0.000351
O77	O	-0.278350	-0.958902	0.000420
H78	H	-0.311932	-0.961473	0.095194
O79	O	0.120067	-0.958520	-0.600381
H80	H	0.172305	-0.969927	-0.563124
O81	O	-0.037075	-0.488518	0.000330
H82	H	-0.067391	-0.506610	0.095078
H83	H	0.210776	-0.464982	0.000401
O84	O	-0.242930	-0.694375	0.000331
H85	H	-0.301116	-0.704227	0.000321
H86	H	-0.710481	-0.935683	0.000524
H87	H	0.212725	-0.597091	0.000375
O88	O	-0.034843	-0.639886	0.000273
H89	H	-0.079644	-0.608257	0.000283
H90	H	0.206181	-0.153080	0.000509
O91	O	0.220904	-0.009087	0.000558
H92	H	0.265704	-0.040718	0.000575
H93	H	-0.026659	-0.051874	0.000589
