data_functionalizedCrystal
_audit_creation_method	'MofGen! by Chris Wilmer'
_symmetry_space_group_name_H-M	'P1'
_symmetry_Int_Tables_number	1
_symmetry_cell_setting	triclinic
loop_
_symmetry_equiv_pos_as_xyz
  x,y,z
_cell_length_a	16.992700
_cell_length_b	16.956993
_cell_length_c	14.586319
_cell_angle_alpha	90.008450
_cell_angle_beta	89.978312
_cell_angle_gamma	96.639065
loop_
_atom_site_label
_atom_site_type_symbol
_atom_site_fract_x
_atom_site_fract_y
_atom_site_fract_z
O1	O	0.032377	-1.060097	-0.076338
O2	O	0.059790	-0.829686	-0.076324
O3	O	-0.067999	-0.943969	-0.076307
O4	O	0.160166	-0.945814	-0.076354
O5	O	-0.068025	-0.943962	0.076173
O6	O	0.059764	-0.829680	0.076157
O7	O	0.032351	-1.060090	0.076143
Cu8	Cu	0.046055	-0.944884	0.090073
Cu9	Cu	0.046086	-0.944892	-0.090253
O10	O	0.160141	-0.945808	0.076127
C11	C	0.061181	-0.800064	-0.000081
C12	C	0.065354	-0.711810	-0.000075
C13	C	-0.097071	-0.941589	-0.000063
C14	C	-0.183655	-0.934500	-0.000050
C15	C	-0.669528	-0.886862	-0.000131
C16	C	-0.588173	-0.893530	-0.000123
C17	C	-0.561496	-0.968613	-0.000115
C18	C	-0.616178	-1.037033	-0.000125
C19	C	-0.697531	-1.030364	-0.000140
C20	C	-0.319690	-0.996251	-0.000075
C21	C	-0.238331	-1.002914	-0.000058
C22	C	-0.210332	-0.859411	-0.000057
C23	C	-0.291687	-0.852749	-0.000067
C24	C	-0.346362	-0.921168	-0.000082
N25	N	-0.478339	-0.975430	-0.000103
N26	N	-0.429517	-0.914350	-0.000100
C27	C	0.096571	-0.214499	-0.000101
C28	C	0.092644	-0.297424	-0.000102
C29	C	0.018931	-0.343815	-0.000081
C30	C	-0.050859	-0.307278	-0.000069
C31	C	-0.046931	-0.224354	-0.000075
C32	C	-0.000509	-0.592349	-0.000068
C33	C	-0.004432	-0.675278	-0.000060
C34	C	0.139072	-0.665418	-0.000094
C35	C	0.142993	-0.582493	-0.000094
C36	C	0.073203	-0.545963	-0.000087
N37	N	0.014916	-0.428578	-0.000079
N38	N	0.077219	-0.461202	-0.000096
C39	C	0.189212	-0.948187	-0.000120
C40	C	0.275797	-0.955277	-0.000138
C41	C	0.030960	-0.089712	-0.000095
C42	C	0.026786	-0.177967	-0.000086
N43	N	0.046102	-0.944898	-0.217085
C44	C	0.090440	-0.995968	-0.548122
C45	C	0.090450	-0.995972	-0.452141
C46	C	0.001690	-0.893812	-0.452065
C47	C	0.001676	-0.893813	-0.548044
C48	C	0.046055	-0.944889	-0.596071
C49	C	0.046080	-0.944893	-0.404110
C50	C	0.046091	-0.944897	-0.300043
C51	C	0.046043	-0.944886	-0.700144
N52	N	0.046033	-0.944884	0.216905
H53	H	-0.543659	-0.837819	-0.000119
C54	C	-0.744798	-0.796096	0.078238
C55	C	-0.698845	-0.804327	-0.000139
H56	H	-0.762890	-0.745138	0.078231
H57	H	-0.789002	-0.835880	0.078226
H58	H	-0.713659	-0.801675	0.131411
H59	H	-0.729986	-0.798754	-0.053312
H60	H	-0.654634	-0.764532	-0.000136
H61	H	-0.216615	-1.064059	-0.000051
H62	H	-0.103758	-0.194612	-0.000065
H63	H	-0.364198	-1.051963	-0.000082
C64	C	0.129837	-1.041327	-0.695286
C65	C	0.139216	-1.052114	-0.600915
H66	H	0.159954	-1.075988	-0.727874
H67	H	0.075474	-1.052786	-0.710980
H68	H	0.147735	-0.987891	-0.711007
H69	H	0.121312	-1.105548	-0.585193
H70	H	0.193591	-1.040660	-0.585215
H71	H	-0.594452	-1.098167	-0.000116
C72	C	-0.717041	-1.172880	-0.000130
C73	C	-0.757634	-1.105568	-0.000144
H74	H	-0.754147	-1.219307	-0.000131
H75	H	-0.684705	-1.172501	-0.053294
H76	H	-0.684750	-1.172485	0.053054
H77	H	-0.789920	-1.105959	-0.053332
H78	H	-0.789983	-1.105946	0.053024
C79	C	0.150344	-0.420161	-0.000167
C80	C	0.169354	-0.337580	-0.000152
H81	H	0.197704	-0.444950	-0.000214
H82	H	0.120236	-0.435775	0.053020
H83	H	0.120209	-0.435764	-0.053327
H84	H	0.199484	-0.321977	0.053012
H85	H	0.199474	-0.321960	-0.053344
C86	C	0.284446	-0.581080	-0.000136
C87	C	0.224021	-0.531502	-0.000121
H88	H	0.334469	-0.549598	-0.000154
H89	H	0.279924	-0.613619	0.053036
H90	H	0.279932	-0.613637	-0.053311
H91	H	0.228532	-0.498948	0.053058
H92	H	0.228546	-0.498949	-0.053298
H93	H	-0.313401	-0.791608	-0.000084
C94	C	0.178192	-1.096943	-0.461864
C95	C	0.139243	-1.052116	-0.399437
H96	H	0.208319	-1.131602	-0.429325
H97	H	0.140212	-1.127263	-0.499280
H98	H	0.212470	-1.062363	-0.499315
H99	H	0.104961	-1.086695	-0.361990
H100	H	0.177228	-1.021794	-0.362005
C101	C	-0.190829	-0.716897	-0.000062
C102	C	-0.150232	-0.784206	-0.000051
H103	H	-0.153725	-0.670468	-0.000056
H104	H	-0.223118	-0.717290	-0.053237
H105	H	-0.223167	-0.717279	0.053110
H106	H	-0.117899	-0.783828	-0.053227
H107	H	-0.117930	-0.783812	0.053129
H108	H	0.156596	-0.176732	-0.000111
C109	C	-0.037712	-0.848453	-0.304902
C110	C	-0.047083	-0.837661	-0.399274
H111	H	-0.067818	-0.813781	-0.272316
H112	H	-0.055620	-0.901879	-0.289185
H113	H	0.016659	-0.837005	-0.289204
H114	H	-0.101453	-0.849116	-0.414973
H115	H	-0.029178	-0.784223	-0.414998
H116	H	0.195891	-0.695170	-0.000102
H117	H	-0.064460	-0.713049	-0.000047
H118	H	-0.057337	-0.562616	-0.000060
C119	C	-0.086056	-0.792821	-0.538336
C120	C	-0.047114	-0.837660	-0.600756
H121	H	-0.116171	-0.758156	-0.570880
H122	H	-0.120336	-0.827387	-0.500886
H123	H	-0.048066	-0.762501	-0.500917
H124	H	-0.085104	-0.867985	-0.638170
H125	H	-0.012831	-0.803090	-0.638221
C126	C	-0.120599	-0.438770	-0.000034
C127	C	-0.131887	-0.358270	-0.000043
H128	H	-0.170624	-0.470248	-0.000010
H129	H	-0.091763	-0.450342	-0.053211
H130	H	-0.091765	-0.450317	0.053136
H131	H	-0.160715	-0.346722	-0.053217
H132	H	-0.160735	-0.346694	0.053140
