data_functionalizedCrystal
_audit_creation_method	'MofGen! by Chris Wilmer'
_symmetry_space_group_name_H-M	'P1'
_symmetry_Int_Tables_number	1
_symmetry_cell_setting	triclinic
loop_
_symmetry_equiv_pos_as_xyz
  x,y,z
_cell_length_a	18.050591
_cell_length_b	18.050590
_cell_length_c	19.805399
_cell_angle_alpha	90.027426
_cell_angle_beta	90.014260
_cell_angle_gamma	90.017393
loop_
_atom_site_label
_atom_site_type_symbol
_atom_site_fract_x
_atom_site_fract_y
_atom_site_fract_z
Zn1	Zn	1.135370	-0.295700	0.382624
Zn2	Zn	1.635370	0.204300	0.882624
Zn3	Zn	1.135293	-0.419892	0.269436
Zn4	Zn	1.635293	0.080108	0.769436
Zn5	Zn	1.011181	-0.295718	0.269460
Zn6	Zn	1.511181	0.204282	0.769460
Zn7	Zn	1.011158	-0.419850	0.382594
Zn8	Zn	1.511158	0.080150	0.882594
O9	O	1.073250	-0.357790	0.326029
O10	O	1.573250	0.142210	0.826029
O11	O	1.239284	-0.312184	0.367613
O12	O	1.739284	0.187816	0.867613
O13	O	1.118807	-0.403445	0.174723
O14	O	1.618807	0.096555	0.674723
O15	O	1.027696	-0.191791	0.284494
O16	O	1.527696	0.308209	0.784494
O17	O	1.239228	-0.403427	0.284454
O18	O	1.739228	0.096573	0.784454
O19	O	1.118937	-0.191777	0.367635
O20	O	1.618937	0.308223	0.867635
O21	O	1.027622	-0.312215	0.174740
O22	O	1.527622	0.187785	0.674740
O23	O	0.907253	-0.312174	0.284464
O24	O	1.407253	0.187826	0.784464
O25	O	1.027657	-0.403356	0.477314
O26	O	1.527657	0.096644	0.977314
O27	O	0.907236	-0.403373	0.367583
O28	O	1.407236	0.096627	0.867583
O29	O	1.118915	-0.312143	0.477337
O30	O	1.618915	0.187857	0.977337
O31	O	1.118785	-0.523811	0.284425
O32	O	1.618785	-0.023811	0.784425
O33	O	1.027583	-0.523780	0.367561
O34	O	1.527583	-0.023780	0.867561
C35	C	0.880298	-0.357772	0.326023
C36	C	1.380298	0.142228	0.826023
C37	C	0.797752	-0.357782	0.326037
C38	C	1.297752	0.142218	0.826037
C39	C	0.548939	-0.407479	0.371175
C40	C	1.048939	0.092521	0.871175
C41	C	0.598308	-0.425554	0.309395
C42	C	1.098308	0.074446	0.809395
C43	C	0.500632	-0.357805	0.326035
C44	C	1.000632	0.142195	0.826035
C45	C	0.598345	-0.339753	0.387813
C46	C	1.098345	0.160247	0.887813
C47	C	0.646617	-0.357795	0.326039
C48	C	1.146617	0.142205	0.826039
C49	C	0.548913	-0.375916	0.264223
C50	C	1.048913	0.124084	0.764223
C51	C	0.548946	-0.290083	0.342682
C52	C	1.048946	0.209917	0.842682
C53	C	0.598293	-0.308133	0.280859
C54	C	1.098293	0.191867	0.780859
C55	C	0.416534	-0.357812	0.326034
C56	C	0.916534	0.142188	0.826034
C57	C	0.730714	-0.357788	0.326034
C58	C	1.230714	0.142212	0.826034
C59	C	1.073193	-0.550742	0.326002
C60	C	1.573193	-0.050742	0.826002
C61	C	1.073237	-0.633288	0.326013
C62	C	1.573237	-0.133288	0.826013
C63	C	1.122935	-0.832728	0.280866
C64	C	1.622935	-0.332728	0.780866
C65	C	1.141075	-0.882062	0.342640
C66	C	1.641075	-0.382062	0.842640
C67	C	1.073279	-0.784418	0.326040
C68	C	1.573279	-0.284418	0.826040
C69	C	1.055215	-0.882165	0.264294
C70	C	1.555215	-0.382165	0.764294
C71	C	1.073321	-0.930403	0.326060
C72	C	1.573321	-0.430403	0.826060
C73	C	1.091454	-0.832665	0.387845
C74	C	1.591454	-0.332665	0.887845
C75	C	1.005561	-0.832764	0.309458
C76	C	1.505561	-0.332764	0.809458
C77	C	1.023675	-0.882076	0.371274
C78	C	1.523675	-0.382076	0.871274
C79	C	1.073257	-0.700320	0.326027
C80	C	1.573257	-0.200320	0.826027
C81	C	1.073343	-1.014500	0.326080
C82	C	1.573343	-0.514500	0.826080
C83	C	1.266956	-0.357808	0.326035
C84	C	1.766956	0.142192	0.826035
C85	C	1.349502	-0.357816	0.326037
C86	C	1.849502	0.142184	0.826037
C87	C	1.073292	-0.357743	0.502571
C88	C	1.573292	0.142257	1.002571
C89	C	1.073310	-0.357723	0.577803
C90	C	1.573310	0.142277	1.077803
C91	C	1.073328	-0.164084	0.326070
C92	C	1.573328	0.335916	0.826070
C93	C	1.073361	-0.081538	0.326088
C94	C	1.573361	0.418462	0.826088
C95	C	1.073252	-0.357783	0.150173
C96	C	1.573252	0.142217	0.650173
C97	C	1.073378	-0.357593	0.074941
C98	C	1.573378	0.142407	0.574941
C99	C	1.120829	-0.310226	0.613160
C100	C	1.620829	0.189774	1.113160
C101	C	1.120836	-0.310205	0.683849
C102	C	1.620836	0.189795	1.183849
C103	C	1.073328	-0.357684	0.719179
C104	C	1.573328	0.142316	1.219179
C105	C	1.025804	-0.405183	0.683817
C106	C	1.525804	0.094817	1.183817
C107	C	1.025793	-0.405200	0.613130
C108	C	1.525793	0.094800	1.113130
C109	C	1.025846	-0.405114	0.968891
C110	C	1.525846	0.094886	1.468891
C111	C	1.025862	-0.405095	1.039583
C112	C	1.525862	0.094905	1.539583
C113	C	1.120889	-0.310118	1.039609
C114	C	1.620889	0.189882	1.539609
C115	C	1.120878	-0.310135	0.968922
C116	C	1.620878	0.189865	1.468922
C117	C	1.073352	-0.357631	0.933566
C118	C	1.573352	0.142369	1.433566
C119	C	1.073343	-0.357653	0.856918
C120	C	1.573343	0.142347	1.356918
C121	C	1.073340	-0.357667	0.795826
C122	C	1.573340	0.142333	1.295826
H123	H	0.527247	-0.232832	0.356782
H124	H	1.027247	0.267168	0.856782
H125	H	0.527269	-0.449522	0.409299
H126	H	1.027269	0.050478	0.909299
O127	O	0.979556	-0.451238	0.578756
O128	O	1.479556	0.048762	1.078756
C129	C	0.931608	-0.408967	0.537860
C130	C	1.431608	0.091033	1.037860
H131	H	0.927048	-0.350469	0.559171
H132	H	1.427048	0.149531	1.059171
H133	H	0.874445	-0.435824	0.537051
H134	H	1.374445	0.064176	1.037051
H135	H	0.954559	-0.406429	0.484288
H136	H	1.454559	0.093571	0.984288
H137	H	0.619990	-0.482822	0.295312
H138	H	1.119990	0.017178	0.795312
H139	H	1.039919	-0.903908	0.212068
H140	H	1.539919	-0.403908	0.712068
O141	O	0.624161	-0.321624	0.450186
O142	O	1.124161	0.178376	0.950186
C143	C	0.599030	-0.374160	0.497607
C144	C	1.099030	0.125840	0.997607
H145	H	0.547017	-0.402423	0.477506
H146	H	1.047017	0.097577	0.977506
H147	H	0.585742	-0.345116	0.547271
H148	H	1.085742	0.154884	1.047271
H149	H	0.644010	-0.417422	0.506388
H150	H	1.144010	0.082578	1.006388
H151	H	0.527292	-0.391250	0.211966
H152	H	1.027292	0.108750	0.711966
O153	O	0.623900	-0.257922	0.235314
O154	O	1.123900	0.242078	0.735314
C155	C	0.597652	-0.186788	0.252417
C156	C	1.097652	0.313212	0.752417
H157	H	0.545383	-0.192206	0.284333
H158	H	1.045383	0.307794	0.784333
H159	H	0.584417	-0.154667	0.204361
H160	H	1.084417	0.345333	0.704361
H161	H	0.641929	-0.155971	0.282386
H162	H	1.141929	0.344029	0.782386
H163	H	1.159518	-0.271565	0.584400
H164	H	1.659518	0.228435	1.084400
H165	H	1.159585	-0.271442	1.068405
H166	H	1.659585	0.228558	1.568405
O167	O	1.173146	-0.806906	0.235415
O168	O	1.673146	-0.306906	0.735415
C169	C	1.244488	-0.832041	0.253157
C170	C	1.744488	-0.332041	0.753157
H171	H	1.245856	-0.845855	0.309303
H172	H	1.745856	-0.345855	0.809303
H173	H	1.286848	-0.786853	0.241894
H174	H	1.786848	-0.286853	0.741894
H175	H	1.258448	-0.883737	0.222621
H176	H	1.758448	-0.383737	0.722621
H177	H	0.987172	-0.443760	1.068347
H178	H	1.487172	0.056240	1.568347
H179	H	1.159533	-0.271530	0.712633
H180	H	1.659533	0.228470	1.212633
O181	O	1.209469	-0.907773	0.359367
O182	O	1.709469	-0.407773	0.859367
C183	C	1.257571	-0.847437	0.370520
C184	C	1.757571	-0.347437	0.870520
H185	H	1.235701	-0.796598	0.342817
H186	H	1.735701	-0.296598	0.842817
H187	H	1.315168	-0.861717	0.350834
H188	H	1.815168	-0.361717	0.850834
H189	H	1.260742	-0.835206	0.426925
H190	H	1.760742	-0.335206	0.926925
H191	H	1.106693	-0.811014	0.440116
H192	H	1.606693	-0.311014	0.940116
H193	H	0.987157	-0.443799	0.940112
H194	H	1.487157	0.056201	1.440112
O195	O	0.973683	-0.907733	0.417000
O196	O	1.473683	-0.407733	0.917000
C197	C	0.993016	-0.882356	0.481998
C198	C	1.493016	-0.382356	0.981998
H199	H	1.054626	-0.868531	0.483331
H200	H	1.554626	-0.368531	0.983331
H201	H	0.980538	-0.927402	0.520688
H202	H	1.480538	-0.427402	1.020688
H203	H	0.959517	-0.830617	0.494535
H204	H	1.459517	-0.330617	0.994535
H205	H	0.948292	-0.811091	0.295402
H206	H	1.448292	-0.311091	0.795402
H207	H	1.159567	-0.271475	0.940160
H208	H	1.659567	0.228525	1.440160
O209	O	0.979722	-0.451280	0.718239
O210	O	1.479722	0.048720	1.218239
C211	C	0.989908	-0.441069	0.788212
C212	C	1.489908	0.058931	1.288212
H213	H	1.047233	-0.416752	0.797878
H214	H	1.547233	0.083248	1.297878
H215	H	0.984850	-0.496690	0.815063
H216	H	1.484850	0.003310	1.315063
H217	H	0.945878	-0.401510	0.808277
H218	H	1.445878	0.098490	1.308277
