data_functionalizedCrystal
_audit_creation_method	'MofGen! by Chris Wilmer'
_symmetry_space_group_name_H-M	'P1'
_symmetry_Int_Tables_number	1
_symmetry_cell_setting	triclinic
loop_
_symmetry_equiv_pos_as_xyz
  x,y,z
_cell_length_a	10.489716
_cell_length_b	10.489716
_cell_length_c	13.930277
_cell_angle_alpha	89.999515
_cell_angle_beta	89.993156
_cell_angle_gamma	84.529136
loop_
_atom_site_label
_atom_site_type_symbol
_atom_site_fract_x
_atom_site_fract_y
_atom_site_fract_z
O1	O	1.694061	0.179820	-0.079814
O2	O	1.322860	0.196746	-0.079816
O3	O	1.516923	0.002682	-0.079818
O4	O	1.499998	0.373883	-0.079812
O5	O	1.516896	0.002678	0.079843
O6	O	1.322833	0.196741	0.079845
O7	O	1.694034	0.179815	0.079848
Zn8	Zn	1.508429	0.188278	0.105197
Zn9	Zn	1.508465	0.188283	-0.105165
O10	O	1.499971	0.373879	0.079850
C11	C	1.275314	0.195472	0.000014
C12	C	1.133684	0.191667	0.000013
C13	C	1.035999	0.310673	0.000012
C14	C	0.958645	0.247786	0.078737
C15	C	0.958679	0.247762	-0.078677
C16	C	1.058195	0.128829	0.078802
C17	C	1.058234	0.128823	-0.078682
C18	C	0.980929	0.065848	0.000062
C19	C	1.515638	-0.044852	0.000010
C20	C	1.511833	-0.186483	0.000001
C21	C	1.630839	-0.284167	0.000010
C22	C	1.567967	-0.361520	-0.078709
C23	C	1.567913	-0.361488	0.078705
C24	C	1.449011	-0.261970	-0.078784
C25	C	1.448974	-0.261933	0.078701
C26	C	1.386015	-0.339237	-0.000038
C27	C	1.741580	0.181089	0.000016
C28	C	1.883210	0.184894	0.000011
C29	C	1.501256	0.421413	0.000020
C30	C	1.505061	0.563044	0.000022
N31	N	1.508414	0.188273	0.248763
N32	N	1.508490	0.188278	-0.248731
C33	C	1.422530	0.274181	0.701033
C34	C	1.594435	0.102377	0.701000
C35	C	1.594420	0.102372	0.600505
C36	C	1.508460	0.188275	0.550268
C37	C	1.422515	0.274182	0.600528
C38	C	1.680372	0.016476	0.550238
C39	C	1.680361	0.016469	0.449736
C40	C	1.594394	0.102367	0.399498
C41	C	1.508444	0.188276	0.449763
C42	C	1.422484	0.274179	0.399527
C43	C	1.336528	0.360083	0.449791
C44	C	1.336547	0.360079	0.550290
C45	C	1.594374	0.102370	0.298999
C46	C	1.422469	0.274180	0.299022
H47	H	0.956508	-0.037744	0.000105
H48	H	1.101746	0.078626	-0.145242
O49	O	1.382518	-0.204617	-0.167041
H50	H	1.431613	-0.245521	-0.232240
H51	H	0.915202	0.298025	-0.145223
O52	O	1.767944	-0.251460	-0.000092
H53	H	1.817070	-0.291521	-0.065541
O54	O	1.243793	0.452715	0.395606
H55	H	1.258221	0.438267	0.317279
O56	O	1.068702	0.447779	0.000114
H57	H	0.979053	0.513172	0.000846
O58	O	0.901016	0.314315	0.166900
H59	H	0.922635	0.415854	0.166740
O60	O	1.329739	0.366815	0.244835
H61	H	1.383976	0.429333	0.199028
O62	O	1.634523	-0.419142	-0.166865
H63	H	1.565528	-0.468934	-0.210126
O64	O	1.329835	0.366837	0.755244
H65	H	1.346990	0.466433	0.735944
H66	H	1.282422	-0.363659	-0.000081
H67	H	1.101505	0.078619	0.145424
H68	H	1.664427	0.032443	0.741906
O69	O	1.243856	0.452742	0.604499
H70	H	1.258324	0.438320	0.682821
H71	H	1.398770	-0.218413	0.145256
O72	O	1.634455	-0.419067	0.166869
H73	H	1.735986	-0.397419	0.166696
O74	O	1.773085	-0.076170	0.604416
H75	H	1.758643	-0.061747	0.682743
H76	H	1.750350	-0.053479	0.408817
H77	H	1.664364	0.032434	0.258079
