data_functionalizedCrystal
_audit_creation_method	'MofGen! by Chris Wilmer'
_symmetry_space_group_name_H-M	'P1'
_symmetry_Int_Tables_number	1
_symmetry_cell_setting	triclinic
loop_
_symmetry_equiv_pos_as_xyz
  x,y,z
_cell_length_a	19.188930
_cell_length_b	14.853567
_cell_length_c	13.330367
_cell_angle_alpha	90.000844
_cell_angle_beta	90.021431
_cell_angle_gamma	83.389856
loop_
_atom_site_label
_atom_site_type_symbol
_atom_site_fract_x
_atom_site_fract_y
_atom_site_fract_z
O1	O	-0.926523	-0.112552	-0.083738
O2	O	-0.723263	-0.127704	-0.083668
O3	O	-0.830322	0.011132	-0.083708
O4	O	-0.819464	-0.251388	-0.083698
O5	O	-0.830307	0.011135	0.083139
O6	O	-0.723247	-0.127701	0.083179
O7	O	-0.926508	-0.112549	0.083109
Cu8	Cu	-0.824876	-0.120125	0.098379
Cu9	Cu	-0.824894	-0.120128	-0.098937
O10	O	-0.819448	-0.251385	0.083149
C11	C	-0.697242	-0.127211	-0.000236
C12	C	-0.619733	-0.125739	-0.000209
C13	C	-0.829823	0.044720	-0.000287
C14	C	-0.828348	0.144795	-0.000295
C15	C	-0.952528	-0.113041	-0.000325
C16	C	-1.030038	-0.114514	-0.000358
C17	C	-0.575080	-0.207203	-0.000222
C18	C	-0.502252	-0.205819	-0.000233
C19	C	-0.474079	-0.122966	-0.000252
C20	C	-0.518741	-0.041491	-0.000233
C21	C	-0.591568	-0.042878	-0.000212
N22	N	-0.365893	-0.059637	-0.057080
N23	N	-0.296710	-0.058326	-0.057102
C24	C	-0.254657	-0.118785	-0.000313
N25	N	-0.284398	-0.180619	0.056486
N26	N	-0.353587	-0.181933	0.056504
C27	C	-0.395112	-0.121454	-0.000274
C28	C	-0.131035	-0.198755	-0.000336
C29	C	-0.058205	-0.197368	-0.000341
C30	C	-0.074696	-0.033038	-0.000352
C31	C	-0.147524	-0.034427	-0.000337
C32	C	-0.175689	-0.117288	-0.000334
C33	C	-0.819948	-0.284972	-0.000274
C34	C	-0.821422	-0.385048	-0.000272
N35	N	-0.824868	-0.120121	0.237160
C36	C	-0.758520	0.556941	-0.000252
C37	C	-0.885709	0.578929	-0.000296
C38	C	-0.887095	0.484903	-0.000302
C39	C	-0.824193	0.426891	-0.000282
C40	C	-0.759904	0.462906	-0.000255
C41	C	-0.951383	0.448881	-0.000319
C42	C	-0.952772	0.354850	-0.000324
C43	C	-0.889869	0.296836	-0.000311
C44	C	-0.825577	0.332856	-0.000285
C45	C	-0.762675	0.274845	-0.000265
C46	C	-0.698383	0.310862	-0.000247
C47	C	-0.697001	0.404892	-0.000242
C48	C	-0.891251	0.202807	-0.000315
C49	C	-0.764059	0.180809	-0.000269
N50	N	-0.824908	-0.120124	-0.237719
C51	C	-0.777486	-0.181580	0.709801
C52	C	-0.872321	-0.058669	0.709733
C53	C	-0.872313	-0.058666	0.604715
C54	C	-0.824892	-0.120122	0.552235
C55	C	-0.777478	-0.181581	0.604773
C56	C	-0.919731	0.002786	0.552169
C57	C	-0.919725	0.002791	0.447144
C58	C	-0.872300	-0.058662	0.394662
C59	C	-0.824884	-0.120123	0.447207
C60	C	-0.777462	-0.181580	0.394726
C61	C	-0.730042	-0.243037	0.447269
C62	C	-0.730053	-0.243034	0.552290
C63	C	-0.872290	-0.058665	0.289641
C64	C	-0.777454	-0.181581	0.289698
H65	H	-0.598007	-0.274675	-0.000222
Br66	Br	-0.665693	-0.326448	0.376034
Br67	Br	-0.613018	0.232122	-0.000207
Br68	Br	-0.936646	0.024727	0.218339
Br69	Br	-0.208128	0.076138	-0.000322
H70	H	-0.738876	-0.231616	0.752583
Br71	Br	-0.441641	-0.316385	-0.000244
H72	H	-0.051759	0.034423	-0.000429
H73	H	-0.495798	0.025968	-0.000262
Br74	Br	-0.984077	0.086195	0.375843
H75	H	-0.627925	0.023463	-0.000202
H76	H	-0.153968	-0.266225	-0.000319
H77	H	-0.910934	-0.008637	0.752466
H78	H	-0.021850	-0.263708	-0.000346
H79	H	-0.712835	0.133582	-0.000256
H80	H	-0.644657	0.434227	-0.000226
H81	H	-0.706174	0.586271	-0.000241
H82	H	-0.936921	0.626167	-0.000304
Br83	Br	-0.984093	0.086181	0.623388
H84	H	-1.002595	0.496120	-0.000326
Br85	Br	-1.040023	0.305976	-0.000364
Br86	Br	-0.978497	0.153927	-0.000316
Br87	Br	-0.713088	-0.264983	0.218483
H88	H	-0.691446	-0.293072	0.595077
