data_functionalizedCrystal
_audit_creation_method	'MofGen! by Chris Wilmer'
_symmetry_space_group_name_H-M	'P1'
_symmetry_Int_Tables_number	1
_symmetry_cell_setting	triclinic
loop_
_symmetry_equiv_pos_as_xyz
  x,y,z
_cell_length_a	14.908571
_cell_length_b	15.299816
_cell_length_c	14.908308
_cell_angle_alpha	76.545456
_cell_angle_beta	89.824947
_cell_angle_gamma	77.679493
loop_
_atom_site_label
_atom_site_type_symbol
_atom_site_fract_x
_atom_site_fract_y
_atom_site_fract_z
Zn1	Zn	1.423314	-0.480234	0.675272
Zn2	Zn	1.923314	0.019766	1.175272
Zn3	Zn	1.455541	-0.625789	0.551491
Zn4	Zn	1.955541	-0.125789	1.051491
Zn5	Zn	1.278757	-0.462558	0.513043
Zn6	Zn	1.778757	0.037442	1.013043
Zn7	Zn	1.296391	-0.624695	0.692943
Zn8	Zn	1.796391	-0.124695	1.192943
O9	O	1.363501	-0.548319	0.608187
O10	O	1.863501	-0.048319	1.108187
O11	O	1.554691	-0.507396	0.667548
O12	O	2.054691	-0.007396	1.167548
O13	O	1.438197	-0.597196	0.419299
O14	O	1.938197	-0.097196	0.919299
O15	O	1.277066	-0.336133	0.511077
O16	O	1.777066	0.163867	1.011077
O17	O	1.578368	-0.614335	0.576606
O18	O	2.078368	-0.114335	1.076606
O19	O	1.383271	-0.349119	0.630266
O20	O	1.883271	0.150881	1.130266
O21	O	1.308316	-0.477271	0.391051
O22	O	1.808316	0.022729	0.891051
O23	O	1.153994	-0.476211	0.528211
O24	O	1.653994	0.023789	1.028211
O25	O	1.307120	-0.612472	0.817691
O26	O	1.807120	-0.112472	1.317691
O27	O	1.166950	-0.595333	0.660383
O28	O	1.666950	-0.095333	1.160383
O29	O	1.400370	-0.506336	0.804708
O30	O	1.900370	-0.006336	1.304708
O31	O	1.455296	-0.754414	0.593741
O32	O	1.955296	-0.254414	1.093741
O33	O	1.338369	-0.753610	0.697665
O34	O	1.838369	-0.253610	1.197665
C35	C	1.127516	-0.533736	0.592043
C36	C	1.627516	-0.033736	1.092043
C37	C	1.026563	-0.527521	0.585163
C38	C	1.526563	-0.027521	1.085163
C39	C	1.402267	-0.787403	0.651814
C40	C	1.902267	-0.287403	1.151814
C41	C	1.418933	-0.889692	0.670514
C42	C	1.918933	-0.389692	1.170514
C43	C	0.850438	-0.640057	0.709741
C44	C	1.350438	-0.140057	1.209741
C45	C	0.755584	-0.634220	0.703279
C46	C	1.255584	-0.134220	1.203279
C47	C	0.741999	-0.510007	0.565783
C48	C	1.241999	-0.010007	1.065783
C49	C	0.836853	-0.515844	0.572244
C50	C	1.336853	-0.015844	1.072244
C51	C	0.891070	-0.580872	0.644225
C52	C	1.391070	-0.080872	1.144225
C53	C	0.985926	-0.586712	0.650682
C54	C	1.485926	-0.086712	1.150682
C55	C	0.972338	-0.462495	0.513190
C56	C	1.472338	0.037505	1.013190
C57	C	0.877485	-0.456658	0.506728
C58	C	1.377485	0.043342	1.006728
C59	C	1.244967	-1.151286	0.474886
C60	C	1.744967	-0.651286	0.974886
C61	C	1.229304	-1.055181	0.457319
C62	C	1.729304	-0.555181	0.957319
C63	C	1.276710	-1.013804	0.510616
C64	C	1.776710	-0.513804	1.010616
C65	C	1.339782	-1.068541	0.581484
C66	C	1.839782	-0.568541	1.081484
C67	C	1.355441	-1.164656	0.599058
C68	C	1.855441	-0.664656	1.099058
C69	C	1.387184	-1.027173	0.634787
C70	C	1.887184	-0.527173	1.134787
C71	C	1.450255	-1.081911	0.705655
C72	C	1.950255	-0.581911	1.205655
C73	C	1.465912	-1.178016	0.723226
C74	C	1.965912	-0.678016	1.223226
C75	C	1.418506	-1.219393	0.669929
C76	C	1.918506	-0.719393	1.169929
C77	C	1.371524	-0.931059	0.617213
C78	C	1.871524	-0.431059	1.117213
C79	C	1.481998	-0.944429	0.741385
C80	C	1.981998	-0.444429	1.241385
C81	C	1.497661	-1.040534	0.758952
C82	C	1.997661	-0.540534	1.258952
C83	C	1.600407	-0.562959	0.624395
C84	C	2.100407	-0.062959	1.124395
C85	C	1.701362	-0.569198	0.631302
C86	C	2.201362	-0.069198	1.131302
C87	C	1.352117	-0.561254	0.845075
C88	C	1.852117	-0.061254	1.345075
C89	C	1.347266	-0.566766	0.946022
C90	C	1.847266	-0.066766	1.446022
C91	C	1.324607	-0.308303	0.564412
C92	C	1.824607	0.191697	1.064412
C93	C	1.308033	-0.206023	0.545757
C94	C	1.808033	0.293977	1.045757
C95	C	1.374882	-0.535371	0.372213
C96	C	1.874882	-0.035371	0.872213
C97	C	1.379866	-0.529611	0.271231
C98	C	1.879866	-0.029611	0.771231
C99	C	1.435245	-0.466583	1.122191
C100	C	1.935245	0.033417	1.622191
C101	C	1.430689	-0.471759	1.217040
C102	C	1.930689	0.028241	1.717040
C103	C	1.333594	-0.582288	1.230568
C104	C	1.833594	-0.082288	1.730568
C105	C	1.338150	-0.577112	1.135719
C106	C	1.838150	-0.077112	1.635719
C107	C	1.388978	-0.519259	1.081534
C108	C	1.888978	-0.019259	1.581534
C109	C	1.393538	-0.514088	0.986685
C110	C	1.893538	-0.014088	1.486685
C111	C	1.296438	-0.624612	1.000214
C112	C	1.796438	-0.124612	1.500214
C113	C	1.291883	-0.629788	1.095062
C114	C	1.791883	-0.129788	1.595062
H115	H	1.030068	-0.639663	0.709291
H116	H	1.530068	-0.139663	1.209291
N117	N	0.908923	-0.710198	0.787363
N118	N	1.408923	-0.210198	1.287363
H119	H	0.868790	-0.746811	0.827885
H120	H	1.368790	-0.246811	1.327885
H121	H	0.940200	-0.677529	0.825312
H122	H	1.440200	-0.177529	1.325312
N123	N	1.161292	-0.996145	0.380881
N124	N	1.661292	-0.496145	0.880881
H125	H	1.110905	-0.955705	0.407587
H126	H	1.610905	-0.455705	0.907587
H127	H	1.133710	-1.037002	0.349810
H128	H	1.633710	-0.537002	0.849810
N129	N	1.480594	-0.414954	1.260901
N130	N	1.980594	0.085046	1.760901
H131	H	1.434879	-0.372180	1.289951
H132	H	1.934879	0.127820	1.789951
H133	H	1.513485	-0.377576	1.212137
H134	H	2.013485	0.122424	1.712137
H135	H	0.722506	-0.682413	0.756630
H136	H	1.222506	-0.182413	1.256630
N137	N	1.259830	-0.910149	0.491672
N138	N	1.759830	-0.410149	0.991672
H139	H	1.192948	-0.884102	0.499832
H140	H	1.692948	-0.384102	0.999832
H141	H	1.275849	-0.884720	0.426300
H142	H	1.775849	-0.384720	0.926300
N143	N	1.565672	-1.099586	0.835394
N144	N	2.065672	-0.599586	1.335394
H145	H	1.545667	-1.085517	0.896245
H146	H	2.045667	-0.585517	1.396245
H147	H	1.628502	-1.086033	0.822638
H148	H	2.128502	-0.586033	1.322638
H149	H	1.431259	-1.297649	0.684225
H150	H	1.931259	-0.797649	1.184225
H151	H	1.476637	-0.419481	1.078074
H152	H	1.976637	0.080519	1.578074
N153	N	1.533939	-1.237053	0.799660
N154	N	2.033939	-0.737053	1.299660
H155	H	1.536665	-1.304215	0.802705
H156	H	2.036665	-0.804215	1.302705
H157	H	1.513899	-1.222906	0.860468
H158	H	2.013899	-0.722906	1.360468
H159	H	1.292212	-0.629389	1.274701
H160	H	1.792212	-0.129389	1.774701
N161	N	1.193843	-1.195912	0.417407
N162	N	1.693843	-0.695912	0.917407
H163	H	1.213336	-1.265102	0.439295
H164	H	1.713336	-0.765102	0.939295
H165	H	1.208417	-1.176463	0.350458
H166	H	1.708417	-0.676463	0.850458
H167	H	1.320171	-0.886500	0.559512
H168	H	1.820171	-0.386500	1.059512
H169	H	0.697839	-0.457059	0.507184
H170	H	1.197839	0.042941	1.007184
H171	H	1.005430	-0.414304	0.459840
H172	H	1.505430	0.085696	0.959840
H173	H	0.833328	-0.403712	0.448126
H174	H	1.333328	0.096288	0.948126
N175	N	1.533129	-0.899814	0.798881
N176	N	2.033129	-0.399814	1.298881
H177	H	1.513640	-0.830624	0.776994
H178	H	2.013640	-0.330624	1.276994
H179	H	1.601414	-0.919798	0.792301
H180	H	2.101414	-0.419798	1.292301
N181	N	1.448362	-0.451697	0.928240
N182	N	1.948362	0.048303	1.428240
H183	H	1.476978	-0.419111	0.968392
H184	H	1.976978	0.080889	1.468392
H185	H	1.406377	-0.404683	0.878590
H186	H	1.906377	0.095317	1.378590
H187	H	1.250498	-0.676889	1.139192
H188	H	1.750498	-0.176889	1.639192
H189	H	1.258767	-0.667507	0.967102
H190	H	1.758767	-0.167507	1.467102
