data_functionalizedCrystal
_audit_creation_method	'MofGen! by Chris Wilmer'
_symmetry_space_group_name_H-M	'P1'
_symmetry_Int_Tables_number	1
_symmetry_cell_setting	triclinic
loop_
_symmetry_equiv_pos_as_xyz
  x,y,z
_cell_length_a	12.827893
_cell_length_b	29.839131
_cell_length_c	12.827885
_cell_angle_alpha	89.967159
_cell_angle_beta	89.980538
_cell_angle_gamma	90.041863
loop_
_atom_site_label
_atom_site_type_symbol
_atom_site_fract_x
_atom_site_fract_y
_atom_site_fract_z
Zn1	Zn	1.597481	-0.178829	-0.590828
Zn2	Zn	2.097481	0.321171	-0.090828
Zn3	Zn	1.597294	-0.253966	-0.416079
Zn4	Zn	2.097294	0.246034	0.083921
Zn5	Zn	1.422721	-0.178851	-0.416101
Zn6	Zn	1.922721	0.321149	0.083899
Zn7	Zn	1.422627	-0.253933	-0.590779
Zn8	Zn	1.922627	0.246067	-0.090779
O9	O	1.510031	-0.216395	-0.503447
O10	O	2.010031	0.283605	-0.003447
O11	O	1.743692	-0.188801	-0.567658
O12	O	2.243692	0.311199	-0.067658
O13	O	1.574098	-0.244025	-0.269846
O14	O	2.074098	0.255975	0.230154
O15	O	1.446021	-0.115981	-0.439309
O16	O	1.946021	0.384019	0.060691
O17	O	1.743555	-0.244004	-0.439271
O18	O	2.243555	0.255996	0.060729
O19	O	1.574416	-0.115965	-0.567680
O20	O	2.074416	0.384035	-0.067680
O21	O	1.445840	-0.188839	-0.269862
O22	O	1.945840	0.311161	0.230138
O23	O	1.276473	-0.188806	-0.439262
O24	O	1.776473	0.311194	0.060738
O25	O	1.445860	-0.243947	-0.737022
O26	O	1.945860	0.256053	-0.237022
O27	O	1.276403	-0.243968	-0.567597
O28	O	1.776403	0.256032	-0.067597
O29	O	1.574324	-0.188768	-0.737058
O30	O	2.074324	0.311232	-0.237058
O31	O	1.574006	-0.316829	-0.439224
O32	O	2.074006	0.183171	0.060776
O33	O	1.445679	-0.316804	-0.567575
O34	O	1.945679	0.183196	-0.067575
C35	C	1.238521	-0.216386	-0.503427
C36	C	1.738521	0.283614	-0.003427
C37	C	1.122368	-0.216394	-0.503443
C38	C	1.622368	0.283606	-0.003443
C39	C	1.070651	-0.189126	-0.567072
C40	C	1.570651	0.310874	-0.067072
C41	C	0.950600	-0.189133	-0.567091
C42	C	1.450600	0.310867	-0.067091
C43	C	1.509841	-0.333117	-0.503415
C44	C	2.009841	0.166883	-0.003415
C45	C	1.509855	-0.383052	-0.503436
C46	C	2.009855	0.116948	-0.003436
C47	C	1.443254	-0.739642	-0.570275
C48	C	1.943254	-0.239642	-0.070275
C49	C	1.443116	-0.551969	-0.570242
C50	C	1.943116	-0.051969	-0.070242
O51	O	1.386261	-0.527707	-0.627051
O52	O	1.886261	-0.027707	-0.127051
N53	N	1.509965	-0.528497	-0.503467
N54	N	2.009965	-0.028497	-0.003467
C55	C	1.576859	-0.551946	-0.436701
C56	C	2.076859	-0.051946	0.063299
O57	O	1.633723	-0.527676	-0.379911
O58	O	2.133723	-0.027676	0.120089
C59	C	1.577002	-0.739618	-0.436739
C60	C	2.077002	-0.239618	0.063261
C61	C	1.510140	-0.763088	-0.503511
C62	C	2.010140	-0.263088	-0.003511
C63	C	1.376399	-0.763111	-0.637042
C64	C	1.876399	-0.263111	-0.137042
C65	C	1.376430	-0.810027	-0.637046
C66	C	1.876430	-0.310027	-0.137046
C67	C	1.443316	-0.833473	-0.570282
C68	C	1.943316	-0.333473	-0.070282
C69	C	1.510171	-0.810003	-0.503515
C70	C	2.010171	-0.310003	-0.003515
C71	C	1.643900	-0.763067	-0.369979
C72	C	2.143900	-0.263067	0.130021
C73	C	1.643932	-0.809988	-0.369996
C74	C	2.143932	-0.309988	0.130004
C75	C	1.577070	-0.833457	-0.436768
C76	C	2.077070	-0.333457	0.063232
C77	C	1.577089	-0.880365	-0.436754
C78	C	2.077089	-0.380365	0.063246
N79	N	1.510239	-0.903836	-0.503529
N80	N	2.010239	-0.403836	-0.003529
C81	C	1.443353	-0.880390	-0.570293
C82	C	1.943353	-0.380390	-0.070293
C83	C	1.576778	-0.453416	-0.436684
C84	C	2.076778	0.046584	0.063316
C85	C	1.576741	-0.406498	-0.436672
C86	C	2.076741	0.093502	0.063328
C87	C	1.442999	-0.406524	-0.570216
C88	C	1.942999	0.093476	-0.070216
C89	C	1.443031	-0.453442	-0.570221
C90	C	1.943031	0.046558	-0.070221
C91	C	1.509928	-0.476887	-0.503459
C92	C	2.009928	0.023113	-0.003459
C93	C	1.443423	-0.978916	-0.570295
C94	C	1.943423	-0.478916	-0.070295
C95	C	1.443457	-1.025836	-0.570289
C96	C	1.943457	-0.525836	-0.070289
C97	C	1.577203	-1.025806	-0.436750
C98	C	2.077203	-0.525806	0.063250
C99	C	1.577165	-0.978891	-0.436751
C100	C	2.077165	-0.478891	0.063249
C101	C	1.510272	-0.955447	-0.503532
C102	C	2.010272	-0.455447	-0.003532
O103	O	1.633922	-0.904656	-0.379983
O104	O	2.133922	-0.404656	0.120017
O105	O	1.386514	-0.904669	-0.627090
O106	O	1.886514	-0.404669	-0.127090
C107	C	1.443223	-0.692726	-0.570272
C108	C	1.943223	-0.192726	-0.070272
C109	C	1.510078	-0.669257	-0.503504
C110	C	2.010078	-0.169257	-0.003504
C111	C	1.576964	-0.692703	-0.436741
C112	C	2.076964	-0.192703	0.063259
C113	C	1.510041	-0.622339	-0.503493
C114	C	2.010041	-0.122339	-0.003493
C115	C	1.443155	-0.598893	-0.570257
C116	C	1.943155	-0.098893	-0.070257
C117	C	1.376305	-0.622365	-0.637032
C118	C	1.876305	-0.122365	-0.137032
C119	C	1.376336	-0.669280	-0.637035
C120	C	1.876336	-0.169280	-0.137035
C121	C	1.643814	-0.669231	-0.369966
C122	C	2.143814	-0.169231	0.130034
C123	C	1.643777	-0.622316	-0.369967
C124	C	2.143777	-0.122316	0.130033
C125	C	1.576890	-0.598870	-0.436730
C126	C	2.076890	-0.098870	0.063270
C127	C	1.782601	-0.216403	-0.503468
C128	C	2.282601	0.283597	-0.003468
C129	C	1.898754	-0.216407	-0.503476
C130	C	2.398754	0.283593	-0.003476
C131	C	1.510103	-0.216351	-0.776017
C132	C	2.010103	0.283649	-0.276017
C133	C	1.510133	-0.216333	-0.892171
C134	C	2.010133	0.283667	-0.392171
C135	C	1.510250	-0.099216	-0.503502
C136	C	2.010250	0.400784	-0.003502
C137	C	1.510343	-0.049282	-0.503525
C138	C	2.010343	0.450718	-0.003525
C139	C	1.446586	-0.243626	-0.943938
C140	C	1.946586	0.256374	-0.443938
C141	C	1.446616	-0.243607	-1.063988
C142	C	1.946616	0.256393	-0.563988
C143	C	1.510019	-0.216406	-0.231937
C144	C	2.010019	0.283594	0.268063
C145	C	1.510191	-0.216298	-0.115784
C146	C	2.010191	0.283702	0.384216
H147	H	1.115250	-0.165774	-0.621530
H148	H	1.615250	0.334226	-0.121530
Br149	Br	1.734658	-0.731227	-0.279365
Br150	Br	2.234658	-0.231227	0.220635
H151	H	0.906124	-0.165789	-0.621569
H152	H	1.406124	0.334211	-0.121569
Br153	Br	1.285699	-0.841871	-0.727685
Br154	Br	1.785699	-0.341871	-0.227685
Br155	Br	0.972869	-0.255324	-0.412681
Br156	Br	1.472869	0.244676	0.087319
Br157	Br	1.285614	-0.731300	-0.727665
Br158	Br	1.785614	-0.231300	-0.227665
H159	H	1.077768	-0.239743	-0.448980
H160	H	1.577768	0.260257	0.051020
Br161	Br	1.285527	-0.590536	-0.727635
Br162	Br	1.785527	-0.090536	-0.227635
Br163	Br	1.600865	-0.177365	-0.966424
Br164	Br	2.100865	0.322635	-0.466424
Br165	Br	1.352708	-1.057684	-0.660912
Br166	Br	1.852708	-0.557684	-0.160912
H167	H	1.388592	-0.472548	-0.624598
H168	H	1.888592	0.027452	-0.124598
Br169	Br	1.352638	-0.947107	-0.660926
Br170	Br	1.852638	-0.447107	-0.160926
H171	H	1.392204	-0.266971	-1.108507
H172	H	1.892204	0.233029	-0.608507
H173	H	1.388536	-0.387426	-0.624576
H174	H	1.888536	0.112574	-0.124576
Br175	Br	1.667470	-0.374652	-0.346034
Br176	Br	2.167470	0.125348	0.153966
Br177	Br	1.734523	-0.590470	-0.279336
Br178	Br	2.234523	-0.090470	0.220664
Br179	Br	1.734730	-0.841804	-0.279389
Br180	Br	2.234730	-0.341804	0.220611
Br181	Br	1.667576	-0.485227	-0.346068
Br182	Br	2.167576	0.014773	0.153932
Br183	Br	1.355868	-0.282599	-0.869684
Br184	Br	1.855868	0.217401	-0.369684
H185	H	1.631599	-0.959781	-0.382369
H186	H	2.131599	-0.459781	0.117631
Br187	Br	1.667977	-1.057635	-0.346151
Br188	Br	2.167977	-0.557635	0.153849
H189	H	1.321892	-0.688385	-0.691409
H190	H	1.821892	-0.188385	-0.191409
H191	H	1.698283	-0.688316	-0.315598
H192	H	2.198283	-0.188316	0.184402
H193	H	1.564595	-0.192928	-1.071273
H194	H	2.064595	0.307072	-0.571273
