data_functionalizedCrystal
_audit_creation_method	'MofGen! by Chris Wilmer'
_symmetry_space_group_name_H-M	'P1'
_symmetry_Int_Tables_number	1
_symmetry_cell_setting	triclinic
loop_
_symmetry_equiv_pos_as_xyz
  x,y,z
_cell_length_a	12.759401
_cell_length_b	18.050589
_cell_length_c	12.759393
_cell_angle_alpha	89.969379
_cell_angle_beta	89.981433
_cell_angle_gamma	90.027265
loop_
_atom_site_label
_atom_site_type_symbol
_atom_site_fract_x
_atom_site_fract_y
_atom_site_fract_z
Zn1	Zn	1.606157	-0.295635	-0.593990
Zn2	Zn	1.606010	-0.419845	-0.418313
Zn3	Zn	1.430459	-0.295671	-0.418329
Zn4	Zn	1.430406	-0.419785	-0.593954
O5	O	1.518258	-0.357734	-0.506147
O6	O	1.753158	-0.312121	-0.570694
O7	O	1.582683	-0.403413	-0.271294
O8	O	1.453849	-0.191742	-0.441653
O9	O	1.753050	-0.403378	-0.441625
O10	O	1.582934	-0.191715	-0.570710
O11	O	1.453706	-0.312183	-0.271306
O12	O	1.283431	-0.312125	-0.441618
O13	O	1.453759	-0.403276	-0.740980
O14	O	1.283392	-0.403312	-0.570649
O15	O	1.582882	-0.312063	-0.741007
O16	O	1.582632	-0.523762	-0.441591
O17	O	1.453616	-0.523718	-0.570634
C18	C	1.245290	-0.357716	-0.506132
C19	C	1.128514	-0.357727	-0.506151
C20	C	1.073701	-0.310299	-0.573461
C21	C	0.963977	-0.310313	-0.573468
C22	C	0.963888	-0.405189	-0.438851
C23	C	1.073610	-0.405171	-0.438840
C24	C	1.073751	-0.255525	-0.651185
C25	C	0.964027	-0.255540	-0.651191
C26	C	1.518131	-0.550686	-0.506129
C27	C	1.518173	-0.633232	-0.506157
C28	C	1.448083	-0.832686	-0.576306
C29	C	1.422469	-0.882134	-0.480438
C30	C	1.518276	-0.784362	-0.506171
C31	C	1.543942	-0.881996	-0.602050
C32	C	1.518374	-0.930347	-0.506192
C33	C	1.492611	-0.832723	-0.410252
C34	C	1.614129	-0.832580	-0.531929
C35	C	1.588551	-0.882007	-0.435994
C36	C	1.518217	-0.700264	-0.506160
C37	C	1.518433	-1.014444	-0.506193
C38	C	1.792291	-0.357752	-0.506162
C39	C	1.909068	-0.357760	-0.506169
C40	C	1.518331	-0.357659	-0.780180
C41	C	1.518363	-0.357627	-0.896957
C42	C	1.518414	-0.164028	-0.506187
C43	C	1.518480	-0.081482	-0.506205
C44	C	1.585606	-0.310128	-0.951834
C45	C	1.585631	-0.310101	-1.061559
C46	C	1.451166	-0.405079	-1.061518
C47	C	1.451136	-0.405101	-0.951796
C48	C	1.663242	-0.255296	-0.951859
C49	C	1.663267	-0.255269	-1.061583
C50	C	1.518245	-0.357755	-0.233179
C51	C	1.518417	-0.357578	-0.116403
H52	H	0.930004	-0.200879	-0.622191
H53	H	1.107810	-0.276189	-0.728423
C54	C	1.634164	-0.178572	-0.912375
C55	C	1.616407	-0.131617	-0.997917
C56	C	1.589604	-0.060940	-0.961586
H57	H	1.689803	-0.159378	-0.871048
H58	H	1.572369	-0.181674	-0.871041
H59	H	1.678194	-0.128513	-1.039234
H60	H	1.560763	-0.150788	-1.039253
H61	H	1.527809	-0.064042	-0.920252
H62	H	1.645247	-0.041753	-0.920259
H63	H	1.577543	-0.029074	-1.019620
C64	C	0.924554	-0.276086	-0.759748
C65	C	1.010102	-0.288663	-0.826135
C66	C	0.973780	-0.307535	-0.926161
H67	H	0.883299	-0.236715	-0.786891
H68	H	0.883150	-0.319741	-0.755425
H69	H	1.051489	-0.245013	-0.830462
H70	H	1.051365	-0.328037	-0.799026
H71	H	0.932376	-0.351190	-0.921837
H72	H	0.932525	-0.268161	-0.953293
H73	H	1.031818	-0.316077	-0.971214
C74	C	1.133254	-0.456704	-0.365922
C75	C	1.196275	-0.504336	-0.425276
C76	C	1.251242	-0.551813	-0.358137
H77	H	1.084957	-0.485031	-0.325816
H78	H	1.176107	-0.428267	-0.320229
H79	H	1.153426	-0.532770	-0.470951
H80	H	1.244591	-0.476029	-0.465380
H81	H	1.294096	-0.523377	-0.312444
H82	H	1.202938	-0.580136	-0.318034
H83	H	1.294016	-0.584133	-0.398398
C84	C	1.368657	-0.803842	-0.655141
C85	C	1.268492	-0.828940	-0.627687
C86	C	1.195296	-0.802376	-0.700271
H87	H	1.386046	-0.821420	-0.723112
H88	H	1.369550	-0.751213	-0.655015
H89	H	1.267601	-0.881559	-0.627823
H90	H	1.251070	-0.811364	-0.559728
H91	H	1.196189	-0.749746	-0.700145
H92	H	1.212695	-0.819956	-0.768237
H93	H	1.127325	-0.819395	-0.681648
H94	H	1.740507	-0.275915	-0.917823
C95	C	1.722068	-0.803387	-0.560934
C96	C	1.720798	-0.725832	-0.559566
C97	C	1.820217	-0.698913	-0.586277
H98	H	1.740279	-0.820146	-0.629104
H99	H	1.772162	-0.820968	-0.511793
H100	H	1.670721	-0.708259	-0.608705
H101	H	1.702607	-0.709054	-0.491405
H102	H	1.870311	-0.716494	-0.537136
H103	H	1.838419	-0.715677	-0.654447
H104	H	1.819371	-0.646290	-0.585343
H105	H	1.565611	-0.903639	-0.683126
C106	C	1.378246	-0.456745	-1.120925
C107	C	1.401037	-0.530231	-1.094194
C108	C	1.333876	-0.577847	-1.148885
H109	H	1.387823	-0.450030	-1.194148
H110	H	1.307643	-0.445918	-1.102917
H111	H	1.471623	-0.541053	-1.112209
H112	H	1.391454	-0.536969	-1.020980
H113	H	1.263272	-0.567021	-1.130877
H114	H	1.343458	-0.571126	-1.222105
H115	H	1.349324	-0.627712	-1.130748
H116	H	1.396376	-0.443777	-0.907119
H117	H	1.634172	-0.200621	-1.095629
C118	C	1.771660	-0.275908	-1.101455
C119	C	1.764801	-0.340214	-1.162386
C120	C	1.864623	-0.359239	-1.199148
H121	H	1.816941	-0.284545	-1.043653
H122	H	1.798738	-0.236556	-1.142883
H123	H	1.737737	-0.379557	-1.120960
H124	H	1.719539	-0.331594	-1.220204
H125	H	1.891701	-0.319886	-1.240576
H126	H	1.909896	-0.367872	-1.141340
H127	H	1.859981	-0.402868	-1.240502
C128	C	0.904086	-0.456674	-0.365893
C129	C	0.796264	-0.446551	-0.380323
C130	C	0.741145	-0.493975	-0.313143
H131	H	0.921918	-0.445791	-0.295285
H132	H	0.921995	-0.506598	-0.381157
H133	H	0.778362	-0.396638	-0.365052
H134	H	0.778401	-0.457440	-0.450918
H135	H	0.759053	-0.543899	-0.328407
H136	H	0.758985	-0.483088	-0.242539
H137	H	0.667982	-0.487118	-0.322931
C138	C	1.314531	-0.911306	-0.451358
C139	C	1.316280	-0.988862	-0.450808
C140	C	1.216869	-1.015758	-0.424019
H141	H	1.264610	-0.894504	-0.501194
H142	H	1.295837	-0.893753	-0.383706
H143	H	1.334960	-1.006408	-0.518449
H144	H	1.366180	-1.005684	-0.400970
H145	H	1.198176	-0.998205	-0.356368
H146	H	1.166956	-0.998950	-0.473859
H147	H	1.218045	-1.068381	-0.423633
H148	H	1.470848	-0.811169	-0.329154
C149	C	1.113423	-0.178832	-0.622086
C150	C	1.076699	-0.160015	-0.522173
C151	C	1.113236	-0.089379	-0.495324
H152	H	1.088668	-0.143712	-0.671701
H153	H	1.187882	-0.178806	-0.622016
H154	H	1.002255	-0.160035	-0.522251
H155	H	1.101451	-0.195116	-0.472537
H156	H	1.187695	-0.089352	-0.495254
H157	H	1.088479	-0.054264	-0.544945
H158	H	1.088332	-0.076605	-0.427528
C159	C	1.667618	-0.910668	-0.356670
C160	C	1.640312	-0.885583	-0.256503
C161	C	1.713111	-0.911981	-0.183400
H162	H	1.735511	-0.892967	-0.374238
H163	H	1.667616	-0.963298	-0.357447
H164	H	1.640326	-0.832964	-0.255729
H165	H	1.572432	-0.903282	-0.238901
H166	H	1.713109	-0.964611	-0.184177
H167	H	1.780999	-0.894279	-0.200978
H168	H	1.694589	-0.894971	-0.115427
