data_functionalizedCrystal
_audit_creation_method	'MofGen! by Chris Wilmer'
_symmetry_space_group_name_H-M	'P1'
_symmetry_Int_Tables_number	1
_symmetry_cell_setting	triclinic
loop_
_symmetry_equiv_pos_as_xyz
  x,y,z
_cell_length_a	21.295417
_cell_length_b	12.759401
_cell_length_c	12.759393
_cell_angle_alpha	89.979880
_cell_angle_beta	90.039170
_cell_angle_gamma	89.973523
loop_
_atom_site_label
_atom_site_type_symbol
_atom_site_fract_x
_atom_site_fract_y
_atom_site_fract_z
Zn1	Zn	-0.250640	-1.606140	0.593971
Zn2	Zn	-0.355924	-1.605986	0.418268
Zn3	Zn	-0.250665	-1.430442	0.418306
Zn4	Zn	-0.355868	-1.430382	0.593905
O5	O	-0.303274	-1.518237	0.506112
O6	O	-0.264619	-1.753141	0.570676
O7	O	-0.341995	-1.582660	0.271252
O8	O	-0.162572	-1.453838	0.441652
O9	O	-0.341971	-1.753027	0.441588
O10	O	-0.162554	-1.582923	0.570712
O11	O	-0.264662	-1.453689	0.271280
O12	O	-0.264607	-1.283413	0.441587
O13	O	-0.341875	-1.453736	0.740935
O14	O	-0.341899	-1.283369	0.570599
O15	O	-0.264564	-1.582865	0.740984
O16	O	-0.444006	-1.582602	0.441523
O17	O	-0.443965	-1.453587	0.570562
C18	C	-0.303251	-1.245270	0.506090
C19	C	-0.303256	-1.128493	0.506106
C20	C	-0.263053	-1.073683	0.573425
C21	C	-0.263061	-0.963959	0.573428
C22	C	-0.343481	-0.963865	0.438791
C23	C	-0.343469	-1.073587	0.438783
C24	C	-0.216625	-1.073737	0.651160
C25	C	-0.216634	-0.964013	0.651164
C26	C	-0.466826	-1.518100	0.506054
C27	C	-0.536794	-1.518137	0.506064
C28	C	-0.569661	-1.585375	0.438942
C29	C	-0.635404	-1.585424	0.438966
C30	C	-0.668276	-1.518217	0.506101
C31	C	-0.635401	-1.450974	0.573236
C32	C	-0.569660	-1.450934	0.573218
N33	N	-0.771538	-1.426309	0.514103
N34	N	-0.833989	-1.426350	0.514114
C35	C	-0.866351	-1.518334	0.506161
N36	N	-0.833902	-1.610278	0.498176
N37	N	-0.771445	-1.610236	0.498159
C38	C	-0.739562	-1.518253	0.506128
C39	C	-0.970504	-1.585631	0.439061
C40	C	-1.036247	-1.585682	0.439092
C41	C	-1.036244	-1.451223	0.573356
C42	C	-0.970501	-1.451181	0.573331
C43	C	-0.937635	-1.518384	0.506177
C44	C	-0.139084	-1.518404	0.506194
C45	C	-0.069116	-1.518475	0.506228
C46	C	-0.303211	-1.518311	0.780146
C47	C	-0.303183	-1.518342	0.896923
C48	C	-0.303290	-0.792271	0.506128
C49	C	-0.303276	-0.909047	0.506118
C50	C	-0.303292	-1.518225	0.233145
C51	C	-0.303142	-1.518397	0.116369
C52	C	-0.262924	-1.585589	0.951812
C53	C	-0.262901	-1.585614	1.061536
C54	C	-0.343403	-1.451143	1.061472
C55	C	-0.343422	-1.451113	0.951750
C56	C	-0.216449	-1.663228	0.951850
C57	C	-0.216426	-1.663253	1.061574
H58	H	-0.167852	-1.103526	0.629518
C59	C	-0.671568	-1.659385	0.365130
H60	H	-0.715428	-1.649787	0.374765
H61	H	-0.660839	-1.644039	0.294523
H62	H	-0.660753	-1.729967	0.380568
C63	C	-0.240066	-1.767595	0.905854
H64	H	-0.239282	-1.764011	0.831494
H65	H	-0.213674	-1.823072	0.928860
H66	H	-0.281825	-1.780074	0.928820
H67	H	-0.170104	-1.634161	1.095631
H68	H	-0.234141	-1.107794	0.728395
C69	C	-1.072393	-1.377297	0.647208
H70	H	-1.043399	-1.337248	0.687185
H71	H	-1.098084	-1.331558	0.606989
H72	H	-1.097992	-1.417487	0.693033
H73	H	-0.943739	-1.396425	0.627983
C74	C	-0.671558	-1.377046	0.647079
H75	H	-0.715419	-1.386691	0.637470
H76	H	-0.660743	-1.392376	0.717681
H77	H	-0.660825	-1.306454	0.631631
H78	H	-0.376203	-1.396351	0.907063
C79	C	-0.150596	-1.633846	0.911652
H80	H	-0.150611	-1.633838	0.837194
H81	H	-0.139693	-1.566065	0.936463
H82	H	-0.120858	-1.683527	0.936488
C83	C	-0.154046	-0.918046	0.612001
H84	H	-0.126166	-0.973502	0.594564
H85	H	-0.161484	-0.876113	0.551722
H86	H	-0.135870	-0.876174	0.665570
C87	C	-1.072405	-1.659634	0.365243
H88	H	-1.116265	-1.650039	0.374875
H89	H	-1.061672	-1.644271	0.294641
H90	H	-1.061590	-1.730218	0.380667
C91	C	-0.533504	-1.376963	0.647049
H92	H	-0.562495	-1.336939	0.687034
H93	H	-0.507812	-1.417110	0.692851
H94	H	-0.507906	-1.331187	0.606802
H95	H	-0.229751	-0.934262	0.732496
C96	C	-0.533512	-1.659306	0.365089
H97	H	-0.562506	-1.699366	0.325124
H98	H	-0.507906	-1.619132	0.319269
H99	H	-0.507827	-1.705052	0.405322
C100	C	-0.387666	-1.377206	1.121785
H101	H	-0.381892	-1.386857	1.194993
H102	H	-0.378453	-1.306620	1.103802
H103	H	-0.429968	-1.392543	1.103778
H104	H	-0.229487	-1.744618	1.091352
C105	C	-0.387686	-1.133875	0.364724
H106	H	-0.411639	-1.085458	0.324639
H107	H	-0.363566	-1.176669	0.319024
H108	H	-0.415143	-1.176681	0.404824
C109	C	-0.387716	-0.903465	0.364750
H110	H	-0.381969	-0.830268	0.374399
H111	H	-0.378454	-0.921423	0.294187
H112	H	-0.430022	-0.921432	0.380003
H113	H	-0.943743	-1.640355	0.384384
