data_functionalizedCrystal
_audit_creation_method	'MofGen! by Chris Wilmer'
_symmetry_space_group_name_H-M	'P1'
_symmetry_Int_Tables_number	1
_symmetry_cell_setting	triclinic
loop_
_symmetry_equiv_pos_as_xyz
  x,y,z
_cell_length_a	14.971506
_cell_length_b	14.971496
_cell_length_c	13.448316
_cell_angle_alpha	90.012677
_cell_angle_beta	89.999097
_cell_angle_gamma	83.620256
loop_
_atom_site_label
_atom_site_type_symbol
_atom_site_fract_x
_atom_site_fract_y
_atom_site_fract_z
O1	O	1.186929	0.116658	0.082701
O2	O	0.926532	0.130598	0.082702
O3	O	1.063705	-0.006571	0.082692
O4	O	1.049756	0.253827	0.082710
O5	O	1.063710	-0.006595	-0.082691
O6	O	0.926537	0.130574	-0.082682
O7	O	1.186934	0.116634	-0.082683
Cu8	Cu	1.056736	0.123602	-0.097783
Cu9	Cu	1.056730	0.123630	0.097802
O10	O	1.049761	0.253803	-0.082674
C11	C	0.893210	0.129959	0.000010
C12	C	0.793914	0.128081	0.000010
C13	C	1.063082	-0.039908	0.000000
C14	C	1.061208	-0.139204	-0.000000
C15	C	0.355634	0.201499	0.000025
C16	C	0.448934	0.203257	0.000029
C17	C	0.506151	0.122665	0.000019
C18	C	0.470064	0.040310	0.000015
C19	C	0.376765	0.038553	0.000018
C20	C	0.664527	0.043977	0.000007
C21	C	0.757832	0.045733	0.000003
C22	C	0.736696	0.208680	0.000019
C23	C	0.643397	0.206923	0.000021
C24	C	0.607316	0.124568	0.000015
C25	C	1.053138	-0.566896	0.090177
C26	C	1.054903	-0.473596	0.090172
C27	C	1.055783	-0.426966	0.000018
C28	C	1.054906	-0.473641	-0.090138
C29	C	1.053147	-0.566939	-0.090133
C30	C	1.058571	-0.279177	-0.090143
C31	C	1.060329	-0.185872	-0.090149
C32	C	1.060328	-0.185834	0.090162
C33	C	1.058568	-0.279133	0.090167
C34	C	1.057690	-0.325801	0.000011
C35	C	1.220256	0.117273	0.000011
C36	C	1.319552	0.119151	0.000018
C37	C	1.050384	0.287140	0.000021
C38	C	1.052258	0.386436	0.000028
N39	N	1.056726	0.123644	0.235366
N40	N	1.056747	0.123581	-0.235348
C41	C	1.002539	0.069182	0.287395
C42	C	1.002546	0.069165	0.391498
C43	C	1.056737	0.123615	0.443571
C44	C	1.110931	0.178080	0.391535
C45	C	1.110927	0.178091	0.287434
C46	C	1.110932	0.178053	0.608515
C47	C	1.110934	0.178043	0.712624
C48	C	1.002551	0.069127	0.712580
C49	C	1.002548	0.069138	0.608478
C50	C	1.056740	0.123604	0.556450
H51	H	0.309053	0.267127	0.000025
H52	H	0.958406	0.024847	0.245005
F53	F	0.530961	-0.045463	0.000008
H54	H	0.635154	-0.023086	0.000007
F55	F	0.582504	0.292698	0.000026
H56	H	1.061036	-0.147832	0.163570
H57	H	0.766077	0.275737	0.000023
F58	F	0.944874	0.011160	0.767953
F59	F	1.061282	-0.136249	-0.186101
H60	H	1.155053	0.222439	0.245073
H61	H	0.958424	0.024814	0.433855
F62	F	1.057641	-0.328844	-0.186099
F63	F	0.487330	0.290903	0.000042
F64	F	0.818725	-0.040042	-0.000002
F65	F	1.168637	0.235968	0.768042
F66	F	1.168614	0.236018	0.553145
H67	H	0.347390	-0.028503	0.000014
F68	F	1.168609	0.236026	0.446958
H69	H	1.052413	-0.604854	0.163591
F70	F	1.055848	-0.424012	-0.186088
H71	H	1.055621	-0.435604	0.163581
H72	H	1.052430	-0.604935	-0.163542
F73	F	0.944865	0.011193	0.553061
F74	F	1.057626	-0.328758	0.186120
