data_functionalizedCrystal
_audit_creation_method	'MofGen! by Chris Wilmer'
_symmetry_space_group_name_H-M	'P1'
_symmetry_Int_Tables_number	1
_symmetry_cell_setting	triclinic
loop_
_symmetry_equiv_pos_as_xyz
  x,y,z
_cell_length_a	19.077105
_cell_length_b	21.295417
_cell_length_c	19.077271
_cell_angle_alpha	87.717260
_cell_angle_beta	89.912562
_cell_angle_gamma	87.725910
loop_
_atom_site_label
_atom_site_type_symbol
_atom_site_fract_x
_atom_site_fract_y
_atom_site_fract_z
Zn1	Zn	1.058158	-0.304636	0.440390
Zn2	Zn	1.558158	0.195364	0.940390
Zn3	Zn	1.062810	-0.405822	0.322876
Zn4	Zn	1.562810	0.094178	0.822876
Zn5	Zn	0.945400	-0.296175	0.318185
Zn6	Zn	1.445400	0.203825	0.818185
Zn7	Zn	0.940611	-0.405468	0.435628
Zn8	Zn	1.440611	0.094532	0.935628
O9	O	1.001745	-0.353025	0.379270
O10	O	1.501745	0.146975	0.879270
O11	O	1.157106	-0.321747	0.428758
O12	O	1.657106	0.178253	0.928758
O13	O	1.051186	-0.387884	0.223924
O14	O	1.551186	0.112116	0.723924
O15	O	0.960415	-0.209211	0.334426
O16	O	1.460415	0.290789	0.834426
O17	O	1.160524	-0.396088	0.342421
O18	O	1.660524	0.103912	0.842421
O19	O	1.043258	-0.215427	0.424209
O20	O	1.543258	0.284573	0.924209
O21	O	0.964925	-0.307327	0.220477
O22	O	1.464925	0.192673	0.720477
O23	O	0.846434	-0.306984	0.329808
O24	O	1.346434	0.193016	0.829808
O25	O	0.952253	-0.395485	0.534590
O26	O	1.452253	0.104515	1.034590
O27	O	0.842915	-0.387281	0.416093
O28	O	1.342915	0.112719	0.916093
O29	O	1.038615	-0.321404	0.538089
O30	O	1.538615	0.178596	1.038089
O31	O	1.046543	-0.493861	0.337803
O32	O	1.546543	0.006139	0.837803
O33	O	0.956763	-0.493601	0.420641
O34	O	1.456763	0.006399	0.920641
C35	C	0.819179	-0.346177	0.371925
C36	C	1.319179	0.153823	0.871925
C37	C	0.741075	-0.343262	0.368799
C38	C	1.241075	0.156738	0.868799
C39	C	1.001657	-0.516572	0.379231
C40	C	1.501657	-0.016572	0.879231
C41	C	1.001682	-0.586541	0.379240
C42	C	1.501682	-0.086541	0.879240
C43	C	0.702572	-0.383758	0.412184
C44	C	1.202572	0.116242	0.912184
C45	C	0.629185	-0.381012	0.409251
C46	C	1.129185	0.118988	0.909251
C47	C	0.594304	-0.337773	0.362929
C48	C	1.094304	0.162227	0.862929
C49	C	0.632813	-0.297273	0.319542
C50	C	1.132813	0.202727	0.819542
C51	C	0.706198	-0.300016	0.322479
C52	C	1.206198	0.199984	0.822479
C53	C	0.375020	-0.325075	0.349337
C54	C	0.875020	0.174925	0.849337
C55	C	0.301630	-0.322335	0.346401
C56	C	0.801630	0.177665	0.846401
C57	C	0.298008	-0.406074	0.436111
C58	C	0.798008	0.093926	0.936111
C59	C	0.371394	-0.408816	0.439042
C60	C	0.871394	0.091184	0.939042
C61	C	0.409897	-0.368314	0.395658
C62	C	0.909897	0.131686	0.895658
N63	N	0.519291	-0.334966	0.359927
N64	N	1.019291	0.165034	0.859927
N65	N	0.484908	-0.371118	0.398663
N66	N	0.984908	0.128882	0.898663
C67	C	1.044792	-0.622588	0.426021
C68	C	1.544792	-0.122588	0.926021
C69	C	1.044816	-0.688332	0.426040
C70	C	1.544816	-0.188332	0.926040
C71	C	1.001738	-0.718027	0.379264
C72	C	1.501738	-0.218027	0.879264
C73	C	0.958620	-0.681972	0.332479
C74	C	1.458620	-0.181972	0.832479
C75	C	0.958592	-0.616230	0.332467
C76	C	1.458592	-0.116230	0.832467
N77	N	0.998916	-0.818955	0.317556
N78	N	1.498916	-0.318955	0.817556
N79	N	0.998947	-0.881408	0.317570
N80	N	1.498947	-0.381408	0.817570
C81	C	1.001819	-0.916106	0.379299
C82	C	1.501819	-0.416106	0.879299
N83	N	1.004674	-0.885992	0.441016
N84	N	1.504674	-0.385992	0.941016
N85	N	1.004647	-0.823533	0.441002
N86	N	1.504647	-0.323533	0.941002
C87	C	1.001764	-0.789313	0.379273
C88	C	1.501764	-0.289313	0.879273
C89	C	1.044957	-1.023439	0.426104
C90	C	1.544957	-0.523439	0.926104
C91	C	1.044976	-1.089185	0.426124
C92	C	1.544976	-0.589185	0.926124
C93	C	0.958784	-1.082824	0.332558
C94	C	1.458784	-0.582824	0.832558
C95	C	0.958761	-1.017080	0.332544
C96	C	1.458761	-0.517080	0.832544
C97	C	1.001851	-0.987392	0.379317
C98	C	1.501851	-0.487392	0.879317
C99	C	1.185024	-0.359901	0.386644
C100	C	1.685024	0.140099	0.886644
C101	C	1.263126	-0.362831	0.389786
C102	C	1.763126	0.137169	0.889786
C103	C	0.994381	-0.359349	0.562548
C104	C	1.494381	0.140651	1.062548
C105	C	0.991243	-0.362044	0.640650
C106	C	1.491243	0.137956	1.140650
C107	C	1.001852	-0.188841	0.379325
C108	C	1.501852	0.311159	0.879325
C109	C	1.001897	-0.118875	0.379349
C110	C	1.501897	0.381125	0.879349
C111	C	1.034730	-0.324741	0.679165
C112	C	1.534730	0.175259	1.179165
C113	C	1.031773	-0.327271	0.752550
C114	C	1.531773	0.172729	1.252550
C115	C	0.985331	-0.367106	0.787419
C116	C	1.485331	0.132894	1.287419
C117	C	0.941839	-0.404410	0.748898
C118	C	1.441839	0.095590	1.248898
C119	C	0.944793	-0.401877	0.675515
C120	C	1.444793	0.098123	1.175515
C121	C	0.971671	-0.378814	1.006697
C122	C	1.471671	0.121186	1.506697
C123	C	0.968722	-0.381346	1.080087
C124	C	1.468722	0.118654	1.580087
C125	C	1.058655	-0.304206	1.083734
C126	C	1.558655	0.195794	1.583734
C127	C	1.061608	-0.301679	1.010348
C128	C	1.561608	0.198321	1.510348
C129	C	1.018113	-0.338980	0.971834
C130	C	1.518113	0.161020	1.471834
N131	N	0.982309	-0.369694	0.862430
N132	N	1.482309	0.130306	1.362430
N133	N	1.021133	-0.336389	0.896824
N134	N	1.521133	0.163611	1.396824
C135	C	1.009074	-0.346740	1.196704
C136	C	1.509074	0.153260	1.696704
C137	C	1.012209	-0.344044	1.118602
C138	C	1.512209	0.155956	1.618602
H139	H	0.730967	-0.418970	0.449902
H140	H	1.230967	0.081030	0.949902
H141	H	0.904023	-0.436842	0.777294
H142	H	1.404023	0.063158	1.277294
H143	H	1.099427	-0.269243	0.981964
H144	H	1.599427	0.230757	1.481964
H145	H	0.273232	-0.287118	0.308684
H146	H	0.773232	0.212882	0.808684
F147	F	0.912936	-1.114423	0.282777
F148	F	1.412936	-0.614423	0.782777
F149	F	0.595687	-0.251250	0.270246
F150	F	1.095687	0.248750	0.770246
H151	H	0.923661	-0.987729	0.294448
H152	H	1.423661	-0.487729	0.794448
F153	F	1.090814	-0.991841	0.475885
F154	F	1.590814	-0.491841	0.975885
H155	H	1.072550	-0.292305	0.650781
H156	H	1.572550	0.207695	1.150781
H157	H	1.079876	-0.598418	0.464108
H158	H	1.579876	-0.098418	0.964108
F159	F	0.912706	-0.577865	0.282675
F160	F	1.412706	-0.077865	0.782675
H161	H	0.923545	-0.706154	0.294396
H162	H	1.423545	-0.206154	0.794396
H163	H	1.080081	-1.118533	0.464222
H164	H	1.580081	-0.618533	0.964222
H165	H	1.067186	-0.296897	0.783907
H166	H	1.567186	0.203103	1.283907
H167	H	1.094065	-0.273837	1.115100
H168	H	1.594065	0.226163	1.615100
H169	H	0.930902	-0.413786	1.108474
H170	H	1.430902	0.086214	1.608474
H171	H	0.936265	-0.409197	0.975348
H172	H	1.436265	0.090803	1.475348
H173	H	0.406360	-0.292099	0.314005
H174	H	0.906360	0.207901	0.814005
H175	H	0.909374	-0.432246	0.644156
H176	H	1.409374	0.067754	1.144156
H177	H	0.597839	-0.413988	0.444579
H178	H	1.097839	0.086012	0.944579
H179	H	0.399790	-0.444028	0.476761
H180	H	0.899790	0.055972	0.976761
H181	H	0.737546	-0.267037	0.287154
H182	H	1.237546	0.232963	0.787154
H183	H	1.079915	-0.717686	0.464143
H184	H	1.579915	-0.217686	0.964143
F185	F	0.257026	-0.449177	0.482279
F186	F	0.757026	0.050823	0.982279
