data_functionalizedCrystal
_audit_creation_method	'MofGen! by Chris Wilmer'
_symmetry_space_group_name_H-M	'P1'
_symmetry_Int_Tables_number	1
_symmetry_cell_setting	triclinic
loop_
_symmetry_equiv_pos_as_xyz
  x,y,z
_cell_length_a	10.654550
_cell_length_b	9.730223
_cell_length_c	10.654550
_cell_angle_alpha	89.995747
_cell_angle_beta	84.484931
_cell_angle_gamma	89.999957
loop_
_atom_site_label
_atom_site_type_symbol
_atom_site_fract_x
_atom_site_fract_y
_atom_site_fract_z
O1	O	1.667839	-0.114187	0.176399
O2	O	1.302361	-0.114212	0.193205
O3	O	1.493503	-0.114190	0.002062
O4	O	1.476697	-0.114209	0.367541
O5	O	1.493490	0.114390	0.002057
O6	O	1.302348	0.114368	0.193199
O7	O	1.667827	0.114393	0.176393
Zn8	Zn	1.485085	0.150672	0.184796
Zn9	Zn	1.485102	-0.150492	0.184802
O10	O	1.476684	0.114371	0.367536
C11	C	1.255556	0.000075	0.191968
C12	C	1.116113	0.000065	0.188276
N13	N	1.485083	0.356209	0.184790
N14	N	1.485114	-0.356028	0.184798
C15	C	1.036628	0.000064	0.300818
C16	C	0.905607	0.000088	0.297341
C17	C	0.933570	0.000109	0.068772
C18	C	1.064588	0.000095	0.072250
C19	C	1.714631	0.000103	0.177630
C20	C	1.854074	0.000104	0.181322
C21	C	1.492263	0.000099	-0.044738
C22	C	1.488571	0.000096	-0.184181
C23	C	1.569750	0.428144	0.100188
C24	C	1.569763	0.572027	0.100189
C25	C	1.400438	0.572026	0.269404
C26	C	1.400420	0.428146	0.269396
C27	C	1.601112	0.000104	-0.263667
C28	C	1.597636	0.000087	-0.394688
C29	C	1.369066	0.000061	-0.366725
C30	C	1.372544	0.000068	-0.235706
C31	C	1.477925	0.000079	0.414336
C32	C	1.481617	0.000072	0.553779
H33	H	0.840894	0.000089	0.388984
O34	O	0.877999	0.000132	-0.056369
H35	H	0.773539	0.000129	-0.039883
H36	H	1.331468	0.369572	0.338290
O37	O	1.726250	0.000122	-0.208090
H38	H	1.733299	-0.093034	-0.149049
O39	O	1.719018	0.000112	-0.480424
H40	H	1.800277	0.000146	-0.422579
O41	O	1.150335	0.000100	-0.049139
H42	H	1.092498	0.000104	-0.130404
O43	O	1.661025	0.350544	0.008908
H44	H	1.722526	0.284967	0.062319
H45	H	1.638705	0.630593	0.031297
H46	H	1.274601	0.000041	-0.408693
O47	O	1.309138	0.649614	0.360670
H48	H	1.323383	0.761749	0.346475
O49	O	1.251150	0.000078	-0.149967
H50	H	1.195679	-0.093086	-0.168404
O51	O	1.092208	0.000060	0.425953
H52	H	1.014920	0.000081	0.503625
