data_functionalizedCrystal
_audit_creation_method	'MofGen! by Chris Wilmer'
_symmetry_space_group_name_H-M	'P1'
_symmetry_Int_Tables_number	1
_symmetry_cell_setting	triclinic
loop_
_symmetry_equiv_pos_as_xyz
  x,y,z
_cell_length_a	11.792241
_cell_length_b	11.792254
_cell_length_c	10.268362
_cell_angle_alpha	89.994545
_cell_angle_beta	89.999626
_cell_angle_gamma	84.196007
loop_
_atom_site_label
_atom_site_type_symbol
_atom_site_fract_x
_atom_site_fract_y
_atom_site_fract_z
O1	O	1.506916	0.155568	-0.108174
O2	O	1.840249	0.488901	0.225159
O3	O	2.173583	0.822234	0.558492
O4	O	1.176576	0.171601	-0.108205
O5	O	1.509909	0.504934	0.225129
O6	O	1.843242	0.838267	0.558462
O7	O	1.349755	-0.001585	-0.108180
O8	O	1.683088	0.331748	0.225154
O9	O	2.016421	0.665081	0.558487
O10	O	1.333737	0.328754	-0.108200
O11	O	1.667070	0.662087	0.225134
O12	O	2.000403	0.995420	0.558467
O13	O	1.349739	-0.001593	0.108421
O14	O	1.683073	0.331741	0.441754
O15	O	2.016406	0.665074	0.775088
O16	O	1.176560	0.171593	0.108396
O17	O	1.509894	0.504927	0.441729
O18	O	1.843227	0.838260	0.775063
O19	O	1.506901	0.155561	0.108426
O20	O	1.840234	0.488894	0.441760
O21	O	2.173567	0.822227	0.775093
Cu22	Cu	1.341729	0.163576	0.128188
Cu23	Cu	1.675062	0.496910	0.461522
Cu24	Cu	2.008396	0.830243	0.794855
Cu25	Cu	1.341747	0.163585	-0.127967
Cu26	Cu	1.675080	0.496918	0.205366
Cu27	Cu	2.008414	0.830252	0.538700
O28	O	1.333722	0.328747	0.108401
O29	O	1.667055	0.662080	0.441734
O30	O	2.000388	0.995413	0.775068
C31	C	1.348738	-0.043880	0.000120
C32	C	1.682071	0.289454	0.333454
C33	C	2.015405	0.622787	0.666787
C34	C	1.345718	-0.169893	0.000119
C35	C	1.679051	0.163441	0.333452
C36	C	2.012385	0.496774	0.666785
C37	C	1.134277	0.170590	0.000092
C38	C	1.467610	0.503923	0.333425
C39	C	1.800944	0.837257	0.666758
C40	C	1.008263	0.167576	0.000080
C41	C	1.341596	0.500909	0.333414
C42	C	1.674930	0.834242	0.666747
C43	C	1.343264	-0.272229	0.000114
C44	C	1.676597	0.061104	0.333447
C45	C	2.009931	0.394437	0.666780
C46	C	1.340196	-0.400616	0.000102
C47	C	1.673529	-0.067283	0.333435
C48	C	2.006862	0.266051	0.666768
C49	C	0.777551	0.162033	0.000118
C50	C	1.110884	0.495366	0.333451
C51	C	1.444217	0.828699	0.666785
C52	C	0.905936	0.165112	0.000097
C53	C	1.239269	0.498446	0.333431
C54	C	1.572603	0.831779	0.666764
C55	C	1.549199	0.156571	0.000127
C56	C	1.882533	0.489905	0.333460
C57	C	2.215866	0.823238	0.666794
C58	C	1.675213	0.159586	0.000130
C59	C	2.008546	0.492919	0.333463
C60	C	2.341880	0.826252	0.666796
C61	C	1.334738	0.371041	0.000098
C62	C	1.668071	0.704374	0.333432
C63	C	2.001405	1.037708	0.666765
C64	C	1.337758	0.497054	0.000091
C65	C	1.671092	0.830387	0.333425
C66	C	2.004425	1.163721	0.666758
N67	N	1.341725	0.163570	0.308354
N68	N	1.675058	0.496903	0.641688
N69	N	2.008391	0.830236	0.975021
N70	N	1.341760	0.163583	-0.308133
N71	N	1.675094	0.496916	0.025201
N72	N	2.008427	0.830249	0.358534
C73	C	1.341741	0.163583	0.574025
C74	C	1.675075	0.496916	0.907358
C75	C	2.008408	0.830249	1.240692
C76	C	1.341728	0.163579	0.426187
C77	C	1.675062	0.496912	0.759520
C78	C	2.008395	0.830245	1.092854
