data_functionalizedCrystal
_audit_creation_method	'MofGen! by Chris Wilmer'
_symmetry_space_group_name_H-M	'P1'
_symmetry_Int_Tables_number	1
_symmetry_cell_setting	triclinic
loop_
_symmetry_equiv_pos_as_xyz
  x,y,z
_cell_length_a	10.723024
_cell_length_b	14.971486
_cell_length_c	14.048226
_cell_angle_alpha	89.993360
_cell_angle_beta	89.993860
_cell_angle_gamma	84.040999
loop_
_atom_site_label
_atom_site_type_symbol
_atom_site_fract_x
_atom_site_fract_y
_atom_site_fract_z
O1	O	-1.655881	-0.125456	0.079155
O2	O	-1.292603	-0.137464	0.079158
O3	O	-1.483979	-0.001312	0.079150
O4	O	-1.464505	-0.261608	0.079164
O5	O	-1.483955	-0.001304	-0.079172
O6	O	-1.292580	-0.137456	-0.079163
O7	O	-1.655858	-0.125447	-0.079166
Zn8	Zn	-1.474215	-0.131450	-0.104302
Zn9	Zn	-1.474245	-0.131461	0.104294
O10	O	-1.464482	-0.261599	-0.079158
C11	C	-1.246101	-0.136586	-0.000002
C12	C	-1.107574	-0.133971	-0.000001
C13	C	-1.483096	0.032022	-0.000011
C14	C	-1.480486	0.131333	-0.000010
C15	C	-1.702360	-0.126325	-0.000004
C16	C	-1.840887	-0.128940	0.000001
C17	C	-1.031795	-0.210155	0.000004
C18	C	-0.888620	-0.207454	0.000005
C19	C	-1.465364	-0.294933	0.000005
C20	C	-1.467974	-0.394244	0.000010
N21	N	-1.474203	-0.131442	-0.246662
C22	C	-1.592914	0.187954	-0.000011
C23	C	-1.590455	0.281267	-0.000002
C24	C	-1.475566	0.317956	0.000003
C25	C	-1.363129	0.261327	0.000007
C26	C	-1.365590	0.168016	0.000004
C27	C	-1.358008	0.455817	0.000011
C28	C	-1.355546	0.549134	0.000012
C29	C	-1.582872	0.569068	0.000004
C30	C	-1.585333	0.475757	0.000002
C31	C	-1.472896	0.419134	0.000004
C32	C	-1.558971	-0.071180	-0.296484
C33	C	-1.558980	-0.071179	-0.396142
C34	C	-1.474225	-0.131446	-0.445976
C35	C	-1.389448	-0.191712	-0.396147
C36	C	-1.389435	-0.191708	-0.296491
C37	C	-1.389484	-0.191719	-0.603861
C38	C	-1.389499	-0.191725	-0.703524
C39	C	-1.559029	-0.071190	-0.703512
C40	C	-1.559016	-0.071186	-0.603856
C41	C	-1.474240	-0.131453	-0.554034
N42	N	-1.474267	-0.131462	0.246654
H43	H	-0.823506	-0.272673	0.000013
O44	O	-1.298063	-0.256706	-0.757280
H45	H	-1.239091	-0.298599	-0.705896
H46	H	-1.674423	0.615175	0.000005
H47	H	-1.678886	0.445888	-0.000009
O48	O	-0.927120	-0.042540	-0.000014
H49	H	-0.987143	-0.039822	0.064509
O50	O	-1.053122	-0.044921	-0.000015
H51	H	-1.085126	-0.006335	0.064506
H52	H	-1.274039	0.121915	0.000006
H53	H	-1.628003	-0.022108	-0.436706
O54	O	-1.650429	-0.006184	-0.550106
H55	H	-1.597829	0.037628	-0.504715
O56	O	-1.716831	0.148383	-0.000007
H57	H	-1.794595	0.203436	0.000006
H58	H	-1.320447	-0.240792	-0.563300
O59	O	-1.086243	-0.299207	0.000008
H60	H	-1.190154	-0.287353	0.000012
O61	O	-1.711715	0.342341	-0.000019
H62	H	-1.792017	0.301152	-0.000040
H63	H	-1.261993	0.579003	0.000000
H64	H	-1.266449	0.409717	0.000015
O65	O	-1.650377	-0.006158	-0.242750
H66	H	-1.597767	0.037655	-0.197369
H67	H	-1.269584	0.291207	0.000017
H68	H	-1.320434	-0.240780	-0.436728
H69	H	-1.320407	-0.240778	-0.255927
O70	O	-1.650461	-0.006179	-0.757239
H71	H	-1.636224	-0.016295	-0.834908
