data_functionalizedCrystal
_audit_creation_method	'MofGen! by Chris Wilmer'
_symmetry_space_group_name_H-M	'P1'
_symmetry_Int_Tables_number	1
_symmetry_cell_setting	triclinic
loop_
_symmetry_equiv_pos_as_xyz
  x,y,z
_cell_length_a	6.817900
_cell_length_b	16.418049
_cell_length_c	9.514088
_cell_angle_alpha	91.371721
_cell_angle_beta	118.843545
_cell_angle_gamma	103.389670
loop_
_atom_site_label
_atom_site_type_symbol
_atom_site_fract_x
_atom_site_fract_y
_atom_site_fract_z
V1	V	-4.217234	-0.117373	-0.501316
O2	O	-4.201371	0.004112	-0.491191
O3	O	-4.167208	-0.231261	-0.498447
O4	O	-4.252014	-0.116238	-0.719702
O5	O	-4.115978	-0.111707	-0.268404
V6	V	-4.690294	-0.102762	-0.473390
O7	O	-4.501443	-0.149421	-0.562574
O8	O	-4.856282	-0.070714	-0.412132
O9	O	-4.517113	0.011126	-0.476259
O10	O	-4.823554	-0.224247	-0.483515
O11	O	-4.908947	-0.108428	-0.706301
O12	O	-4.432307	-0.103897	-0.255004
C13	C	-4.009122	-0.259003	-0.490683
C14	C	-4.050061	-0.352112	-0.489793
C15	C	-4.329385	-0.570620	-0.495809
C16	C	-4.367846	-0.658106	-0.494987
C17	C	-3.997504	-0.649515	-0.478907
C18	C	-3.959054	-0.562030	-0.479741
C19	C	-4.124996	-0.522585	-0.488184
C20	C	-4.201907	-0.697556	-0.486528
C21	C	-4.243607	-0.792413	-0.485636
C22	C	-4.083297	-0.427722	-0.489078
C23	C	-4.117298	-0.112279	-0.772913
C24	C	-4.227008	-0.112104	-0.951448
C25	C	-4.338539	0.038864	-0.484018
C26	C	-4.276842	0.131972	-0.484919
C27	C	-4.230361	-0.107859	-0.201784
C28	C	-4.099890	-0.108029	-0.023247
H29	H	-3.792612	-0.522919	-0.473537
Br30	Br	-3.778608	-0.102451	-0.898062
H31	H	-4.419785	-0.115462	-1.026572
H32	H	-4.534279	-0.697213	-0.501199
H33	H	-3.862403	-0.681642	-0.472029
Br34	Br	-4.554599	-0.517089	-0.507279
