data_functionalizedCrystal
_audit_creation_method	'MofGen! by Chris Wilmer'
_symmetry_space_group_name_H-M	'P1'
_symmetry_Int_Tables_number	1
_symmetry_cell_setting	triclinic
loop_
_symmetry_equiv_pos_as_xyz
  x,y,z
_cell_length_a	18.426585
_cell_length_b	14.560438
_cell_length_c	14.560438
_cell_angle_alpha	60.000905
_cell_angle_beta	90.000730
_cell_angle_gamma	60.001046
loop_
_atom_site_label
_atom_site_type_symbol
_atom_site_fract_x
_atom_site_fract_y
_atom_site_fract_z
Zr1	Zr	0.699110	1.005314	-0.120530
O2	O	0.583231	1.196911	-0.267171
O3	O	0.734633	0.813715	-0.075579
O4	O	0.734629	1.005319	-0.267179
O5	O	0.583237	1.005305	0.075571
O6	O	0.854055	1.005325	-0.267183
O7	O	0.583234	1.005307	-0.075570
O8	O	0.854061	0.662581	0.075555
O9	O	0.583231	1.348049	-0.267168
O10	O	0.838909	0.892528	-0.056408
O11	O	0.749785	0.892521	0.056390
O12	O	0.749781	1.118110	-0.169195
O13	O	0.660657	1.118104	-0.056398
Zr14	Zr	0.889585	1.005320	0.120516
Zr15	Zr	0.889580	1.005324	-0.120536
Zr16	Zr	0.699115	1.005310	0.120522
Zr17	Zr	0.699110	1.246362	-0.120525
Zr18	Zr	0.889585	0.764273	0.120512
O19	O	0.854062	1.196920	0.075565
O20	O	0.854055	1.196926	-0.267180
O21	O	0.583238	1.196905	0.075574
O22	O	1.005464	0.813723	0.267158
O23	O	1.005457	0.813729	-0.075587
O24	O	0.734640	0.813709	0.267166
O25	O	1.005458	1.005330	-0.075584
O26	O	0.854066	1.005316	0.267166
O27	O	0.734640	1.005310	0.267170
O28	O	1.005461	1.005327	0.075557
O29	O	0.734630	1.348057	-0.267173
O30	O	0.854065	0.662577	0.267160
O31	O	1.005464	0.662586	0.267155
O32	O	1.005460	0.662589	0.075550
O33	O	0.583235	1.348046	-0.075564
O34	O	0.734634	1.348054	-0.075569
O35	O	0.838914	0.892524	0.169182
O36	O	0.928038	0.892531	0.056384
O37	O	0.838910	1.118113	-0.056403
O38	O	0.749786	1.118107	0.056394
C39	C	0.794347	0.703804	-0.000012
C40	C	0.794347	0.601473	-0.000014
C41	C	0.840867	0.553400	-0.058894
C42	C	0.840870	0.457241	-0.058883
C43	C	0.747827	0.457239	0.058888
C44	C	0.747829	0.553390	0.058883
C45	C	0.556098	1.005305	0.000001
C46	C	0.475238	1.005300	0.000004
C47	C	0.179123	1.005339	-0.000016
C48	C	0.261509	1.005334	-0.000014
C49	C	0.327178	1.005320	-0.000007
C50	C	0.409570	1.005314	-0.000003
C51	C	1.032597	1.005330	-0.000014
C52	C	1.113457	1.005334	-0.000017
C53	C	0.794341	1.005322	-0.301526
C54	C	0.794339	1.005324	-0.403859
C55	C	0.794348	1.306831	-0.000001
C56	C	0.794348	1.409162	0.000001
C57	C	0.747816	1.123074	-0.510809
C58	C	0.747827	1.123067	-0.606958
C59	C	0.840884	0.887552	-0.489193
C60	C	0.840879	0.887559	-0.393046
C61	C	0.794354	1.005312	0.301513
C62	C	0.794356	1.005311	0.403846
C63	C	1.032597	0.703816	-0.000020
C64	C	1.113456	0.601490	-0.000025
C65	C	0.794353	0.703798	0.301507
C66	C	0.794355	0.601466	0.403838
C67	C	1.032603	0.703811	0.301499
C68	C	1.113464	0.601483	0.403828
C69	C	0.556092	1.306823	-0.301513
C70	C	0.475231	1.409152	-0.403841
C71	C	0.556098	1.306818	0.000007
C72	C	0.475239	1.409145	0.000011
C73	C	0.794342	1.306836	-0.301520
C74	C	0.794340	1.409169	-0.403852
C75	C	1.104905	0.553434	-0.058913
C76	C	1.180873	0.457301	-0.058940
C77	C	1.265393	0.409218	-0.000071
C78	C	1.273943	0.457283	0.058819
C79	C	1.197975	0.553421	0.058839
C80	C	1.197967	0.553432	0.393003
C81	C	1.273953	0.457297	0.489142
C82	C	1.265433	0.409208	0.596105
C83	C	1.180921	0.457268	0.606928
C84	C	1.104937	0.553408	0.510790
C85	C	0.390728	1.457215	-0.393017
C86	C	0.314742	1.553379	-0.489156
C87	C	0.323262	1.601473	-0.596119
C88	C	0.407774	1.553407	-0.606941
C89	C	0.483758	1.457250	-0.510803
C90	C	0.483790	1.457210	0.058890
C91	C	0.407822	1.553370	0.058890
C92	C	0.323302	1.601457	0.000017
C93	C	0.314752	1.553388	-0.058868
C94	C	0.390720	1.457236	-0.058874
C95	C	0.840879	0.553389	0.510790
C96	C	0.840871	0.457246	0.606937
C97	C	0.747813	0.457260	0.489167
C98	C	0.747817	0.553408	0.393022
H99	H	0.709946	0.592529	0.106835
C100	C	1.297615	0.543698	0.175259
C101	C	1.207385	0.606221	0.123591
H102	H	1.303427	0.576287	0.215241
H103	H	1.325301	0.559481	0.119536
H104	H	1.325307	0.452923	0.226055
H105	H	1.179694	0.696996	0.072788
H106	H	1.179687	0.590449	0.179320
H107	H	1.173997	0.418100	0.694030
C108	C	1.020632	0.543676	0.636890
C109	C	1.012052	0.606204	0.522700
H110	H	0.963288	0.576262	0.644246
H111	H	1.052193	0.559457	0.671929
H112	H	1.052222	0.452902	0.671932
H113	H	0.980467	0.696978	0.487660
H114	H	0.980477	0.590433	0.487647
C115	C	1.424928	0.271501	0.669672
C116	C	1.348962	0.303518	0.701776
H117	H	1.476496	0.206244	0.734907
H118	H	1.424912	0.346521	0.626185
H119	H	1.424902	0.240001	0.626166
H120	H	1.348985	0.335027	0.745275
H121	H	1.348978	0.228483	0.745281
C122	C	1.122816	0.700817	0.193321
C123	C	1.207347	0.606283	0.275436
H124	H	1.128615	0.733436	0.120744
H125	H	1.091251	0.769830	0.201760
H126	H	1.091261	0.663286	0.201762
H127	H	1.238900	0.643816	0.267000
H128	H	1.238926	0.537258	0.266994
C129	C	0.631788	0.740064	0.216580
C130	C	0.696673	0.606260	0.275449
H131	H	0.600212	0.772691	0.144000
H132	H	0.659502	0.782439	0.209262
H133	H	0.591636	0.755804	0.256547
H134	H	0.736830	0.590522	0.235486
H135	H	0.668958	0.563873	0.282761
C136	C	0.882211	0.700766	0.415702
C137	C	0.892026	0.606224	0.522674
H138	H	0.913792	0.733376	0.423045
H139	H	0.821011	0.769783	0.375761
H140	H	0.905189	0.663245	0.375759
H141	H	0.869043	0.643748	0.562614
H142	H	0.953239	0.537195	0.562632
H143	H	0.878754	0.418108	0.694018
C144	C	0.230366	1.543753	-0.175252
C145	C	0.221843	1.606240	-0.123566
H146	H	0.173006	1.576385	-0.215193
H147	H	0.261935	1.452989	-0.119544
H148	H	0.261925	1.559527	-0.226089
H149	H	0.190290	1.590458	-0.072723
H150	H	0.190260	1.697025	-0.179281
H151	H	0.709924	0.418118	0.480375
H152	H	1.173895	0.418178	-0.106895
H153	H	1.342759	0.418176	0.480311
H154	H	1.036091	0.592583	-0.106865
H155	H	0.261451	1.679750	0.000032
H156	H	0.878746	0.592545	-0.106849
H157	H	0.709953	0.418079	0.106838
H158	H	0.709921	1.218965	-0.519620
C159	C	0.463765	1.504397	0.237805
C160	C	0.417235	1.606179	0.123636
H161	H	0.469573	1.536998	0.277778
H162	H	0.521092	1.440262	0.246214
H163	H	0.432174	1.466917	0.266857
H164	H	0.448829	1.643652	0.094583
H165	H	0.359898	1.670336	0.115222
C166	C	0.422145	1.270589	-0.048650
C167	C	0.381311	1.404391	-0.123582
H168	H	0.416335	1.237970	-0.088603
H169	H	0.394443	1.254854	0.007060
H170	H	0.483355	1.228200	-0.013605
H171	H	0.320100	1.446781	-0.158622
H172	H	0.409010	1.420137	-0.179313
C173	C	0.230432	1.543644	-0.363052
C174	C	0.221854	1.606188	-0.477241
H175	H	0.173087	1.576239	-0.355698
H176	H	0.262003	1.559401	-0.327998
H177	H	0.262011	1.452873	-0.328025
H178	H	0.190280	1.696958	-0.512267
H179	H	0.190269	1.590441	-0.512311
H180	H	1.327244	0.330935	-0.000095
H181	H	0.709944	1.218951	-0.694039
C182	C	0.932828	0.466921	-0.175306
C183	C	0.892002	0.404406	-0.123612
H184	H	0.964391	0.434306	-0.215273
H185	H	0.972984	0.451161	-0.119600
H186	H	0.888791	0.557693	-0.226121
H187	H	0.936039	0.313634	-0.072791
H188	H	0.851842	0.420154	-0.179325
H189	H	0.878774	0.791672	-0.480403
C190	C	0.568063	1.466932	-0.636903
C191	C	0.576643	1.404410	-0.522714
H192	H	0.625407	1.434306	-0.644260
H193	H	0.536504	1.557690	-0.671939
H194	H	0.536471	1.451179	-0.671949
H195	H	0.608229	1.420170	-0.487670
H196	H	0.608216	1.313630	-0.487664
C197	C	0.641577	1.309819	0.111180
C198	C	0.576690	1.404370	0.123604
H199	H	0.698926	1.277202	0.151137
H200	H	0.634909	1.347323	0.033729
H201	H	0.634908	1.240795	0.140268
H202	H	0.583355	1.473399	0.094508
H203	H	0.583360	1.366867	0.201071
H204	H	0.383773	1.418062	-0.305931
C205	C	1.431716	0.309870	0.111082
C206	C	1.366852	0.404409	0.123536
H207	H	1.489074	0.277218	0.151047
H208	H	1.425044	0.347398	0.033628
H209	H	1.425026	0.240868	0.140145
H210	H	1.373538	0.473417	0.094466
H211	H	1.373528	0.366882	0.201007
H212	H	0.261384	1.679770	-0.674391
H213	H	0.878768	0.791668	-0.305957
H214	H	0.414701	1.592577	-0.694042
