data_functionalizedCrystal
_audit_creation_method	'MofGen! by Chris Wilmer'
_symmetry_space_group_name_H-M	'P1'
_symmetry_Int_Tables_number	1
_symmetry_cell_setting	triclinic
loop_
_symmetry_equiv_pos_as_xyz
  x,y,z
_cell_length_a	14.044220
_cell_length_b	11.792254
_cell_length_c	10.868271
_cell_angle_alpha	89.995741
_cell_angle_beta	90.003917
_cell_angle_gamma	91.306262
loop_
_atom_site_label
_atom_site_type_symbol
_atom_site_fract_x
_atom_site_fract_y
_atom_site_fract_z
O1	O	-0.130045	1.519108	-0.102319
O2	O	0.369955	2.019108	0.397681
O3	O	-0.143429	1.190025	-0.102321
O4	O	0.356571	1.690025	0.397679
O5	O	0.001274	1.349627	-0.102314
O6	O	0.501274	1.849627	0.397686
O7	O	-0.274747	1.359506	-0.102325
O8	O	0.225253	1.859506	0.397675
O9	O	0.001279	1.349612	0.102330
O10	O	0.501279	1.849612	0.602330
O11	O	-0.143423	1.190010	0.102324
O12	O	0.356577	1.690010	0.602324
O13	O	-0.130039	1.519093	0.102326
O14	O	0.369961	2.019093	0.602326
Zn15	Zn	-0.136730	1.354549	0.134817
Zn16	Zn	0.363270	1.854549	0.634817
Zn17	Zn	-0.136737	1.354569	-0.134812
Zn18	Zn	0.363263	1.854569	0.365188
O19	O	-0.274741	1.359491	0.102319
O20	O	0.225259	1.859491	0.602319
C21	C	-0.142583	1.147648	0.000001
C22	C	0.357417	1.647648	0.500001
C23	C	-0.140059	1.021398	0.000000
C24	C	0.359941	1.521398	0.500000
C25	C	-0.138009	0.918869	-0.000005
C26	C	0.361991	1.418869	0.499995
C27	C	-0.135445	0.790242	-0.000006
C28	C	0.364555	1.290242	0.499994
C29	C	-0.310081	1.363823	-0.000004
C30	C	0.189919	1.863823	0.499996
C31	C	-0.415373	1.376722	-0.000009
C32	C	0.084627	1.876722	0.499991
C33	C	-0.608157	1.400304	-0.000003
C34	C	-0.108157	1.900304	0.499997
C35	C	-0.665316	1.308819	-0.000003
C36	C	-0.165316	1.808819	0.499997
C37	C	-0.772588	1.321941	0.000000
C38	C	-0.272588	1.821941	0.500000
C39	C	-0.500875	1.387184	-0.000006
C40	C	-0.000875	1.887184	0.499994
C41	C	0.036613	1.345295	0.000007
C42	C	0.536613	1.845295	0.500007
C43	C	0.141906	1.332396	0.000003
C44	C	0.641906	1.832396	0.500003
C45	C	-0.130885	1.561470	0.000001
C46	C	0.369115	2.061470	0.500001
C47	C	-0.133408	1.687720	-0.000006
C48	C	0.366592	2.187720	0.499994
N49	N	-0.136724	1.354544	0.318831
N50	N	0.363276	1.854544	0.818831
N51	N	-0.136736	1.354582	-0.318826
N52	N	0.363264	1.854582	0.181174
C53	C	-0.136735	1.354563	0.569837
C54	C	0.363265	1.854563	1.069837
C55	C	-0.136732	1.354549	0.430159
C56	C	0.363268	1.854549	0.930159
H57	H	-0.633689	1.220642	-0.000003
H58	H	-0.133689	1.720642	0.499997
H59	H	-0.639782	1.488474	0.000002
H60	H	-0.139782	1.988474	0.500002
