data_functionalizedCrystal
_audit_creation_method	'MofGen! by Chris Wilmer'
_symmetry_space_group_name_H-M	'P1'
_symmetry_Int_Tables_number	1
_symmetry_cell_setting	triclinic
loop_
_symmetry_equiv_pos_as_xyz
  x,y,z
_cell_length_a	27.780883
_cell_length_b	27.780936
_cell_length_c	27.780884
_cell_angle_alpha	120.002284
_cell_angle_beta	90.001850
_cell_angle_gamma	60.000310
loop_
_atom_site_label
_atom_site_type_symbol
_atom_site_fract_x
_atom_site_fract_y
_atom_site_fract_z
O1	O	-0.410270	0.424589	0.754804
O2	O	-0.340272	0.326020	0.586236
O3	O	-0.340270	0.424587	0.684802
O4	O	-0.410272	0.326022	0.656238
O5	O	-0.260211	0.344528	0.684802
O6	O	-0.260213	0.245960	0.586236
O7	O	-0.330211	0.344530	0.754804
Cu8	Cu	-0.287902	0.287935	0.670520
Cu9	Cu	-0.382581	0.382615	0.670520
O10	O	-0.330213	0.245963	0.656238
C11	C	-0.207595	0.177732	0.298163
C12	C	-0.237299	0.211525	0.268460
C13	C	-0.149664	0.119396	0.269061
C14	C	-0.207597	0.177729	0.385327
C15	C	-0.237302	0.211517	0.448822
C16	C	-0.149666	0.119392	0.356093
C17	C	-0.120429	0.090567	0.298163
C18	C	-0.056934	0.031162	0.268461
C19	C	-0.236699	0.206425	0.356093
C20	C	-0.005636	-0.016831	0.244464
C21	C	-0.261295	0.238827	0.244464
C22	C	-0.261300	0.238816	0.500119
C23	C	0.058720	-0.077040	0.214360
C24	C	-0.291400	0.273077	0.214359
C25	C	-0.291407	0.273063	0.564473
C26	C	-0.207594	0.579990	0.700430
C27	C	-0.237297	0.639397	0.696342
C28	C	-0.236698	0.551163	0.700837
C29	C	-0.120429	0.492823	0.700430
C30	C	-0.056934	0.459031	0.696342
C31	C	-0.149665	0.464128	0.700837
C32	C	-0.207596	0.492824	0.700430
C33	C	-0.237301	0.459034	0.696342
C34	C	-0.149664	0.551161	0.700837
C35	C	-0.261299	0.431734	0.693038
C36	C	-0.261293	0.687391	0.693038
C37	C	-0.005637	0.431730	0.693038
C38	C	-0.291406	0.397485	0.688894
C39	C	-0.291398	0.747602	0.688895
C40	C	0.058718	0.397479	0.688894
C41	C	-0.462879	0.090552	0.640609
C42	C	-0.433174	0.031145	0.644697
C43	C	-0.520810	0.119379	0.640202
C44	C	-0.462881	0.177719	0.640609
C45	C	-0.433178	0.211512	0.644697
C46	C	-0.520811	0.206413	0.640202
C47	C	-0.550046	0.177717	0.640609
C48	C	-0.613540	0.211507	0.644697
C49	C	-0.433777	0.119381	0.640202
C50	C	-0.664838	0.238806	0.648001
C51	C	-0.409176	-0.016848	0.648001
C52	C	-0.409182	0.238814	0.648001
C53	C	-0.729193	0.273055	0.652144
C54	C	-0.379070	-0.077060	0.652145
C55	C	-0.379077	0.273064	0.652145
O56	O	0.249046	0.326011	0.656237
O57	O	0.080482	0.424580	0.684801
O58	O	0.179044	0.326011	0.586235
O59	O	0.150484	0.424580	0.754803
O60	O	0.179041	0.245954	0.586235
O61	O	0.080479	0.344523	0.684801
O62	O	0.249043	0.245953	0.656237
Cu63	Cu	0.164760	0.287928	0.670519
Cu64	Cu	0.164765	0.382605	0.670519
O65	O	0.150481	0.344522	0.754803
O66	O	0.249046	-0.234705	0.175560
O67	O	0.080481	-0.094710	0.245555
O68	O	0.179041	-0.094702	0.245567
O69	O	0.150486	-0.234714	0.175548
O70	O	0.179043	-0.094699	0.165508
O71	O	0.080483	-0.094707	0.165497
O72	O	0.249048	-0.234702	0.095501
Cu73	Cu	0.164766	-0.164705	0.123189
Cu74	Cu	0.164763	-0.164708	0.217867
O75	O	0.150488	-0.234711	0.095490
O76	O	-0.410264	0.905271	0.656238
O77	O	-0.340263	0.765271	0.684802
O78	O	-0.340265	0.765268	0.586236
O79	O	-0.410262	0.905274	0.754804
O80	O	-0.260205	0.765268	0.586236
O81	O	-0.260203	0.765271	0.684802
O82	O	-0.330205	0.905272	0.656238
Cu83	Cu	-0.287894	0.835272	0.670520
Cu84	Cu	-0.382574	0.835271	0.670520
O85	O	-0.330203	0.905275	0.754804
O86	O	-0.330206	0.344547	0.095500
O87	O	-0.260205	0.245978	0.165496
O88	O	-0.260209	0.344550	0.165507
O89	O	-0.330202	0.245975	0.095489
O90	O	-0.340270	0.424605	0.245566
O91	O	-0.340266	0.326033	0.245554
O92	O	-0.410267	0.424602	0.175558
Cu93	Cu	-0.382576	0.382627	0.217866
Cu94	Cu	-0.287895	0.287953	0.123188
O95	O	-0.410263	0.326030	0.175547
C96	C	-0.550043	0.580005	1.042885
C97	C	-0.613538	0.639413	1.072589
C98	C	-0.520808	0.551178	1.071989
C99	C	-0.462879	0.492836	0.955718
C100	C	-0.433176	0.459042	0.892221
C101	C	-0.433776	0.464142	0.984954
C102	C	-0.462878	0.492839	1.042886
C103	C	-0.433174	0.459049	1.072590
C104	C	-0.520809	0.551175	0.984953
C105	C	-0.409177	0.431750	1.096588
C106	C	-0.664835	0.687408	1.096586
C107	C	-0.409180	0.431740	0.840923
C108	C	-0.379071	0.397502	1.126694
C109	C	-0.729189	0.747620	1.126692
C110	C	-0.379075	0.397488	0.776566
C111	C	0.194663	0.090536	0.298155
C112	C	0.190572	0.031130	0.268452
C113	C	0.195072	0.119361	0.269050
C114	C	0.194667	0.177704	0.385321
C115	C	0.190580	0.211498	0.448817
C116	C	0.195075	0.206397	0.356084
C117	C	0.194667	0.177699	0.298152
C118	C	0.190581	0.211487	0.268447
C119	C	0.195071	0.119367	0.356087
C120	C	0.187279	0.238786	0.244448
C121	C	0.187266	-0.016864	0.244456
C122	C	0.187277	0.238802	0.500116
C123	C	0.183137	0.273032	0.214341
C124	C	0.183119	-0.077075	0.214351
C125	C	0.183135	0.273054	0.564473
C126	C	0.134877	0.492813	1.042879
C127	C	0.138953	0.459028	1.072585
C128	C	0.134489	0.551140	1.071978
C129	C	0.134881	0.492810	0.955711
C130	C	0.138960	0.459022	0.892217
C131	C	0.134493	0.551137	0.984943
C132	C	0.134908	0.579961	1.042872
C133	C	0.139016	0.639355	1.072571
C134	C	0.134462	0.464122	0.984949
C135	C	0.142336	0.687338	1.096565
C136	C	0.142247	0.431733	1.096584
C137	C	0.142257	0.431724	0.840920
C138	C	0.146500	0.747536	1.126666
C139	C	0.146378	0.397490	1.126692
C140	C	0.146393	0.397478	0.776565
C141	C	-0.120437	0.492811	0.298153
C142	C	-0.056943	0.459018	0.268448
C143	C	-0.149673	0.464114	0.269051
C144	C	-0.207601	0.579980	0.385322
C145	C	-0.237302	0.639389	0.448818
C146	C	-0.236705	0.551151	0.356087
C147	C	-0.207604	0.492811	0.298155
C148	C	-0.237308	0.459019	0.268452
C149	C	-0.149670	0.551151	0.356085
C150	C	-0.261306	0.431718	0.244455
C151	C	-0.005646	0.431716	0.244450
C152	C	-0.261298	0.687384	0.500117
C153	C	-0.291413	0.397468	0.214350
C154	C	0.058709	0.397466	0.214343
C155	C	-0.291401	0.747598	0.564473
O156	O	0.150455	0.424564	0.175540
O157	O	0.179032	0.325999	0.245541
O158	O	0.080463	0.424541	0.245525
O159	O	0.249024	0.326021	0.175556
O160	O	0.080488	0.344461	0.165454
O161	O	0.179057	0.245919	0.165470
O162	O	0.150481	0.344484	0.095469
Cu163	Cu	0.164771	0.287890	0.123158
Cu164	Cu	0.164741	0.382593	0.217852
O165	O	0.249049	0.245942	0.095485
C166	C	-0.462874	1.177733	1.042887
C167	C	-0.433171	1.211527	1.072592
C168	C	-0.520804	1.206428	1.071989
C169	C	-0.462873	1.090563	0.955718
C170	C	-0.433170	1.031154	0.892222
C171	C	-0.520803	1.119390	0.984953
C172	C	-0.550038	1.177730	1.042885
C173	C	-0.613533	1.211521	1.072588
C174	C	-0.433771	1.119393	0.984955
C175	C	-0.664830	1.238821	1.096585
C176	C	-0.409174	1.238829	1.096591
C177	C	-0.409173	0.983158	0.840923
C178	C	-0.729185	1.273070	1.126690
C179	C	-0.379069	1.273081	1.126698
C180	C	-0.379067	0.922945	0.776567
H181	H	-0.126195	0.095270	0.221461
H182	H	-0.544272	1.253371	1.119590
F183	F	-0.551483	0.582721	1.134207
H184	H	-0.544284	0.575300	0.961482
F185	F	-0.298914	0.582702	0.701698
H186	H	0.195734	0.095234	0.379555
H187	H	0.195738	0.095222	0.221447
F188	F	-0.118984	0.582695	0.701693
F189	F	-0.118995	0.402753	0.206836
H190	H	-0.544282	0.253357	0.639548
F191	F	-0.118989	0.582684	0.386765
H192	H	-0.386179	0.417195	0.961478
H193	H	-0.544274	0.095241	0.639536
F194	F	-0.371565	0.087851	0.639352
F195	F	0.195923	0.267762	0.386766
F196	F	-0.551481	1.087851	0.954273
H197	H	-0.284299	0.253365	0.379560
F198	F	-0.298915	0.582682	0.386770
H199	H	-0.126196	0.095267	0.379567
F200	F	-0.118989	0.402774	0.701698
F201	F	0.133655	0.582661	0.954259
F202	F	0.133636	0.582674	1.134193
F203	F	0.133597	0.402768	0.954271
F204	F	-0.371553	1.087850	0.954281
