data_functionalizedCrystal
_audit_creation_method	'MofGen! by Chris Wilmer'
_symmetry_space_group_name_H-M	'P1'
_symmetry_Int_Tables_number	1
_symmetry_cell_setting	triclinic
loop_
_symmetry_equiv_pos_as_xyz
  x,y,z
_cell_length_a	19.805407
_cell_length_b	16.120297
_cell_length_c	19.805405
_cell_angle_alpha	87.131250
_cell_angle_beta	89.973590
_cell_angle_gamma	92.877318
loop_
_atom_site_label
_atom_site_type_symbol
_atom_site_fract_x
_atom_site_fract_y
_atom_site_fract_z
Zn1	Zn	1.015336	-0.471386	0.288886
Zn2	Zn	1.515336	0.028614	0.788886
Zn3	Zn	1.020989	-0.331968	0.396334
Zn4	Zn	1.520989	0.168032	0.896334
Zn5	Zn	0.907888	-0.331988	0.283166
Zn6	Zn	1.407888	0.168012	0.783166
Zn7	Zn	0.902117	-0.471330	0.402036
Zn8	Zn	1.402117	0.028670	0.902036
O9	O	0.961582	-0.401668	0.342605
O10	O	1.461582	0.098332	0.842605
O11	O	1.110802	-0.452906	0.303147
O12	O	1.610802	0.047094	0.803147
O13	O	1.010766	-0.215308	0.376542
O14	O	1.510766	0.284692	0.876542
O15	O	0.922191	-0.350511	0.189209
O16	O	1.422191	0.149489	0.689209
O17	O	1.114955	-0.350476	0.382089
O18	O	1.614955	0.149524	0.882089
O19	O	1.001133	-0.452926	0.193412
O20	O	1.501133	0.047074	0.693412
O21	O	0.927672	-0.215322	0.293397
O22	O	1.427672	0.284678	0.793397
O23	O	0.812406	-0.350457	0.298926
O24	O	1.312406	0.149543	0.798926
O25	O	0.912355	-0.588000	0.391807
O26	O	1.412355	-0.088000	0.891807
O27	O	0.808166	-0.452831	0.386260
O28	O	1.308166	0.047169	0.886260
O29	O	0.995537	-0.588041	0.308676
O30	O	1.495537	-0.088041	0.808676
O31	O	1.005171	-0.350423	0.491806
O32	O	1.505171	0.149577	0.991806
O33	O	0.917836	-0.452812	0.495995
O34	O	1.417836	0.047188	0.995995
C35	C	0.785727	-0.401641	0.342591
C36	C	1.285727	0.098359	0.842591
C37	C	0.710495	-0.401649	0.342602
C38	C	1.210495	0.098351	0.842602
C39	C	0.672965	-0.454869	0.388139
C40	C	1.172965	0.045131	0.888139
C41	C	0.602276	-0.454881	0.388140
C42	C	1.102276	0.045119	0.888140
C43	C	0.569119	-0.401668	0.342609
C44	C	1.069119	0.098332	0.842609
C45	C	0.606654	-0.348445	0.297067
C46	C	1.106654	0.151555	0.797067
C47	C	0.677342	-0.348438	0.297063
C48	C	1.177342	0.151562	0.797063
C49	C	0.321580	-0.348473	0.297084
C50	C	0.821580	0.151527	0.797084
C51	C	0.250888	-0.348482	0.297093
C52	C	0.750888	0.151518	0.797093
C53	C	0.246514	-0.454915	0.388161
C54	C	0.746514	0.045085	0.888161
C55	C	0.317201	-0.454909	0.388156
C56	C	0.817201	0.045091	0.888156
C57	C	0.354731	-0.401690	0.342613
C58	C	0.854731	0.098310	0.842613
C59	C	0.431379	-0.401679	0.342611
C60	C	0.931379	0.098321	0.842611
C61	C	0.492471	-0.401674	0.342613
C62	C	0.992471	0.098326	0.842613
C63	C	0.952672	-0.619115	0.351515
C64	C	1.452672	-0.119115	0.851515
C65	C	0.948874	-0.711779	0.355312
C66	C	1.448874	-0.211779	0.855312
C67	C	0.941917	-0.881436	0.362229
C68	C	1.441917	-0.381436	0.862229
C69	C	0.981382	-0.922752	0.322779
C70	C	1.481382	-0.422752	0.822779
C71	C	0.977510	-1.017155	0.326628
C72	C	1.477510	-0.517155	0.826628
C73	C	0.945787	-0.787024	0.358381
C74	C	1.445787	-0.287024	0.858381
C75	C	1.138124	-0.401695	0.342620
C76	C	1.638124	0.098305	0.842620
C77	C	1.213355	-0.401707	0.342626
C78	C	1.713355	0.098293	0.842626
C79	C	0.961508	-0.401627	0.518460
C80	C	1.461508	0.098373	1.018460
C81	C	0.961537	-0.401638	0.593692
C82	C	1.461537	0.098362	1.093692
C83	C	0.970498	-0.185066	0.333682
C84	C	1.470498	0.314934	0.833682
C85	C	0.974426	-0.092403	0.329694
C86	C	1.474426	0.407597	0.829694
C87	C	0.961675	-0.401727	0.166065
C88	C	1.461675	0.098273	0.666065
C89	C	0.961714	-0.401752	0.090834
C90	C	1.461714	0.098248	0.590834
C91	C	1.007052	-0.348380	0.626835
C92	C	1.507052	0.151620	1.126835
C93	C	1.007080	-0.348398	0.697524
C94	C	1.507080	0.151602	1.197524
C95	C	0.961589	-0.401671	0.735069
C96	C	1.461589	0.098329	1.235069
C97	C	0.916072	-0.454935	0.701922
C98	C	1.416072	0.045065	1.201922
C99	C	0.916048	-0.454921	0.631234
C100	C	1.416048	0.045079	1.131234
C101	C	0.916169	-0.454997	0.986997
C102	C	1.416169	0.045003	1.486997
C103	C	0.916196	-0.455006	1.057690
C104	C	1.416196	0.044994	1.557690
C105	C	1.007201	-0.348475	1.053288
C106	C	1.507201	0.151525	1.553288
C107	C	1.007177	-0.348460	0.982600
C108	C	1.507177	0.151540	1.482600
C109	C	0.961663	-0.401727	0.949459
C110	C	1.461663	0.098273	1.449459
C111	C	0.961634	-0.401707	0.872810
C112	C	1.461634	0.098293	1.372810
C113	C	0.961614	-0.401687	0.811717
C114	C	1.461614	0.098313	1.311717
H115	H	0.699956	-0.498199	0.425218
H116	H	1.199956	0.001801	0.925218
O117	O	0.898183	-0.923720	0.406062
O118	O	1.398183	-0.423720	0.906062
C119	C	0.913809	-0.902528	0.472675
C120	C	1.413809	-0.402528	0.972675
H121	H	0.942364	-0.839285	0.471552
H122	H	1.442364	-0.339285	0.971552
H123	H	0.946633	-0.951518	0.497427
H124	H	1.446633	-0.451518	0.997427
C125	C	0.812891	-0.976311	0.514902
C126	C	1.312891	-0.476311	1.014902
C127	C	0.847959	-0.898630	0.513523
C128	C	1.347959	-0.398630	1.013523
H129	H	0.772273	-0.973910	0.540100
H130	H	1.272273	-0.473910	1.040100
H131	H	0.802365	-0.990591	0.470024
H132	H	1.302365	-0.490591	0.970024
H133	H	0.840252	-1.017127	0.535527
H134	H	1.340252	-0.517127	1.035527
H135	H	0.820601	-0.857817	0.492891
H136	H	1.320601	-0.357817	0.992891
H137	H	0.858479	-0.884343	0.558399
H138	H	1.358479	-0.384343	1.058399
H139	H	0.571721	-0.498217	0.425221
H140	H	1.071721	0.001783	0.925221
H141	H	1.018075	-0.887225	0.286114
H142	H	1.518075	-0.387225	0.786114
O143	O	1.051306	-0.296601	0.590470
O144	O	1.551306	0.203399	1.090470
C145	C	1.091472	-0.249583	0.634884
C146	C	1.591472	0.250417	1.134884
H147	H	1.092412	-0.283746	0.686657
H148	H	1.592412	0.216254	1.186657
H149	H	1.069325	-0.186241	0.639851
H150	H	1.569325	0.313759	1.139851
C151	C	1.162843	-0.195683	0.543165
C152	C	1.662843	0.304317	1.043165
C153	C	1.164001	-0.237645	0.606752
C154	C	1.664001	0.262355	1.106752
H155	H	1.207581	-0.188315	0.525811
H156	H	1.707581	0.311685	1.025811
H157	H	1.135780	-0.227356	0.513242
H158	H	1.635780	0.272644	1.013242
H159	H	1.144383	-0.142902	0.547313
H160	H	1.644383	0.357098	1.047313
H161	H	1.182452	-0.290428	0.602602
H162	H	1.682452	0.209572	1.102602
H163	H	1.191069	-0.205980	0.636674
H164	H	1.691069	0.294020	1.136674
O165	O	0.210021	-0.506710	0.432304
O166	O	0.710021	-0.006710	0.932304
C167	C	0.166937	-0.560636	0.396049
C168	C	0.666937	-0.060636	0.896049
H169	H	0.188047	-0.565903	0.342962
H170	H	0.688047	-0.065903	0.842962
H171	H	0.114416	-0.534873	0.392631
H172	H	0.614416	-0.034873	0.892631
C173	C	0.136378	-0.640756	0.497978
C174	C	0.636378	-0.140756	0.997978
C175	C	0.162309	-0.647232	0.432777
C176	C	0.662309	-0.147232	0.932777
H177	H	0.133520	-0.694172	0.520634
H178	H	0.633520	-0.194172	1.020634
H179	H	0.165402	-0.604424	0.522404
H180	H	0.665402	-0.104424	1.022404
H181	H	0.092613	-0.619284	0.495120
H182	H	0.592613	-0.119284	0.995120
H183	H	0.206076	-0.668694	0.435636
H184	H	0.706076	-0.168694	0.935636
H185	H	0.133292	-0.683570	0.408352
H186	H	0.633292	-0.183570	0.908352
O187	O	1.051447	-0.296842	0.729705
O188	O	1.551447	0.203158	1.229705
C189	C	1.093184	-0.344462	0.772430
C190	C	1.593184	0.155538	1.272430
H191	H	1.094481	-0.410136	0.753792
H192	H	1.594481	0.089864	1.253792
H193	H	1.072252	-0.347263	0.826172
H194	H	1.572252	0.152737	1.326172
C195	C	1.163705	-0.223321	0.794575
C196	C	1.663705	0.276679	1.294575
C197	C	1.165303	-0.303980	0.771679
C198	C	1.665303	0.196020	1.271679
H199	H	1.208191	-0.198349	0.794115
H200	H	1.708191	0.301651	1.294115
H201	H	1.135585	-0.191237	0.765793
H202	H	1.635585	0.308763	1.265793
H203	H	1.146259	-0.225666	0.839358
H204	H	1.646259	0.274334	1.339358
H205	H	1.182741	-0.301634	0.726895
H206	H	1.682741	0.198366	1.226895
H207	H	1.193427	-0.336063	0.800454
H208	H	1.693427	0.163937	1.300454
O209	O	1.051406	-0.296828	1.085591
O210	O	1.551406	0.203172	1.585591
C211	C	1.041673	-0.308255	1.156032
C212	C	1.541673	0.191745	1.656032
H213	H	1.016819	-0.372563	1.168315
H214	H	1.516819	0.127437	1.668315
H215	H	1.007711	-0.258759	1.174122
H216	H	1.507711	0.241241	1.674122
C217	C	1.141017	-0.221745	1.176864
C218	C	1.641017	0.278255	1.676864
C219	C	1.110497	-0.300732	1.191951
C220	C	1.610497	0.199268	1.691951
H221	H	1.183470	-0.217101	1.199021
H222	H	1.683470	0.282899	1.699021
H223	H	1.147574	-0.214043	1.129406
H224	H	1.647574	0.285957	1.629406
H225	H	1.112709	-0.180507	1.191939
H226	H	1.612709	0.319493	1.691939
H227	H	1.138801	-0.341968	1.176868
H228	H	1.638801	0.158032	1.676868
H229	H	1.103947	-0.308440	1.239407
H230	H	1.603947	0.191560	1.739407
H231	H	1.044217	-0.305077	0.952033
H232	H	1.544217	0.194923	1.452033
O233	O	0.349301	-0.506679	0.432411
O234	O	0.849301	-0.006679	0.932411
C235	C	0.301017	-0.553643	0.472614
C236	C	0.801017	-0.053643	0.972614
H237	H	0.250518	-0.556596	0.445020
H238	H	0.750518	-0.056596	0.945020
H239	H	0.294731	-0.523001	0.522727
H240	H	0.794731	-0.023001	1.022727
C241	C	0.387005	-0.638719	0.520003
C242	C	0.887005	-0.138719	1.020003
C243	C	0.324983	-0.642352	0.486109
C244	C	0.824983	-0.142352	0.986109
H245	H	0.401789	-0.693438	0.528330
H246	H	0.901789	-0.193438	1.028330
H247	H	0.419535	-0.607077	0.492919
H248	H	0.919535	-0.107077	0.992919
H249	H	0.381758	-0.613180	0.561760
H250	H	0.881758	-0.113180	1.061760
H251	H	0.330233	-0.667880	0.444349
H252	H	0.830233	-0.167880	0.944349
H253	H	0.292454	-0.674001	0.513186
H254	H	0.792454	-0.174001	1.013186
H255	H	0.352128	-0.305132	0.260004
H256	H	0.852128	0.194868	0.760004
H257	H	0.879109	-0.498367	0.960019
H258	H	1.379109	0.001633	1.460019
H259	H	0.223894	-0.305149	0.260011
H260	H	0.723894	0.194851	0.760011
H261	H	0.579652	-0.305122	0.259992
H262	H	1.079652	0.194878	0.759992
H263	H	0.879152	-0.498394	1.088258
H264	H	1.379152	0.001606	1.588258
H265	H	0.879035	-0.498315	0.732497
H266	H	1.379035	0.001685	1.232497
O267	O	0.871864	-0.506772	0.599114
O268	O	1.371864	-0.006772	1.099114
C269	C	0.883218	-0.589882	0.619740
C270	C	1.383218	-0.089882	1.119740
H271	H	0.909178	-0.591647	0.671116
H272	H	1.409178	-0.091647	1.171116
H273	H	0.916838	-0.617989	0.581073
H274	H	1.416838	-0.117989	1.081073
C275	C	0.783254	-0.638144	0.562002
C276	C	1.283254	-0.138144	1.062002
C277	C	0.815133	-0.640313	0.625106
C278	C	1.315133	-0.140313	1.125106
H279	H	0.741257	-0.669254	0.565309
H280	H	1.241257	-0.169254	1.065309
H281	H	0.775606	-0.582152	0.548103
H282	H	1.275606	-0.082152	1.048103
H283	H	0.811277	-0.661566	0.529786
H284	H	1.311277	-0.161566	1.029786
H285	H	0.787114	-0.616882	0.657318
H286	H	1.287114	-0.116882	1.157318
H287	H	0.822775	-0.696302	0.639010
H288	H	1.322775	-0.196302	1.139010
O289	O	0.713700	-0.296657	0.252808
O290	O	1.213700	0.203343	0.752808
C291	C	0.669279	-0.249702	0.212611
C292	C	1.169279	0.250298	0.712611
H293	H	0.618999	-0.246760	0.240213
H294	H	1.118999	0.253240	0.740213
H295	H	0.660532	-0.280345	0.162499
H296	H	1.160532	0.219655	0.662499
C297	C	0.762245	-0.164606	0.165211
C298	C	1.262245	0.335394	0.665211
C299	C	0.700492	-0.160987	0.199114
C300	C	1.200492	0.339013	0.699114
H301	H	0.781499	-0.109883	0.156881
H302	H	1.281499	0.390117	0.656881
H303	H	0.792173	-0.196242	0.192290
H304	H	1.292173	0.303758	0.692290
H305	H	0.754948	-0.190145	0.123454
H306	H	1.254948	0.309855	0.623454
H307	H	0.707791	-0.135458	0.240873
H308	H	1.207791	0.364542	0.740873
H309	H	0.670566	-0.129345	0.172041
H310	H	1.170566	0.370655	0.672041
