data_functionalizedCrystal
_audit_creation_method	'MofGen! by Chris Wilmer'
_symmetry_space_group_name_H-M	'P1'
_symmetry_Int_Tables_number	1
_symmetry_cell_setting	triclinic
loop_
_symmetry_equiv_pos_as_xyz
  x,y,z
_cell_length_a	10.968094
_cell_length_b	11.026607
_cell_length_c	9.130313
_cell_angle_alpha	89.997484
_cell_angle_beta	102.123932
_cell_angle_gamma	96.379842
loop_
_atom_site_label
_atom_site_type_symbol
_atom_site_fract_x
_atom_site_fract_y
_atom_site_fract_z
O1	O	1.693918	0.170478	0.305705
O2	O	1.334305	0.186809	0.214946
O3	O	1.484307	0.001743	0.252809
O4	O	1.543916	0.355544	0.267842
O5	O	1.484293	0.001738	0.496404
O6	O	1.334290	0.186804	0.458541
O7	O	1.693904	0.170473	0.549301
Cu8	Cu	1.514096	0.178638	0.526163
Cu9	Cu	1.514113	0.178644	0.238083
O10	O	1.543902	0.355538	0.511437
C11	C	1.287544	0.185620	0.324944
C12	C	1.148228	0.182069	0.289783
C13	C	0.942111	0.176802	0.363947
C14	C	1.086101	0.180480	0.400302
C15	C	1.473303	-0.043562	0.371829
C16	C	1.440521	-0.178548	0.363551
C17	C	1.531037	-0.251602	0.386393
C18	C	1.497158	-0.391118	0.377837
C19	C	1.740665	0.171662	0.439299
C20	C	1.879981	0.175212	0.474450
C21	C	1.554906	0.400843	0.392414
C22	C	1.587687	0.535829	0.400683
N23	N	1.514093	0.178632	0.728785
N24	N	1.514124	0.178640	0.035463
C25	C	1.580550	0.096720	0.822212
C26	C	1.580562	0.096720	0.975551
C27	C	1.447658	0.260556	0.942024
C28	C	1.447640	0.260549	0.788685
H29	H	0.888702	0.175432	0.242426
O30	O	1.375956	0.348894	0.687891
H31	H	1.413171	0.443821	0.726670
H32	H	1.337945	-0.219291	0.337653
H33	H	1.394575	-0.431855	0.351938
O34	O	1.156828	0.182305	0.561286
H35	H	1.124322	0.098947	0.616806
H36	H	1.094827	0.180709	0.168254
H37	H	0.933388	0.176569	0.595971
O38	O	1.723575	-0.410230	0.434986
H39	H	1.728866	-0.309115	0.436336
H40	H	1.634659	0.030017	0.773445
H41	H	1.633613	-0.210859	0.412290
H42	H	1.634676	0.030018	1.051616
O43	O	1.376002	0.348921	1.006633
H44	H	1.387191	0.335177	1.128959
