data_functionalizedCrystal
_audit_creation_method	'MofGen! by Chris Wilmer'
_symmetry_space_group_name_H-M	'P1'
_symmetry_Int_Tables_number	1
_symmetry_cell_setting	triclinic
loop_
_symmetry_equiv_pos_as_xyz
  x,y,z
_cell_length_a	10.489741
_cell_length_b	14.519709
_cell_length_c	12.996460
_cell_angle_alpha	90.007090
_cell_angle_beta	89.992450
_cell_angle_gamma	95.890341
loop_
_atom_site_label
_atom_site_type_symbol
_atom_site_fract_x
_atom_site_fract_y
_atom_site_fract_z
O1	O	1.692699	-0.130116	-0.085617
O2	O	2.192699	0.369884	0.414383
O3	O	1.321376	-0.142329	-0.085609
O4	O	1.821376	0.357671	0.414391
O5	O	1.516883	-0.002038	-0.085604
O6	O	2.016883	0.497962	0.414396
O7	O	1.497193	-0.270408	-0.085622
O8	O	1.997193	0.229592	0.414378
O9	O	1.516862	-0.002030	0.085530
O10	O	2.016862	0.497970	0.585530
O11	O	1.321356	-0.142322	0.085525
O12	O	1.821356	0.357678	0.585525
O13	O	1.692679	-0.130108	0.085517
O14	O	2.192679	0.369892	0.585517
Cu15	Cu	1.507015	-0.136214	0.101147
Cu16	Cu	2.007015	0.363786	0.601147
Cu17	Cu	1.507040	-0.136224	-0.101239
Cu18	Cu	2.007040	0.363776	0.398761
O19	O	1.497172	-0.270400	0.085512
O20	O	1.997172	0.229600	0.585512
C21	C	1.273844	-0.141403	-0.000041
C22	C	1.773844	0.358597	0.499959
C23	C	1.132243	-0.138643	-0.000038
C24	C	1.632243	0.361357	0.499962
C25	C	1.515955	0.032331	-0.000037
C26	C	2.015955	0.532331	0.499963
C27	C	1.513205	0.134727	-0.000036
C28	C	2.013205	0.634727	0.499964
C29	C	1.740211	-0.131035	-0.000054
C30	C	2.240211	0.368965	0.499946
C31	C	1.881812	-0.133794	-0.000064
C32	C	2.381812	0.366206	0.499936
C33	C	1.949021	-0.223058	-0.000059
C34	C	2.449021	0.276942	0.499941
C35	C	2.041598	-0.180895	-0.084430
C36	C	2.541598	0.319105	0.415570
C37	C	2.041544	-0.180865	0.084294
C38	C	2.541544	0.319135	0.584294
C39	C	1.972523	-0.091595	-0.084505
C40	C	2.472523	0.408405	0.415495
C41	C	1.972460	-0.091578	0.084295
C42	C	2.472460	0.408422	0.584295
C43	C	2.065009	-0.049350	-0.000097
C44	C	2.565009	0.450650	0.499903
C45	C	1.498100	-0.304768	-0.000058
C46	C	1.998100	0.195232	0.499942
C47	C	1.500850	-0.407165	-0.000065
C48	C	2.000850	0.092835	0.499935
N49	N	1.507008	-0.136207	0.243494
N50	N	2.007008	0.363793	0.743494
C51	C	1.503082	0.509678	-0.000063
C52	C	2.003082	1.009678	0.499937
C53	C	1.505893	0.405355	-0.000055
C54	C	2.005893	0.905355	0.499945
C55	C	1.508143	0.322206	-0.000049
C56	C	2.008143	0.822206	0.499951
C57	C	1.510955	0.217876	-0.000043
C58	C	2.010955	0.717876	0.499957
N59	N	1.507057	-0.136223	-0.243586
N60	N	2.007057	0.363777	0.256414
C61	C	1.507038	-0.136224	0.663308
C62	C	2.007038	0.363776	1.163308
C63	C	1.507026	-0.136223	0.546503
C64	C	2.007026	0.363777	1.046503
C65	C	1.507023	-0.136216	0.453405
C66	C	2.007023	0.363784	0.953405
C67	C	1.507010	-0.136213	0.336592
C68	C	2.007010	0.363787	0.836592
H69	H	2.072233	-0.218669	-0.155764
H70	H	2.572233	0.281331	0.344236
H71	H	2.115191	0.024110	-0.000133
H72	H	2.615191	0.524110	0.499867
C73	C	1.798304	-0.038577	-0.180082
C74	C	2.298304	0.461423	0.319918
C75	C	1.931459	-0.040663	-0.180919
C76	C	2.431459	0.459337	0.319081
H77	H	1.772952	-0.007142	-0.239608
H78	H	2.272952	0.492858	0.260392
H79	H	1.774096	-0.007073	-0.120246
H80	H	2.274096	0.492927	0.379754
H81	H	1.757559	-0.100104	-0.179841
H82	H	2.257559	0.399896	0.320159
H83	H	1.972204	0.020865	-0.181152
H84	H	2.472204	0.520865	0.318848
H85	H	1.955679	-0.072165	-0.240770
H86	H	2.455679	0.427835	0.259230
C87	C	1.974557	-0.261467	0.239526
C88	C	2.474557	0.238533	0.739526
C89	C	2.082817	-0.231860	0.180596
C90	C	2.582817	0.268140	0.680596
H91	H	2.000037	-0.292947	0.298977
H92	H	2.500037	0.207053	0.798977
H93	H	1.917474	-0.302177	0.199778
H94	H	2.417474	0.197823	0.699778
H95	H	1.932752	-0.209350	0.259801
H96	H	2.432752	0.290650	0.759801
H97	H	2.124618	-0.283977	0.160314
H98	H	2.624618	0.216023	0.660314
H99	H	2.139922	-0.191147	0.220351
H100	H	2.639922	0.308853	0.720351
H101	H	1.941796	-0.053837	0.155635
H102	H	2.441796	0.446163	0.655635
H103	H	1.898608	-0.296450	-0.000149
H104	H	2.398608	0.203550	0.499851
