data_functionalizedCrystal
_audit_creation_method	'MofGen! by Chris Wilmer'
_symmetry_space_group_name_H-M	'P1'
_symmetry_Int_Tables_number	1
_symmetry_cell_setting	triclinic
loop_
_symmetry_equiv_pos_as_xyz
  x,y,z
_cell_length_a	27.440280
_cell_length_b	27.440279
_cell_length_c	27.440280
_cell_angle_alpha	60.011579
_cell_angle_beta	90.008003
_cell_angle_gamma	60.011417
loop_
_atom_site_label
_atom_site_type_symbol
_atom_site_fract_x
_atom_site_fract_y
_atom_site_fract_z
Zr1	Zr	0.469680	0.533217	-0.063774
O2	O	0.391894	0.634857	-0.141572
O3	O	0.493502	0.431576	-0.039940
O4	O	0.493535	0.533205	-0.141581
O5	O	0.391863	0.533238	0.040262
O6	O	0.573737	0.533195	-0.141571
O7	O	0.391861	0.533229	-0.039931
O8	O	0.573679	0.351400	0.040245
O9	O	0.391921	0.715033	-0.141554
O10	O	0.563545	0.473375	-0.029750
O11	O	0.503691	0.473389	0.030090
O12	O	0.503730	0.593044	-0.089578
O13	O	0.443876	0.593058	-0.029738
Zr14	Zr	0.597596	0.533217	0.064141
Zr15	Zr	0.597594	0.533202	-0.063758
Zr16	Zr	0.469682	0.533232	0.064125
Zr17	Zr	0.469723	0.661088	-0.063746
Zr18	Zr	0.597553	0.405346	0.064113
O19	O	0.573774	0.634857	0.040307
O20	O	0.573772	0.634836	-0.141549
O21	O	0.391897	0.634879	0.040285
O22	O	0.675382	0.431576	0.141939
O23	O	0.675379	0.431555	-0.039918
O24	O	0.493504	0.431597	0.141916
O25	O	0.675414	0.533195	-0.039895
O26	O	0.573741	0.533229	0.141948
O27	O	0.493539	0.533238	0.141938
O28	O	0.675415	0.533205	0.040298
O29	O	0.493596	0.715021	-0.141541
O30	O	0.573680	0.351412	0.141908
O31	O	0.675355	0.351400	0.141921
O32	O	0.675354	0.351388	0.040258
O33	O	0.391923	0.715045	-0.039891
O34	O	0.493597	0.715033	-0.039878
O35	O	0.563546	0.473389	0.089945
O36	O	0.623400	0.473375	0.030105
O37	O	0.563585	0.593044	-0.029723
O38	O	0.503731	0.593058	0.030117
C39	C	0.533584	0.373269	0.000148
C40	C	0.533566	0.318985	0.000137
C41	C	0.502387	0.084233	0.031423
C42	C	0.502376	0.135264	0.031415
O43	O	0.475817	0.161646	0.057992
N44	N	0.533610	0.160781	0.000172
C45	C	0.564864	0.135261	-0.031061
O46	O	0.591431	0.161651	-0.057636
C47	C	0.564879	0.084229	-0.031049
C48	C	0.533637	0.058718	0.000191
C49	C	0.471149	0.058723	0.062662
C50	C	0.471160	0.007697	0.062668
C51	C	0.502409	-0.017818	0.031437
C52	C	0.533648	0.007693	0.000198
C53	C	0.596135	0.058706	-0.062278
C54	C	0.596147	0.007669	-0.062263
C55	C	0.564906	-0.017841	-0.031023
C56	C	0.564908	-0.068848	-0.031027
N57	N	0.533674	-0.094366	0.000217
C58	C	0.502424	-0.068851	0.031448
C59	C	0.564831	0.242433	-0.031082
C60	C	0.564813	0.293468	-0.031098
C61	C	0.502326	0.293466	0.031379
C62	C	0.502341	0.242433	0.031391
C63	C	0.533596	0.216915	0.000161
C64	C	0.502449	-0.176008	0.031460
C65	C	0.502461	-0.227036	0.031462
C66	C	0.564950	-0.227032	-0.031012
C67	C	0.564936	-0.176006	-0.031017
C68	C	0.533684	-0.150497	0.000223
O69	O	0.591456	-0.095265	-0.057588
O70	O	0.475868	-0.095254	0.058026
C71	C	0.373637	0.533235	0.000163
C72	C	0.319334	0.533242	0.000157
C73	C	0.013859	0.470740	0.031430
C74	C	-0.037159	0.470736	0.031435
O75	O	-0.036994	0.417611	0.058013
N76	N	-0.093899	0.533201	0.000205
C77	C	-0.099619	0.595674	-0.031028
O78	O	-0.152565	0.648805	-0.057591
C79	C	-0.048601	0.595677	-0.031030
C80	C	0.008137	0.533208	0.000198
C81	C	0.070595	0.408275	0.062656
C82	C	0.121610	0.408280	0.062649
C83	C	0.115889	0.470748	0.031417
C84	C	0.059152	0.533212	0.000192
C85	C	-0.054322	0.658149	-0.062259
C86	C	-0.003298	0.658147	-0.062257
C87	C	0.053441	0.595678	-0.031030
C88	C	0.104446	0.595684	-0.031047
N89	N	0.161185	0.533219	0.000184
C90	C	0.166907	0.470751	0.031416
C91	C	-0.206758	0.595663	-0.031022
C92	C	-0.257775	0.595660	-0.031024
C93	C	-0.195312	0.470722	0.031440
C94	C	-0.144294	0.470725	0.031439
C95	C	-0.150018	0.533197	0.000209
C96	C	0.274039	0.470764	0.031400
C97	C	0.325056	0.470774	0.031389
C98	C	0.262588	0.595712	-0.031073
C99	C	0.211575	0.595702	-0.031065
C100	C	0.217305	0.533223	0.000176
O101	O	0.104326	0.648782	-0.057609
O102	O	0.219854	0.417629	0.057981
C103	C	0.693639	0.533198	0.000204
C104	C	0.747942	0.533192	0.000210
C105	C	0.533636	0.533198	-0.159799
C106	C	0.533635	0.533192	-0.214095
C107	C	0.533692	0.693164	0.000218
C108	C	0.533710	0.747449	0.000230
C109	C	0.502421	0.595694	-0.582060
C110	C	0.502422	0.595698	-0.633082
O111	O	0.475887	0.648822	-0.686030
N112	N	0.533644	0.533233	-0.627369
C113	C	0.564871	0.470760	-0.570630
O114	O	0.591428	0.417628	-0.570456
C115	C	0.564872	0.470756	-0.519609
C116	C	0.533644	0.533226	-0.525326
C117	C	0.471195	0.658158	-0.587774
C118	C	0.471193	0.658154	-0.536755
C119	C	0.502416	0.595686	-0.480022
C120	C	0.533641	0.533222	-0.474307
C121	C	0.596102	0.408284	-0.462870
C122	C	0.596101	0.408287	-0.411849
C123	C	0.564873	0.470756	-0.417566
C124	C	0.564862	0.470749	-0.366555
N125	N	0.533640	0.533214	-0.372267
C126	C	0.502417	0.595683	-0.429001
C127	C	0.564866	0.470771	-0.677780
C128	C	0.564862	0.470773	-0.728799
C129	C	0.502414	0.595712	-0.791248
C130	C	0.502415	0.595708	-0.740227
C131	C	0.533645	0.533236	-0.683492
C132	C	0.502414	0.595669	-0.321855
C133	C	0.502412	0.595660	-0.270829
C134	C	0.564862	0.470722	-0.208385
C135	C	0.564861	0.470731	-0.259406
C136	C	0.533636	0.533210	-0.316143
O137	O	0.591386	0.417652	-0.313588
O138	O	0.475871	0.648805	-0.429164
C139	C	0.533640	0.533235	0.160166
C140	C	0.533641	0.533242	0.214462
C141	C	0.693585	0.373251	0.000169
C142	C	0.747870	0.318960	0.000163
C143	C	0.533587	0.373288	0.160131
C144	C	0.533569	0.319010	0.214416
C145	C	0.693588	0.373269	0.160151
C146	C	0.747873	0.318985	0.214442
C147	C	0.373688	0.693164	-0.159784
C148	C	0.319403	0.747449	-0.214075
C149	C	0.373691	0.693183	0.000198
C150	C	0.319406	0.747474	0.000204
C151	C	0.533690	0.693145	-0.159764
C152	C	0.533707	0.747424	-0.214049
C153	C	0.742119	0.293464	-0.031088
C154	C	0.793120	0.242459	-0.031105
C155	C	0.849872	0.216947	0.000134
C156	C	0.855622	0.242447	0.031386
C157	C	0.804621	0.293455	0.031399
C158	C	0.564805	0.293520	0.271157
C159	C	0.564786	0.242527	0.322168
C160	C	0.533535	0.217021	0.316437
C161	C	0.502295	0.242516	0.259689
C162	C	0.502311	0.293511	0.208679
C163	C	0.804614	0.293485	0.208702
C164	C	0.855626	0.242486	0.259710
C165	C	0.849895	0.216984	0.316457
C166	C	0.793148	0.242489	0.322196
C167	C	0.742138	0.293491	0.271189
C168	C	0.262662	0.772955	-0.208335
C169	C	0.211650	0.823970	-0.259343
C170	C	0.217381	0.849474	-0.316090
C171	C	0.274128	0.823966	-0.321829
C172	C	0.325139	0.772955	-0.270822
C173	C	0.325157	0.772975	0.031450
C174	C	0.274156	0.823994	0.031452
C175	C	0.217404	0.849508	0.000212
C176	C	0.211654	0.824005	-0.031038
C177	C	0.262655	0.772990	-0.031044
C178	C	0.564964	0.772913	-0.208298
C179	C	0.564992	0.823907	-0.259299
C180	C	0.533759	0.849413	-0.316051
C181	C	0.502501	0.823918	-0.321801
C182	C	0.502477	0.772922	-0.270800
H183	H	0.445722	-0.013071	0.088110
Cl184	Cl	0.396497	0.740914	0.070725
H185	H	0.809292	0.314241	0.162501
H186	H	0.371255	0.419901	0.056820
H187	H	0.901828	0.221725	0.255027
Cl188	Cl	0.431859	0.090788	0.101931
H189	H	0.695913	0.314235	-0.056533
H190	H	0.476901	0.221666	0.056830
H191	H	0.891436	0.175455	0.357986
H192	H	0.590253	0.314281	0.275836
H193	H	0.788491	0.221718	0.368406
H194	H	0.788427	0.221702	-0.056554
Cl195	Cl	0.913982	0.152820	0.000113
H196	H	0.695938	0.314246	0.275871
Cl197	Cl	0.463041	0.325550	0.070643
H198	H	0.257964	0.752228	-0.056486
Cl199	Cl	0.153247	0.913601	-0.380209
Cl200	Cl	0.463043	0.325545	0.137349
Cl201	Cl	0.192934	0.329742	0.101914
H202	H	0.590227	0.221775	0.368370
H203	H	0.590245	0.314242	-0.056544
Cl204	Cl	0.604112	0.392237	-0.721604
H205	H	0.533527	0.175497	0.357977
Cl206	Cl	0.926972	0.210365	0.070658
H207	H	0.257984	0.752192	-0.162134
Cl208	Cl	0.281398	0.856041	0.070744
Cl209	Cl	0.463012	0.210442	0.252493
Cl210	Cl	0.140318	0.856024	-0.252115
Cl211	Cl	0.281322	0.856033	-0.393173
Cl212	Cl	-0.010501	0.736689	-0.101519
H213	H	0.257939	0.646572	-0.056504
Cl214	Cl	0.153294	0.913640	0.000227
H215	H	0.809312	0.314207	0.056851
H216	H	0.371339	0.752189	-0.275503
Cl217	Cl	0.463171	0.740891	-0.278040
Cl218	Cl	0.604122	0.392226	-0.606457
Cl219	Cl	0.140304	0.856084	-0.070306
H220	H	0.590281	0.221662	-0.056519
Cl221	Cl	0.604288	0.855951	-0.252057
Cl222	Cl	0.463182	-0.259102	0.070738
Cl223	Cl	0.604235	0.740858	-0.136959
Cl224	Cl	0.533794	0.913526	-0.380161
H225	H	0.477000	-0.155243	0.056898
Cl226	Cl	0.635413	0.090763	-0.101555
H227	H	0.477072	0.844693	-0.368015
Cl228	Cl	0.604206	-0.143929	-0.070297
Cl229	Cl	0.635447	-0.024411	-0.101522
H230	H	0.590391	-0.247812	-0.056443
H231	H	0.278713	0.419887	0.056840
H232	H	-0.098098	0.419857	0.056872
Cl233	Cl	-0.188128	0.392190	0.070705
Cl234	Cl	0.077803	0.329733	0.101926
H235	H	-0.211427	0.646538	-0.056456
Cl236	Cl	-0.329100	0.674196	-0.070292
Cl237	Cl	0.635369	0.329744	-0.340525
H238	H	0.590282	0.419864	-0.254750
Cl239	Cl	0.140245	0.674236	-0.070335
Cl240	Cl	-0.125641	0.736687	-0.101513
H241	H	0.476987	0.646546	-0.368047
Cl242	Cl	0.431921	0.736691	-0.543953
Cl243	Cl	0.431937	0.736700	-0.659093
Cl244	Cl	0.463158	0.674244	-0.747421
Cl245	Cl	0.463146	0.674198	-0.278023
H246	H	0.621533	0.357415	-0.458203
Cl247	Cl	0.604111	0.392195	-0.137055
Cl248	Cl	0.463165	0.674244	-0.862580
