data_functionalizedCrystal
_audit_creation_method	'MofGen! by Chris Wilmer'
_symmetry_space_group_name_H-M	'P1'
_symmetry_Int_Tables_number	1
_symmetry_cell_setting	triclinic
loop_
_symmetry_equiv_pos_as_xyz
  x,y,z
_cell_length_a	14.519709
_cell_length_b	26.809956
_cell_length_c	14.519709
_cell_angle_alpha	89.996594
_cell_angle_beta	83.680145
_cell_angle_gamma	90.003229
loop_
_atom_site_label
_atom_site_type_symbol
_atom_site_fract_x
_atom_site_fract_y
_atom_site_fract_z
O1	O	1.223875	0.041416	0.120878
O2	O	0.955398	0.041431	0.135115
O3	O	1.096755	0.041419	-0.006242
O4	O	1.082518	0.041428	0.262235
O5	O	1.096728	-0.041541	-0.006220
O6	O	0.955371	-0.041528	0.135136
O7	O	1.223848	-0.041544	0.120900
Zn8	Zn	1.089605	-0.054707	0.128021
Zn9	Zn	1.089641	0.054595	0.127993
O10	O	1.082491	-0.041531	0.262257
C11	C	0.921025	-0.000047	0.134462
C12	C	0.818643	-0.000041	0.132474
N13	N	1.089588	-0.129303	0.128040
C14	C	0.443748	-0.000064	0.125154
C15	C	0.548056	-0.000057	0.127187
C16	C	0.631192	-0.000052	0.128814
C17	C	0.735507	-0.000046	0.130847
C18	C	1.152225	-0.473935	0.065416
C19	C	1.152247	-0.682813	0.065402
O20	O	1.205466	-0.709821	0.012162
N21	N	1.089645	-0.708930	0.127973
C22	C	1.027030	-0.682826	0.190548
O23	O	0.973777	-0.709833	0.243761
C24	C	1.027004	-0.473949	0.190556
C25	C	1.089616	-0.447834	0.127988
C26	C	1.214831	-0.447820	0.002851
C27	C	1.214829	-0.395604	0.002859
C28	C	1.152220	-0.369502	0.065431
C29	C	1.089614	-0.395618	0.127995
C30	C	0.964385	-0.447845	0.253126
C31	C	0.964383	-0.395622	0.253121
C32	C	1.026995	-0.369507	0.190553
C33	C	1.027002	-0.317300	0.190575
N34	N	1.089604	-0.291182	0.128004
C35	C	1.152213	-0.317283	0.065432
C36	C	1.027049	-0.792489	0.190540
C37	C	1.027056	-0.844708	0.190539
C38	C	1.152273	-0.844691	0.065392
C39	C	1.152269	-0.792471	0.065398
C40	C	1.089651	-0.766371	0.127969
C41	C	1.152203	-0.207625	0.065453
C42	C	1.152197	-0.155405	0.065468
C43	C	1.026978	-0.155426	0.190612
C44	C	1.026986	-0.207642	0.190600
C45	C	1.089602	-0.233741	0.128013
O46	O	0.973804	-0.290259	0.243780
O47	O	1.205443	-0.290267	0.012212
C48	C	1.152228	-0.526151	0.065408
C49	C	1.089622	-0.552266	0.127973
C50	C	1.027013	-0.526165	0.190545
C51	C	1.089629	-0.604485	0.127972
C52	C	1.152238	-0.630587	0.065400
C53	C	1.214840	-0.604469	0.002829
C54	C	1.214837	-0.552252	0.002836
C55	C	0.964411	-0.552283	0.253116
C56	C	0.964420	-0.604499	0.253104
C57	C	1.027029	-0.630601	0.190532
C58	C	1.258221	-0.000065	0.121553
C59	C	1.360602	-0.000067	0.123541
C60	C	1.096078	-0.000061	-0.040591
C61	C	1.094089	-0.000061	-0.142972
N62	N	1.089665	0.129191	0.127967
C63	C	1.086770	-0.000048	-0.517868
C64	C	1.088803	-0.000052	-0.413560
C65	C	1.090430	-0.000055	-0.330423
C66	C	1.092463	-0.000058	-0.226109
C67	C	1.083168	-0.000050	0.296606
C68	C	1.085156	-0.000047	0.398987
H69	H	1.203186	-0.134143	0.014517
H70	H	1.203252	-0.771212	0.014448
H71	H	0.976056	-0.771242	0.241495
N72	N	1.219742	-0.235770	-0.002044
H73	H	1.259400	-0.211296	-0.041669
H74	H	1.260568	-0.257434	0.033357
H75	H	0.976005	-0.134166	0.241560
N76	N	1.219803	-0.872851	-0.002093
H77	H	1.285271	-0.863762	0.008675
H78	H	1.210218	-0.909883	0.007448
H79	H	0.913426	-0.531035	0.304068
N80	N	0.959456	-0.235806	0.258091
H81	H	0.918566	-0.257468	0.222754
H82	H	0.994820	-0.257447	0.298989
N83	N	0.959530	-0.872872	0.258028
H84	H	0.919867	-0.848408	0.297660
H85	H	0.918709	-0.894537	0.222624
H86	H	0.913400	-0.469101	0.304075
N87	N	1.282357	-0.367440	-0.064630
H88	H	1.322012	-0.391905	-0.104267
H89	H	1.246985	-0.345776	-0.105482
H90	H	1.265815	-0.469067	-0.048106
N91	N	1.282369	-0.632628	-0.064658
H92	H	1.322036	-0.608164	-0.104298
H93	H	1.323189	-0.654293	-0.029252
H94	H	0.913388	-0.374374	0.304073
N95	N	1.282369	-0.524089	-0.064649
H96	H	1.322025	-0.548554	-0.104284
H97	H	1.247002	-0.502423	-0.105502
N98	N	0.896881	-0.632663	0.320590
H99	H	0.857218	-0.608200	0.360223
H100	H	0.856060	-0.654324	0.285178
