data_functionalizedCrystal
_audit_creation_method	'MofGen! by Chris Wilmer'
_symmetry_space_group_name_H-M	'P1'
_symmetry_Int_Tables_number	1
_symmetry_cell_setting	triclinic
loop_
_symmetry_equiv_pos_as_xyz
  x,y,z
_cell_length_a	16.974803
_cell_length_b	16.992701
_cell_length_c	15.186229
_cell_angle_alpha	89.996535
_cell_angle_beta	86.345554
_cell_angle_gamma	92.978147
loop_
_atom_site_label
_atom_site_type_symbol
_atom_site_fract_x
_atom_site_fract_y
_atom_site_fract_z
O1	O	-0.167638	1.040203	-0.061279
O2	O	-0.165801	0.811919	-0.061411
O3	O	-0.052019	0.932430	-0.069520
O4	O	-0.281421	0.919692	-0.053170
O5	O	-0.052016	0.932422	0.076938
O6	O	-0.165799	0.811911	0.085046
O7	O	-0.167636	1.040195	0.085178
Zn8	Zn	-0.166717	0.926052	0.108365
Zn9	Zn	-0.166720	0.926062	-0.084598
O10	O	-0.281419	0.919684	0.093287
C11	C	-0.163434	0.782706	0.011649
C12	C	-0.156375	0.695669	0.011146
C13	C	-0.108947	0.206763	0.007762
C14	C	-0.115585	0.288542	0.008241
C15	C	-0.190340	0.320001	0.013564
C16	C	-0.258460	0.269677	0.018419
C17	C	-0.251821	0.187900	0.017947
C18	C	-0.217856	0.563568	0.015528
C19	C	-0.224491	0.645351	0.015997
C20	C	-0.081615	0.664210	0.005821
C21	C	-0.074982	0.582431	0.005344
C22	C	-0.143103	0.532114	0.010203
N23	N	-0.197127	0.403592	0.014051
N24	N	-0.136314	0.448524	0.009723
C25	C	-0.310909	0.920171	0.022160
C26	C	-0.398777	0.921620	0.028422
C27	C	-0.440056	0.922306	-0.048471
C28	C	-0.522617	0.923677	-0.042587
C29	C	-0.563898	0.924357	0.040190
C30	C	-0.522613	0.923673	0.117089
C31	C	-0.440053	0.922308	0.111204
C32	C	-0.810815	0.928445	0.066351
C33	C	-0.893381	0.929809	0.072230
C34	C	-0.893379	0.929813	-0.087446
C35	C	-0.810818	0.928443	-0.093324
C36	C	-0.769540	0.927764	-0.016425
N37	N	-0.648289	0.925756	0.046207
N38	N	-0.685151	0.926371	-0.022443
C39	C	-0.022528	0.931943	0.001605
C40	C	0.065340	0.930494	-0.004662
C41	C	-0.170003	1.069409	0.012116
C42	C	-0.177062	1.156445	0.012614
N43	N	-0.166715	0.926050	0.240058
N44	N	-0.166716	0.926070	-0.216291
C45	C	-0.116351	0.979430	0.462191
C46	C	-0.116350	0.979433	0.554381
C47	C	-0.217082	0.872684	0.561569
C48	C	-0.217079	0.872679	0.469381
C49	C	-0.166715	0.926056	0.419694
C50	C	-0.166716	0.926064	0.604072
C51	C	-0.166715	0.926067	0.704028
C52	C	-0.166715	0.926053	0.319732
H53	H	-0.026156	0.705187	0.001866
H54	H	-0.777213	0.927895	-0.160730
H55	H	-0.285368	0.670962	0.020345
C56	C	-0.394650	0.921558	-0.139528
C57	C	-0.401320	0.989800	-0.204915
C58	C	-0.355916	0.989055	-0.295975
C59	C	-0.303843	0.920068	-0.321648
C60	C	-0.297171	0.851820	-0.256259
C61	C	-0.342575	0.852565	-0.165200
H62	H	-0.439869	1.040874	-0.185911
H63	H	-0.360855	1.039577	-0.344379
H64	H	-0.270233	0.919516	-0.389055
H65	H	-0.258622	0.800747	-0.275263
H66	H	-0.337636	0.802043	-0.116795
C67	C	-0.292790	0.508230	0.020862
C68	C	-0.307875	0.449419	-0.054113
C69	C	-0.382814	0.394079	-0.048781
C70	C	-0.442667	0.397549	0.031528
C71	C	-0.427584	0.456362	0.106509
C72	C	-0.352645	0.511702	0.101177
H73	H	-0.263567	0.446849	-0.113568
H74	H	-0.393979	0.350542	-0.104288
H75	H	-0.498141	0.356583	0.035475
H76	H	-0.471892	0.458932	0.165964
H77	H	-0.341479	0.555239	0.156683
C78	C	-0.326748	0.132546	0.023280
C79	C	-0.386592	0.136008	-0.048511
C80	C	-0.461521	0.080655	-0.043174
C81	C	-0.476607	0.021839	0.033955
C82	C	-0.416761	0.018375	0.105751
C83	C	-0.341831	0.073728	0.100413
H84	H	-0.375427	0.179549	-0.105611
H85	H	-0.505823	0.083220	-0.096322
H86	H	-0.532074	-0.019137	0.037906
H87	H	-0.427926	-0.025166	0.162851
H88	H	-0.297529	0.071163	0.153562
H89	H	-0.926997	0.930367	-0.150052
H90	H	-0.014109	0.556823	0.001009
C91	C	-0.394639	0.921549	0.195784
C92	C	-0.342560	0.852561	0.214024
C93	C	-0.297145	0.851805	0.298606
C94	C	-0.303810	0.920038	0.364948
C95	C	-0.355892	0.989031	0.346710
C96	C	-0.401307	0.989786	0.262128
H97	H	-0.337624	0.802047	0.164913
H98	H	-0.258591	0.800732	0.312107
H99	H	-0.270192	0.919478	0.427561
H100	H	-0.360828	1.039545	0.395821
H101	H	-0.439861	1.040860	0.248627
H102	H	-0.048073	0.181155	0.003422
H103	H	-0.060118	0.329508	0.004294
H104	H	-0.258089	0.829227	0.602033
C105	C	-0.568019	0.924417	0.208146
C106	C	-0.522611	0.923662	0.292727
C107	C	-0.568016	0.924400	0.383786
C108	C	-0.658829	0.925894	0.390264
C109	C	-0.704242	0.926649	0.305680
C110	C	-0.658838	0.925911	0.214621
H111	H	-0.455381	0.922556	0.287934
H112	H	-0.534397	0.923841	0.446401
H113	H	-0.692440	0.926441	0.457672
H114	H	-0.771472	0.927755	0.310473
H115	H	-0.692456	0.926470	0.152006
H116	H	-0.319327	0.295298	0.022759
H117	H	-0.556223	0.924237	-0.105201
H118	H	-0.926991	0.930339	0.139641
H119	H	-0.075338	1.022894	0.588979
C120	C	-0.060946	1.038138	0.407536
C121	C	-0.005543	1.096845	0.454287
C122	C	0.049866	1.155552	0.399634
C123	C	0.049873	1.155553	0.298230
C124	C	-0.005531	1.096844	0.251474
C125	C	-0.060941	1.038137	0.306127
H126	H	-0.005547	1.096846	0.529357
H127	H	0.090880	1.199013	0.434247
H128	H	0.090890	1.199012	0.257773
H129	H	-0.005528	1.096843	0.176404
H130	H	-0.101955	0.994676	0.271514
H131	H	-0.258091	0.829211	0.434778
H132	H	-0.777216	0.927893	0.128967
