data_functionalizedCrystal
_audit_creation_method	'MofGen! by Chris Wilmer'
_symmetry_space_group_name_H-M	'P1'
_symmetry_Int_Tables_number	1
_symmetry_cell_setting	triclinic
loop_
_symmetry_equiv_pos_as_xyz
  x,y,z
_cell_length_a	17.640112
_cell_length_b	14.908520
_cell_length_c	14.908308
_cell_angle_alpha	96.360765
_cell_angle_beta	76.272206
_cell_angle_gamma	76.198570
loop_
_atom_site_label
_atom_site_type_symbol
_atom_site_fract_x
_atom_site_fract_y
_atom_site_fract_z
Zn1	Zn	1.191174	0.097932	0.241324
Zn2	Zn	1.191082	0.240600	0.098717
Zn3	Zn	1.063946	0.120417	0.121089
Zn4	Zn	1.047319	0.284508	0.285176
O5	O	1.123380	0.185864	0.186577
O6	O	1.304573	0.089072	0.194692
O7	O	1.181137	0.215692	-0.026668
O8	O	1.087820	-0.010945	0.128050
O9	O	1.304505	0.193890	0.089919
O10	O	1.181294	-0.027465	0.216385
O11	O	1.087731	0.127394	-0.010231
O12	O	0.948329	0.169969	0.170571
O13	O	1.059482	0.268724	0.407712
O14	O	0.936114	0.290526	0.291125
O15	O	1.165172	0.131647	0.375494
O16	O	1.165015	0.374804	0.132441
O17	O	1.059393	0.407063	0.269431
C18	C	1.110410	0.424217	0.203281
C19	C	1.104934	0.526169	0.210440
C20	C	0.912815	0.237453	0.238035
C21	C	0.822732	0.259546	0.260072
C22	C	1.110482	0.202575	0.425814
C23	C	1.104986	0.209696	0.527762
C24	C	0.558147	0.018008	0.019168
C25	C	0.473498	0.038787	0.039889
C26	C	0.460835	0.164470	0.165231
C27	C	0.545484	0.143698	0.144523
C28	C	0.594133	0.070467	0.071490
C29	C	0.581470	0.196157	0.196845
C30	C	0.666112	0.175390	0.176136
C31	C	0.714767	0.102164	0.103104
C32	C	0.678775	0.049699	0.050781
C33	C	0.532819	0.269393	0.269874
C34	C	0.568806	0.321852	0.322196
C35	C	0.653449	0.301081	0.301491
C36	C	0.702104	0.227854	0.228460
C37	C	0.689441	0.353545	0.353815
C38	C	0.774083	0.332778	0.333105
C39	C	0.786746	0.207087	0.207750
C40	C	1.334768	0.134075	0.134918
C41	C	1.424848	0.112006	0.112904
C42	C	1.136422	-0.053423	0.169822
C43	C	1.141980	-0.155393	0.162681
C44	C	1.204730	0.684076	0.081313
C45	C	1.199588	0.779869	0.088035
C46	C	1.089512	0.813547	0.230611
C47	C	1.094654	0.717754	0.223889
C48	C	1.152264	0.653022	0.149236
C49	C	1.157402	0.557229	0.142510
C50	C	1.047331	0.590908	0.285089
C51	C	1.042188	0.686700	0.291812
C52	C	1.136278	0.169140	-0.051745
C53	C	1.141946	0.161722	-0.153750
C54	C	1.204711	0.080320	0.685786
C55	C	1.199550	0.087007	0.781575
C56	C	1.089498	0.229754	0.815131
C57	C	1.094660	0.223067	0.719342
C58	C	1.152269	0.148348	0.654672
C59	C	1.157434	0.141665	0.558881
C60	C	1.047379	0.284407	0.592439
C61	C	1.042217	0.291095	0.688228
H62	H	0.826359	0.147442	0.148292
H63	H	0.421213	0.224098	0.224692
H64	H	0.597760	-0.041638	-0.040290
H65	H	1.004678	0.339803	0.567097
H66	H	0.529184	0.381480	0.381657
C67	C	0.806655	0.079808	0.080617
C68	C	0.831188	0.158601	0.056361
C69	C	0.915827	0.138047	0.035649
H70	H	0.830572	0.028728	0.029611
H71	H	0.823511	0.063511	0.134042
H72	H	0.814340	0.174886	0.002942
H73	H	0.807293	0.209691	0.107354
H74	H	0.932683	0.121750	0.089073
H75	H	0.939736	0.086965	-0.015356
H76	H	0.932483	0.191506	0.019197
H77	H	0.718389	-0.009946	-0.008677
C78	C	0.979520	0.756894	0.372831
C79	C	0.901678	0.751912	0.370752
C80	C	0.843925	0.816549	0.445380
H81	H	0.983856	0.818439	0.367197
H82	H	0.988805	0.742563	0.430504
H83	H	0.892396	0.766250	0.313093
H84	H	0.897315	0.690382	0.376399
H85	H	0.853210	0.802218	0.503053
H86	H	0.848269	0.878089	0.439739
H87	H	0.791104	0.813172	0.443985
C88	C	1.219823	0.486922	0.061379
C89	C	1.180102	0.439137	0.009876
C90	C	1.237579	0.374374	-0.064876
H91	H	1.255247	0.443225	0.085137
H92	H	1.250325	0.519110	0.021839
H93	H	1.149614	0.406951	0.049410
H94	H	1.144682	0.482810	-0.013904
H95	H	1.268081	0.406562	-0.104416
H96	H	1.273001	0.330683	-0.041109
H97	H	1.210637	0.341951	-0.099835
H98	H	0.803383	0.375494	0.375712
H99	H	0.995312	0.351927	0.740895
C100	C	1.267355	-0.000670	0.615507
C101	C	1.319443	0.034713	0.551474
C102	C	1.377168	-0.039867	0.486728
H103	H	1.240647	-0.035704	0.582815
H104	H	1.297900	-0.040223	0.647718
H105	H	1.288902	0.074250	0.519266
H106	H	1.346170	0.069739	0.584138
H107	H	1.407713	-0.079420	0.518940
H108	H	1.350453	-0.074897	0.454044
H109	H	1.412521	-0.015871	0.443280
H110	H	1.042613	0.866266	0.291395
C111	C	1.267144	0.613767	0.000179
C112	C	1.227412	0.565984	-0.051312
C113	C	1.284880	0.501218	-0.126068
H114	H	1.302572	0.570068	0.023932
H115	H	1.297644	0.645951	-0.039369
H116	H	1.196926	0.533801	-0.011771
H117	H	1.191989	0.609658	-0.075088
H118	H	1.315380	0.533402	-0.165615
H119	H	1.320305	0.457525	-0.102306
H120	H	1.257931	0.468796	-0.161018
C121	C	1.219853	0.060511	0.488580
C122	C	1.180126	0.009135	0.440672
C123	C	1.237599	-0.065628	0.375899
H124	H	1.250372	0.020854	0.520720
H125	H	1.255264	0.084309	0.444986
H126	H	1.144729	-0.014663	0.484260
H127	H	1.149611	0.048765	0.408513
H128	H	1.273010	-0.041830	0.332305
H129	H	1.268114	-0.105277	0.408046
H130	H	1.210653	-0.100491	0.343379
H131	H	0.444202	-0.003943	-0.002717
C132	C	0.990463	0.557002	0.358774
C133	C	1.007305	0.459255	0.336923
C134	C	0.954942	0.427987	0.404782
H135	H	0.935871	0.585066	0.359766
H136	H	0.998122	0.574022	0.418640
H137	H	0.999639	0.442243	0.277073
H138	H	1.061888	0.431166	0.335938
H139	H	0.962601	0.445007	0.464648
H140	H	0.900353	0.456057	0.405768
H141	H	0.966367	0.361662	0.389970
H142	H	1.242252	0.031610	0.806903
H143	H	1.042595	0.290586	0.867800
H144	H	0.649818	0.413176	0.413272
C145	C	0.440924	0.291788	0.292448
C146	C	0.416376	0.213020	0.316760
C147	C	0.331729	0.233623	0.337574
H148	H	0.423999	0.308093	0.239077
H149	H	0.417080	0.342886	0.343464
H150	H	0.440212	0.161938	0.265749
H151	H	0.433280	0.196703	0.370135
H152	H	0.307885	0.284721	0.388590
H153	H	0.314812	0.249929	0.284200
H154	H	0.315062	0.180186	0.354080
H155	H	1.242312	0.805148	0.032726
