data_functionalizedCrystal
_audit_creation_method	'MofGen! by Chris Wilmer'
_symmetry_space_group_name_H-M	'P1'
_symmetry_Int_Tables_number	1
_symmetry_cell_setting	triclinic
loop_
_symmetry_equiv_pos_as_xyz
  x,y,z
_cell_length_a	10.654550
_cell_length_b	13.330367
_cell_length_c	10.654550
_cell_angle_alpha	89.993833
_cell_angle_beta	84.484903
_cell_angle_gamma	90.010510
loop_
_atom_site_label
_atom_site_type_symbol
_atom_site_fract_x
_atom_site_fract_y
_atom_site_fract_z
O1	O	1.667848	0.083503	0.176380
O2	O	1.302369	0.083487	0.193186
O3	O	1.493511	0.083492	0.002044
O4	O	1.476705	0.083498	0.367523
O5	O	1.493482	-0.083355	0.002075
O6	O	1.302340	-0.083360	0.193217
O7	O	1.667818	-0.083344	0.176411
Cu8	Cu	1.485076	-0.098586	0.184817
Cu9	Cu	1.485111	0.098730	0.184781
O10	O	1.476676	-0.083349	0.367553
C11	C	1.255556	0.000061	0.191968
C12	C	1.116113	0.000055	0.188276
N13	N	1.485061	-0.237368	0.184841
C14	C	1.036627	0.000072	0.300817
C15	C	0.905607	0.000089	0.297341
C16	C	0.933570	0.000077	0.068771
C17	C	1.064588	0.000053	0.072249
C18	C	1.020482	0.000083	0.432780
C19	C	0.889461	0.000100	0.429304
C20	C	1.561958	-0.709975	0.261638
C21	C	1.408301	-0.709974	0.107872
C22	C	1.408283	-0.604956	0.107892
C23	C	1.485105	-0.552442	0.184784
C24	C	1.561945	-0.604947	0.261657
C25	C	1.331454	-0.552444	0.031011
C26	C	1.331434	-0.447419	0.031026
C27	C	1.408250	-0.394903	0.107926
C28	C	1.485092	-0.447414	0.184803
C29	C	1.561914	-0.394901	0.261696
C30	C	1.638750	-0.447410	0.338580
C31	C	1.638761	-0.552432	0.338557
C32	C	1.408239	-0.289882	0.107949
C33	C	1.561901	-0.289873	0.261715
C34	C	1.714631	0.000084	0.177630
C35	C	1.854074	0.000097	0.181321
C36	C	1.492263	0.000069	-0.044739
C37	C	1.488571	0.000073	-0.184182
N38	N	1.485136	0.237511	0.184746
C39	C	1.601112	0.000075	-0.263668
C40	C	1.597636	0.000082	-0.394688
C41	C	1.369066	0.000080	-0.366725
C42	C	1.372544	0.000081	-0.235707
C43	C	1.733075	0.000071	-0.279813
C44	C	1.729599	0.000078	-0.410834
C45	C	1.477925	0.000076	0.414336
C46	C	1.481616	0.000079	0.553779
H47	H	1.129302	0.000025	-0.019393
H48	H	0.891602	0.000091	-0.025694
H49	H	1.784703	0.069894	-0.250468
H50	H	1.049801	-0.069745	0.484404
H51	H	1.779308	-0.069744	-0.452581
H52	H	1.268921	-0.595208	-0.031602
H53	H	1.056150	0.072119	0.474786
H54	H	0.843777	-0.071931	0.469198
H55	H	1.274601	0.000087	-0.408693
H56	H	1.701304	-0.404640	0.401181
H57	H	1.769492	0.072120	-0.456490
H58	H	1.624512	-0.752733	0.324240
H59	H	0.847741	0.069932	0.479013
H60	H	1.624453	-0.247123	0.324337
H61	H	1.701320	-0.595194	0.401150
H62	H	1.345765	-0.752737	0.045262
H63	H	1.268869	-0.404675	-0.031578
H64	H	1.345684	-0.247133	0.045347
H65	H	1.775084	-0.071968	-0.244173
H66	H	1.280902	0.000093	-0.170993
