data_functionalizedCrystal
_audit_creation_method	'MofGen! by Chris Wilmer'
_symmetry_space_group_name_H-M	'P1'
_symmetry_Int_Tables_number	1
_symmetry_cell_setting	triclinic
loop_
_symmetry_equiv_pos_as_xyz
  x,y,z
_cell_length_a	13.262390
_cell_length_b	17.038272
_cell_length_c	12.376457
_cell_angle_alpha	102.103643
_cell_angle_beta	63.168449
_cell_angle_gamma	87.643524
loop_
_atom_site_label
_atom_site_type_symbol
_atom_site_fract_x
_atom_site_fract_y
_atom_site_fract_z
O1	O	1.513980	0.016515	-0.559493
O2	O	1.189463	0.043809	-0.459719
O3	O	1.349791	-0.083564	-0.509004
O4	O	1.353652	0.143888	-0.510209
O5	O	1.309720	-0.051762	-0.308674
O6	O	1.149392	0.075611	-0.259390
O7	O	1.473910	0.048317	-0.359163
Zn8	Zn	1.305289	0.067013	-0.277470
Zn9	Zn	1.358084	0.025113	-0.541413
O10	O	1.313582	0.175690	-0.309879
C11	C	1.127700	0.061105	-0.346725
C12	C	1.003365	0.065252	-0.308498
C13	C	0.740265	0.007587	-0.637559
C14	C	0.857085	0.003687	-0.673477
C15	C	0.893661	0.019078	-0.582235
C16	C	0.813405	0.038370	-0.455069
C17	C	0.696574	0.042264	-0.419147
C18	C	0.849970	0.053755	-0.363824
C19	C	0.769714	0.073047	-0.236658
C20	C	0.652895	0.076941	-0.200742
C21	C	0.616319	0.061550	-0.291984
C22	C	0.966801	0.049860	-0.399746
C23	C	0.923110	0.084538	-0.181334
C24	C	0.806290	0.088438	-0.145416
C25	C	1.326247	-0.096631	-0.407760
C26	C	1.315780	-0.182947	-0.404542
C27	C	1.411882	-0.237441	-0.434088
C28	C	1.402042	-0.318545	-0.431073
C29	C	1.296098	-0.345152	-0.398504
C30	C	1.199990	-0.290652	-0.368961
C31	C	1.209833	-0.209551	-0.371984
C32	C	1.261329	-0.589328	-0.387830
C33	C	1.251493	-0.670435	-0.384805
C34	C	1.453546	-0.698322	-0.446921
C35	C	1.463378	-0.617217	-0.449934
C36	C	1.367271	-0.562726	-0.420396
C37	C	1.286038	-0.428052	-0.395419
C38	C	1.377335	-0.479828	-0.423491
C39	C	1.535673	0.031021	-0.472160
C40	C	1.660010	0.026873	-0.510395
C41	C	1.337126	0.188757	-0.411125
C42	C	1.347595	0.275072	-0.414351
N43	N	1.269266	0.095608	-0.097338
N44	N	1.394115	-0.003489	-0.721547
C45	C	1.477734	-0.069882	0.193565
C46	C	1.502940	-0.089896	0.067477
C47	C	1.444524	-0.043521	0.026267
C48	C	1.360897	0.022870	0.111157
C49	C	1.335694	0.042889	0.237256
C50	C	1.302484	0.069250	0.069958
C51	C	1.218857	0.135641	0.154849
C52	C	1.193658	0.155657	0.280934
C53	C	1.252075	0.109283	0.322144
C54	C	1.327686	0.049230	-0.056141
C55	C	1.185647	0.162002	-0.012450
C56	C	1.160441	0.182015	0.113638
H57	H	0.952888	0.097069	-0.107037
H58	H	1.032135	0.034155	-0.503285
F59	F	1.591938	-0.160550	-0.022865
H60	H	0.740929	0.104145	-0.041875
F61	F	1.524640	-0.209130	-0.468740
F62	F	0.942491	-0.016847	-0.808811
H63	H	1.395776	-0.004825	-0.125249
F64	F	0.491985	0.065705	-0.253761
F65	F	1.539906	-0.119225	0.237427
H66	H	0.710473	-0.004950	-0.711834
H67	H	0.587553	0.092635	-0.097195
F68	F	1.225244	0.130580	0.456345
H69	H	1.549648	-0.595561	-0.476455
H70	H	1.465050	-0.059820	-0.076401
F71	F	1.138727	-0.698748	-0.350134
F72	F	1.504327	-0.376538	-0.462518
H73	H	1.531791	-0.742698	-0.470971
F74	F	1.159042	-0.531344	-0.356396
F75	F	1.104668	0.226323	0.371278
H76	H	1.092350	0.236073	0.182772
H77	H	1.113730	-0.312323	-0.342450
H78	H	1.131576	-0.165182	-0.347925
F79	F	1.173288	-0.456377	-0.360762
F80	F	1.017992	0.014928	-0.620467
F81	F	1.490086	-0.451510	-0.458159
F82	F	1.123475	0.211362	-0.056303
