data_functionalizedCrystal
_audit_creation_method	'MofGen! by Chris Wilmer'
_symmetry_space_group_name_H-M	'P1'
_symmetry_Int_Tables_number	1
_symmetry_cell_setting	triclinic
loop_
_symmetry_equiv_pos_as_xyz
  x,y,z
_cell_length_a	10.540510
_cell_length_b	10.540510
_cell_length_c	17.766277
_cell_angle_alpha	89.996163
_cell_angle_beta	89.990410
_cell_angle_gamma	84.513311
loop_
_atom_site_label
_atom_site_type_symbol
_atom_site_fract_x
_atom_site_fract_y
_atom_site_fract_z
O1	O	1.685899	0.178725	-0.062594
O2	O	1.316479	0.195620	-0.062594
O3	O	1.509637	0.002463	-0.062594
O4	O	1.492741	0.371882	-0.062595
O5	O	1.509602	0.002452	0.062594
O6	O	1.316445	0.195610	0.062594
O7	O	1.685865	0.178715	0.062594
Cu8	Cu	1.501152	0.187161	0.074025
Cu9	Cu	1.501192	0.187174	-0.074025
O10	O	1.492707	0.371872	0.062594
C11	C	1.269159	0.194356	-0.000000
C12	C	1.128209	0.190589	-0.000000
C13	C	0.910739	0.324775	-0.000288
C14	C	1.057334	0.328793	-0.000002
C15	C	1.083437	0.119836	0.071487
C16	C	0.936677	0.116797	0.071542
C17	C	0.936910	0.113931	-0.070821
C18	C	1.083250	0.120486	-0.071761
C19	C	1.508361	-0.044846	-0.000001
C20	C	1.504594	-0.185795	-0.000006
C21	C	1.638780	-0.403265	0.000281
C22	C	1.642798	-0.256670	-0.000005
C23	C	1.433866	-0.230541	-0.071493
C24	C	1.430827	-0.377301	-0.071549
C25	C	1.427910	-0.377121	0.070814
C26	C	1.434465	-0.230781	0.071754
C27	C	1.733185	0.179979	-0.000002
C28	C	1.874135	0.183746	-0.000007
C29	C	1.493983	0.419181	-0.000001
C30	C	1.497750	0.560130	-0.000001
N31	N	1.501132	0.187152	0.178155
N32	N	1.501221	0.187173	-0.178155
C33	C	1.586691	0.101665	0.217542
C34	C	1.586698	0.101659	0.296344
C35	C	1.501159	0.187163	0.335756
C36	C	1.415584	0.272656	0.296359
C37	C	1.415571	0.272651	0.217559
C38	C	1.485562	0.302630	0.460593
C39	C	1.485584	0.302637	0.539392
C40	C	1.501193	0.187178	0.578802
C41	C	1.516807	0.071708	0.539403
C42	C	1.516794	0.071703	0.460603
C43	C	1.501164	0.187177	0.421201
C44	C	1.586764	0.101677	0.703635
C45	C	1.586763	0.101670	0.782438
C46	C	1.415655	0.272678	0.782452
C47	C	1.415651	0.272675	0.703650
C48	C	1.501212	0.187176	0.664246
H49	H	1.111878	0.171965	-0.124647
O50	O	1.678998	0.009458	0.338834
H51	H	1.625032	-0.052765	0.374747
O52	O	0.853099	0.395694	0.067235
H53	H	0.930236	0.429631	0.102257
H54	H	1.345897	0.342267	0.185489
O55	O	0.907583	-0.023515	-0.071455
H56	H	0.998023	-0.086699	-0.069608
O57	O	1.148264	-0.013167	-0.077476
H58	H	1.203195	-0.023232	-0.130797
O59	O	1.485755	-0.433345	0.142589
H60	H	1.434865	-0.387535	0.191682
O61	O	0.855181	0.396121	-0.068194
H62	H	0.790489	0.479344	-0.049363
H63	H	0.913691	0.013429	0.074790
H64	H	1.698139	-0.227336	0.051238
H65	H	1.085718	0.384472	0.051329
O66	O	1.533611	-0.052828	0.418105
H67	H	1.544457	-0.133119	0.458741
H68	H	1.472878	0.396659	0.571465
O69	O	0.883385	0.180833	0.142328
H70	H	0.833147	0.111961	0.175686
O71	O	1.146237	-0.014927	0.075028
H72	H	1.210182	-0.032948	0.025757
H73	H	1.485929	-0.202179	0.124640
O74	O	1.124261	0.184908	0.141963
H75	H	1.176423	0.267627	0.126256
H76	H	1.692608	-0.445230	0.051548
H77	H	1.327459	-0.400285	-0.074788
H78	H	1.086688	0.384144	-0.051248
H79	H	0.894372	0.157518	-0.125005
H80	H	1.692326	-0.446772	-0.050696
H81	H	1.324145	-0.399260	0.071295
O82	O	1.716544	-0.219024	-0.068007
H83	H	1.749464	-0.305574	-0.100820
H84	H	1.346003	0.342292	0.814540
H85	H	1.483012	-0.199685	-0.124694
H86	H	1.479190	-0.417517	-0.124987
O87	O	1.299098	-0.167752	-0.075029
H88	H	1.281059	-0.103831	-0.025755
H89	H	1.333564	-0.181704	0.076071
O90	O	1.678954	0.009436	0.175040
H91	H	1.738440	-0.050020	0.215673
H92	H	1.529517	-0.022310	0.571489
H93	H	1.656430	0.032055	0.671551
O94	O	1.679061	0.009475	0.824926
H95	H	1.738563	-0.049961	0.784284
O96	O	1.323384	0.364894	0.661160
H97	H	1.263911	0.424359	0.701802
O98	O	1.468734	0.427168	0.418088
H99	H	1.457903	0.507459	0.458721
H100	H	1.345935	0.342273	0.328452
