data_functionalizedCrystal
_audit_creation_method	'MofGen! by Chris Wilmer'
_symmetry_space_group_name_H-M	'P1'
_symmetry_Int_Tables_number	1
_symmetry_cell_setting	triclinic
loop_
_symmetry_equiv_pos_as_xyz
  x,y,z
_cell_length_a	10.654546
_cell_length_b	10.654551
_cell_length_c	14.048226
_cell_angle_alpha	89.996418
_cell_angle_beta	89.992635
_cell_angle_gamma	84.484422
loop_
_atom_site_label
_atom_site_type_symbol
_atom_site_fract_x
_atom_site_fract_y
_atom_site_fract_z
O1	O	1.667848	0.176381	-0.079175
O2	O	2.167848	0.676381	0.420825
O3	O	1.302369	0.193191	-0.079172
O4	O	1.802369	0.693191	0.420828
O5	O	1.493511	0.002047	-0.079174
O6	O	1.993511	0.502047	0.420826
O7	O	1.476706	0.367525	-0.079173
O8	O	1.976706	0.867525	0.420827
O9	O	1.493487	0.002035	0.079147
O10	O	1.993487	0.502035	0.579147
O11	O	1.302345	0.193180	0.079150
O12	O	1.802345	0.693180	0.579150
O13	O	1.667824	0.176369	0.079146
O14	O	2.167824	0.676369	0.579146
Zn15	Zn	1.485081	0.184772	0.104285
Zn16	Zn	1.985081	0.684772	0.604285
Zn17	Zn	1.485112	0.184788	-0.104310
Zn18	Zn	1.985112	0.684788	0.395690
O19	O	1.476683	0.367514	0.079149
O20	O	1.976683	0.867514	0.579149
C21	C	1.255559	0.191952	-0.000011
C22	C	1.755559	0.691952	0.499989
C23	C	1.116116	0.188262	-0.000010
C24	C	1.616116	0.688262	0.499990
C25	C	1.050634	0.186522	-0.086315
C26	C	1.550634	0.686522	0.413685
C27	C	0.919613	0.183045	-0.086323
C28	C	1.419613	0.683045	0.413677
C29	C	0.919568	0.183042	0.086288
C30	C	1.419568	0.683042	0.586288
C31	C	1.050586	0.186529	0.086295
C32	C	1.550586	0.686529	0.586295
C33	C	1.116163	0.188255	-0.172619
C34	C	1.616163	0.688255	0.327381
C35	C	1.050681	0.186514	-0.258932
C36	C	1.550681	0.686514	0.241068
C37	C	0.919661	0.183037	-0.258939
C38	C	1.419661	0.683037	0.241061
C39	C	0.854122	0.181301	-0.172635
C40	C	1.354122	0.681301	0.327365
C41	C	1.492265	-0.044757	-0.000015
C42	C	1.992265	0.455243	0.499985
C43	C	1.488572	-0.184200	-0.000022
C44	C	1.988572	0.315800	0.499978
C45	C	1.486853	-0.249706	-0.086321
C46	C	1.986853	0.250294	0.413679
C47	C	1.483373	-0.380726	-0.086317
C48	C	1.983373	0.119274	0.413683
C49	C	1.483337	-0.380724	0.086294
C50	C	1.983337	0.119276	0.586294
C51	C	1.486808	-0.249705	0.086289
C52	C	1.986808	0.250295	0.586289
C53	C	1.488617	-0.184201	-0.172631
C54	C	1.988617	0.315799	0.327369
C55	C	1.486899	-0.249707	-0.258938
C56	C	1.986899	0.250293	0.241062
C57	C	1.483419	-0.380727	-0.258933
C58	C	1.983419	0.119273	0.241067
C59	C	1.481657	-0.446241	-0.172623
C60	C	1.981657	0.053759	0.327377
C61	C	1.714634	0.177608	-0.000017
C62	C	2.214634	0.677608	0.499983
C63	C	1.854078	0.181298	-0.000024
C64	C	2.354078	0.681298	0.499976
C65	C	1.477928	0.414317	-0.000012
C66	C	1.977928	0.914317	0.499988
C67	C	1.481621	0.553760	-0.000012
C68	C	1.981621	1.053760	0.499988
N69	N	1.485070	0.184761	0.246646
N70	N	1.985070	0.684761	0.746646
N71	N	1.485134	0.184789	-0.246671
N72	N	1.985134	0.684789	0.253329
C73	C	1.569734	0.100158	0.296463
C74	C	2.069734	0.600158	0.796463
C75	C	1.569743	0.100157	0.396120
C76	C	2.069743	0.600157	0.896120
C77	C	1.485092	0.184767	0.445959
C78	C	1.985092	0.684767	0.945959
C79	C	1.400418	0.269375	0.396135
C80	C	1.900418	0.769375	0.896135
C81	C	1.400404	0.269368	0.296479
C82	C	1.900404	0.769368	0.796479
C83	C	1.400454	0.269384	0.603849
C84	C	1.900454	0.769384	1.103849
C85	C	1.400469	0.269392	0.703512
C86	C	1.900469	0.769392	1.203512
C87	C	1.569793	0.100173	0.703490
C88	C	2.069793	0.600173	1.203490
C89	C	1.569779	0.100167	0.603835
C90	C	2.069779	0.600167	1.103835
C91	C	1.485106	0.184776	0.554017
C92	C	1.985106	0.684776	1.054017
H93	H	1.104050	0.187938	-0.329197
H94	H	1.604050	0.687938	0.170803
F95	F	0.849972	0.181198	-0.350798
F96	F	1.349972	0.681198	0.149202
F97	F	1.310318	0.359418	0.449178
F98	F	1.810318	0.859418	0.949178
H99	H	0.747434	0.178483	-0.172648
H100	H	1.247434	0.678483	0.327352
H101	H	1.491454	-0.077518	-0.172645
H102	H	1.991454	0.422482	0.327355
H103	H	1.488322	-0.196355	-0.329208
H104	H	1.988322	0.303645	0.170792
H105	H	1.481903	-0.434077	0.156564
H106	H	1.981903	0.065923	0.656564
H107	H	1.478804	-0.552925	-0.172626
H108	H	1.978804	-0.052925	0.327374
H109	H	1.103902	0.187952	0.156572
H110	H	1.603902	0.687952	0.656572
H111	H	1.488181	-0.196366	0.156561
H112	H	1.988181	0.303634	0.656561
H113	H	1.638672	0.031264	0.255890
H114	H	2.138672	0.531264	0.755890
F115	F	1.310288	0.359412	0.243462
F116	F	1.810288	0.859412	0.743462
H117	H	1.638682	0.031266	0.436681
H118	H	2.138682	0.531266	0.936681
F119	F	0.849814	0.181191	0.178133
F120	F	1.349814	0.681191	0.678133
H121	H	1.638714	0.031278	0.563256
H122	H	2.138714	0.531278	1.063256
F123	F	1.255607	0.191952	-0.172618
F124	F	1.755607	0.691952	0.327382
H125	H	1.482007	-0.434057	-0.329208
H126	H	1.982007	0.065943	0.170792
H127	H	1.638735	0.031282	0.744057
H128	H	2.138735	0.531282	1.244057
H129	H	1.331536	0.338289	0.744086
H130	H	1.831536	0.838289	1.244086
H131	H	1.331500	0.338278	0.563291
H132	H	1.831500	0.838278	1.063291
