data_functionalizedCrystal
_audit_creation_method	'MofGen! by Chris Wilmer'
_symmetry_space_group_name_H-M	'P1'
_symmetry_Int_Tables_number	1
_symmetry_cell_setting	triclinic
loop_
_symmetry_equiv_pos_as_xyz
  x,y,z
_cell_length_a	9.065218
_cell_length_b	11.295483
_cell_length_c	9.065218
_cell_angle_alpha	94.157802
_cell_angle_beta	94.984115
_cell_angle_gamma	94.166271
loop_
_atom_site_label
_atom_site_type_symbol
_atom_site_fract_x
_atom_site_fract_y
_atom_site_fract_z
O1	O	1.970208	0.099023	-0.206553
O2	O	1.540923	0.099024	-0.224299
O3	O	1.764438	0.099021	-0.000784
O4	O	1.746692	0.099026	-0.430068
O5	O	1.744806	-0.099029	-0.020385
O6	O	1.521291	-0.099026	-0.243900
O7	O	1.950575	-0.099028	-0.226154
Cu8	Cu	1.734140	-0.117111	-0.236817
Cu9	Cu	1.757358	0.117107	-0.213636
O10	O	1.727060	-0.099025	-0.449669
C11	C	1.476120	-0.000001	-0.232394
C12	C	1.312277	-0.000000	-0.227294
N13	N	1.717821	-0.281847	-0.253120
C14	C	1.891162	-0.531138	-0.079879
C15	C	1.878840	-0.655802	-0.092210
C16	C	1.680849	-0.655839	-0.290105
C17	C	1.693171	-0.531176	-0.277774
C18	C	1.798332	-0.468830	-0.172659
C19	C	1.810660	-0.344164	-0.160336
C20	C	1.612664	-0.344204	-0.358224
C21	C	1.600342	-0.468867	-0.370555
C22	C	2.015378	0.000000	-0.218059
C23	C	2.179222	0.000007	-0.223158
C24	C	1.752917	-0.000002	0.044402
C25	C	1.747818	0.000003	0.208246
N26	N	1.773688	0.281843	-0.197321
C27	C	1.738582	0.000001	-0.494855
C28	C	1.743682	0.000004	-0.658698
H29	H	1.896291	-0.293403	-0.074750
H30	H	1.537080	-0.293458	-0.433776
O31	O	1.498120	-0.529569	-0.472468
C32	C	1.283063	-0.670301	-0.515001
C33	C	1.398754	-0.601654	-0.399427
H34	H	1.202676	-0.728579	-0.455989
H35	H	1.341901	-0.728737	-0.595352
H36	H	1.218901	-0.604330	-0.579230
H37	H	1.462951	-0.667539	-0.335092
H38	H	1.339828	-0.543200	-0.319175
H39	H	1.976798	-0.480375	0.005700
H40	H	1.954429	-0.706530	-0.016657
H41	H	1.595220	-0.706618	-0.375678
