data_functionalizedCrystal
_audit_creation_method	'MofGen! by Chris Wilmer'
_symmetry_space_group_name_H-M	'P1'
_symmetry_Int_Tables_number	1
_symmetry_cell_setting	triclinic
loop_
_symmetry_equiv_pos_as_xyz
  x,y,z
_cell_length_a	18.215407
_cell_length_b	14.908178
_cell_length_c	18.215399
_cell_angle_alpha	93.325522
_cell_angle_beta	90.019833
_cell_angle_gamma	93.314324
loop_
_atom_site_label
_atom_site_type_symbol
_atom_site_fract_x
_atom_site_fract_y
_atom_site_fract_z
Zn1	Zn	1.108200	-0.359185	0.399200
Zn2	Zn	1.608200	0.140815	0.899200
Zn3	Zn	1.101021	-0.510066	0.269028
Zn4	Zn	1.601021	-0.010066	0.769028
Zn5	Zn	0.985131	-0.359215	0.276146
Zn6	Zn	1.485131	0.140785	0.776146
Zn7	Zn	0.978014	-0.510015	0.392055
Zn8	Zn	1.478014	-0.010015	0.892055
O9	O	1.043092	-0.434620	0.334107
O10	O	1.543092	0.065380	0.834107
O11	O	1.210232	-0.379209	0.381944
O12	O	1.710232	0.120791	0.881944
O13	O	1.085623	-0.490088	0.166986
O14	O	1.585623	0.009912	0.666986
O15	O	1.007440	-0.232956	0.298438
O16	O	1.507440	0.267044	0.798438
O17	O	1.204957	-0.490060	0.286307
O18	O	1.704957	0.009940	0.786307
O19	O	1.097858	-0.232935	0.388846
O20	O	1.597858	0.267065	0.888846
O21	O	1.000479	-0.379259	0.172216
O22	O	1.500479	0.120741	0.672216
O23	O	0.881203	-0.379210	0.291510
O24	O	1.381203	0.120790	0.791510
O25	O	0.995309	-0.489974	0.495989
O26	O	1.495309	0.010026	0.995989
O27	O	0.875974	-0.490003	0.376669
O28	O	1.375974	0.009997	0.876669
O29	O	1.090956	-0.379160	0.501238
O30	O	1.590956	0.120840	1.001238
O31	O	1.078721	-0.636314	0.279379
O32	O	1.578721	-0.136314	0.779379
O33	O	0.988348	-0.636277	0.369767
O34	O	1.488348	-0.136277	0.869767
C35	C	0.851886	-0.434605	0.334087
C36	C	1.351886	0.065395	0.834087
C37	C	0.770086	-0.434620	0.334095
C38	C	1.270086	0.065380	0.834095
C39	C	0.579185	-0.492400	0.378373
C40	C	1.079185	0.007600	0.878373
C41	C	0.502326	-0.492403	0.378382
C42	C	1.002326	0.007597	0.878382
C43	C	0.507750	-0.376857	0.289857
C44	C	1.007750	0.123143	0.789857
C45	C	0.584607	-0.376850	0.289852
C46	C	1.084607	0.123150	0.789852
C47	C	0.620323	-0.434627	0.334109
C48	C	1.120323	0.065373	0.834109
C49	C	0.466606	-0.434636	0.334123
C50	C	0.966606	0.065364	0.834123
C51	C	0.383272	-0.434639	0.334132
C52	C	0.883272	0.065361	0.834132
C53	C	0.703662	-0.434623	0.334101
C54	C	1.203662	0.065377	0.834101
C55	C	1.032003	-0.669031	0.323041
C56	C	1.532003	-0.169031	0.823041
C57	C	1.027327	-0.769314	0.318331
C58	C	1.527327	-0.269314	0.818331
C59	C	1.112620	-0.957582	0.403724
C60	C	1.612620	-0.457582	0.903724
C61	C	1.108229	-1.051806	0.399301
C62	C	1.608229	-0.551806	0.899301
C63	C	1.014149	-1.051987	0.305068
C64	C	1.514149	-0.551987	0.805068
C65	C	1.018541	-0.957763	0.309490
C66	C	1.518541	-0.457763	0.809490
C67	C	1.067779	-0.910564	0.358819
C68	C	1.567779	-0.410564	0.858819
C69	C	1.072173	-0.816338	0.363238
C70	C	1.572173	-0.316338	0.863238
C71	C	0.978090	-0.816521	0.269009
C72	C	1.478090	-0.316521	0.769009
C73	C	0.973699	-0.910745	0.264586
C74	C	1.473699	-0.410745	0.764586
C75	C	1.235044	-0.434636	0.334128
C76	C	1.735044	0.065364	0.834128
C77	C	1.316842	-0.434643	0.334137
C78	C	1.816842	0.065357	0.834137
C79	C	1.043139	-0.434558	0.526063
C80	C	1.543139	0.065442	1.026063
C81	C	1.043160	-0.434532	0.607863
C82	C	1.543160	0.065468	1.107863
C83	C	1.054244	-0.199294	0.345233
C84	C	1.554244	0.300706	0.845233
C85	C	1.058996	-0.099012	0.349974
C86	C	1.558996	0.400988	0.849974
C87	C	1.043089	-0.434617	0.142901
C88	C	1.543089	0.065383	0.642901
C89	C	1.043224	-0.434389	0.061114
C90	C	1.543224	0.065611	0.561114
C91	C	1.092983	-0.376777	0.798795
C92	C	1.592983	0.123223	1.298795
C93	C	1.092993	-0.376750	0.875655
C94	C	1.592993	0.123250	1.375655
C95	C	0.993395	-0.492147	0.870177
C96	C	1.493395	0.007853	1.370177
C97	C	0.993382	-0.492168	0.793319
C98	C	1.493382	0.007832	1.293319
C99	C	1.043180	-0.434484	0.757629
C100	C	1.543180	0.065516	1.257629
C101	C	1.043203	-0.434437	0.911348
C102	C	1.543203	0.065563	1.411348
C103	C	1.043214	-0.434409	0.994683
C104	C	1.543214	0.065591	1.494683
C105	C	1.043169	-0.434511	0.674289
C106	C	1.543169	0.065489	1.174289
H107	H	0.478661	-0.329818	0.253823
H108	H	0.978661	0.170182	0.753823
H109	H	1.133546	-0.329758	0.909168
H110	H	1.633546	0.170242	1.409168
H111	H	0.468834	-0.539447	0.414428
H112	H	0.968834	-0.039447	0.914428
C113	C	0.629147	-0.314087	0.241711
C114	C	1.129147	0.185913	0.741711
C115	C	0.581419	-0.263512	0.202935
C116	C	1.081419	0.236488	0.702935
C117	C	0.622422	-0.205695	0.158577
C118	C	1.122422	0.294305	0.658577
H119	H	0.661003	-0.274738	0.271690
H120	H	1.161003	0.225262	0.771690
H121	H	0.657472	-0.348529	0.207935
H122	H	1.157472	0.151471	0.707935
H123	H	0.553106	-0.229072	0.236707
H124	H	1.053106	0.270928	0.736707
H125	H	0.549563	-0.302837	0.172942
H126	H	1.049563	0.197163	0.672942
H127	H	0.650747	-0.240138	0.124801
H128	H	1.150747	0.259862	0.624801
H129	H	0.654276	-0.166352	0.188561
H130	H	1.154276	0.333648	0.688561
H131	H	0.590045	-0.171379	0.132257
H132	H	1.090045	0.328621	0.632257
C133	C	0.939219	-0.554669	0.908893
C134	C	1.439219	-0.054669	1.408893
C135	C	0.867331	-0.535011	0.891129
C136	C	1.367331	-0.035011	1.391129
C137	C	0.817405	-0.592583	0.926785
C138	C	1.317405	-0.092583	1.426785
H139	H	0.947018	-0.615324	0.893458
H140	H	1.447018	-0.115324	1.393458
H141	H	0.946310	-0.546388	0.960570
H142	H	1.446310	-0.046388	1.460570
H143	H	0.860243	-0.543300	0.839463
H144	H	1.360243	-0.043300	1.339463
H145	H	0.859509	-0.474367	0.906564
H146	H	1.359509	0.025633	1.406564
H147	H	0.824496	-0.584302	0.978463
H148	H	1.324496	-0.084302	1.478463
H149	H	0.825211	-0.653235	0.911348
H150	H	1.325211	-0.153235	1.411348
H151	H	0.768624	-0.579248	0.914743
H152	H	1.268624	-0.079248	1.414743
C153	C	0.939224	-0.554677	0.748588
C154	C	1.439224	-0.054677	1.248588
C155	C	0.894455	-0.503599	0.706887
C156	C	1.394455	-0.003599	1.206887
C157	C	0.844551	-0.561145	0.665679
C158	C	1.344551	-0.061145	1.165679
H159	H	0.965423	-0.594014	0.716689
H160	H	1.465423	-0.094014	1.216689
H161	H	0.909529	-0.589017	0.780827
H162	H	1.409529	-0.089017	1.280827
H163	H	0.924146	-0.469274	0.674650
H164	H	1.424146	0.030726	1.174650
H165	H	0.868240	-0.464265	0.738767
H166	H	1.368240	0.035735	1.238767
H167	H	0.814857	-0.595485	0.697919
H168	H	1.314857	-0.095485	1.197919
H169	H	0.870756	-0.600479	0.633785
H170	H	1.370756	-0.100479	1.133785
H171	H	0.814165	-0.526496	0.637386
H172	H	1.314165	-0.026496	1.137386
H173	H	1.112267	-0.777909	0.403402
H174	H	1.612267	-0.277909	0.903402
C175	C	0.617828	-0.555154	0.426508
C176	C	1.117828	-0.055154	0.926508
C177	C	0.565348	-0.605731	0.465290
C178	C	1.065348	-0.105731	0.965290
C179	C	0.600916	-0.663539	0.509649
C180	C	1.100916	-0.163539	1.009649
H181	H	0.645942	-0.594502	0.396530
H182	H	1.145942	-0.094502	0.896530
H183	H	0.649435	-0.520705	0.460281
H184	H	1.149435	-0.020705	0.960281
H185	H	0.533753	-0.640178	0.431520
H186	H	1.033753	-0.140178	0.931520
H187	H	0.537231	-0.566407	0.495281
H188	H	1.037231	-0.066407	0.995281
H189	H	0.632524	-0.629090	0.543422
H190	H	1.132524	-0.129090	1.043422
H191	H	0.629029	-0.702881	0.479666
H192	H	1.129029	-0.202881	0.979666
H193	H	0.565314	-0.697856	0.535973
H194	H	1.065314	-0.197856	1.035973
H195	H	1.152717	-0.919151	0.443884
H196	H	1.652717	-0.419151	0.943884
H197	H	0.974059	-1.090433	0.264910
H198	H	1.474059	-0.590433	0.764910
H199	H	1.144740	-1.090084	0.435871
H200	H	1.644740	-0.590084	0.935871
C201	C	0.920292	-0.961878	0.210916
C202	C	1.420292	-0.461878	0.710916
C203	C	0.937423	-0.938985	0.139194
C204	C	1.437423	-0.438985	0.639194
C205	C	0.888235	-0.986058	0.089733
C206	C	1.388235	-0.486058	0.589733
H207	H	0.924049	-1.024743	0.214612
H208	H	1.424049	-0.524743	0.714612
H209	H	0.871544	-0.946460	0.222315
H210	H	1.371544	-0.446460	0.722315
H211	H	0.986158	-0.954409	0.127799
H212	H	1.486158	-0.454409	0.627799
H213	H	0.933661	-0.876128	0.135475
H214	H	1.433661	-0.376128	0.635475
H215	H	0.839487	-0.970640	0.101131
H216	H	1.339487	-0.470640	0.601131
H217	H	0.891996	-1.048921	0.093435
H218	H	1.391996	-0.548921	0.593435
H219	H	0.899847	-0.970525	0.041065
H220	H	1.399847	-0.470525	0.541065
C221	C	0.929435	-0.765309	0.220340
C222	C	1.429435	-0.265309	0.720340
C223	C	0.943806	-0.672689	0.234780
C224	C	1.443806	-0.172689	0.734780
C225	C	0.898996	-0.625485	0.189967
C226	C	1.398996	-0.125485	0.689967
H227	H	0.939474	-0.780675	0.170153
H228	H	1.439474	-0.280675	0.670153
H229	H	0.879246	-0.780742	0.230345
H230	H	1.379246	-0.280742	0.730345
H231	H	0.993984	-0.657262	0.224770
H232	H	1.493984	-0.157262	0.724770
H233	H	0.933763	-0.657297	0.284958
H234	H	1.433763	-0.157297	0.784958
H235	H	0.848806	-0.640918	0.199972
H236	H	1.348806	-0.140918	0.699972
H237	H	0.909038	-0.640857	0.139783
H238	H	1.409038	-0.140857	0.639783
H239	H	0.908735	-0.562637	0.199763
H240	H	1.408735	-0.062637	0.699763
C241	C	1.147074	-0.314045	0.760183
C242	C	1.647074	0.185955	1.260183
C243	C	1.190677	-0.263484	0.812689
C244	C	1.690677	0.236516	1.312689
C245	C	1.240507	-0.205674	0.777151
C246	C	1.740507	0.294326	1.277151
H247	H	1.177572	-0.348464	0.728576
H248	H	1.677572	0.151536	1.228576
H249	H	1.120796	-0.274693	0.732073
H250	H	1.620796	0.225307	1.232073
H251	H	1.216953	-0.302830	0.840786
H252	H	1.716953	0.197170	1.340786
H253	H	1.160200	-0.229047	0.844299
H254	H	1.660200	0.270953	1.344299
H255	H	1.214229	-0.166322	0.749041
H256	H	1.714229	0.333678	1.249041
H257	H	1.271000	-0.240100	0.745545
H258	H	1.771000	0.259900	1.245545
H259	H	1.270093	-0.171356	0.812771
H260	H	1.770093	0.328644	1.312771
