data_functionalizedCrystal
_audit_creation_method	'MofGen! by Chris Wilmer'
_symmetry_space_group_name_H-M	'P1'
_symmetry_Int_Tables_number	1
_symmetry_cell_setting	triclinic
loop_
_symmetry_equiv_pos_as_xyz
  x,y,z
_cell_length_a	12.837943
_cell_length_b	10.654550
_cell_length_c	9.130313
_cell_angle_alpha	89.999890
_cell_angle_beta	90.000639
_cell_angle_gamma	89.656922
loop_
_atom_site_label
_atom_site_type_symbol
_atom_site_fract_x
_atom_site_fract_y
_atom_site_fract_z
O1	O	1.377797	0.326745	-0.121766
O2	O	1.075875	0.310604	-0.121775
O3	O	1.233778	0.136692	-0.121765
O4	O	1.219894	0.500656	-0.121776
O5	O	1.233776	0.136697	0.121834
O6	O	1.075873	0.310609	0.121824
O7	O	1.377795	0.326750	0.121833
Cu8	Cu	1.226834	0.318680	0.144071
Cu9	Cu	1.226836	0.318674	-0.144013
O10	O	1.219892	0.500661	0.121823
C11	C	1.232758	0.089786	0.000033
C12	C	1.229708	-0.049990	0.000027
C13	C	1.037215	0.305153	0.000023
C14	C	0.922021	0.288891	0.000020
C15	C	1.322678	-0.119331	0.000035
C16	C	1.319806	-0.250665	0.000024
C17	C	1.130985	-0.243307	0.000006
C18	C	1.133858	-0.111975	0.000006
C19	C	1.431693	-0.123580	0.000052
C20	C	1.428821	-0.254914	0.000041
C21	C	0.682468	0.484395	0.000035
C22	C	0.574232	0.469121	0.000033
C23	C	0.597312	0.243070	0.000024
C24	C	0.705547	0.258344	0.000026
C25	C	0.748121	0.379010	0.000029
C26	C	0.856359	0.394284	0.000021
C27	C	0.879436	0.168233	0.000023
C28	C	0.771201	0.152959	0.000021
C29	C	1.416456	0.332200	0.000031
C30	C	1.531650	0.348462	0.000025
C31	C	1.220913	0.547568	0.000022
C32	C	1.223963	0.687344	0.000017
N33	N	1.226840	0.318684	0.346693
N34	N	1.226839	0.318661	-0.346636
C35	C	1.296777	0.241707	0.423350
C36	C	1.296775	0.241691	0.576687
C37	C	1.156894	0.395641	0.576697
C38	C	1.156892	0.395648	0.423363
C39	C	1.377540	0.152829	0.423345
C40	C	1.377537	0.152814	0.576682
H41	H	1.058152	-0.055522	-0.000021
H42	H	0.562628	0.144828	0.000142
H43	H	0.736522	0.054715	0.000035
O44	O	1.354065	0.022412	0.368195
H45	H	1.342563	-0.041443	0.462799
H46	H	0.932904	0.082421	0.000008
H47	H	1.099935	0.458317	0.360951
H48	H	0.520780	0.554937	0.000041
H49	H	1.099943	0.458302	0.639138
H50	H	1.469895	-0.292190	0.101986
H51	H	1.457265	0.183033	0.618300
O52	O	1.477322	0.204207	0.360328
H53	H	1.530226	0.231437	0.450921
H54	H	0.717132	0.582647	0.000035
O55	O	1.344187	0.028318	0.639656
H56	H	1.264061	0.006686	0.602048
H57	H	1.474333	-0.089571	-0.101886
O58	O	1.027610	-0.310166	0.000007
H59	H	1.021787	-0.369833	-0.099274
O60	O	1.477690	-0.071349	0.139358
H61	H	1.499755	-0.149868	0.213213
H62	H	0.891020	0.492536	0.000026
O63	O	1.472464	-0.310635	-0.139265
H64	H	1.497931	-0.233967	-0.213114
