data_functionalizedCrystal
_audit_creation_method	'MofGen! by Chris Wilmer'
_symmetry_space_group_name_H-M	'P1'
_symmetry_Int_Tables_number	1
_symmetry_cell_setting	triclinic
loop_
_symmetry_equiv_pos_as_xyz
  x,y,z
_cell_length_a	12.594516
_cell_length_b	11.169417
_cell_length_c	11.169409
_cell_angle_alpha	90.018605
_cell_angle_beta	90.031354
_cell_angle_gamma	90.018297
loop_
_atom_site_label
_atom_site_type_symbol
_atom_site_fract_x
_atom_site_fract_y
_atom_site_fract_z
Zn1	Zn	-0.423592	1.834915	0.678512
Zn2	Zn	0.076408	2.334915	1.178512
Zn3	Zn	-0.601618	1.834784	0.477832
Zn4	Zn	-0.101618	2.334784	0.977832
Zn5	Zn	-0.423661	1.634201	0.477851
Zn6	Zn	0.076339	2.134201	0.977851
Zn7	Zn	-0.601536	1.634188	0.678481
Zn8	Zn	-0.101536	2.134188	1.178481
O9	O	-0.512602	1.734522	0.578169
O10	O	-0.012602	2.234522	1.078169
O11	O	-0.447213	2.002847	0.651896
O12	O	0.052787	2.502847	1.151896
O13	O	-0.578075	1.808127	0.309885
O14	O	-0.078075	2.308127	0.809885
O15	O	-0.274706	1.660886	0.504489
O16	O	0.225294	2.160886	1.004489
O17	O	-0.578008	2.002751	0.504458
O18	O	-0.078008	2.502751	1.004458
O19	O	-0.274656	1.808349	0.651914
O20	O	0.225344	2.308349	1.151914
O21	O	-0.447331	1.660759	0.309898
O22	O	0.052669	2.160759	0.809898
O23	O	-0.447251	1.466249	0.504460
O24	O	0.052749	1.966249	1.004460
O25	O	-0.577868	1.660864	0.846435
O26	O	-0.077868	2.160864	1.346435
O27	O	-0.577935	1.466240	0.651862
O28	O	-0.077935	1.966240	1.151862
O29	O	-0.447133	1.808337	0.846458
O30	O	0.052867	2.308337	1.346458
O31	O	-0.750553	1.808115	0.504428
O32	O	-0.250553	2.308115	1.004428
O33	O	-0.750493	1.660738	0.651844
O34	O	-0.250493	2.160738	1.151844
C35	C	-0.789143	1.734443	0.578157
C36	C	-0.289143	2.234443	1.078157
C37	C	-0.907448	1.734519	0.578192
C38	C	-0.407448	2.234519	1.078192
C39	C	-0.512592	1.422697	0.578160
C40	C	-0.012592	1.922697	1.078160
C41	C	-0.512614	1.289297	0.578185
C42	C	-0.012614	1.789297	1.078185
C43	C	-0.512484	1.734614	0.891212
C44	C	-0.012484	2.234614	1.391212
C45	C	-0.512433	1.734653	1.024612
C46	C	-0.012433	2.234653	1.524612
C47	C	-0.976707	1.654353	0.658316
C48	C	-0.476707	2.154353	1.158316
C49	C	-1.047582	1.625107	0.548803
C50	C	-0.547582	2.125107	1.048803
C51	C	-1.047372	1.763875	0.687724
C52	C	-0.547372	2.263875	1.187724
C53	C	-0.976765	1.705215	0.468622
C54	C	-0.476765	2.205215	0.968622
C55	C	-0.976549	1.844034	0.607616
C56	C	-0.476549	2.344034	1.107616
C57	C	-1.047392	1.814829	0.498028
C58	C	-0.547392	2.314829	0.998028
C59	C	-0.234981	1.734633	0.578207
C60	C	0.265019	2.234633	1.078207
C61	C	-0.116676	1.734681	0.578223
C62	C	0.383324	2.234681	1.078223
C63	C	-0.512612	2.047564	0.578179
C64	C	-0.012612	2.547564	1.078179
C65	C	-0.512617	2.180964	0.578183
C66	C	-0.012617	2.680964	1.078183
C67	C	-0.512643	1.734499	0.266344
C68	C	-0.012643	2.234499	0.766344
C69	C	-0.512393	1.734692	0.132945
C70	C	-0.012393	2.234692	0.632945
H71	H	-0.945670	1.586438	0.725975
H72	H	-0.445670	2.086438	1.225975
H73	H	-1.078807	1.532568	0.523941
H74	H	-0.578807	2.032568	1.023941
C75	C	-0.935042	1.671609	0.343466
C76	C	-0.435042	2.171609	0.843466
N77	N	-0.903613	1.646292	0.249203
N78	N	-0.403613	2.146292	0.749203
H79	H	-1.078233	1.882693	0.430206
H80	H	-0.578233	2.382693	0.930206
C81	C	-0.934348	1.969012	0.641285
C82	C	-0.434348	2.469012	1.141285
N83	N	-0.902553	2.063143	0.666662
N84	N	-0.402553	2.563143	1.166662
H85	H	-1.078388	1.788639	0.780341
H86	H	-0.578388	2.288639	1.280341
