data_functionalizedCrystal
_audit_creation_method	'MofGen! by Chris Wilmer'
_symmetry_space_group_name_H-M	'P1'
_symmetry_Int_Tables_number	1
_symmetry_cell_setting	triclinic
loop_
_symmetry_equiv_pos_as_xyz
  x,y,z
_cell_length_a	10.685904
_cell_length_b	19.121459
_cell_length_c	10.685880
_cell_angle_alpha	91.715143
_cell_angle_beta	80.918635
_cell_angle_gamma	91.768131
loop_
_atom_site_label
_atom_site_type_symbol
_atom_site_fract_x
_atom_site_fract_y
_atom_site_fract_z
Zn1	Zn	2.012049	-0.230016	-0.850299
Zn2	Zn	2.003322	-0.338473	-0.630319
Zn3	Zn	1.783490	-0.230054	-0.621768
Zn4	Zn	1.808606	-0.355030	-0.825042
O5	O	1.901867	-0.288393	-0.731857
O6	O	2.188034	-0.237458	-0.835267
O7	O	1.959998	-0.317177	-0.452051
O8	O	1.806950	-0.132356	-0.659075
O9	O	2.181622	-0.317141	-0.673648
O10	O	1.974872	-0.132329	-0.826976
O11	O	1.798488	-0.237522	-0.445769
O12	O	1.609680	-0.253577	-0.634584
O13	O	1.849757	-0.345360	-1.005526
O14	O	1.628132	-0.345396	-0.783929
O15	O	1.999225	-0.253513	-1.024082
O16	O	1.984351	-0.438362	-0.649158
O17	O	1.841294	-0.450526	-0.792220
C18	C	1.572975	-0.301288	-0.705589
C19	C	1.432277	-0.306822	-0.694380
C20	C	1.914638	-0.469774	-0.718906
C21	C	1.920220	-0.547367	-0.713418
C22	C	1.955557	-0.985895	-0.678611
C23	C	1.950301	-0.912989	-0.683770
C24	C	1.873129	-0.882897	-0.760768
C25	C	1.801198	-0.925715	-0.832602
C26	C	1.806449	-0.998620	-0.827435
C27	C	1.853540	-0.663090	-0.780085
C28	C	1.848298	-0.590180	-0.785249
C29	C	1.997400	-0.577458	-0.636414
C30	C	2.002649	-0.650365	-0.631260
C31	C	1.930714	-0.693177	-0.703089
C32	C	1.867757	-0.808375	-0.766046
C33	C	1.936079	-0.767697	-0.697803
C34	C	2.232043	-0.275449	-0.758229
C35	C	2.372744	-0.269932	-0.769467
C36	C	1.928266	-0.301279	-1.062017
C37	C	1.939516	-0.306771	-1.202712
C38	C	1.889083	-0.106304	-0.744889
C39	C	1.883635	-0.028708	-0.750442
C40	C	1.875640	-0.275504	-0.402991
C41	C	1.864621	-0.269806	-0.262331
H42	H	2.018407	-1.010390	-0.615918
H43	H	2.055965	-0.542595	-0.577933
N44	N	1.357221	-0.354269	-0.597874
H45	H	1.416934	-0.378101	-0.549359
H46	H	1.295668	-0.325651	-0.537091
H47	H	1.804924	-0.783869	-0.828742
H48	H	1.747889	-1.033478	-0.885935
H49	H	2.012252	-0.342622	-1.259312
N50	N	2.085884	-0.682820	-0.548211
H51	H	2.130648	-0.644635	-0.503485
H52	H	2.031891	-0.712837	-0.483337
H53	H	1.429420	-0.234112	-0.842324
N54	N	2.027889	-0.866811	-0.606311
H55	H	2.077586	-0.896937	-0.556762
H56	H	2.088365	-0.836245	-0.664721
N57	N	1.765066	-0.557721	-0.868308
H58	H	1.720291	-0.595904	-0.913028
H59	H	1.700232	-0.527790	-0.814204
H60	H	1.794955	-0.697939	-0.838563
H61	H	1.738356	-0.901210	-0.895291
N62	N	2.019310	-0.800158	-0.614764
H63	H	2.110404	-0.784648	-0.642620
H64	H	1.991478	-0.784729	-0.523663
H65	H	1.791884	-0.233960	-1.205736
