data_functionalizedCrystal
_audit_creation_method	'MofGen! by Chris Wilmer'
_symmetry_space_group_name_H-M	'P1'
_symmetry_Int_Tables_number	1
_symmetry_cell_setting	triclinic
loop_
_symmetry_equiv_pos_as_xyz
  x,y,z
_cell_length_a	10.654554
_cell_length_b	15.995292
_cell_length_c	9.130313
_cell_angle_alpha	90.001944
_cell_angle_beta	90.001106
_cell_angle_gamma	83.977680
loop_
_atom_site_label
_atom_site_type_symbol
_atom_site_fract_x
_atom_site_fract_y
_atom_site_fract_z
O1	O	1.666257	0.117620	-0.121742
O2	O	2.166257	0.617620	0.378258
O3	O	1.300630	0.128820	-0.121754
O4	O	1.800630	0.628820	0.378246
O5	O	1.493476	0.001387	-0.121750
O6	O	1.993476	0.501387	0.378250
O7	O	1.473411	0.245053	-0.121747
O8	O	1.973411	0.745053	0.378253
O9	O	1.493474	0.001391	0.121849
O10	O	1.993474	0.501391	0.621849
O11	O	1.300627	0.128824	0.121845
O12	O	1.800627	0.628824	0.621845
O13	O	1.666255	0.117623	0.121856
O14	O	2.166255	0.617623	0.621856
Cu15	Cu	1.483441	0.123224	0.144093
Cu16	Cu	1.983441	0.623224	0.644093
Cu17	Cu	1.483444	0.123220	-0.143991
Cu18	Cu	1.983444	0.623220	0.356009
O19	O	1.473409	0.245056	0.121852
O20	O	1.973409	0.745056	0.621852
C21	C	1.253842	0.127999	0.000043
C22	C	1.753842	0.627999	0.500043
C23	C	1.114432	0.125536	0.000038
C24	C	1.614432	0.625536	0.500038
C25	C	0.902951	0.198255	0.000053
C26	C	1.402951	0.698255	0.500053
C27	C	1.033941	0.200570	0.000042
C28	C	1.533941	0.700570	0.500042
C29	C	1.063926	0.048182	0.000032
C30	C	1.563926	0.548182	0.500032
C31	C	0.932938	0.045868	0.000033
C32	C	1.432938	0.545868	0.500033
C33	C	0.822466	0.273294	0.000071
C34	C	1.322466	0.773294	0.500071
C35	C	0.872962	0.350648	0.000075
C36	C	1.372962	0.850648	0.500075
C37	C	1.003952	0.352963	0.000064
C38	C	1.503952	0.852963	0.500064
C39	C	1.084446	0.277924	0.000048
C40	C	1.584446	0.777924	0.500048
C41	C	1.492659	-0.029811	0.000045
C42	C	1.992659	0.470189	0.500045
C43	C	1.490210	-0.122778	0.000034
C44	C	1.990210	0.377222	0.500034
C45	C	1.481209	-0.460569	0.000047
C46	C	1.981209	0.039431	0.500047
C47	C	1.620401	-0.436447	0.000596
C48	C	2.120401	0.063553	0.500596
C49	C	1.623046	-0.339756	0.000042
C50	C	2.123046	0.160244	0.500042
C51	C	1.485676	-0.292987	0.000042
C52	C	1.985676	0.207013	0.500042
C53	C	1.416088	-0.322495	-0.139063
C54	C	1.916088	0.177505	0.360937
C55	C	1.414412	-0.419295	-0.139174
C56	C	1.914412	0.080705	0.360826
C57	C	1.411567	-0.419165	0.137843
C58	C	1.911567	0.080835	0.637843
C59	C	1.416725	-0.322643	0.139677
C60	C	1.916725	0.177357	0.639677
C61	C	1.488192	-0.198277	0.000034
C62	C	1.988192	0.301723	0.500034
C63	C	1.478688	-0.555280	0.000046
C64	C	1.978688	-0.055280	0.500046
C65	C	1.713043	0.118445	0.000055
C66	C	2.213043	0.618445	0.500055
C67	C	1.852453	0.120907	0.000051
C68	C	2.352453	0.620907	0.500051
C69	C	1.474226	0.276255	0.000053
C70	C	1.974226	0.776255	0.500053
C71	C	1.476675	0.369222	0.000055
C72	C	1.976675	0.869222	0.500055
N73	N	1.483448	0.123226	0.346716
N74	N	1.983448	0.623226	0.846716
N75	N	1.483447	0.123211	-0.346614
N76	N	1.983447	0.623211	0.153386
C77	C	1.568862	0.066818	0.423369
C78	C	2.068862	0.566818	0.923369
C79	C	1.568859	0.066808	0.576706
C80	C	2.068859	0.566808	1.076706
C81	C	1.398023	0.179621	0.576722
C82	C	1.898023	0.679621	1.076722
C83	C	1.398022	0.179627	0.423388
C84	C	1.898022	0.679627	0.923388
C85	C	1.654289	0.010418	0.346697
C86	C	2.154289	0.510418	0.846697
C87	C	1.739711	-0.045994	0.423351
C88	C	2.239711	0.454006	0.923351
C89	C	1.739707	-0.046004	0.576688
C90	C	2.239707	0.453996	1.076688
C91	C	1.654282	0.010397	0.653371
C92	C	2.154282	0.510397	1.153371
H93	H	0.891823	-0.017115	0.000029
H94	H	1.391823	0.482885	0.500029
H95	H	1.677546	-0.320413	0.099755
H96	H	2.177546	0.179587	0.599755
H97	H	1.809253	-0.091943	0.639098
H98	H	2.309253	0.408057	1.139098
H99	H	1.654278	0.010379	0.778228
H100	H	2.154278	0.510379	1.278228
H101	H	1.045062	0.415948	0.000054
H102	H	1.545062	0.915948	0.500054
H103	H	1.191107	0.279815	0.000009
H104	H	1.691107	0.779815	0.500009
H105	H	1.677869	-0.321034	-0.099845
H106	H	2.177869	0.178966	0.400155
H107	H	1.309112	-0.433752	0.138780
H108	H	1.809112	0.066248	0.638780
H109	H	1.467396	-0.303781	0.242585
H110	H	1.967396	0.196219	0.742585
H111	H	1.674051	-0.464131	0.100354
H112	H	2.174051	0.035869	0.600354
H113	H	1.654302	0.010422	0.221842
H114	H	2.154302	0.510422	0.721842
H115	H	1.129474	-0.012911	0.000021
H116	H	1.629474	0.487089	0.500021
H117	H	1.328475	0.225542	0.639167
H118	H	1.828475	0.725542	1.139167
H119	H	0.807416	0.411742	0.000076
H120	H	1.307416	0.911742	0.500076
H121	H	1.328469	0.225559	0.360976
H122	H	1.828469	0.725559	0.860976
H123	H	1.462608	-0.445833	-0.243157
H124	H	1.962608	0.054167	0.256843
H125	H	0.715805	0.271418	0.000086
H126	H	1.215805	0.771418	0.500086
H127	H	1.673755	-0.465156	-0.098599
H128	H	2.173755	0.034844	0.401401
H129	H	1.312356	-0.434440	-0.145477
H130	H	1.812356	0.065560	0.354523
H131	H	1.809255	-0.091920	0.360908
H132	H	2.309255	0.408080	0.860908
H133	H	1.315001	-0.291216	-0.144235
H134	H	1.815001	0.208784	0.355765
H135	H	1.464413	-0.302155	-0.242583
H136	H	1.964413	0.197845	0.257417
H137	H	1.455400	-0.446997	0.243284
H138	H	1.955400	0.053003	0.743284
H139	H	1.316458	-0.290256	0.148077
H140	H	1.816458	0.209744	0.648077
