data_functionalizedCrystal
_audit_creation_method	'MofGen! by Chris Wilmer'
_symmetry_space_group_name_H-M	'P1'
_symmetry_Int_Tables_number	1
_symmetry_cell_setting	triclinic
loop_
_symmetry_equiv_pos_as_xyz
  x,y,z
_cell_length_a	17.699077
_cell_length_b	10.540491
_cell_length_c	16.776229
_cell_angle_alpha	90.005345
_cell_angle_beta	89.993415
_cell_angle_gamma	96.106879
loop_
_atom_site_label
_atom_site_type_symbol
_atom_site_fract_x
_atom_site_fract_y
_atom_site_fract_z
O1	O	1.005108	-0.160488	-0.066275
O2	O	0.784863	-0.181380	-0.066279
O3	O	0.900029	0.013869	-0.066274
O4	O	0.889942	-0.355737	-0.066280
O5	O	0.900014	0.013881	0.066302
O6	O	0.784847	-0.181368	0.066297
O7	O	1.005093	-0.160476	0.066301
Zn8	Zn	0.894968	-0.170920	0.087349
Zn9	Zn	0.894988	-0.170936	-0.087327
O10	O	0.889926	-0.355725	0.066296
C11	C	0.756653	-0.180627	0.000009
C12	C	0.672621	-0.178385	0.000007
C13	C	0.899273	0.061165	0.000013
C14	C	0.897033	0.202075	0.000010
C15	C	0.633138	-0.177322	0.072276
C16	C	0.554182	-0.175195	0.072277
C17	C	0.514709	-0.174140	0.000008
C18	C	0.554197	-0.175200	-0.072266
C19	C	0.633153	-0.177317	-0.072266
C20	C	0.235779	-0.166657	-0.072267
C21	C	0.156818	-0.164543	-0.072261
C22	C	0.156808	-0.164535	0.072275
C23	C	0.235764	-0.166653	0.072275
C24	C	0.275246	-0.167705	0.000002
C25	C	0.360859	-0.170009	0.000002
C26	C	0.429096	-0.171846	0.000007
C27	C	0.977042	0.420999	0.000318
C28	C	0.979431	0.274445	0.000013
C29	C	0.854865	0.246054	-0.075696
C30	C	0.853059	0.392783	-0.075754
C31	C	0.851325	0.392574	0.075011
C32	C	0.855227	0.246303	0.076005
C33	C	1.033302	-0.161229	0.000012
C34	C	1.117335	-0.163471	0.000008
N35	N	0.894959	-0.170909	0.206560
C36	C	0.890693	0.596981	0.000011
C37	C	0.892963	0.456078	0.000018
N38	N	0.895002	-0.170938	-0.206538
C39	C	0.945971	-0.084488	0.248279
C40	C	0.945975	-0.084487	0.331731
C41	C	0.894971	-0.170914	0.373463
C42	C	0.843953	-0.257339	0.331738
C43	C	0.843946	-0.257333	0.248287
C44	C	0.843981	-0.257364	0.668285
C45	C	0.843994	-0.257365	0.751741
C46	C	0.946010	-0.084518	0.751729
C47	C	0.946002	-0.084512	0.668278
C48	C	0.894983	-0.170932	0.626561
C49	C	0.894978	-0.170930	0.536072
C50	C	0.894979	-0.170922	0.463950
H51	H	0.665270	-0.178191	0.131125
O52	O	0.114184	-0.163984	0.150231
H53	H	0.052635	-0.162539	0.138095
H54	H	0.881892	0.433522	-0.132344
H55	H	0.789462	0.413591	0.075520
H56	H	0.267916	-0.167510	-0.131117
H57	H	0.665298	-0.178185	-0.131114
H58	H	0.987537	-0.014139	0.634303
O59	O	0.511630	-0.174045	-0.150216
H60	H	0.520504	-0.260928	-0.184879
O61	O	0.895862	0.209141	0.150195
H62	H	0.865970	0.240734	0.203639
H63	H	0.987507	-0.014114	0.214307
H64	H	0.522040	-0.174308	0.131125
O65	O	1.019572	0.477347	0.072231
H66	H	1.039465	0.399460	0.108606
H67	H	0.794205	0.197553	-0.078513
O68	O	0.278338	-0.167819	0.150220
H69	H	0.237618	-0.166722	0.200475
O70	O	0.788960	-0.350578	0.623295
H71	H	0.799134	-0.449512	0.639297
H72	H	0.877504	0.435241	0.132397
H73	H	1.012426	0.245711	0.054281
O74	O	1.023394	0.237596	-0.072002
H75	H	1.043023	0.324503	-0.106750
O76	O	1.001041	0.008698	0.796724
H77	H	0.990886	0.107636	0.780710
O78	O	0.114246	-0.163400	-0.150215
H79	H	0.052709	-0.161767	-0.138069
H80	H	1.008965	0.465085	-0.053667
H81	H	0.791432	0.414649	-0.079184
O82	O	0.893854	0.206363	-0.150331
H83	H	0.943233	0.155268	-0.133696
O84	O	1.001008	0.008701	0.376732
H85	H	1.036484	0.068780	0.333693
O86	O	0.788979	-0.350602	0.796745
H87	H	0.751922	-0.297257	0.834789
O88	O	0.775547	0.179826	0.082082
H89	H	0.764445	0.113943	0.030797
H90	H	0.802421	-0.327705	0.365720
O91	O	0.788931	-0.350549	0.203284
H92	H	0.753470	-0.410658	0.246320
