data_functionalizedCrystal
_audit_creation_method	'MofGen! by Chris Wilmer'
_symmetry_space_group_name_H-M	'P1'
_symmetry_Int_Tables_number	1
_symmetry_cell_setting	triclinic
loop_
_symmetry_equiv_pos_as_xyz
  x,y,z
_cell_length_a	15.538191
_cell_length_b	14.519709
_cell_length_c	14.185569
_cell_angle_alpha	76.819419
_cell_angle_beta	97.875798
_cell_angle_gamma	65.476119
loop_
_atom_site_label
_atom_site_type_symbol
_atom_site_fract_x
_atom_site_fract_y
_atom_site_fract_z
O1	O	1.228085	-0.271310	-0.083424
O2	O	0.954005	-0.164884	-0.083426
O3	O	1.098314	-0.354783	-0.083416
O4	O	1.083776	-0.081411	-0.083434
O5	O	1.140944	-0.410876	0.083422
O6	O	0.996635	-0.220977	0.083412
O7	O	1.270715	-0.327403	0.083414
Cu8	Cu	1.137568	-0.279312	0.098646
Cu9	Cu	1.087153	-0.212975	-0.098658
O10	O	1.126406	-0.137505	0.083404
C11	C	0.940243	-0.181796	-0.000007
C12	C	0.835725	-0.148628	-0.000007
C13	C	0.547381	-0.478139	-0.000001
C14	C	0.449167	-0.446949	-0.000004
C15	C	0.427017	-0.271514	-0.000015
C16	C	0.525232	-0.302691	-0.000008
C17	C	0.585407	-0.406004	-0.000002
C18	C	0.563258	-0.230557	-0.000008
C19	C	0.661463	-0.261730	-0.000006
C20	C	0.721643	-0.365037	-0.000003
C21	C	0.683612	-0.437177	0.000001
C22	C	0.503080	-0.127242	-0.000021
C23	C	0.541106	-0.055107	-0.000022
C24	C	0.639314	-0.086282	-0.000012
C25	C	0.699494	-0.189590	-0.000009
C26	C	0.677345	-0.014142	-0.000016
C27	C	0.775551	-0.045315	-0.000013
C28	C	0.797700	-0.220763	-0.000007
C29	C	1.118952	-0.416961	0.000003
C30	C	1.116922	-0.518660	0.000004
C31	C	1.109444	-0.891034	-0.000022
C32	C	1.111520	-0.787426	-0.000015
C33	C	1.113183	-0.704851	-0.000008
C34	C	1.115260	-0.601236	-0.000003
C35	C	1.284476	-0.310491	-0.000007
C36	C	1.388993	-0.343656	-0.000014
C37	C	1.105768	-0.075325	-0.000017
C38	C	1.107796	0.026376	-0.000025
N39	N	1.173034	-0.325973	0.237420
N40	N	1.051694	-0.166324	-0.237432
C41	C	0.947494	-0.029276	0.605054
C42	C	0.974366	-0.064616	0.710078
C43	C	1.102177	-0.232734	0.710047
C44	C	1.075313	-0.197409	0.605022
C45	C	0.997972	-0.095679	0.552534
C46	C	1.125791	-0.263812	0.552501
C47	C	1.098932	-0.228488	0.447485
C48	C	1.021596	-0.126760	0.394989
C49	C	0.971113	-0.060354	0.447517
C50	C	1.203137	-0.365540	0.604991
C51	C	1.253615	-0.431943	0.552471
C52	C	1.226752	-0.396622	0.447452
C53	C	1.149415	-0.294894	0.394957
C54	C	1.277234	-0.463027	0.394924
C55	C	1.250375	-0.427703	0.289908
C56	C	1.122556	-0.259569	0.289940
H57	H	0.806514	0.013421	-0.000004
H58	H	0.801605	-0.390412	-0.000014
H59	H	0.628334	0.069979	-0.000031
H60	H	1.059570	-0.176735	0.247202
H61	H	0.596381	-0.562268	0.000010
O62	O	0.872459	0.069576	0.553945
C63	C	0.907433	0.130040	0.493204
H64	H	0.977018	0.074010	0.477462
H65	H	0.924278	0.182423	0.533668
C66	C	0.743416	0.269829	0.412790
C67	C	0.828878	0.201013	0.393449
H68	H	0.694959	0.313613	0.351258
H69	H	0.719853	0.229096	0.453715
H70	H	0.757468	0.313472	0.446513
H71	H	0.814828	0.157363	0.359738
H72	H	0.852437	0.241741	0.352515
O73	O	0.925188	0.000006	0.760941
C74	C	0.851182	0.097376	0.692090
H75	H	0.830918	0.085122	0.617229
H76	H	0.878999	0.159397	0.680918
C77	C	0.785028	0.151560	0.825041
C78	C	0.760133	0.136508	0.733098
H79	H	0.728866	0.175702	0.850338
H80	H	0.834889	0.085963	0.871429
H81	H	0.808210	0.203242	0.815719
H82	H	0.736964	0.084817	0.742424
H83	H	0.710266	0.202098	0.686713
H84	H	0.908127	0.022480	0.404779
O85	O	0.412138	-0.516928	-0.000176
C86	C	0.333900	-0.475080	-0.086570
H87	H	0.341781	-0.414390	-0.146965
H88	H	0.261489	-0.434453	-0.067036
C89	C	0.325929	-0.640771	-0.051566
C90	C	0.335613	-0.566237	-0.125748
H91	H	0.326981	-0.697000	-0.075731
H92	H	0.378636	-0.668965	0.006642
H93	H	0.265587	-0.606903	-0.035294
H94	H	0.395960	-0.600102	-0.142009
H95	H	0.282915	-0.538051	-0.183959
O96	O	0.995575	-0.092321	0.292976
C97	C	1.005852	0.000600	0.257886
H98	H	1.060435	0.003214	0.318393
H99	H	0.931781	0.073960	0.239277
C100	C	0.976361	-0.003738	0.088645
C101	C	1.043408	-0.000532	0.162957
H102	H	0.999523	-0.004432	0.030085
H103	H	0.969433	-0.066338	0.112284
H104	H	0.914640	0.057397	0.073149
H105	H	1.105122	-0.061672	0.178460
H106	H	1.050346	0.062058	0.139318
H107	H	0.378009	-0.187395	-0.000024
H108	H	1.165152	-0.315563	0.752795
H109	H	0.423115	-0.101863	-0.000026
H110	H	1.225005	-0.394295	0.690503
O111	O	1.328689	-0.530748	0.603617
C112	C	1.341591	-0.547678	0.707570
H113	H	1.270476	-0.493043	0.721934
H114	H	1.402575	-0.529280	0.737355
C115	C	1.456714	-0.731934	0.743844
C116	C	1.369366	-0.664836	0.761486
H117	H	1.473851	-0.804203	0.777103
H118	H	1.448024	-0.720527	0.673809
H119	H	1.507523	-0.716589	0.768665
H120	H	1.318556	-0.680172	0.736654
H121	H	1.378048	-0.676248	0.831518
O122	O	1.352244	-0.561905	0.445966
C123	C	1.317278	-0.622344	0.506752
H124	H	1.234943	-0.588454	0.475124
H125	H	1.332745	-0.618609	0.586339
C126	C	1.470537	-0.780816	0.547214
C127	C	1.369412	-0.739197	0.508362
H128	H	1.502698	-0.852897	0.548212
H129	H	1.494096	-0.740096	0.506265
H130	H	1.483413	-0.777693	0.613533
H131	H	1.356537	-0.742307	0.442041
H132	H	1.345852	-0.779919	0.549301
O133	O	1.299479	-0.492358	0.239038
C134	C	1.373516	-0.589712	0.307884
H135	H	1.354068	-0.603044	0.382755
H136	H	1.446352	-0.586907	0.319034
C137	C	1.406155	-0.665465	0.174930
C138	C	1.382264	-0.681843	0.266885
H139	H	1.411556	-0.722295	0.149640
H140	H	1.356278	-0.599874	0.128547
H141	H	1.466850	-0.663125	0.184234
H142	H	1.321565	-0.684169	0.257578
H143	H	1.432131	-0.747436	0.313267
H144	H	0.492097	0.029012	-0.000031
O145	O	0.856245	-0.321173	0.000182
C146	C	0.935804	-0.373490	0.086577
H147	H	0.915353	-0.334618	0.146964
H148	H	1.002263	-0.366976	0.067039
C149	C	0.985678	-0.539690	0.051599
C150	C	0.960557	-0.491953	0.125771
H151	H	1.000951	-0.612765	0.075774
H152	H	0.932080	-0.504443	-0.006609
H153	H	1.041058	-0.534252	0.035324
H154	H	0.905171	-0.497380	0.142036
H155	H	1.014147	-0.527204	0.183983
O156	O	0.741993	-0.537489	-0.000169
C157	C	0.702648	-0.554203	-0.086558
H158	H	0.653732	-0.474002	-0.146955
H159	H	0.657551	-0.597385	-0.067018
C160	C	0.846745	-0.720967	-0.051555
C161	C	0.786673	-0.622464	-0.125739
H162	H	0.898574	-0.763078	-0.075722
H163	H	0.873252	-0.709710	0.006649
H164	H	0.809153	-0.756939	-0.035278
H165	H	0.824262	-0.586488	-0.142006
H166	H	0.760174	-0.633717	-0.183947
