data_functionalizedCrystal
_audit_creation_method	'MofGen! by Chris Wilmer'
_symmetry_space_group_name_H-M	'P1'
_symmetry_Int_Tables_number	1
_symmetry_cell_setting	triclinic
loop_
_symmetry_equiv_pos_as_xyz
  x,y,z
_cell_length_a	10.489741
_cell_length_b	10.489746
_cell_length_c	26.210047
_cell_angle_alpha	89.978473
_cell_angle_beta	89.994320
_cell_angle_gamma	84.540238
loop_
_atom_site_label
_atom_site_type_symbol
_atom_site_fract_x
_atom_site_fract_y
_atom_site_fract_z
O1	O	-0.179998	-1.694087	0.042394
O2	O	-0.196884	-1.322892	0.042403
O3	O	-0.002844	-1.516936	0.042395
O4	O	-0.374039	-1.500043	0.042402
O5	O	-0.002840	-1.516845	-0.042463
O6	O	-0.196880	-1.322801	-0.042455
O7	O	-0.179995	-1.693996	-0.042464
Cu8	Cu	-0.188437	-1.508390	-0.050208
Cu9	Cu	-0.188442	-1.508498	0.050147
O10	O	-0.374035	-1.499952	-0.042456
C11	C	-0.195606	-1.275315	-0.000025
C12	C	-0.191786	-1.133686	-0.000022
C13	C	0.044690	-1.515614	-0.000033
C14	C	0.186320	-1.511797	-0.000032
C15	C	-0.181273	-1.741573	-0.000035
C16	C	-0.185093	-1.883202	-0.000034
C17	C	-0.421569	-1.501273	-0.000026
C18	C	-0.563198	-1.505091	-0.000024
C19	C	0.254462	-1.388333	-0.000026
C20	C	0.346585	-1.446611	-0.041866
C21	C	0.346556	-1.446730	0.041797
C22	C	0.276577	-1.570127	-0.041908
C23	C	0.276539	-1.570228	0.041793
C24	C	0.368635	-1.628597	-0.000058
C25	C	-0.066062	-0.980828	-0.000031
C26	C	-0.128917	-1.058177	-0.041868
C27	C	-0.128950	-1.058222	0.041795
C28	C	-0.247899	-0.958685	-0.041906
C29	C	-0.247914	-0.958725	0.041795
C30	C	-0.310856	-1.036025	-0.000052
N31	N	-0.188433	-1.508324	-0.120792
C32	C	-0.274320	-1.422491	-0.526756
C33	C	-0.274320	-1.422430	-0.313097
O34	O	-0.347329	-1.349300	-0.285476
N35	N	-0.188430	-1.508364	-0.286375
C36	C	-0.102528	-1.594314	-0.313071
O37	O	-0.029464	-1.667397	-0.285440
C38	C	-0.102523	-1.594369	-0.526729
C39	C	-0.188428	-1.508437	-0.553448
C40	C	-0.360217	-1.336566	-0.553475
C41	C	-0.360221	-1.336587	-0.606886
C42	C	-0.274328	-1.422533	-0.633579
C43	C	-0.188432	-1.508458	-0.606860
C44	C	-0.016616	-1.680312	-0.553424
C45	C	-0.016620	-1.680316	-0.606842
C46	C	-0.102525	-1.594384	-0.633561
C47	C	-0.102543	-1.594425	-0.686963
N48	N	-0.188433	-1.508491	-0.713685
C49	C	-0.274326	-1.422545	-0.686993
C50	C	-0.102538	-1.594282	-0.200898
C51	C	-0.102541	-1.594270	-0.147484
C52	C	-0.274331	-1.422383	-0.147513
C53	C	-0.274334	-1.422402	-0.200928
C54	C	-0.188428	-1.508347	-0.227620
C55	C	-0.274328	-1.422596	-0.799161
C56	C	-0.274328	-1.422628	-0.852577
C57	C	-0.102533	-1.594510	-0.852543
C58	C	-0.102537	-1.594483	-0.799131
C59	C	-0.188440	-1.508515	-0.772442
O60	O	-0.029562	-1.667507	-0.714618
O61	O	-0.347359	-1.349454	-0.714633
C62	C	-0.274316	-1.422470	-0.473344
C63	C	-0.188420	-1.508396	-0.446625
C64	C	-0.102527	-1.594342	-0.473318
C65	C	-0.188422	-1.508384	-0.393211
C66	C	-0.274315	-1.422438	-0.366519
C67	C	-0.360205	-1.336503	-0.393240
C68	C	-0.360209	-1.336524	-0.446652
C69	C	-0.016637	-1.680276	-0.446596
C70	C	-0.016641	-1.680249	-0.393184
C71	C	-0.102534	-1.594303	-0.366492
N72	N	-0.188435	-1.508574	0.120731
H73	H	0.204813	-1.286821	-0.000066
H74	H	0.053309	-1.750263	-0.468325
H75	H	-0.430168	-1.266611	-0.628638
H76	H	-0.032604	-1.664490	-0.874284
H77	H	0.377519	-1.394512	0.077173
H78	H	0.245746	-1.622284	-0.077320
H79	H	-0.078681	-1.101703	0.077166
H80	H	-0.078667	-1.101615	-0.077241
F81	F	-0.365765	-1.331167	-0.881011
F82	F	0.069219	-0.948512	-0.000087
F83	F	-0.011121	-1.685955	-0.770696
F84	F	0.387123	-1.378283	-0.088099
F85	F	-0.313537	-0.901913	0.088032
F86	F	-0.451640	-1.245063	-0.475082
H87	H	-0.344284	-1.352429	-0.222680
H88	H	0.053335	-1.750284	-0.531677
F89	F	0.433236	-1.761397	-0.000089
F90	F	-0.451623	-1.245037	-0.364823
F91	F	-0.365755	-1.331099	-0.770763
F92	F	-0.313531	-0.902072	-0.088191
H93	H	-0.414436	-1.060501	-0.000073
F94	F	-0.451641	-1.245081	-0.525074
F95	F	0.235955	-1.638504	0.088028
F96	F	0.074790	-1.771722	-0.364753
F97	F	-0.365745	-1.330913	-0.119096
F98	F	-0.011126	-1.685745	-0.119053
F99	F	-0.011103	-1.685763	-0.229300
H100	H	0.053338	-1.750301	-0.628572
