data_functionalizedCrystal
_audit_creation_method	'MofGen! by Chris Wilmer'
_symmetry_space_group_name_H-M	'P1'
_symmetry_Int_Tables_number	1
_symmetry_cell_setting	triclinic
loop_
_symmetry_equiv_pos_as_xyz
  x,y,z
_cell_length_a	16.625546
_cell_length_b	12.759395
_cell_length_c	12.759387
_cell_angle_alpha	90.020509
_cell_angle_beta	89.964440
_cell_angle_gamma	89.975995
loop_
_atom_site_label
_atom_site_type_symbol
_atom_site_fract_x
_atom_site_fract_y
_atom_site_fract_z
Zn1	Zn	-0.320926	-1.606212	-0.593970
Zn2	Zn	0.179074	-1.106212	-0.093970
Zn3	Zn	-0.455781	-1.606079	-0.418276
Zn4	Zn	0.044219	-1.106079	0.081724
Zn5	Zn	-0.320970	-1.430510	-0.418307
Zn6	Zn	0.179030	-0.930510	0.081693
Zn7	Zn	-0.455724	-1.430479	-0.593915
Zn8	Zn	0.044276	-0.930479	-0.093915
O9	O	-0.388350	-1.518320	-0.506117
O10	O	0.111650	-1.018320	-0.006117
O11	O	-0.338820	-1.753215	-0.570674
O12	O	0.161180	-1.253215	-0.070674
O13	O	-0.437941	-1.582747	-0.271259
O14	O	0.062059	-1.082747	0.228741
O15	O	-0.208132	-1.453886	-0.441645
O16	O	0.291868	-0.953886	0.058355
O17	O	-0.437898	-1.753118	-0.441592
O18	O	0.062102	-1.253118	0.058408
O19	O	-0.208099	-1.582974	-0.570704
O20	O	0.291901	-1.082974	-0.070704
O21	O	-0.338895	-1.453757	-0.271282
O22	O	0.161105	-0.953757	0.228718
O23	O	-0.338840	-1.283485	-0.441592
O24	O	0.161160	-0.783485	0.058408
O25	O	-0.437800	-1.453833	-0.740944
O26	O	0.062200	-0.953833	-0.240944
O27	O	-0.437843	-1.283462	-0.570610
O28	O	0.062157	-0.783462	-0.070610
O29	O	-0.338765	-1.582943	-0.740984
O30	O	0.161235	-1.082943	-0.240984
O31	O	-0.568606	-1.582716	-0.441539
O32	O	-0.068606	-1.082716	0.058461
O33	O	-0.568564	-1.453704	-0.570580
O34	O	-0.068564	-0.953704	-0.070580
C35	C	-0.388341	-1.245352	-0.506099
C36	C	0.111659	-0.745352	-0.006099
C37	C	-0.388356	-1.128576	-0.506116
C38	C	0.111644	-0.628576	-0.006116
C39	C	-0.597841	-1.518220	-0.506073
C40	C	-0.097841	-1.018220	-0.006073
C41	C	-0.687462	-1.518274	-0.506090
C42	C	-0.187462	-1.018274	-0.006090
C43	C	-0.388271	-1.518399	-0.780151
C44	C	0.111729	-1.018399	-0.280151
C45	C	-0.388238	-1.518433	-0.896928
C46	C	0.111762	-1.018433	-0.396928
C47	C	-1.015638	-1.518457	-0.506199
C48	C	-0.515638	-1.018457	-0.006199
C49	C	-0.924329	-1.518403	-0.506171
C50	C	-0.424329	-1.018403	-0.006171
C51	C	-0.851553	-1.518365	-0.506144
C52	C	-0.351553	-1.018365	-0.006144
C53	C	-0.760239	-1.518312	-0.506117
C54	C	-0.260239	-1.018312	-0.006117
C55	C	-0.178041	-1.518448	-0.506184
C56	C	0.321959	-1.018448	-0.006184
C57	C	-0.088420	-1.518503	-0.506213
C58	C	0.411580	-1.018503	-0.006213
C59	C	-0.388361	-1.792353	-0.506136
C60	C	0.111639	-1.292353	-0.006136
C61	C	-0.388365	-1.909130	-0.506144
C62	C	0.111635	-1.409130	-0.006144
C63	C	-0.491615	-1.128590	-0.640246
C64	C	0.008385	-0.628590	-0.140246
C65	C	-0.543250	-1.073737	-0.707314
C66	C	-0.043250	-0.573737	-0.207314
C67	C	-0.543260	-0.964015	-0.707327
C68	C	-0.043260	-0.464015	-0.207327
C69	C	-0.491627	-0.909144	-0.640267
C70	C	0.008373	-0.409144	-0.140267
C71	C	-0.439991	-0.963998	-0.573199
C72	C	0.060009	-0.463998	-0.073199
C73	C	-0.439989	-1.073722	-0.573191
C74	C	0.060011	-0.573722	-0.073191
C75	C	-0.336730	-0.963984	-0.439076
C76	C	0.163270	-0.463984	0.060924
C77	C	-0.336723	-1.073705	-0.439056
C78	C	0.163277	-0.573705	0.060944
C79	C	-0.285096	-0.909113	-0.372016
C80	C	0.214904	-0.409113	0.127984
C81	C	-0.233463	-0.963967	-0.304942
C82	C	0.266537	-0.463967	0.195058
C83	C	-0.233456	-1.073695	-0.304931
C84	C	0.266544	-0.573695	0.195069
C85	C	-0.285087	-1.128559	-0.371989
C86	C	0.214913	-0.628559	0.128011
C87	C	-0.285119	-1.652885	-0.896990
C88	C	0.214881	-1.152885	-0.396990
C89	C	-0.233547	-1.720126	-0.951881
C90	C	0.266453	-1.220126	-0.451881
C91	C	-0.233518	-1.720151	-1.061603
C92	C	0.266482	-1.220151	-0.561603
C93	C	-0.285064	-1.652927	-1.116435
C94	C	0.214936	-1.152927	-0.616435
C95	C	-0.336635	-1.585686	-1.061544
C96	C	0.163365	-1.085686	-0.561544
C97	C	-0.336661	-1.585670	-0.951819
C98	C	0.163339	-1.085670	-0.451819
C99	C	-0.439749	-1.451230	-1.061482
C100	C	0.060251	-0.951230	-0.561482
C101	C	-0.439784	-1.451209	-0.951760
C102	C	0.060216	-0.951209	-0.451760
C103	C	-0.491295	-1.384006	-1.116314
C104	C	0.008705	-0.884006	-0.616314
C105	C	-0.542872	-1.316769	-1.061422
C106	C	-0.042872	-0.816769	-0.561422
C107	C	-0.542900	-1.316747	-0.951694
C108	C	-0.042900	-0.816747	-0.451694
C109	C	-0.491355	-1.383968	-0.896868
C110	C	0.008645	-0.883968	-0.396868
C111	C	-0.388371	-1.518301	-0.233150
C112	C	0.111629	-1.018301	0.266850
C113	C	-0.388177	-1.518471	-0.116374
C114	C	0.111823	-1.018471	0.383626
H115	H	-0.491618	-1.217931	-0.640234
H116	H	0.008382	-0.717931	-0.140234
H117	H	-0.191424	-0.919282	-0.250352
H118	H	0.308576	-0.419282	0.249648
H119	H	-0.584887	-1.261980	-0.907008
H120	H	-0.084887	-0.761980	-0.407008
C121	C	-0.285101	-0.788416	-0.372043
C122	C	0.214899	-0.288416	0.127957
N123	N	-0.285103	-0.697506	-0.372062
N124	N	0.214897	-0.197506	0.127938
C125	C	-0.600062	-0.903675	-0.781103
C126	C	-0.100062	-0.403675	-0.281103
N127	N	-0.642847	-0.858226	-0.836670
N128	N	-0.142847	-0.358226	-0.336670
C129	C	-0.176787	-1.794119	-1.121986
C130	C	0.323213	-1.294119	-0.621986
N131	N	-0.134059	-1.849833	-1.167466
N132	N	0.365941	-1.349833	-0.667466
H133	H	-0.191402	-1.118350	-0.250323
H134	H	0.308598	-0.618350	0.249677
C135	C	-0.285089	-1.249256	-0.371976
C136	C	0.214911	-0.749256	0.128024
N137	N	-0.285093	-1.340166	-0.371970
N138	N	0.214907	-0.840166	0.128030
C139	C	-0.491380	-1.383949	-0.776171
C140	C	0.008620	-0.883949	-0.276171
N141	N	-0.491393	-1.383933	-0.685261
N142	N	0.008607	-0.883933	-0.185261
H143	H	-0.585288	-1.118424	-0.761914
H144	H	-0.085288	-0.618424	-0.261914
C145	C	-0.491628	-0.788448	-0.640302
C146	C	0.008372	-0.288448	-0.140302
N147	N	-0.491626	-0.697537	-0.640330
N148	N	0.008374	-0.197537	-0.140330
C149	C	-0.285152	-1.652870	-0.776293
C150	C	0.214848	-1.152870	-0.276293
N151	N	-0.285175	-1.652860	-0.685382
N152	N	0.214825	-1.152860	-0.185382
H153	H	-0.191578	-1.774857	-0.907225
H154	H	0.308422	-1.274857	-0.407225
H155	H	-0.285028	-1.652945	-1.205777
H156	H	0.214972	-1.152945	-0.705777
C157	C	-0.491268	-1.384045	-1.237011
C158	C	0.008732	-0.884045	-0.737011
N159	N	-0.491253	-1.384079	-1.327922
N160	N	0.008747	-0.884079	-0.827922
H161	H	-0.584832	-1.262035	-1.106076
H162	H	-0.084832	-0.762035	-0.606076
