data_functionalizedCrystal
_audit_creation_method	'MofGen! by Chris Wilmer'
_symmetry_space_group_name_H-M	'P1'
_symmetry_Int_Tables_number	1
_symmetry_cell_setting	triclinic
loop_
_symmetry_equiv_pos_as_xyz
  x,y,z
_cell_length_a	15.297475
_cell_length_b	12.759400
_cell_length_c	12.759393
_cell_angle_alpha	90.030745
_cell_angle_beta	80.312341
_cell_angle_gamma	99.675056
loop_
_atom_site_label
_atom_site_type_symbol
_atom_site_fract_x
_atom_site_fract_y
_atom_site_fract_z
Zn1	Zn	1.379264	0.696574	-0.871587
Zn2	Zn	1.379154	0.872271	-0.695887
Zn3	Zn	1.228390	0.666179	-0.665560
Zn4	Zn	1.228362	0.841756	-0.841179
O5	O	1.303792	0.769195	-0.768553
O6	O	1.505498	0.745372	-0.873697
O7	O	1.359121	0.844982	-0.544836
O8	O	1.248461	0.523201	-0.692924
O9	O	1.505417	0.874456	-0.744612
O10	O	1.359308	0.545533	-0.844290
O11	O	1.248355	0.693567	-0.522555
O12	O	1.102138	0.663978	-0.663439
O13	O	1.248413	0.822447	-0.992241
O14	O	1.102117	0.792974	-0.792465
O15	O	1.359280	0.715783	-1.014581
O16	O	1.359094	1.015232	-0.715127
O17	O	1.248307	0.992813	-0.821872
C18	C	1.069393	0.721867	-0.721362
C19	C	0.969115	0.701645	-0.701199
C20	C	1.303710	1.042146	-0.768519
C21	C	1.303757	1.158932	-0.768556
C22	C	1.303856	0.769102	-1.042599
C23	C	1.303883	0.769062	-1.159382
C24	C	0.686507	0.913730	-0.912668
C25	C	0.780722	0.932738	-0.931610
C26	C	0.827825	0.874966	-0.874009
C27	C	0.780703	0.798184	-0.797463
C28	C	0.686479	0.779181	-0.778513
C29	C	0.827797	0.740417	-0.739854
C30	C	0.780675	0.663635	-0.663307
C31	C	0.686460	0.644635	-0.644362
C32	C	0.639357	0.702406	-0.701963
C33	C	0.922022	0.759420	-0.758804
C34	C	0.921993	0.624871	-0.624648
C35	C	0.827778	0.605863	-0.605707
C36	C	1.539108	0.816708	-0.815929
C37	C	1.639385	0.836956	-0.836118
C38	C	1.246052	1.202155	-0.824079
C39	C	1.246088	1.311886	-0.824093
C40	C	1.361541	1.335163	-0.713058
C41	C	1.361500	1.225433	-0.713039
C42	C	1.188309	1.135653	-0.879596
C43	C	1.130600	1.178875	-0.935126
C44	C	1.130635	1.288607	-0.935139
C45	C	1.188380	1.355116	-0.879624
C46	C	1.303872	1.495178	-0.768602
C47	C	1.303833	1.378393	-0.768588
C48	C	1.361619	0.713517	-1.225880
C49	C	1.361640	0.713483	-1.335608
C50	C	1.246187	0.824548	-1.312331
C51	C	1.246161	0.824575	-1.202603
C52	C	1.419340	0.658004	-1.182658
C53	C	1.477082	0.602456	-1.249157
C54	C	1.477104	0.602422	-1.358885
C55	C	1.419383	0.657937	-1.402115
C56	C	1.303781	0.769222	-0.495584
C57	C	1.303929	0.769002	-0.378837
H58	H	0.960379	0.821936	-0.821129
H59	H	1.419395	0.657891	-1.491462
C60	C	0.931465	0.895895	-0.894831
N61	N	1.009531	0.911666	-0.910513
H62	H	1.188402	1.444465	-0.879636
H63	H	1.408488	1.190242	-0.667825
C64	C	0.775932	0.521409	-0.521503
N65	N	0.736880	0.457799	-0.458081
C66	C	1.419319	0.658032	-1.061955
N67	N	1.419302	0.658053	-0.971041
H68	H	1.083580	1.124717	-0.980318
H69	H	1.524070	0.557250	-1.213951
H70	H	1.524113	0.557183	-1.413025
H71	H	1.199193	0.869745	-1.347537
C72	C	1.182653	0.885684	-1.129452
N73	N	1.134816	0.931712	-1.074355
C74	C	0.832549	1.017197	-1.015807
N75	N	0.871586	1.080817	-1.079228
C76	C	0.634688	0.977273	-0.976016
N77	N	0.595656	1.025139	-1.023734
H78	H	0.562639	0.686933	-0.686547
C79	C	0.634628	0.560174	-0.560157
N80	N	0.595590	0.496556	-0.496735
H81	H	0.960344	0.577830	-0.577743
H82	H	1.188275	1.046304	-0.879594
C83	C	1.425059	1.408327	-0.651999
N84	N	1.472903	1.463435	-0.606011
C85	C	1.067151	1.336147	-0.996216
N86	N	1.019335	1.371952	-1.042225
