data_functionalizedCrystal
_audit_creation_method	'MofGen! by Chris Wilmer'
_symmetry_space_group_name_H-M	'P1'
_symmetry_Int_Tables_number	1
_symmetry_cell_setting	triclinic
loop_
_symmetry_equiv_pos_as_xyz
  x,y,z
_cell_length_a	16.992694
_cell_length_b	12.837942
_cell_length_c	15.455313
_cell_angle_alpha	92.949088
_cell_angle_beta	87.142206
_cell_angle_gamma	92.748582
loop_
_atom_site_label
_atom_site_type_symbol
_atom_site_fract_x
_atom_site_fract_y
_atom_site_fract_z
O1	O	1.060029	0.216906	-0.072020
O2	O	0.831564	0.214478	-0.072045
O3	O	0.940730	0.064370	-0.072028
O4	O	0.950863	0.367014	-0.072037
O5	O	0.934485	0.072916	0.072233
O6	O	0.825318	0.223024	0.072216
O7	O	1.053784	0.225452	0.072241
Cu8	Cu	0.938981	0.225018	0.085401
Cu9	Cu	0.946367	0.214912	-0.085205
O10	O	0.944617	0.375560	0.072224
C11	C	0.798995	0.215629	0.000082
C12	C	0.711256	0.206315	0.000072
C13	C	0.667730	0.296178	0.000070
C14	C	0.585288	0.287422	0.000082
C15	C	0.546375	0.188801	0.000091
C16	C	0.589907	0.098931	0.000095
C17	C	0.672346	0.107689	0.000089
C18	C	0.300064	0.152503	0.000115
C19	C	0.217618	0.143751	0.000118
C20	C	0.213006	0.332243	0.000107
C21	C	0.295447	0.340992	0.000096
C22	C	0.338972	0.251123	0.000105
N23	N	0.462107	0.179848	0.000100
N24	N	0.423238	0.260077	0.000102
C25	C	0.934185	0.029739	0.000102
C26	C	0.923977	-0.086184	0.000099
C27	C	1.046699	-0.316976	0.000095
C28	C	1.037111	-0.425897	0.000093
C29	C	0.895215	-0.412947	0.000086
C30	C	0.904802	-0.304027	0.000088
C31	C	0.980547	-0.256046	0.000094
C32	C	0.990134	-0.147123	0.000103
C33	C	0.848238	-0.134176	0.000090
C34	C	0.838650	-0.243096	0.000087
C35	C	1.086352	0.224301	0.000112
C36	C	1.174092	0.233614	0.000116
C37	C	0.951163	0.410191	0.000092
C38	C	0.961371	0.526114	0.000089
N39	N	0.933792	0.232127	0.205396
N40	N	0.951562	0.207795	-0.205199
C41	C	0.980189	0.168382	0.250797
C42	C	0.976273	0.173768	0.341604
C43	C	0.925963	0.242905	0.387008
C44	C	0.879560	0.306652	0.341600
C45	C	0.883473	0.301260	0.250795
C46	C	0.909072	0.266151	0.658587
C47	C	0.905164	0.271540	0.749399
C48	C	1.001877	0.138654	0.749397
C49	C	1.005788	0.133273	0.658589
C50	C	0.959383	0.197016	0.613189
N51	N	0.921960	0.248414	0.479828
N52	N	0.963381	0.191501	0.520371
H53	H	0.177559	0.405409	0.000101
H54	H	0.185938	0.063438	0.000124
H55	H	1.039657	0.086756	0.786370
H56	H	0.335492	0.079324	0.000123
C57	C	1.072284	0.041907	0.332481
C58	C	1.027288	0.103715	0.391510
H59	H	1.103785	-0.001335	0.363292
H60	H	1.038171	-0.000474	0.297079
H61	H	1.105420	0.085616	0.297049
H62	H	0.994147	0.060005	0.426938
H63	H	1.061405	0.146100	0.426926
H64	H	0.794372	-0.084554	0.000096
H65	H	1.046755	0.076976	0.621623
H66	H	0.864193	0.327844	0.786363
H67	H	0.707784	0.034513	0.000091
H68	H	0.558216	0.018632	0.000114
C69	C	0.760953	0.410987	-0.074109
C70	C	0.710498	0.404588	0.000056
H71	H	0.787349	0.477920	-0.074118
H72	H	0.798674	0.358732	-0.074103
H73	H	0.731048	0.400666	-0.124406
H74	H	0.740403	0.414901	0.050354
H75	H	0.672771	0.456859	0.000058
C76	C	0.813092	0.398051	0.667723
C77	C	0.858070	0.336226	0.608691
H78	H	0.781609	0.441319	0.636915
H79	H	0.779946	0.354362	0.703149
H80	H	0.847222	0.440416	0.703132
H81	H	0.823940	0.293855	0.573287
H82	H	0.891219	0.379920	0.573251
H83	H	1.108372	-0.277909	0.000108
H84	H	0.549853	0.360598	0.000080
C85	C	0.830626	0.373931	0.480798
C86	C	0.824259	0.382652	0.391507
H87	H	0.796489	0.420858	0.511605
H88	H	0.816215	0.304492	0.495688
H89	H	0.883491	0.390546	0.495659
H90	H	0.771395	0.366029	0.376644
H91	H	0.838665	0.452106	0.376611
C92	C	0.851835	0.476302	0.222812
C93	C	0.832475	0.371334	0.200884
H94	H	0.820351	0.519560	0.191995
H95	H	0.842301	0.489403	0.283382
H96	H	0.905980	0.491136	0.207917
H97	H	0.778331	0.356498	0.215785
H98	H	0.842003	0.358228	0.140300
C99	C	0.282603	0.526430	0.000100
C100	C	0.338218	0.449400	0.000095
H101	H	0.309010	0.593356	0.000103
H102	H	0.252717	0.516116	-0.050202
H103	H	0.248372	0.522066	0.050413
H104	H	0.372446	0.453759	-0.050221
H105	H	0.368117	0.459717	0.050402
C106	C	1.129428	-0.170868	0.000093
C107	C	1.073390	-0.094379	0.000101
H108	H	1.180828	-0.138306	0.000083
H109	H	1.120568	-0.210101	0.050397
H110	H	1.124900	-0.216061	-0.050217
H111	H	1.077914	-0.049190	0.050414
H112	H	1.082254	-0.055129	-0.050209
H113	H	1.090979	-0.475503	0.000090
C114	C	0.748756	-0.362468	-0.074076
C115	C	0.755396	-0.295848	0.000084
H116	H	0.697359	-0.395037	-0.074071
H117	H	0.757613	-0.323219	-0.124372
H118	H	0.786787	-0.414341	-0.074069
H119	H	0.717369	-0.243971	0.000074
H120	H	0.746531	-0.335099	0.050393
H121	H	0.833547	-0.452034	0.000071
H122	H	1.021161	0.112088	0.213835
