data_functionalizedCrystal
_audit_creation_method	'MofGen! by Chris Wilmer'
_symmetry_space_group_name_H-M	'P1'
_symmetry_Int_Tables_number	1
_symmetry_cell_setting	triclinic
loop_
_symmetry_equiv_pos_as_xyz
  x,y,z
_cell_length_a	18.426585
_cell_length_b	14.809374
_cell_length_c	14.809374
_cell_angle_alpha	60.797835
_cell_angle_beta	89.999492
_cell_angle_gamma	67.427171
loop_
_atom_site_label
_atom_site_type_symbol
_atom_site_fract_x
_atom_site_fract_y
_atom_site_fract_z
Zr1	Zr	0.801597	0.955238	-0.203700
O2	O	0.712699	1.113155	-0.350856
O3	O	0.816264	0.777472	-0.145624
O4	O	0.845949	0.926621	-0.332165
O5	O	0.673914	0.993501	-0.031917
O6	O	0.965376	0.926626	-0.332169
O7	O	0.683014	0.964006	-0.164315
O8	O	0.912274	0.659826	0.001519
O9	O	0.727016	1.260301	-0.365605
O10	O	0.926851	0.857945	-0.136522
O11	O	0.830933	0.879953	-0.037712
O12	O	0.865884	1.055557	-0.257339
O13	O	0.769966	1.077565	-0.158529
Zr14	Zr	0.977556	1.002288	0.007454
Zr15	Zr	0.992069	0.955247	-0.203706
Zr16	Zr	0.787084	1.002280	0.007460
Zr17	Zr	0.824431	1.189920	-0.227222
Zr18	Zr	0.954723	0.767606	0.030976
O19	O	0.962890	1.180054	-0.050623
O20	O	0.983526	1.113167	-0.350865
O21	O	0.692063	1.180042	-0.050614
O22	O	1.066454	0.844371	0.154610
O23	O	1.087090	0.777484	-0.145633
O24	O	0.795628	0.844359	0.154619
O25	O	1.105240	0.964025	-0.164329
O26	O	0.933204	1.030905	0.135918
O27	O	0.813777	1.030900	0.135922
O28	O	1.096140	0.993520	-0.031931
O29	O	0.878415	1.260308	-0.365610
O30	O	0.900738	0.697218	0.169363
O31	O	1.052138	0.697225	0.169358
O32	O	1.063674	0.659833	0.001514
O33	O	0.715480	1.297693	-0.197760
O34	O	0.866879	1.297700	-0.197766
O35	O	0.913269	0.901969	0.061093
O36	O	1.009187	0.879961	-0.037717
O37	O	0.948220	1.077573	-0.158535
O38	O	0.852302	1.099581	-0.059725
C39	C	0.861016	0.685212	-0.068701
C40	C	0.851322	0.585583	-0.058715
C41	C	0.894582	0.530248	-0.103280
C42	C	0.884565	0.427277	-0.092960
C43	C	0.651325	0.978752	-0.098115
C44	C	0.570465	0.978748	-0.098113
C45	C	0.274355	0.978783	-0.098134
C46	C	0.356741	0.978778	-0.098131
C47	C	0.422408	0.978766	-0.098124
C48	C	0.504798	0.978761	-0.098120
C49	C	1.127828	0.978774	-0.098131
C50	C	1.208688	0.978778	-0.098134
C51	C	0.907731	0.919921	-0.362252
C52	C	0.913892	0.899951	-0.451895
C53	C	0.918138	1.272314	-0.127546
C54	C	0.927831	1.371943	-0.137531
C55	C	0.886395	0.989076	-0.551795
C56	C	0.892762	0.968438	-0.644447
C57	C	0.871423	1.037605	0.166006
C58	C	0.865262	1.057575	0.255649
C59	C	1.099267	0.685223	-0.068709
C60	C	1.170434	0.585598	-0.058726
C61	C	0.842862	0.744054	0.195428
C62	C	0.827007	0.664396	0.295057
C63	C	1.081113	0.744065	0.195420
C64	C	1.146119	0.664410	0.295046
C65	C	0.698040	1.213461	-0.391667
C66	C	0.633035	1.293116	-0.491293
C67	C	0.679886	1.272303	-0.127538
C68	C	0.608720	1.371928	-0.137521
C69	C	0.936292	1.213472	-0.391675
C70	C	0.952146	1.293131	-0.491303
C71	C	1.160877	0.527319	-0.105622
C72	C	1.227741	0.433719	-0.096263
C73	C	1.304160	0.398396	-0.040001
C74	C	1.313717	0.456684	0.006895
C75	C	1.246854	0.550287	-0.002471
C76	C	0.862539	0.638481	0.393427
C77	C	0.847640	0.563649	0.487046
C78	C	0.797212	0.514726	0.482292
C79	C	0.761676	0.540647	0.383911
C80	C	0.776571	0.615484	0.290294
C81	C	1.226722	0.615516	0.290254
C82	C	1.287811	0.540683	0.383853
C83	C	1.268294	0.514740	0.482245
C84	C	1.187683	0.563643	0.487035
C85	C	1.126596	0.638481	0.393436
C86	C	0.552432	1.342022	-0.486501
C87	C	0.491346	1.416883	-0.580104
C88	C	0.510864	1.442831	-0.678496
C89	C	0.591475	1.393922	-0.683285
C90	C	0.652560	1.319068	-0.589685
C91	C	0.618278	1.430215	-0.090635
C92	C	0.551418	1.523835	-0.100020
C93	C	0.474999	1.559162	-0.156284
C94	C	0.465442	1.500870	-0.203176
C95	C	0.532303	1.407256	-0.193797
C96	C	1.002578	1.342031	-0.486515
C97	C	1.017491	1.416868	-0.580118
C98	C	0.981966	1.442809	-0.678508
C99	C	0.931532	1.393899	-0.683293
C100	C	0.916625	1.319058	-0.589691
H101	H	0.939039	0.559101	-0.149069
H102	H	1.358597	0.322175	-0.032382
H103	H	0.403213	1.529647	-0.248987
N104	N	0.930195	0.847114	-0.621992
H105	H	0.987856	0.805253	-0.579790
H106	H	0.929382	0.849667	-0.691406
N107	N	0.402884	1.660125	-0.166394
H108	H	0.412430	1.731259	-0.203528
H109	H	0.394923	1.642994	-0.093237
H110	H	0.902612	1.415032	-0.763415
H111	H	0.785090	0.453790	0.558529
H112	H	0.524508	1.359801	-0.231975
H113	H	1.031509	1.320924	-0.406410
H114	H	0.720616	0.500803	0.380056
H115	H	1.254646	0.597729	0.035725
N116	N	0.916932	0.691235	0.398579
H117	H	0.893742	0.738366	0.431888
H118	H	0.920969	0.742522	0.324326
N119	N	0.825679	0.389058	-0.032295
H120	H	0.769385	0.454403	-0.066485
H121	H	0.841399	0.366233	0.043756
H122	H	0.876583	0.542554	0.567142
H123	H	0.972290	0.400792	-0.183323
H124	H	0.425714	1.456694	-0.576184
N125	N	0.792443	0.547362	0.001955
H126	H	0.793634	0.479218	0.000730
H127	H	0.736179	0.612775	-0.032271
H128	H	0.718189	1.279247	-0.593598
N129	N	0.848975	1.110393	-0.574242
H130	H	0.849733	1.107940	-0.504872
H131	H	0.791332	1.152198	-0.616478
N132	N	0.700696	1.392126	-0.029947
H133	H	0.696595	1.443271	-0.001680
H134	H	0.739084	1.397866	-0.078942
N135	N	0.827834	1.178897	-0.766800
H136	H	0.770173	1.220766	-0.809006
H137	H	0.859722	1.220668	-0.808971
N138	N	0.951327	0.778634	-0.429448
H139	H	0.950572	0.781087	-0.498818
H140	H	0.919480	0.736827	-0.387209
N141	N	1.078458	0.565404	-0.166304
H142	H	1.082562	0.514274	-0.194590
H143	H	1.057615	0.647823	-0.227570
N144	N	1.334184	0.434022	0.583195
H145	H	1.388206	0.406986	0.565219
H146	H	1.323812	0.365427	0.631479
N147	N	0.561742	1.586706	-0.049455
H148	H	0.507797	1.651385	-0.063943
H149	H	0.600982	1.619416	-0.080436
N150	N	1.396138	0.418572	0.067592
H151	H	1.412079	0.483951	0.033394
H152	H	1.436984	0.350405	0.066396
H153	H	1.060966	0.678282	0.397353
N154	N	1.247783	0.643476	0.184140
H155	H	1.308118	0.601140	0.195323
H156	H	1.229983	0.729160	0.137522
H157	H	1.058556	1.456685	-0.576201
H158	H	0.994111	1.503752	-0.754716
N159	N	1.217416	0.370868	-0.146849
H160	H	1.178218	0.338056	-0.115888
H161	H	1.271397	0.306266	-0.132382
H162	H	0.747637	0.636571	0.210201
N163	N	1.166638	0.535656	0.593161
H164	H	1.217572	0.480822	0.651721
H165	H	1.128741	0.498610	0.604858
H166	H	0.461117	1.503784	-0.754704
N167	N	0.531369	1.314040	-0.380385
H168	H	0.471036	1.356392	-0.391570
H169	H	0.559899	1.338610	-0.344821
N170	N	0.862227	1.266320	-0.594863
H171	H	0.841988	1.294118	-0.671399
H172	H	0.814787	1.289902	-0.563806
H173	H	1.353444	0.500872	0.379935
H174	H	0.607357	1.415059	-0.763408
