data_functionalizedCrystal
_audit_creation_method	'MofGen! by Chris Wilmer'
_symmetry_space_group_name_H-M	'P1'
_symmetry_Int_Tables_number	1
_symmetry_cell_setting	triclinic
loop_
_symmetry_equiv_pos_as_xyz
  x,y,z
_cell_length_a	25.639242
_cell_length_b	12.759400
_cell_length_c	12.759393
_cell_angle_alpha	90.030452
_cell_angle_beta	90.031512
_cell_angle_gamma	90.010100
loop_
_atom_site_label
_atom_site_type_symbol
_atom_site_fract_x
_atom_site_fract_y
_atom_site_fract_z
Zn1	Zn	0.799361	-0.418341	0.594317
Zn2	Zn	1.132694	-0.085007	0.927650
Zn3	Zn	1.466028	0.248326	1.260983
Zn4	Zn	0.799307	-0.594056	0.418637
Zn5	Zn	1.132640	-0.260723	0.751970
Zn6	Zn	1.465974	0.072610	1.085304
Zn7	Zn	0.711923	-0.418378	0.418620
Zn8	Zn	1.045256	-0.085045	0.751953
Zn9	Zn	1.378590	0.248288	1.085286
Zn10	Zn	0.711919	-0.593964	0.594242
Zn11	Zn	1.045252	-0.260631	0.927575
Zn12	Zn	1.378586	0.072702	1.260909
O13	O	0.755628	-0.506185	0.506454
O14	O	1.088961	-0.172852	0.839787
O15	O	1.422294	0.160482	1.173120
O16	O	0.872519	-0.441672	0.571051
O17	O	1.205852	-0.108339	0.904385
O18	O	1.539186	0.224994	1.237718
O19	O	0.787694	-0.570806	0.271614
O20	O	1.121028	-0.237473	0.604947
O21	O	1.454361	0.095860	0.938280
O22	O	0.723546	-0.271352	0.441950
O23	O	1.056879	0.061981	0.775284
O24	O	1.390213	0.395314	1.108617
O25	O	0.872479	-0.570770	0.441980
O26	O	1.205813	-0.237437	0.775313
O27	O	1.539146	0.095897	1.108647
O28	O	0.787786	-0.271325	0.571034
O29	O	1.121120	0.062009	0.904368
O30	O	1.454453	0.395342	1.237701
O31	O	0.723494	-0.441736	0.271601
O32	O	1.056827	-0.108403	0.604934
O33	O	1.390160	0.224930	0.938267
O34	O	0.638757	-0.441647	0.441878
O35	O	0.972091	-0.108314	0.775211
O36	O	1.305424	0.225019	1.108544
O37	O	0.723540	-0.570613	0.741273
O38	O	1.056873	-0.237280	1.074606
O39	O	1.390206	0.096053	1.407940
O40	O	0.638754	-0.570650	0.570906
O41	O	0.972088	-0.237317	0.904240
O42	O	1.305421	0.096017	1.237573
O43	O	0.787783	-0.441583	0.741328
O44	O	1.121116	-0.108250	1.074661
O45	O	1.454449	0.225083	1.407995
O46	O	0.787691	-0.741065	0.441907
O47	O	1.121024	-0.407732	0.775241
O48	O	1.454357	-0.074398	1.108574
O49	O	0.723487	-0.740998	0.570923
O50	O	1.056820	-0.407664	0.904257
O51	O	1.390154	-0.074331	1.237590
C52	C	0.619785	-0.506144	0.506383
C53	C	0.953118	-0.172810	0.839716
C54	C	1.286452	0.160523	1.173049
C55	C	0.561671	-0.506151	0.506377
C56	C	0.895004	-0.172818	0.839710
C57	C	1.228338	0.160516	1.173044
C58	C	0.755597	-0.779152	0.506432
C59	C	1.088930	-0.445819	0.839765
C60	C	1.422263	-0.112486	1.173099
C61	C	0.755631	-0.895929	0.506458
C62	C	1.088965	-0.562596	0.839791
C63	C	1.422298	-0.229262	1.173125
C64	C	0.789131	-1.060522	0.439387
C65	C	1.122465	-0.727189	0.772720
C66	C	1.455798	-0.393855	1.106054
C67	C	0.789100	-0.950798	0.439354
C68	C	1.122433	-0.617465	0.772687
C69	C	1.455767	-0.284131	1.106021
C70	C	0.722188	-0.950789	0.573592
C71	C	1.055522	-0.617456	0.906925
C72	C	1.388855	-0.284123	1.240258
C73	C	0.722218	-1.060511	0.573618
C74	C	1.055551	-0.727178	0.906952
C75	C	1.388884	-0.393845	1.240285
C76	C	0.201315	-0.573469	0.573576
C77	C	0.534649	-0.240135	0.906909
C78	C	0.867982	0.093198	1.240242
C79	C	0.146711	-0.573475	0.573592
C80	C	0.480044	-0.240142	0.906925
C81	C	0.813378	0.093191	1.240259
O82	O	0.118481	-0.630660	0.630666
O83	O	0.451814	-0.297326	0.964000
O84	O	0.785147	0.036007	1.297333
N85	N	0.119388	-0.506214	0.506522
N86	N	0.452722	-0.172880	0.839856
N87	N	0.786055	0.160453	1.173189
C88	C	0.146673	-0.438934	0.439439
C89	C	0.480006	-0.105601	0.772773
C90	C	0.813340	0.227733	1.106106
O91	O	0.118419	-0.381723	0.382393
O92	O	0.451753	-0.048390	0.715727
O93	O	0.785086	0.284944	1.049060
C94	C	0.201276	-0.438923	0.439429
C95	C	0.534610	-0.105590	0.772762
C96	C	0.867943	0.227744	1.106095
C97	C	0.228596	-0.506196	0.506495
C98	C	0.561929	-0.172863	0.839829
C99	C	0.895263	0.160470	1.173162
C100	C	0.228635	-0.640736	0.640637
C101	C	0.561968	-0.307402	0.973971
C102	C	0.895302	0.025931	1.307304
C103	C	0.283236	-0.640730	0.640619
C104	C	0.616569	-0.307397	0.973953
C105	C	0.949902	0.025936	1.307286
C106	C	0.310516	-0.573458	0.573539
C107	C	0.643850	-0.240125	0.906872
C108	C	0.977183	0.093208	1.240206
C109	C	0.283197	-0.506191	0.506477
C110	C	0.616530	-0.172858	0.839810
C111	C	0.949863	0.160476	1.173144
C112	C	0.228560	-0.371639	0.372352
C113	C	0.561893	-0.038306	0.705685
C114	C	0.895227	0.295028	1.039018
C115	C	0.283167	-0.371633	0.372348
C116	C	0.616500	-0.038300	0.705681
C117	C	0.949834	0.295033	1.039014
C118	C	0.310487	-0.438907	0.439414
C119	C	0.643820	-0.105573	0.772747
C120	C	0.977153	0.227760	1.106081
C121	C	0.365078	-0.438914	0.439379
C122	C	0.698411	-0.105580	0.772712
C123	C	1.031745	0.227753	1.106045
N124	N	0.392400	-0.506175	0.506448
N125	N	0.725734	-0.172842	0.839782
N126	N	1.059067	0.160492	1.173115
C127	C	0.365120	-0.573447	0.573529
C128	C	0.698453	-0.240114	0.906862
C129	C	1.031786	0.093219	1.240195
C130	C	0.032002	-0.438961	0.439468
C131	C	0.365336	-0.105628	0.772801
C132	C	0.698669	0.227706	1.106134
C133	C	-0.022600	-0.438976	0.439472
C134	C	0.310733	-0.105643	0.772805
C135	C	0.644067	0.227690	1.106139
C136	C	-0.022558	-0.573516	0.573627
C137	C	0.310775	-0.240183	0.906960
C138	C	0.644108	0.093150	1.240293
C139	C	0.032045	-0.573505	0.573616
C140	C	0.365378	-0.240172	0.906949
C141	C	0.698712	0.093161	1.240283
C142	C	0.059325	-0.506222	0.506537
C143	C	0.392658	-0.172889	0.839871
C144	C	0.725992	0.160444	1.173204
C145	C	0.479785	-0.573432	0.573485
C146	C	0.813118	-0.240098	0.906818
C147	C	1.146451	0.093235	1.240151
C148	C	0.534390	-0.573423	0.573457
C149	C	0.867723	-0.240090	0.906791
C150	C	1.201057	0.093243	1.240124
C151	C	0.534344	-0.438880	0.439307
C152	C	0.867677	-0.105547	0.772640
C153	C	1.201010	0.227787	1.105974
C154	C	0.479743	-0.438892	0.439330
C155	C	0.813076	-0.105558	0.772663
C156	C	1.146410	0.227775	1.105997
C157	C	0.452465	-0.506171	0.506427
C158	C	0.785798	-0.172838	0.839761
C159	C	1.119132	0.160496	1.173094
O160	O	0.393343	-0.381755	0.382337
O161	O	0.726676	-0.048422	0.715670
O162	O	1.060010	0.284911	1.049003
O163	O	0.393380	-0.630639	0.630575
O164	O	0.726714	-0.297306	0.963908
O165	O	1.060047	0.036028	1.297241
C166	C	0.892001	-0.506227	0.506526
C167	C	1.225334	-0.172894	0.839859
C168	C	1.558667	0.160439	1.173193
C169	C	0.950115	-0.506245	0.506557
C170	C	1.283448	-0.172912	0.839890
C171	C	1.616781	0.160421	1.173223
C172	C	0.755667	-0.506084	0.780487
C173	C	1.089000	-0.172751	1.113821
C174	C	1.422333	0.160583	1.447154
C175	C	0.755683	-0.506041	0.897264
C176	C	1.089017	-0.172708	1.230597
C177	C	1.422350	0.160626	1.563931
C178	C	0.755673	-0.232152	0.506499
C179	C	1.089006	0.101182	0.839832
C180	C	1.422339	0.434515	1.173165
C181	C	0.755692	-0.115375	0.506518
C182	C	1.089025	0.217958	0.839851
C183	C	1.422359	0.551292	1.173184
C184	C	0.755619	-0.506210	0.233486
C185	C	1.088952	-0.172876	0.566820
C186	C	1.422285	0.160457	0.900153
C187	C	0.755703	-0.505957	0.116710
C188	C	1.089037	-0.172623	0.450044
C189	C	1.422370	0.160710	0.783377
C190	C	0.789137	-0.438844	0.952156
C191	C	1.122471	-0.105511	1.285490
C192	C	1.455804	0.227822	1.618823
C193	C	0.789146	-0.438799	1.061881
C194	C	1.122479	-0.105466	1.395214
C195	C	1.455813	0.227868	1.728547
C196	C	0.722246	-0.573156	1.061810
C197	C	1.055579	-0.239823	1.395144
C198	C	1.388912	0.093510	1.728477
C199	C	0.722235	-0.573195	0.952088
C200	C	1.055568	-0.239862	1.285422
C201	C	1.388901	0.093471	1.618755
H202	H	0.816388	-1.105189	0.384749
H203	H	1.149721	-0.771855	0.718082
H204	H	1.483055	-0.438522	1.051416
H205	H	0.694989	-0.627914	0.907394
H206	H	1.028322	-0.294581	1.240727
H207	H	1.361655	0.038752	1.574060
H208	H	0.556566	-0.384112	0.384689
H209	H	0.889899	-0.050779	0.718022
H210	H	1.223232	0.282555	1.051355
H211	H	0.694985	-1.105174	0.628286
H212	H	1.028318	-0.771840	0.961620
H213	H	1.361652	-0.438507	1.294953
H214	H	0.556631	-0.628209	0.628072
H215	H	0.889965	-0.294876	0.961405
H216	H	1.223298	0.038457	1.294738
H217	H	0.457498	-0.384114	0.384717
H218	H	0.790832	-0.050781	0.718050
H219	H	1.124165	0.282552	1.051383
H220	H	0.695014	-0.627833	1.106462
H221	H	1.028347	-0.294500	1.439795
H222	H	1.361681	0.038833	1.773128
H223	H	0.457581	-0.628214	0.628124
H224	H	0.790915	-0.294881	0.961457
H225	H	1.124248	0.038452	1.294791
H226	H	0.305474	-0.695509	0.695234
H227	H	0.638808	-0.362176	1.028567
H228	H	0.972141	-0.028843	1.361901
H229	H	0.816372	-0.384160	0.907522
H230	H	1.149705	-0.050827	1.240855
H231	H	1.483039	0.282507	1.574188
H232	H	0.816387	-0.384079	1.106569
H233	H	1.149720	-0.050746	1.439902
H234	H	1.483053	0.282588	1.773236
H235	H	0.206429	-0.695517	0.695268
H236	H	0.539762	-0.362184	1.028601
H237	H	0.873095	-0.028851	1.361935
H238	H	0.816328	-0.906140	0.384689
H239	H	1.149662	-0.572807	0.718022
H240	H	1.482995	-0.239473	1.051356
H241	H	0.054285	-0.628284	0.628229
H242	H	0.387619	-0.294950	0.961563
H243	H	0.720952	0.038383	1.294896
H244	H	0.694935	-0.906109	0.628225
H245	H	1.028268	-0.572775	0.961558
H246	H	1.361602	-0.239442	1.294892
H247	H	-0.044780	-0.628290	0.628250
H248	H	0.288553	-0.294957	0.961584
H249	H	0.621887	0.038377	1.294917
H250	H	-0.044839	-0.384206	0.384849
H251	H	0.288494	-0.050873	0.718182
H252	H	0.621828	0.282461	1.051516
H253	H	0.054210	-0.384172	0.384836
H254	H	0.387544	-0.050838	0.718170
H255	H	0.720877	0.282495	1.051503
H256	H	0.206326	-0.316860	0.317736
H257	H	0.539659	0.016473	0.651069
H258	H	0.872992	0.349806	0.984403
H259	H	0.305375	-0.316836	0.317729
H260	H	0.638709	0.016498	0.651062
H261	H	0.972042	0.349831	0.984396
