data_functionalizedCrystal
_audit_creation_method	'MofGen! by Chris Wilmer'
_symmetry_space_group_name_H-M	'P1'
_symmetry_Int_Tables_number	1
_symmetry_cell_setting	triclinic
loop_
_symmetry_equiv_pos_as_xyz
  x,y,z
_cell_length_a	14.519709
_cell_length_b	11.026607
_cell_length_c	10.065875
_cell_angle_alpha	100.697662
_cell_angle_beta	98.804604
_cell_angle_gamma	83.866919
loop_
_atom_site_label
_atom_site_type_symbol
_atom_site_fract_x
_atom_site_fract_y
_atom_site_fract_z
O1	O	0.375708	-1.628737	-0.113512
O2	O	0.331718	-1.275335	-0.113511
O3	O	0.221020	-1.461404	-0.113499
O4	O	0.486407	-1.442668	-0.113524
O5	O	0.242237	-1.425923	0.113487
O6	O	0.352935	-1.239855	0.113475
O7	O	0.396926	-1.593256	0.113475
Zn8	Zn	0.378299	-1.410922	0.149514
Zn9	Zn	0.350345	-1.457669	-0.149550
O10	O	0.507624	-1.407187	0.113463
C11	C	0.334211	-1.212366	-0.000018
C12	C	0.310019	-1.077600	-0.000017
C13	C	0.197125	-1.442790	-0.000006
C14	C	0.094312	-1.440173	-0.000005
C15	C	0.394432	-1.656225	-0.000022
C16	C	0.418624	-1.790993	-0.000031
C17	C	-0.282174	-1.430544	-0.000040
C18	C	-0.177425	-1.433218	-0.000030
C19	C	-0.093934	-1.435358	-0.000021
C20	C	0.010822	-1.438033	-0.000014
C21	C	0.531519	-1.425802	-0.000034
C22	C	0.634330	-1.428420	-0.000043
N23	N	0.397378	-1.379027	0.353617
C24	C	0.376818	-1.003940	-0.000024
C25	C	0.351815	-0.864652	-0.000024
N26	N	0.331260	-1.489574	-0.353654
C27	C	0.356976	-1.446564	0.421401
C28	C	0.371668	-1.422027	0.578566
H29	H	0.276108	-0.824606	-0.000052
C30	C	0.486094	-1.148196	-0.116716
C31	C	0.479012	-1.058001	-0.000032
H32	H	0.549188	-1.181561	-0.116720
H33	H	0.447430	-1.212448	-0.116700
H34	H	0.466480	-1.111738	-0.195863
H35	H	0.498620	-1.094461	0.079116
H36	H	0.517689	-0.993738	-0.000035
C37	C	0.527896	-0.935220	-0.116761
C38	C	0.520825	-0.845037	-0.000064
H39	H	0.590991	-0.968575	-0.116789
H40	H	0.489243	-0.999482	-0.116737
H41	H	0.508264	-0.898757	-0.195900
H42	H	0.540451	-0.881503	0.079075
H43	H	0.559491	-0.780764	-0.000076
C44	C	0.204826	-1.523859	0.377051
C45	C	0.295611	-1.549152	0.342644
H46	H	0.166947	-1.587193	0.328414
H47	H	0.206634	-1.520857	0.472323
H48	H	0.179322	-1.446379	0.353726
H49	H	0.321117	-1.626628	0.365978
H50	H	0.293807	-1.552167	0.247351
H51	H	0.417134	-1.346030	0.636882
C52	C	0.202836	-0.896019	-0.000020
C53	C	0.207824	-1.023539	-0.000015
H54	H	0.139742	-0.862652	-0.000028
H55	H	0.240077	-0.857089	0.079130
H56	H	0.225293	-0.881838	-0.079181
H57	H	0.185373	-1.037720	0.079152
H58	H	0.170569	-1.062482	-0.079173
C59	C	0.179076	-1.566626	0.602453
C60	C	0.269789	-1.592132	0.567802
H61	H	0.141102	-1.629929	0.554006
H62	H	0.180996	-1.563500	0.697766
H63	H	0.153603	-1.489158	0.579065
H64	H	0.295264	-1.669597	0.591200
H65	H	0.267872	-1.595271	0.472469
H66	H	0.442841	-1.303036	0.411939
