data_functionalizedCrystal
_audit_creation_method	'MofGen! by Chris Wilmer'
_symmetry_space_group_name_H-M	'P1'
_symmetry_Int_Tables_number	1
_symmetry_cell_setting	triclinic
loop_
_symmetry_equiv_pos_as_xyz
  x,y,z
_cell_length_a	16.109301
_cell_length_b	14.044190
_cell_length_c	14.586319
_cell_angle_alpha	89.991348
_cell_angle_beta	89.999213
_cell_angle_gamma	88.326629
loop_
_atom_site_label
_atom_site_type_symbol
_atom_site_fract_x
_atom_site_fract_y
_atom_site_fract_z
O1	O	1.112198	0.121835	-0.076192
O2	O	1.445531	0.455168	0.257141
O3	O	1.778865	0.788501	0.590474
O4	O	0.871264	0.136997	-0.076208
O5	O	1.204598	0.470330	0.257125
O6	O	1.537931	0.803664	0.590458
O7	O	0.988112	-0.008568	-0.076183
O8	O	1.321445	0.324765	0.257151
O9	O	1.654778	0.658099	0.590484
O10	O	0.995351	0.267399	-0.076218
O11	O	1.328684	0.600733	0.257115
O12	O	1.662017	0.934066	0.590449
O13	O	0.988103	-0.008570	0.076298
O14	O	1.321436	0.324763	0.409632
O15	O	1.654769	0.658097	0.742965
O16	O	0.871255	0.136995	0.076273
O17	O	1.204589	0.470328	0.409606
O18	O	1.537922	0.803661	0.742939
O19	O	1.112189	0.121833	0.076288
O20	O	1.445522	0.455166	0.409622
O21	O	1.778856	0.788499	0.742955
Cu22	Cu	0.991721	0.129413	0.090203
Cu23	Cu	1.325055	0.462747	0.423537
Cu24	Cu	1.658388	0.796080	0.756870
Cu25	Cu	0.991732	0.129416	-0.090123
Cu26	Cu	1.325065	0.462749	0.243210
Cu27	Cu	1.658399	0.796083	0.576544
O28	O	0.995342	0.267397	0.076263
O29	O	1.328675	0.600731	0.409596
O30	O	1.662008	0.934064	0.742929
C31	C	0.840239	0.136382	0.000030
C32	C	1.173573	0.469715	0.333364
C33	C	1.506906	0.803048	0.666697
C34	C	0.747807	0.134540	0.000025
C35	C	1.081140	0.467874	0.333358
C36	C	1.414474	0.801207	0.666692
C37	C	0.984940	-0.043882	0.000060
C38	C	1.318274	0.289451	0.333394
C39	C	1.651607	0.622784	0.666727
C40	C	0.975494	-0.149105	0.000068
C41	C	1.308828	0.184228	0.333401
C42	C	1.642161	0.517561	0.666734
C43	C	0.531644	0.216634	0.000025
C44	C	0.864978	0.549967	0.333358
C45	C	1.198311	0.883301	0.666692
C46	C	0.444795	0.214896	0.000031
C47	C	0.778128	0.548230	0.333365
C48	C	1.111461	0.881563	0.666698
C49	C	0.451816	0.042189	0.000050
C50	C	0.785149	0.375522	0.333383
C51	C	1.118482	0.708856	0.666716
C52	C	0.538664	0.043927	0.000050
C53	C	0.871997	0.377261	0.333383
C54	C	1.205330	0.710594	0.666717
C55	C	0.578576	0.131153	0.000033
C56	C	0.911909	0.464486	0.333367
C57	C	1.245242	0.797819	0.666700
C58	C	0.404878	0.127677	0.000039
C59	C	0.738211	0.461010	0.333372
C60	C	1.071545	0.794343	0.666706
C61	C	0.310712	0.125792	0.000045
C62	C	0.644045	0.459125	0.333379
C63	C	0.977378	0.792459	0.666712
C64	C	0.672748	0.133038	0.000028
C65	C	1.006081	0.466371	0.333362
C66	C	1.339415	0.799704	0.666695
C67	C	1.025219	-0.399407	0.000035
C68	C	1.358552	-0.066074	0.333368
C69	C	1.691886	0.267259	0.666702
C70	C	0.958238	-0.341758	0.000037
C71	C	1.291572	-0.008424	0.333370
C72	C	1.624905	0.324909	0.666704
C73	C	0.967842	-0.234556	0.000054
C74	C	1.301175	0.098777	0.333387
C75	C	1.634509	0.432110	0.666721
C76	C	1.015617	-0.506619	0.000018
C77	C	1.348950	-0.173285	0.333351
C78	C	1.682283	0.160048	0.666685
C79	C	1.143214	0.122448	0.000048
C80	C	1.476547	0.455781	0.333381
C81	C	1.809881	0.789114	0.666714
C82	C	1.235646	0.124289	0.000047
C83	C	1.568980	0.457623	0.333380
C84	C	1.902313	0.790956	0.666714
C85	C	0.998513	0.302712	0.000018
C86	C	1.331846	0.636045	0.333351
C87	C	1.665180	0.969379	0.666684
C88	C	1.007959	0.407935	0.000004
C89	C	1.341293	0.741268	0.333338
C90	C	1.674626	1.074602	0.666671
N91	N	0.991720	0.129411	0.217035
N92	N	1.325053	0.462744	0.550368
N93	N	1.658387	0.796078	0.883702
N94	N	0.991740	0.129411	-0.216955
N95	N	1.325073	0.462744	0.116379
N96	N	1.658406	0.796078	0.449712
C97	C	1.043480	0.064977	0.452053
C98	C	1.376814	0.398310	0.785386
C99	C	1.710147	0.731643	1.118719
C100	C	1.043482	0.064974	0.548034
C101	C	1.376816	0.398308	0.881367
C102	C	1.710149	0.731641	1.214701
C103	C	0.939974	0.193848	0.548021
C104	C	1.273307	0.527182	0.881354
C105	C	1.606640	0.860515	1.214687
C106	C	0.939968	0.193845	0.452041
C107	C	1.273301	0.527179	0.785375
C108	C	1.606634	0.860512	1.118708
C109	C	0.991726	0.129411	0.404060
C110	C	1.325059	0.462744	0.737393
C111	C	1.658392	0.796077	1.070726
C112	C	0.991734	0.129411	0.596020
C113	C	1.325067	0.462745	0.929354
C114	C	1.658401	0.796078	1.262687
C115	C	0.991736	0.129409	0.700088
C116	C	1.325069	0.462743	1.033421
C117	C	1.658403	0.796076	1.366754
C118	C	0.991723	0.129411	0.299986
C119	C	1.325056	0.462744	0.633319
C120	C	1.658389	0.796078	0.966653
H121	H	0.564138	0.287658	0.000018
H122	H	0.897471	0.620992	0.333352
H123	H	1.230805	0.954325	0.666685
H124	H	0.576877	-0.025686	0.000059
H125	H	0.910210	0.307647	0.333393
H126	H	1.243543	0.640981	0.666726
H127	H	0.897819	0.246316	0.412963
H128	H	1.231152	0.579649	0.746296
H129	H	1.564486	0.912982	1.079629
H130	H	0.406587	0.284504	0.000027
H131	H	0.739920	0.617837	0.333360
H132	H	1.073253	0.951171	0.666693
H133	H	0.419309	-0.028827	0.000069
H134	H	0.752642	0.304506	0.333402
H135	H	1.085975	0.637840	0.666736
H136	H	1.085625	0.012505	0.587107
H137	H	1.418958	0.345839	0.920441
H138	H	1.752291	0.679172	1.253774
H139	H	1.089771	-0.368254	0.000049
H140	H	1.423104	-0.034920	0.333382
H141	H	1.756437	0.298413	0.666715
H142	H	0.893681	-0.372913	0.000028
H143	H	1.227015	-0.039580	0.333361
H144	H	1.560348	0.293754	0.666694
Br145	Br	0.869735	0.281294	0.613141
Br146	Br	1.203068	0.614628	0.946475
Br147	Br	1.536401	0.947961	1.279808
H148	H	1.085624	0.012509	0.412988
H149	H	1.418957	0.345842	0.746322
H150	H	1.752290	0.679175	1.079655
