data_functionalizedCrystal
_audit_creation_method	'MofGen! by Chris Wilmer'
_symmetry_space_group_name_H-M	'P1'
_symmetry_Int_Tables_number	1
_symmetry_cell_setting	triclinic
loop_
_symmetry_equiv_pos_as_xyz
  x,y,z
_cell_length_a	14.853566
_cell_length_b	13.339070
_cell_length_c	12.376457
_cell_angle_alpha	104.398083
_cell_angle_beta	78.693687
_cell_angle_gamma	99.631854
loop_
_atom_site_label
_atom_site_type_symbol
_atom_site_fract_x
_atom_site_fract_y
_atom_site_fract_z
O1	O	1.241699	0.112761	-0.093924
O2	O	0.983161	0.128497	-0.093942
O3	O	1.082758	-0.026676	-0.093932
O4	O	1.142102	0.267934	-0.093934
O5	O	1.057858	0.012064	0.094078
O6	O	0.958261	0.167238	0.094068
O7	O	1.216799	0.151501	0.094085
Zn8	Zn	1.083576	0.165520	0.123927
Zn9	Zn	1.116383	0.114478	-0.123784
O10	O	1.117202	0.306674	0.094075
C11	C	0.936945	0.147154	0.000060
C12	C	0.836330	0.145016	0.000053
C13	C	1.060284	-0.045009	0.000071
C14	C	1.030404	-0.157354	0.000064
C15	C	1.262735	-0.521819	0.000081
C16	C	1.290810	-0.416264	0.000094
C17	C	1.225711	-0.351532	0.000086
C18	C	1.132532	-0.392364	0.000066
C19	C	1.104453	-0.497927	0.000063
C20	C	1.067429	-0.327640	0.000067
C21	C	0.974250	-0.368472	0.000048
C22	C	0.946176	-0.474025	0.000043
C23	C	1.011275	-0.538758	0.000051
C24	C	1.095508	-0.222077	0.000071
C25	C	0.937226	-0.198185	0.000053
C26	C	0.909151	-0.303740	0.000040
C27	C	0.424465	0.114866	-0.102411
C28	C	0.397340	0.157103	0.102565
C29	C	0.491874	0.159108	0.102561
C30	C	0.552709	0.138994	0.000070
C31	C	0.519009	0.116874	-0.102417
C32	C	0.525582	0.181238	0.205047
C33	C	0.620122	0.183246	0.205047
C34	C	0.680957	0.163124	0.102555
C35	C	0.647252	0.141002	0.000063
C36	C	0.708087	0.120888	-0.102427
C37	C	0.674383	0.098758	-0.204920
C38	C	0.579845	0.096752	-0.204910
C39	C	0.775496	0.165130	0.102544
C40	C	0.802631	0.122896	-0.102434
C41	C	1.263015	0.132844	0.000081
C42	C	1.363631	0.134980	0.000080
C43	C	1.139676	0.325007	0.000070
C44	C	1.169557	0.437351	0.000069
N45	N	1.061193	0.200354	0.292983
N46	N	1.138772	0.079636	-0.292840
C47	C	1.190726	-0.001246	0.647981
C48	C	1.206387	-0.025626	0.529643
C49	C	1.170090	0.030866	0.470472
C50	C	1.118129	0.111745	0.529651
C51	C	1.102472	0.136133	0.648001
C52	C	1.081836	0.168245	0.470492
C53	C	1.029875	0.249124	0.529671
C54	C	1.014221	0.273508	0.648009
C55	C	1.050518	0.217015	0.707180
C56	C	1.097492	0.143857	0.352142
C57	C	1.009239	0.281236	0.352162
C58	C	0.993578	0.305617	0.470500
H59	H	1.171375	-0.188842	0.000087
H60	H	1.182843	0.011012	0.374116
H61	H	1.315727	-0.574530	0.000097
H62	H	1.037764	0.236862	0.803541
H63	H	0.988421	-0.624711	0.000037
H64	H	0.397018	0.096844	-0.185858
H65	H	0.979684	0.327240	0.303986
H66	H	0.647555	0.201263	0.288503
H67	H	0.347804	0.173486	0.186008
H68	H	0.802935	0.183158	0.185992
H69	H	0.870302	-0.507265	0.000036
H70	H	1.248694	-0.091476	0.481464
H71	H	0.971920	0.339371	0.696193
H72	H	1.139799	0.078006	0.303969
H73	H	0.833282	-0.337001	0.000025
H74	H	0.951271	0.371470	0.518699
H75	H	0.884216	-0.145479	0.000052
H76	H	0.852157	0.106513	-0.185896
H77	H	0.723928	0.082388	-0.288368
H78	H	0.476045	0.197621	0.288489
H79	H	1.248576	-0.265585	0.000096
H80	H	1.366676	-0.383026	0.000111
H81	H	0.552393	0.078734	-0.288354
H82	H	1.220281	-0.047230	0.696166
