data_functionalizedCrystal
_audit_creation_method	'MofGen! by Chris Wilmer'
_symmetry_space_group_name_H-M	'P1'
_symmetry_Int_Tables_number	1
_symmetry_cell_setting	triclinic
loop_
_symmetry_equiv_pos_as_xyz
  x,y,z
_cell_length_a	23.532407
_cell_length_b	23.532407
_cell_length_c	9.016244
_cell_angle_alpha	89.993097
_cell_angle_beta	89.998017
_cell_angle_gamma	82.848678
loop_
_atom_site_label
_atom_site_type_symbol
_atom_site_fract_x
_atom_site_fract_y
_atom_site_fract_z
O1	O	0.755262	0.069132	-0.123170
O2	O	0.589399	0.079136	-0.123216
O3	O	0.677332	-0.008798	-0.123164
O4	O	0.667329	0.157066	-0.123221
O5	O	0.677319	-0.008796	0.123516
O6	O	0.589386	0.079138	0.123465
O7	O	0.755249	0.069135	0.123511
Cu8	Cu	0.672316	0.074136	0.146012
Cu9	Cu	0.672332	0.074134	-0.145717
O10	O	0.667316	0.157068	0.123459
C11	C	0.568176	0.078882	0.000119
C12	C	0.504959	0.078116	0.000103
C13	C	0.105856	0.125350	0.000154
C14	C	0.046456	0.124638	0.000163
O15	O	0.009711	0.168424	0.000202
N16	N	0.023830	0.072362	0.000179
C17	C	0.060607	0.020794	0.000200
O18	O	0.035908	-0.023737	0.000215
C19	C	0.120006	0.021506	0.000201
C20	C	0.142629	0.073785	0.000171
C21	C	0.128479	0.177625	0.000125
C22	C	0.187876	0.178336	0.000113
C23	C	0.224649	0.126772	0.000130
C24	C	0.202025	0.074497	0.000159
C25	C	0.156783	-0.030062	0.000233
C26	C	0.216185	-0.029345	0.000236
C27	C	0.238808	0.022934	0.000205
C28	C	0.298194	0.023643	0.000163
N29	N	0.320820	0.075920	0.000148
C30	C	0.284048	0.127484	0.000131
C31	C	-0.064135	0.019302	0.000200
C32	C	-0.123533	0.018589	0.000188
C33	C	-0.137680	0.122434	0.000154
C34	C	-0.078281	0.123146	0.000155
C35	C	-0.041509	0.071578	0.000184
C36	C	0.408784	0.128974	0.000104
C37	C	0.468186	0.129680	0.000086
C38	C	0.482329	0.025836	0.000128
C39	C	0.422932	0.025129	0.000138
C40	C	0.386160	0.076702	0.000132
O41	O	0.334974	-0.020119	0.000131
O42	O	0.308755	0.172007	0.000135
C43	C	0.677071	-0.030013	0.000180
C44	C	0.676305	-0.093230	0.000191
C45	C	0.723539	-0.492333	0.000123
C46	C	0.722827	-0.551733	0.000111
O47	O	0.766613	-0.588478	0.000068
N48	N	0.670551	-0.574359	0.000098
C49	C	0.618983	-0.537582	0.000081
O50	O	0.574452	-0.562281	0.000067
C51	C	0.619695	-0.478182	0.000082
C52	C	0.671974	-0.455560	0.000110
C53	C	0.775814	-0.469710	0.000149
C54	C	0.776525	-0.410313	0.000164
C55	C	0.724961	-0.373540	0.000151
C56	C	0.672685	-0.396164	0.000124
C57	C	0.568127	-0.441406	0.000054
C58	C	0.568844	-0.382004	0.000054
C59	C	0.621123	-0.359381	0.000082
C60	C	0.621832	-0.299995	0.000126
N61	N	0.674109	-0.277368	0.000139
C62	C	0.725673	-0.314141	0.000152
C63	C	0.617491	-0.662324	0.000077
C64	C	0.616778	-0.721722	0.000086
C65	C	0.720623	-0.735869	0.000114
C66	C	0.721335	-0.676470	0.000115
C67	C	0.669767	-0.639698	0.000090
C68	C	0.727163	-0.189405	0.000183
C69	C	0.727869	-0.130003	0.000203
C70	C	0.624025	-0.115860	0.000168
C71	C	0.623318	-0.175257	0.000156
C72	C	0.674891	-0.212029	0.000158
O73	O	0.578070	-0.263215	0.000163
O74	O	0.770196	-0.289433	0.000146
C75	C	0.776472	0.069388	0.000172
C76	C	0.839689	0.070154	0.000179
C77	C	0.667577	0.178283	0.000112
C78	C	0.668343	0.241500	0.000091
N79	N	0.672310	0.074138	0.351198
N80	N	0.672343	0.074128	-0.350903
C81	C	0.625132	0.121023	0.586203
C82	C	0.625232	0.121194	0.414312
C83	C	0.731662	0.086782	0.413547
C84	C	0.731404	0.087113	0.585492
C85	C	0.660730	0.014449	0.585758
C86	C	0.659358	0.014857	0.413803
H87	H	0.206289	0.220908	0.000087
C88	C	0.398046	-0.032381	0.000153
N89	N	0.379307	-0.075699	0.000176
H90	H	0.762610	-0.765821	0.000118
H91	H	0.512280	-0.016146	0.000136
C92	C	0.565808	-0.200143	0.000134
N93	N	0.522490	-0.218882	0.000102
C94	C	0.780236	0.041850	0.358313
N95	N	0.816820	0.008008	0.316707
C96	C	0.565613	0.111094	0.357361
N97	N	0.520704	0.103490	0.314474
H98	H	0.615699	0.005253	0.373053
C99	C	0.834037	-0.385437	0.000179
N100	N	0.877359	-0.366704	0.000184
H101	H	0.763906	-0.658056	0.000136
H102	H	0.378851	0.170970	0.000103
C103	C	0.783896	-0.229845	0.000199
N104	N	0.826628	-0.260304	0.000224
H105	H	0.817806	-0.499645	0.000154
H106	H	0.098544	0.219617	0.000117
C107	C	-0.148411	-0.038922	0.000212
N108	N	-0.167146	-0.082242	0.000242
C109	C	0.603546	-0.002078	0.644390
N110	N	0.560473	-0.014519	0.688550
H111	H	0.574207	-0.740136	0.000089
H112	H	0.695162	-0.020445	0.626431
H113	H	-0.059867	0.165717	0.000139
H114	H	0.582043	-0.085909	0.000163
H115	H	0.575496	-0.632386	0.000069
C116	C	0.745287	0.145901	0.639638
N117	N	0.755739	0.190184	0.680414
C118	C	0.635202	0.181034	0.358701
N119	N	0.642715	0.226108	0.316816
C120	C	0.745893	0.144899	0.355357
N121	N	0.756607	0.188676	0.311535
H122	H	0.767614	0.054285	0.627095
H123	H	0.580863	0.113666	0.627587
H124	H	0.691533	-0.021648	0.370848
C125	C	0.510614	-0.466277	0.000013
N126	N	0.467292	-0.485008	-0.000023
H127	H	-0.167632	0.164421	0.000147
C128	C	-0.023690	-0.037431	0.000208
N129	N	0.006771	-0.080162	0.000213
C130	C	0.512113	-0.341557	0.000032
N131	N	0.469384	-0.311094	0.000021
C132	C	0.131912	-0.087575	0.000296
N133	N	0.113181	-0.130897	0.000356
C134	C	0.493067	0.187194	0.000064
N135	N	0.511805	0.230513	0.000053
C136	C	0.256632	-0.086076	0.000261
N137	N	0.287095	-0.128805	0.000275
C138	C	0.634961	0.180527	0.644535
N139	N	0.642366	0.225345	0.688473
H140	H	0.770443	-0.111587	0.000230
