data_functionalizedCrystal
_audit_creation_method	'MofGen! by Chris Wilmer'
_symmetry_space_group_name_H-M	'P1'
_symmetry_Int_Tables_number	1
_symmetry_cell_setting	triclinic
loop_
_symmetry_equiv_pos_as_xyz
  x,y,z
_cell_length_a	29.839131
_cell_length_b	13.897449
_cell_length_c	13.897441
_cell_angle_alpha	90.020722
_cell_angle_beta	89.965828
_cell_angle_gamma	89.958747
loop_
_atom_site_label
_atom_site_type_symbol
_atom_site_fract_x
_atom_site_fract_y
_atom_site_fract_z
Zn1	Zn	-0.178845	-1.474523	-0.545405
Zn2	Zn	0.071155	-1.224523	-0.295405
Zn3	Zn	0.321155	-0.974523	-0.045405
Zn4	Zn	0.571155	-0.724523	0.204595
Zn5	Zn	-0.253979	-1.474356	-0.384094
Zn6	Zn	-0.003979	-1.224356	-0.134094
Zn7	Zn	0.246021	-0.974356	0.115906
Zn8	Zn	0.496021	-0.724356	0.365906
Zn9	Zn	-0.178864	-1.313218	-0.384118
Zn10	Zn	0.071136	-1.063218	-0.134118
Zn11	Zn	0.321136	-0.813218	0.115882
Zn12	Zn	0.571136	-0.563218	0.365882
Zn13	Zn	-0.253949	-1.313127	-0.545341
Zn14	Zn	-0.003949	-1.063127	-0.295341
Zn15	Zn	0.246051	-0.813127	-0.045341
Zn16	Zn	0.496051	-0.563127	0.204659
O17	O	-0.216409	-1.393806	-0.464739
O18	O	0.033591	-1.143806	-0.214739
O19	O	0.283591	-0.893806	0.035261
O20	O	0.533591	-0.643806	0.285261
O21	O	-0.188817	-1.609483	-0.524024
O22	O	0.061183	-1.359483	-0.274024
O23	O	0.311183	-1.109483	-0.024024
O24	O	0.561183	-0.859483	0.225976
O25	O	-0.244035	-1.452949	-0.249115
O26	O	0.005965	-1.202949	0.000885
O27	O	0.255965	-0.952949	0.250885
O28	O	0.505965	-0.702949	0.500885
O29	O	-0.115994	-1.334724	-0.405550
O30	O	0.134006	-1.084724	-0.155550
O31	O	0.384006	-0.834724	0.094450
O32	O	0.634006	-0.584724	0.344450
O33	O	-0.244017	-1.609360	-0.405509
O34	O	0.005983	-1.359360	-0.155509
O35	O	0.255983	-1.109360	0.094491
O36	O	0.505983	-0.859360	0.344491
O37	O	-0.115981	-1.453234	-0.524047
O38	O	0.134019	-1.203234	-0.274047
O39	O	0.384019	-0.953234	-0.024047
O40	O	0.634019	-0.703234	0.225953
O41	O	-0.188848	-1.334562	-0.249133
O42	O	0.061152	-1.084562	0.000867
O43	O	0.311152	-0.834562	0.250867
O44	O	0.561152	-0.584562	0.500867
O45	O	-0.188819	-1.178225	-0.405487
O46	O	0.061181	-0.928225	-0.155487
O47	O	0.311181	-0.678225	0.094513
O48	O	0.561181	-0.428225	0.344513
O49	O	-0.243966	-1.334569	-0.680331
O50	O	0.006034	-1.084569	-0.430331
O51	O	0.256034	-0.834569	-0.180331
O52	O	0.506034	-0.584569	0.069669
O53	O	-0.243984	-1.178158	-0.523937
O54	O	0.006016	-0.928158	-0.273937
O55	O	0.256016	-0.678158	-0.023937
O56	O	0.506016	-0.428158	0.226063
O57	O	-0.188788	-1.453145	-0.680378
O58	O	0.061212	-1.203145	-0.430378
O59	O	0.311212	-0.953145	-0.180378
O60	O	0.561212	-0.703145	0.069622
O61	O	-0.316842	-1.452861	-0.405447
O62	O	-0.066842	-1.202861	-0.155447
O63	O	0.183158	-0.952861	0.094553
O64	O	0.433158	-0.702861	0.344553
O65	O	-0.316820	-1.334407	-0.523914
O66	O	-0.066820	-1.084407	-0.273914
O67	O	0.183180	-0.834407	-0.023914
O68	O	0.433180	-0.584407	0.226086
C69	C	-0.216400	-1.143192	-0.464708
C70	C	0.033600	-0.893192	-0.214708
C71	C	0.283600	-0.643192	0.035292
C72	C	0.533600	-0.393192	0.285292
C73	C	-0.216407	-1.035978	-0.464718
C74	C	0.033593	-0.785978	-0.214718
C75	C	0.283593	-0.535978	0.035282
C76	C	0.533593	-0.285978	0.285282
C77	C	-0.216406	-0.839683	-0.464736
C78	C	0.033594	-0.589683	-0.214736
C79	C	0.283594	-0.339683	0.035264
C80	C	0.533594	-0.089683	0.285264
C81	C	-0.216406	-0.948915	-0.464723
C82	C	0.033594	-0.698915	-0.214723
C83	C	0.283594	-0.448915	0.035277
C84	C	0.533594	-0.198915	0.285277
C85	C	-0.333132	-1.393632	-0.464692
C86	C	-0.083132	-1.143632	-0.214692
C87	C	0.166868	-0.893632	0.035308
C88	C	0.416868	-0.643632	0.285308
C89	C	-0.383066	-1.393646	-0.464703
C90	C	-0.133066	-1.143646	-0.214703
C91	C	0.116934	-0.893646	0.035297
C92	C	0.366934	-0.643646	0.285297
C93	C	-0.692708	-1.455598	-0.403144
C94	C	-0.442708	-1.205598	-0.153144
C95	C	-0.192708	-0.955598	0.096856
C96	C	0.057292	-0.705598	0.346856
C97	C	-0.880381	-1.455717	-0.403181
C98	C	-0.630381	-1.205717	-0.153181
C99	C	-0.380381	-0.955717	0.096819
C100	C	-0.130381	-0.705717	0.346819
O101	O	-0.904645	-1.508252	-0.350804
O102	O	-0.654645	-1.258252	-0.100804
O103	O	-0.404645	-1.008252	0.149196
O104	O	-0.154645	-0.758252	0.399196
N105	N	-0.903851	-1.394006	-0.464812
N106	N	-0.653851	-1.144006	-0.214812
N107	N	-0.403851	-0.894006	0.035188
N108	N	-0.153851	-0.644006	0.285188
C109	C	-0.880400	-1.332266	-0.526443
C110	C	-0.630400	-1.082266	-0.276443
C111	C	-0.380400	-0.832266	-0.026443
C112	C	-0.130400	-0.582266	0.223557
O113	O	-0.904669	-1.279788	-0.578872
O114	O	-0.654669	-1.029788	-0.328872
O115	O	-0.404669	-0.779788	-0.078872
O116	O	-0.154669	-0.529788	0.171128
C117	C	-0.692728	-1.332153	-0.526409
C118	C	-0.442728	-1.082153	-0.276409
C119	C	-0.192728	-0.832153	-0.026409
C120	C	0.057272	-0.582153	0.223591
C121	C	-0.669260	-1.393860	-0.464767
C122	C	-0.419260	-1.143860	-0.214767
C123	C	-0.169260	-0.893860	0.035233
C124	C	0.080740	-0.643860	0.285233
C125	C	-0.669241	-1.517301	-0.341507
C126	C	-0.419241	-1.267301	-0.091507
C127	C	-0.169241	-1.017301	0.158493
C128	C	0.080759	-0.767301	0.408493
C129	C	-0.622326	-1.517267	-0.341495
C130	C	-0.372326	-1.267267	-0.091495
C131	C	-0.122326	-1.017267	0.158505
C132	C	0.127674	-0.767267	0.408505
C133	C	-0.598878	-1.455529	-0.403119
C134	C	-0.348878	-1.205529	-0.153119
C135	C	-0.098878	-0.955529	0.096881
C136	C	0.151122	-0.705529	0.346881
C137	C	-0.622345	-1.393826	-0.464755
C138	C	-0.372345	-1.143826	-0.214755
C139	C	-0.122345	-0.893826	0.035245
C140	C	0.127655	-0.643826	0.285245
C141	C	-0.669277	-1.270418	-0.588044
C142	C	-0.419277	-1.020418	-0.338044
C143	C	-0.169277	-0.770418	-0.088044
C144	C	0.080723	-0.520418	0.161956
C145	C	-0.622356	-1.270397	-0.588032
C146	C	-0.372356	-1.020397	-0.338032
C147	C	-0.122356	-0.770397	-0.088032
C148	C	0.127644	-0.520397	0.161968
C149	C	-0.598889	-1.332105	-0.526390
C150	C	-0.348889	-1.082105	-0.276390
C151	C	-0.098889	-0.832105	-0.026390
C152	C	0.151111	-0.582105	0.223610
C153	C	-0.551981	-1.332055	-0.526366
C154	C	-0.301981	-1.082055	-0.276366
C155	C	-0.051981	-0.832055	-0.026366
C156	C	0.198019	-0.582055	0.223634
N157	N	-0.528512	-1.393765	-0.464735
N158	N	-0.278512	-1.143765	-0.214735
N159	N	-0.028512	-0.893765	0.035265
N160	N	0.221488	-0.643765	0.285265
C161	C	-0.551960	-1.455502	-0.403111
C162	C	-0.301960	-1.205502	-0.153111
C163	C	-0.051960	-0.955502	0.096889
C164	C	0.198040	-0.705502	0.346889
C165	C	-0.978930	-1.332329	-0.526454
C166	C	-0.728930	-1.082329	-0.276454
C167	C	-0.478930	-0.832329	-0.026454
C168	C	-0.228930	-0.582329	0.223546
C169	C	-1.025848	-1.332356	-0.526462
C170	C	-0.775848	-1.082356	-0.276462
C171	C	-0.525848	-0.832356	-0.026462
C172	C	-0.275848	-0.582356	0.223538
C173	C	-1.025827	-1.455808	-0.403201
C174	C	-0.775827	-1.205808	-0.153201
C175	C	-0.525827	-0.955808	0.096799
C176	C	-0.275827	-0.705808	0.346799
C177	C	-0.978908	-1.455775	-0.403190
C178	C	-0.728908	-1.205775	-0.153190
C179	C	-0.478908	-0.955775	0.096810
C180	C	-0.228908	-0.705775	0.346810
C181	C	-0.955461	-1.394039	-0.464823
C182	C	-0.705461	-1.144039	-0.214823
C183	C	-0.455461	-0.894039	0.035177
C184	C	-0.205461	-0.644039	0.285177
C185	C	-0.453434	-1.455426	-0.403089
C186	C	-0.203434	-1.205426	-0.153089
C187	C	0.046566	-0.955426	0.096911
C188	C	0.296566	-0.705426	0.346911
C189	C	-0.406514	-1.455383	-0.403080
C190	C	-0.156514	-1.205383	-0.153080
C191	C	0.093486	-0.955383	0.096920
C192	C	0.343486	-0.705383	0.346920
C193	C	-0.406540	-1.331935	-0.526343
C194	C	-0.156540	-1.081935	-0.276343
C195	C	0.093460	-0.831935	-0.026343
C196	C	0.343460	-0.581935	0.223657
C197	C	-0.453455	-1.331974	-0.526350
C198	C	-0.203455	-1.081974	-0.276350
C199	C	0.046545	-0.831974	-0.026350
C200	C	0.296545	-0.581974	0.223650
C201	C	-0.476901	-1.393727	-0.464720
C202	C	-0.226901	-1.143727	-0.214720
C203	C	0.023099	-0.893727	0.035280
C204	C	0.273099	-0.643727	0.285280
O205	O	-0.527689	-1.279554	-0.578723
O206	O	-0.277689	-1.029554	-0.328723
O207	O	-0.027689	-0.779554	-0.078723
O208	O	0.222311	-0.529554	0.171277
O209	O	-0.527683	-1.507988	-0.350706
O210	O	-0.277683	-1.257988	-0.100706
O211	O	-0.027683	-1.007988	0.149294
O212	O	0.222317	-0.757988	0.399294
C213	C	-0.739624	-1.455632	-0.403156
C214	C	-0.489624	-1.205632	-0.153156
C215	C	-0.239624	-0.955632	0.096844
C216	C	0.010376	-0.705632	0.346844
C217	C	-0.763091	-1.393929	-0.464792
C218	C	-0.513091	-1.143929	-0.214792
C219	C	-0.263091	-0.893929	0.035208
C220	C	-0.013091	-0.643929	0.285208
C221	C	-0.739643	-1.332191	-0.526416
C222	C	-0.489643	-1.082191	-0.276416
C223	C	-0.239643	-0.832191	-0.026416
C224	C	0.010357	-0.582191	0.223584
C225	C	-0.810009	-1.393955	-0.464800
C226	C	-0.560009	-1.143955	-0.214800
C227	C	-0.310009	-0.893955	0.035200
C228	C	-0.060009	-0.643955	0.285200
C229	C	-0.833457	-1.455693	-0.403176
C230	C	-0.583457	-1.205693	-0.153176
C231	C	-0.333457	-0.955693	0.096824
C232	C	-0.083457	-0.705693	0.346824
C233	C	-0.809987	-1.517403	-0.341545
C234	C	-0.559987	-1.267403	-0.091545
C235	C	-0.309987	-1.017403	0.158455
C236	C	-0.059987	-0.767403	0.408455
C237	C	-0.763072	-1.517369	-0.341532
C238	C	-0.513072	-1.267369	-0.091532
C239	C	-0.263072	-1.017369	0.158468
C240	C	-0.013072	-0.767369	0.408468
C241	C	-0.763113	-1.270481	-0.588047
C242	C	-0.513113	-1.020481	-0.338047
C243	C	-0.263113	-0.770481	-0.088047
C244	C	-0.013113	-0.520481	0.161953
C245	C	-0.810028	-1.270519	-0.588054
C246	C	-0.560028	-1.020519	-0.338054
C247	C	-0.310028	-0.770519	-0.088054
C248	C	-0.060028	-0.520519	0.161946
C249	C	-0.833476	-1.332256	-0.526430
C250	C	-0.583476	-1.082256	-0.276430
C251	C	-0.333476	-0.832256	-0.026430
C252	C	-0.083476	-0.582256	0.223570
C253	C	-0.099231	-1.394007	-0.464809
C254	C	0.150769	-1.144007	-0.214809
C255	C	0.400769	-0.894007	0.035191
C256	C	0.650769	-0.644007	0.285191
C257	C	-0.049296	-1.394093	-0.464838
C258	C	0.200704	-1.144093	-0.214838
C259	C	0.450704	-0.894093	0.035162
C260	C	0.700704	-0.644093	0.285162
C261	C	-0.216371	-1.393865	-0.716333
C262	C	0.033629	-1.143865	-0.466333
C263	C	0.283629	-0.893865	-0.216333
C264	C	0.533629	-0.643865	0.033667
C265	C	-0.216355	-1.393891	-0.823547
C266	C	0.033645	-1.143891	-0.573547
C267	C	0.283645	-0.893891	-0.323547
C268	C	0.533645	-0.643891	-0.073547
C269	C	-0.216415	-0.645399	-0.464762
C270	C	0.033585	-0.395399	-0.214762
C271	C	0.283585	-0.145399	0.035238
C272	C	0.533585	0.104601	0.285238
C273	C	-0.216411	-0.752613	-0.464748
C274	C	0.033589	-0.502613	-0.214748
C275	C	0.283589	-0.252613	0.035252
C276	C	0.533589	-0.002613	0.285252
C277	C	-0.216343	-1.393910	-0.910616
C278	C	0.033657	-1.143910	-0.660616
C279	C	0.283657	-0.893910	-0.410616
C280	C	0.533657	-0.643910	-0.160616
C281	C	-0.216322	-1.393938	-1.019849
C282	C	0.033678	-1.143938	-0.769849
C283	C	0.283678	-0.893938	-0.519849
C284	C	0.533678	-0.643938	-0.269849
C285	C	-0.216414	-1.393803	-0.214125
C286	C	0.033586	-1.143803	0.035875
C287	C	0.283586	-0.893803	0.285875
C288	C	0.533586	-0.643803	0.535875
C289	C	-0.216304	-1.393965	-0.106912
C290	C	0.033696	-1.143965	0.143088
C291	C	0.283696	-0.893965	0.393088
C292	C	0.533696	-0.643965	0.643088
H293	H	-0.472518	-1.505713	-0.352906
H294	H	-0.222518	-1.255713	-0.102906
H295	H	0.027482	-1.005713	0.147094
H296	H	0.277482	-0.755713	0.397094
Br297	Br	-0.374669	-1.539133	-0.319415
Br298	Br	-0.124669	-1.289133	-0.069415
Br299	Br	0.125331	-1.039133	0.180585
Br300	Br	0.375331	-0.789133	0.430585
Br301	Br	-0.590484	-1.601031	-0.257848
Br302	Br	-0.340484	-1.351031	-0.007848
Br303	Br	-0.090484	-1.101031	0.242152
Br304	Br	0.159516	-0.851031	0.492152
H305	H	-0.829087	-1.567669	-0.291366
H306	H	-0.579087	-1.317669	-0.041366
H307	H	-0.329087	-1.067669	0.208634
H308	H	-0.079087	-0.817669	0.458634
Br309	Br	-0.701114	-1.186677	-0.671717
Br310	Br	-0.451114	-0.936677	-0.421717
Br311	Br	-0.201114	-0.686677	-0.171717
Br312	Br	0.048886	-0.436677	0.078283
H313	H	-0.603268	-1.220125	-0.638225
H314	H	-0.353268	-0.970125	-0.388225
H315	H	-0.103268	-0.720125	-0.138225
H316	H	0.146732	-0.470125	0.111775
H317	H	-0.829131	-1.220261	-0.638249
H318	H	-0.579131	-0.970261	-0.388249
H319	H	-0.329131	-0.720261	-0.138249
H320	H	-0.079131	-0.470261	0.111751
Br321	Br	-0.485305	-1.248204	-0.609984
Br322	Br	-0.235305	-0.998204	-0.359984
Br323	Br	0.014695	-0.748204	-0.109984
Br324	Br	0.264695	-0.498204	0.140016
Br325	Br	-0.731231	-1.601122	-0.257873
Br326	Br	-0.481231	-1.351122	-0.007873
Br327	Br	-0.231231	-1.101122	0.242127
Br328	Br	0.018769	-0.851122	0.492127
H329	H	-0.387441	-1.281666	-0.576514
H330	H	-0.137441	-1.031666	-0.326514
H331	H	0.112559	-0.781666	-0.076514
H332	H	0.362559	-0.531666	0.173486
Br333	Br	-0.947064	-1.539523	-0.319529
Br334	Br	-0.697064	-1.289523	-0.069529
Br335	Br	-0.447064	-1.039523	0.180471
Br336	Br	-0.197064	-0.789523	0.430471
H337	H	-0.744025	-1.220208	-0.638230
H338	H	-0.494025	-0.970208	-0.388230
H339	H	-0.244025	-0.720208	-0.138230
H340	H	0.005975	-0.470208	0.111770
H341	H	-1.044926	-1.506077	-0.353025
H342	H	-0.794926	-1.256077	-0.103025
H343	H	-0.544926	-1.006077	0.146975
H344	H	-0.294926	-0.756077	0.396975
Br345	Br	-1.057691	-1.248592	-0.610108
Br346	Br	-0.807691	-0.998592	-0.360108
Br347	Br	-0.557691	-0.748592	-0.110108
Br348	Br	-0.307691	-0.498592	0.139892
Br349	Br	-0.947116	-1.248535	-0.610108
Br350	Br	-0.697116	-0.998535	-0.360108
Br351	Br	-0.447116	-0.748535	-0.110108
Br352	Br	-0.197116	-0.498535	0.139892
H353	H	-0.688328	-1.567580	-0.291326
H354	H	-0.438328	-1.317580	-0.041326
H355	H	-0.188328	-1.067580	0.208674
H356	H	0.061672	-0.817580	0.458674
