data_functionalizedCrystal
_audit_creation_method	'MofGen! by Chris Wilmer'
_symmetry_space_group_name_H-M	'P1'
_symmetry_Int_Tables_number	1
_symmetry_cell_setting	triclinic
loop_
_symmetry_equiv_pos_as_xyz
  x,y,z
_cell_length_a	8.559649
_cell_length_b	14.853567
_cell_length_c	7.088929
_cell_angle_alpha	83.771294
_cell_angle_beta	95.325015
_cell_angle_gamma	76.706797
loop_
_atom_site_label
_atom_site_type_symbol
_atom_site_fract_x
_atom_site_fract_y
_atom_site_fract_z
O1	O	2.103683	-0.020180	-0.158959
O2	O	1.638582	0.026373	-0.158964
O3	O	1.883556	-0.129002	-0.158967
O4	O	1.858710	0.135195	-0.158956
O5	O	1.916294	-0.149808	0.159008
O6	O	1.671320	0.005566	0.159011
O7	O	2.136422	-0.040986	0.159016
Cu8	Cu	1.906860	-0.019609	0.188047
Cu9	Cu	1.868144	0.004996	-0.187995
O10	O	1.891448	0.114389	0.159019
C11	C	1.595429	0.019497	0.000023
C12	C	1.418072	0.029999	0.000021
C13	C	1.898798	-0.172915	0.000015
C14	C	1.895423	-0.272761	-0.000002
C15	C	1.735645	-0.674122	0.000033
C16	C	2.026680	-0.715759	0.000036
C17	C	2.029851	-0.621946	0.000024
C18	C	1.885917	-0.554217	0.000020
C19	C	1.738813	-0.580300	0.000028
C20	C	2.176955	-0.595857	0.000037
C21	C	2.180133	-0.502039	0.000027
C22	C	2.036196	-0.434307	0.000010
C23	C	1.889085	-0.460395	0.000015
C24	C	1.745151	-0.392666	0.000011
C25	C	1.598037	-0.418751	0.000002
C26	C	1.594876	-0.512568	0.000010
C27	C	2.039357	-0.340490	0.000002
C28	C	1.748318	-0.298844	0.000005
C29	C	2.179574	-0.034110	0.000025
C30	C	2.356930	-0.044611	0.000015
C31	C	1.876205	0.158302	0.000033
C32	C	1.879579	0.258149	0.000037
N33	N	1.934103	-0.036917	0.452535
N34	N	1.840913	0.022296	-0.452483
H35	H	1.440266	-0.116520	0.000002
N36	N	1.307692	0.125255	0.000100
H37	H	1.373692	0.173549	0.000127
H38	H	1.225574	0.140671	-0.117759
N39	N	1.593071	-0.225794	-0.000015
H40	H	1.499404	-0.256558	-0.000022
H41	H	1.600176	-0.193674	0.117863
N42	N	1.442813	-0.345690	0.000035
H43	H	1.425510	-0.298119	-0.117827
H44	H	1.349223	-0.376511	0.000109
H45	H	2.143866	-0.770910	0.000054
H46	H	1.475103	-0.533816	0.000005
N47	N	1.576977	-0.702248	0.000014
H48	H	1.596801	-0.771956	0.000013
H49	H	1.526123	-0.684469	0.117891
N50	N	2.332193	-0.668905	0.000076
H51	H	2.307860	-0.732294	0.000074
H52	H	2.384173	-0.653893	-0.117791
H53	H	2.299921	-0.480810	0.000032
H54	H	2.159136	-0.319257	0.000022
N55	N	1.712977	0.103580	0.439386
H56	H	1.714896	0.102352	0.297436
H57	H	1.603153	0.098802	0.474295
N58	N	2.062062	-0.118196	0.560682
H59	H	2.039824	-0.178616	0.525952
H60	H	2.171889	-0.113370	0.525865
