data_functionalizedCrystal
_audit_creation_method	'MofGen! by Chris Wilmer'
_symmetry_space_group_name_H-M	'P1'
_symmetry_Int_Tables_number	1
_symmetry_cell_setting	triclinic
loop_
_symmetry_equiv_pos_as_xyz
  x,y,z
_cell_length_a	16.109302
_cell_length_b	16.109301
_cell_length_c	15.186229
_cell_angle_alpha	89.996245
_cell_angle_beta	89.994701
_cell_angle_gamma	83.461682
loop_
_atom_site_label
_atom_site_type_symbol
_atom_site_fract_x
_atom_site_fract_y
_atom_site_fract_z
O1	O	1.103130	0.106869	-0.073268
O2	O	0.861068	0.120168	-0.073261
O3	O	0.988749	-0.007513	-0.073259
O4	O	0.975450	0.234549	-0.073270
O5	O	0.988740	-0.007514	0.073198
O6	O	0.861060	0.120166	0.073196
O7	O	1.103122	0.106867	0.073189
Zn8	Zn	0.982090	0.113516	0.096446
Zn9	Zn	0.982101	0.113519	-0.096518
O10	O	0.975441	0.234547	0.073187
C11	C	0.988206	-0.038488	-0.000031
C12	C	0.986591	-0.130784	-0.000032
C13	C	0.830089	0.119628	-0.000032
C14	C	0.737794	0.118013	-0.000029
C15	C	1.057074	-0.439782	-0.000049
C16	C	1.058599	-0.353062	-0.000044
C17	C	0.907111	-0.333189	-0.000028
C18	C	0.905586	-0.419907	-0.000027
C19	C	0.980570	-0.473202	-0.000042
C20	C	0.983620	-0.299763	-0.000038
C21	C	0.985273	-0.205737	-0.000033
C22	C	0.978917	-0.567234	-0.000046
C23	C	0.525448	0.114276	0.079796
C24	C	0.438728	0.112750	0.079793
C25	C	0.438748	0.112756	-0.079882
C26	C	0.525467	0.114277	-0.079878
C27	C	0.568815	0.115041	-0.000036
C28	C	0.395375	0.111994	-0.000043
C29	C	0.301350	0.110338	-0.000047
C30	C	0.662847	0.116695	-0.000032
C31	C	1.134101	0.107407	-0.000042
C32	C	1.226396	0.109022	-0.000051
C33	C	0.975984	0.265523	-0.000043
C34	C	0.977600	0.357819	-0.000048
N35	N	0.982088	0.113514	0.228139
N36	N	0.982109	0.113514	-0.228211
C37	C	1.038644	0.056996	0.453862
C38	C	1.038647	0.056994	0.546052
C39	C	0.925547	0.170035	0.546059
C40	C	0.925541	0.170032	0.453871
C41	C	0.982094	0.113514	0.407775
C42	C	0.982103	0.113514	0.592153
C43	C	0.982105	0.113513	0.692109
C44	C	0.982091	0.113514	0.307813
H45	H	1.118131	-0.483172	-0.000061
Cl46	Cl	0.579990	0.115232	-0.180248
Cl47	Cl	0.579940	0.115232	0.180169
H48	H	1.084692	0.010975	0.416333
Cl49	Cl	1.109739	-0.014061	0.603988
H50	H	0.879503	0.216052	0.583600
H51	H	0.879487	0.216056	0.416344
H52	H	0.843284	-0.447118	-0.000017
H53	H	1.120896	-0.325856	-0.000049
Cl54	Cl	0.384214	0.111790	0.180160
Cl55	Cl	0.384251	0.111775	-0.180249
Cl56	Cl	0.812850	-0.266185	-0.000017
