data_functionalizedCrystal
_audit_creation_method	'MofGen! by Chris Wilmer'
_symmetry_space_group_name_H-M	'P1'
_symmetry_Int_Tables_number	1
_symmetry_cell_setting	triclinic
loop_
_symmetry_equiv_pos_as_xyz
  x,y,z
_cell_length_a	31.640172
_cell_length_b	17.917559
_cell_length_c	17.917603
_cell_angle_alpha	60.142335
_cell_angle_beta	89.997458
_cell_angle_gamma	63.033445
loop_
_atom_site_label
_atom_site_type_symbol
_atom_site_fract_x
_atom_site_fract_y
_atom_site_fract_z
Zr1	Zr	0.431359	0.806673	-0.128981
O2	O	0.370724	0.951699	-0.249494
O3	O	0.447040	0.654462	-0.087350
O4	O	0.454709	0.796294	-0.242741
O5	O	0.360312	0.820559	0.023139
O6	O	0.524265	0.796281	-0.242745
O7	O	0.363055	0.809866	-0.094104
O8	O	0.510546	0.542569	0.035220
O9	O	0.374031	1.074271	-0.254826
O10	O	0.509149	0.719720	-0.075261
O11	O	0.455193	0.727710	0.012239
O12	O	0.464222	0.894699	-0.170713
O13	O	0.410267	0.902689	-0.083212
Zr14	Zr	0.537919	0.823706	0.058002
Zr15	Zr	0.542293	0.806652	-0.128988
Zr16	Zr	0.426985	0.823727	0.058008
Zr17	Zr	0.436633	1.002162	-0.137484
Zr18	Zr	0.532645	0.628217	0.066505
O19	O	0.522238	0.975917	0.016371
O20	O	0.528457	0.951669	-0.249504
O21	O	0.364505	0.975947	0.016381
O22	O	0.598554	0.678680	0.178515
O23	O	0.604773	0.654432	-0.087360
O24	O	0.440821	0.678710	0.178525
O25	O	0.608966	0.809820	-0.094119
O26	O	0.514569	0.834085	0.171762
O27	O	0.445013	0.834098	0.171766
O28	O	0.606223	0.820513	0.023125
O29	O	0.462208	1.074255	-0.254831
O30	O	0.507070	0.556124	0.183852
O31	O	0.595247	0.556108	0.183847
O32	O	0.598724	0.542552	0.035215
O33	O	0.370554	1.087827	-0.106194
O34	O	0.458732	1.087810	-0.106200
O35	O	0.505055	0.735680	0.099734
O36	O	0.559011	0.727690	0.012233
O37	O	0.514085	0.902669	-0.083219
O38	O	0.460129	0.910659	0.004282
C39	C	0.478042	0.570662	-0.024853
C40	C	0.475803	0.487672	-0.021244
C41	C	0.497530	0.294712	-0.056385
C42	C	0.471750	0.335671	-0.014596
C43	C	0.474005	0.420252	-0.018296
C44	C	0.495274	0.210123	-0.052686
C45	C	0.345878	0.815215	-0.035481
C46	C	0.298783	0.815224	-0.035478
C47	C	0.008288	0.809280	-0.100077
C48	C	-0.168699	0.809266	-0.100083
O49	O	-0.190289	0.804211	-0.154991
N50	N	-0.192341	0.815159	-0.035494
C51	C	-0.171731	0.821049	0.029105
O52	O	-0.195898	0.826050	0.084048
C53	C	0.005257	0.821055	0.029114
C54	C	0.028893	0.815172	-0.035485
C55	C	0.031924	0.803396	-0.164671
C56	C	0.076167	0.803405	-0.164671
C57	C	0.096773	0.809298	-0.100079
C58	C	0.073136	0.815181	-0.035486
C59	C	0.025867	0.826938	0.093716
C60	C	0.070118	0.826937	0.093714
C61	C	0.093755	0.821054	0.029115
C62	C	0.137984	0.821083	0.029106
N63	N	0.161626	0.815190	-0.035484
C64	C	0.141020	0.809298	-0.100076
C65	C	-0.264652	0.821047	0.029095
C66	C	-0.308900	0.821047	0.029092
C67	C	-0.305864	0.809263	-0.100096
C68	C	-0.261618	0.809270	-0.100096
C69	C	-0.241011	0.815154	-0.035495
C70	C	0.233932	0.809318	-0.100073
C71	C	0.278178	0.809332	-0.100071
C72	C	0.275140	0.821111	0.029119
C73	C	0.230897	0.821103	0.029114
C74	C	0.210295	0.815202	-0.035486
O75	O	0.159605	0.826124	0.083991
O76	O	0.165200	0.804275	-0.154998
C77	C	-0.035955	0.809271	-0.100076
C78	C	-0.059592	0.815154	-0.035483
C79	C	-0.038986	0.821047	0.029109
C80	C	-0.103839	0.815155	-0.035486
C81	C	-0.124445	0.809262	-0.100079
C82	C	-0.100803	0.803369	-0.164668
C83	C	-0.056561	0.803378	-0.164669
C84	C	-0.062627	0.826940	0.093698
C85	C	-0.106870	0.826931	0.093693
C86	C	-0.127476	0.821039	0.029101
C87	C	0.623400	0.815163	-0.035498
C88	C	0.670495	0.815155	-0.035501
C89	C	0.490110	0.793858	-0.269385
C90	C	0.491967	0.786618	-0.348767
C91	C	0.491236	1.059717	-0.046126
C92	C	0.493475	1.142707	-0.049736
C93	C	0.495369	0.773394	-0.494124
C94	C	0.473910	0.856980	-0.576858
C95	C	0.475803	0.849622	-0.657740
C96	C	0.493477	0.780750	-0.413233
C97	C	0.479168	0.836521	0.198406
C98	C	0.477311	0.843760	0.277788
C99	C	0.616803	0.570636	-0.024862
C100	C	0.661658	0.487637	-0.021255
C101	C	0.472571	0.591994	0.209042
C102	C	0.468475	0.516243	0.292034
C103	C	0.611332	0.591968	0.209034
C104	C	0.654330	0.516208	0.292022
C105	C	0.357946	1.038411	-0.280013
C106	C	0.314948	1.114171	-0.363002
C107	C	0.352475	1.059743	-0.046117
C108	C	0.307620	1.142742	-0.049724
C109	C	0.496707	1.038385	-0.280021
C110	C	0.500803	1.114136	-0.363013
C111	C	0.656695	0.444499	-0.065240
C112	C	0.698838	0.366522	-0.061869
C113	C	0.745943	0.331679	-0.014507
C114	C	0.750905	0.374825	0.029480
C115	C	0.708763	0.452806	0.026103
C116	C	0.492579	0.484831	0.376686
C117	C	0.488728	0.413667	0.454673
C118	C	0.460777	0.373911	0.448004
C119	C	0.436670	0.405330	0.363343
C120	C	0.440518	0.476498	0.285358
C121	C	0.702692	0.476460	0.285321
C122	C	0.743098	0.405287	0.363290
C123	C	0.735142	0.373857	0.447960
C124	C	0.686775	0.413612	0.454660
C125	C	0.646370	0.484790	0.376692
C126	C	0.266587	1.153928	-0.356300
C127	C	0.226181	1.225126	-0.434271
C128	C	0.234137	1.256560	-0.518941
C129	C	0.282504	1.216799	-0.525641
C130	C	0.322908	1.145608	-0.447672
C131	C	0.312583	1.185887	-0.005748
C132	C	0.270442	1.263884	-0.009140
C133	C	0.223337	1.298729	-0.056505
C134	C	0.218375	1.255580	-0.100487
C135	C	0.260516	1.177589	-0.097100
C136	C	0.528759	1.153870	-0.356316
C137	C	0.532617	1.225036	-0.434288
C138	C	0.508516	1.256472	-0.518956
C139	C	0.480560	1.216730	-0.525651
C140	C	0.476705	1.145560	-0.447680
H141	H	0.297421	0.804544	-0.152678
H142	H	0.508361	0.388094	0.523600
H143	H	0.454115	0.934067	-0.586945
Br144	Br	0.179296	1.353179	-0.624750
H145	H	0.362285	1.113237	-0.453139
H146	H	0.186803	1.257487	-0.428798
Br147	Br	-0.236691	0.829036	0.116774
Br148	Br	-0.229545	0.801285	-0.187769
Br149	Br	0.537135	0.342142	-0.120649
Br150	Br	0.789983	0.277256	0.553768
Br151	Br	0.432133	0.288258	0.049656
Br152	Br	0.592773	0.491769	-0.129527
Br153	Br	0.293293	1.259468	-0.640559
Br154	Br	0.398737	0.351365	0.354308
Br155	Br	0.713503	0.519105	0.170421
H156	H	0.189027	1.362235	-0.059257
Br157	Br	0.376506	1.138619	0.058537
H158	H	0.274491	1.299004	0.026679
Br159	Br	0.803131	0.225846	-0.009932
H160	H	0.789263	0.346445	0.068040
H161	H	0.420890	0.502064	0.216433
H162	H	0.180016	1.283962	-0.139051
H163	H	-0.322649	0.804467	-0.152691
Br164	Br	-0.024489	0.795395	-0.252344
Br165	Br	0.205980	0.801310	-0.187746
Br166	Br	0.253771	1.119039	-0.156785
H167	H	0.515161	0.696314	-0.484039
Br168	Br	0.692092	0.307980	-0.121567
H169	H	0.712810	0.487920	0.061926
H170	H	0.095411	0.798611	-0.217271
Br171	Br	0.808732	0.351345	0.354176
H172	H	0.515340	0.517193	0.382133
H173	H	0.680304	0.388011	0.523609
Br174	Br	0.447850	1.259413	-0.640567
Br175	Br	0.255775	1.111281	-0.241400
H176	H	0.548385	1.128286	-0.287381
H177	H	0.457648	0.315962	0.511511
Br178	Br	-0.340979	0.829056	0.116751
Br179	Br	-0.006202	0.834922	0.181391
H180	H	0.555381	1.257386	-0.428819
H181	H	0.606993	0.517144	0.382161
Br182	Br	0.513753	1.353063	-0.624767
Br183	Br	0.438757	1.091652	-0.456786
H184	H	0.291923	0.825913	0.081707
H185	H	0.086895	0.831726	0.146323
Br186	Br	0.198815	0.829107	0.116776
Br187	Br	-0.128779	0.795380	-0.252332
Br188	Br	-0.138946	0.834925	0.181367
H189	H	0.015152	0.798594	-0.217270
H190	H	-0.045853	0.831736	0.146298
