data_functionalizedCrystal
_audit_creation_method	'MofGen! by Chris Wilmer'
_symmetry_space_group_name_H-M	'P1'
_symmetry_Int_Tables_number	1
_symmetry_cell_setting	triclinic
loop_
_symmetry_equiv_pos_as_xyz
  x,y,z
_cell_length_a	13.033293
_cell_length_b	19.120786
_cell_length_c	13.032268
_cell_angle_alpha	94.409956
_cell_angle_beta	89.079182
_cell_angle_gamma	99.298280
loop_
_atom_site_label
_atom_site_type_symbol
_atom_site_fract_x
_atom_site_fract_y
_atom_site_fract_z
Zn1	Zn	1.486522	-0.218229	-0.766087
Zn2	Zn	1.502749	-0.319030	-0.587002
Zn3	Zn	1.336584	-0.214525	-0.572524
Zn4	Zn	1.307400	-0.348271	-0.734979
O5	O	1.408314	-0.275014	-0.665148
O6	O	1.633178	-0.220913	-0.761409
O7	O	1.499712	-0.291380	-0.442146
O8	O	1.361897	-0.116857	-0.605159
O9	O	1.645100	-0.294971	-0.629836
O10	O	1.472055	-0.119578	-0.747369
O11	O	1.377632	-0.214600	-0.431509
O12	O	1.188210	-0.242954	-0.574996
O13	O	1.312156	-0.344808	-0.882042
O14	O	1.166768	-0.341216	-0.694351
O15	O	1.443756	-0.249267	-0.904896
O16	O	1.471413	-0.421068	-0.599673
O17	O	1.327891	-0.442551	-0.708391
C18	C	1.140020	-0.294857	-0.629728
C19	C	1.025239	-0.303365	-0.614598
C20	C	0.968151	-0.270591	-0.673043
C21	C	0.849518	-0.279384	-0.657407
C22	C	1.398271	-0.457261	-0.652253
C23	C	1.394064	-0.535224	-0.646783
C24	C	1.449385	-0.573216	-0.718301
C25	C	1.445428	-0.646471	-0.713163
C26	C	1.386156	-0.681731	-0.636502
C27	C	1.330828	-0.643734	-0.564980
C28	C	1.334780	-0.570481	-0.570124
C29	C	1.371352	-0.902838	-0.617269
C30	C	1.367407	-0.976096	-0.612129
C31	C	1.482006	-0.978828	-0.760314
C32	C	1.485958	-0.905573	-0.765447
C33	C	1.430626	-0.867583	-0.693928
C34	C	1.382112	-0.756609	-0.631246
C35	C	1.434664	-0.792708	-0.699190
C36	C	1.677655	-0.255094	-0.700707
C37	C	1.792432	-0.246605	-0.715861
C38	C	1.372890	-0.300712	-0.931567
C39	C	1.357794	-0.311664	-1.045098
C40	C	1.418421	-0.092054	-0.678119
C41	C	1.422728	-0.014088	-0.683647
C42	C	1.416177	-0.269274	-1.107022
C43	C	1.400577	-0.280592	-1.224364
C44	C	1.443662	-0.249360	-0.399777
C45	C	1.458968	-0.238196	-0.286286
H46	H	1.490485	-0.677400	-0.771394
H47	H	1.534222	-0.876866	-0.827870
H48	H	0.810571	-0.313953	-0.595787
H49	H	0.831378	-0.212030	-0.777474
H50	H	0.986288	-0.337932	-0.552982
H51	H	1.527053	-1.009767	-0.818540
H52	H	1.477707	-0.224602	-1.073166
C53	C	1.514587	-0.534433	-0.802631
C54	C	1.604293	-0.473773	-0.772686
C55	C	1.669493	-0.434992	-0.857021
C56	C	1.644987	-0.456871	-0.971300
C57	C	1.555276	-0.517535	-1.001250
C58	C	1.490076	-0.556315	-0.916916
H59	H	1.622438	-0.457574	-0.688085
H60	H	1.735903	-0.390085	-0.834849
H61	H	1.693252	-0.428164	-1.033729
H62	H	1.537131	-0.533734	-1.085851
H63	H	1.423666	-0.601222	-0.939087
C64	C	1.302209	-1.014887	-0.527796
C65	C	1.326710	-0.993008	-0.413515
C66	C	1.261522	-1.031801	-0.329184
C67	C	1.171834	-1.092473	-0.359133
C68	C	1.147328	-1.114355	-0.473419
C69	C	1.212516	-1.075562	-0.557750
H70	H	1.393107	-0.948093	-0.391341
H71	H	1.279663	-1.015603	-0.244582
H72	H	1.123578	-1.121190	-0.296706
H73	H	1.080932	-1.159271	-0.495594
H74	H	1.194375	-1.091761	-0.642352
C75	C	1.316924	-0.795399	-0.546914
C76	C	1.369690	-0.834706	-0.469152
C77	C	1.304502	-0.873500	-0.384823
C78	C	1.186546	-0.872987	-0.378254
C79	C	1.133772	-0.833678	-0.456018
C80	C	1.198961	-0.794884	-0.540348
H81	H	1.457014	-0.835087	-0.474012
H82	H	1.343568	-0.902598	-0.327257
H83	H	1.138289	-0.901704	-0.315829
H84	H	1.046449	-0.833297	-0.451158
H85	H	1.159894	-0.765785	-0.597914
H86	H	1.326301	-0.871912	-0.559034
C87	C	1.265628	-0.682519	-0.480651
C88	C	1.318386	-0.721820	-0.402875
C89	C	1.253189	-0.760604	-0.318542
C90	C	1.135233	-0.760087	-0.311985
C91	C	1.082469	-0.720785	-0.389764
C92	C	1.147667	-0.682001	-0.474097
H93	H	1.405710	-0.722203	-0.407726
H94	H	1.292249	-0.789698	-0.260965
H95	H	1.086970	-0.788797	-0.249556
H96	H	0.995146	-0.720402	-0.384912
H97	H	1.108606	-0.652907	-0.531674
H98	H	1.007103	-0.236019	-0.734653
C99	C	1.273929	-0.528687	-0.491451
C100	C	1.208732	-0.567467	-0.407122
C101	C	1.147874	-0.525674	-0.328449
C102	C	1.152214	-0.445100	-0.334106
C103	C	1.217413	-0.406314	-0.418439
C104	C	1.278271	-0.448108	-0.497111
H105	H	1.205517	-0.627117	-0.402931
H106	H	1.099609	-0.554386	-0.266021
H107	H	1.107163	-0.414162	-0.275869
H108	H	1.220628	-0.346665	-0.422630
H109	H	1.326536	-0.419396	-0.559540
H110	H	1.482919	-0.763998	-0.761611
H111	H	1.339033	-0.325261	-1.258214
C112	C	1.542103	-0.177842	-1.240571
C113	C	1.510085	-0.119053	-1.165190
C114	C	1.593218	-0.058699	-1.119476
C115	C	1.708369	-0.057134	-1.149142
C116	C	1.740393	-0.115926	-1.224526
C117	C	1.657260	-0.176280	-1.270241
H118	H	1.424838	-0.120209	-1.143226
H119	H	1.569511	-0.015178	-1.063671
H120	H	1.769909	-0.012457	-1.115301
H121	H	1.825640	-0.114770	-1.246490
H122	H	1.680967	-0.219801	-1.326045
H123	H	1.296255	-0.356330	-1.078954
