data_functionalizedCrystal
_audit_creation_method	'MofGen! by Chris Wilmer'
_symmetry_space_group_name_H-M	'P1'
_symmetry_Int_Tables_number	1
_symmetry_cell_setting	triclinic
loop_
_symmetry_equiv_pos_as_xyz
  x,y,z
_cell_length_a	27.732048
_cell_length_b	27.732048
_cell_length_c	9.130313
_cell_angle_alpha	89.994799
_cell_angle_beta	90.010875
_cell_angle_gamma	82.642655
loop_
_atom_site_label
_atom_site_type_symbol
_atom_site_fract_x
_atom_site_fract_y
_atom_site_fract_z
O1	O	0.057518	0.640924	0.121626
O2	O	0.390852	0.974257	0.454960
O3	O	0.724185	1.307591	0.788293
O4	O	0.066264	0.500131	0.121673
O5	O	0.399597	0.833464	0.455006
O6	O	0.732930	1.166797	0.788339
O7	O	-0.008506	0.574900	0.121620
O8	O	0.324828	0.908233	0.454953
O9	O	0.658161	1.241567	0.788287
O10	O	0.132288	0.566155	0.121679
O11	O	0.465621	0.899488	0.455012
O12	O	0.798954	1.232821	0.788345
O13	O	-0.008510	0.574900	-0.121979
O14	O	0.324823	0.908233	0.211355
O15	O	0.658156	1.241567	0.544688
O16	O	0.066259	0.500130	-0.121926
O17	O	0.399592	0.833464	0.211407
O18	O	0.732926	1.166797	0.544741
O19	O	0.057514	0.640924	-0.121973
O20	O	0.390847	0.974257	0.211361
O21	O	0.724180	1.307591	0.544694
Cu22	Cu	0.061886	0.570527	-0.144192
Cu23	Cu	0.395219	0.903860	0.189141
Cu24	Cu	0.728552	1.237194	0.522475
Cu25	Cu	0.061891	0.570527	0.143892
Cu26	Cu	0.395225	0.903861	0.477225
Cu27	Cu	0.728558	1.237194	0.810559
O28	O	0.132283	0.566154	-0.121920
O29	O	0.465616	0.899488	0.211413
O30	O	0.798950	1.232821	0.544747
C31	C	0.066078	0.482124	-0.000121
C32	C	0.399411	0.815457	0.333212
C33	C	0.732744	1.148790	0.666546
C34	C	0.065525	0.428469	-0.000105
C35	C	0.398858	0.761802	0.333229
C36	C	0.732192	1.095135	0.666562
C37	C	0.106229	0.089654	-0.000151
C38	C	0.439562	0.422987	0.333182
C39	C	0.772895	0.756320	0.666516
C40	C	0.104178	-0.112006	-0.000165
C41	C	0.437511	0.221327	0.333168
C42	C	0.770844	0.554661	0.666502
O43	O	0.141398	-0.143262	-0.000213
O44	O	0.474732	0.190072	0.333120
O45	O	0.808065	0.523405	0.666454
N46	N	0.059843	-0.131130	-0.000181
N47	N	0.393176	0.202204	0.333152
N48	N	0.726509	0.535537	0.666486
C49	C	0.016017	-0.099835	-0.000203
C50	C	0.349350	0.233498	0.333130
C51	C	0.682684	0.566832	0.666464
O52	O	-0.021740	-0.120728	-0.000232
O53	O	0.311593	0.212605	0.333102
O54	O	0.644927	0.545938	0.666435
C55	C	0.018068	0.101824	-0.000199
C56	C	0.351402	0.435157	0.333134
C57	C	0.684735	0.768490	0.666467
C58	C	0.062407	0.120944	-0.000169
C59	C	0.395740	0.454278	0.333165
C60	C	0.729073	0.787611	0.666498
C61	C	0.150563	0.108775	-0.000122
C62	C	0.483897	0.442108	0.333211
C63	C	0.817230	0.775442	0.666545
C64	C	0.151075	0.159187	-0.000111
C65	C	0.484409	0.492520	0.333223
C66	C	0.817742	0.825853	0.666556
C67	C	0.107253	0.190477	-0.000128
C68	C	0.440587	0.523811	0.333205
C69	C	0.773920	0.857144	0.666539
C70	C	0.062919	0.171356	-0.000157
C71	C	0.396252	0.504690	0.333176
C72	C	0.729585	0.838023	0.666509
C73	C	-0.025757	0.133117	-0.000232
C74	C	0.307577	0.466451	0.333101
C75	C	0.640910	0.799784	0.666435
C76	C	-0.025240	0.183535	-0.000235
C77	C	0.308094	0.516868	0.333099
C78	C	0.641427	0.850201	0.666432
C79	C	0.019098	0.202655	-0.000204
C80	C	0.352432	0.535989	0.333129
C81	C	0.685765	0.869322	0.666463
C82	C	0.019609	0.253059	-0.000163
C83	C	0.352942	0.586392	0.333170
C84	C	0.686276	0.919725	0.666503
N85	N	0.063944	0.272183	-0.000148
N86	N	0.397277	0.605516	0.333186
N87	N	0.730611	0.938849	0.666519
C88	C	0.107766	0.240892	-0.000130
C89	C	0.441100	0.574225	0.333203
C90	C	0.774433	0.907559	0.666537
C91	C	0.014943	-0.205709	-0.000202
C92	C	0.348276	0.127624	0.333132
C93	C	0.681610	0.460957	0.666465
C94	C	0.014430	-0.256124	-0.000200
C95	C	0.347763	0.077210	0.333133
C96	C	0.681097	0.410543	0.666467
C97	C	0.102591	-0.268291	-0.000165
C98	C	0.435924	0.065042	0.333168
C99	C	0.769258	0.398376	0.666502
C100	C	0.103104	-0.217876	-0.000156
C101	C	0.436437	0.115458	0.333177
C102	C	0.769770	0.448791	0.666510
C103	C	0.059278	-0.186585	-0.000186
C104	C	0.392612	0.146748	0.333147
C105	C	0.725945	0.480081	0.666481
C106	C	0.108839	0.346761	-0.000105
C107	C	0.442172	0.680094	0.333229
C108	C	0.775505	1.013428	0.666562
C109	C	0.109347	0.397178	-0.000087
C110	C	0.442681	0.730511	0.333246
C111	C	0.776014	1.063845	0.666580
C112	C	0.021186	0.409341	-0.000130
C113	C	0.354520	0.742674	0.333203
C114	C	0.687853	1.076008	0.666537
C115	C	0.020678	0.358929	-0.000140
C116	C	0.354011	0.692262	0.333194
C117	C	0.687344	1.025595	0.666527
C118	C	0.064508	0.327639	-0.000132
C119	C	0.397841	0.660973	0.333201
C120	C	0.731175	0.994306	0.666535
O121	O	-0.017592	0.284343	-0.000132
O122	O	0.315741	0.617676	0.333201
O123	O	0.649075	0.951009	0.666535
O124	O	0.145518	0.261794	-0.000133
O125	O	0.478851	0.595128	0.333200
O126	O	0.812184	0.928461	0.666533
C127	C	0.105716	0.039242	-0.000163
C128	C	0.439050	0.372575	0.333171
C129	C	0.772383	0.705908	0.666504
C130	C	0.061382	0.020120	-0.000192
C131	C	0.394715	0.353454	0.333142
C132	C	0.728049	0.686787	0.666475
C133	C	0.017560	0.051411	-0.000209
C134	C	0.350893	0.384744	0.333124
C135	C	0.684226	0.718078	0.666457
C136	C	0.060869	-0.030294	-0.000190
C137	C	0.394202	0.303039	0.333143
C138	C	0.727536	0.636373	0.666477
C139	C	0.104691	-0.061585	-0.000172
C140	C	0.438025	0.271749	0.333161
C141	C	0.771358	0.605082	0.666494
C142	C	0.149026	-0.042461	-0.000156
C143	C	0.482360	0.290872	0.333177
C144	C	0.815693	0.624206	0.666510
C145	C	0.149539	0.007951	-0.000145
C146	C	0.482872	0.341284	0.333188
C147	C	0.816205	0.674618	0.666522
C148	C	-0.026775	0.032287	-0.000225
C149	C	0.306558	0.365621	0.333108
C150	C	0.639891	0.698954	0.666442
C151	C	-0.027284	-0.018125	-0.000235
C152	C	0.306049	0.315208	0.333098
C153	C	0.639383	0.648541	0.666432
C154	C	0.016538	-0.049416	-0.000217
C155	C	0.349871	0.283917	0.333116
C156	C	0.683205	0.617251	0.666449
C157	C	-0.026515	0.574716	-0.000183
C158	C	0.306818	0.908050	0.333150
C159	C	0.640152	1.241383	0.666483
C160	C	-0.080170	0.574164	-0.000195
C161	C	0.253163	0.907497	0.333138
C162	C	0.586497	1.240830	0.666472
C163	C	-0.418985	0.614867	-0.000133
C164	C	-0.085652	0.948201	0.333200
C165	C	0.247682	1.281534	0.666533
C166	C	-0.620645	0.612816	-0.000112
C167	C	-0.287311	0.946150	0.333221
C168	C	0.046022	1.279483	0.666554
O169	O	-0.651900	0.650037	-0.000060
O170	O	-0.318567	0.983370	0.333273
O171	O	0.014766	1.316704	0.666606
N172	N	-0.639768	0.568481	-0.000099
N173	N	-0.306435	0.901814	0.333234
N174	N	0.026898	1.235148	0.666568
C175	C	-0.608474	0.524656	-0.000081
C176	C	-0.275140	0.857989	0.333252
C177	C	0.058193	1.191322	0.666585
O178	O	-0.629367	0.486899	-0.000055
O179	O	-0.296033	0.820232	0.333279
O180	O	0.037300	1.153565	0.666612
C181	C	-0.406815	0.526707	-0.000092
C182	C	-0.073482	0.860040	0.333241
C183	C	0.259852	1.193374	0.666575
C184	C	-0.387694	0.571045	-0.000120
C185	C	-0.054361	0.904378	0.333213
C186	C	0.278972	1.237712	0.666547
C187	C	-0.399864	0.659202	-0.000160
C188	C	-0.066530	0.992535	0.333173
C189	C	0.266803	1.325868	0.666507
C190	C	-0.349452	0.659714	-0.000173
C191	C	-0.016118	0.993047	0.333160
C192	C	0.317215	1.326381	0.666494
C193	C	-0.318161	0.615892	-0.000160
C194	C	0.015172	0.949225	0.333173
C195	C	0.348506	1.282559	0.666507
C196	C	-0.337282	0.571557	-0.000133
C197	C	-0.003949	0.904891	0.333200
C198	C	0.329384	1.238224	0.666533
C199	C	-0.375521	0.482882	-0.000064
C200	C	-0.042188	0.816215	0.333269
C201	C	0.291145	1.149549	0.666603
C202	C	-0.325104	0.483399	-0.000063
C203	C	0.008229	0.816732	0.333271
C204	C	0.341563	1.150066	0.666604
C205	C	-0.305983	0.527737	-0.000091
C206	C	0.027350	0.861070	0.333242
C207	C	0.360683	1.194404	0.666576
C208	C	-0.255580	0.528248	-0.000133
C209	C	0.077754	0.861581	0.333200
C210	C	0.411087	1.194914	0.666533
N211	N	-0.236456	0.572583	-0.000147
N212	N	0.096877	0.905916	0.333187
N213	N	0.430211	1.239249	0.666520
C214	C	-0.267747	0.616405	-0.000160
C215	C	0.065587	0.949738	0.333173
C216	C	0.398920	1.283072	0.666507
C217	C	-0.714348	0.523582	-0.000079
C218	C	-0.381014	0.856915	0.333255
C219	C	-0.047681	1.190248	0.666588
C220	C	-0.764762	0.523069	-0.000079
C221	C	-0.431429	0.856402	0.333255
C222	C	-0.098096	1.189735	0.666588
C223	C	-0.776930	0.611230	-0.000107
C224	C	-0.443596	0.944563	0.333226
C225	C	-0.110263	1.277896	0.666560
C226	C	-0.726514	0.611742	-0.000117
C227	C	-0.393181	0.945075	0.333216
C228	C	-0.059848	1.278409	0.666549
C229	C	-0.695224	0.567917	-0.000092
C230	C	-0.361891	0.901250	0.333241
C231	C	-0.028557	1.234583	0.666575
C232	C	-0.161878	0.617477	-0.000189
C233	C	0.171456	0.950811	0.333144
C234	C	0.504789	1.284144	0.666478
C235	C	-0.111461	0.617986	-0.000208
C236	C	0.221873	0.951319	0.333125
C237	C	0.555206	1.284652	0.666458
C238	C	-0.099298	0.529825	-0.000172
C239	C	0.234036	0.863158	0.333161
C240	C	0.567369	1.196492	0.666494
C241	C	-0.149710	0.529316	-0.000161
C242	C	0.183623	0.862650	0.333172
C243	C	0.516957	1.195983	0.666506
C244	C	-0.180999	0.573147	-0.000164
C245	C	0.152334	0.906480	0.333169
C246	C	0.485667	1.239813	0.666502
O247	O	-0.224296	0.491047	-0.000169
O248	O	0.109038	0.824380	0.333165
O249	O	0.442371	1.157713	0.666498
O250	O	-0.246844	0.654156	-0.000154
O251	O	0.086489	0.987490	0.333179
O252	O	0.419823	1.320823	0.666512
C253	C	-0.469397	0.614355	-0.000120
C254	C	-0.136064	0.947688	0.333213
C255	C	0.197270	1.281022	0.666547
C256	C	-0.488518	0.570021	-0.000094
C257	C	-0.155185	0.903354	0.333240
C258	C	0.178148	1.236687	0.666573
C259	C	-0.457228	0.526198	-0.000080
C260	C	-0.123894	0.859532	0.333253
C261	C	0.209439	1.192865	0.666586
C262	C	-0.538933	0.569508	-0.000094
C263	C	-0.205599	0.902841	0.333240
C264	C	0.127734	1.236174	0.666573
C265	C	-0.570223	0.613330	-0.000107
C266	C	-0.236890	0.946663	0.333227
C267	C	0.096443	1.279996	0.666560
C268	C	-0.551100	0.657665	-0.000120
C269	C	-0.217766	0.990998	0.333213
C270	C	0.115567	1.324332	0.666547
C271	C	-0.500688	0.658177	-0.000133
C272	C	-0.167354	0.991511	0.333200
C273	C	0.165979	1.324844	0.666533
C274	C	-0.476351	0.481863	-0.000067
C275	C	-0.143018	0.815197	0.333266
C276	C	0.190315	1.148530	0.666600
C277	C	-0.526764	0.481355	-0.000056
C278	C	-0.193430	0.814688	0.333278
C279	C	0.139903	1.148021	0.666611
C280	C	-0.558054	0.525177	-0.000069
C281	C	-0.224721	0.858510	0.333265
C282	C	0.108612	1.191843	0.666598
C283	C	0.150292	0.566338	-0.000113
C284	C	0.483626	0.899671	0.333220
C285	C	0.816959	1.233005	0.666553
C286	C	0.203947	0.566891	-0.000092
C287	C	0.537280	0.900224	0.333241
C288	C	0.870614	1.233557	0.666575
C289	C	0.057699	0.658931	-0.000176
C290	C	0.391033	0.992264	0.333158
C291	C	0.724366	1.325598	0.666491
C292	C	0.058252	0.712586	-0.000182
C293	C	0.391586	1.045919	0.333151
C294	C	0.724919	1.379252	0.666484
N295	N	0.061892	0.570528	0.346515
N296	N	0.395225	0.903861	0.679848
N297	N	0.728558	1.237194	1.013181
C298	C	0.028847	0.603696	0.423143
C299	C	0.362181	0.937029	0.756477
C300	C	0.695514	1.270362	1.089810
C301	C	0.028845	0.603697	0.576480
C302	C	0.362178	0.937030	0.909813
C303	C	0.695511	1.270363	1.243147
C304	C	0.094933	0.537358	0.576546
C305	C	0.428266	0.870691	0.909879
C306	C	0.761600	1.204025	1.243213
C307	C	0.094937	0.537359	0.423212
C308	C	0.428271	0.870693	0.756545
C309	C	0.761604	1.204026	1.089879
C310	C	-0.004198	0.636864	0.346446
C311	C	0.329135	0.970197	0.679779
C312	C	0.662468	1.303531	1.013113
C313	C	-0.037246	0.670034	0.423075
C314	C	0.296087	1.003368	0.756408
C315	C	0.629421	1.336701	1.089741
C316	C	-0.037248	0.670035	0.576412
C317	C	0.296085	1.003369	0.909745
C318	C	0.629418	1.336702	1.243078
C319	C	-0.004203	0.636866	0.653120
C320	C	0.329130	0.970200	0.986453
C321	C	0.662463	1.303533	1.319786
N322	N	0.061885	0.570527	0.653185
N323	N	0.395218	0.903861	0.986519
N324	N	0.728552	1.237194	1.319852
H325	H	-0.014492	0.434827	-0.000139
H326	H	0.318841	0.768160	0.333195
H327	H	0.652174	1.101494	0.666528
H328	H	0.121846	0.510352	0.360820
H329	H	0.455179	0.843685	0.694154
H330	H	0.788512	1.177018	1.027487
H331	H	-0.073812	0.494146	-0.000167
H332	H	0.259522	0.827480	0.333166
H333	H	0.592855	1.160813	0.666500
H334	H	-0.020747	-0.180236	-0.000226
H335	H	0.312586	0.153097	0.333107
H336	H	0.645920	0.486430	0.666441
H337	H	-0.485125	0.694282	-0.000156
H338	H	-0.151791	1.027615	0.333178
H339	H	0.181542	1.360949	0.666511
H340	H	-0.064148	0.697042	0.360611
H341	H	0.269186	1.030376	0.693945
H342	H	0.602519	1.363709	1.027278
H343	H	-0.450879	0.446177	-0.000053
H344	H	-0.117545	0.779510	0.333280
H345	H	0.215788	1.112844	0.666614
H346	H	-0.710950	0.647846	-0.000139
H347	H	-0.377617	0.981179	0.333194
H348	H	-0.044283	1.314513	0.666528
H349	H	0.145454	0.412743	-0.000061
H350	H	0.478787	0.746076	0.333272
H351	H	0.812121	1.079410	0.666606
H352	H	-0.004205	0.636873	0.777977
H353	H	0.329129	0.970207	1.111310
H354	H	0.662462	1.303540	1.444644
H355	H	-0.576585	0.693347	-0.000137
H356	H	-0.243252	1.026680	0.333196
H357	H	0.090081	1.360013	0.666529
H358	H	-0.004200	0.636865	0.221591
H359	H	0.329133	0.970199	0.554925
H360	H	0.662466	1.303532	0.888258
H361	H	0.121837	0.510352	0.639012
H362	H	0.455170	0.843686	0.972345
H363	H	0.788503	1.177019	1.305678
H364	H	-0.064154	0.697047	0.638801
H365	H	0.269180	1.030380	0.972135
H366	H	0.602513	1.363714	1.305468
H367	H	-0.780325	0.486964	-0.000081
H368	H	-0.446992	0.820298	0.333252
H369	H	-0.113659	1.153631	0.666585
H370	H	0.144530	0.321291	-0.000103
H371	H	0.477863	0.654624	0.333230
H372	H	0.811196	0.987957	0.666564
H373	H	-0.060929	0.209009	-0.000260
H374	H	0.272405	0.542343	0.333073
H375	H	0.605738	0.875676	0.666407
H376	H	0.187180	0.174750	-0.000085
H377	H	0.520513	0.508083	0.333248
H378	H	0.853847	0.841417	0.666582
H379	H	-0.542327	0.445246	-0.000045
H380	H	-0.208993	0.778580	0.333288
H381	H	0.124340	1.111913	0.666621
H382	H	0.186251	0.083302	-0.000113
H383	H	0.519584	0.416636	0.333220
H384	H	0.852917	0.749969	0.666554
H385	H	0.138273	-0.293777	-0.000151
H386	H	0.471606	0.039557	0.333182
H387	H	0.804939	0.372890	0.666516
H388	H	0.139207	-0.202311	-0.000139
H389	H	0.472541	0.131022	0.333194
H390	H	0.805874	0.464355	0.666527
H391	H	-0.021674	-0.271687	-0.000202
H392	H	0.311659	0.061646	0.333131
H393	H	0.644992	0.394980	0.666465
H394	H	-0.061861	0.117558	-0.000258
H395	H	0.271472	0.450892	0.333075
H396	H	0.604805	0.784225	0.666409
H397	H	0.185643	0.023514	-0.000122
H398	H	0.518977	0.356847	0.333211
H399	H	0.852310	0.690181	0.666545
H400	H	-0.015426	0.343360	-0.000143
H401	H	0.317907	0.676693	0.333190
H402	H	0.651241	1.010027	0.666523
H403	H	0.184708	-0.067947	-0.000136
H404	H	0.518041	0.265386	0.333197
H405	H	0.851375	0.598720	0.666531
H406	H	-0.425336	0.694889	-0.000165
H407	H	-0.092003	1.028223	0.333168
H408	H	0.241330	1.361556	0.666501
H409	H	-0.802415	0.646911	-0.000118
H410	H	-0.469082	0.980245	0.333215
H411	H	-0.135749	1.313578	0.666548
H412	H	-0.063392	-0.033688	-0.000248
H413	H	0.269941	0.299645	0.333085
H414	H	0.603275	0.632979	0.666418
H415	H	-0.062462	0.057760	-0.000243
H416	H	0.270872	0.391093	0.333090
H417	H	0.604205	0.724427	0.666424
H418	H	-0.095896	0.654093	-0.000235
H419	H	0.237438	0.987426	0.333098
H420	H	0.570771	1.320759	0.666432
H421	H	-0.187348	0.653168	-0.000186
H422	H	0.145985	0.986501	0.333147
H423	H	0.479319	1.319835	0.666481
H424	H	-0.688875	0.487892	-0.000058
H425	H	-0.355542	0.821225	0.333275
H426	H	-0.022208	1.154558	0.666608
H427	H	-0.333889	0.695819	-0.000190
H428	H	-0.000555	1.029152	0.333143
H429	H	0.332778	1.362485	0.666477
H430	H	-0.391080	0.446777	-0.000032
H431	H	-0.057747	0.780111	0.333301
H432	H	0.275586	1.113444	0.666635
H433	H	-0.165279	0.493213	-0.000179
H434	H	0.168055	0.826546	0.333155
H435	H	0.501388	1.159879	0.666488
H436	H	-0.299629	0.447710	-0.000040
H437	H	0.033704	0.781043	0.333293
H438	H	0.367037	1.114377	0.666627
