data_functionalizedCrystal
_audit_creation_method	'MofGen! by Chris Wilmer'
_symmetry_space_group_name_H-M	'P1'
_symmetry_Int_Tables_number	1
_symmetry_cell_setting	triclinic
loop_
_symmetry_equiv_pos_as_xyz
  x,y,z
_cell_length_a	33.428889
_cell_length_b	33.428139
_cell_length_c	33.424847
_cell_angle_alpha	60.004234
_cell_angle_beta	60.008465
_cell_angle_gamma	59.994972
loop_
_atom_site_label
_atom_site_type_symbol
_atom_site_fract_x
_atom_site_fract_y
_atom_site_fract_z
O1	O	0.055565	-0.584504	0.488714
O2	O	0.020982	-0.455083	0.393778
O3	O	0.102943	-0.536959	0.393689
O4	O	-0.026396	-0.502628	0.488803
O5	O	0.130140	-0.509767	0.420792
O6	O	0.048179	-0.427891	0.420881
O7	O	0.082762	-0.557312	0.515817
Cu8	Cu	0.067954	-0.490119	0.470823
Cu9	Cu	0.035790	-0.522276	0.438771
O10	O	0.000801	-0.475436	0.515906
N11	N	0.090577	-0.467504	0.493370
N12	N	0.013171	-0.544895	0.416225
C13	C	0.143377	-0.280390	0.546067
C14	C	0.143515	-0.414755	0.680369
C15	C	0.143392	-0.414735	0.546069
C16	C	0.277766	-0.414702	0.545966
C17	C	0.158177	-0.324719	0.560828
C18	C	0.158255	-0.399967	0.636038
C19	C	0.233434	-0.399936	0.560773
C20	C	0.158186	-0.399955	0.560829
C21	C	0.124540	-0.223964	0.527278
C22	C	0.124565	-0.433545	0.527281
C23	C	0.177014	-0.381145	0.579617
C24	C	0.359814	-0.400540	0.502735
C25	C	0.411105	-0.417624	0.485606
C26	C	0.411136	-0.500620	0.517255
C27	C	0.359845	-0.483534	0.534385
C28	C	0.136887	-0.198305	0.476855
C29	C	0.119761	-0.147011	0.459777
C30	C	0.077945	-0.147038	0.543547
C31	C	0.095072	-0.198332	0.560625
C32	C	0.074134	-0.421169	0.539710
C33	C	0.057023	-0.438269	0.522625
C34	C	0.140770	-0.480120	0.480694
C35	C	0.157883	-0.463020	0.497773
C36	C	0.074339	-0.421208	0.762475
C37	C	0.057288	-0.438323	0.813768
C38	C	0.141075	-0.480183	0.813699
C39	C	0.158125	-0.463069	0.762404
C40	C	0.124756	-0.433580	0.736794
C41	C	0.334186	-0.433494	0.527123
C42	C	-0.173769	-0.597444	0.363037
C43	C	-0.039302	-0.597595	0.228856
C44	C	-0.039496	-0.597587	0.363300
C45	C	-0.039512	-0.731889	0.363237
C46	C	-0.129442	-0.612265	0.348329
C47	C	-0.054138	-0.612351	0.273187
C48	C	-0.054257	-0.687554	0.348440
C49	C	-0.054247	-0.612346	0.348477
C50	C	-0.230191	-0.578579	0.381758
C51	C	-0.020722	-0.578803	0.382168
C52	C	-0.073020	-0.631130	0.329609
C53	C	-0.053713	-0.813916	0.406386
C54	C	-0.036654	-0.865210	0.423504
C55	C	0.046338	-0.865293	0.391984
C56	C	0.029278	-0.813999	0.374865
C57	C	-0.255900	-0.590938	0.432169
C58	C	-0.307191	-0.573786	0.449185
C59	C	-0.307060	-0.531922	0.365377
C60	C	-0.255769	-0.549074	0.348360
C61	C	-0.033081	-0.528377	0.369764
C62	C	-0.016014	-0.511306	0.386922
C63	C	0.025770	-0.595083	0.428877
C64	C	0.008703	-0.612156	0.411725
C65	C	-0.032755	-0.528393	0.146761
C66	C	-0.015585	-0.511324	0.095468
C67	C	0.026262	-0.595106	0.095516
C68	C	0.009094	-0.612174	0.146811
C69	C	-0.020417	-0.578816	0.172432
C70	C	-0.020748	-0.788312	0.382068
N71	N	0.436037	-0.467415	0.493101
O72	O	0.592642	-0.471896	0.376066
O73	O	0.592838	-0.567146	0.505347
O74	O	0.592754	-0.566928	0.423360
O75	O	0.592727	-0.472113	0.458053
O76	O	0.511269	-0.539835	0.450606
O77	O	0.511353	-0.540052	0.532594
O78	O	0.511157	-0.444802	0.403312
Cu79	Cu	0.503815	-0.489954	0.470441
Cu80	Cu	0.600180	-0.521995	0.438219
O81	O	0.511242	-0.445020	0.485300
N82	N	0.667959	-0.544533	0.415554
N83	N	0.090544	-0.122107	0.493359
O84	O	-0.026406	0.034587	0.488773
O85	O	0.102877	0.034627	0.393499
O86	O	0.020848	0.034591	0.393771
O87	O	0.055623	0.034623	0.488500
O88	O	0.048051	-0.046899	0.420925
O89	O	0.130080	-0.046864	0.420653
O90	O	0.000796	-0.046903	0.515927
Cu91	Cu	0.067922	-0.054324	0.470769
Cu92	Cu	0.035752	0.042048	0.438656
O93	O	0.082825	-0.046867	0.515655
N94	N	0.013123	0.109830	0.416068
N95	N	0.090892	-0.467554	0.838649
O96	O	0.086330	-0.584488	0.995334
O97	O	-0.008902	-0.455160	0.995379
O98	O	-0.008679	-0.537172	0.995355
O99	O	0.086107	-0.502475	0.995358
O100	O	0.018452	-0.509990	0.913868
O101	O	0.018230	-0.427978	0.913891
O102	O	0.113461	-0.557306	0.913847
Cu103	Cu	0.068323	-0.490160	0.906429
Cu104	Cu	0.036237	-0.522306	1.002797
O105	O	0.113239	-0.475293	0.913870
N106	N	0.013667	-0.544916	1.070577
C107	C	0.031339	-0.425179	0.394250
C108	C	0.132837	-0.526572	0.394139
C109	C	0.072405	-0.587216	0.515344
C110	C	-0.029093	-0.485823	0.515455
C111	C	0.552119	-0.566716	0.535258
C112	C	0.552016	-0.566447	0.433726
C113	C	0.551873	-0.445232	0.373402
C114	C	0.551980	-0.445502	0.474933
C115	C	0.132731	-0.006013	0.393923
C116	C	0.031182	-0.006158	0.394293
C117	C	-0.029092	-0.006163	0.515469
C118	C	0.072491	-0.006119	0.515133
C119	C	-0.008451	-0.425276	0.954641
C120	C	-0.008170	-0.526833	0.954596
C121	C	0.113010	-0.587190	0.954585
C122	C	0.112735	-0.485627	0.954611
H123	H	0.047163	-0.397193	0.741627
C124	C	0.021591	-0.375632	0.354433
C125	C	0.063415	-0.375551	0.312494
C126	C	0.054456	-0.329915	0.275807
H127	H	-0.005113	-0.369645	0.346743
H128	H	0.013856	-0.350714	0.365683
H129	H	0.071144	-0.400461	0.301246
H130	H	0.090124	-0.381529	0.320168
H131	H	0.046721	-0.304998	0.287058
H132	H	0.027751	-0.323933	0.268122
H133	H	0.082833	-0.329853	0.247350
C134	C	0.081634	-0.226101	0.615390
C135	C	0.052170	-0.192673	0.640936
C136	C	0.039785	-0.218236	0.691388
H137	H	0.064213	-0.246121	0.623877
H138	H	0.110645	-0.246094	0.623799
H139	H	0.023164	-0.172689	0.632530
H140	H	0.069581	-0.172652	0.632464
H141	H	0.068796	-0.238229	0.699797
H142	H	0.022366	-0.238255	0.699870
H143	H	0.019796	-0.195559	0.708727
C144	C	0.212862	-0.476571	0.734498
C145	C	0.225107	-0.502214	0.705059
C146	C	0.275525	-0.514665	0.679352
H147	H	0.221311	-0.447598	0.714447
H148	H	0.230309	-0.496605	0.757084
H149	H	0.207665	-0.482181	0.682476
H150	H	0.216670	-0.531192	0.725098
H151	H	0.292972	-0.534699	0.701938
H152	H	0.283970	-0.485689	0.659304
H153	H	0.283841	-0.532069	0.659378
C154	C	-0.078557	-0.006200	0.555423
C155	C	-0.078463	-0.006204	0.597266
C156	C	-0.124019	-0.006246	0.634084
H157	H	-0.103542	0.022202	0.544270
H158	H	-0.084534	-0.034637	0.563173
H159	H	-0.072491	0.022229	0.589516
H160	H	-0.053487	-0.034605	0.608434
H161	H	-0.129996	-0.034682	0.641834
H162	H	-0.149000	0.022157	0.622925
H163	H	-0.123960	-0.006253	0.662480
C164	C	0.082524	-0.006144	0.554768
C165	C	0.130362	-0.006143	0.536983
C166	C	0.139624	-0.006175	0.573484
H167	H	0.059967	0.022260	0.563728
H168	H	0.078922	-0.034579	0.582631
H169	H	0.133960	0.022290	0.509128
H170	H	0.152928	-0.034544	0.528026
H171	H	0.136022	-0.034611	0.601348
H172	H	0.117065	0.022229	0.582442
H173	H	0.172084	-0.006179	0.561424
C174	C	0.552093	-0.606577	0.584789
C175	C	0.510191	-0.619639	0.606322
C176	C	0.510148	-0.656354	0.651952
H177	H	0.580493	-0.634444	0.580531
H178	H	0.552080	-0.594750	0.605398
H179	H	0.510209	-0.631467	0.585718
H180	H	0.481784	-0.591784	0.610593
H181	H	0.510135	-0.644527	0.672561
H182	H	0.538550	-0.684217	0.647689
H183	H	0.481716	-0.665217	0.666570
H184	H	-0.038348	-0.388133	0.954654
H185	H	0.169783	-0.005775	0.363939
H186	H	0.142514	-0.478200	0.954606
H187	H	0.551811	-0.415327	0.336274
H188	H	-0.037935	-0.534246	0.954563
H189	H	-0.066242	-0.478508	0.545321
C190	C	0.152861	-0.636710	0.954489
C191	C	0.164107	-0.645396	0.912564
C192	C	0.200811	-0.691011	0.912462
H193	H	0.181341	-0.636811	0.954461
H194	H	0.141645	-0.661662	0.982886
H195	H	0.175325	-0.620451	0.884175
H196	H	0.135638	-0.645305	0.912583
H197	H	0.189595	-0.715964	0.940858
H198	H	0.229288	-0.691109	0.912435
H199	H	0.208443	-0.696913	0.884019
C200	C	0.002529	-0.424806	0.841557
C201	C	-0.023040	-0.395305	0.808146
C202	C	-0.073486	-0.382841	0.833728
H203	H	-0.005933	-0.453774	0.861570
H204	H	-0.005886	-0.407384	0.861558
H205	H	-0.014629	-0.412727	0.788155
H206	H	-0.014594	-0.366331	0.788133
H207	H	-0.081900	-0.365419	0.853728
H208	H	-0.081942	-0.411812	0.853739
H209	H	-0.090841	-0.362820	0.811062
H210	H	0.079796	-0.624394	0.545162
C211	C	0.182407	-0.536409	0.354383
C212	C	0.212618	-0.584219	0.372009
C213	C	0.258288	-0.593295	0.335401
H214	H	0.178187	-0.532764	0.326528
H215	H	0.197119	-0.513782	0.345454
H216	H	0.197910	-0.606839	0.380931
H217	H	0.216852	-0.587875	0.399859
H218	H	0.272999	-0.570669	0.326473
H219	H	0.254063	-0.589648	0.307548
H220	H	0.278793	-0.625733	0.347357
H221	H	0.168250	-0.504186	0.834549
C222	C	0.551930	-0.606113	0.423839
C223	C	0.509973	-0.589344	0.412451
C224	C	0.509873	-0.625873	0.403346
H225	H	0.580293	-0.613740	0.397082
H226	H	0.551950	-0.634641	0.452151
H227	H	0.509957	-0.560825	0.384142
H228	H	0.481603	-0.581721	0.439201
H229	H	0.509893	-0.654401	0.431659
H230	H	0.538238	-0.633498	0.376590
H231	H	0.481404	-0.614502	0.395623
C232	C	0.037883	-0.389149	0.571716
C233	C	-0.009945	-0.381959	0.578928
C234	C	-0.043353	-0.352459	0.608405
H235	H	0.042774	-0.404775	0.602476
H236	H	0.042768	-0.358384	0.556054
H237	H	-0.014828	-0.412719	0.594591
H238	H	-0.014851	-0.366327	0.548178
H239	H	-0.038467	-0.321693	0.592743
H240	H	-0.038457	-0.368088	0.639162
H241	H	-0.075807	-0.347572	0.613298
H242	H	0.023733	-0.006162	0.364531
C243	C	0.002274	-0.424768	0.536020
C244	C	-0.010037	-0.399108	0.493220
C245	C	-0.060468	-0.386657	0.505540
H246	H	-0.006176	-0.453742	0.553403
H247	H	-0.015135	-0.404745	0.556024
H248	H	0.007366	-0.419131	0.473224
H249	H	-0.001600	-0.370130	0.475831
H250	H	-0.077877	-0.366633	0.525544
H251	H	-0.068913	-0.415632	0.522924
H252	H	-0.068828	-0.369241	0.476503
C253	C	0.177025	-0.512101	0.448645
C254	C	0.224852	-0.519269	0.441411
C255	C	0.258260	-0.548719	0.411884
H256	H	0.172177	-0.542876	0.464265
H257	H	0.172096	-0.496433	0.417895
H258	H	0.229779	-0.534937	0.472155
H259	H	0.229715	-0.488503	0.425784
H260	H	0.253331	-0.533052	0.381134
H261	H	0.253408	-0.579492	0.427508
H262	H	0.290714	-0.553583	0.406968
H263	H	0.551974	-0.415718	0.482355
H264	H	0.338981	-0.510371	0.554246
C265	C	0.212631	-0.476353	0.484216
C266	C	0.224863	-0.433516	0.458568
C267	C	0.275292	-0.445779	0.446066
H268	H	0.221128	-0.493741	0.513168
H269	H	0.230045	-0.496336	0.464172
H270	H	0.207455	-0.413541	0.478611
H271	H	0.216377	-0.416123	0.429611
H272	H	0.292706	-0.465762	0.426022
H273	H	0.283785	-0.463167	0.475020
H274	H	0.283598	-0.416717	0.428659
C275	C	0.438907	-0.554970	0.525205
C276	C	0.405485	-0.580177	0.550241
C277	C	0.431052	-0.630246	0.557578
H278	H	0.458896	-0.559788	0.494413
H279	H	0.458928	-0.567021	0.544002
H280	H	0.385472	-0.568130	0.531445
H281	H	0.385495	-0.575374	0.581038
H282	H	0.451073	-0.642297	0.576375
H283	H	0.451040	-0.635058	0.526784
H284	H	0.408379	-0.647355	0.574569
H285	H	0.338923	-0.359792	0.496821
C286	C	0.438908	-0.381810	0.459038
C287	C	0.426398	-0.347261	0.417065
C288	C	0.452005	-0.314266	0.392572
H289	H	0.430542	-0.365543	0.480081
H290	H	0.473134	-0.399132	0.449843
H291	H	0.392179	-0.329941	0.426261
H292	H	0.434765	-0.363514	0.396011
H293	H	0.486231	-0.331588	0.383378
H294	H	0.443637	-0.298002	0.413619
H295	H	0.443524	-0.290823	0.364089
C296	C	0.168795	-0.226106	0.440626
C297	C	0.142997	-0.213642	0.411240
C298	C	0.172373	-0.239250	0.377866
H299	H	0.197793	-0.217707	0.420548
H300	H	0.177218	-0.260335	0.458001
H301	H	0.134581	-0.179421	0.393867
H302	H	0.114001	-0.222042	0.431305
H303	H	0.180795	-0.273479	0.395241
H304	H	0.201369	-0.230849	0.357792
H305	H	0.154871	-0.230800	0.357927
C306	C	-0.029066	-0.456557	0.067690
C307	C	-0.058597	-0.431002	0.101110
C308	C	-0.071029	-0.380550	0.075539
H309	H	-0.000089	-0.448110	0.047723
H310	H	-0.046454	-0.448114	0.047645
H311	H	-0.041210	-0.439442	0.121146
H312	H	-0.087581	-0.439434	0.121077
H313	H	-0.088417	-0.372107	0.055494
H314	H	-0.042049	-0.372108	0.055573
H315	H	-0.091071	-0.363205	0.098210
H316	H	0.129813	-0.126117	0.418717
C317	C	-0.064822	-0.492251	0.174664
C318	C	-0.077228	-0.517988	0.225079
C319	C	-0.106770	-0.484712	0.250799
H320	H	-0.047458	-0.472251	0.166352
H321	H	-0.093817	-0.472224	0.166230
H322	H	-0.048238	-0.538007	0.233509
H323	H	-0.094598	-0.537987	0.233406
H324	H	-0.135765	-0.464685	0.242365
H325	H	-0.089403	-0.464713	0.242483
H326	H	-0.115195	-0.502170	0.285007
C327	C	0.058306	-0.631401	0.067788
C328	C	0.065444	-0.679214	0.101247
C329	C	0.094968	-0.712661	0.075722
H330	H	0.042720	-0.626521	0.047732
H331	H	0.089084	-0.626541	0.047836
H332	H	0.034672	-0.684073	0.121191
H333	H	0.081036	-0.684110	0.121304
H334	H	0.125746	-0.707800	0.055770
H335	H	0.079378	-0.707776	0.055667
H336	H	0.099818	-0.745105	0.098420
C337	C	-0.334770	-0.499959	0.329062
C338	C	-0.322252	-0.525725	0.299624
C339	C	-0.347761	-0.496293	0.266160
H340	H	-0.369007	-0.491498	0.346352
H341	H	-0.326320	-0.470979	0.309033
H342	H	-0.330705	-0.554696	0.319650
H343	H	-0.288019	-0.534186	0.282323
H344	H	-0.339311	-0.467313	0.246131
H345	H	-0.381996	-0.487833	0.283454
H346	H	-0.339267	-0.513769	0.246179
H347	H	0.053957	-0.126168	0.570702
H348	H	-0.057039	-0.501216	0.345698
C349	C	0.022456	-0.666904	0.174769
C350	C	0.001116	-0.674716	0.225173
C351	C	0.013418	-0.725125	0.250943
H352	H	0.010677	-0.681346	0.166386
H353	H	0.057059	-0.681359	0.166448
H354	H	-0.033481	-0.660267	0.233492
H355	H	0.012891	-0.660286	0.233572
H356	H	0.048021	-0.739580	0.242621
H357	H	0.001639	-0.739563	0.242555
H358	H	-0.001055	-0.730432	0.285144
C359	C	-0.029348	-0.456553	0.373353
C360	C	-0.011814	-0.435486	0.322334
C361	C	-0.024075	-0.385051	0.309814
H362	H	-0.063947	-0.442037	0.385040
H363	H	-0.014952	-0.451150	0.387776
H364	H	-0.026212	-0.440886	0.307916
H365	H	0.022784	-0.449988	0.310635
H366	H	-0.009679	-0.379647	0.324237
H367	H	-0.058674	-0.370540	0.321504
H368	H	-0.012177	-0.370751	0.275197
C369	C	0.057782	-0.631353	0.460897
C370	C	0.100494	-0.660822	0.435192
C371	C	0.129990	-0.694241	0.464676
H372	H	0.066232	-0.614027	0.469353
H373	H	0.040366	-0.651367	0.489878
H374	H	0.117906	-0.640811	0.406221
H375	H	0.092058	-0.678160	0.426737
H376	H	0.112575	-0.714255	0.493656
H377	H	0.138437	-0.676910	0.473130
H378	H	0.158971	-0.714243	0.447241
C379	C	0.022025	-0.666899	0.425250
C380	C	-0.020814	-0.679116	0.450825
C381	C	-0.008558	-0.729541	0.463294
H382	H	0.039443	-0.675379	0.396288
H383	H	0.041976	-0.684339	0.445331
H384	H	-0.040757	-0.661683	0.430745
H385	H	-0.038237	-0.670648	0.479793
H386	H	0.011393	-0.746980	0.483376
H387	H	0.008860	-0.738016	0.434330
H388	H	-0.037622	-0.737837	0.480652
C389	C	0.065145	-0.786292	0.348497
C390	C	0.112603	-0.819771	0.345869
C391	C	0.145657	-0.794265	0.321589
H392	H	0.063948	-0.766286	0.316327
H393	H	0.056573	-0.766291	0.365986
H394	H	0.121172	-0.839764	0.328379
H395	H	0.113815	-0.839778	0.378032
H396	H	0.137086	-0.774264	0.339079
H397	H	0.144457	-0.774260	0.289421
H398	H	0.177861	-0.816977	0.319807
H399	H	0.087072	-0.886205	0.386121
H400	H	-0.094449	-0.793002	0.412253
C401	C	-0.072524	-0.892924	0.449918
C402	C	-0.119989	-0.859451	0.452573
C403	C	-0.153045	-0.884964	0.476910
H404	H	-0.063991	-0.912940	0.432466
H405	H	-0.071289	-0.912917	0.482083
H406	H	-0.121223	-0.839467	0.420413
H407	H	-0.128538	-0.839434	0.470028
H408	H	-0.151811	-0.904956	0.509076
H409	H	-0.144508	-0.904979	0.459456
H410	H	-0.185255	-0.862256	0.478719
H411	H	-0.235077	-0.614964	0.459366
H412	H	-0.328125	-0.583847	0.490235
C413	C	-0.227796	-0.535757	0.293641
C414	C	-0.198343	-0.578598	0.281405
C415	C	-0.172562	-0.566348	0.231001
H416	H	-0.250322	-0.515747	0.276133
H417	H	-0.207752	-0.518402	0.285258
H418	H	-0.218385	-0.595945	0.289783
H419	H	-0.175808	-0.598613	0.298900
H420	H	-0.152518	-0.548993	0.222619
H421	H	-0.195091	-0.546337	0.213498
H422	H	-0.152572	-0.595413	0.222694
