data_functionalizedCrystal
_audit_creation_method	'MofGen! by Chris Wilmer'
_symmetry_space_group_name_H-M	'P1'
_symmetry_Int_Tables_number	1
_symmetry_cell_setting	triclinic
loop_
_symmetry_equiv_pos_as_xyz
  x,y,z
_cell_length_a	8.497365
_cell_length_b	12.759400
_cell_length_c	12.759401
_cell_angle_alpha	89.985155
_cell_angle_beta	90.031201
_cell_angle_gamma	89.948979
loop_
_atom_site_label
_atom_site_type_symbol
_atom_site_fract_x
_atom_site_fract_y
_atom_site_fract_z
Zn1	Zn	-0.891905	-0.417998	-1.606387
Zn2	Zn	-0.628109	-0.593777	-1.606243
Zn3	Zn	-0.628138	-0.418113	-1.430650
Zn4	Zn	-0.891847	-0.593636	-1.430678
O5	O	-0.760000	-0.505881	-1.518490
O6	O	-0.856924	-0.441326	-1.753389
O7	O	-0.407351	-0.570581	-1.582878
O8	O	-0.663164	-0.271077	-1.454011
O9	O	-0.663114	-0.570470	-1.753283
O10	O	-0.856952	-0.270992	-1.583124
O11	O	-0.407372	-0.441522	-1.453871
O12	O	-0.663108	-0.441385	-1.283633
O13	O	-1.112618	-0.570231	-1.454058
O14	O	-0.856854	-0.570342	-1.283653
O15	O	-1.112660	-0.441190	-1.583151
O16	O	-0.663059	-0.740779	-1.582905
O17	O	-0.856826	-0.740676	-1.453918
C18	C	-0.759967	-0.778848	-1.518427
C19	C	-0.760006	-0.895625	-1.518497
C20	C	-0.759979	-0.505862	-1.245522
C21	C	-0.760007	-0.505879	-1.128746
C22	C	-0.659223	-0.950506	-1.585735
C23	C	-0.659271	-1.060230	-1.585799
C24	C	-0.860891	-1.060182	-1.451379
C25	C	-0.860849	-0.950460	-1.451320
C26	C	-0.542815	-0.950534	-1.663338
C27	C	-0.542863	-1.060258	-1.663402
C28	C	-0.350120	-0.505995	-1.518414
C29	C	-0.171477	-0.505780	-1.518563
C30	C	-0.760023	-0.505901	-1.792523
C31	C	-0.760032	-0.505910	-1.909299
C32	C	-0.760068	-0.231848	-1.518581
C33	C	-0.760096	-0.115071	-1.518620
C34	C	-0.860724	-0.573134	-1.073922
C35	C	-0.860741	-0.573147	-0.964197
C36	C	-0.659311	-0.438647	-0.964131
C37	C	-0.659303	-0.438629	-1.073853
C38	C	-0.977013	-0.650789	-1.073959
C39	C	-0.977030	-0.650803	-0.964235
H40	H	-0.942995	-1.104843	-1.396687
H41	H	-0.944097	-0.732160	-0.934434
O42	O	-0.561529	-0.373433	-0.910644
C43	C	-0.472327	-0.313811	-0.741583
C44	C	-0.583127	-0.387734	-0.802022
H45	H	-0.489774	-0.325332	-0.653751
H46	H	-0.345037	-0.332194	-0.763025
H47	H	-0.500223	-0.229117	-0.763238
H48	H	-0.555373	-0.472453	-0.780398
H49	H	-0.710384	-0.369261	-0.780574
H50	H	-0.575626	-0.920669	-1.744686
O51	O	-0.595161	-1.100579	-1.755712
C52	C	-0.693604	-1.063948	-1.929050
C53	C	-0.634372	-1.018143	-1.824579
H54	H	-0.725354	-0.997321	-1.984750
H55	H	-0.597277	-1.114243	-1.965663
H56	H	-0.802145	-1.114201	-1.914046
H57	H	-0.525860	-0.967842	-1.839493
H58	H	-0.730795	-0.967907	-1.787998
H59	H	-0.420664	-1.090148	-1.641647
O60	O	-1.122715	-0.624748	-1.109681
C61	C	-1.278064	-0.503654	-1.211361
C62	C	-1.112973	-0.533035	-1.170996
H63	H	-1.270248	-0.429490	-1.260925
H64	H	-1.326626	-0.570453	-1.261074
H65	H	-1.359566	-0.489231	-1.141894
H66	H	-1.031352	-0.547441	-1.240399
H67	H	-1.064540	-0.466220	-1.121251
H68	H	-0.942928	-0.905777	-1.396580
H69	H	-0.577300	-0.383857	-1.118487
O70	O	-0.404173	-0.910230	-1.628599
C71	C	-0.143772	-0.946894	-1.563234
C72	C	-0.300686	-0.992678	-1.602579
H73	H	-0.060072	-1.013531	-1.542165
H74	H	-0.088920	-0.896636	-1.627412
H75	H	-0.166207	-0.896607	-1.490921
H76	H	-0.278385	-1.043013	-1.674873
H77	H	-0.355490	-1.042877	-1.538337
O78	O	-0.924814	-0.743046	-1.114488
C79	C	-0.963494	-0.929743	-1.126217
C80	C	-1.022804	-0.825335	-1.080270
H81	H	-1.042670	-0.996303	-1.098552
H82	H	-0.965972	-0.925552	-1.215455
H83	H	-0.837842	-0.944673	-1.098601
H84	H	-1.148471	-0.810340	-1.107806
H85	H	-1.020209	-0.829577	-0.991037
H86	H	-1.093179	-0.621732	-0.930254
