data_functionalizedCrystal
_audit_creation_method	'MofGen! by Chris Wilmer'
_symmetry_space_group_name_H-M	'P1'
_symmetry_Int_Tables_number	1
_symmetry_cell_setting	triclinic
loop_
_symmetry_equiv_pos_as_xyz
  x,y,z
_cell_length_a	16.959455
_cell_length_b	29.839131
_cell_length_c	16.959447
_cell_angle_alpha	89.966004
_cell_angle_beta	89.977004
_cell_angle_gamma	90.038440
loop_
_atom_site_label
_atom_site_type_symbol
_atom_site_fract_x
_atom_site_fract_y
_atom_site_fract_z
Zn1	Zn	1.208287	-0.178880	-0.447017
Zn2	Zn	1.708287	0.321120	0.052983
Zn3	Zn	1.208154	-0.254013	-0.314830
Zn4	Zn	1.708154	0.245987	0.185170
Zn5	Zn	1.076109	-0.178894	-0.314840
Zn6	Zn	1.576109	0.321106	0.185160
Zn7	Zn	1.076031	-0.253980	-0.446954
Zn8	Zn	1.576031	0.246020	0.053046
O9	O	1.142145	-0.216442	-0.380910
O10	O	1.642145	0.283558	0.119090
O11	O	1.318880	-0.188854	-0.429503
O12	O	1.818880	0.311146	0.070497
O13	O	1.190615	-0.244069	-0.204220
O14	O	1.690615	0.255931	0.295780
O15	O	1.093731	-0.116025	-0.332404
O16	O	1.593731	0.383975	0.167596
O17	O	1.318783	-0.244055	-0.332386
O18	O	1.818783	0.255945	0.167614
O19	O	1.190842	-0.116015	-0.429513
O20	O	1.690842	0.383985	0.070487
O21	O	1.093603	-0.188879	-0.204228
O22	O	1.593603	0.311121	0.295772
O23	O	0.965488	-0.188846	-0.332344
O24	O	1.465488	0.311154	0.167656
O25	O	1.093598	-0.243997	-0.557574
O26	O	1.593598	0.256003	-0.057574
O27	O	0.965430	-0.244011	-0.429407
O28	O	1.465430	0.255989	0.070593
O29	O	1.190766	-0.188822	-0.557619
O30	O	1.690766	0.311178	-0.057619
O31	O	1.190539	-0.316876	-0.332326
O32	O	1.690539	0.183124	0.167674
O33	O	1.093469	-0.316851	-0.429397
O34	O	1.593469	0.183149	0.070603
C35	C	0.936779	-0.216427	-0.380870
C36	C	1.436779	0.283573	0.119130
C37	C	0.848923	-0.216432	-0.380872
C38	C	1.348923	0.283568	0.119128
C39	C	0.477385	-0.245156	-0.330315
C40	C	0.977385	0.254844	0.169685
C41	C	0.477508	-0.187765	-0.431601
C42	C	0.977508	0.312235	0.068399
C43	C	0.560054	-0.187757	-0.431582
C44	C	1.060054	0.312243	0.068418
C45	C	0.601270	-0.216450	-0.380929
C46	C	1.101270	0.283550	0.119071
C47	C	0.559939	-0.245150	-0.330296
C48	C	1.059939	0.254850	0.169704
C49	C	0.601391	-0.159061	-0.482220
C50	C	1.101391	0.340939	0.017780
C51	C	0.683942	-0.159053	-0.482203
C52	C	1.183942	0.340947	0.017797
C53	C	0.725159	-0.187744	-0.431546
C54	C	1.225159	0.312256	0.068454
C55	C	0.683823	-0.216445	-0.380910
C56	C	1.183823	0.283555	0.119090
C57	C	0.725038	-0.245137	-0.330258
C58	C	1.225038	0.254863	0.169742
C59	C	0.683704	-0.273836	-0.279618
C60	C	1.183704	0.226164	0.220382
C61	C	0.601156	-0.273841	-0.279639
C62	C	1.101156	0.226159	0.220361
C63	C	0.807707	-0.187739	-0.431524
C64	C	1.307707	0.312261	0.068476
C65	C	0.807592	-0.245132	-0.330239
C66	C	1.307592	0.254868	0.169761
C67	C	1.142003	-0.333164	-0.380871
C68	C	1.642003	0.166836	0.119129
C69	C	1.142014	-0.383099	-0.380881
C70	C	1.642014	0.116901	0.119119
C71	C	1.192782	-0.692742	-0.330439
C72	C	1.692782	-0.192742	0.169561
C73	C	1.192879	-0.880415	-0.330470
C74	C	1.692879	-0.380415	0.169530
O75	O	1.235931	-0.904680	-0.287552
O76	O	1.735931	-0.404680	0.212448
N77	N	1.142309	-0.903884	-0.380970
N78	N	1.642309	-0.403884	0.119030
C79	C	1.091715	-0.880431	-0.431470
C80	C	1.591715	-0.380431	0.068530
O81	O	1.048710	-0.904699	-0.474429
O82	O	1.548710	-0.404699	0.025571
C83	C	1.091622	-0.692759	-0.431442
C84	C	1.591622	-0.192759	0.068558
C85	C	1.142190	-0.669293	-0.380933
C86	C	1.642190	-0.169293	0.119067
C87	C	1.243346	-0.669276	-0.279935
C88	C	1.743346	-0.169276	0.220065
C89	C	1.243318	-0.622361	-0.279924
C90	C	1.743318	-0.122361	0.220076
C91	C	1.192726	-0.598911	-0.330419
C92	C	1.692726	-0.098911	0.169581
C93	C	1.142162	-0.622377	-0.380923
C94	C	1.642162	-0.122377	0.119077
C95	C	1.041032	-0.669307	-0.481945
C96	C	1.541032	-0.169307	0.018055
C97	C	1.041015	-0.622386	-0.481935
C98	C	1.541015	-0.122386	0.018065
C99	C	1.091582	-0.598920	-0.431426
C100	C	1.591582	-0.098920	0.068574
C101	C	1.091541	-0.552013	-0.431407
C102	C	1.591541	-0.052013	0.068593
N103	N	1.142112	-0.528544	-0.380907
N104	N	1.642112	-0.028544	0.119093
C105	C	1.192704	-0.551994	-0.330413
C106	C	1.692704	-0.051994	0.169587
C107	C	1.091766	-0.978962	-0.431479
C108	C	1.591766	-0.478962	0.068521
C109	C	1.091788	-1.025879	-0.431485
C110	C	1.591788	-0.525879	0.068515
C111	C	1.192954	-1.025860	-0.330486
C112	C	1.692954	-0.525860	0.169514
C113	C	1.192927	-0.978942	-0.330477
C114	C	1.692927	-0.478942	0.169523
C115	C	1.142336	-0.955493	-0.380979
C116	C	1.642336	-0.455493	0.119021
C117	C	1.192641	-0.453468	-0.330394
C118	C	1.692641	0.046532	0.169606
C119	C	1.192606	-0.406548	-0.330386
C120	C	1.692606	0.093452	0.169614
C121	C	1.091444	-0.406571	-0.431388
C122	C	1.591444	0.093429	0.068612
C123	C	1.091475	-0.453487	-0.431394
C124	C	1.591475	0.046513	0.068606
C125	C	1.142080	-0.476934	-0.380894
C126	C	1.642080	0.023066	0.119106
O127	O	1.048519	-0.527719	-0.474308
O128	O	1.548519	-0.027719	0.025692
O129	O	1.235715	-0.527718	-0.287471
O130	O	1.735715	-0.027718	0.212529
C131	C	1.192810	-0.739658	-0.330449
C132	C	1.692810	-0.239658	0.169551
C133	C	1.142245	-0.763124	-0.380954
C134	C	1.642245	-0.263124	0.119046
C135	C	1.091653	-0.739674	-0.431448
C136	C	1.591653	-0.239674	0.068552
C137	C	1.142268	-0.810042	-0.380959
C138	C	1.642268	-0.310042	0.119041
C139	C	1.192860	-0.833491	-0.330465
C140	C	1.692860	-0.333491	0.169535
C141	C	1.243430	-0.810023	-0.279965
C142	C	1.743430	-0.310023	0.220035
C143	C	1.243402	-0.763107	-0.279955
C144	C	1.743402	-0.263107	0.220045
C145	C	1.041083	-0.763143	-0.481948
C146	C	1.541083	-0.263143	0.018052
C147	C	1.041115	-0.810058	-0.481953
C148	C	1.541115	-0.310058	0.018047
C149	C	1.091707	-0.833508	-0.431459
C150	C	1.591707	-0.333508	0.068541
C151	C	1.348314	-0.216457	-0.380951
C152	C	1.848314	0.283543	0.119049
C153	C	1.436170	-0.216463	-0.380968
C154	C	1.936170	0.283537	0.119032
C155	C	1.142188	-0.216404	-0.587078
C156	C	1.642188	0.283596	-0.087078
C157	C	1.142206	-0.216388	-0.674935
C158	C	1.642206	0.283612	-0.174935
C159	C	1.142310	-0.099263	-0.380967
C160	C	1.642310	0.400737	0.119033
C161	C	1.142380	-0.049329	-0.380991
C162	C	1.642380	0.450671	0.119009
C163	C	1.091765	-0.187606	-1.046421
C164	C	1.591765	0.312394	-0.546421
C165	C	1.192785	-0.245076	-1.046401
C166	C	1.692785	0.254924	-0.546401
C167	C	1.192772	-0.245086	-0.963855
C168	C	1.692772	0.254914	-0.463855
C169	C	1.142253	-0.216357	-0.922588
C170	C	1.642253	0.283643	-0.422588
C171	C	1.091748	-0.187617	-0.963868
C172	C	1.591748	0.312383	-0.463868
C173	C	1.243270	-0.273829	-0.922569
C174	C	1.743270	0.226171	-0.422569
C175	C	1.243258	-0.273841	-0.840018
C176	C	1.743258	0.226159	-0.340018
C177	C	1.192743	-0.245109	-0.798750
C178	C	1.692743	0.254891	-0.298750
C179	C	1.142236	-0.216367	-0.840035
C180	C	1.642236	0.283633	-0.340035
C181	C	1.091718	-0.187638	-0.798768
C182	C	1.591718	0.312362	-0.298768
C183	C	1.041215	-0.158894	-0.840051
C184	C	1.541215	0.341106	-0.340051
C185	C	1.041233	-0.158885	-0.922600
C186	C	1.541233	0.341115	-0.422600
C187	C	1.192724	-0.245118	-0.716202
C188	C	1.692724	0.254882	-0.216202
C189	C	1.091701	-0.187648	-0.716214
C190	C	1.591701	0.312352	-0.216214
C191	C	1.142149	-0.216446	-0.175544
C192	C	1.642149	0.283554	0.324456
C193	C	1.142284	-0.216336	-0.087688
C194	C	1.642284	0.283664	0.412312
H195	H	0.841144	-0.268496	-0.288988
H196	H	1.341144	0.231504	0.211012
H197	H	1.050566	-0.164251	-0.682621
H198	H	1.550566	0.335749	-0.182621
Br199	Br	0.740031	-0.120105	-0.550928
Br200	Br	1.240031	0.379895	-0.050928
H201	H	1.050249	-0.387471	-0.472498
H202	H	1.550249	0.112529	0.027502
Br203	Br	1.023099	-0.947145	-0.500025
Br204	Br	1.523099	-0.447145	-0.000025
Br205	Br	1.311816	-0.312823	-0.978576
Br206	Br	1.811816	0.187177	-0.478576
Br207	Br	0.863801	-0.148797	-0.500250
Br208	Br	1.363801	0.351203	-0.000250
H209	H	1.284379	-0.297247	-0.806413
H210	H	1.784379	0.202753	-0.306413
H211	H	0.443728	-0.268521	-0.289083
H212	H	0.943728	0.231479	0.210917
Br213	Br	0.972416	-0.731326	-0.550484
Br214	Br	1.472416	-0.231326	-0.050484
H215	H	0.567494	-0.297206	-0.238410
H216	H	1.067494	0.202794	0.261590
H217	H	1.000080	-0.135504	-0.806441
H218	H	1.500080	0.364496	-0.306441
Br219	Br	1.261237	-0.374704	-0.261832
Br220	Br	1.761237	0.125296	0.238168
Br221	Br	0.972478	-0.841899	-0.550506
Br222	Br	1.472478	-0.341899	-0.050506
H223	H	1.000116	-0.135483	-0.956220
H224	H	1.500116	0.364517	-0.456220
H225	H	1.050649	-0.164202	-1.080037
H226	H	1.550649	0.335798	-0.580037
H227	H	1.233909	-0.268469	-1.080005
H228	H	1.733909	0.231531	-0.580005
H229	H	1.284579	-0.744004	-0.238826
H230	H	1.784579	-0.244004	0.261174
Br231	Br	1.311961	-0.590521	-0.211384
Br232	Br	1.811961	-0.090521	0.288616
H233	H	1.233848	-0.268518	-0.682593
H234	H	1.733848	0.231482	-0.182593
H235	H	1.234104	-0.959839	-0.289348
H236	H	1.734104	-0.459839	0.210652
Br237	Br	0.739649	-0.312780	-0.210886
Br238	Br	1.239649	0.187220	0.289114
Br239	Br	1.022828	-0.485334	-0.499923
Br240	Br	1.522828	0.014666	0.000077
Br241	Br	0.545453	-0.120131	-0.550971
Br242	Br	1.045453	0.379869	-0.050971
Br243	Br	0.421573	-0.148833	-0.500351
Br244	Br	0.921573	0.351167	-0.000351
H245	H	1.233850	-0.472553	-0.289275
H246	H	1.733850	0.027447	0.210725
Br247	Br	1.312018	-0.701092	-0.211399
Br248	Br	1.812018	-0.201092	0.288601
H249	H	1.234149	-1.044961	-0.289372
H250	H	1.734149	-0.544961	0.210628
H251	H	1.050603	-1.044981	-0.472607
H252	H	1.550603	-0.544981	0.027393
Br253	Br	0.972354	-0.590566	-0.550481
Br254	Br	1.472354	-0.090566	-0.050481
Br255	Br	1.312087	-0.841856	-0.211435
Br256	Br	1.812087	-0.341856	0.288565
H257	H	0.999850	-0.688405	-0.523072
H258	H	1.499850	-0.188405	-0.023072
