data_functionalizedCrystal
_audit_creation_method	'MofGen! by Chris Wilmer'
_symmetry_space_group_name_H-M	'P1'
_symmetry_Int_Tables_number	1
_symmetry_cell_setting	triclinic
loop_
_symmetry_equiv_pos_as_xyz
  x,y,z
_cell_length_a	21.395362
_cell_length_b	12.827892
_cell_length_c	21.395355
_cell_angle_alpha	89.986862
_cell_angle_beta	89.956060
_cell_angle_gamma	90.031272
loop_
_atom_site_label
_atom_site_type_symbol
_atom_site_fract_x
_atom_site_fract_y
_atom_site_fract_z
Zn1	Zn	0.957926	-0.415711	-0.354609
Zn2	Zn	0.957857	-0.590438	-0.249841
Zn3	Zn	0.853141	-0.415760	-0.249810
Zn4	Zn	0.853138	-0.590459	-0.354546
O5	O	0.905516	-0.503092	-0.302202
O6	O	1.045595	-0.438860	-0.340751
O7	O	0.943938	-0.567278	-0.162159
O8	O	0.867071	-0.269517	-0.263725
O9	O	1.045544	-0.567231	-0.263778
O10	O	0.944056	-0.269482	-0.340721
O11	O	0.867004	-0.438943	-0.162137
O12	O	0.765463	-0.438963	-0.263664
O13	O	0.867067	-0.567267	-0.442232
O14	O	0.765461	-0.567314	-0.340613
O15	O	0.944054	-0.438881	-0.442279
O16	O	0.943935	-0.736677	-0.263717
O17	O	0.866999	-0.736692	-0.340643
C18	C	0.742728	-0.503147	-0.302129
C19	C	0.673087	-0.503196	-0.302113
C20	C	0.640389	-0.570117	-0.342120
C21	C	0.574953	-0.570091	-0.342148
C22	C	0.542218	-0.503156	-0.302157
C23	C	0.574924	-0.436222	-0.262147
C24	C	0.640358	-0.436242	-0.262125
C25	C	0.438492	-0.494737	-0.245752
C26	C	0.373059	-0.494724	-0.245773
C27	C	0.340398	-0.503088	-0.302227
C28	C	0.373177	-0.511486	-0.358661
C29	C	0.438611	-0.511506	-0.358638
C30	C	0.471266	-0.503126	-0.302177
C31	C	0.236747	-0.569984	-0.342268
C32	C	0.171311	-0.569951	-0.342297
C33	C	0.171283	-0.436087	-0.262290
C34	C	0.236718	-0.436115	-0.262267
C35	C	0.269446	-0.503069	-0.302255
C36	C	0.905476	-0.774602	-0.302191
C37	C	0.905517	-0.890755	-0.302207
C38	C	0.943633	-0.942497	-0.264184
C39	C	0.943675	-1.062548	-0.264200
C40	C	1.068939	-0.503037	-0.302275
C41	C	1.138580	-0.503014	-0.302306
C42	C	0.905568	-0.503071	-0.465625
C43	C	0.905590	-0.503062	-0.535266
C44	C	0.905572	-0.230522	-0.302227
C45	C	0.905596	-0.114369	-0.302237
C46	C	0.945675	-0.436208	-0.568005
C47	C	0.945674	-0.436163	-0.633440
C48	C	0.905595	-0.502991	-0.666135
C49	C	0.865501	-0.569849	-0.633389
C50	C	0.865499	-0.569885	-0.567954
C51	C	0.900634	-0.597087	-0.769804
C52	C	0.900641	-0.597053	-0.835237
C53	C	0.905598	-0.502880	-0.867956
C54	C	0.910563	-0.408738	-0.835233
C55	C	0.910560	-0.408774	-0.769799
C56	C	0.905592	-0.502959	-0.737087
C57	C	0.945685	-0.435972	-0.971646
C58	C	0.945680	-0.435925	-1.037083
C59	C	0.865510	-0.569621	-1.037030
C60	C	0.865512	-0.569658	-0.971595
C61	C	0.905603	-0.502835	-0.938907
C62	C	0.905500	-0.503038	-0.139414
C63	C	0.905599	-0.502752	-0.069773
H64	H	0.465297	-0.518341	-0.404589
O65	O	0.672083	-0.635181	-0.381026
C66	C	0.665202	-0.768000	-0.460352
C67	C	0.629229	-0.694354	-0.416333
H68	H	0.630571	-0.815876	-0.488900
H69	H	0.695876	-0.720164	-0.493196
H70	H	0.695799	-0.822534	-0.431510
H71	H	0.598598	-0.639804	-0.445125
H72	H	0.598595	-0.742254	-0.383487
H73	H	0.976236	-0.897922	-0.231621
H74	H	0.666980	-0.381744	-0.229546
H75	H	0.976306	-1.107045	-0.231645
O76	O	0.915266	-0.317288	-0.738041
C77	C	0.870107	-0.148517	-0.718002
C78	C	0.864698	-0.252086	-0.753995
H79	H	0.829237	-0.095764	-0.730898
H80	H	0.869215	-0.164656	-0.665608
H81	H	0.915908	-0.108430	-0.730888
H82	H	0.818903	-0.292226	-0.741162
H83	H	0.865626	-0.235880	-0.806380
O84	O	0.543198	-0.371254	-0.223211
C85	C	0.523060	-0.320301	-0.116689
C86	C	0.559036	-0.393933	-0.160714
H87	H	0.535841	-0.338625	-0.066150
H88	H	0.535985	-0.236051	-0.127722
H89	H	0.470678	-0.331764	-0.123606
H90	H	0.611426	-0.382563	-0.153821
H91	H	0.546058	-0.478156	-0.149669
H92	H	0.872959	-1.069879	-0.334790
H93	H	0.978320	-0.381794	-0.541394
H94	H	0.872919	-0.935333	-0.334774
O95	O	0.984676	-0.371189	-0.665154
C96	C	1.064175	-0.238559	-0.658306
C97	C	1.020048	-0.312104	-0.622315
H98	H	1.092776	-0.190754	-0.623686
H99	H	1.096966	-0.286469	-0.688948
H100	H	1.035415	-0.183953	-0.688935
H101	H	1.048758	-0.366724	-0.591651
H102	H	0.987256	-0.264128	-0.591711
O103	O	0.341196	-0.486764	-0.190960
C104	C	0.267191	-0.566473	-0.120694
C105	C	0.303243	-0.575626	-0.182781
H106	H	0.236487	-0.638296	-0.114068
H107	H	0.301749	-0.560553	-0.080317
H108	H	0.236612	-0.493744	-0.121754
H109	H	0.333823	-0.648352	-0.181782
H110	H	0.268651	-0.581487	-0.223131
O111	O	0.915257	-0.317255	-0.867031
C112	C	0.867361	-0.200136	-0.940874
C113	C	0.861961	-0.303752	-0.904892
H114	H	0.824283	-0.189196	-0.971504
H115	H	0.870865	-0.132822	-0.906271
H116	H	0.910962	-0.201718	-0.971521
H117	H	0.818362	-0.302272	-0.874245
H118	H	0.858491	-0.371022	-0.939529
O119	O	0.984642	-0.370957	-0.939986
C120	C	1.064182	-0.238387	-0.946942
C121	C	1.020086	-0.311947	-0.982873
H122	H	1.092859	-0.190674	-0.981601
H123	H	1.035456	-0.183705	-0.916298
H124	H	1.096907	-0.286388	-0.916320
H125	H	0.987351	-0.264030	-1.013530
H126	H	1.048850	-0.366632	-1.013478
H127	H	0.978321	-0.381479	-1.063737
O128	O	0.826640	-0.634512	-1.068879
C129	C	0.791096	-0.693681	-1.169661
C130	C	0.835158	-0.620152	-1.133667
H131	H	0.797958	-0.682081	-1.222048
H132	H	0.802088	-0.777968	-1.156852
H133	H	0.740582	-0.675377	-1.156722
H134	H	0.885686	-0.638362	-1.146586
H135	H	0.824111	-0.535888	-1.146479
H136	H	0.832854	-0.624324	-0.541299
H137	H	0.346585	-0.518294	-0.404631
H138	H	0.832874	-0.624104	-0.944939
H139	H	0.465080	-0.487922	-0.199777
H140	H	0.263396	-0.624497	-0.374831
O141	O	0.895888	-0.688540	-0.737979
C142	C	0.943758	-0.805815	-0.664206
C143	C	0.949216	-0.702201	-0.700182
H144	H	0.986873	-0.816904	-0.633649
H145	H	0.900193	-0.804261	-0.633507
H146	H	0.940182	-0.873030	-0.698870
H147	H	0.952817	-0.634930	-0.665563
H148	H	0.992773	-0.703845	-0.730890
O149	O	0.895787	-0.688586	-0.866923
C150	C	0.885972	-0.875376	-0.860020
C151	C	0.891451	-0.771786	-0.824060
H152	H	0.882478	-0.942672	-0.825380
H153	H	0.842374	-0.873818	-0.890607
H154	H	0.929056	-0.886328	-0.890702
H155	H	0.848400	-0.760768	-0.793343
H156	H	0.935074	-0.773392	-0.793512
O157	O	0.826480	-0.634656	-0.665118
C158	C	0.719895	-0.685451	-0.685039
C159	C	0.764019	-0.611978	-0.649080
H160	H	0.669387	-0.667156	-0.672076
H161	H	0.726730	-0.673941	-0.737438
H162	H	0.730912	-0.769711	-0.672192
H163	H	0.753030	-0.527690	-0.661874
H164	H	0.757176	-0.623578	-0.596689
O165	O	0.139643	-0.635062	-0.381181
C166	C	0.146579	-0.767812	-0.460547
C167	C	0.182521	-0.694143	-0.416533
H168	H	0.181231	-0.815582	-0.489150
H169	H	0.115904	-0.822436	-0.431762
H170	H	0.115986	-0.719895	-0.493346
H171	H	0.213148	-0.741976	-0.383726
H172	H	0.213157	-0.639516	-0.445357
O173	O	0.543116	-0.635157	-0.380926
C174	C	0.469218	-0.776291	-0.389225
C175	C	0.505219	-0.702654	-0.345239
H176	H	0.438579	-0.830896	-0.360390
H177	H	0.438597	-0.728449	-0.422039
H178	H	0.503865	-0.824094	-0.417814
H179	H	0.470616	-0.654836	-0.316610
H180	H	0.535849	-0.750556	-0.312467
H181	H	0.144630	-0.381582	-0.229732
O182	O	0.268387	-0.371081	-0.223340
C183	C	0.261452	-0.238261	-0.144016
C184	C	0.225509	-0.311882	-0.188059
H185	H	0.226801	-0.190363	-0.115489
H186	H	0.292012	-0.286117	-0.111153
H187	H	0.292160	-0.183745	-0.172838
H188	H	0.194768	-0.366413	-0.159287
H189	H	0.194989	-0.263961	-0.220923
