data_functionalizedCrystal
_audit_creation_method	'MofGen! by Chris Wilmer'
_symmetry_space_group_name_H-M	'P1'
_symmetry_Int_Tables_number	1
_symmetry_cell_setting	triclinic
loop_
_symmetry_equiv_pos_as_xyz
  x,y,z
_cell_length_a	14.908571
_cell_length_b	25.639239
_cell_length_c	14.909227
_cell_angle_alpha	86.672199
_cell_angle_beta	83.209827
_cell_angle_gamma	86.734636
loop_
_atom_site_label
_atom_site_type_symbol
_atom_site_fract_x
_atom_site_fract_y
_atom_site_fract_z
Zn1	Zn	1.413241	-0.235693	-0.591490
Zn2	Zn	1.404349	-0.327899	-0.440108
Zn3	Zn	1.253134	-0.235705	-0.431421
Zn4	Zn	1.261794	-0.318320	-0.582711
O5	O	1.333129	-0.279404	-0.511432
O6	O	1.538726	-0.251928	-0.578718
O7	O	1.376945	-0.319682	-0.312286
O8	O	1.274470	-0.162540	-0.452693
O9	O	1.532193	-0.319671	-0.467498
O10	O	1.392099	-0.162531	-0.570295
O11	O	1.265848	-0.251948	-0.305903
O12	O	1.127618	-0.242660	-0.444180
O13	O	1.289229	-0.303346	-0.710545
O14	O	1.133980	-0.303358	-0.555333
O15	O	1.400496	-0.242640	-0.716995
O16	O	1.385341	-0.399791	-0.458986
O17	O	1.280607	-0.392754	-0.563756
C18	C	1.097956	-0.271971	-0.497862
C19	C	0.997349	-0.268803	-0.492078
C20	C	0.814962	-0.326163	-0.596796
C21	C	0.720433	-0.323188	-0.591365
C22	C	0.713761	-0.259876	-0.475788
C23	C	0.808290	-0.262851	-0.481220
C24	C	0.858887	-0.295996	-0.541725
C25	C	0.953418	-0.298974	-0.547151
C26	C	0.946744	-0.235659	-0.431580
C27	C	0.852215	-0.232684	-0.426149
C28	C	1.332975	-0.415243	-0.511382
C29	C	1.332993	-0.473358	-0.511396
C30	C	1.387821	-0.837377	-0.456986
C31	C	1.387857	-0.891982	-0.457000
O32	O	1.434314	-0.923324	-0.410684
N33	N	1.333292	-0.915646	-0.511501
C34	C	1.278694	-0.884702	-0.565999
O35	O	1.232286	-0.909845	-0.612359
C36	C	1.278664	-0.830098	-0.565989
C37	C	1.333226	-0.806437	-0.511477
C38	C	1.442380	-0.813716	-0.402479
C39	C	1.442342	-0.759114	-0.402464
C40	C	1.387747	-0.728175	-0.456955
C41	C	1.333188	-0.751836	-0.511462
C42	C	1.224071	-0.799156	-0.620491
C43	C	1.224046	-0.744548	-0.620477
C44	C	1.278608	-0.720887	-0.565965
C45	C	1.278556	-0.666295	-0.565939
N46	N	1.333121	-0.642631	-0.511437
C47	C	1.387717	-0.673571	-0.456945
C48	C	1.278763	-0.999375	-0.566017
C49	C	1.278788	-1.053978	-0.566023
C50	C	1.387952	-1.061254	-0.457025
C51	C	1.387922	-1.006650	-0.457015
C52	C	1.333328	-0.975711	-0.511516
C53	C	1.387634	-0.558904	-0.456917
C54	C	1.387589	-0.504297	-0.456904
C55	C	1.278428	-0.497026	-0.565905
C56	C	1.278469	-0.551628	-0.565915
C57	C	1.333079	-0.582566	-0.511419
O58	O	1.232126	-0.634920	-0.612233
O59	O	1.434126	-0.648421	-0.410602
C60	C	1.569221	-0.286866	-0.525056
C61	C	1.669829	-0.290046	-0.530862
C62	C	1.346820	-0.271924	-0.747532
C63	C	1.352654	-0.268736	-0.848144
C64	C	1.333310	-0.143035	-0.511504
C65	C	1.333387	-0.084922	-0.511534
C66	C	1.418802	-0.232640	-0.993311
C67	C	1.413325	-0.235633	-0.898777
C68	C	1.297459	-0.298848	-0.892051
C69	C	1.302936	-0.295855	-0.986584
C70	C	1.363608	-0.262749	-1.037211
C71	C	1.369080	-0.259753	-1.131746
C72	C	1.253220	-0.322971	-1.125018
C73	C	1.247743	-0.325964	-1.030485
C74	C	1.319544	-0.286820	-0.276254
C75	C	1.313885	-0.289866	-0.175653
H76	H	1.432019	-0.485035	-0.412511
O77	O	0.803012	-0.200564	-0.367281
C78	C	0.689129	-0.193932	-0.238999
C79	C	0.744804	-0.230368	-0.305594
H80	H	0.642041	-0.218012	-0.189121
H81	H	0.736717	-0.172891	-0.200500
H82	H	0.647367	-0.163908	-0.278124
H83	H	0.786572	-0.260421	-0.266539
H84	H	0.697168	-0.251370	-0.344094
O85	O	1.427938	-0.227606	-1.181062
C86	C	1.487768	-0.195000	-1.329677
C87	C	1.421054	-0.231419	-1.273940
H88	H	1.482239	-0.198079	-1.404780
H89	H	1.470856	-0.152914	-1.310262
H90	H	1.559652	-0.207074	-1.315245
H91	H	1.349147	-0.219392	-1.288342
H92	H	1.438044	-0.273496	-1.293363
O93	O	0.989508	-0.206429	-0.378040
C94	C	1.089069	-0.206524	-0.261932
C95	C	1.040711	-0.239686	-0.322530
H96	H	1.130464	-0.233399	-0.217024
H97	H	1.135836	-0.179307	-0.306067
H98	H	1.036648	-0.182312	-0.217799
H99	H	1.093068	-0.263929	-0.366673
H100	H	0.993928	-0.266869	-0.278342
O101	O	1.440701	-0.588874	-0.403893
C102	C	1.549002	-0.590313	-0.295811
C103	C	1.488938	-0.556310	-0.355806
H104	H	1.588031	-0.564000	-0.256932
H105	H	1.504795	-0.616091	-0.245996
H106	H	1.598695	-0.616028	-0.340147
H107	H	1.439236	-0.530565	-0.311543
H108	H	1.533201	-0.530567	-0.405627
H109	H	1.486774	-0.739853	-0.358078
O110	O	1.477807	-0.200471	-1.042359
C111	C	1.592101	-0.138054	-1.039055
C112	C	1.525333	-0.174474	-0.983401
H113	H	1.630530	-0.117018	-0.991410
H114	H	1.642026	-0.162127	-1.086012
H115	H	1.553125	-0.108026	-1.080951
H116	H	1.564234	-0.204510	-0.941450
H117	H	1.475409	-0.150367	-0.936500
O118	O	1.225358	-0.574639	-0.618726
C119	C	1.103921	-0.632143	-0.623788
C120	C	1.163985	-0.606115	-0.563863
H121	H	1.054299	-0.657606	-0.579457
H122	H	1.064825	-0.600668	-0.662707
H123	H	1.148224	-0.657454	-0.673580
H124	H	1.119749	-0.580807	-0.514021
H125	H	1.203088	-0.637616	-0.525008
H126	H	1.486843	-0.838902	-0.358105
H127	H	0.672548	-0.232887	-0.426534
H128	H	1.432352	-0.987388	-0.412627
H129	H	0.994613	-0.325963	-0.596416
H130	H	1.458269	-0.211115	-0.863037
H131	H	1.233974	-0.471827	-0.610269
O132	O	1.441019	-1.091237	-0.404012
C133	C	1.549341	-1.092706	-0.295947
C134	C	1.489276	-1.058687	-0.355919
H135	H	1.588387	-1.066404	-0.257063
H136	H	1.505132	-1.118486	-0.246136
H137	H	1.599020	-1.118420	-0.340301
H138	H	1.439589	-1.032943	-0.311638
H139	H	1.533541	-1.032942	-0.405736
O140	O	1.225755	-1.076875	-0.619052
C141	C	1.117436	-1.063880	-0.727121
C142	C	1.177465	-1.037884	-0.667118
H143	H	1.078364	-1.032368	-0.765983
H144	H	1.161674	-1.089199	-0.776951
H145	H	1.067780	-1.089323	-0.682793
H146	H	1.227129	-1.012416	-0.711374
H147	H	1.133170	-1.012596	-0.617282
H148	H	1.234298	-0.974186	-0.610395
O149	O	1.171048	-0.822047	-0.673532
C150	C	1.062747	-0.809044	-0.781617
C151	C	1.122770	-0.783053	-0.721602
H152	H	1.023683	-0.777529	-0.820483
H153	H	1.106988	-0.834363	-0.831444
H154	H	1.013083	-0.834486	-0.737297
H155	H	1.172442	-0.757585	-0.765849
H156	H	1.078472	-0.757765	-0.671769
H157	H	1.198348	-0.352919	-0.989252
H158	H	1.248069	-0.325805	-0.850815
O159	O	1.171146	-0.714471	-0.673523
C160	C	1.165916	-0.648522	-0.794967
C161	C	1.225932	-0.682560	-0.734973
H162	H	1.210184	-0.622705	-0.844651
H163	H	1.126948	-0.674790	-0.833994
H164	H	1.116170	-0.622843	-0.750618
H165	H	1.275729	-0.708243	-0.779256
H166	H	1.264836	-0.656262	-0.695939
O167	O	1.199738	-0.352286	-1.167706
C168	C	1.193657	-0.419095	-1.273720
C169	C	1.254329	-0.385939	-1.225427
H170	H	1.237769	-0.446304	-1.320412
H171	H	1.149379	-0.443307	-1.221329
H172	H	1.148896	-0.392190	-1.315218
H173	H	1.299145	-0.412806	-1.183930
H174	H	1.298546	-0.361722	-1.277862
O175	O	0.864086	-0.358299	-0.655691
C176	C	0.901914	-0.379872	-0.811242
C177	C	0.846249	-0.343433	-0.744645
H178	H	0.887498	-0.367873	-0.883174
H179	H	0.977036	-0.376811	-0.805743
H180	H	0.882368	-0.421937	-0.794097
H181	H	0.865717	-0.301353	-0.761746
H182	H	0.771139	-0.346539	-0.750157
O183	O	0.677728	-0.352414	-0.644953
C184	C	0.578066	-0.352323	-0.760971
C185	C	0.626394	-0.319162	-0.700348
H186	H	0.536536	-0.325454	-0.805760
H187	H	0.630433	-0.376510	-0.805212
H188	H	0.531401	-0.379564	-0.716768
H189	H	0.673057	-0.291892	-0.744481
H190	H	0.573979	-0.295010	-0.656102
