data_functionalizedCrystal
_audit_creation_method	'MofGen! by Chris Wilmer'
_symmetry_space_group_name_H-M	'P1'
_symmetry_Int_Tables_number	1
_symmetry_cell_setting	triclinic
loop_
_symmetry_equiv_pos_as_xyz
  x,y,z
_cell_length_a	19.121063
_cell_length_b	18.215407
_cell_length_c	18.215399
_cell_angle_alpha	89.980167
_cell_angle_beta	87.590157
_cell_angle_gamma	87.530554
loop_
_atom_site_label
_atom_site_type_symbol
_atom_site_fract_x
_atom_site_fract_y
_atom_site_fract_z
Zn1	Zn	-0.279613	-1.112559	0.428596
Zn2	Zn	-0.397068	-1.107212	0.310772
Zn3	Zn	-0.279636	-0.989491	0.305544
Zn4	Zn	-0.397029	-0.984203	0.433795
O5	O	-0.338336	-1.048366	0.369677
O6	O	-0.295200	-1.214834	0.412978
O7	O	-0.381516	-1.091570	0.207095
O8	O	-0.181348	-1.010267	0.317504
O9	O	-0.381494	-1.210905	0.326414
O10	O	-0.181331	-1.100685	0.407909
O11	O	-0.295240	-1.005081	0.203255
O12	O	-0.295202	-0.885805	0.322545
O13	O	-0.381427	-1.001255	0.536089
O14	O	-0.381450	-0.881921	0.416771
O15	O	-0.295162	-1.095558	0.532269
O16	O	-0.495348	-1.086443	0.331455
O17	O	-0.495319	-0.996070	0.421840
C18	C	-0.338324	-0.857160	0.369655
C19	C	-0.338336	-0.775361	0.369664
C20	C	-0.520817	-1.040122	0.377795
C21	C	-0.598883	-1.036663	0.381293
C22	C	-0.338288	-1.048413	0.561628
C23	C	-0.338267	-1.048433	0.643426
C24	C	-0.635551	-1.082127	0.335916
C25	C	-0.708902	-1.078878	0.339210
C26	C	-0.745585	-1.030161	0.387877
C27	C	-0.708912	-0.984695	0.433258
C28	C	-0.635562	-0.987948	0.429968
C29	C	-0.967055	-1.017985	0.400168
C30	C	-1.040410	-1.014733	0.403454
C31	C	-1.040394	-1.108918	0.309406
C32	C	-0.967043	-1.112164	0.306117
C33	C	-0.930377	-1.066701	0.351501
C34	C	-0.820561	-1.026837	0.391243
C35	C	-0.855401	-1.070029	0.348138
C36	C	-0.155143	-1.056662	0.361543
C37	C	-0.077077	-1.060197	0.358077
C38	C	-0.338349	-1.240319	0.369699
C39	C	-0.338354	-1.322117	0.369709
C40	C	-0.383316	-0.585160	0.418671
C41	C	-0.383318	-0.508302	0.418681
C42	C	-0.293369	-0.512323	0.320699
C43	C	-0.293364	-0.589181	0.320694
C44	C	-0.338342	-0.625597	0.369679
C45	C	-0.338349	-0.471881	0.369694
C46	C	-0.338351	-0.388547	0.369703
C47	C	-0.338339	-0.708936	0.369671
C48	C	-0.338334	-1.048364	0.178471
C49	C	-0.338157	-1.048495	0.096664
C50	C	-0.293307	-1.097555	0.829630
C51	C	-0.293287	-1.097565	0.906488
C52	C	-0.383119	-0.999368	0.910455
C53	C	-0.383135	-0.999355	0.833598
C54	C	-0.338231	-1.048453	0.793188
C55	C	-0.338194	-1.048476	0.946902
C56	C	-0.338172	-1.048486	1.030235
C57	C	-0.338251	-1.048442	0.709850
H58	H	-0.738753	-1.115899	0.302259
O59	O	-0.431904	-0.464726	0.471480
H60	H	-0.419988	-0.480038	0.528742
H61	H	-0.256736	-0.622106	0.280798
O62	O	-0.431807	-0.624443	0.471520
H63	H	-0.467507	-0.657837	0.440119
O64	O	-0.244870	-1.150506	0.786048
H65	H	-0.276314	-1.186527	0.752440
H66	H	-0.937177	-1.151834	0.266488
H67	H	-0.738785	-0.945031	0.472887
H68	H	-0.937207	-0.980966	0.437120
O69	O	-0.431591	-0.946388	0.794290
H70	H	-0.424050	-0.954623	0.734057
H71	H	-0.825532	-1.109698	0.308516
H72	H	-0.256705	-1.137548	0.936156
H73	H	-0.256752	-0.482664	0.280816
O74	O	-0.431550	-0.946414	0.954041
H75	H	-0.467282	-0.977738	0.990645
O76	O	-0.595984	-1.134679	0.283433
H77	H	-0.610110	-1.121476	0.226294
O78	O	-1.079939	-1.157973	0.260479
H79	H	-1.137107	-1.147539	0.270950
H80	H	-0.605708	-0.950927	0.466919
H81	H	-1.070275	-0.975071	0.443097
H82	H	-0.850437	-0.987169	0.430866
