data_functionalizedCrystal
_audit_creation_method	'MofGen! by Chris Wilmer'
_symmetry_space_group_name_H-M	'P1'
_symmetry_Int_Tables_number	1
_symmetry_cell_setting	triclinic
loop_
_symmetry_equiv_pos_as_xyz
  x,y,z
_cell_length_a	27.731988
_cell_length_b	10.654550
_cell_length_c	9.730223
_cell_angle_alpha	90.004929
_cell_angle_beta	90.011424
_cell_angle_gamma	96.448354
loop_
_atom_site_label
_atom_site_type_symbol
_atom_site_fract_x
_atom_site_fract_y
_atom_site_fract_z
O1	O	-0.641872	0.149061	0.113909
O2	O	-0.501216	0.171858	0.113995
O3	O	-0.574778	-0.022417	0.113941
O4	O	-0.568310	0.343337	0.113963
O5	O	-0.574777	-0.022426	-0.114639
O6	O	-0.501215	0.171850	-0.114585
O7	O	-0.641871	0.149053	-0.114671
Zn8	Zn	-0.571543	0.160450	-0.150920
Zn9	Zn	-0.571544	0.160461	0.150244
O10	O	-0.568309	0.343328	-0.114617
C11	C	-0.483205	0.171387	-0.000284
C12	C	-0.429540	0.169981	-0.000251
C13	C	-0.046316	0.159793	0.124287
C14	C	-0.248007	0.165153	0.124321
O15	O	-0.274085	0.165799	0.230290
N16	N	-0.273231	0.165819	-0.000275
C17	C	-0.248030	0.165136	-0.124889
O18	O	-0.274113	0.165813	-0.230866
C19	C	-0.046340	0.159767	-0.124922
C20	C	-0.021118	0.159114	-0.000317
C21	C	-0.021094	0.159138	0.248881
C22	C	0.029327	0.157805	0.248872
C23	C	0.054525	0.157126	0.124267
C24	C	0.029302	0.157781	-0.000327
C25	C	-0.021140	0.159075	-0.249534
C26	C	0.029286	0.157730	-0.249532
C27	C	0.054508	0.157077	-0.124927
C28	C	0.104920	0.155769	-0.124941
N29	N	0.130145	0.155103	-0.000345
C30	C	0.104947	0.155782	0.124260
C31	C	-0.353920	0.167958	-0.124863
C32	C	-0.404342	0.169302	-0.124856
C33	C	-0.404316	0.169316	0.124355
C34	C	-0.353892	0.167981	0.124346
C35	C	-0.328696	0.167292	-0.000267
C36	C	0.210833	0.152983	0.124230
C37	C	0.261257	0.151655	0.124209
C38	C	0.261227	0.151635	-0.125001
C39	C	0.210806	0.152969	-0.124981
C40	C	0.185610	0.153639	-0.000355
O41	O	0.131028	0.155107	-0.230854
O42	O	0.131037	0.155077	0.230220
C43	C	-0.096736	0.161126	0.124297
C44	C	-0.121958	0.161780	-0.000298
C45	C	-0.096760	0.161101	-0.124902
C46	C	-0.172380	0.163125	-0.000290
C47	C	-0.197578	0.163803	0.124314
C48	C	-0.172354	0.163137	0.248911
C49	C	-0.121934	0.161804	0.248901
C50	C	-0.121984	0.161767	-0.249499
C51	C	-0.172404	0.163102	-0.249479
C52	C	-0.197602	0.163781	-0.124874
C53	C	-0.574302	-0.069199	-0.000348
C54	C	-0.572882	-0.208582	-0.000345
C55	C	-0.616194	-0.289912	-0.000371
C56	C	-0.614856	-0.420876	-0.000353
C57	C	-0.526890	-0.389166	-0.000289
C58	C	-0.528228	-0.258205	-0.000297
C59	C	0.340119	0.149536	-0.000385
C60	C	0.286455	0.150977	-0.000396
C61	C	-0.568784	0.390110	-0.000325
C62	C	-0.570205	0.529493	-0.000319
N63	N	-0.571545	0.160460	0.355780
N64	N	-0.571546	0.160441	-0.356456
C65	C	-0.604180	0.074600	0.427683
C66	C	-0.604182	0.074593	0.571565
C67	C	-0.538909	0.246310	0.571631
C68	C	-0.538910	0.246322	0.427751
H69	H	0.049858	0.157267	0.350338
N70	N	-0.664354	-0.236394	-0.000416
H71	H	-0.666872	-0.182749	0.084310
H72	H	-0.666839	-0.182841	-0.085216
N73	N	-0.639381	-0.017992	0.350054
H74	H	-0.660056	-0.072380	0.417442
H75	H	-0.660867	0.029819	0.290360
N76	N	-0.639382	-0.018009	0.649119
H77	H	-0.660054	-0.072396	0.581689
H78	H	-0.620737	-0.073289	0.708819
N79	N	-0.503710	0.338910	0.649257
H80	H	-0.508660	0.325872	0.751316
H81	H	-0.469393	0.324864	0.624117
N82	N	-0.478732	-0.442701	-0.000258
H83	H	-0.459737	-0.412984	-0.084981
H84	H	-0.459776	-0.412960	0.084545
H85	H	-0.492956	-0.191982	-0.000272
H86	H	-0.512335	0.316246	0.369204
N87	N	0.288461	0.150951	0.258608
H88	H	0.264844	0.151578	0.337543
H89	H	0.305722	0.072522	0.264030
N90	N	0.183666	0.153715	0.258651
H91	H	0.166407	0.232143	0.264218
H92	H	0.159112	0.076346	0.264146
N93	N	-0.048267	0.159860	0.383287
H94	H	-0.024631	0.159238	0.462203
H95	H	-0.065524	0.238293	0.388733
H96	H	-0.333360	0.167449	0.225810
H97	H	-0.424840	0.169873	0.225813
N98	N	-0.431542	0.170036	-0.259249
H99	H	-0.407923	0.169401	-0.338180
H100	H	-0.456125	0.092720	-0.264687
H101	H	-0.333410	0.167392	-0.226344
N102	N	-0.661569	-0.508604	-0.000388
H103	H	-0.681034	-0.492730	0.084326
H104	H	-0.680989	-0.492714	-0.085199
N105	N	-0.048330	0.159764	-0.383941
H106	H	-0.072910	0.082443	-0.389496
H107	H	-0.065561	0.238238	-0.389443
N108	N	0.056460	0.156980	-0.383941
H109	H	0.032788	0.156762	-0.462861
H110	H	0.080821	0.234720	-0.389778
N111	N	0.183599	0.153684	-0.259371
H112	H	0.166337	0.232106	-0.264921
H113	H	0.207244	0.153009	-0.338228
H114	H	-0.101402	0.161272	0.350367
N115	N	0.288409	0.150908	-0.259392
H116	H	0.324252	0.151651	-0.240488
H117	H	0.276378	0.072413	-0.312999
H118	H	-0.192935	0.163644	-0.350954
N119	N	-0.199534	0.163867	0.383313
H120	H	-0.216795	0.242291	0.388872
H121	H	-0.224088	0.086494	0.388774
H122	H	-0.101473	0.161208	-0.350969
