data_functionalizedCrystal
_audit_creation_method	'MofGen! by Chris Wilmer'
_symmetry_space_group_name_H-M	'P1'
_symmetry_Int_Tables_number	1
_symmetry_cell_setting	triclinic
loop_
_symmetry_equiv_pos_as_xyz
  x,y,z
_cell_length_a	16.625547
_cell_length_b	16.625545
_cell_length_c	16.625539
_cell_angle_alpha	90.028107
_cell_angle_beta	90.024822
_cell_angle_gamma	90.025495
loop_
_atom_site_label
_atom_site_type_symbol
_atom_site_fract_x
_atom_site_fract_y
_atom_site_fract_z
Zn1	Zn	1.232663	-0.321001	0.456002
Zn2	Zn	1.482663	-0.071001	0.706002
Zn3	Zn	1.732663	0.178999	0.956002
Zn4	Zn	1.982663	0.428999	1.206002
Zn5	Zn	1.232559	-0.455845	0.321170
Zn6	Zn	1.482559	-0.205845	0.571170
Zn7	Zn	1.732559	0.044155	0.821170
Zn8	Zn	1.982559	0.294155	1.071170
Zn9	Zn	1.097825	-0.321030	0.321172
Zn10	Zn	1.347825	-0.071030	0.571172
Zn11	Zn	1.597825	0.178970	0.821172
Zn12	Zn	1.847825	0.428970	1.071172
Zn13	Zn	1.097788	-0.455796	0.455949
Zn14	Zn	1.347788	-0.205796	0.705949
Zn15	Zn	1.597788	0.044204	0.955949
Zn16	Zn	1.847788	0.294204	1.205949
O17	O	1.165209	-0.388418	0.388573
O18	O	1.415209	-0.138418	0.638573
O19	O	1.665209	0.111582	0.888573
O20	O	1.915209	0.361582	1.138573
O21	O	1.345482	-0.338897	0.438137
O22	O	1.595482	-0.088897	0.688137
O23	O	1.845482	0.161103	0.938137
O24	O	2.095482	0.411103	1.188137
O25	O	1.214658	-0.437993	0.208338
O26	O	1.464658	-0.187993	0.458338
O27	O	1.714658	0.062007	0.708338
O28	O	1.964658	0.312007	0.958338
O29	O	1.115771	-0.208193	0.339081
O30	O	1.365771	0.041807	0.589081
O31	O	1.615771	0.291807	0.839081
O32	O	1.865771	0.541807	1.089081
O33	O	1.345405	-0.437966	0.339076
O34	O	1.595405	-0.187966	0.589076
O35	O	1.845405	0.062034	0.839076
O36	O	2.095405	0.312034	1.089076
O37	O	1.214836	-0.208173	0.438140
O38	O	1.464836	0.041827	0.688140
O39	O	1.714836	0.291827	0.938140
O40	O	1.964836	0.541827	1.188140
O41	O	1.115670	-0.338945	0.208340
O42	O	1.365670	-0.088945	0.458340
O43	O	1.615670	0.161055	0.708340
O44	O	1.865670	0.411055	0.958340
O45	O	0.984988	-0.338898	0.339030
O46	O	1.234988	-0.088898	0.589030
O47	O	1.484988	0.161102	0.839030
O48	O	1.734988	0.411102	1.089030
O49	O	1.115708	-0.437883	0.568789
O50	O	1.365708	-0.187883	0.818789
O51	O	1.615708	0.062117	1.068789
O52	O	1.865708	0.312117	1.318789
O53	O	0.984961	-0.437910	0.438050
O54	O	1.234961	-0.187910	0.688050
O55	O	1.484961	0.062090	0.938050
O56	O	1.734961	0.312090	1.188050
O57	O	1.214800	-0.338850	0.568827
O58	O	1.464800	-0.088850	0.818827
O59	O	1.714800	0.161150	1.068827
O60	O	1.964800	0.411150	1.318827
O61	O	1.214623	-0.568671	0.339025
O62	O	1.464623	-0.318671	0.589025
O63	O	1.714623	-0.068671	0.839025
O64	O	1.964623	0.181329	1.089025
O65	O	1.115607	-0.568635	0.438048
O66	O	1.365607	-0.318635	0.688048
O67	O	1.615607	-0.068635	0.938048
O68	O	1.865607	0.181365	1.188048
C69	C	0.955718	-0.388402	0.388535
C70	C	1.205718	-0.138402	0.638535
C71	C	1.455718	0.111598	0.888535
C72	C	1.705718	0.361598	1.138535
C73	C	0.866097	-0.388415	0.388538
C74	C	1.116097	-0.138415	0.638538
C75	C	1.366097	0.111585	0.888538
C76	C	1.616097	0.361585	1.138538
C77	C	0.793314	-0.388416	0.388548
C78	C	1.043314	-0.138416	0.638548
C79	C	1.293314	0.111584	0.888548
C80	C	1.543314	0.361584	1.138548
C81	C	0.702006	-0.388421	0.388568
C82	C	0.952006	-0.138421	0.638568
C83	C	1.202006	0.111579	0.888568
C84	C	1.452006	0.361579	1.138568
C85	C	0.629230	-0.388428	0.388589
C86	C	0.879230	-0.138428	0.638589
C87	C	1.129230	0.111572	0.888589
C88	C	1.379230	0.361572	1.138589
C89	C	0.537915	-0.388434	0.388608
C90	C	0.787915	-0.138434	0.638608
C91	C	1.037915	0.111566	0.888608
C92	C	1.287915	0.361566	1.138608
C93	C	1.165121	-0.597909	0.388548
C94	C	1.415121	-0.347909	0.638548
C95	C	1.665121	-0.097909	0.888548
C96	C	1.915121	0.152091	1.138548
C97	C	1.165158	-0.687530	0.388564
C98	C	1.415158	-0.437530	0.638564
C99	C	1.665158	-0.187530	0.888564
C100	C	1.915158	0.062470	1.138564
C101	C	1.165189	-0.760312	0.388580
C102	C	1.415189	-0.510312	0.638580
C103	C	1.665189	-0.260312	0.888580
C104	C	1.915189	-0.010312	1.138580
C105	C	1.165236	-0.851621	0.388598
C106	C	1.415236	-0.601621	0.638598
C107	C	1.665236	-0.351621	0.888598
C108	C	1.915236	-0.101621	1.138598
C109	C	1.165278	-0.924397	0.388608
C110	C	1.415278	-0.674397	0.638608
C111	C	1.665278	-0.424397	0.888608
C112	C	1.915278	-0.174397	1.138608
C113	C	1.165324	-1.015711	0.388625
C114	C	1.415324	-0.765711	0.638625
C115	C	1.665324	-0.515711	0.888625
C116	C	1.915324	-0.265711	1.138625
C117	C	1.375518	-0.388434	0.388612
C118	C	1.625518	-0.138434	0.638612
C119	C	1.875518	0.111566	0.888612
C120	C	2.125518	0.361566	1.138612
C121	C	1.465139	-0.388441	0.388629
C122	C	1.715139	-0.138441	0.638629
C123	C	1.965139	0.111559	0.888629
C124	C	2.215139	0.361559	1.138629
C125	C	1.165261	-0.388358	0.598882
C126	C	1.415261	-0.138358	0.848882
C127	C	1.665261	0.111642	1.098882
C128	C	1.915261	0.361642	1.348882
C129	C	1.165284	-0.388332	0.688504
C130	C	1.415284	-0.138332	0.938504
C131	C	1.665284	0.111668	1.188504
C132	C	1.915284	0.361668	1.438504
C133	C	1.165319	-0.178109	0.388617
C134	C	1.415319	0.071891	0.638617
C135	C	1.665319	0.321891	0.888617
C136	C	1.915319	0.571891	1.138617
C137	C	1.165366	-0.088488	0.388635
C138	C	1.415366	0.161512	0.638635
C139	C	1.665366	0.411512	0.888635
C140	C	1.915366	0.661512	1.138635
C141	C	1.165203	-0.388419	0.179083
C142	C	1.415203	-0.138419	0.429083
C143	C	1.665203	0.111581	0.679083
C144	C	1.915203	0.361581	0.929083
C145	C	1.165337	-0.388218	0.089462
C146	C	1.415337	-0.138218	0.339462
C147	C	1.665337	0.111782	0.589462
C148	C	1.915337	0.361782	0.839462
C149	C	1.165321	-0.388242	1.016679
C150	C	1.415321	-0.138242	1.266679
C151	C	1.665321	0.111758	1.516679
C152	C	1.915321	0.361758	1.766679
C153	C	1.165308	-0.388270	0.925371
C154	C	1.415308	-0.138270	1.175371
C155	C	1.665308	0.111730	1.425371
C156	C	1.915308	0.361730	1.675371
C157	C	1.165303	-0.388288	0.852594
C158	C	1.415303	-0.138288	1.102594
C159	C	1.665303	0.111712	1.352594
C160	C	1.915303	0.361712	1.602594
C161	C	1.165289	-0.388314	0.761280
C162	C	1.415289	-0.138314	1.011280
C163	C	1.665289	0.111686	1.261280
C164	C	1.915289	0.361686	1.511280
