data_functionalizedCrystal
_audit_creation_method	'MofGen! by Chris Wilmer'
_symmetry_space_group_name_H-M	'P1'
_symmetry_Int_Tables_number	1
_symmetry_cell_setting	triclinic
loop_
_symmetry_equiv_pos_as_xyz
  x,y,z
_cell_length_a	17.641144
_cell_length_b	12.759395
_cell_length_c	12.759387
_cell_angle_alpha	90.022941
_cell_angle_beta	101.184719
_cell_angle_gamma	101.175658
loop_
_atom_site_label
_atom_site_type_symbol
_atom_site_fract_x
_atom_site_fract_y
_atom_site_fract_z
Zn1	Zn	-0.314580	-1.690696	-0.678698
Zn2	Zn	-0.446739	-1.726055	-0.538571
Zn3	Zn	-0.314615	-1.515003	-0.503037
Zn4	Zn	-0.446675	-1.550438	-0.714185
O5	O	-0.380652	-1.620548	-0.608623
O6	O	-0.332123	-1.842411	-0.660129
O7	O	-0.429254	-1.698027	-0.386847
O8	O	-0.204034	-1.508682	-0.496616
O9	O	-0.429220	-1.868389	-0.557178
O10	O	-0.204008	-1.637762	-0.625674
O11	O	-0.332183	-1.542969	-0.360741
O12	O	-0.332121	-1.372680	-0.531027
O13	O	-0.429111	-1.569075	-0.856488
O14	O	-0.429145	-1.398713	-0.686156
O15	O	-0.332061	-1.672122	-0.830415
O16	O	-0.557307	-1.732387	-0.591589
O17	O	-0.557260	-1.603362	-0.720612
C18	C	-0.380631	-1.347575	-0.608587
C19	C	-0.380641	-1.230801	-0.608602
C20	C	-0.279707	-0.984361	-0.716096
C21	C	-0.229229	-1.025722	-0.769816
C22	C	-0.229219	-1.135441	-0.769799
C23	C	-0.279694	-1.203803	-0.716059
C24	C	-0.330173	-1.162443	-0.662339
C25	C	-0.330175	-1.052719	-0.662359
C26	C	-0.431119	-1.189440	-0.554882
C27	C	-0.431126	-1.079720	-0.554892
C28	C	-0.481594	-1.257803	-0.501142
C29	C	-0.532070	-1.216441	-0.447415
C30	C	-0.532077	-1.106715	-0.447434
C31	C	-0.481604	-1.038360	-0.501172
C32	C	-0.585955	-1.675585	-0.663830
C33	C	-0.673785	-1.699226	-0.687483
C34	C	-0.963007	-1.441329	-0.429064
C35	C	-1.045536	-1.463561	-0.451292
C36	C	-1.045381	-1.597819	-0.585746
C37	C	-0.962850	-1.575595	-0.563533
C38	C	-0.921669	-1.497350	-0.485190
C39	C	-0.921512	-1.631616	-0.619659
C40	C	-0.838989	-1.609397	-0.597444
C41	C	-0.797803	-1.531158	-0.519103
C42	C	-0.839146	-1.475131	-0.462975
C43	C	-0.962694	-1.709866	-0.697996
C44	C	-0.921357	-1.765887	-0.754122
C45	C	-0.838832	-1.743664	-0.731913
C46	C	-0.797646	-1.665424	-0.653572
C47	C	-0.797489	-1.799690	-0.788040
C48	C	-0.714965	-1.777472	-0.765825
C49	C	-0.715122	-1.643205	-0.631356
C50	C	-0.174548	-1.565325	-0.553223
C51	C	-0.086718	-1.541792	-0.529615
C52	C	-0.380575	-1.620607	-0.882635
C53	C	-0.380542	-1.620632	-0.999403
C54	C	-0.380666	-0.894585	-0.608648
C55	C	-0.380651	-1.011358	-0.608632
C56	C	-0.279490	-1.727945	-0.972276
C57	C	-0.228953	-1.781613	-1.013570
C58	C	-0.228924	-1.781631	-1.123284
C59	C	-0.279436	-1.727972	-1.191707
C60	C	-0.329974	-1.674304	-1.150413
C61	C	-0.329999	-1.674295	-1.040696
C62	C	-0.431020	-1.566986	-1.177539
C63	C	-0.431054	-1.566973	-1.067827
C64	C	-0.481533	-1.513327	-1.245963
C65	C	-0.532076	-1.459664	-1.204670
C66	C	-0.532103	-1.459649	-1.094949
C67	C	-0.481592	-1.513305	-1.026533
C68	C	-0.380672	-1.620535	-0.335661
C69	C	-0.380483	-1.620654	-0.218833
H70	H	-0.573186	-1.073048	-0.403694
Cl71	Cl	-1.066439	-1.738026	-0.725696
Cl72	Cl	-0.279534	-1.727945	-0.834351
H73	H	-0.954897	-1.829598	-0.817906
H74	H	-0.279693	-0.895016	-0.716088
Cl75	Cl	-0.481586	-1.395737	-0.501128
Cl76	Cl	-0.165783	-0.939778	-0.837380
Cl77	Cl	-0.165764	-1.187441	-0.837338
H78	H	-1.079190	-1.417934	-0.405582
Cl79	Cl	-0.481625	-1.513296	-0.888605
Cl80	Cl	-0.595521	-1.302386	-0.379871
Cl81	Cl	-0.165378	-1.849080	-1.175196
H82	H	-0.730607	-1.513073	-0.501013
H83	H	-0.279689	-1.293143	-0.716061
H84	H	-0.573249	-1.415932	-1.061334
H85	H	-0.481595	-0.949016	-0.501177
H86	H	-0.681591	-1.579482	-0.567570
H87	H	-0.805615	-1.411408	-0.399188
Cl88	Cl	-1.097158	-1.696183	-0.684228
Cl89	Cl	-0.662994	-1.847903	-0.836380
Cl90	Cl	-0.911231	-1.342958	-0.330577
Cl91	Cl	-0.849268	-1.898062	-0.886514
H92	H	-0.187825	-1.825299	-0.957847
Cl93	Cl	-0.595566	-1.392208	-1.290689
H94	H	-0.279402	-1.727981	-1.281039
Cl95	Cl	-0.481497	-1.513349	-1.383890
