data_functionalizedCrystal
_audit_creation_method	'MofGen! by Chris Wilmer'
_symmetry_space_group_name_H-M	'P1'
_symmetry_Int_Tables_number	1
_symmetry_cell_setting	triclinic
loop_
_symmetry_equiv_pos_as_xyz
  x,y,z
_cell_length_a	33.359812
_cell_length_b	33.359725
_cell_length_c	33.359654
_cell_angle_alpha	90.001854
_cell_angle_beta	120.002401
_cell_angle_gamma	59.999843
loop_
_atom_site_label
_atom_site_type_symbol
_atom_site_fract_x
_atom_site_fract_y
_atom_site_fract_z
O1	O	-0.286918	0.274992	-0.628580
O2	O	-0.204831	0.216699	-0.488201
O3	O	-0.286917	0.216699	-0.570284
O4	O	-0.204833	0.274992	-0.546497
O5	O	-0.353587	0.283371	-0.570284
O6	O	-0.271502	0.283371	-0.488201
O7	O	-0.353589	0.341664	-0.628579
Cu8	Cu	-0.318633	0.318605	-0.558390
Cu9	Cu	-0.239787	0.239758	-0.558390
O10	O	-0.271503	0.341664	-0.546497
C11	C	-0.440929	0.412028	-0.925546
C12	C	-0.489512	0.460271	-0.949783
C13	C	-0.440926	0.412030	-0.852955
C14	C	-0.489509	0.460273	-0.877302
C15	C	-0.513518	0.484619	-0.925546
C16	C	-0.417030	0.387793	-0.877302
C17	C	-0.362287	0.339275	-0.925357
C18	C	-0.335563	0.316267	-0.948207
C19	C	-0.358503	0.341070	-0.996010
C20	C	-0.329529	0.316128	-1.020787
C21	C	-0.408172	0.388881	-1.020972
C22	C	-0.434895	0.411887	-0.998124
C23	C	-0.411950	0.387083	-0.950317
C24	C	-0.586084	0.563072	-0.998301
C25	C	-0.631940	0.612646	-1.021308
C26	C	-0.654937	0.637511	-0.996503
C27	C	-0.704656	0.691263	-1.021446
C28	C	-0.632086	0.612805	-0.948692
C29	C	-0.586233	0.563233	-0.925686
C30	C	-0.563232	0.538369	-0.950491
C31	C	-0.362281	0.339278	-0.774499
C32	C	-0.335550	0.316275	-0.724921
C33	C	-0.358488	0.341080	-0.700058
C34	C	-0.329511	0.316139	-0.646304
C35	C	-0.408152	0.388888	-0.724763
C36	C	-0.434882	0.411894	-0.774338
C37	C	-0.411945	0.387087	-0.799204
C38	C	-0.117505	0.484624	-0.529537
C39	C	-0.068923	0.460278	-0.529198
C40	C	-0.117504	0.412035	-0.529537
C41	C	-0.068922	0.387799	-0.529198
C42	C	-0.044915	0.412035	-0.529537
C43	C	-0.141401	0.460278	-0.529198
C44	C	-0.196148	0.563078	-0.535428
C45	C	-0.222873	0.612653	-0.539146
C46	C	-0.199935	0.637516	-0.541011
C47	C	-0.228911	0.691268	-0.545045
C48	C	-0.150267	0.612810	-0.539154
C49	C	-0.123542	0.563238	-0.535434
C50	C	-0.146485	0.538374	-0.533573
C51	C	0.027648	0.412224	-0.535428
C52	C	0.073504	0.389374	-0.539145
C53	C	0.096502	0.341572	-0.541011
C54	C	0.146221	0.316796	-0.545045
C55	C	0.073653	0.316611	-0.539154
C56	C	0.027801	0.339458	-0.535434
C57	C	0.004799	0.387265	-0.533573
C58	C	-0.196147	0.412223	-0.535428
C59	C	-0.222875	0.389375	-0.539152
C60	C	-0.199936	0.341573	-0.541017
C61	C	-0.228912	0.316796	-0.545051
C62	C	-0.150273	0.316614	-0.539162
C63	C	-0.123545	0.339460	-0.535440
C64	C	-0.146484	0.387264	-0.533573
C65	C	-0.513507	0.146330	-0.587243
C66	C	-0.489500	0.098087	-0.587583
C67	C	-0.440918	0.146330	-0.587243
C68	C	-0.417021	0.098087	-0.587583
C69	C	-0.440918	0.073741	-0.587243
C70	C	-0.489500	0.170566	-0.587583
C71	C	-0.586070	0.219083	-0.581353
C72	C	-0.631926	0.242090	-0.577635
C73	C	-0.654925	0.217286	-0.575769
C74	C	-0.704643	0.242228	-0.571736
C75	C	-0.632075	0.169476	-0.577626
C76	C	-0.586223	0.146471	-0.581346
C77	C	-0.563221	0.171275	-0.583207
C78	C	-0.435216	-0.004713	-0.581353
C79	C	-0.408648	-0.054288	-0.577635
C80	C	-0.358981	-0.079151	-0.575770
C81	C	-0.330171	-0.132903	-0.571736
C82	C	-0.335877	-0.054445	-0.577626
C83	C	-0.362444	-0.004873	-0.581347
C84	C	-0.412112	0.019991	-0.583208
C85	C	-0.435215	0.219083	-0.581353
C86	C	-0.408643	0.242087	-0.577628
C87	C	-0.358976	0.217283	-0.575763
C88	C	-0.330166	0.242224	-0.571729
C89	C	-0.335872	0.169474	-0.577618
C90	C	-0.362440	0.146468	-0.581340
C91	C	-0.412112	0.171274	-0.583208
O92	O	0.279084	0.216701	-0.570284
O93	O	0.162496	0.274994	-0.546497
O94	O	0.162492	0.274994	-0.628579
O95	O	0.279087	0.216701	-0.488201
O96	O	0.162491	0.341666	-0.628579
O97	O	0.162494	0.341666	-0.546496
O98	O	0.279082	0.283373	-0.570284
Cu99	Cu	0.220788	0.318607	-0.558390
Cu100	Cu	0.220790	0.239760	-0.558390
O101	O	0.279085	0.283373	-0.488201
O102	O	-0.837507	0.849368	-1.054208
O103	O	-0.720929	0.708990	-0.995918
O104	O	-0.720915	0.791064	-0.995913
O105	O	-0.837520	0.767294	-1.054214
O106	O	-0.720918	0.791063	-1.062586
O107	O	-0.720932	0.708988	-1.062591
O108	O	-0.837510	0.849366	-1.120881
Cu109	Cu	-0.779221	0.779177	-1.097824
Cu110	Cu	-0.779218	0.779179	-1.018976
O111	O	-0.837523	0.767292	-1.120887
O112	O	-0.286917	0.849370	-0.570284
O113	O	-0.204836	0.708994	-0.546497
O114	O	-0.286920	0.791075	-0.628580
O115	O	-0.204833	0.767290	-0.488201
O116	O	-0.353591	0.791076	-0.628580
O117	O	-0.271507	0.708995	-0.546497
O118	O	-0.353589	0.849371	-0.570284
Cu119	Cu	-0.318636	0.779183	-0.558390
Cu120	Cu	-0.239789	0.779182	-0.558390
O121	O	-0.271505	0.767290	-0.488201
O122	O	-0.271514	0.283364	-1.120876
O123	O	-0.353602	0.341656	-1.062588
O124	O	-0.271512	0.341652	-1.062573
O125	O	-0.353604	0.283368	-1.120890
O126	O	-0.204845	0.274977	-0.995904
O127	O	-0.286935	0.274981	-0.995919
O128	O	-0.204847	0.216689	-1.054207
Cu129	Cu	-0.239804	0.239747	-1.018976
Cu130	Cu	-0.318645	0.318598	-1.097819
O131	O	-0.286937	0.216693	-1.054222
C132	C	-0.044922	0.073731	-0.191244
C133	C	-0.068930	0.098077	-0.167008
C134	C	-0.117509	0.146323	-0.263832
C135	C	-0.141406	0.170559	-0.239486
C136	C	-0.117511	0.146321	-0.191244
C137	C	-0.068928	0.098079	-0.239486
C138	C	0.027641	-0.004723	-0.191433
C139	C	0.073495	-0.054298	-0.168584
C140	C	0.096492	-0.079163	-0.120783
C141	C	0.146209	-0.132915	-0.096007
C142	C	0.073641	-0.054457	-0.095822
C143	C	0.027791	-0.004884	-0.118669
C144	C	0.004790	0.019981	-0.166474
C145	C	-0.123216	0.146131	-0.118493
C146	C	-0.149784	0.168981	-0.095487
C147	C	-0.199451	0.216784	-0.120291
C148	C	-0.228262	0.241561	-0.095350
C149	C	-0.222553	0.241746	-0.168101
C150	C	-0.195985	0.218899	-0.191104
C151	C	-0.146318	0.171091	-0.166300
C152	C	-0.123208	0.146136	-0.342286
C153	C	-0.149779	0.168985	-0.391862
C154	C	-0.199445	0.216788	-0.416725
C155	C	-0.228254	0.241567	-0.470477
C156	C	-0.222550	0.241747	-0.392021
C157	C	-0.195984	0.218900	-0.342447
C158	C	-0.146313	0.171095	-0.317581
C159	C	-0.117532	0.484631	-0.925541
C160	C	-0.141444	0.460292	-0.949772
C161	C	-0.044947	0.412044	-0.852948
C162	C	-0.068970	0.387816	-0.877290
C163	C	-0.117558	0.412054	-0.925532
C164	C	-0.068944	0.460282	-0.877299
C165	C	-0.123206	0.563073	-0.925361
C166	C	-0.149763	0.612643	-0.948214
C167	C	-0.199436	0.637510	-0.996016
C168	C	-0.228234	0.691258	-1.020796
C169	C	-0.222556	0.612811	-1.020972
C170	C	-0.195999	0.563243	-0.998121
C171	C	-0.146326	0.538376	-0.950315
C172	C	-0.196223	0.412256	-0.998278
C173	C	-0.222963	0.389415	-1.021280
C174	C	-0.200034	0.341619	-0.996471
C175	C	-0.229026	0.316852	-1.021408
C176	C	-0.150361	0.316655	-0.948662
C177	C	-0.123621	0.339493	-0.925662
C178	C	-0.146554	0.387294	-0.950471
C179	C	0.027640	0.412223	-0.774499
C180	C	0.073498	0.389373	-0.724923
C181	C	0.096486	0.341577	-0.700055
C182	C	0.146211	0.316798	-0.646304
C183	C	0.073620	0.316626	-0.724755
C184	C	0.027762	0.339473	-0.774329
C185	C	0.004774	0.387272	-0.799199
C186	C	0.559097	0.146342	-0.191235
C187	C	0.582997	0.098099	-0.166998
C188	C	0.486507	0.146338	-0.263825
C189	C	0.510516	0.098095	-0.239477
C190	C	0.559100	0.073751	-0.191233
C191	C	0.510513	0.170576	-0.239479
C192	C	0.564795	0.219096	-0.191426
C193	C	0.591362	0.242104	-0.168576
C194	C	0.641032	0.217302	-0.120773
C195	C	0.669841	0.242246	-0.095997
C196	C	0.664138	0.169491	-0.095811
C197	C	0.637572	0.146485	-0.118658
C198	C	0.587902	0.171287	-0.166465
C199	C	0.637748	-0.004702	-0.118478
C200	C	0.664475	-0.054276	-0.095470
C201	C	0.641537	-0.079141	-0.120274
C202	C	0.670516	-0.132893	-0.095330
C203	C	0.591868	-0.054436	-0.168085
C204	C	0.565141	-0.004864	-0.191091
C205	C	0.588083	0.020001	-0.166288
C206	C	0.413938	0.219089	-0.342282
C207	C	0.368084	0.242092	-0.391860
C208	C	0.345086	0.217287	-0.416723
C209	C	0.295366	0.242227	-0.470476
C210	C	0.367939	0.169478	-0.392017
C211	C	0.413793	0.146473	-0.342441
C212	C	0.436790	0.171281	-0.317576
C213	C	-0.440864	0.807954	-0.925520
C214	C	-0.416959	0.808287	-0.877273
C215	C	-0.513463	0.807971	-0.925524
C216	C	-0.489448	0.808303	-0.877278
C217	C	-0.440858	0.807952	-0.852928
C218	C	-0.489454	0.808305	-0.949760
C219	C	-0.435169	0.802065	-0.998276
C220	C	-0.408601	0.798342	-1.021283
C221	C	-0.358925	0.796466	-0.996475
C222	C	-0.330114	0.792427	-1.021417
C223	C	-0.335813	0.798316	-0.948661
C224	C	-0.362381	0.802041	-0.925656
C225	C	-0.412057	0.803913	-0.950464
C226	C	-0.362199	0.802043	-0.774466
C227	C	-0.335468	0.798319	-0.724889
C228	C	-0.358409	0.796458	-0.700026
C229	C	-0.329426	0.792417	-0.646271
C230	C	-0.408084	0.798327	-0.724736
C231	C	-0.434815	0.802053	-0.774312
C232	C	-0.411871	0.803909	-0.799174
C233	C	-0.586045	0.802099	-0.998285
C234	C	-0.631906	0.798386	-1.021294
C235	C	-0.654906	0.796526	-0.996490
C236	C	-0.704635	0.792505	-1.021437
C237	C	-0.632049	0.798374	-0.948678
C238	C	-0.586187	0.802085	-0.925667
C239	C	-0.563187	0.803947	-0.950473
O240	O	-0.353542	0.849357	-1.120897
O241	O	-0.271494	0.708989	-1.062597
O242	O	-0.353553	0.791087	-1.062591
O243	O	-0.271483	0.767259	-1.120902
O244	O	-0.286861	0.791075	-0.995924
O245	O	-0.204802	0.708977	-0.995930
O246	O	-0.286850	0.849345	-1.054230
Cu247	Cu	-0.239737	0.779160	-1.018993
Cu248	Cu	-0.318608	0.779174	-1.097834
O249	O	-0.204791	0.767247	-1.054235
C250	C	-1.117579	0.750401	-1.263872
C251	C	-1.141480	0.750070	-1.239527
C252	C	-1.044976	0.750386	-1.191276
C253	C	-1.068987	0.750055	-1.167041
C254	C	-1.117578	0.750406	-1.191281
C255	C	-1.068988	0.750050	-1.239521
C256	C	-1.123281	0.756287	-1.342326
C257	C	-1.149853	0.760009	-1.391903
C258	C	-1.199529	0.761885	-1.416770
C259	C	-1.228344	0.765923	-1.470525
C260	C	-1.222637	0.760037	-1.392065
C261	C	-1.196065	0.756313	-1.342491
C262	C	-1.146389	0.754441	-1.317624
C263	C	-1.196232	0.756316	-1.191476
C264	C	-1.222960	0.760042	-1.168627
C265	C	-1.200016	0.761904	-1.120823
C266	C	-1.228994	0.765946	-1.096048
C267	C	-1.150340	0.760036	-1.095858
C268	C	-1.123612	0.756308	-1.118704
C269	C	-1.146561	0.754450	-1.166513
C270	C	-0.972398	0.756256	-1.191458
C271	C	-0.926536	0.759969	-1.168606
C272	C	-0.903533	0.761831	-1.120801
C273	C	-0.853804	0.765852	-1.096020
C274	C	-0.926387	0.759984	-1.095844
C275	C	-0.972248	0.756273	-1.118694
C276	C	-0.995252	0.754409	-1.166501
H277	H	-0.650541	0.632756	-1.060237
F278	F	-1.275511	0.762034	-1.418537
H279	H	-0.567627	0.543119	-0.886757
H280	H	-1.131040	0.761522	-1.412015
H281	H	-0.214823	0.543133	-1.018442
H282	H	-1.048897	0.749501	-1.259069
F283	F	-0.432586	0.415278	-1.071853
H284	H	-0.131597	0.277689	-0.540685
F285	F	-0.125855	0.639277	-0.541139
F286	F	0.098122	-0.080925	-0.044943
F287	F	-0.656242	0.292971	-0.575661
H288	H	-0.263310	0.632763	-0.540656
H289	H	0.092112	0.409693	-0.704817
F290	F	-0.283002	0.143070	-0.575625
F291	F	0.566766	0.292986	-0.195142
H292	H	-0.083099	0.543121	-0.533916
H293	H	0.622084	0.078559	-0.127355
H294	H	-0.295432	-0.074696	-0.576108
H295	H	-0.475335	0.450814	-1.018449
H296	H	-0.567360	0.542829	-1.018502
F297	F	-0.337849	0.095585	-0.583312
H298	H	0.490416	0.210217	-0.259023
F299	F	-1.192564	0.749337	-1.265069
F300	F	-0.337860	0.021422	-0.583326
F301	F	0.003171	0.463103	-0.533443
F302	F	-0.125193	0.142413	-0.044606
F303	F	-0.656568	0.639273	-0.922294
F304	F	0.343465	0.143074	-0.418482
F305	F	0.097819	0.415941	-0.541118
H306	H	-0.130935	0.632749	-0.927892
H307	H	-0.048826	0.479824	-0.528643
F308	F	0.003425	0.312917	-0.800616
H309	H	0.092387	0.277684	-0.540671
H310	H	-1.082831	0.754759	-1.322080
F311	F	-0.365903	0.072528	-0.588265
H312	H	-0.082772	0.107206	-0.098291
F313	F	-0.487683	0.804044	-0.800610
H314	H	-0.343603	0.319074	-0.886431
F315	F	-0.902215	0.761932	-1.195169
H316	H	-0.377935	0.348156	-0.857756
H317	H	-0.214897	0.451177	-1.018483
H318	H	-0.475619	0.803593	-1.018480
F319	F	-0.487738	0.462777	-0.800630
H320	H	-0.262996	0.280673	-0.412269
F321	F	-0.432564	0.415291	-0.698297
F322	F	-0.070690	0.312897	-0.533468
F323	F	-0.561860	0.804051	-0.874781
H324	H	-0.048910	0.348193	-0.857725
H325	H	-0.131694	0.277732	-0.928465
F326	F	0.003485	0.312895	-0.533457
H327	H	-0.180538	0.479841	-0.989412
F328	F	-0.337868	0.312874	-0.800962
F329	F	-0.432499	0.796348	-0.698270
F330	F	-0.042668	0.072529	-0.115198
H331	H	-0.263005	0.633065	-1.059898
F332	F	-1.275826	0.762030	-1.195200
H333	H	-0.263312	0.409701	-0.540661
F334	F	0.567455	-0.080905	-0.194482
H335	H	-0.048832	0.348160	-0.528653
H336	H	0.092323	0.277713	-0.704497
F337	F	-0.901905	0.761970	-1.044963
H338	H	0.349482	0.281019	-0.411971
H339	H	0.432399	0.107544	-0.322327
H340	H	0.524350	0.239296	-0.230352
H341	H	-0.180493	0.479825	-0.528650
H342	H	-0.427466	-0.074397	-0.576125
F343	F	0.484262	0.072542	-0.265029
F344	F	-0.515767	0.072542	-0.588303
H345	H	0.009189	0.015232	-0.098344
F346	F	-0.220566	0.536618	-0.533443
H347	H	-0.214827	0.451147	-0.533905
H348	H	-0.263405	0.409746	-1.060207
F349	F	-0.515764	0.222378	-0.588300
F350	F	-0.220576	0.245462	-0.316156
F351	F	-0.070757	0.312926	-0.874783
F352	F	-0.042672	0.485825	-0.851752
H353	H	0.432659	0.239293	-0.322038
H354	H	-0.650777	0.796856	-0.928480
H355	H	0.704584	0.149299	-0.056883
F356	F	-0.433233	0.292966	-0.575651
H357	H	-0.295124	0.277341	-0.927880
H358	H	-0.475662	0.239285	-0.582876
H359	H	0.656372	0.107566	-0.098324
H360	H	-0.427422	0.796837	-1.060212
H361	H	-0.180499	0.210198	-0.259034
F362	F	0.003177	0.463093	-0.800966
F363	F	-0.515719	0.809032	-0.851733
F364	F	0.662166	0.021760	-0.092076
H365	H	-0.567346	0.239284	-0.582870
H366	H	-0.991124	0.754736	-1.230384
F367	F	-0.282696	0.265394	-0.698632
F368	F	-0.125186	0.142420	-0.418150
F369	F	-0.656557	0.143078	-0.575641
F370	F	-1.042723	0.749342	-1.115230
F371	F	-0.561903	0.095588	-0.583319
F372	F	0.512294	0.021423	-0.241981
F373	F	-0.488078	0.021747	-0.583336
H374	H	0.704914	-0.074384	-0.056540
F375	F	-0.042666	0.072530	-0.265034
H376	H	-0.082763	0.107212	-0.322042
F377	F	0.003166	0.021738	-0.242311
F378	F	-0.282939	0.796318	-0.922260
F379	F	0.097813	-0.080587	-0.195148
F380	F	-0.365857	0.808994	-0.851723
F381	F	-0.275416	0.292627	-0.194497
F382	F	-1.125921	0.762015	-1.044975
F383	F	-0.515721	0.809021	-1.001572
H384	H	-0.082758	0.542828	-0.886436
H385	H	-0.650515	0.796884	-1.060224
F386	F	-1.070747	0.754320	-1.092137
F387	F	-0.561569	0.804082	-1.024687
H388	H	-0.343565	0.803551	-0.886727
F389	F	-0.220570	0.245463	-0.241985
F390	F	-0.337779	0.804022	-0.800926
F391	F	-0.282603	0.796333	-0.698597
H392	H	-0.990859	0.754775	-1.098373
H393	H	-1.214919	0.754800	-1.230403
F394	F	-0.515768	0.485823	-0.851753
F395	F	-0.515779	0.485817	-1.001596
F396	F	-1.220663	0.754355	-1.316201
