data_functionalizedCrystal
_audit_creation_method	'MofGen! by Chris Wilmer'
_symmetry_space_group_name_H-M	'P1'
_symmetry_Int_Tables_number	1
_symmetry_cell_setting	triclinic
loop_
_symmetry_equiv_pos_as_xyz
  x,y,z
_cell_length_a	15.298068
_cell_length_b	25.639239
_cell_length_c	15.296720
_cell_angle_alpha	99.638856
_cell_angle_beta	88.354818
_cell_angle_gamma	99.697604
loop_
_atom_site_label
_atom_site_type_symbol
_atom_site_fract_x
_atom_site_fract_y
_atom_site_fract_z
Zn1	Zn	1.253307	-0.155542	-0.727335
Zn2	Zn	1.753307	0.344458	-0.227335
Zn3	Zn	1.278537	-0.225763	-0.580852
Zn4	Zn	1.778537	0.274237	-0.080852
Zn5	Zn	1.132189	-0.150461	-0.555502
Zn6	Zn	1.632189	0.349539	-0.055502
Zn7	Zn	1.106752	-0.255075	-0.701870
Zn8	Zn	1.606752	0.244925	-0.201870
O9	O	1.192696	-0.196710	-0.641390
O10	O	1.692696	0.303290	-0.141390
O11	O	1.379234	-0.154716	-0.729169
O12	O	1.879234	0.345284	-0.229169
O13	O	1.280327	-0.201381	-0.454931
O14	O	1.780327	0.298619	0.045069
O15	O	1.148342	-0.077966	-0.578344
O16	O	1.648342	0.422034	-0.078344
O17	O	1.397770	-0.206307	-0.621550
O18	O	1.897770	0.293693	-0.121550
O19	O	1.237327	-0.081699	-0.704589
O20	O	1.737327	0.418301	-0.204589
O21	O	1.172807	-0.146057	-0.436306
O22	O	1.672807	0.353943	0.063694
O23	O	1.006234	-0.174479	-0.553652
O24	O	1.506234	0.325521	-0.053652
O25	O	1.104989	-0.256265	-0.827807
O26	O	1.604989	0.243735	-0.327807
O27	O	0.987546	-0.251338	-0.661188
O28	O	1.487546	0.248662	-0.161188
O29	O	1.212662	-0.183138	-0.846516
O30	O	1.712662	0.316862	-0.346516
O31	O	1.255662	-0.302820	-0.596858
O32	O	1.755662	0.197180	-0.096858
O33	O	1.129453	-0.324356	-0.685769
O34	O	1.629453	0.175644	-0.185769
C35	C	0.965106	-0.215539	-0.601907
C36	C	1.465106	0.284461	-0.101907
C37	C	0.867739	-0.223609	-0.585037
C38	C	1.367739	0.276391	-0.085037
C39	C	1.192556	-0.332560	-0.641324
C40	C	1.692556	0.167440	-0.141324
C41	C	1.192571	-0.390674	-0.641339
C42	C	1.692571	0.109326	-0.141339
C43	C	0.554614	-0.139164	-0.761966
C44	C	1.054614	0.360836	-0.261966
C45	C	0.646094	-0.131584	-0.777822
C46	C	1.146094	0.368416	-0.277822
C47	C	0.701510	-0.154589	-0.729627
C48	C	1.201510	0.345411	-0.229627
C49	C	0.665436	-0.185177	-0.665574
C50	C	1.165436	0.314823	-0.165574
C51	C	0.573945	-0.192761	-0.649721
C52	C	1.073945	0.307239	-0.149721
C53	C	0.720842	-0.208186	-0.617382
C54	C	1.220842	0.291814	-0.117382
C55	C	0.684768	-0.238773	-0.553329
C56	C	1.184768	0.261227	-0.053329
C57	C	0.593286	-0.246356	-0.537479
C58	C	1.093286	0.253644	-0.037479
C59	C	0.537870	-0.223350	-0.585674
C60	C	1.037870	0.276650	-0.085674
C61	C	0.812332	-0.200602	-0.633234
C62	C	1.312332	0.299398	-0.133234
C63	C	0.831664	-0.254198	-0.520989
C64	C	1.331664	0.245802	-0.020989
C65	C	0.740183	-0.261778	-0.505134
C66	C	1.240183	0.238222	-0.005134
C67	C	1.258543	-0.739803	-0.595215
C68	C	1.758543	-0.239803	-0.095215
C69	C	1.258575	-0.794406	-0.595232
C70	C	1.758575	-0.294406	-0.095232
O71	O	1.314522	-0.813098	-0.555945
O72	O	1.814522	-0.313098	-0.055945
N73	N	1.192840	-0.832943	-0.641475
N74	N	1.692840	-0.332943	-0.141475
C75	C	1.127074	-0.816876	-0.687710
C76	C	1.627074	-0.316876	-0.187710
O77	O	1.071165	-0.854669	-0.727045
O78	O	1.571165	-0.354669	-0.227045
C79	C	1.127047	-0.762274	-0.687697
C80	C	1.627047	-0.262274	-0.187697
C81	C	1.192781	-0.723739	-0.641444
C82	C	1.692781	-0.223739	-0.141444
C83	C	1.324272	-0.701268	-0.548966
C84	C	1.824272	-0.201268	-0.048966
C85	C	1.324239	-0.646669	-0.548947
C86	C	1.824239	-0.146669	-0.048947
C87	C	1.258477	-0.630605	-0.595177
C88	C	1.758477	-0.130605	-0.095177
C89	C	1.192748	-0.669139	-0.641425
C90	C	1.692748	-0.169139	-0.141425
C91	C	1.061286	-0.746208	-0.733937
C92	C	1.561286	-0.246208	-0.233937
C93	C	1.061264	-0.691601	-0.733921
C94	C	1.561264	-0.191601	-0.233921
C95	C	1.126998	-0.653066	-0.687668
C96	C	1.626998	-0.153066	-0.187668
C97	C	1.126952	-0.598476	-0.687636
C98	C	1.626952	-0.098476	-0.187636
N99	N	1.192687	-0.559939	-0.641394
N100	N	1.692687	-0.059939	-0.141394
C101	C	1.258449	-0.576003	-0.595164
C102	C	1.758449	-0.076003	-0.095164
C103	C	1.127138	-0.931543	-0.687735
C104	C	1.627138	-0.431543	-0.187735
C105	C	1.127161	-0.986144	-0.687743
C106	C	1.627161	-0.486144	-0.187743
C107	C	1.258663	-0.963670	-0.595267
C108	C	1.758663	-0.463670	-0.095267
C109	C	1.258635	-0.909068	-0.595254
C110	C	1.758635	-0.409068	-0.095254
C111	C	1.192873	-0.893005	-0.641492
C112	C	1.692873	-0.393005	-0.141492
C113	C	1.258374	-0.461342	-0.595128
C114	C	1.758374	0.038658	-0.095128
C115	C	1.258333	-0.406739	-0.595110
C116	C	1.758333	0.093261	-0.095110
C117	C	1.126835	-0.429217	-0.687590
C118	C	1.626835	0.070783	-0.187590
C119	C	1.126873	-0.483816	-0.687604
C120	C	1.626873	0.016184	-0.187604
C121	C	1.192650	-0.499876	-0.641371
C122	C	1.692650	0.000124	-0.141371
O123	O	1.071036	-0.579744	-0.726907
O124	O	1.571036	-0.079744	-0.226907
O125	O	1.314356	-0.538205	-0.555845
O126	O	1.814356	-0.038205	-0.055845
C127	C	1.421175	-0.177809	-0.681028
C128	C	1.921175	0.322191	-0.181028
C129	C	1.518539	-0.169754	-0.697919
C130	C	2.018539	0.330246	-0.197919
C131	C	1.153174	-0.223538	-0.869828
C132	C	1.653174	0.276462	-0.369828
C133	C	1.136332	-0.234970	-0.967175
C134	C	1.636332	0.265030	-0.467175
C135	C	1.192858	-0.060330	-0.641479
C136	C	1.692858	0.439670	-0.141479
C137	C	1.192927	-0.002213	-0.641517
C138	C	1.692927	0.497787	-0.141517
C139	C	1.313102	-0.114907	-1.280543
C140	C	1.813102	0.385093	-0.780543
C141	C	1.328932	-0.104166	-1.189082
C142	C	1.828932	0.395834	-0.689082
C143	C	1.280783	-0.136866	-1.133600
C144	C	1.780783	0.363134	-0.633600
C145	C	1.216802	-0.180309	-1.169589
C146	C	1.716802	0.319691	-0.669589
C147	C	1.200976	-0.191053	-1.261060
C148	C	1.700976	0.308947	-0.761060
C149	C	1.168657	-0.213013	-1.114118
C150	C	1.668657	0.286987	-0.614118
C151	C	1.104676	-0.256455	-1.150107
C152	C	1.604676	0.243545	-0.650107
C153	C	1.088852	-0.267198	-1.241569
C154	C	1.588852	0.232802	-0.741569
C155	C	1.137001	-0.234498	-1.297050
C156	C	1.637001	0.265502	-0.797050
C157	C	1.184483	-0.202268	-1.022647
C158	C	1.684483	0.297732	-0.522647
C159	C	1.072357	-0.278415	-1.003165
C160	C	1.572357	0.221585	-0.503165
C161	C	1.056527	-0.289155	-1.094626
C162	C	1.556527	0.210845	-0.594626
C163	C	1.232115	-0.169945	-0.413849
C164	C	1.732115	0.330055	0.086151
C165	C	1.249127	-0.158351	-0.316533
C166	C	1.749127	0.341649	0.183467
H167	H	0.841695	-0.175697	-0.685386
H168	H	1.341695	0.324303	-0.185386
F169	F	1.364345	-0.080114	-1.339594
F170	F	1.864345	0.419886	-0.839594
F171	F	1.252574	-0.156034	-0.984355
F172	F	1.752574	0.343966	-0.484355
F173	F	0.991270	-0.674511	-0.783138
F174	F	1.491270	-0.174511	-0.283138
H175	H	1.073627	-1.017515	-0.725397
H176	H	1.573627	-0.517515	-0.225397
F177	F	0.991327	-0.787210	-0.783175
F178	F	1.491327	-0.287210	-0.283175
H179	H	1.073349	-0.515193	-0.725270
H180	H	1.573349	-0.015193	-0.225270
F181	F	0.798872	-0.146521	-0.746502
F182	F	1.298872	0.353479	-0.246502
H183	H	1.004433	-0.324527	-1.123941
H184	H	1.504433	0.175473	-0.623941
F185	F	1.397022	-0.057933	-1.150786
F186	F	1.897022	0.442067	-0.650786
F187	F	1.120160	-0.245929	-1.394396
F188	F	1.620160	0.254071	-0.894396
F189	F	0.701779	-0.294330	-0.436966
F190	F	1.201779	0.205670	0.063034
F191	F	1.328598	-0.868060	-0.546026
F192	F	1.828598	-0.368060	-0.046026
F193	F	0.440504	-0.231415	-0.568800
F194	F	0.940504	0.268585	-0.068800
H195	H	1.293675	-0.128118	-1.059129
H196	H	1.793675	0.371882	-0.559129
F197	F	1.020771	-0.313440	-1.279871
F198	F	1.520771	0.186560	-0.779871
F199	F	1.021114	-0.313221	-0.944123
F200	F	1.521114	0.186779	-0.444123
H201	H	1.073289	-0.416129	-0.725227
H202	H	1.573289	0.083871	-0.225227
F203	F	0.495631	-0.114691	-0.813260
F204	F	0.995631	0.385309	-0.313260
F205	F	0.684480	-0.099035	-0.845992
F206	F	1.184480	0.400965	-0.345992
H207	H	1.073580	-0.918469	-0.725384
H208	H	1.573580	-0.418469	-0.225384
H209	H	0.563916	-0.271266	-0.485330
H210	H	1.063916	0.228734	0.014670
H211	H	0.876783	-0.272934	-0.481749
H212	H	1.376783	0.227066	0.018251
F213	F	1.394211	-0.605663	-0.499730
F214	F	1.894211	-0.105663	0.000270
H215	H	1.311862	-0.375363	-0.557442
H216	H	1.811862	0.124637	-0.057442
H217	H	1.311938	-0.474410	-0.557483
H218	H	1.811938	0.025590	-0.057483
H219	H	1.377828	-0.714340	-0.511321
H220	H	1.877828	-0.214340	-0.011321
H221	H	1.312213	-0.976759	-0.557627
H222	H	1.812213	-0.476759	-0.057627
