data_functionalizedCrystal
_audit_creation_method	'MofGen! by Chris Wilmer'
_symmetry_space_group_name_H-M	'P1'
_symmetry_Int_Tables_number	1
_symmetry_cell_setting	triclinic
loop_
_symmetry_equiv_pos_as_xyz
  x,y,z
_cell_length_a	16.098691
_cell_length_b	14.519709
_cell_length_c	14.519709
_cell_angle_alpha	96.319855
_cell_angle_beta	93.050352
_cell_angle_gamma	86.949594
loop_
_atom_site_label
_atom_site_type_symbol
_atom_site_fract_x
_atom_site_fract_y
_atom_site_fract_z
O1	O	-0.069138	-1.220196	0.117209
O2	O	-0.069166	-0.951717	0.131444
O3	O	-0.069144	-1.093075	-0.009912
O4	O	-0.069160	-1.078838	0.258564
O5	O	0.069366	-1.100419	-0.002539
O6	O	0.069344	-0.959061	0.138817
O7	O	0.069372	-1.227539	0.124582
Zn8	Zn	0.091349	-1.094466	0.132870
Zn9	Zn	-0.091144	-1.084791	0.123155
O10	O	0.069350	-1.086181	0.265937
C11	C	0.000085	-0.921029	0.134467
C12	C	0.000075	-0.818647	0.132478
N13	N	0.215896	-1.101076	0.139499
C14	C	0.000110	-0.443753	0.125160
C15	C	0.000100	-0.548061	0.127192
C16	C	0.000092	-0.631197	0.128819
C17	C	0.000083	-0.735511	0.130851
C18	C	0.259502	-1.047385	0.085762
C19	C	0.346690	-1.052032	0.090410
C20	C	0.390268	-1.110376	0.148792
C21	C	0.346656	-1.164068	0.202536
C22	C	0.259470	-1.159416	0.197892
C23	C	0.653512	-1.127221	0.165623
C24	C	0.740703	-1.131872	0.170262
C25	C	0.740731	-1.019834	0.058136
C26	C	0.653544	-1.015191	0.053493
C27	C	0.609939	-1.068880	0.107241
C28	C	0.479388	-1.115129	0.153543
C29	C	0.520821	-1.064121	0.102494
N30	N	0.784310	-1.078181	0.116524
C31	C	0.000111	-1.096084	-0.040585
C32	C	0.000111	-1.094095	-0.142966
C33	C	0.000116	-0.258227	0.121559
C34	C	0.000115	-0.360609	0.123547
C35	C	0.000089	-1.086775	-0.517863
C36	C	0.000096	-1.088808	-0.413555
C37	C	0.000101	-1.090435	-0.330418
C38	C	0.000106	-1.092468	-0.226103
C39	C	0.000093	-1.083173	0.296610
C40	C	0.000087	-1.085161	0.398991
H41	H	0.382190	-1.008312	0.046650
H42	H	0.223967	-1.203134	0.241654
C43	C	0.373481	-1.201955	0.358541
C44	C	0.394555	-1.228202	0.266711
H45	H	0.403055	-1.241549	0.398158
H46	H	0.315322	-1.206870	0.363461
H47	H	0.387786	-1.139649	0.376286
H48	H	0.380244	-1.290506	0.248964
H49	H	0.452727	-1.223295	0.261788
C50	C	0.662332	-0.904903	-0.056862
C51	C	0.605645	-0.951052	-0.010677
H52	H	0.632759	-0.865305	-0.096475
H53	H	0.696332	-0.949096	-0.092746
H54	H	0.696342	-0.868999	-0.012683
H55	H	0.571639	-0.986963	-0.054856
H56	H	0.571630	-0.906854	0.025209
H57	H	0.776244	-0.976122	0.014380
H58	H	0.485335	-1.016614	0.054964
C59	C	0.555435	-1.246014	0.166455
C60	C	0.605580	-1.186231	0.224699
H61	H	0.525836	-1.282438	0.202931
H62	H	0.589440	-1.285555	0.125920
H63	H	0.517010	-1.210589	0.131023
H64	H	0.644009	-1.221656	0.260126
H65	H	0.571571	-1.146685	0.265250
H66	H	0.224027	-0.999879	0.038218
C67	C	0.731923	-1.242147	0.280640
C68	C	0.788607	-1.196007	0.234442
H69	H	0.761499	-1.281736	0.320260
H70	H	0.697914	-1.278053	0.236476
H71	H	0.697923	-1.197943	0.316526
H72	H	0.822604	-1.240211	0.198549
H73	H	0.822631	-1.160099	0.278611
H74	H	0.514879	-1.162636	0.201075
