data_functionalizedCrystal
_audit_creation_method	'MofGen! by Chris Wilmer'
_symmetry_space_group_name_H-M	'P1'
_symmetry_Int_Tables_number	1
_symmetry_cell_setting	triclinic
loop_
_symmetry_equiv_pos_as_xyz
  x,y,z
_cell_length_a	21.395362
_cell_length_b	12.759400
_cell_length_c	21.395364
_cell_angle_alpha	90.009960
_cell_angle_beta	90.034975
_cell_angle_gamma	90.030564
loop_
_atom_site_label
_atom_site_type_symbol
_atom_site_fract_x
_atom_site_fract_y
_atom_site_fract_z
Zn1	Zn	0.957874	-0.417983	0.354606
Zn2	Zn	0.957822	-0.593636	0.249837
Zn3	Zn	0.853105	-0.418020	0.249807
Zn4	Zn	0.853087	-0.593669	0.354542
O5	O	0.905472	-0.505827	0.302198
O6	O	1.045545	-0.441254	0.340747
O7	O	0.943917	-0.570341	0.162155
O8	O	0.867032	-0.270994	0.263723
O9	O	1.045507	-0.570305	0.263774
O10	O	0.944005	-0.270967	0.340718
O11	O	0.866982	-0.441317	0.162133
O12	O	0.765425	-0.441350	0.263661
O13	O	0.867001	-0.570363	0.442228
O14	O	0.765412	-0.570399	0.340609
O15	O	0.943988	-0.441287	0.442275
O16	O	0.943899	-0.740661	0.263712
O17	O	0.866951	-0.740686	0.340638
C18	C	0.742684	-0.505883	0.302125
C19	C	0.673043	-0.505932	0.302109
C20	C	0.905435	-0.778794	0.302185
C21	C	0.905476	-0.895571	0.302200
C22	C	0.640339	-0.573216	0.342116
C23	C	0.574904	-0.573191	0.342144
C24	C	0.542175	-0.505891	0.302154
C25	C	0.574886	-0.438593	0.262144
C26	C	0.640320	-0.438614	0.262122
C27	C	0.438457	-0.497421	0.245748
C28	C	0.373024	-0.497408	0.245769
C29	C	0.340354	-0.505823	0.302223
C30	C	0.373125	-0.514272	0.358657
C31	C	0.438559	-0.514292	0.358634
C32	C	0.471222	-0.505861	0.302174
C33	C	0.236698	-0.573083	0.342263
C34	C	0.171261	-0.573050	0.342292
C35	C	0.171245	-0.438458	0.262287
C36	C	0.236680	-0.438486	0.262263
C37	C	0.269403	-0.505804	0.302251
C38	C	0.945588	-0.950385	0.262189
C39	C	0.945626	-1.060109	0.262208
C40	C	0.865436	-1.060195	0.342252
C41	C	0.865402	-0.950473	0.342235
C42	C	0.985662	-0.895483	0.222154
C43	C	1.025776	-0.950298	0.182139
C44	C	1.025815	-1.060022	0.182159
C45	C	0.985739	-1.114931	0.222193
C46	C	1.068895	-0.505772	0.302271
C47	C	1.138537	-0.505749	0.302302
C48	C	0.905498	-0.505824	0.465621
C49	C	0.905510	-0.505823	0.535262
C50	C	0.905526	-0.231794	0.302225
C51	C	0.905550	-0.115017	0.302236
C52	C	0.865456	-0.438645	0.567954
C53	C	0.865444	-0.438651	0.633390
C54	C	0.905498	-0.505823	0.666131
C55	C	0.945555	-0.573014	0.633431
C56	C	0.945561	-0.573014	0.567997
C57	C	0.961937	-0.514097	0.769836
C58	C	0.961933	-0.514089	0.835269
C59	C	0.905480	-0.505829	0.867951
C60	C	0.849031	-0.497555	0.835192
C61	C	0.849037	-0.497555	0.769758
C62	C	0.905496	-0.505831	0.737083
C63	C	0.865411	-0.438654	0.971596
C64	C	0.865399	-0.438667	1.037032
C65	C	0.945515	-0.573025	1.037072
C66	C	0.945521	-0.573017	0.971637
C67	C	0.905470	-0.505826	0.938903
C68	C	0.905447	-0.505850	1.139410
C69	C	0.905452	-0.505841	1.069769
H70	H	0.666978	-0.628030	0.374677
H71	H	0.144597	-0.383657	0.229729
H72	H	0.263342	-0.627892	0.374826
H73	H	0.803063	-0.490822	0.861801
Cl74	Cl	0.533782	-0.657784	0.392442
H75	H	0.832777	-0.383966	1.063649
Cl76	Cl	0.815058	-0.354194	0.930441
Cl77	Cl	0.479754	-0.524907	0.429576
Cl78	Cl	1.076248	-1.128929	0.131861
H79	H	0.832808	-1.104911	0.374845
Cl80	Cl	0.985792	-0.757545	0.222303
Cl81	Cl	0.130148	-0.657639	0.392595
Cl82	Cl	0.332061	-0.524845	0.429632
H83	H	0.803074	-0.490820	0.743089
Cl84	Cl	1.076160	-0.881271	0.131820
H85	H	0.985779	-1.204276	0.222210
Cl86	Cl	0.814976	-0.881558	0.392537
H87	H	0.832841	-0.383937	0.541306
Cl88	Cl	0.815101	-0.354169	0.674497
H89	H	0.465052	-0.490564	0.199774
Cl90	Cl	0.995865	-0.657478	1.078226
H91	H	0.978139	-0.627718	0.945019
Cl92	Cl	1.032895	-0.524503	0.876445
Cl93	Cl	1.032912	-0.524489	0.728757
Cl94	Cl	0.331834	-0.486785	0.174825
H95	H	0.666947	-0.383819	0.229543
H96	H	0.978167	-0.627707	0.660093
H97	H	0.548234	-0.383796	0.229585
H98	H	0.263308	-0.383701	0.229682
Cl99	Cl	0.995920	-0.657472	0.526896
