data_functionalizedCrystal
_audit_creation_method	'MofGen! by Chris Wilmer'
_symmetry_space_group_name_H-M	'P1'
_symmetry_Int_Tables_number	1
_symmetry_cell_setting	triclinic
loop_
_symmetry_equiv_pos_as_xyz
  x,y,z
_cell_length_a	15.995343
_cell_length_b	15.995350
_cell_length_c	15.072220
_cell_angle_alpha	89.998899
_cell_angle_beta	89.991823
_cell_angle_gamma	96.509221
loop_
_atom_site_label
_atom_site_type_symbol
_atom_site_fract_x
_atom_site_fract_y
_atom_site_fract_z
O1	O	1.111000	-0.107890	-0.073689
O2	O	0.867224	-0.121224	-0.073710
O3	O	0.995776	0.007331	-0.073698
O4	O	0.982448	-0.236445	-0.073701
O5	O	0.995744	0.007324	0.073867
O6	O	0.867192	-0.121231	0.073855
O7	O	1.110968	-0.107897	0.073876
Zn8	Zn	0.989075	-0.114565	0.097295
Zn9	Zn	0.989117	-0.114556	-0.097129
O10	O	0.982416	-0.236452	0.073864
C11	C	0.836013	-0.120678	0.000070
C12	C	0.743062	-0.119028	0.000062
C13	C	0.572876	-0.116035	0.000074
C14	C	0.549530	-0.023238	0.000075
C15	C	0.452852	-0.021492	0.000415
C16	C	0.405316	-0.113086	0.000085
C17	C	0.434389	-0.159750	0.084183
C18	C	0.531182	-0.160851	0.084249
C19	C	0.531129	-0.162201	-0.083566
C20	C	0.434634	-0.158776	-0.084666
C21	C	0.310618	-0.111425	0.000094
C22	C	0.667574	-0.117699	0.000071
C23	C	0.995209	0.038522	0.000083
C24	C	0.993557	0.131472	0.000078
C25	C	1.142179	-0.108444	0.000094
C26	C	1.235130	-0.110093	0.000097
C27	C	0.982983	-0.267643	0.000082
C28	C	0.984635	-0.360594	0.000081
N29	N	0.989053	-0.114571	0.229984
C30	C	0.987625	0.469220	0.000080
C31	C	0.896073	0.421783	-0.000259
C32	C	0.897725	0.325093	0.000074
C33	C	0.990567	0.301659	0.000078
C34	C	1.035706	0.342734	0.084348
C35	C	1.033406	0.439369	0.084418
C36	C	1.035333	0.439736	-0.083391
C37	C	1.035312	0.342790	-0.084505
C38	C	0.992235	0.206962	0.000080
C39	C	0.985960	0.563917	0.000084
N40	N	0.989146	-0.114543	-0.229817
C41	C	0.989115	-0.114553	0.589185
C42	C	0.920099	-0.183109	0.551572
C43	C	0.920257	-0.183360	0.448746
C44	C	0.989083	-0.114562	0.410981
C45	C	1.076449	-0.133641	0.448280
C46	C	1.076062	-0.134128	0.551138
C47	C	0.971546	-0.026714	0.551285
C48	C	0.969541	-0.027300	0.448421
C49	C	0.989071	-0.114565	0.310268
C50	C	0.989133	-0.114551	0.689899
H51	H	0.401678	-0.225608	-0.090006
H52	H	0.859493	0.440317	-0.060690
H53	H	1.103018	0.327431	-0.089589
H54	H	0.854949	-0.171929	0.576328
H55	H	1.103914	0.328610	0.087485
H56	H	1.016544	0.026107	0.422717
H57	H	1.092301	-0.196971	0.422511
H58	H	1.129023	-0.086164	0.576017
H59	H	0.545142	-0.230506	-0.084378
H60	H	0.931163	-0.247926	0.577411
H61	H	1.021876	0.024304	0.575608
H62	H	0.862241	0.296673	-0.060334
H63	H	0.861977	0.297224	0.060579
H64	H	0.909223	-0.008367	0.577270
H65	H	0.855317	-0.171992	0.423530
H66	H	0.578502	0.012142	0.060294
H67	H	1.000464	0.457667	0.147407
H68	H	1.129033	-0.085036	0.423815
H69	H	0.416090	-0.124793	-0.146884
H70	H	0.402543	-0.227161	0.087074
H71	H	0.433846	0.015036	-0.059858
H72	H	1.004329	0.314348	0.147055
H73	H	1.102835	0.471498	-0.083954
H74	H	0.931476	-0.248543	0.424133
H75	H	1.100622	0.471619	0.088244
H76	H	0.859629	0.441373	0.059830
H77	H	1.005414	0.460278	-0.147262
H78	H	1.002310	0.315544	-0.146845
H79	H	0.577551	0.012734	-0.060224
H80	H	1.091544	-0.198189	0.575120
H81	H	0.434402	0.014859	0.061054
H82	H	0.557954	-0.128918	0.147354
H83	H	0.545755	-0.228901	0.087844
H84	H	0.559412	-0.132921	-0.147330
H85	H	0.905274	-0.012820	0.424043
H86	H	0.414284	-0.127739	0.147008
