data_functionalizedCrystal
_audit_creation_method	'MofGen! by Chris Wilmer'
_symmetry_space_group_name_H-M	'P1'
_symmetry_Int_Tables_number	1
_symmetry_cell_setting	triclinic
loop_
_symmetry_equiv_pos_as_xyz
  x,y,z
_cell_length_a	14.044220
_cell_length_b	9.565339
_cell_length_c	14.044220
_cell_angle_alpha	89.997689
_cell_angle_beta	86.811122
_cell_angle_gamma	89.992574
loop_
_atom_site_label
_atom_site_type_symbol
_atom_site_fract_x
_atom_site_fract_y
_atom_site_fract_z
O1	O	1.277158	0.116117	-0.230162
O2	O	1.000487	0.116152	-0.221857
O3	O	1.134670	0.116121	-0.087674
O4	O	1.142975	0.116148	-0.364345
O5	O	1.134676	-0.116399	-0.087679
O6	O	1.000493	-0.116368	-0.221861
O7	O	1.277165	-0.116403	-0.230167
Zn8	Zn	1.138830	-0.153303	-0.226015
Zn9	Zn	1.138821	0.153052	-0.226009
O10	O	1.142982	-0.116372	-0.364350
C11	C	0.964868	-0.000104	-0.218223
C12	C	0.858725	-0.000091	-0.207379
N13	N	1.138843	-0.362383	-0.226019
C14	C	0.664388	-0.000120	-0.187553
C15	C	0.613258	-0.000119	-0.264467
C16	C	0.505122	-0.000135	-0.253435
C17	C	0.772534	-0.000104	-0.198583
C18	C	1.200920	-0.453563	-0.163970
C19	C	1.113081	-0.546724	-0.138133
C20	C	1.226643	-0.546777	-0.251792
C21	C	1.050957	-0.453492	-0.200135
C22	C	1.164579	-0.453537	-0.313837
C23	C	1.076681	-0.546656	-0.288031
C24	C	1.312783	-0.000145	-0.233800
C25	C	1.418926	-0.000148	-0.244645
C26	C	1.131037	-0.000139	-0.052054
C27	C	1.120193	-0.000139	0.054088
N28	N	1.138815	0.362131	-0.225998
C29	C	1.146614	-0.000109	-0.399969
C30	C	1.157459	-0.000100	-0.506112
C31	C	1.100366	-0.000117	0.248426
C32	C	1.177281	-0.000122	0.299556
C33	C	1.166249	-0.000110	0.407692
C34	C	1.111397	-0.000129	0.140280
H35	H	0.650697	-0.000105	-0.338600
H36	H	1.026239	-0.000104	0.285863
O37	O	0.619687	0.000123	-0.099136
C38	C	0.511525	0.120541	0.012005
C39	C	0.562120	0.120448	-0.088143
H40	H	0.464954	0.217797	0.020918
H41	H	0.567034	0.120638	0.068228
H42	H	0.465078	0.023183	0.020987
H43	H	0.608564	0.217788	-0.097217
H44	H	0.506562	0.120277	-0.144315
O45	O	1.263600	-0.404949	-0.101400
C46	C	1.426795	-0.399170	-0.056876
C47	C	1.355917	-0.454352	-0.127794
H48	H	1.501451	-0.439066	-0.078201
H49	H	1.404740	-0.437496	0.017993
H50	H	1.426669	-0.279999	-0.057953
H51	H	1.356007	-0.573520	-0.126801
H52	H	1.377997	-0.415918	-0.202629
H53	H	1.091296	-0.587658	-0.063857
O54	O	1.190426	-0.404593	-0.402445
C55	C	1.145150	-0.268032	-0.536845
C56	C	1.115736	-0.323395	-0.436511
H57	H	1.084787	-0.202348	-0.564409
H58	H	1.160585	-0.359831	-0.587128
H59	H	1.211895	-0.200849	-0.533248
H60	H	1.048975	-0.390557	-0.440016
H61	H	1.100364	-0.231532	-0.386268
H62	H	1.251414	-0.000038	0.262117
O63	O	0.962267	-0.405063	-0.174033
C64	C	0.799778	-0.463859	-0.126099
C65	C	0.900163	-0.518897	-0.155671
H66	H	0.749544	-0.555866	-0.111226
H67	H	0.772237	-0.397489	-0.186133
H68	H	0.803257	-0.397459	-0.058976
H69	H	0.896765	-0.585355	-0.222772
H70	H	0.927666	-0.585190	-0.095580
O71	O	1.014104	-0.595193	-0.350729
C72	C	0.992341	-0.731358	-0.492222
C73	C	1.063316	-0.676453	-0.421307
H74	H	1.032098	-0.797093	-0.549290
H75	H	0.956403	-0.639328	-0.527287
H76	H	0.935957	-0.798382	-0.452541
H77	H	1.119755	-0.609452	-0.460917
H78	H	1.099182	-0.768547	-0.386243
H79	H	1.300906	-0.587752	-0.273600
