data_functionalizedCrystal
_audit_creation_method	'MofGen! by Chris Wilmer'
_symmetry_space_group_name_H-M	'P1'
_symmetry_Int_Tables_number	1
_symmetry_cell_setting	triclinic
loop_
_symmetry_equiv_pos_as_xyz
  x,y,z
_cell_length_a	17.699083
_cell_length_b	9.482900
_cell_length_c	17.699083
_cell_angle_alpha	80.685531
_cell_angle_beta	83.283015
_cell_angle_gamma	99.264376
loop_
_atom_site_label
_atom_site_type_symbol
_atom_site_fract_x
_atom_site_fract_y
_atom_site_fract_z
O1	O	1.015874	0.120691	0.083859
O2	O	0.795500	0.120739	0.096307
O3	O	0.911912	0.120701	-0.020105
O4	O	0.899462	0.120730	0.200271
O5	O	0.888266	-0.121084	0.003636
O6	O	0.771854	-0.121045	0.120047
O7	O	0.992228	-0.121093	0.107599
Cu8	Cu	0.879882	-0.143146	0.115991
Cu9	Cu	0.907846	0.142792	0.087915
O10	O	0.875816	-0.121055	0.224011
C11	C	0.755481	-0.000147	0.107730
C12	C	0.671465	-0.000129	0.106390
N13	N	0.860219	-0.344260	0.135738
C14	C	0.622845	-0.000121	0.174722
C15	C	0.543899	-0.000140	0.173462
C16	C	0.513577	-0.000157	0.103867
C17	C	0.562203	-0.000169	0.035530
C18	C	0.641145	-0.000161	0.036792
C19	C	0.243836	-0.000206	0.030438
C20	C	0.164888	-0.000210	0.029181
C21	C	0.146590	-0.000185	0.167108
C22	C	0.225533	-0.000176	0.168370
C23	C	0.274151	-0.000197	0.100034
C24	C	0.359752	-0.000179	0.101402
C25	C	0.427979	-0.000164	0.102498
C26	C	0.902041	-0.416473	0.093735
C27	C	0.885687	-0.583885	0.110171
C28	C	1.032248	-0.000204	0.096176
C29	C	1.116265	-0.000212	0.097515
C30	C	0.899643	-0.000191	-0.036432
C31	C	0.898304	-0.000192	-0.120450
N32	N	0.927515	0.343906	0.068162
C33	C	0.966636	-0.000209	-0.169069
C34	C	0.965375	-0.000195	-0.248014
C35	C	0.895781	-0.000176	-0.278336
C36	C	0.827444	-0.000154	-0.229711
C37	C	0.828707	-0.000157	-0.150769
C38	C	0.822350	-0.000141	-0.548076
C39	C	0.821092	-0.000143	-0.627024
C40	C	0.959018	-0.000180	-0.645320
C41	C	0.960281	-0.000182	-0.566378
C42	C	0.891946	-0.000154	-0.517761
C43	C	0.893314	-0.000165	-0.432160
C44	C	0.894410	-0.000175	-0.363934
C45	C	0.888086	-0.000160	0.240338
C46	C	0.889426	-0.000150	0.324355
H47	H	0.504316	-0.000131	0.229105
O48	O	0.290956	-0.000155	-0.036018
C49	C	0.247258	-0.000204	-0.097708
H50	H	0.192778	0.045576	-0.082881
H51	H	0.230336	-0.116205	-0.107655
C52	C	0.362890	0.038372	-0.189897
C53	C	0.295980	0.094612	-0.171689
H54	H	0.392944	0.096853	-0.235533
H55	H	0.392331	0.038400	-0.148335
H56	H	0.348778	-0.058294	-0.198180
H57	H	0.310092	0.191269	-0.163396
H58	H	0.266542	0.094603	-0.213251
H59	H	1.021017	-0.000212	-0.287597
O60	O	1.027958	-0.000136	-0.537056
C61	C	1.087997	-0.000182	-0.596895
H62	H	1.071357	0.045596	-0.654978
H63	H	1.097726	-0.116182	-0.596718
C64	C	1.183356	0.038400	-0.512698
C65	C	1.162921	0.094637	-0.584036
H66	H	1.229574	0.096883	-0.504765
H67	H	1.142907	0.038425	-0.472382
H68	H	1.191458	-0.058266	-0.512559
H69	H	1.154810	0.191294	-0.584170
H70	H	1.203371	0.094630	-0.624352
H71	H	0.812303	-0.406374	0.183862
O72	O	0.756014	0.000135	-0.500852
C73	C	0.764865	0.125342	-0.466919
H74	H	0.812183	0.212855	-0.504489
H75	H	0.781573	0.097029	-0.406766
C76	C	0.629926	0.074657	-0.414216
C77	C	0.688039	0.182146	-0.460364
H78	H	0.582536	0.109694	-0.410168
H79	H	0.623964	-0.009701	-0.437074
H80	H	0.643860	0.051073	-0.364093
H81	H	0.674110	0.205715	-0.510487
H82	H	0.693998	0.266510	-0.437514
H83	H	0.680732	-0.000167	-0.018852
H84	H	1.014661	-0.000196	-0.684915
H85	H	0.537506	-0.000204	-0.021134
O86	O	0.984507	-0.582002	0.010574
C87	C	0.952326	-0.494214	-0.044514
H88	H	0.895396	-0.471422	-0.016241
H89	H	0.941247	-0.553055	-0.094558
C90	C	1.078962	-0.377618	-0.110005
C91	C	1.009043	-0.349614	-0.075278
H92	H	1.113949	-0.288425	-0.128985
H93	H	1.100644	-0.436766	-0.072894
H94	H	1.069719	-0.426655	-0.151704
H95	H	1.018285	-0.300595	-0.033574
H96	H	0.987364	-0.290455	-0.112383
H97	H	0.647526	-0.000106	0.231394
H98	H	0.770780	-0.000129	-0.254407
H99	H	1.023307	-0.000233	-0.144386
H100	H	0.949952	-0.354361	0.045605
H101	H	0.250217	-0.000156	0.225041
H102	H	0.764416	-0.000130	-0.651708
H103	H	0.773064	-0.000143	-0.111184
H104	H	0.106994	-0.000176	0.222751
O105	O	0.828475	-0.658130	0.167502
C106	C	0.773164	-0.746156	0.135767
H107	H	0.801061	-0.768807	0.078650
H108	H	0.722899	-0.687595	0.125135
C109	C	0.708699	-0.863000	0.262772
C110	C	0.742964	-0.890830	0.192623
H111	H	0.690067	-0.952239	0.297844
H112	H	0.745961	-0.803691	0.284153
H113	H	0.666815	-0.814195	0.253901
H114	H	0.784852	-0.939617	0.201493
H115	H	0.705708	-0.950151	0.171244
H116	H	0.140203	-0.000226	-0.027495
