data_functionalizedCrystal
_audit_creation_method	'MofGen! by Chris Wilmer'
_symmetry_space_group_name_H-M	'P1'
_symmetry_Int_Tables_number	1
_symmetry_cell_setting	triclinic
loop_
_symmetry_equiv_pos_as_xyz
  x,y,z
_cell_length_a	6.817900
_cell_length_b	16.256275
_cell_length_c	16.255661
_cell_angle_alpha	95.350152
_cell_angle_beta	103.488922
_cell_angle_gamma	103.500333
loop_
_atom_site_label
_atom_site_type_symbol
_atom_site_fract_x
_atom_site_fract_y
_atom_site_fract_z
V1	V	-4.026776	-0.117778	-0.264174
O2	O	-4.014188	0.004956	-0.258835
O3	O	-3.978390	-0.232858	-0.262665
O4	O	-3.978337	-0.116275	-0.379253
O5	O	-4.014241	-0.112433	-0.141440
V6	V	-4.510407	-0.103061	-0.249458
O7	O	-4.287797	-0.150061	-0.296455
O8	O	-4.699583	-0.070779	-0.217177
O9	O	-4.335586	0.012018	-0.250967
O10	O	-4.640392	-0.225796	-0.254796
O11	O	-4.640339	-0.108406	-0.372192
O12	O	-4.335639	-0.104564	-0.134378
C13	C	-3.823396	-0.260902	-0.258575
C14	C	-3.865121	-0.354983	-0.258108
C15	C	-3.823327	-0.112188	-0.407293
C16	C	-3.865007	-0.111721	-0.501373
C17	C	-4.156068	-0.586814	-0.261383
C18	C	-4.122322	-0.651960	-0.329022
C19	C	-3.941423	-0.527229	-0.257239
C20	C	-4.049504	-0.629721	-0.188785
C21	C	-4.015138	-0.693610	-0.256397
C22	C	-3.907157	-0.591145	-0.324943
C23	C	-3.834331	-0.568892	-0.184644
C24	C	-3.800444	-0.634012	-0.252297
C25	C	-3.898963	-0.431381	-0.257726
C26	C	-4.057586	-0.789457	-0.255916
C27	C	-3.775560	-0.106138	-0.724178
C28	C	-3.932015	-0.178197	-0.793839
C29	C	-3.941391	-0.110845	-0.673620
C30	C	-3.859225	-0.037961	-0.771594
C31	C	-4.015158	-0.109994	-0.840001
C32	C	-4.097328	-0.182968	-0.742051
C33	C	-4.024476	-0.042668	-0.719790
C34	C	-4.181067	-0.114748	-0.789432
C35	C	-3.898890	-0.111335	-0.577772
C36	C	-4.057676	-0.109510	-0.935848
C37	C	-4.153923	0.040058	-0.255055
C38	C	-4.091435	0.134138	-0.255527
C39	C	-4.153992	-0.108654	-0.106334
C40	C	-4.091551	-0.109117	-0.012253
H41	H	-4.244457	-0.688006	-0.390060
H42	H	-4.197577	-0.244317	-0.728742
H43	H	-4.352942	-0.118407	-0.817788
C44	C	-3.512185	0.049118	-0.756620
C45	C	-3.723882	0.044775	-0.789707
H46	H	-3.428625	0.100197	-0.767796
H47	H	-3.480727	0.000966	-0.783063
H48	H	-3.483627	0.049152	-0.696555
H49	H	-3.752443	0.044735	-0.849773
H50	H	-3.755351	0.092940	-0.763266
C51	C	-4.331286	-0.499121	-0.194205
C52	C	-4.358473	-0.558647	-0.266685
H53	H	-4.456246	-0.481738	-0.197481
H54	H	-4.219673	-0.450631	-0.191784
H55	H	-4.299536	-0.524633	-0.144196
H56	H	-4.390208	-0.533133	-0.316694
H57	H	-4.470121	-0.607146	-0.269115
H58	H	-4.063039	0.014633	-0.687534
C59	C	-3.743947	-0.539321	-0.031056
C60	C	-3.669521	-0.520206	-0.102246
H61	H	-3.642208	-0.509260	0.019817
H62	H	-3.770359	-0.599159	-0.029911
H63	H	-3.869737	-0.522493	-0.034787
H64	H	-3.543739	-0.537040	-0.098518
H65	H	-3.643082	-0.460355	-0.103391
C66	C	-3.787163	-0.479546	-0.402504
C67	C	-3.825614	-0.568039	-0.402733
H68	H	-3.736856	-0.465284	-0.450536
H69	H	-3.685462	-0.450318	-0.351318
H70	H	-3.913110	-0.463025	-0.405516
H71	H	-3.699662	-0.584559	-0.399715
H72	H	-3.927321	-0.597277	-0.453932
H73	H	-4.110140	-0.646963	-0.131245
C74	C	-3.495339	-0.172436	-0.723448
C75	C	-3.543703	-0.101349	-0.685705
H76	H	-3.352208	-0.169483	-0.699691
H77	H	-3.520694	-0.172600	-0.783459
H78	H	-3.580296	-0.223435	-0.712778
H79	H	-3.458756	-0.050350	-0.696381
H80	H	-3.518327	-0.101176	-0.625679
H81	H	-3.650355	-0.654729	-0.248471
H82	H	-3.893373	-0.235496	-0.826072
