data_functionalizedCrystal
_audit_creation_method	'MofGen! by Chris Wilmer'
_symmetry_space_group_name_H-M	'P1'
_symmetry_Int_Tables_number	1
_symmetry_cell_setting	triclinic
loop_
_symmetry_equiv_pos_as_xyz
  x,y,z
_cell_length_a	10.908937
_cell_length_b	8.140239
_cell_length_c	9.065218
_cell_angle_alpha	89.998314
_cell_angle_beta	72.550920
_cell_angle_gamma	89.995517
loop_
_atom_site_label
_atom_site_type_symbol
_atom_site_fract_x
_atom_site_fract_y
_atom_site_fract_z
O1	O	1.701194	-0.136667	-0.227193
O2	O	1.328669	-0.136657	-0.112319
O3	O	1.522631	-0.136659	-0.386406
O4	O	1.507231	-0.136665	0.046894
O5	O	1.522621	0.136568	-0.386406
O6	O	1.328658	0.136570	-0.112319
O7	O	1.701183	0.136560	-0.227193
Zn8	Zn	1.514919	0.179946	-0.169756
Zn9	Zn	1.514933	-0.180043	-0.169756
O10	O	1.507221	0.136562	0.046894
C11	C	1.280947	-0.000042	-0.101584
C12	C	1.138768	-0.000038	-0.069613
C13	C	1.521146	-0.000048	-0.441007
C14	C	1.516721	-0.000056	-0.603696
C15	C	0.941453	-0.000066	-0.153241
C16	C	1.088404	-0.000045	-0.186287
C17	C	1.748905	-0.000059	-0.237929
C18	C	1.891084	-0.000074	-0.269899
N19	N	1.514918	0.425628	-0.169759
N20	N	1.514944	-0.425725	-0.169767
C21	C	1.508706	-0.000053	0.101495
C22	C	1.513131	-0.000056	0.264184
H23	H	0.875785	-0.000085	-0.028902
C24	C	1.102366	-0.000057	-0.455706
C25	C	1.177036	-0.000041	-0.354158
H26	H	1.157087	-0.000065	-0.559339
H27	H	1.049686	0.095214	-0.438340
H28	H	1.049698	-0.095348	-0.438323
H29	H	1.229697	0.095257	-0.371533
H30	H	1.229738	-0.095321	-0.371533
C31	C	0.921717	-0.000073	0.098508
C32	C	1.050136	-0.000054	0.098258
H33	H	0.867003	-0.000074	0.202144
H34	H	0.905540	-0.095349	0.046787
H35	H	0.905513	0.095212	0.046783
H36	H	1.066343	-0.095345	0.149973
H37	H	1.066320	0.095233	0.150001
H38	H	0.956753	-0.000075	-0.394239
