data_functionalizedCrystal
_audit_creation_method	'MofGen! by Chris Wilmer'
_symmetry_space_group_name_H-M	'P1'
_symmetry_Int_Tables_number	1
_symmetry_cell_setting	triclinic
loop_
_symmetry_equiv_pos_as_xyz
  x,y,z
_cell_length_a	12.759399
_cell_length_b	12.594517
_cell_length_c	12.759401
_cell_angle_alpha	90.004439
_cell_angle_beta	90.007718
_cell_angle_gamma	90.015322
loop_
_atom_site_label
_atom_site_type_symbol
_atom_site_fract_x
_atom_site_fract_y
_atom_site_fract_z
Zn1	Zn	-0.418456	1.627093	0.594080
Zn2	Zn	-0.594102	1.627038	0.418401
Zn3	Zn	-0.418437	1.449150	0.418409
Zn4	Zn	-0.594093	1.449081	0.594031
O5	O	-0.506272	1.538091	0.506230
O6	O	-0.441767	1.776032	0.570793
O7	O	-0.570796	1.603447	0.271381
O8	O	-0.271418	1.472806	0.441736
O9	O	-0.570814	1.775991	0.441722
O10	O	-0.271432	1.603541	0.570801
O11	O	-0.441735	1.472753	0.271387
O12	O	-0.441726	1.300195	0.441689
O13	O	-0.570798	1.472689	0.741059
O14	O	-0.570780	1.300145	0.570718
O15	O	-0.441758	1.603474	0.741095
O16	O	-0.741122	1.603380	0.441675
O17	O	-0.741115	1.472636	0.570710
C18	C	-0.506251	1.261550	0.506199
C19	C	-0.506267	1.143244	0.506211
C20	C	-0.779239	1.538023	0.506209
C21	C	-0.896016	1.538092	0.506235
C22	C	-1.060518	1.606202	0.573532
C23	C	-0.950794	1.606137	0.573501
C24	C	-0.950967	1.470115	0.438989
C25	C	-1.060689	1.470187	0.439016
C26	C	-1.060417	1.684730	0.651195
C27	C	-0.950693	1.684665	0.651164
C28	C	-0.435979	1.073988	0.436166
C29	C	-0.531804	1.003185	0.410324
C30	C	-0.410489	1.003248	0.532071
C31	C	-0.602142	1.074000	0.480319
C32	C	-0.480763	1.074069	0.602111
C33	C	-0.576654	1.003298	0.576305
C34	C	-0.232238	1.538187	0.506275
C35	C	-0.115462	1.538228	0.506293
C36	C	-0.506279	1.538080	0.780264
C37	C	-0.506282	1.538076	0.897040
C38	C	-0.506294	1.815711	0.506262
C39	C	-0.506303	1.934017	0.506275
C40	C	-0.573463	1.469983	0.951885
C41	C	-0.573469	1.469990	1.061609
C42	C	-0.439103	1.606186	1.061634
C43	C	-0.439104	1.606183	0.951912
C44	C	-0.651035	1.391348	0.951872
C45	C	-0.651041	1.391355	1.061596
C46	C	-0.506289	1.538090	1.233263
C47	C	-0.506287	1.538086	1.116486
H48	H	-1.105420	1.414846	0.384253
H49	H	-1.094447	1.655143	0.728464
O50	O	-0.910143	1.778091	0.616333
C51	C	-0.898256	1.902745	0.473565
C52	C	-0.944269	1.796939	0.512888
H53	H	-0.925811	1.918007	0.389918
H54	H	-0.925791	1.970156	0.526450
H55	H	-0.809029	1.898366	0.475200
H56	H	-1.033497	1.801214	0.511252
H57	H	-0.916652	1.729572	0.459994
O58	O	-0.647802	0.966542	0.646885
C59	C	-0.829123	0.961138	0.699407
C60	C	-0.748660	1.002818	0.619394
H61	H	-0.910681	0.990469	0.677222
H62	H	-0.828227	0.870624	0.699404
H63	H	-0.808008	0.991527	0.780884
H64	H	-0.769718	0.972507	0.537878
H65	H	-0.749570	1.093331	0.619489
H66	H	-0.384409	1.661637	1.106323
H67	H	-0.728343	1.420852	1.095617
O68	O	-0.455094	1.111128	0.698878
C69	C	-0.499101	1.115744	0.882472
C70	C	-0.528290	1.073674	0.772949
H71	H	-0.558276	1.085497	0.942384
H72	H	-0.417389	1.086702	0.904468
H73	H	-0.500062	1.206251	0.881627
H74	H	-0.527389	0.983169	0.773710
H75	H	-0.609984	1.102797	0.750996
H76	H	-0.384409	1.661641	0.907261
O77	O	-0.625147	1.292949	1.097008
C78	C	-0.669468	1.106985	1.100390
C79	C	-0.698899	1.218359	1.060194
H80	H	-0.729093	1.046652	1.070660
H81	H	-0.588125	1.084838	1.070605
H82	H	-0.669434	1.107032	1.189737
H83	H	-0.698994	1.218397	0.970850
H84	H	-0.780223	1.240461	1.090059
O85	O	-0.748157	1.417704	0.916505
C86	C	-0.925156	1.465587	0.962303
C87	C	-0.815212	1.435781	1.002498
H88	H	-0.979407	1.480188	1.031807
H89	H	-0.919932	1.540690	0.912706
H90	H	-0.957540	1.397865	0.912624
H91	H	-0.782765	1.503433	1.052219
H92	H	-0.820502	1.360644	1.052037
O93	O	-0.897596	1.404053	0.373742
C94	C	-0.728641	1.343710	0.314035
C95	C	-0.788949	1.418564	0.387997
H96	H	-0.640789	1.355432	0.325519
H97	H	-0.750202	1.257858	0.332411
H98	H	-0.750297	1.362478	0.229354
H99	H	-0.767325	1.399892	0.472703
H100	H	-0.767382	1.504394	0.369530
H101	H	-0.920903	1.662495	0.732506
O102	O	-0.313875	0.966221	0.558326
C103	C	-0.176859	0.961930	0.688245
C104	C	-0.286292	1.003912	0.658667
H105	H	-0.154514	0.992405	0.769362
H106	H	-0.177964	0.871420	0.688852
H107	H	-0.117046	0.990947	0.628372
H108	H	-0.346165	0.974974	0.718510
H109	H	-0.285100	1.094420	0.658026
H110	H	-0.376597	1.105026	0.376858
H111	H	-0.553398	0.972051	0.329251
H112	H	-1.090128	1.767204	0.629490
O113	O	-0.698826	1.110786	0.453993
C114	C	-0.835269	1.115669	0.323491
C115	C	-0.725782	1.073914	0.353186
H116	H	-0.857087	1.085894	0.241979
H117	H	-0.895304	1.085917	0.382790
H118	H	-0.834437	1.206182	0.323701
H119	H	-0.726511	0.983404	0.352966
H120	H	-0.665793	1.103747	0.293881
H121	H	-0.621881	1.313053	0.917839
