data_functionalizedCrystal
_audit_creation_method	'MofGen! by Chris Wilmer'
_symmetry_space_group_name_H-M	'P1'
_symmetry_Int_Tables_number	1
_symmetry_cell_setting	triclinic
loop_
_symmetry_equiv_pos_as_xyz
  x,y,z
_cell_length_a	14.044191
_cell_length_b	10.654550
_cell_length_c	9.730223
_cell_angle_alpha	90.000193
_cell_angle_beta	90.002006
_cell_angle_gamma	91.161660
loop_
_atom_site_label
_atom_site_type_symbol
_atom_site_fract_x
_atom_site_fract_y
_atom_site_fract_z
O1	O	1.259695	-0.303022	-0.114217
O2	O	1.759695	0.196978	0.385783
O3	O	0.983653	-0.292080	-0.114234
O4	O	1.483653	0.207920	0.385766
O5	O	1.128021	-0.115450	-0.114220
O6	O	1.628021	0.384550	0.385780
O7	O	1.115328	-0.479652	-0.114231
O8	O	1.615328	0.020348	0.385769
O9	O	1.128019	-0.115454	0.114360
O10	O	1.628019	0.384546	0.614360
O11	O	0.983652	-0.292084	0.114346
O12	O	1.483652	0.207916	0.614346
O13	O	1.259693	-0.303027	0.114363
O14	O	1.759693	0.196973	0.614363
Zn15	Zn	1.121672	-0.297556	0.150647
Zn16	Zn	1.621672	0.202444	0.650647
Zn17	Zn	1.121675	-0.297550	-0.150517
Zn18	Zn	1.621675	0.202450	0.349483
O19	O	1.115326	-0.479657	0.114349
O20	O	1.615326	0.020343	0.614349
C21	C	0.948307	-0.287295	0.000054
C22	C	1.448307	0.212705	0.500054
C23	C	0.842987	-0.273016	0.000047
C24	C	1.342987	0.226984	0.500047
C25	C	0.593195	-0.348181	0.000058
C26	C	1.093195	0.151819	0.500058
C27	C	0.650158	-0.246931	0.000059
C28	C	1.150158	0.253069	0.500059
C29	C	0.757458	-0.261448	0.000052
C30	C	1.257458	0.238552	0.500052
C31	C	0.485885	-0.333666	0.000065
C32	C	0.985885	0.166334	0.500065
C33	C	1.127088	-0.068560	0.000068
C34	C	1.627088	0.431440	0.500068
C35	C	1.124300	0.071163	0.000063
C36	C	1.624300	0.571163	0.500063
C37	C	1.295040	-0.307812	0.000073
C38	C	1.795040	0.192188	0.500073
C39	C	1.400360	-0.322091	0.000070
C40	C	1.900360	0.177909	0.500070
C41	C	1.116259	-0.526546	0.000058
C42	C	1.616259	-0.026546	0.500058
C43	C	1.119047	-0.666270	0.000054
C44	C	1.619047	-0.166270	0.500054
N45	N	1.121678	-0.297561	0.356183
N46	N	1.621678	0.202439	0.856183
C47	C	1.209301	0.142104	0.000073
C48	C	1.709301	0.642104	0.500073
C49	C	1.206675	0.273389	0.000063
C50	C	1.706675	0.773389	0.500063
C51	C	1.034039	0.262779	0.000040
C52	C	1.534039	0.762779	0.500040
C53	C	1.036666	0.131497	0.000040
C54	C	1.536666	0.631497	0.500040
C55	C	1.308971	0.148231	0.000092
C56	C	1.808971	0.648231	0.500092
C57	C	1.306345	0.279515	0.000083
C58	C	1.806345	0.779515	0.500083
N59	N	1.121677	-0.297537	-0.356054
N60	N	1.621677	0.202463	0.143946
C61	C	1.185620	-0.219379	0.428115
C62	C	1.685620	0.280621	0.928115
C63	C	1.185618	-0.219364	0.571998
C64	C	1.685618	0.280636	1.071998
C65	C	1.057727	-0.375721	0.572004
C66	C	1.557727	0.124279	1.072004
C67	C	1.057726	-0.375730	0.428123
C68	C	1.557726	0.124270	0.928123
C69	C	1.259460	-0.129111	0.428113
C70	C	1.759460	0.370889	0.928113
C71	C	1.259457	-0.129096	0.571996
C72	C	1.759457	0.370904	1.071996
H73	H	0.967450	0.073741	0.000013
H74	H	1.467450	0.573741	0.500013
Cl75	Cl	0.923878	0.338637	0.000008
Cl76	Cl	1.423878	0.838637	0.500008
H77	H	1.005651	-0.439379	0.369557
H78	H	1.505651	0.060621	0.869557
H79	H	1.328330	-0.166623	0.383491
H80	H	1.828330	0.333377	0.883491
Cl81	Cl	1.352850	0.345324	-0.152285
Cl82	Cl	1.852850	0.845324	0.347715
H83	H	0.618341	-0.149345	-0.000035
H84	H	1.118341	0.350655	0.499965
H85	H	0.625010	-0.445759	0.000051
H86	H	1.125010	0.054241	0.500051
H87	H	1.347956	0.114956	-0.095559
H88	H	1.847956	0.614956	0.404441
H89	H	1.340709	0.109411	0.098791
H90	H	1.840709	0.609411	0.598791
Cl91	Cl	1.364320	0.338168	0.147772
Cl92	Cl	1.864320	0.838168	0.647772
H93	H	1.005659	-0.439364	0.630593
H94	H	1.505659	0.060636	1.130593
Cl95	Cl	1.234454	0.022435	0.367808
Cl96	Cl	1.734454	0.522435	0.867808
Cl97	Cl	1.223868	0.015312	0.640893
Cl98	Cl	1.723868	0.515312	1.140893
Cl99	Cl	1.371998	-0.173620	0.632305
Cl100	Cl	1.871998	0.326380	1.132305
