data_functionalizedCrystal
_audit_creation_method	'MofGen! by Chris Wilmer'
_symmetry_space_group_name_H-M	'P1'
_symmetry_Int_Tables_number	1
_symmetry_cell_setting	triclinic
loop_
_symmetry_equiv_pos_as_xyz
  x,y,z
_cell_length_a	10.723023
_cell_length_b	9.198806
_cell_length_c	19.288857
_cell_angle_alpha	90.005332
_cell_angle_beta	83.800328
_cell_angle_gamma	90.003809
loop_
_atom_site_label
_atom_site_type_symbol
_atom_site_fract_x
_atom_site_fract_y
_atom_site_fract_z
O1	O	1.655138	0.120896	0.097413
O2	O	1.291789	0.120901	0.106738
O3	O	1.483967	0.120881	0.001013
O4	O	1.462959	0.120916	0.203138
O5	O	1.483952	-0.120904	0.001013
O6	O	1.291774	-0.120884	0.106738
O7	O	1.655123	-0.120889	0.097413
Cu8	Cu	1.473447	-0.142964	0.102075
Cu9	Cu	1.473465	0.142975	0.102076
O10	O	1.462944	-0.120869	0.203138
C11	C	1.245296	0.000008	0.106060
C12	C	1.106785	0.000010	0.104030
C13	C	0.901872	-0.125237	0.101026
C14	C	1.045031	-0.125241	0.103125
N15	N	1.473443	-0.344078	0.102075
C16	C	1.554138	-0.416283	0.057488
C17	C	1.554157	-0.583695	0.057486
C18	C	1.701616	0.000006	0.098092
C19	C	1.840127	0.000015	0.100122
C20	C	1.483286	-0.000013	-0.024868
C21	C	1.481261	-0.000017	-0.101985
N22	N	1.473478	0.344089	0.102071
C23	C	1.480325	0.131780	-0.138201
C24	C	1.478405	0.131791	-0.210660
C25	C	1.477447	-0.000003	-0.246901
C26	C	1.478376	-0.131818	-0.210675
C27	C	1.480283	-0.131825	-0.138217
C28	C	1.547504	-0.100966	-0.366676
C29	C	1.545605	-0.100953	-0.439134
C30	C	1.471558	0.000013	-0.470385
C31	C	1.399428	0.100992	-0.429171
C32	C	1.401335	0.100985	-0.356713
C33	C	1.475378	-0.000010	-0.325469
C34	C	1.468538	0.131832	-0.585169
C35	C	1.466611	0.131837	-0.657628
C36	C	1.466595	-0.131775	-0.657643
C37	C	1.468510	-0.131777	-0.585184
C38	C	1.469487	0.000031	-0.548952
C39	C	1.463626	0.000028	0.229019
C40	C	1.465650	0.000042	0.306136
H41	H	0.893249	0.107245	0.100904
H42	H	1.477592	-0.239125	-0.240187
C43	C	1.380124	-0.427995	0.153641
N44	N	1.309832	-0.491200	0.192482
C45	C	1.647432	-0.332365	0.005908
N46	N	1.717698	-0.269160	-0.032947
H47	H	1.623247	-0.645789	0.019316
H48	H	1.053694	0.107248	0.103250
C49	C	1.116759	-0.270114	0.104187
N50	N	1.170786	-0.379237	0.104993
C51	C	1.481321	-0.276819	-0.098378
N52	N	1.482107	-0.386030	-0.068370
C53	C	1.317967	0.212063	-0.463541
N54	N	1.256615	0.295719	-0.489432
C55	C	1.481388	0.276773	-0.098349
N56	N	1.482186	0.385983	-0.068331
C57	C	1.624944	-0.212036	-0.484462
N58	N	1.684701	-0.295711	-0.518601
C59	C	0.830111	-0.270106	0.099976
N60	N	0.776063	-0.379226	0.099183
H61	H	1.477634	0.239119	-0.240153
H62	H	1.404393	-0.593827	0.140248
C63	C	1.321983	0.212048	-0.311380
N64	N	1.262208	0.295698	-0.277235
C65	C	1.469595	0.276821	-0.545310
N66	N	1.470387	0.386029	-0.515290
H67	H	1.465842	0.239166	-0.687114
C68	C	1.465541	-0.276751	-0.697504
N69	N	1.464745	-0.385951	-0.727530
H70	H	1.469283	-0.239101	-0.555697
C71	C	1.628971	-0.212040	-0.332309
N72	N	1.690332	-0.295696	-0.306424
