data_functionalizedCrystal
_audit_creation_method	'MofGen! by Chris Wilmer'
_symmetry_space_group_name_H-M	'P1'
_symmetry_Int_Tables_number	1
_symmetry_cell_setting	triclinic
loop_
_symmetry_equiv_pos_as_xyz
  x,y,z
_cell_length_a	16.974800
_cell_length_b	16.992695
_cell_length_c	18.366186
_cell_angle_alpha	89.993794
_cell_angle_beta	93.647767
_cell_angle_gamma	87.021674
loop_
_atom_site_label
_atom_site_type_symbol
_atom_site_fract_x
_atom_site_fract_y
_atom_site_fract_z
O1	O	1.055459	0.099873	0.001667
O2	O	1.388793	0.433207	0.335001
O3	O	1.722126	0.766540	0.668334
O4	O	0.826059	0.112614	-0.011857
O5	O	1.159392	0.445947	0.321476
O6	O	1.492725	0.779281	0.654810
O7	O	0.939839	-0.007898	-0.005143
O8	O	1.273173	0.325435	0.328190
O9	O	1.606506	0.658769	0.661523
O10	O	0.941679	0.220385	-0.005047
O11	O	1.275012	0.553719	0.328287
O12	O	1.608345	0.887052	0.661620
O13	O	0.939818	-0.007904	0.115955
O14	O	1.273152	0.325429	0.449288
O15	O	1.606485	0.658763	0.782621
O16	O	0.826038	0.112608	0.109241
O17	O	1.159371	0.445941	0.442574
O18	O	1.492704	0.779275	0.775908
O19	O	1.055438	0.099867	0.122765
O20	O	1.388772	0.433201	0.456099
O21	O	1.722105	0.766534	0.789432
Zn22	Zn	0.940735	0.106237	0.135230
Zn23	Zn	1.274068	0.439570	0.468563
Zn24	Zn	1.607401	0.772903	0.801897
Zn25	Zn	0.940762	0.106245	-0.024322
Zn26	Zn	1.274096	0.439578	0.309011
Zn27	Zn	1.607429	0.772911	0.642345
O28	O	0.941658	0.220379	0.116052
O29	O	1.274991	0.553713	0.449385
O30	O	1.608324	0.887046	0.782718
C31	C	0.796559	0.112128	0.046953
C32	C	1.129893	0.445462	0.380287
C33	C	1.463226	0.778795	0.713620
C34	C	0.708691	0.110681	0.041773
C35	C	1.042025	0.444015	0.375107
C36	C	1.375358	0.777348	0.708440
C37	C	0.667404	0.109996	0.105352
C38	C	1.000738	0.443329	0.438685
C39	C	1.334071	0.776663	0.772019
C40	C	0.584844	0.108624	0.100487
C41	C	0.918177	0.441957	0.433820
C42	C	1.251511	0.775290	0.767153
C43	C	0.543572	0.107942	0.032042
C44	C	0.876905	0.441275	0.365376
C45	C	1.210239	0.774609	0.698709
C46	C	0.584865	0.108625	-0.031541
C47	C	0.918199	0.441958	0.301792
C48	C	1.251532	0.775292	0.635126
C49	C	0.667424	0.109992	-0.026675
C50	C	1.000758	0.443325	0.306658
C51	C	1.334091	0.776658	0.639991
C52	C	0.296658	0.103850	0.010411
C53	C	0.629991	0.437183	0.343744
C54	C	0.963324	0.770516	0.677078
C55	C	0.214093	0.102485	0.005550
C56	C	0.547426	0.435818	0.338883
C57	C	0.880759	0.769152	0.672217
C58	C	0.214077	0.102483	0.137578
C59	C	0.547410	0.435816	0.470912
C60	C	0.880744	0.769149	0.804245
C61	C	0.296638	0.103854	0.142438
C62	C	0.629971	0.437187	0.475772
C63	C	0.963304	0.770521	0.809105
C64	C	0.337924	0.104533	0.078855
C65	C	0.671257	0.437866	0.412188
C66	C	1.004590	0.771199	0.745522
N67	N	0.459182	0.106542	0.027068
N68	N	0.792515	0.439875	0.360401
N69	N	1.125849	0.773208	0.693734
N70	N	0.422313	0.105927	0.083830
N71	N	0.755646	0.439261	0.417164
N72	N	1.088979	0.772594	0.750497
C73	C	0.937463	-0.037111	0.055266
C74	C	1.270796	0.296222	0.388599
C75	C	1.604129	0.629556	0.721933
C76	C	0.930403	-0.124147	0.054850
C77	C	1.263736	0.209186	0.388183
C78	C	1.597070	0.542520	0.721516
C79	C	0.998518	-0.174465	0.058866
C80	C	1.331852	0.158869	0.392200
C81	C	1.665185	0.492202	0.725533
C82	C	0.991880	-0.256244	0.058468
C83	C	1.325214	0.077090	0.391801
C84	C	1.658547	0.410423	0.725135
C85	C	0.917127	-0.287704	0.054058
C86	C	1.250460	0.045630	0.387392
C87	C	1.583793	0.378963	0.720725
C88	C	0.849007	-0.237379	0.050039
C89	C	1.182340	0.095954	0.383373
C90	C	1.515673	0.429287	0.716706
C91	C	0.855645	-0.155602	0.050432
C92	C	1.188978	0.177731	0.383766
C93	C	1.522312	0.511065	0.717099
C94	C	0.889612	-0.531270	0.052426
C95	C	1.222945	-0.197937	0.385760
C96	C	1.556279	0.135397	0.719093
C97	C	0.882979	-0.613054	0.052036
C98	C	1.216312	-0.279721	0.385369
C99	C	1.549645	0.053613	0.718702
C100	C	1.025853	-0.631913	0.060463
C101	C	1.359186	-0.298579	0.393796
C102	C	1.692520	0.034754	0.727130
C103	C	1.032485	-0.550133	0.060860
C104	C	1.365819	-0.216799	0.394193
C105	C	1.699152	0.116534	0.727527
C106	C	0.964365	-0.499816	0.056837
C107	C	1.297698	-0.166483	0.390170
C108	C	1.631032	0.166851	0.723504
N109	N	0.910340	-0.371295	0.053653
N110	N	1.243673	-0.037961	0.386987
N111	N	1.577007	0.295372	0.720320
N112	N	0.971153	-0.416226	0.057237
N113	N	1.304486	-0.082893	0.390570
N114	N	1.637819	0.250440	0.723903
C115	C	1.084937	0.100353	0.063953
C116	C	1.418271	0.433686	0.397286
C117	C	1.751604	0.767019	0.730620
C118	C	1.172805	0.101800	0.069128
C119	C	1.506139	0.435133	0.402462
C120	C	1.839472	0.768467	0.735795
C121	C	0.944034	0.249592	0.055641
C122	C	1.277367	0.582925	0.388974
C123	C	1.610701	0.916259	0.722307
C124	C	0.951094	0.336628	0.056052
C125	C	1.284427	0.669962	0.389385
C126	C	1.617760	1.003295	0.722719
N127	N	0.940721	0.106231	0.244120
N128	N	1.274055	0.439564	0.577454
N129	N	1.607388	0.772898	0.910787
N130	N	0.940781	0.106244	-0.133212
N131	N	1.274115	0.439578	0.200121
N132	N	1.607448	0.772911	0.533455
C133	C	0.991123	0.052894	0.285195
C134	C	1.324456	0.386228	0.618528
C135	C	1.657789	0.719561	0.951862
C136	C	0.991128	0.052891	0.361423
C137	C	1.324461	0.386224	0.694756
C138	C	1.657794	0.719558	1.028090
C139	C	0.940739	0.106237	0.396574
C140	C	1.274073	0.439571	0.729908
C141	C	1.607406	0.772904	1.063241
C142	C	0.890328	0.159578	0.355490
C143	C	1.223661	0.492911	0.688823
C144	C	1.556995	0.826245	1.022157
C145	C	0.890319	0.159575	0.279263
C146	C	1.223652	0.492908	0.612597
C147	C	1.556986	0.826241	0.945930
C148	C	0.934893	0.177655	0.516986
C149	C	1.268226	0.510988	0.850320
C150	C	1.601559	0.844322	1.183653
C151	C	0.934907	0.177659	0.593212
C152	C	1.268241	0.510993	0.926545
C153	C	1.601574	0.844326	1.259879
C154	C	0.940762	0.106247	0.631683
C155	C	1.274096	0.439581	0.965016
C156	C	1.607429	0.772914	1.298350
C157	C	0.946620	0.034828	0.593920
C158	C	1.279953	0.368161	0.927253
C159	C	1.613286	0.701494	1.260587
C160	C	0.946611	0.034824	0.517693
C161	C	1.279944	0.368158	0.851026
C162	C	1.613277	0.701491	1.184360
C163	C	0.940743	0.106247	0.479229
C164	C	1.274076	0.439580	0.812563
C165	C	1.607410	0.772913	1.145896
C166	C	0.991172	0.052903	0.755413
C167	C	1.324505	0.386236	1.088746
C168	C	1.657838	0.719569	1.422080
C169	C	0.991171	0.052898	0.831642
C170	C	1.324504	0.386231	1.164975
C171	C	1.657838	0.719565	1.498309
C172	C	0.890376	0.159592	0.825708
C173	C	1.223709	0.492925	1.159041
C174	C	1.557042	0.826259	1.492375
C175	C	0.890372	0.159590	0.749480
C176	C	1.223706	0.492923	1.082813
C177	C	1.557039	0.826256	1.416147
C178	C	0.940775	0.106246	0.714337
C179	C	1.274108	0.439579	1.047671
C180	C	1.607441	0.772912	1.381004
H181	H	0.180453	0.101929	0.189344
H182	H	0.513786	0.435262	0.522678
H183	H	0.847120	0.768595	0.856011
H184	H	0.330263	0.104400	-0.041363
H185	H	0.663597	0.437733	0.291970
H186	H	0.996930	0.771066	0.625303
C187	C	0.953058	-0.043732	0.636232
C188	C	1.286392	0.289601	0.969566
C189	C	1.619725	0.622934	1.302899
N190	N	0.957909	-0.102902	0.668105
N191	N	1.291242	0.230432	1.001438
N192	N	1.624576	0.563765	1.334772
H193	H	0.834143	-0.490311	0.049151
H194	H	1.167477	-0.156978	0.382484
H195	H	1.500810	0.176355	0.715817
C196	C	0.834897	0.218256	0.394158
C197	C	1.168231	0.551589	0.727491
C198	C	1.501564	0.884923	1.060824
N199	N	0.793142	0.262451	0.423282
N200	N	1.126475	0.595785	0.756615
N201	N	1.459809	0.929118	1.089949
H202	H	1.059391	-0.148857	0.062461
H203	H	1.392724	0.184476	0.395795
H204	H	1.726057	0.517810	0.729128
C205	C	0.712840	0.110747	-0.096617
C206	C	1.046173	0.444080	0.236716
C207	C	1.379506	0.777414	0.570050
N208	N	0.747046	0.111314	-0.149300
N209	N	1.080379	0.444647	0.184034
N210	N	1.413712	0.777981	0.517367
H211	H	1.093357	-0.524525	0.064451
H212	H	1.426691	-0.191192	0.397784
H213	H	1.760024	0.142142	0.731117
H214	H	1.081312	-0.672889	0.063737
H215	H	1.414646	-0.339556	0.397070
H216	H	1.747979	-0.006222	0.730403
C217	C	0.168695	0.101735	-0.069748
C218	C	0.502029	0.435068	0.263586
C219	C	0.835362	0.768401	0.596919
N220	N	0.134502	0.101171	-0.126459
N221	N	0.467835	0.434504	0.206874
N222	N	0.801168	0.767837	0.540208
C223	C	0.953043	-0.043735	0.476156
C224	C	1.286376	0.289598	0.809489
C225	C	1.619709	0.622931	1.142823
N226	N	0.957883	-0.102908	0.444870
N227	N	1.291216	0.230425	0.778203
N228	N	1.624550	0.563758	1.111537
C229	C	1.046607	-0.005783	0.716753
C230	C	1.379940	0.327550	1.050086
C231	C	1.713273	0.660883	1.383420
N232	N	1.088360	-0.049987	0.687636
N233	N	1.421693	0.283346	1.020969
N234	N	1.755026	0.616679	1.354303
C235	C	1.046584	-0.005778	0.406614
C236	C	1.379917	0.327555	0.739947
C237	C	1.713250	0.660889	1.073281
N238	N	1.088357	-0.049964	0.440650
N239	N	1.421690	0.283369	0.773983
N240	N	1.755023	0.616702	1.107317
H241	H	0.701001	0.110558	0.161087
H242	H	1.034335	0.443891	0.494420
H243	H	1.367668	0.777224	0.827754
H244	H	0.822102	-0.638665	0.048456
H245	H	1.155436	-0.305331	0.381790
H246	H	1.488769	0.028002	0.715123
C247	C	0.928452	0.256219	0.474676
C248	C	1.261785	0.589553	0.808009
C249	C	1.595118	0.922886	1.141342
N250	N	0.923600	0.315392	0.442808
N251	N	1.256934	0.648725	0.776142
N252	N	1.590267	0.982059	1.109475
H253	H	0.788140	-0.263000	0.046444
H254	H	1.121474	0.070333	0.379778
H255	H	1.454807	0.403666	0.713111
H256	H	1.047347	-0.297210	0.061740
H257	H	1.380680	0.036124	0.395074
H258	H	1.714014	0.369457	0.728407
H259	H	0.800178	-0.114633	0.047162
H260	H	1.133512	0.218700	0.380495
H261	H	1.466845	0.552033	0.713828
C262	C	0.539463	0.107873	-0.106831
C263	C	0.872797	0.441206	0.226502
C264	C	1.206130	0.774540	0.559835
N265	N	0.505267	0.107309	-0.163541
N266	N	0.838600	0.440642	0.169792
N267	N	1.171934	0.773976	0.503125
C268	C	1.046559	-0.005793	0.246542
C269	C	1.379892	0.327540	0.579875
C270	C	1.713225	0.660874	0.913209
N271	N	1.088311	-0.050000	0.217427
N272	N	1.421644	0.283334	0.550760
N273	N	1.754978	0.616667	0.884094
H274	H	0.551232	0.108053	0.152259
H275	H	0.884566	0.441386	0.485593
H276	H	1.217899	0.774719	0.818926
H277	H	1.032211	0.009461	0.865086
H278	H	1.365544	0.342794	1.198419
H279	H	1.698878	0.676127	1.531752
H280	H	0.849345	0.203025	0.854327
H281	H	1.182679	0.536358	1.187661
H282	H	1.516012	0.869691	1.520994
H283	H	0.330236	0.104405	0.198173
H284	H	0.663569	0.437739	0.531506
H285	H	0.996902	0.771072	0.864840
C286	C	0.834987	0.218321	0.704300
C287	C	1.168320	0.551655	1.037633
C288	C	1.501653	0.884988	1.370967
N289	N	0.793287	0.262579	0.670272
N290	N	1.126620	0.595912	1.003605
N291	N	1.459953	0.929245	1.336938
C292	C	0.928457	0.256222	0.634744
C293	C	1.261790	0.589555	0.968077
C294	C	1.595123	0.922888	1.301410
N295	N	0.923593	0.315397	0.666023
N296	N	1.256927	0.648730	0.999357
N297	N	1.590260	0.982063	1.332690
C298	C	0.834908	0.218286	0.234082
C299	C	1.168241	0.551619	0.567415
C300	C	1.501574	0.884952	0.900749
N301	N	0.793185	0.262521	0.200051
N302	N	1.126518	0.595854	0.533384
N303	N	1.459851	0.929187	0.866718
