data_functionalizedCrystal
_audit_creation_method	'MofGen! by Chris Wilmer'
_symmetry_space_group_name_H-M	'P1'
_symmetry_Int_Tables_number	1
_symmetry_cell_setting	triclinic
loop_
_symmetry_equiv_pos_as_xyz
  x,y,z
_cell_length_a	20.875641
_cell_length_b	14.628931
_cell_length_c	20.875625
_cell_angle_alpha	92.971375
_cell_angle_beta	64.253531
_cell_angle_gamma	57.582458
loop_
_atom_site_label
_atom_site_type_symbol
_atom_site_fract_x
_atom_site_fract_y
_atom_site_fract_z
Zr1	Zr	0.702268	0.839342	-0.058562
O2	O	0.836120	0.679122	-0.156103
O3	O	0.568419	0.893090	-0.032046
O4	O	0.702270	0.876509	-0.160985
O5	O	0.702266	0.703514	0.078397
O6	O	0.702270	1.026941	-0.160985
O7	O	0.702268	0.695704	-0.027164
O8	O	0.462834	1.056601	0.069663
O9	O	0.941702	0.673853	-0.152251
O10	O	0.623472	1.022682	-0.016647
O11	O	0.623471	0.916245	0.062132
O12	O	0.781064	0.896722	-0.089677
O13	O	0.781063	0.790285	-0.010899
Zr14	Zr	0.702265	1.091720	0.109795
Zr15	Zr	0.702268	1.079264	-0.058562
Zr16	Zr	0.702265	0.851798	0.109795
Zr17	Zr	0.870660	0.830937	-0.052420
Zr18	Zr	0.533873	1.100124	0.103653
O19	O	0.836115	1.037971	0.083279
O20	O	0.836119	1.020261	-0.156102
O21	O	0.836115	0.696833	0.083279
O22	O	0.568413	1.251939	0.207336
O23	O	0.568418	1.234228	-0.032046
O24	O	0.568414	0.910801	0.207336
O25	O	0.702267	1.227548	-0.027163
O26	O	0.702263	1.054553	0.212218
O27	O	0.702263	0.904120	0.212218
O28	O	0.702265	1.235358	0.078397
O29	O	0.941702	0.864559	-0.152251
O30	O	0.462831	1.066502	0.203485
O31	O	0.462831	1.257208	0.203485
O32	O	0.462833	1.247307	0.069664
O33	O	0.941700	0.683754	-0.018430
O34	O	0.941699	0.874460	-0.018430
O35	O	0.623469	1.034339	0.140910
O36	O	0.623470	1.140776	0.062132
O37	O	0.781062	1.014817	-0.010898
O38	O	0.781061	0.908379	0.067880
C39	C	0.491634	0.976043	0.017934
C40	C	0.420147	0.979611	0.015326
C41	C	0.702267	0.665425	0.025616
C42	C	0.702267	0.563572	0.025616
C43	C	0.386576	0.925706	0.055207
C44	C	0.319444	0.929003	0.052718
C45	C	0.285880	0.986214	0.010352
C46	C	0.319458	1.040121	-0.029533
C47	C	0.386593	1.036815	-0.027048
C48	C	0.085099	1.002051	-0.001493
C49	C	0.017957	1.005356	-0.003974
C50	C	0.017949	0.894236	0.078277
C51	C	0.085082	0.890942	0.080762
C52	C	0.118657	0.944843	0.040873
N53	N	0.217259	0.989590	0.007809
N54	N	0.187282	0.941460	0.043412
C55	C	0.624091	0.580647	0.061844
C56	C	0.624090	0.475378	0.061845
C57	C	0.912899	0.955018	0.033300
C58	C	0.984386	0.951450	0.035907
C59	C	0.702270	0.949950	-0.184972
C60	C	0.702272	0.944662	-0.256444
C61	C	0.702266	1.265636	0.025617
C62	C	0.702266	1.367489	0.025617
C63	C	0.702273	1.025052	-0.290021
C64	C	0.702266	1.020087	-0.357173
C65	C	0.702265	0.934726	-0.390749
C66	C	0.702261	0.854333	-0.357165
C67	C	0.702261	0.859304	-0.290012
C68	C	0.702258	0.910977	-0.591586
C69	C	0.702260	0.906010	-0.658746
C70	C	0.702264	1.071765	-0.658748
C71	C	0.702270	1.076725	-0.591595
C72	C	0.702261	0.996335	-0.558016
N73	N	0.702261	0.929647	-0.459390
N74	N	0.702259	1.001421	-0.489373
C75	C	0.702263	0.981111	0.236205
C76	C	0.702261	0.986399	0.307677
C77	C	0.491633	1.276149	0.017934
C78	C	0.420146	1.381570	0.015327
C79	C	0.491630	0.991624	0.228522
C80	C	0.420142	1.000479	0.297386
C81	C	0.491629	1.291729	0.228522
C82	C	0.420141	1.402438	0.297387
C83	C	0.912904	0.639332	-0.177289
C84	C	0.984392	0.528623	-0.246154
C85	C	0.912900	0.654912	0.033299
C86	C	0.984387	0.549491	0.035907
C87	C	0.912903	0.939438	-0.177289
C88	C	0.984391	0.930582	-0.246153
C89	C	0.386576	1.369432	-0.027027
C90	C	0.319416	1.468475	-0.029492
C91	C	0.285822	1.579656	0.010401
C92	C	0.319399	1.591791	0.052755
C93	C	0.386563	1.492748	0.055216
C94	C	0.386570	1.066283	0.370855
C95	C	0.319408	1.074599	0.435567
C96	C	0.285816	1.017119	0.426809
C97	C	0.319395	0.951307	0.353333
C98	C	0.386560	0.942985	0.288623
C99	C	0.386570	1.509998	0.288605
C100	C	0.319409	1.614029	0.353304
C101	C	0.285815	1.610498	0.426785
C102	C	0.319392	1.502927	0.435565
C103	C	0.386557	1.398898	0.370867
C104	C	1.017971	0.421063	-0.237371
C105	C	1.085153	0.317031	-0.302070
C106	C	1.118751	0.320562	-0.375550
C107	C	1.085169	0.428133	-0.384331
C108	C	1.017992	0.532162	-0.319633
C109	C	1.017964	0.561628	0.078253
C110	C	1.085143	0.462583	0.080701
C111	C	1.118739	0.351402	0.040806
C112	C	1.085159	0.339267	-0.001546
C113	C	1.017986	0.438311	-0.003997
C114	C	1.017962	0.988077	-0.237371
C115	C	1.085124	0.979779	-0.302070
C116	C	1.118718	0.913978	-0.375551
C117	C	1.085140	0.856482	-0.384332
C118	C	1.017975	0.864787	-0.319633
H119	H	0.292114	0.885108	0.085193
O120	O	0.422752	1.282893	0.380350
H121	H	0.475104	1.211138	0.323022
H122	H	0.990653	0.619739	-0.326793
H123	H	1.112523	0.248730	-0.034027
H124	H	1.112484	0.229453	-0.294905
O125	O	0.981746	0.417241	-0.158121
H126	H	1.016400	0.324962	-0.162896
O127	O	0.283137	0.889338	0.343907
H128	H	0.339500	0.794034	0.313366
O129	O	0.121301	0.829210	0.126439
H130	H	0.108375	0.892393	0.171439
H131	H	0.990615	0.652149	0.110746
H132	H	0.292086	1.458572	-0.063982
H133	H	0.413927	1.278911	-0.059522
O134	O	0.981733	1.059066	-0.158124
H135	H	0.994630	1.001678	-0.125086
H136	H	1.112472	0.472486	0.115191
H137	H	0.557160	0.489822	0.092856
O138	O	0.790929	0.348340	-0.015474
H139	H	0.848194	0.253290	-0.042017
O140	O	0.422642	0.872195	0.209377
H141	H	0.387944	0.833703	0.214165
O142	O	0.283231	1.730036	0.343819
H143	H	0.230903	1.801789	0.401149
O144	O	0.213377	1.686471	0.007742
H145	H	0.239156	1.733812	-0.017059
H146	H	0.557163	0.673199	0.092863
O147	O	0.213362	1.722705	0.496565
H148	H	0.195659	1.798087	0.478105
O149	O	0.422792	1.128284	0.380317
H150	H	0.409890	1.191597	0.351232
O151	O	0.702267	1.158468	-0.694967
H152	H	0.763780	1.149992	-0.710590
O153	O	1.121406	0.431936	-0.463586
H154	H	1.108512	0.389366	-0.496610
H155	H	0.413887	1.502648	0.089709
O156	O	0.790926	0.440979	-0.015477
H157	H	0.794806	0.397481	0.026205
H158	H	1.173435	0.270763	0.042808
H159	H	-0.009393	0.850351	0.110750
H160	H	1.173450	0.235846	-0.428225
H161	H	1.173408	0.907225	-0.428226
H162	H	0.292030	1.500070	0.495402
H163	H	0.702280	1.094557	-0.262690
O164	O	0.981763	0.425216	-0.049665
H165	H	1.016408	0.331264	-0.076985
H166	H	1.112455	1.026599	-0.294905
H167	H	1.112503	0.802908	-0.444168
O168	O	0.981780	0.802755	-0.329109
H169	H	1.016436	0.755597	-0.391075
O170	O	0.702242	0.813951	-0.694957
H171	H	0.702224	0.758896	-0.660320
H172	H	0.413898	0.879120	0.089707
H173	H	-0.009369	1.051947	-0.038474
H174	H	0.413912	1.512894	0.228779
O175	O	0.283155	1.711711	0.095789
H176	H	0.230805	1.778533	0.086966
O177	O	0.702257	0.824268	-0.555376
H178	H	0.763771	0.734413	-0.596770
O179	O	0.121307	1.060187	-0.044512
H180	H	0.086681	1.100532	-0.074382
O181	O	0.283183	1.145604	0.514810
H182	H	0.317814	1.184194	0.510021
H183	H	0.702271	1.146232	-0.564259
O184	O	0.283269	1.101818	-0.075237
H185	H	0.230941	1.095068	-0.070262
H186	H	0.702266	1.085547	-0.384511
O187	O	0.422804	1.094959	-0.070059
H188	H	0.388182	1.135306	-0.099931
O189	O	0.213358	1.026121	0.496606
H190	H	0.195652	1.081554	0.549161
H191	H	0.702254	0.784834	-0.384504
O192	O	0.702266	0.772594	-0.253794
H193	H	0.702274	0.712394	-0.288426
