data_functionalizedCrystal
_audit_creation_method	'MofGen! by Chris Wilmer'
_symmetry_space_group_name_H-M	'P1'
_symmetry_Int_Tables_number	1
_symmetry_cell_setting	triclinic
loop_
_symmetry_equiv_pos_as_xyz
  x,y,z
_cell_length_a	14.519709
_cell_length_b	22.610064
_cell_length_c	14.519709
_cell_angle_alpha	89.995658
_cell_angle_beta	83.680146
_cell_angle_gamma	89.997894
loop_
_atom_site_label
_atom_site_type_symbol
_atom_site_fract_x
_atom_site_fract_y
_atom_site_fract_z
O1	O	-1.223874	0.049112	-0.120879
O2	O	-0.723874	0.549112	0.379121
O3	O	-0.955397	0.049133	-0.135115
O4	O	-0.455397	0.549133	0.364885
O5	O	-1.096754	0.049105	0.006241
O6	O	-0.596754	0.549105	0.506241
O7	O	-1.082517	0.049139	-0.262235
O8	O	-0.582517	0.549139	0.237765
O9	O	-1.096729	-0.049264	0.006221
O10	O	-0.596729	0.450736	0.506221
O11	O	-0.955372	-0.049236	-0.135136
O12	O	-0.455372	0.450764	0.364864
O13	O	-1.223849	-0.049257	-0.120899
O14	O	-0.723849	0.450743	0.379101
Zn15	Zn	-1.089606	-0.064865	-0.128021
Zn16	Zn	-0.589606	0.435135	0.371979
Zn17	Zn	-1.089639	0.064740	-0.127994
Zn18	Zn	-0.589639	0.564740	0.372006
O19	O	-1.082492	-0.049230	-0.262256
O20	O	-0.582492	0.450770	0.237744
C21	C	-0.921025	-0.000049	-0.134462
C22	C	-0.421025	0.499951	0.365538
C23	C	-0.818643	-0.000042	-0.132474
C24	C	-0.318643	0.499958	0.367526
N25	N	-1.089591	-0.153318	-0.128039
N26	N	-0.589591	0.346682	0.371961
C27	C	-0.443748	-0.000068	-0.125154
C28	C	0.056252	0.499932	0.374846
C29	C	-0.548056	-0.000060	-0.127187
C30	C	-0.048056	0.499940	0.372813
C31	C	-0.631192	-0.000054	-0.128814
C32	C	-0.131192	0.499946	0.371186
C33	C	-0.735507	-0.000048	-0.130847
C34	C	-0.235507	0.499952	0.369153
C35	C	-1.152235	-0.561971	-0.065411
C36	C	-0.652235	-0.061971	0.434589
C37	C	-1.152240	-0.623891	-0.065404
C38	C	-0.652240	-0.123891	0.434596
O39	O	-1.205463	-0.655920	-0.012169
O40	O	-0.705463	-0.155920	0.487831
N41	N	-1.089639	-0.654855	-0.127975
N42	N	-0.589639	-0.154855	0.372025
C43	C	-1.027022	-0.623895	-0.190550
C44	C	-0.527022	-0.123895	0.309450
O45	O	-0.973775	-0.655918	-0.243770
O46	O	-0.473775	-0.155918	0.256230
C47	C	-1.027014	-0.561976	-0.190551
C48	C	-0.527014	-0.061976	0.309449
C49	C	-1.089626	-0.531016	-0.127983
C50	C	-0.589626	-0.031016	0.372017
C51	C	-1.214841	-0.531011	-0.002846
C52	C	-0.714841	-0.031011	0.497154
C53	C	-1.214837	-0.469095	-0.002855
C54	C	-0.714837	0.030905	0.497145
C55	C	-1.152227	-0.438140	-0.065427
C56	C	-0.652227	0.061860	0.434573
C57	C	-1.089622	-0.469100	-0.127991
C58	C	-0.589622	0.030900	0.372009
C59	C	-0.964394	-0.531018	-0.253121
C60	C	-0.464394	-0.031018	0.246879
C61	C	-0.964391	-0.469095	-0.253117
C62	C	-0.464391	0.030905	0.246883
C63	C	-1.027002	-0.438135	-0.190548
C64	C	-0.527002	0.061865	0.309452
C65	C	-1.027009	-0.376230	-0.190571
C66	C	-0.527009	0.123770	0.309429
N67	N	-1.089610	-0.345266	-0.128000
N68	N	-0.589610	0.154734	0.372000
C69	C	-1.152219	-0.376221	-0.065428
C70	C	-0.652219	0.123779	0.434572
C71	C	-1.027044	-0.753929	-0.190541
C72	C	-0.527044	-0.253929	0.309459
C73	C	-1.027056	-0.815847	-0.190544
C74	C	-0.527056	-0.315847	0.309456
C75	C	-1.152272	-0.815838	-0.065397
C76	C	-0.652272	-0.315838	0.434603
C77	C	-1.152264	-0.753919	-0.065399
C78	C	-0.652264	-0.253919	0.434601
C79	C	-1.089645	-0.722965	-0.127970
C80	C	-0.589645	-0.222965	0.372030
C81	C	-1.152207	-0.246194	-0.065450
C82	C	-0.652207	0.253806	0.434550
C83	C	-1.152200	-0.184273	-0.065467
C84	C	-0.652200	0.315727	0.434533
C85	C	-1.026981	-0.184287	-0.190610
C86	C	-0.526981	0.315713	0.309390
C87	C	-1.026991	-0.246202	-0.190598
C88	C	-0.526991	0.253798	0.309402
C89	C	-1.089607	-0.277154	-0.128010
C90	C	-0.589607	0.222846	0.371990
O91	O	-0.973810	-0.344161	-0.243777
O92	O	-0.473810	0.155839	0.256223
O93	O	-1.205449	-0.344191	-0.012209
O94	O	-0.705449	0.155809	0.487791
C95	C	-0.258221	-0.000072	-0.121553
C96	C	0.241779	0.499928	0.378447
C97	C	-0.360602	-0.000071	-0.123541
C98	C	0.139398	0.499929	0.376459
C99	C	-1.096078	-0.000082	0.040591
C100	C	-0.596078	0.499918	0.540591
C101	C	-1.094089	-0.000091	0.142972
C102	C	-0.594089	0.499909	0.642972
N103	N	-1.089662	0.153193	-0.127968
N104	N	-0.589662	0.653193	0.372032
C105	C	-1.086770	-0.000107	0.517868
C106	C	-0.586770	0.499893	1.017868
C107	C	-1.088803	-0.000102	0.413560
C108	C	-0.588803	0.499898	0.913560
C109	C	-1.090430	-0.000099	0.330423
C110	C	-0.590430	0.499901	0.830423
C111	C	-1.092463	-0.000094	0.226109
C112	C	-0.592463	0.499906	0.726109
C113	C	-1.083168	-0.000062	0.703394
C114	C	-0.583168	0.499938	1.203394
C115	C	-1.085156	-0.000112	0.601013
C116	C	-0.585156	0.499888	1.101013
H117	H	-1.203194	-0.271388	-0.014485
H118	H	-0.703194	0.228612	0.485515
H119	H	-0.913410	-0.556217	-0.304070
H120	H	-0.413410	-0.056217	0.195930
O121	O	-0.959440	-0.150885	-0.258072
O122	O	-0.459440	0.349115	0.241928
H123	H	-0.998314	-0.122660	-0.302980
H124	H	-0.498314	0.377340	0.197020
O125	O	-0.896856	-0.435708	-0.320611
O126	O	-0.396856	0.064292	0.179389
H127	H	-0.853330	-0.467643	-0.364118
H128	H	-0.353330	0.032357	0.135882
H129	H	-0.976016	-0.271411	-0.241556
H130	H	-0.476016	0.228589	0.258444
H131	H	-1.265818	-0.443891	0.048097
H132	H	-0.765818	0.056109	0.548097
H133	H	-1.203247	-0.728715	-0.014450
H134	H	-0.703247	-0.228715	0.485550
O135	O	-1.282387	-0.564394	0.064635
O136	O	-0.782387	-0.064394	0.564635
H137	H	-1.325920	-0.532453	0.108124
H138	H	-0.825920	-0.032453	0.608124
H139	H	-0.976082	-0.841050	-0.241503
H140	H	-0.476082	-0.341050	0.258497
O141	O	-0.959502	-0.720542	-0.258031
O142	O	-0.459502	-0.220542	0.241969
H143	H	-0.998382	-0.692321	-0.302941
H144	H	-0.498382	-0.192321	0.197059
H145	H	-1.203189	-0.159067	-0.014516
H146	H	-0.703189	0.340933	0.485484
H147	H	-1.203251	-0.841053	-0.014446
H148	H	-0.703251	-0.341053	0.485554
