data_functionalizedCrystal
_audit_creation_method	'MofGen! by Chris Wilmer'
_symmetry_space_group_name_H-M	'P1'
_symmetry_Int_Tables_number	1
_symmetry_cell_setting	triclinic
loop_
_symmetry_equiv_pos_as_xyz
  x,y,z
_cell_length_a	10.065875
_cell_length_b	10.654550
_cell_length_c	10.654548
_cell_angle_alpha	84.484540
_cell_angle_beta	98.877894
_cell_angle_gamma	81.163679
loop_
_atom_site_label
_atom_site_type_symbol
_atom_site_fract_x
_atom_site_fract_y
_atom_site_fract_z
O1	O	0.113597	-1.686072	-0.158081
O2	O	0.113574	-1.320590	-0.174891
O3	O	0.113588	-1.511735	0.016254
O4	O	0.113582	-1.494926	-0.349226
O5	O	-0.113403	-1.475288	-0.020343
O6	O	-0.113418	-1.284142	-0.211487
O7	O	-0.113395	-1.649624	-0.194678
Zn8	Zn	-0.149446	-1.461096	-0.208893
Zn9	Zn	0.149625	-1.509118	-0.160676
O10	O	-0.113409	-1.458478	-0.385822
C11	C	0.000075	-1.255567	-0.191956
C12	C	0.000067	-1.116123	-0.188265
N13	N	-0.353554	-1.428332	-0.241799
C14	C	0.000096	-1.492278	0.044754
C15	C	0.000107	-1.488589	0.184199
C16	C	-0.421328	-1.497710	-0.172117
C17	C	-0.578497	-1.472504	-0.197452
N18	N	0.353733	-1.541892	-0.127760
C19	C	0.000107	-1.714647	-0.177612
C20	C	0.000124	-1.854093	-0.181302
C21	C	0.000085	-1.036639	-0.300804
C22	C	0.000109	-0.905622	-0.297324
C23	C	0.000102	-0.933586	-0.068755
C24	C	0.000069	-1.064599	-0.072238
C25	C	0.000095	-1.020494	-0.432765
C26	C	0.000118	-0.889477	-0.429285
C27	C	0.123838	-1.506725	0.269660
C28	C	0.123833	-1.503245	0.400679
C29	C	-0.123646	-1.463498	0.360765
C30	C	-0.123639	-1.466969	0.229747
C31	C	0.266718	-1.529678	0.292705
C32	C	0.266713	-1.526199	0.423725
C33	C	0.000089	-1.477939	0.585678
C34	C	0.000095	-1.481639	0.446237
H35	H	-0.636824	-1.394436	-0.275867
O36	O	-0.430803	-1.324935	-0.345677
H37	H	-0.542128	-1.321371	-0.349283
H38	H	0.311055	-1.628396	0.270287
H39	H	0.311054	-1.441722	0.460441
H40	H	-0.587940	-1.619950	-0.049336
H41	H	0.000034	-1.129308	0.019399
O42	O	-0.257113	-1.440183	0.409890
H43	H	-0.316444	-1.516766	0.385613
H44	H	0.000124	-0.891622	0.025714
O45	O	0.339356	-1.652834	0.496775
H46	H	0.374912	-1.717596	0.428631
H47	H	0.098096	-1.071885	-0.458984
O48	O	-0.344057	-1.601074	-0.068217
H49	H	-0.278921	-1.673134	-0.110998
O50	O	-0.125806	-1.039164	-0.521315
H51	H	-0.187419	-0.944401	-0.561907
H52	H	-0.097881	-0.828070	-0.484966
O53	O	0.339375	-1.426381	0.243107
H54	H	0.339345	-1.429210	0.139237
O55	O	0.125946	-0.854382	-0.474863
H56	H	0.187539	-0.941107	-0.499921
O57	O	-0.257090	-1.447411	0.137566
H58	H	-0.343134	-1.431811	0.191256
