data_functionalizedCrystal
_audit_creation_method	'MofGen! by Chris Wilmer'
_symmetry_space_group_name_H-M	'P1'
_symmetry_Int_Tables_number	1
_symmetry_cell_setting	triclinic
loop_
_symmetry_equiv_pos_as_xyz
  x,y,z
_cell_length_a	23.532407
_cell_length_b	23.532407
_cell_length_c	22.610064
_cell_angle_alpha	89.999397
_cell_angle_beta	89.997161
_cell_angle_gamma	82.848678
loop_
_atom_site_label
_atom_site_type_symbol
_atom_site_fract_x
_atom_site_fract_y
_atom_site_fract_z
O1	O	0.755263	0.069127	-0.049117
O2	O	0.589400	0.079130	-0.049135
O3	O	0.677333	-0.008803	-0.049114
O4	O	0.667330	0.157060	-0.049137
O5	O	0.677318	-0.008790	0.049255
O6	O	0.589385	0.079143	0.049234
O7	O	0.755248	0.069140	0.049252
Zn8	Zn	0.672314	0.074144	0.064862
Zn9	Zn	0.672334	0.074127	-0.064744
O10	O	0.667315	0.157073	0.049232
C11	C	0.568176	0.078882	0.000048
C12	C	0.504959	0.078116	0.000041
C13	C	0.677071	-0.030013	0.000072
C14	C	0.676305	-0.093230	0.000076
C15	C	0.105856	0.125350	0.000061
C16	C	0.046456	0.124638	0.000065
O17	O	0.009711	0.168424	0.000081
N18	N	0.023830	0.072362	0.000071
C19	C	0.060607	0.020794	0.000080
O20	O	0.035908	-0.023737	0.000086
C21	C	0.120006	0.021506	0.000080
C22	C	0.142629	0.073785	0.000068
C23	C	0.128479	0.177625	0.000050
C24	C	0.187876	0.178336	0.000045
C25	C	0.224649	0.126772	0.000052
C26	C	0.202025	0.074497	0.000063
C27	C	0.156783	-0.030062	0.000093
C28	C	0.216185	-0.029345	0.000094
C29	C	0.238808	0.022934	0.000082
C30	C	0.298194	0.023643	0.000065
N31	N	0.320820	0.075920	0.000059
C32	C	0.284048	0.127484	0.000052
C33	C	-0.064135	0.019302	0.000080
C34	C	-0.123533	0.018589	0.000075
C35	C	-0.137680	0.122434	0.000061
C36	C	-0.078281	0.123146	0.000062
C37	C	-0.041509	0.071578	0.000074
C38	C	0.408784	0.128974	0.000042
C39	C	0.468186	0.129680	0.000034
C40	C	0.482329	0.025836	0.000051
C41	C	0.422932	0.025129	0.000055
C42	C	0.386160	0.076702	0.000052
O43	O	0.334974	-0.020119	0.000052
O44	O	0.308755	0.172007	0.000054
C45	C	0.723539	-0.492333	0.000049
C46	C	0.722827	-0.551733	0.000044
O47	O	0.766613	-0.588478	0.000027
N48	N	0.670551	-0.574359	0.000039
C49	C	0.618983	-0.537582	0.000032
O50	O	0.574452	-0.562281	0.000027
C51	C	0.619695	-0.478182	0.000033
C52	C	0.671974	-0.455560	0.000044
C53	C	0.775814	-0.469710	0.000060
C54	C	0.776525	-0.410313	0.000065
C55	C	0.724961	-0.373540	0.000060
C56	C	0.672685	-0.396164	0.000050
C57	C	0.568127	-0.441406	0.000022
C58	C	0.568844	-0.382004	0.000021
C59	C	0.621123	-0.359381	0.000033
C60	C	0.621832	-0.299995	0.000050
N61	N	0.674109	-0.277368	0.000056
C62	C	0.725673	-0.314141	0.000061
C63	C	0.617491	-0.662324	0.000031
C64	C	0.616778	-0.721722	0.000034
C65	C	0.720623	-0.735869	0.000045
C66	C	0.721335	-0.676470	0.000046
C67	C	0.669767	-0.639698	0.000036
C68	C	0.727163	-0.189405	0.000073
C69	C	0.727869	-0.130003	0.000081
C70	C	0.624025	-0.115860	0.000067
C71	C	0.623318	-0.175257	0.000062
C72	C	0.674891	-0.212029	0.000063
O73	O	0.578070	-0.263215	0.000065
O74	O	0.770196	-0.289433	0.000058
C75	C	0.776472	0.069388	0.000069
C76	C	0.839689	0.070154	0.000071
C77	C	0.667577	0.178283	0.000045
C78	C	0.668343	0.241500	0.000036
N79	N	0.672304	0.074155	0.153314
N80	N	0.672349	0.074111	-0.153196
C81	C	0.711273	0.035196	0.561965
C82	C	0.711276	0.035192	0.623884
O83	O	0.744384	0.002076	0.655911
N84	N	0.672334	0.074115	0.654851
C85	C	0.633383	0.113041	0.623895
O86	O	0.600259	0.146147	0.655920
C87	C	0.633377	0.113042	0.561976
C88	C	0.672326	0.074120	0.531013
C89	C	0.750218	-0.003724	0.531001
C90	C	0.750215	-0.003719	0.469085
C91	C	0.711268	0.035206	0.438133
C92	C	0.672323	0.074125	0.469097
C93	C	0.594424	0.151965	0.531021
C94	C	0.594422	0.151962	0.469098
C95	C	0.633370	0.113040	0.438134
C96	C	0.633374	0.113054	0.376229
N97	N	0.672316	0.074131	0.345262
C98	C	0.711263	0.035207	0.376214
C99	C	0.633396	0.113035	0.753928
C100	C	0.633403	0.113037	0.815846
C101	C	0.711296	0.035187	0.815831
C102	C	0.711291	0.035188	0.753913
C103	C	0.672338	0.074112	0.722962
C104	C	0.711255	0.035220	0.246187
C105	C	0.711251	0.035230	0.184266
C106	C	0.633357	0.113078	0.184286
C107	C	0.633363	0.113071	0.246202
C108	C	0.672314	0.074137	0.277151
O109	O	0.600281	0.146152	0.344163
O110	O	0.744376	0.002101	0.344182
H111	H	0.486602	0.172255	0.000024
H112	H	0.526850	-0.352066	0.000013
H113	H	0.098544	0.219617	0.000046
H114	H	0.762610	-0.765821	0.000047
C115	C	-0.168041	0.210724	-0.050514
C116	C	-0.178109	0.179116	0.000058
H117	H	-0.193004	0.245713	-0.050517
H118	H	-0.129434	0.218633	-0.050513
H119	H	-0.174868	0.189264	-0.084811
H120	H	-0.171278	0.200575	0.034355
H121	H	-0.216726	0.171209	0.000062
H122	H	0.601677	0.144736	0.728731
C123	C	0.150582	-0.118811	-0.050445
C124	C	0.131930	-0.087532	0.000112
H125	H	0.135243	-0.154294	-0.050429
H126	H	0.137931	-0.097607	-0.084748
H127	H	0.191222	-0.125751	-0.050440
H128	H	0.091290	-0.080589	0.000105
H129	H	0.144578	-0.108740	0.034424
H130	H	0.763906	-0.658056	0.000054
C131	C	0.520744	-0.155304	0.000045
C132	C	0.565852	-0.200128	0.000049
H133	H	0.485267	-0.170656	0.000028
H134	H	0.523172	-0.132439	0.034353
H135	H	0.523195	-0.132423	-0.034254
H136	H	0.563403	-0.223006	0.034351
H137	H	0.563422	-0.223002	-0.034262
H138	H	-0.059867	0.165717	0.000055
H139	H	0.819097	-0.391900	0.000072
H140	H	0.582043	-0.085909	0.000065
C141	C	0.528057	-0.727938	-0.050545
C142	C	0.559312	-0.746586	0.000027
H143	H	0.492579	-0.743290	-0.050552
H144	H	0.521107	-0.687304	-0.050537
H145	H	0.549284	-0.740584	-0.084842
H146	H	0.538085	-0.733936	0.034324
H147	H	0.566260	-0.787228	0.000025
C148	C	-0.103568	-0.083983	0.000089
C149	C	-0.148396	-0.038878	0.000083
H150	H	-0.118917	-0.119461	0.000100
H151	H	-0.080697	-0.081548	-0.034215
H152	H	-0.080694	-0.081533	0.034392
H153	H	-0.171267	-0.041325	-0.034223
H154	H	-0.171276	-0.041314	0.034390
H155	H	0.601648	0.144772	0.159075
H156	H	0.206289	0.220908	0.000035
H157	H	0.770443	-0.111587	0.000092
C158	C	0.829881	-0.197406	0.000093
C159	C	0.783853	-0.229818	0.000079
H160	H	0.864878	-0.222356	0.000103
H161	H	0.828003	-0.173945	-0.034208
H162	H	0.827982	-0.173943	0.034399
H163	H	0.785750	-0.253278	-0.034230
H164	H	0.785731	-0.253289	0.034383
H165	H	0.378851	0.170970	0.000041
H166	H	-0.034198	-0.022693	0.000084
C167	C	0.878527	-0.477711	0.000081
C168	C	0.832500	-0.510125	0.000070
H169	H	0.913525	-0.502660	0.000095
H170	H	0.876649	-0.454253	-0.034222
H171	H	0.876626	-0.454244	0.034385
H172	H	0.834399	-0.533589	-0.034236
H173	H	0.834379	-0.533592	0.034377
H174	H	0.742969	0.003535	0.159057
C175	C	0.291194	-0.088802	-0.050465
C176	C	0.256607	-0.086031	0.000104
H177	H	0.316150	-0.123795	-0.050457
H178	H	0.267728	-0.086928	-0.084760
H179	H	0.313168	-0.057564	-0.050466
H180	H	0.234630	-0.117266	0.000103
H181	H	0.280076	-0.087910	0.034408
H182	H	0.575496	-0.632386	0.000028
C183	C	0.784117	-0.102514	0.450244
C184	C	0.793021	-0.046593	0.435154
H185	H	0.810542	-0.129009	0.429325
H186	H	0.789629	-0.107988	0.491566
H187	H	0.746143	-0.108470	0.440065
H188	H	0.830994	-0.040635	0.445337
H189	H	0.787513	-0.041117	0.393823
C190	C	0.517423	0.228903	0.524789
C191	C	0.551607	0.194747	0.565045
H192	H	0.490986	0.255314	0.545795
H193	H	0.541011	0.249270	0.500640
H194	H	0.497081	0.205288	0.500638
H195	H	0.571952	0.218362	0.589193
H196	H	0.528016	0.174379	0.589205
C197	C	0.581608	0.229542	0.399472
C198	C	0.551605	0.194751	0.435076
H199	H	0.555175	0.255955	0.378467
H200	H	0.605191	0.249905	0.423627
H201	H	0.604799	0.206358	0.372169
H202	H	0.528417	0.217934	0.462382
H203	H	0.528012	0.174386	0.410919
C204	C	0.442885	-0.077445	0.000064
C205	C	0.398061	-0.032337	0.000062
H206	H	0.427533	-0.112922	0.000075
H207	H	0.465755	-0.075012	-0.034241
H208	H	0.465762	-0.074999	0.034366
H209	H	0.375187	-0.034781	-0.034242
H210	H	0.375183	-0.034772	0.034371
H211	H	0.601653	0.144770	0.271413
H212	H	0.512280	-0.016146	0.000054
H213	H	0.525555	-0.459814	0.000009
C214	C	0.788251	-0.041729	0.239936
C215	C	0.754072	-0.007575	0.280200
H216	H	0.814686	-0.068145	0.260935
H217	H	0.764659	-0.062090	0.215788
H218	H	0.808594	-0.018114	0.215785
H219	H	0.733725	-0.031190	0.304349
H220	H	0.777667	0.012787	0.304358
H221	H	0.781933	-0.035423	0.556197
C222	C	0.788282	-0.041762	0.760132
C223	C	0.754099	-0.007600	0.719881
H224	H	0.814708	-0.068182	0.739123
H225	H	0.808632	-0.018157	0.784276
H226	H	0.764688	-0.062124	0.784289
H227	H	0.777693	0.012765	0.695726
H228	H	0.733748	-0.031209	0.695727
H229	H	0.743008	0.003492	0.841044
C230	C	0.556410	0.189987	0.809626
C231	C	0.590593	0.155825	0.849877
H232	H	0.529976	0.216398	0.830635
H233	H	0.579999	0.210353	0.785477
H234	H	0.536064	0.166376	0.785474
H235	H	0.610942	0.179435	0.874026
H236	H	0.567001	0.135457	0.874036
