data_functionalizedCrystal
_audit_creation_method	'MofGen! by Chris Wilmer'
_symmetry_space_group_name_H-M	'P1'
_symmetry_Int_Tables_number	1
_symmetry_cell_setting	triclinic
loop_
_symmetry_equiv_pos_as_xyz
  x,y,z
_cell_length_a	12.759401
_cell_length_b	12.645330
_cell_length_c	12.759386
_cell_angle_alpha	89.937984
_cell_angle_beta	89.958941
_cell_angle_gamma	90.019217
loop_
_atom_site_label
_atom_site_type_symbol
_atom_site_fract_x
_atom_site_fract_y
_atom_site_fract_z
Zn1	Zn	1.606453	-0.421599	-0.594032
Zn2	Zn	1.606273	-0.599002	-0.418357
Zn3	Zn	1.430690	-0.421758	-0.418367
Zn4	Zn	1.430735	-0.598826	-0.593994
O5	O	1.518538	-0.510296	-0.506187
O6	O	1.753450	-0.445139	-0.570740
O7	O	1.582888	-0.575630	-0.271337
O8	O	1.454062	-0.273390	-0.441689
O9	O	1.753318	-0.575477	-0.441672
O10	O	1.583195	-0.273273	-0.570750
O11	O	1.453888	-0.445410	-0.271344
O12	O	1.283675	-0.445239	-0.441653
O13	O	1.454138	-0.575176	-0.741020
O14	O	1.283708	-0.575330	-0.570685
O15	O	1.583238	-0.444969	-0.741048
O16	O	1.582931	-0.747326	-0.441635
O17	O	1.453964	-0.747196	-0.570675
C18	C	1.245571	-0.510283	-0.506166
C19	C	1.128794	-0.510303	-0.506182
C20	C	1.073976	-0.578145	-0.573264
C21	C	0.964252	-0.578149	-0.573285
C22	C	0.964173	-0.442467	-0.439134
C23	C	1.073895	-0.442458	-0.439119
C24	C	1.518461	-0.785726	-0.506173
C25	C	1.518525	-0.903556	-0.506201
C26	C	1.437726	-1.071082	-0.587631
C27	C	1.437312	-0.948523	-0.587369
C28	C	1.488510	-0.948223	-0.395479
C29	C	1.488017	-1.070821	-0.395973
C30	C	1.629832	-1.070624	-0.534596
C31	C	1.629151	-0.948015	-0.537017
C32	C	1.792571	-0.510310	-0.506209
C33	C	1.909348	-0.510316	-0.506218
C34	C	1.518713	-0.510035	-0.780221
C35	C	1.518787	-0.509924	-0.896998
C36	C	1.518644	-0.233791	-0.506225
C37	C	1.518689	-0.115961	-0.506241
C38	C	1.518424	-0.510480	-0.233220
C39	C	1.518553	-0.510293	-0.116443
C40	C	1.451889	-0.578485	-0.061281
C41	C	1.452003	-0.578298	0.048443
C42	C	1.585454	-0.441724	0.047832
C43	C	1.585334	-0.441906	-0.061890
H44	H	0.919461	-0.387231	-0.384531
H45	H	1.456096	-0.918315	-0.669469
N46	N	1.129913	-0.373171	-0.370590
N47	N	1.227878	-0.373176	-0.370590
H48	H	1.267444	-0.324243	-0.322196
N49	N	0.908277	-0.647467	-0.641804
N50	N	0.920505	-0.745280	-0.634661
H51	H	0.880975	-0.794240	-0.683056
H52	H	1.408109	-0.917630	-0.371024
H53	H	1.456337	-1.100440	-0.670000
N54	N	1.558742	-1.108096	-0.317282
N55	N	1.525648	-1.164839	-0.244117
H56	H	1.575587	-1.191166	-0.188536
H57	H	1.397716	-0.633824	0.093351
H58	H	1.355845	-1.101998	-0.569086
H59	H	1.354917	-0.919303	-0.568584
H60	H	1.406769	-1.099531	-0.371952
N61	N	1.560146	-0.911694	-0.317333
N62	N	1.634296	-0.852189	-0.342432
H63	H	1.684892	-0.826389	-0.287244
N64	N	1.130072	-0.647438	-0.641757
N65	N	1.191249	-0.714962	-0.604669
H66	H	1.230866	-0.763901	-0.653045
N67	N	1.653687	-0.371893	0.103558
N68	N	1.750664	-0.378240	0.091143
H69	H	1.798859	-0.328922	0.130497
H70	H	1.397510	-0.634168	-0.105695
N71	N	1.664163	-1.109262	-0.634157
N72	N	1.607124	-1.170691	-0.685428
H73	H	1.631360	-1.197983	-0.755747
H74	H	1.692652	-0.917399	-0.482054
N75	N	1.653432	-0.372231	-0.118228
N76	N	1.713056	-0.311182	-0.069511
H77	H	1.761145	-0.261972	-0.109299
H78	H	1.651785	-0.918811	-0.618503
N79	N	1.705492	-1.107033	-0.460222
N80	N	1.677823	-1.166113	-0.386624
H81	H	1.731250	-1.191831	-0.334091
