data_functionalizedCrystal
_audit_creation_method	'MofGen! by Chris Wilmer'
_symmetry_space_group_name_H-M	'P1'
_symmetry_Int_Tables_number	1
_symmetry_cell_setting	triclinic
loop_
_symmetry_equiv_pos_as_xyz
  x,y,z
_cell_length_a	9.130313
_cell_length_b	8.559649
_cell_length_c	8.559649
_cell_angle_alpha	110.221336
_cell_angle_beta	89.999141
_cell_angle_gamma	90.000329
loop_
_atom_site_label
_atom_site_type_symbol
_atom_site_fract_x
_atom_site_fract_y
_atom_site_fract_z
O1	O	0.121776	-2.126873	-0.055041
O2	O	0.121782	-1.651388	0.028740
O3	O	0.121777	-1.931021	-0.250893
O4	O	0.121781	-1.847240	0.224592
O5	O	-0.121822	-1.931017	-0.250886
O6	O	-0.121817	-1.651384	0.028747
O7	O	-0.121822	-2.126869	-0.055034
Cu8	Cu	-0.144062	-1.889126	-0.013143
Cu9	Cu	0.144022	-1.889131	-0.013151
O10	O	-0.121818	-1.847236	0.224599
C11	C	-0.000017	-1.591077	0.035093
C12	C	-0.000014	-1.411378	0.053992
N13	N	-0.346685	-1.889135	-0.013139
C14	C	-0.000020	-1.937369	-0.311198
C15	C	-0.000012	-1.956268	-0.490898
C16	C	-0.423339	-2.012980	-0.136927
C17	C	-0.576676	-2.012978	-0.136946
C18	C	-0.576691	-1.765279	0.110625
C19	C	-0.423357	-1.765276	0.110636
C20	C	-0.346667	-2.136839	-0.260703
C21	C	-0.423321	-2.260695	-0.384499
C22	C	-0.576658	-2.260693	-0.384518
C23	C	-0.653341	-2.136836	-0.260740
N24	N	0.346644	-1.889137	-0.013169
C25	C	-0.000021	-2.187180	-0.061387
C26	C	-0.000013	-2.366879	-0.080286
C27	C	-0.000018	-1.840889	0.284904
C28	C	-0.000016	-1.821990	0.464604
H29	H	-0.221812	-2.136855	-0.260696
H30	H	-0.639068	-2.361532	-0.485327
Br31	Br	-0.861443	-2.136825	-0.260790
Br32	Br	0.000008	-1.245737	0.269719
Br33	Br	-0.680758	-1.597199	0.278601
H34	H	-0.000025	-2.085696	-0.590286
Br35	Br	-0.319259	-2.428763	-0.552492
H36	H	-0.360944	-1.664429	0.211434
H37	H	-0.000007	-1.466258	-0.209705
H38	H	-0.000019	-1.692570	-0.436018
