data_functionalizedCrystal
_audit_creation_method	'MofGen! by Chris Wilmer'
_symmetry_space_group_name_H-M	'P1'
_symmetry_Int_Tables_number	1
_symmetry_cell_setting	triclinic
loop_
_symmetry_equiv_pos_as_xyz
  x,y,z
_cell_length_a	17.640112
_cell_length_b	17.637651
_cell_length_c	17.640597
_cell_angle_alpha	92.019515
_cell_angle_beta	87.714469
_cell_angle_gamma	114.329102
loop_
_atom_site_label
_atom_site_type_symbol
_atom_site_fract_x
_atom_site_fract_y
_atom_site_fract_z
Zn1	Zn	1.224153	-0.102702	-0.179021
Zn2	Zn	1.171496	-0.216709	-0.034427
Zn3	Zn	1.068738	-0.113625	-0.076036
Zn4	Zn	1.058453	-0.268394	-0.178894
O5	O	1.130710	-0.175357	-0.117094
O6	O	1.329520	-0.091623	-0.142481
O7	O	1.140132	-0.185975	0.063613
O8	O	1.115695	0.000308	-0.107164
O9	O	1.290833	-0.175384	-0.036248
O10	O	1.229879	0.008333	-0.182827
O11	O	1.064636	-0.110240	0.033043
O12	O	0.955022	-0.160357	-0.107040
O13	O	1.098166	-0.263474	-0.282470
O14	O	0.947466	-0.274066	-0.182609
O15	O	1.219906	-0.141740	-0.282564
O16	O	1.130159	-0.336049	-0.036124
O17	O	1.047107	-0.374022	-0.142263
C18	C	0.922112	-0.224006	-0.149326
C19	C	0.832872	-0.244840	-0.163129
C20	C	0.559079	-0.017068	-0.012240
C21	C	0.475222	-0.036663	-0.025218
C22	C	0.467347	-0.155182	-0.103723
C23	C	0.551206	-0.135595	-0.090755
C24	C	0.597065	-0.066538	-0.045012
C25	C	0.589193	-0.185064	-0.123527
C26	C	0.673043	-0.165481	-0.110556
C27	C	0.718908	-0.096428	-0.064814
C28	C	0.680916	-0.046954	-0.032041
C29	C	0.543330	-0.254125	-0.169265
C30	C	0.581317	-0.303594	-0.202037
C31	C	0.665170	-0.284007	-0.189071
C32	C	0.711035	-0.214955	-0.143328
C33	C	0.703162	-0.333481	-0.221843
C34	C	0.787013	-0.313898	-0.208872
C35	C	0.794885	-0.195371	-0.130357
C36	C	1.081827	-0.384199	-0.084677
C37	C	1.060993	-0.473529	-0.070823
C38	C	1.289549	-0.746228	-0.222500
C39	C	1.269944	-0.830171	-0.209473
C40	C	1.151097	-0.838604	-0.130583
C41	C	1.170695	-0.754659	-0.143601
C42	C	1.239921	-0.708477	-0.189561
C43	C	1.121067	-0.716908	-0.110661
C44	C	1.140660	-0.632971	-0.123681
C45	C	1.209882	-0.586785	-0.169641
C46	C	1.259514	-0.624541	-0.202581
C47	C	1.051837	-0.763093	-0.064706
C48	C	1.002209	-0.725342	-0.031766
C49	C	1.021806	-0.641402	-0.044782
C50	C	1.091027	-0.595216	-0.090742
C51	C	0.972173	-0.603647	-0.011842
C52	C	0.991767	-0.519710	-0.024862
C53	C	1.110621	-0.511279	-0.103762
C54	C	1.340122	-0.126520	-0.084737
C55	C	1.429361	-0.105708	-0.070949
C56	C	1.163763	-0.207154	-0.310120
C57	C	1.177848	-0.220704	-0.392375
C58	C	1.179808	0.034302	-0.149651
C59	C	1.200731	0.123646	-0.163525
C60	C	1.097846	-0.143616	0.075178
C61	C	1.083969	-0.129803	0.157422
C62	C	1.237154	-0.279155	0.507666
C63	C	1.224116	-0.266154	0.584942
C64	C	1.144602	-0.188232	0.553032
C65	C	1.157637	-0.201223	0.475751
C66	C	1.203913	-0.246686	0.453074
C67	C	1.124396	-0.168754	0.421160
C68	C	1.137426	-0.181748	0.343885
C69	C	1.183697	-0.227211	0.321202
C70	C	1.216943	-0.259680	0.375800
C71	C	1.078115	-0.123296	0.443838
C72	C	1.044874	-0.090827	0.389247
C73	C	1.057909	-0.103816	0.311971
C74	C	1.104180	-0.149279	0.289288
C75	C	1.024663	-0.071347	0.257373
C76	C	1.037694	-0.084340	0.180099
C77	C	1.117210	-0.162273	0.212013
H78	H	0.718262	0.009289	0.005194
H79	H	0.951354	-0.488974	0.001960
O80	O	0.653661	-0.407980	-0.271144
H81	H	0.652813	-0.465165	-0.246050
H82	H	0.596425	0.039175	0.024995
H83	H	0.444299	0.003631	0.001466
O84	O	0.417898	-0.229673	-0.153054
H85	H	0.394561	-0.208908	-0.202253
O86	O	1.185291	-0.461455	-0.153327
H87	H	1.177660	-0.490335	-0.211040
H88	H	0.915805	-0.641262	0.025573
O89	O	1.259973	-0.301177	0.643825
H90	H	1.303140	-0.249547	0.679516
H91	H	1.310353	-0.860908	-0.236312
H92	H	0.543966	-0.359822	-0.239278
O93	O	1.076446	-0.888418	-0.081001
H94	H	1.032301	-0.941669	-0.114465
O95	O	1.030703	-0.853626	-0.050665
H96	H	0.974222	-0.879400	-0.013182
H97	H	0.832232	-0.139127	-0.093122
O98	O	0.827985	-0.367246	-0.244241
H99	H	0.881049	-0.328604	-0.281606
H100	H	0.475054	-0.270067	-0.179824
O101	O	1.231021	-0.496250	-0.183680
H102	H	1.229465	-0.487096	-0.245433
O103	O	1.167129	-0.211303	0.187551
H104	H	1.170607	-0.214877	0.124645
O105	O	0.927556	-0.775147	0.017817
H106	H	0.922274	-0.839854	0.021346
O107	O	1.334182	-0.574718	-0.252150
H108	H	1.365402	-0.615068	-0.272871
H109	H	1.274844	-0.316168	0.489202
O110	O	1.094699	-0.139191	0.577491
H111	H	1.091228	-0.135604	0.640396
H112	H	1.345925	-0.708622	-0.259919
H113	H	1.194306	-0.237789	0.258280
H114	H	0.787183	-0.080486	-0.054252
H115	H	1.254633	-0.296692	0.357336
O116	O	1.064066	-0.109270	0.527183
H117	H	1.030598	-0.170236	0.554738
O118	O	0.994971	-0.041786	0.413705
H119	H	0.991500	-0.038198	0.476611
H120	H	0.986979	-0.034338	0.275849
O121	O	1.001850	-0.049317	0.121210
H122	H	0.967491	-0.015512	0.149960
