data_functionalizedCrystal
_audit_creation_method	'MofGen! by Chris Wilmer'
_symmetry_space_group_name_H-M	'P1'
_symmetry_Int_Tables_number	1
_symmetry_cell_setting	triclinic
loop_
_symmetry_equiv_pos_as_xyz
  x,y,z
_cell_length_a	15.944551
_cell_length_b	15.021413
_cell_length_c	10.654558
_cell_angle_alpha	90.003958
_cell_angle_beta	96.006551
_cell_angle_gamma	90.002826
loop_
_atom_site_label
_atom_site_type_symbol
_atom_site_fract_x
_atom_site_fract_y
_atom_site_fract_z
O1	O	1.115469	0.073939	-0.161949
O2	O	0.871036	0.073962	-0.181918
O3	O	0.998869	0.073944	0.010878
O4	O	0.987636	0.073957	-0.354745
O5	O	0.998849	-0.074120	0.010850
O6	O	0.871015	-0.074103	-0.181945
O7	O	1.115449	-0.074125	-0.161976
Zn8	Zn	0.993229	-0.097622	-0.171965
Zn9	Zn	0.993256	0.097459	-0.171929
O10	O	0.987616	-0.074107	-0.354772
C11	C	0.839727	-0.000068	-0.181102
C12	C	0.746466	-0.000059	-0.178617
N13	N	0.993217	-0.230760	-0.171989
C14	C	0.530881	-0.000081	-0.053173
C15	C	0.470209	0.072924	-0.111411
C16	C	0.575714	-0.000070	-0.174121
C17	C	0.470212	-0.073055	-0.111467
C18	C	0.410776	-0.000084	-0.169769
C19	C	0.516271	0.072996	-0.232393
C20	C	0.516279	-0.073050	-0.232432
C21	C	0.455626	-0.000026	-0.290758
C22	C	0.670731	-0.000061	-0.176625
C23	C	0.315761	-0.000087	-0.167275
C24	C	0.934097	-0.470435	-0.261096
C25	C	1.010139	-0.529775	-0.285476
C26	C	0.993238	-0.412367	-0.171958
C27	C	0.917217	-0.529768	-0.147605
C28	C	0.993252	-0.587791	-0.171930
C29	C	1.069319	-0.470401	-0.196395
C30	C	0.976346	-0.470388	-0.058474
C31	C	1.052443	-0.529702	-0.082807
C32	C	0.993229	-0.311309	-0.171977
C33	C	0.993270	-0.688846	-0.171910
C34	C	1.146758	-0.000094	-0.162792
C35	C	1.240018	-0.000096	-0.165277
C36	C	0.998033	-0.000088	0.057651
C37	C	0.995561	-0.000087	0.197062
N38	N	0.993274	0.230596	-0.171895
C39	C	0.988452	-0.000073	-0.401545
C40	C	0.990924	-0.000069	-0.540956
C41	C	0.994387	-0.080793	0.262554
C42	C	0.992072	-0.080784	0.393546
C43	C	0.992100	0.080644	0.393544
C44	C	0.994422	0.080634	0.262555
C45	C	1.038008	-0.177744	0.582178
C46	C	1.036819	-0.258454	0.647671
C47	C	0.988428	-0.329713	0.595541
C48	C	0.941204	-0.320265	0.477917
C49	C	0.942385	-0.239553	0.412429
C50	C	0.990796	-0.168298	0.464561
C51	C	0.948479	0.177588	0.073919
C52	C	0.949653	0.258301	0.008428
C53	C	0.998040	0.329567	0.060554
C54	C	1.045250	0.320127	0.178180
C55	C	1.044076	0.239415	0.243671
C56	C	0.995691	0.168148	0.191537
H57	H	0.563631	0.000005	0.047204
H58	H	1.024439	-0.555860	-0.381435
O59	O	0.540563	0.146621	-0.293476
C60	C	0.581209	0.120576	-0.398934
H61	H	0.606871	0.050124	-0.383841
H62	H	0.635441	0.168210	-0.411038
H63	H	0.534184	0.122335	-0.487198
H64	H	1.082515	0.231735	0.339455
O65	O	0.896418	-0.230275	0.298275
C66	C	0.837576	-0.160757	0.304410
H67	H	0.824727	-0.150301	0.406634
H68	H	0.776281	-0.178894	0.245082
H69	H	0.864137	-0.096864	0.266476
H70	H	0.991171	0.146364	0.446883
H71	H	1.084639	0.378163	0.220633
O72	O	0.901344	0.108432	0.023335
C73	C	0.815866	0.134011	0.004786
H74	H	0.804540	0.191520	0.070767
H75	H	0.774385	0.075187	0.025849
H76	H	0.799552	0.156008	-0.097254
O77	O	0.874392	-0.439486	-0.351020
C78	C	0.794460	-0.471011	-0.326325
H79	H	0.802401	-0.533918	-0.266415
H80	H	0.755128	-0.486746	-0.419259
H81	H	0.761217	-0.417864	-0.273333
H82	H	0.998954	0.395303	0.007250
H83	H	0.995308	-0.146521	0.209232
O84	O	0.959113	-0.439277	0.055915
C85	C	0.878867	-0.469491	0.081220
H86	H	0.839539	-0.486178	-0.011362
H87	H	0.845985	-0.415163	0.132525
H88	H	0.886186	-0.531561	0.142960
O89	O	0.416794	0.000180	-0.410647
C90	C	0.440301	0.077243	-0.473921
H91	H	0.461792	0.130795	-0.401814
H92	H	0.383990	0.102723	-0.538718
H93	H	0.494127	0.060525	-0.532397
H94	H	0.449820	-0.134774	-0.060300
H95	H	0.536699	-0.134770	-0.283557
O96	O	0.445921	0.146485	-0.050172
C97	C	0.484614	0.146235	0.075032
H98	H	0.502685	0.075192	0.104163
H99	H	0.438786	0.173807	0.140556
H100	H	0.543656	0.189504	0.081620
O101	O	1.082748	-0.267781	0.761856
C102	C	1.141614	-0.337272	0.755690
H103	H	1.118820	-0.384416	0.675437
H104	H	1.148266	-0.375403	0.848708
H105	H	1.205356	-0.308193	0.737942
O106	O	1.146045	-0.439560	-0.221294
C107	C	1.163830	-0.470563	-0.340579
H108	H	1.125426	-0.533225	-0.366017
H109	H	1.233906	-0.486537	-0.337594
H110	H	1.146540	-0.416999	-0.414582
O111	O	1.112286	-0.560519	0.007009
C112	C	1.192290	-0.530086	-0.019115
H113	H	1.190499	-0.513529	-0.123777
H114	H	1.241252	-0.584231	0.006170
H115	H	1.209813	-0.467892	0.039138
O116	O	0.840477	-0.560727	-0.122963
C117	C	0.786410	-0.488272	-0.106908
H118	H	0.825646	-0.426649	-0.078609
H119	H	0.744351	-0.504708	-0.029870
H120	H	0.745512	-0.474870	-0.199260
H121	H	0.901794	-0.378291	0.435487
H122	H	0.987461	-0.395429	0.648876
H123	H	1.077424	-0.119729	0.624627
H124	H	0.911258	0.265961	-0.087394
