data_functionalizedCrystal
_audit_creation_method	'MofGen! by Chris Wilmer'
_symmetry_space_group_name_H-M	'P1'
_symmetry_Int_Tables_number	1
_symmetry_cell_setting	triclinic
loop_
_symmetry_equiv_pos_as_xyz
  x,y,z
_cell_length_a	18.101389
_cell_length_b	19.077105
_cell_length_c	19.077068
_cell_angle_alpha	90.115316
_cell_angle_beta	87.722285
_cell_angle_gamma	92.315730
loop_
_atom_site_label
_atom_site_type_symbol
_atom_site_fract_x
_atom_site_fract_y
_atom_site_fract_z
Zn1	Zn	-0.477251	-1.062984	0.323060
Zn2	Zn	-0.227251	-0.812984	0.573060
Zn3	Zn	0.022749	-0.562984	0.823060
Zn4	Zn	0.272749	-0.312984	1.073060
Zn5	Zn	-0.358165	-1.058173	0.440549
Zn6	Zn	-0.108165	-0.808173	0.690549
Zn7	Zn	0.141835	-0.558173	0.940549
Zn8	Zn	0.391835	-0.308173	1.190549
Zn9	Zn	-0.348262	-0.945478	0.318333
Zn10	Zn	-0.098262	-0.695478	0.568333
Zn11	Zn	0.151738	-0.445478	0.818333
Zn12	Zn	0.401738	-0.195478	1.068333
Zn13	Zn	-0.476806	-0.940719	0.435801
Zn14	Zn	-0.226806	-0.690719	0.685801
Zn15	Zn	0.023194	-0.440719	0.935801
Zn16	Zn	0.273194	-0.190719	1.185801
O17	O	-0.415121	-1.001839	0.379436
O18	O	-0.165121	-0.751839	0.629436
O19	O	0.084879	-0.501839	0.879436
O20	O	0.334879	-0.251839	1.129436
O21	O	-0.465784	-1.160677	0.342610
O22	O	-0.215784	-0.910677	0.592610
O23	O	0.034216	-0.660677	0.842610
O24	O	0.284216	-0.410677	1.092610
O25	O	-0.253218	-1.043201	0.424345
O26	O	-0.003218	-0.793201	0.674345
O27	O	0.246782	-0.543201	0.924345
O28	O	0.496782	-0.293201	1.174345
O29	O	-0.361415	-0.965071	0.220629
O30	O	-0.111415	-0.715071	0.470629
O31	O	0.138585	-0.465071	0.720629
O32	O	0.388585	-0.215071	0.970629
O33	O	-0.378292	-1.157142	0.428929
O34	O	-0.128292	-0.907142	0.678929
O35	O	0.121708	-0.657142	0.928929
O36	O	0.371708	-0.407142	1.178929
O37	O	-0.456182	-1.051402	0.224102
O38	O	-0.206182	-0.801402	0.474102
O39	O	0.043818	-0.551402	0.724102
O40	O	0.293818	-0.301402	0.974102
O41	O	-0.245943	-0.960405	0.334554
O42	O	0.004057	-0.710405	0.584554
O43	O	0.254057	-0.460405	0.834554
O44	O	0.504057	-0.210405	1.084554
O45	O	-0.360983	-0.846515	0.329950
O46	O	-0.110983	-0.596515	0.579950
O47	O	0.139017	-0.346515	0.829950
O48	O	0.389017	-0.096515	1.079950
O49	O	-0.580498	-0.956960	0.420837
O50	O	-0.330498	-0.706960	0.670837
O51	O	-0.080498	-0.456960	0.920837
O52	O	0.169502	-0.206960	1.170837
O53	O	-0.455424	-0.843019	0.416254
O54	O	-0.205424	-0.593019	0.666254
O55	O	0.044576	-0.343019	0.916254
O56	O	0.294576	-0.093019	1.166254
O57	O	-0.580825	-1.046788	0.338006
O58	O	-0.330825	-0.796788	0.588006
O59	O	-0.080825	-0.546788	0.838006
O60	O	0.169175	-0.296788	1.088006
O61	O	-0.377861	-1.038587	0.538250
O62	O	-0.127861	-0.788587	0.788250
O63	O	0.122139	-0.538587	1.038250
O64	O	0.372139	-0.288587	1.288250
O65	O	-0.465026	-0.952294	0.534762
O66	O	-0.215026	-0.702294	0.784762
O67	O	0.034974	-0.452294	1.034762
O68	O	0.284974	-0.202294	1.284762
C69	C	-0.407081	-0.819271	0.372074
C70	C	-0.157081	-0.569271	0.622074
C71	C	0.092919	-0.319271	0.872074
C72	C	0.342919	-0.069271	1.122074
C73	C	-0.403660	-0.741167	0.368942
C74	C	-0.153660	-0.491167	0.618942
C75	C	0.096340	-0.241167	0.868942
C76	C	0.346340	0.008833	1.118942
C77	C	-0.422487	-0.994421	0.562002
C78	C	-0.172487	-0.744421	0.812002
C79	C	0.077513	-0.494421	1.062002
C80	C	0.327513	-0.244421	1.312002
C81	C	-0.425665	-0.991312	0.640108
C82	C	-0.175665	-0.741312	0.890108
C83	C	0.074335	-0.491312	1.140108
C84	C	0.324335	-0.241312	1.390108
C85	C	-0.608284	-1.001880	0.379419
C86	C	-0.358284	-0.751880	0.629419
C87	C	-0.108284	-0.501880	0.879419
C88	C	0.141716	-0.251880	1.129419
C89	C	-0.690599	-1.001897	0.379413
C90	C	-0.440599	-0.751897	0.629413
C91	C	-0.190599	-0.501897	0.879413
C92	C	0.059401	-0.251897	1.129413
C93	C	-0.989686	-1.001944	0.379283
C94	C	-0.739686	-0.751944	0.629283
C95	C	-0.489686	-0.501944	0.879283
C96	C	-0.239686	-0.251944	1.129283
C97	C	-0.958140	-0.945246	0.431217
C98	C	-0.708140	-0.695246	0.681217
C99	C	-0.458140	-0.445246	0.931217
C100	C	-0.208140	-0.195246	1.181217
C101	C	-0.872538	-0.945384	0.431474
C102	C	-0.622538	-0.695384	0.681474
C103	C	-0.372538	-0.445384	0.931474
C104	C	-0.122538	-0.195384	1.181474
C105	C	-0.841305	-1.001920	0.379347
C106	C	-0.591305	-0.751920	0.629347
C107	C	-0.341305	-0.501920	0.879347
C108	C	-0.091305	-0.251920	1.129347
C109	C	-0.876470	-1.075148	0.402427
C110	C	-0.626470	-0.825148	0.652427
C111	C	-0.376470	-0.575148	0.902427
C112	C	-0.126470	-0.325148	1.152427
C113	C	-0.962116	-1.074830	0.402771
C114	C	-0.712116	-0.824830	0.652771
C115	C	-0.462116	-0.574830	0.902771
C116	C	-0.212116	-0.324830	1.152771
C117	C	-0.954271	-0.986062	0.304173
C118	C	-0.704271	-0.736062	0.554173
C119	C	-0.454271	-0.486062	0.804173
C120	C	-0.204271	-0.236062	1.054173
C121	C	-0.868566	-0.984397	0.304536
C122	C	-0.618566	-0.734397	0.554536
C123	C	-0.368566	-0.484397	0.804536
C124	C	-0.118566	-0.234397	1.054536
C125	C	-0.757447	-1.001911	0.379382
C126	C	-0.507447	-0.751911	0.629382
C127	C	-0.257447	-0.501911	0.879382
C128	C	-0.007447	-0.251911	1.129382
C129	C	-1.073545	-1.001957	0.379249
C130	C	-0.823545	-0.751957	0.629249
C131	C	-0.573545	-0.501957	0.879249
C132	C	-0.323545	-0.251957	1.129249
C133	C	-0.222709	-1.001840	0.379403
C134	C	0.027291	-0.751840	0.629403
C135	C	0.277291	-0.501840	0.879403
C136	C	0.527291	-0.251840	1.129403
C137	C	-0.140393	-1.001966	0.379217
C138	C	0.109607	-0.751966	0.629217
C139	C	0.359607	-0.501966	0.879217
C140	C	0.609607	-0.251966	1.129217
C141	C	-0.423193	-1.185119	0.386826
C142	C	-0.173193	-0.935119	0.636826
C143	C	0.076807	-0.685119	0.886826
C144	C	0.326807	-0.435119	1.136826
C145	C	-0.426632	-1.263222	0.389976
C146	C	-0.176632	-1.013222	0.639976
C147	C	0.073368	-0.763222	0.889976
C148	C	0.323368	-0.513222	1.139976
C149	C	-0.451151	-0.702669	0.412472
C150	C	-0.201151	-0.452669	0.662472
C151	C	0.048849	-0.202669	0.912472
C152	C	0.298849	0.047331	1.162472
C153	C	-0.447940	-0.629283	0.409519
C154	C	-0.197940	-0.379283	0.659519
C155	C	0.052060	-0.129283	0.909519
C156	C	0.302060	0.120717	1.159519
C157	C	-0.397233	-0.594395	0.363040
C158	C	-0.147233	-0.344395	0.613040
C159	C	0.102767	-0.094395	0.863040
C160	C	0.352767	0.155605	1.113040
C161	C	-0.349740	-0.632899	0.319506
C162	C	-0.099740	-0.382899	0.569506
C163	C	0.150260	-0.132899	0.819506
C164	C	0.400260	0.117101	1.069506
C165	C	-0.352956	-0.706284	0.322455
C166	C	-0.102956	-0.456284	0.572455
C167	C	0.147044	-0.206284	0.822455
C168	C	0.397044	0.043716	1.072455
C169	C	-0.382355	-0.375111	0.349390
C170	C	-0.132355	-0.125111	0.599390
C171	C	0.117645	0.124889	0.849390
C172	C	0.367645	0.374889	1.099390
C173	C	-0.379141	-0.301720	0.346446
C174	C	-0.129141	-0.051720	0.596446
C175	C	0.120859	0.198280	0.846446
C176	C	0.370859	0.448280	1.096446
C177	C	-0.477342	-0.298109	0.436459
C178	C	-0.227342	-0.048109	0.686459
C179	C	0.022658	0.201891	0.936459
C180	C	0.272658	0.451891	1.186459
C181	C	-0.480550	-0.371496	0.439407
C182	C	-0.230550	-0.121496	0.689407
C183	C	0.019450	0.128504	0.939407
C184	C	0.269450	0.378504	1.189407
C185	C	-0.433060	-0.409993	0.395870
C186	C	-0.183060	-0.159993	0.645870
C187	C	0.066940	0.090007	0.895870
C188	C	0.316940	0.340007	1.145870
N189	N	-0.393948	-0.519383	0.360023
N190	N	-0.143948	-0.269383	0.610023
N191	N	0.106052	-0.019383	0.860023
N192	N	0.356052	0.230617	1.110023
N193	N	-0.436349	-0.485004	0.398884
N194	N	-0.186349	-0.235004	0.648884
N195	N	0.063651	0.014996	0.898884
N196	N	0.313651	0.264996	1.148884
C197	C	-0.407743	-1.009304	0.196157
C198	C	-0.157743	-0.759304	0.446157
C199	C	0.092257	-0.509304	0.696157
C200	C	0.342257	-0.259304	0.946157
C201	C	-0.404600	-1.012485	0.118054
C202	C	-0.154600	-0.762485	0.368054
C203	C	0.095400	-0.512485	0.618054
C204	C	0.345400	-0.262485	0.868054
C205	C	-0.381818	-1.034814	0.678596
C206	C	-0.131818	-0.784814	0.928596
C207	C	0.118182	-0.534814	1.178596
C208	C	0.368182	-0.284814	1.428596
C209	C	-0.384812	-1.031895	0.751984
C210	C	-0.134812	-0.781895	1.001984
C211	C	0.115188	-0.531895	1.251984
C212	C	0.365188	-0.281895	1.501984
C213	C	-0.431651	-0.985468	0.786883
C214	C	-0.181651	-0.735468	1.036883
C215	C	0.068349	-0.485468	1.286883
C216	C	0.318349	-0.235468	1.536883
C217	C	-0.475503	-0.941964	0.748390
C218	C	-0.225503	-0.691964	0.998390
C219	C	0.024497	-0.441964	1.248390
C220	C	0.274497	-0.191964	1.498390
C221	C	-0.472512	-0.944888	0.675003
C222	C	-0.222512	-0.694888	0.925003
C223	C	0.027488	-0.444888	1.175003
C224	C	0.277488	-0.194888	1.425003
C225	C	-0.445461	-0.971905	1.006174
C226	C	-0.195461	-0.721905	1.256174
C227	C	0.054539	-0.471905	1.506174
C228	C	0.304539	-0.221905	1.756174
C229	C	-0.448447	-0.968983	1.079566
C230	C	-0.198447	-0.718983	1.329566
C231	C	0.051553	-0.468983	1.579566
C232	C	0.301553	-0.218983	1.829566
C233	C	-0.357757	-1.058915	1.083156
C234	C	-0.107757	-0.808915	1.333156
C235	C	0.142243	-0.558915	1.583156
C236	C	0.392243	-0.308915	1.833156
C237	C	-0.354767	-1.061831	1.009767
C238	C	-0.104767	-0.811831	1.259767
C239	C	0.145233	-0.561831	1.509767
C240	C	0.395233	-0.311831	1.759767
C241	C	-0.398622	-1.018330	0.971280
C242	C	-0.148622	-0.768330	1.221280
C243	C	0.101378	-0.518330	1.471280
C244	C	0.351378	-0.268330	1.721280
N245	N	-0.434711	-0.982481	0.861898
N246	N	-0.184711	-0.732481	1.111898
N247	N	0.065289	-0.482481	1.361898
N248	N	0.315289	-0.232481	1.611898
N249	N	-0.395565	-1.021321	0.896267
N250	N	-0.145565	-0.771321	1.146267
N251	N	0.104435	-0.521321	1.396267
N252	N	0.354435	-0.271321	1.646267
H253	H	-0.848590	-0.890989	0.416686
H254	H	-0.598590	-0.640989	0.666686
H255	H	-0.348590	-0.390989	0.916686
H256	H	-0.098590	-0.140989	1.166686
F257	F	-0.992032	-1.092882	0.474652
F258	F	-0.742032	-0.842882	0.724652
F259	F	-0.492032	-0.592882	0.974652
F260	F	-0.242032	-0.342882	1.224652
F261	F	-0.311089	-1.105211	1.124121
F262	F	-0.061089	-0.855211	1.374121
F263	F	0.188911	-0.605211	1.624121
F264	F	0.438911	-0.355211	1.874121
H265	H	-0.847074	-1.022917	0.263548
H266	H	-0.597074	-0.772917	0.513548
H267	H	-0.347074	-0.522917	0.763548
H268	H	-0.097074	-0.272917	1.013548
F269	F	-0.519184	-0.898589	0.634041
F270	F	-0.269184	-0.648589	0.884041
F271	F	-0.019184	-0.398589	1.134041
F272	F	0.230816	-0.148589	1.384041
H273	H	-0.486602	-0.931186	1.107979
H274	H	-0.236602	-0.681186	1.357979
H275	H	0.013398	-0.431186	1.607979
H276	H	0.263398	-0.181186	1.857979
H277	H	-0.316627	-1.099635	0.981354
H278	H	-0.066627	-0.849635	1.231354
H279	H	0.183373	-0.599635	1.481354
H280	H	0.433373	-0.349635	1.731354
H281	H	-0.983169	-1.118346	0.366747
H282	H	-0.733169	-0.868346	0.616747
H283	H	-0.483169	-0.618346	0.866747
H284	H	-0.233169	-0.368346	1.116747
H285	H	-0.972791	-0.933749	0.283725
H286	H	-0.722791	-0.683749	0.533725
H287	H	-0.472791	-0.433749	0.783725
H288	H	-0.222791	-0.183749	1.033725
H289	H	-0.975808	-0.890681	0.416551
H290	H	-0.725808	-0.640681	0.666551
H291	H	-0.475808	-0.390681	0.916551
H292	H	-0.225808	-0.140681	1.166551
H293	H	-0.982425	-0.955380	0.486488
H294	H	-0.732425	-0.705380	0.736488
H295	H	-0.482425	-0.455380	0.986488
H296	H	-0.232425	-0.205380	1.236488
F297	F	-0.980911	-1.040085	0.253549
F298	F	-0.730911	-0.790085	0.503549
F299	F	-0.480911	-0.540085	0.753549
F300	F	-0.230911	-0.290085	1.003549
H301	H	-0.337854	-0.273317	0.308589
H302	H	-0.087854	-0.023317	0.558589
H303	H	0.162146	0.226683	0.808589
H304	H	0.412146	0.476683	1.058589
F305	F	-0.838075	-0.913975	0.281859
F306	F	-0.588075	-0.663975	0.531859
F307	F	-0.338075	-0.413975	0.781859
F308	F	-0.088075	-0.163975	1.031859
H309	H	-0.492439	-0.731069	0.450322
H310	H	-0.242439	-0.481069	0.700322
H311	H	0.007561	-0.231069	0.950322
H312	H	0.257561	0.018931	1.200322
H313	H	-0.854835	-0.955627	0.487086
H314	H	-0.604835	-0.705627	0.737086
H315	H	-0.354835	-0.455627	0.987086
H316	H	-0.104835	-0.205627	1.237086
H317	H	-0.521839	-0.399896	0.477257
H318	H	-0.271839	-0.149896	0.727257
H319	H	-0.021839	0.100104	0.977257
H320	H	0.228161	0.350104	1.227257
F321	F	-0.498487	-0.588313	0.455850
F322	F	-0.248487	-0.338313	0.705850
F323	F	0.001513	-0.088313	0.955850
F324	F	0.251513	0.161687	1.205850
H325	H	-0.856405	-1.118397	0.365920
H326	H	-0.606405	-0.868397	0.615920
H327	H	-0.356405	-0.618397	0.865920
H328	H	-0.106405	-0.368397	1.115920
H329	H	-0.516007	-0.266757	0.471903
H330	H	-0.266007	-0.016757	0.721903
H331	H	-0.016007	0.233243	0.971903
H332	H	0.233993	0.483243	1.221903
F333	F	-0.331960	-1.084224	0.641461
F334	F	-0.081960	-0.834224	0.891461
F335	F	0.168040	-0.584224	1.141461
F336	F	0.418040	-0.334224	1.391461
H337	H	-0.857919	-1.089260	0.456855
H338	H	-0.607919	-0.839260	0.706855
H339	H	-0.357919	-0.589260	0.956855
H340	H	-0.107919	-0.339260	1.206855
F341	F	-0.331813	-0.416073	0.303052
F342	F	-0.081813	-0.166073	0.553052
F343	F	0.168187	0.083927	0.803052
F344	F	0.418187	0.333927	1.053052
H345	H	-0.308457	-0.604488	0.281658
H346	H	-0.058457	-0.354488	0.531658
H347	H	0.191543	-0.104488	0.781658
H348	H	0.441543	0.145512	1.031658
H349	H	-0.314287	-0.737628	0.287005
H350	H	-0.064287	-0.487628	0.537005
H351	H	0.185713	-0.237628	0.787005
H352	H	0.435713	0.012372	1.037005
F353	F	-0.338145	-1.078198	0.792943
F354	F	-0.088145	-0.828198	1.042943
F355	F	0.161855	-0.578198	1.292943
F356	F	0.411855	-0.328198	1.542943
F357	F	-0.492136	-0.925606	0.965223
F358	F	-0.242136	-0.675606	1.215223
F359	F	0.007864	-0.425606	1.465223
F360	F	0.257864	-0.175606	1.715223
H361	H	-0.513644	-0.904166	0.776810
H362	H	-0.263644	-0.654166	1.026810
H363	H	-0.013644	-0.404166	1.276810
H364	H	0.236356	-0.154166	1.526810
