data_functionalizedCrystal
_audit_creation_method	'MofGen! by Chris Wilmer'
_symmetry_space_group_name_H-M	'P1'
_symmetry_Int_Tables_number	1
_symmetry_cell_setting	triclinic
loop_
_symmetry_equiv_pos_as_xyz
  x,y,z
_cell_length_a	14.971486
_cell_length_b	16.109304
_cell_length_c	13.448316
_cell_angle_alpha	89.996206
_cell_angle_beta	89.998199
_cell_angle_gamma	83.538383
loop_
_atom_site_label
_atom_site_type_symbol
_atom_site_fract_x
_atom_site_fract_y
_atom_site_fract_z
O1	O	1.186792	0.108348	-0.082571
O2	O	1.520126	0.441681	0.250762
O3	O	1.853459	0.775014	0.584096
O4	O	0.926374	0.121323	-0.082597
O5	O	1.259707	0.454656	0.250736
O6	O	1.593040	0.787989	0.584069
O7	O	1.063736	-0.006187	-0.082584
O8	O	1.397069	0.327147	0.250749
O9	O	1.730402	0.660480	0.584083
O10	O	1.049430	0.235857	-0.082584
O11	O	1.382764	0.569190	0.250749
O12	O	1.716097	0.902524	0.584082
O13	O	1.063718	-0.006195	0.082800
O14	O	1.397052	0.327139	0.416133
O15	O	1.730385	0.660472	0.749466
O16	O	0.926356	0.121315	0.082786
O17	O	1.259690	0.454648	0.416120
O18	O	1.593023	0.787981	0.749453
O19	O	1.186775	0.108340	0.082813
O20	O	1.520108	0.441673	0.416146
O21	O	1.853442	0.775007	0.749479
Cu22	Cu	1.056564	0.114827	0.097900
Cu23	Cu	1.389897	0.448160	0.431234
Cu24	Cu	1.723231	0.781493	0.764567
Cu25	Cu	1.056585	0.114836	-0.097685
Cu26	Cu	1.389918	0.448169	0.235648
Cu27	Cu	1.723251	0.781503	0.568982
O28	O	1.049413	0.235849	0.082799
O29	O	1.382746	0.569183	0.416133
O30	O	1.716080	0.902516	0.749466
C31	C	0.893041	0.120738	0.000091
C32	C	1.226374	0.454072	0.333424
C33	C	1.559708	0.787405	0.666758
C34	C	0.793746	0.119000	0.000081
C35	C	1.127080	0.452333	0.333414
C36	C	1.460413	0.785666	0.666747
C37	C	0.736414	0.193908	0.000082
C38	C	1.069747	0.527241	0.333415
C39	C	1.403081	0.860575	0.666749
C40	C	0.643117	0.192269	0.000097
C41	C	0.976450	0.525602	0.333430
C42	C	1.309783	0.858936	0.666763
C43	C	0.607154	0.115721	0.000103
C44	C	0.940487	0.449054	0.333437
C45	C	1.273821	0.782388	0.666770
C46	C	0.664494	0.040807	0.000105
C47	C	0.997827	0.374140	0.333438
C48	C	1.331161	0.707474	0.666772
C49	C	0.757789	0.042447	0.000097
C50	C	1.091123	0.375780	0.333431
C51	C	1.424456	0.709113	0.666764
C52	C	0.470036	0.037395	0.000119
C53	C	0.803370	0.370728	0.333452
C54	C	1.136703	0.704061	0.666785
C55	C	0.376735	0.035755	0.000124
C56	C	0.710068	0.369088	0.333458
C57	C	1.043401	0.702421	0.666791
C58	C	0.355364	0.187217	0.000118
C59	C	0.688697	0.520550	0.333452
C60	C	1.022031	0.853884	0.666785
C61	C	0.448659	0.188857	0.000111
C62	C	0.781993	0.522190	0.333444
C63	C	1.115326	0.855523	0.666777
C64	C	0.505993	0.113942	0.000110
C65	C	0.839326	0.447276	0.333444
C66	C	1.172659	0.780609	0.666777
C67	C	1.063147	-0.037166	0.000105
C68	C	1.396480	0.296167	0.333439
C69	C	1.729814	0.629500	0.666772
C70	C	1.061408	-0.129464	0.000099
C71	C	1.394742	0.203870	0.333432
C72	C	1.728075	0.537203	0.666765
C73	C	1.057401	-0.341802	-0.090049
C74	C	1.390734	-0.008468	0.243284
C75	C	1.724068	0.324865	0.576618
C76	C	1.055759	-0.428524	-0.090048
C77	C	1.389093	-0.095190	0.243285
C78	C	1.722426	0.238143	0.576619
C79	C	1.055745	-0.428529	0.090262
C80	C	1.389078	-0.095196	0.423596
C81	C	1.722412	0.238137	0.756929
C82	C	1.057380	-0.341808	0.090261
C83	C	1.390714	-0.008475	0.423594
C84	C	1.724047	0.324859	0.756927
C85	C	1.058213	-0.298447	0.000102
C86	C	1.391546	0.034886	0.333435
C87	C	1.724880	0.368220	0.666769
C88	C	1.054936	-0.471891	0.000105
C89	C	1.388269	-0.138557	0.333438
C90	C	1.721602	0.194776	0.666771
C91	C	1.053156	-0.565919	0.000106
C92	C	1.386489	-0.232585	0.333439
C93	C	1.719822	0.100748	0.666773
C94	C	1.059991	-0.204413	0.000100
C95	C	1.393325	0.128921	0.333433
C96	C	1.726658	0.462254	0.666767
C97	C	1.220108	0.108924	0.000122
C98	C	1.553441	0.442257	0.333455
C99	C	1.886774	0.775591	0.666789
C100	C	1.319402	0.110663	0.000126
C101	C	1.652735	0.443996	0.333459
C102	C	1.986069	0.777330	0.666792
C103	C	1.050002	0.266829	0.000108
C104	C	1.383335	0.600162	0.333441
C105	C	1.716668	0.933495	0.666774
C106	C	1.051740	0.359126	0.000108
C107	C	1.385074	0.692459	0.333441
C108	C	1.718407	1.025793	0.666775
N109	N	1.056556	0.114820	0.235465
N110	N	1.389890	0.448153	0.568798
N111	N	1.723223	0.781486	0.902131
N112	N	1.056599	0.114836	-0.235249
N113	N	1.389933	0.448170	0.098084
N114	N	1.723266	0.781503	0.431417
C115	C	1.117399	0.058382	0.287511
C116	C	1.450732	0.391715	0.620844
C117	C	1.784066	0.725048	0.954178
C118	C	1.117405	0.058381	0.391614
C119	C	1.450738	0.391714	0.724948
C120	C	1.784071	0.725048	1.058281
C121	C	1.056571	0.114823	0.443669
C122	C	1.389904	0.448156	0.777003
C123	C	1.723238	0.781490	1.110336
C124	C	0.995722	0.171263	0.391616
C125	C	1.329055	0.504597	0.724949
C126	C	1.662388	0.837930	1.058282
C127	C	0.995713	0.171259	0.287514
C128	C	1.329046	0.504593	0.620848
C129	C	1.662379	0.837926	0.954181
C130	C	0.995747	0.171269	0.608596
C131	C	1.329080	0.504602	0.941929
C132	C	1.662413	0.837936	1.275262
C133	C	0.995757	0.171274	0.712704
C134	C	1.329090	0.504608	1.046038
C135	C	1.662423	0.837941	1.379371
C136	C	1.117439	0.058391	0.712696
C137	C	1.450772	0.391724	1.046029
C138	C	1.784105	0.725057	1.379362
C139	C	1.117429	0.058387	0.608594
C140	C	1.450763	0.391720	0.941928
C141	C	1.784096	0.725053	1.275261
C142	C	1.056581	0.114828	0.556548
C143	C	1.389914	0.448162	0.889881
C144	C	1.723248	0.781495	1.223215
H145	H	0.804469	-0.018551	0.000096
H146	H	1.137803	0.314782	0.333429
H147	H	1.471136	0.648115	0.666762
H148	H	1.166983	0.012434	0.755078
H149	H	1.500316	0.345767	1.088411
H150	H	1.833650	0.679100	1.421744
H151	H	1.058076	-0.306499	-0.163462
H152	H	1.391410	0.026834	0.169871
H153	H	1.724743	0.360167	0.503205
Cl154	Cl	0.283288	0.281395	0.000121
Cl155	Cl	0.616622	0.614729	0.333454
Cl156	Cl	0.949955	0.948062	0.666787
Cl157	Cl	1.058391	-0.287300	0.203603
Cl158	Cl	1.391724	0.046034	0.536936
Cl159	Cl	1.725057	0.379367	0.870269
Cl160	Cl	0.493868	0.285090	0.000092
Cl161	Cl	0.827202	0.618423	0.333425
Cl162	Cl	1.160535	0.951757	0.666758
H163	H	0.946219	0.217234	0.755082
H164	H	1.279552	0.550568	1.088416
H165	H	1.612885	0.883901	1.421749
H166	H	1.055096	-0.463819	-0.163458
H167	H	1.388430	-0.130486	0.169875
H168	H	1.721763	0.202848	0.503209
Cl169	Cl	1.193893	-0.012572	0.457046
Cl170	Cl	1.527226	0.320762	0.790379
Cl171	Cl	1.860560	0.654095	1.123712
Cl172	Cl	1.193911	-0.012564	0.543152
Cl173	Cl	1.527245	0.320769	0.876485
Cl174	Cl	1.860578	0.654103	1.209818
H175	H	1.166940	0.012424	0.245135
H176	H	1.500274	0.345757	0.578468
H177	H	1.833607	0.679090	0.911801
Cl178	Cl	0.331525	-0.060478	0.000166
Cl179	Cl	0.664859	0.272855	0.333499
Cl180	Cl	0.998192	0.606188	0.666833
H181	H	0.946194	0.217227	0.566223
H182	H	1.279528	0.550561	0.899556
H183	H	1.612861	0.883894	1.232890
Cl184	Cl	0.571045	0.286444	0.000092
Cl185	Cl	0.904378	0.619777	0.333426
Cl186	Cl	1.237712	0.953111	0.666759
H187	H	0.946185	0.217217	0.434005
H188	H	1.279519	0.550550	0.767338
H189	H	1.612852	0.883883	1.100672
H190	H	0.946167	0.217216	0.245139
H191	H	1.279501	0.550549	0.578473
H192	H	1.612834	0.883883	0.911806
H193	H	0.765687	0.256242	0.000076
H194	H	1.099020	0.589575	0.333409
H195	H	1.432354	0.922909	0.666743
H196	H	1.055069	-0.463845	0.163666
H197	H	1.388402	-0.130511	0.497000
H198	H	1.721736	0.202822	0.830333
Cl199	Cl	0.542112	-0.056785	0.000120
Cl200	Cl	0.875445	0.276548	0.333454
Cl201	Cl	1.208778	0.609882	0.666787
H202	H	0.635206	-0.021520	0.000124
H203	H	0.968539	0.311814	0.333458
H204	H	1.301873	0.645147	0.666791
