data_functionalizedCrystal
_audit_creation_method	'MofGen! by Chris Wilmer'
_symmetry_space_group_name_H-M	'P1'
_symmetry_Int_Tables_number	1
_symmetry_cell_setting	triclinic
loop_
_symmetry_equiv_pos_as_xyz
  x,y,z
_cell_length_a	10.540539
_cell_length_b	9.065218
_cell_length_c	8.140239
_cell_angle_alpha	89.995101
_cell_angle_beta	90.001390
_cell_angle_gamma	95.229278
loop_
_atom_site_label
_atom_site_type_symbol
_atom_site_fract_x
_atom_site_fract_y
_atom_site_fract_z
O1	O	0.186144	-1.959468	0.136689
O2	O	0.201413	-1.530107	0.136673
O3	O	0.009108	-1.754583	0.136679
O4	O	0.378449	-1.734992	0.136683
O5	O	0.009106	-1.754571	-0.136548
O6	O	0.201410	-1.530095	-0.136554
O7	O	0.186142	-1.959456	-0.136538
Zn8	Zn	0.193776	-1.744773	-0.179927
Zn9	Zn	0.193779	-1.744790	0.180062
O10	O	0.378446	-1.734979	-0.136544
C11	C	0.199944	-1.475121	0.000058
C12	C	0.195556	-1.311301	0.000052
C13	C	-0.038201	-1.753108	0.000069
C14	C	-0.179166	-1.748712	0.000077
C15	C	-0.363215	-1.580278	0.000684
C16	C	-0.216581	-1.584734	0.000069
C17	C	-0.240533	-1.827619	-0.155946
C18	C	-0.387098	-1.822022	-0.156077
C19	C	-0.387601	-1.825372	0.154633
C20	C	-0.240614	-1.826882	0.156696
C21	C	0.425756	-1.736455	0.000070
C22	C	0.566720	-1.740850	0.000072
C23	C	0.187610	-1.014441	0.000071
C24	C	0.191998	-1.178262	0.000057
N25	N	0.193773	-1.744773	-0.425609
N26	N	0.193772	-1.744802	0.425744
H27	H	-0.174206	-1.522646	0.111913
N28	N	-0.399389	-1.499039	0.141060
N29	N	-0.477235	-1.558527	0.242290
H30	H	-0.502787	-1.501154	0.341440
H31	H	-0.434389	-1.943812	0.155687
H32	H	-0.175057	-1.522200	-0.111965
N33	N	-0.427419	-1.758835	0.303008
N34	N	-0.498181	-1.832950	0.401756
H35	H	-0.526302	-1.785949	0.506542
H36	H	-0.393662	-1.515761	-0.110580
H37	H	-0.199968	-1.769147	0.272118
H38	H	-0.415514	-1.763696	-0.272712
N39	N	-0.209645	-1.976849	0.168528
N40	N	-0.141485	-2.028793	0.061237
H41	H	-0.119606	-2.134711	0.069587
H42	H	-0.434631	-1.939953	-0.163152
N43	N	-0.211904	-1.978675	-0.163216
N44	N	-0.098634	-2.008773	-0.170092
H45	H	-0.078408	-2.115456	-0.175222
H46	H	-0.198137	-1.772796	-0.272057
