data_functionalizedCrystal
_audit_creation_method	'MofGen! by Chris Wilmer'
_symmetry_space_group_name_H-M	'P1'
_symmetry_Int_Tables_number	1
_symmetry_cell_setting	triclinic
loop_
_symmetry_equiv_pos_as_xyz
  x,y,z
_cell_length_a	13.032868
_cell_length_b	13.032831
_cell_length_c	13.033255
_cell_angle_alpha	103.333446
_cell_angle_beta	74.859089
_cell_angle_gamma	90.910161
loop_
_atom_site_label
_atom_site_type_symbol
_atom_site_fract_x
_atom_site_fract_y
_atom_site_fract_z
Zn1	Zn	0.734600	-1.617157	-0.889097
Zn2	Zn	0.883925	-1.577633	-0.728295
Zn3	Zn	0.683776	-1.422723	-0.683272
Zn4	Zn	0.883831	-1.422655	-0.883325
O5	O	0.796533	-1.510042	-0.795997
O6	O	0.775717	-1.758144	-0.889024
O7	O	0.836145	-1.540571	-0.571303
O8	O	0.544301	-1.465085	-0.694149
O9	O	0.885426	-1.729106	-0.770883
O10	O	0.581641	-1.607934	-0.845367
O11	O	0.689096	-1.426760	-0.538225
O12	O	0.689005	-1.276484	-0.688552
O13	O	0.885266	-1.464969	-1.035111
O14	O	0.835984	-1.276434	-0.835530
O15	O	0.775626	-1.607868	-1.039351
O16	O	1.030130	-1.540505	-0.765287
O17	O	1.030061	-1.426644	-0.879187
C18	C	0.756970	-1.238544	-0.756530
C19	C	0.740074	-1.122395	-0.739674
C20	C	1.068015	-1.479309	-0.826524
C21	C	1.184175	-1.466261	-0.839633
C22	C	0.836105	-1.540820	-1.077483
C23	C	0.852968	-1.553935	-1.197436
C24	C	1.235977	-1.516842	-0.789179
C25	C	1.356035	-1.503357	-0.802727
C26	C	1.523992	-1.540890	-0.765363
C27	C	1.407835	-1.553945	-0.752266
C28	C	0.836251	-1.782601	-0.835620
C29	C	0.853177	-1.898749	-0.852504
C30	C	0.805352	-1.070593	-0.804795
C31	C	0.787890	-0.950548	-0.787375
C32	C	0.805156	-1.517032	-1.358531
C33	C	0.787724	-1.503469	-1.234552
C34	C	0.757049	-1.479453	-0.515607
C35	C	0.739921	-1.466573	-0.395651
H36	H	1.191449	-1.570134	-0.735958
H37	H	1.228708	-1.412979	-0.892863
H38	H	0.719068	-0.906030	-0.718726
H39	H	0.671257	-1.077873	-0.671030
C40	C	0.694832	-1.431540	-1.153504
H41	H	0.695297	-1.431865	-1.080809
H42	H	0.702460	-1.361598	-1.163435
H43	H	0.629426	-1.456800	-1.166256
H44	H	0.921991	-0.943268	-0.921163
C45	C	0.898040	-1.588961	-1.439582
H46	H	0.897567	-1.588647	-1.512277
H47	H	0.963446	-1.563715	-1.426830
H48	H	0.890398	-1.658907	-1.429650
H49	H	0.874162	-1.115118	-0.873446
H50	H	0.921727	-1.607184	-1.257436
C51	C	0.647040	-1.394638	-1.314604
H52	H	0.608378	-1.364732	-1.353970
H53	H	0.601197	-1.434986	-1.271329
H54	H	0.674250	-1.339798	-1.268524
C55	C	1.416175	-1.431367	-0.874639
H56	H	1.368108	-1.401388	-0.904543
H57	H	1.446380	-1.376598	-0.831486
H58	H	1.471134	-1.471717	-0.932270
C59	C	1.347686	-1.625912	-0.680331
H60	H	1.274880	-1.625520	-0.680643
H61	H	1.377897	-1.695868	-0.708354
H62	H	1.353156	-1.600722	-0.607597
