data_functionalizedCrystal
_audit_creation_method	'MofGen! by Chris Wilmer'
_symmetry_space_group_name_H-M	'P1'
_symmetry_Int_Tables_number	1
_symmetry_cell_setting	triclinic
loop_
_symmetry_equiv_pos_as_xyz
  x,y,z
_cell_length_a	12.759401
_cell_length_b	18.101397
_cell_length_c	12.759393
_cell_angle_alpha	89.963674
_cell_angle_beta	89.981266
_cell_angle_gamma	90.020627
loop_
_atom_site_label
_atom_site_type_symbol
_atom_site_fract_x
_atom_site_fract_y
_atom_site_fract_z
Zn1	Zn	1.606216	-0.294792	-0.593937
Zn2	Zn	1.606092	-0.418651	-0.418238
Zn3	Zn	1.430517	-0.294828	-0.418276
Zn4	Zn	1.430489	-0.418597	-0.593880
O5	O	1.518328	-0.356717	-0.506083
O6	O	1.753220	-0.311230	-0.570638
O7	O	1.582761	-0.402263	-0.271222
O8	O	1.453888	-0.191191	-0.441618
O9	O	1.753129	-0.402229	-0.441553
O10	O	1.582973	-0.191164	-0.570675
O11	O	1.453767	-0.311291	-0.271250
O12	O	1.283492	-0.311239	-0.441562
O13	O	1.453839	-0.402136	-0.740909
O14	O	1.283471	-0.402171	-0.570578
O15	O	1.582945	-0.311178	-0.740950
O16	O	1.582734	-0.522277	-0.441498
O17	O	1.453719	-0.522237	-0.570541
C18	C	1.245361	-0.356704	-0.506069
C19	C	1.128584	-0.356716	-0.506087
C20	C	1.518238	-0.549128	-0.506032
C21	C	1.518296	-0.631442	-0.506045
C22	C	1.073739	-0.404140	-0.573154
C23	C	0.964015	-0.404149	-0.573166
C24	C	0.963991	-0.309308	-0.439034
C25	C	1.073713	-0.309295	-0.439029
C26	C	1.128610	-0.451560	-0.640213
C27	C	1.073764	-0.498989	-0.707285
C28	C	0.964040	-0.498998	-0.707296
C29	C	0.909162	-0.451579	-0.640236
C30	C	1.518430	-0.930533	-0.506141
C31	C	1.599376	-0.899202	-0.424733
C32	C	1.599657	-0.813583	-0.424944
C33	C	1.518364	-0.782150	-0.506093
C34	C	1.548383	-0.813150	-0.616833
C35	C	1.549009	-0.898795	-0.616390
C36	C	1.407249	-0.899044	-0.477767
C37	C	1.407798	-0.813395	-0.475295
C38	C	1.518324	-0.698291	-0.506072
C39	C	1.518472	-1.014392	-0.506169
C40	C	1.792362	-0.356731	-0.506098
C41	C	1.909138	-0.356738	-0.506104
C42	C	1.518403	-0.356647	-0.780116
C43	C	1.518435	-0.356617	-0.896893
C44	C	1.518447	-0.163555	-0.506157
C45	C	1.518498	-0.081241	-0.506189
C46	C	1.585689	-0.309212	-1.061504
C47	C	1.585666	-0.309245	-0.951779
C48	C	1.451229	-0.403965	-0.951737
C49	C	1.451258	-0.403936	-1.061459
C50	C	1.652917	-0.261832	-1.116384
C51	C	1.720124	-0.214484	-1.061548
C52	C	1.720102	-0.214517	-0.951824
C53	C	1.652872	-0.261897	-0.896936
C54	C	1.518314	-0.356734	-0.233115
C55	C	1.518486	-0.356555	-0.116339
H56	H	1.118454	-0.537591	-0.761889
N57	N	1.378720	-0.455064	-0.892541
H58	H	1.388898	-0.447897	-0.814712
H59	H	1.303698	-0.443528	-0.911720
N60	N	1.792627	-0.163386	-1.120753
H61	H	1.776335	-0.110479	-1.101670
H62	H	1.867656	-0.174957	-1.101645
N63	N	1.371087	-0.927734	-0.372649
H64	H	1.359087	-0.884849	-0.323491
H65	H	1.303567	-0.956145	-0.381755
H66	H	1.396536	-0.442487	-1.106107
H67	H	1.491228	-0.792786	-0.679120
H68	H	1.580876	-0.792627	-0.342831
H69	H	1.492634	-0.919517	-0.679135
N70	N	1.654833	-0.784673	-0.649213
H71	H	1.683763	-0.751699	-0.592318
H72	H	1.703821	-0.827741	-0.660603
N73	N	1.246953	-0.451554	-0.640211
H74	H	1.273410	-0.400767	-0.659659
H75	H	1.273265	-0.465132	-0.568085
N76	N	1.792596	-0.163459	-0.892682
H77	H	1.776313	-0.110539	-0.911790
H78	H	1.782351	-0.170730	-0.814864
H79	H	1.681283	-0.920668	-0.443291
H80	H	0.919388	-0.537611	-0.761916
N81	N	0.790816	-0.451592	-0.640244
H82	H	0.764377	-0.414361	-0.587582
H83	H	0.764502	-0.438066	-0.712389
H84	H	1.630277	-0.918712	-0.640426
N85	N	0.904803	-0.258181	-0.366691
H86	H	0.859294	-0.223903	-0.409468
H87	H	0.859323	-0.288307	-0.317949
N88	N	1.132877	-0.258145	-0.366697
H89	H	1.081470	-0.228110	-0.324211
H90	H	1.178377	-0.288243	-0.317997
H91	H	1.580822	-0.919851	-0.342374
H92	H	1.652940	-0.261798	-1.205727
N93	N	1.652855	-0.261941	-0.778590
H94	H	1.705634	-0.224762	-0.752178
H95	H	1.580751	-0.248355	-0.752237
H96	H	1.385163	-0.793142	-0.393798
N97	N	1.708743	-0.786360	-0.449812
H98	H	1.756834	-0.829996	-0.460686
H99	H	1.706828	-0.755438	-0.515697
H100	H	1.344243	-0.792006	-0.530246
N101	N	1.327354	-0.925880	-0.556300
H102	H	1.362945	-0.958275	-0.610001
H103	H	1.271342	-0.955206	-0.518855
