data_functionalizedCrystal
_audit_creation_method	'MofGen! by Chris Wilmer'
_symmetry_space_group_name_H-M	'P1'
_symmetry_Int_Tables_number	1
_symmetry_cell_setting	triclinic
loop_
_symmetry_equiv_pos_as_xyz
  x,y,z
_cell_length_a	21.395362
_cell_length_b	12.594516
_cell_length_c	21.395356
_cell_angle_alpha	89.979423
_cell_angle_beta	89.957023
_cell_angle_gamma	90.031933
loop_
_atom_site_label
_atom_site_type_symbol
_atom_site_fract_x
_atom_site_fract_y
_atom_site_fract_z
Zn1	Zn	0.957917	-0.423318	-0.354617
Zn2	Zn	0.957848	-0.601311	-0.249852
Zn3	Zn	0.853134	-0.423396	-0.249818
Zn4	Zn	0.853128	-0.601304	-0.354557
O5	O	0.905507	-0.512332	-0.302211
O6	O	1.045586	-0.446899	-0.340759
O7	O	0.943931	-0.577745	-0.162170
O8	O	0.867065	-0.274440	-0.263730
O9	O	1.045535	-0.577670	-0.263789
O10	O	0.944049	-0.274382	-0.340725
O11	O	0.866998	-0.447032	-0.162144
O12	O	0.765455	-0.447026	-0.263672
O13	O	0.867055	-0.577658	-0.442243
O14	O	0.765451	-0.577734	-0.340624
O15	O	0.944043	-0.446893	-0.442287
O16	O	0.943926	-0.750256	-0.263731
O17	O	0.866988	-0.750251	-0.340657
C18	C	0.742719	-0.512388	-0.302138
C19	C	0.673078	-0.512438	-0.302122
C20	C	0.640379	-0.580588	-0.342130
C21	C	0.574944	-0.580562	-0.342158
C22	C	0.542210	-0.512397	-0.302167
C23	C	0.574917	-0.444234	-0.262155
C24	C	0.640351	-0.444254	-0.262133
C25	C	0.438485	-0.503838	-0.245761
C26	C	0.373052	-0.503825	-0.245782
C27	C	0.340389	-0.512328	-0.302236
C28	C	0.373167	-0.520866	-0.358670
C29	C	0.438602	-0.520886	-0.358648
C30	C	0.471257	-0.512367	-0.302187
C31	C	0.236738	-0.580453	-0.342278
C32	C	0.171301	-0.580420	-0.342307
C33	C	0.171275	-0.444097	-0.262298
C34	C	0.236710	-0.444125	-0.262275
C35	C	0.269438	-0.512309	-0.302264
C36	C	0.905466	-0.788873	-0.302205
C37	C	0.905506	-0.907179	-0.302223
C38	C	0.863655	-0.976468	-0.344034
C39	C	0.848387	-1.047331	-0.286856
C40	C	0.920831	-1.047114	-0.359410
C41	C	0.890207	-0.976483	-0.245015
C42	C	0.962678	-0.976261	-0.317608
C43	C	0.947431	-1.047092	-0.260391
C44	C	1.068930	-0.512276	-0.302284
C45	C	1.138572	-0.512253	-0.302315
C46	C	0.905556	-0.512266	-0.465634
C47	C	0.905577	-0.512238	-0.535275
C48	C	0.905565	-0.234711	-0.302231
C49	C	0.905590	-0.116406	-0.302239
C50	C	0.865529	-0.444168	-0.567966
C51	C	0.865527	-0.444148	-0.633401
C52	C	0.905584	-0.512187	-0.666144
C53	C	0.945635	-0.580271	-0.633446
C54	C	0.945632	-0.580296	-0.568012
C55	C	0.962037	-0.520529	-0.769850
C56	C	0.962042	-0.520496	-0.835283
C57	C	0.905595	-0.512115	-0.867965
C58	C	0.849141	-0.503745	-0.835206
C59	C	0.849137	-0.503771	-0.769771
C60	C	0.905592	-0.512168	-0.737096
C61	C	0.865540	-0.444020	-0.971607
C62	C	0.865537	-0.444008	-1.037044
C63	C	0.945651	-0.580125	-1.037088
C64	C	0.945649	-0.580143	-0.971652
C65	C	0.905594	-0.512085	-0.938916
C66	C	0.905494	-0.512321	-0.139423
C67	C	0.905594	-0.512049	-0.069782
H68	H	0.548315	-0.636058	-0.374740
O69	O	0.937962	-1.088209	-0.423461
H70	H	0.903112	-1.059923	-0.458066
O71	O	0.136077	-0.653997	-0.385460
H72	H	0.106318	-0.606500	-0.417434
O73	O	0.473713	-0.494669	-0.184868
H74	H	0.439929	-0.488747	-0.145630
H75	H	0.978250	-0.635669	-0.660109
H76	H	0.832911	-0.388754	-0.541316
O77	O	0.337706	-0.494617	-0.184914
H78	H	0.307863	-0.565901	-0.178451
O79	O	1.026706	-0.935117	-0.334872
H80	H	1.023217	-0.885394	-0.377568
H81	H	0.803176	-0.496914	-0.861814
O82	O	1.022918	-0.529577	-0.734592
H83	H	1.053698	-0.461879	-0.747164
O84	O	0.873008	-0.935575	-0.180941
H85	H	0.830017	-0.886624	-0.184302
O86	O	0.816693	-0.935374	-0.390797
H87	H	0.828944	-0.964888	-0.438119
H88	H	0.800077	-1.078570	-0.273857
H89	H	0.982859	-1.077907	-0.224999
H90	H	0.978247	-0.635726	-0.541396
H91	H	0.832925	-0.388604	-0.944952
H92	H	0.832916	-0.388712	-0.660023
H93	H	0.803171	-0.496958	-0.743101
O94	O	0.539607	-0.370737	-0.219011
H95	H	0.509838	-0.316646	-0.247110
O96	O	0.675675	-0.654113	-0.385270
H97	H	0.663065	-0.737621	-0.374450
O98	O	0.473958	-0.530073	-0.419511
H99	H	0.440258	-0.535972	-0.458774
H100	H	0.832920	-0.388581	-1.063659
O101	O	0.988860	-0.653512	-1.072392
H102	H	0.982137	-0.642056	-1.123385
O103	O	0.988858	-0.653538	-0.936387
H104	H	1.016719	-0.700837	-0.970146
H105	H	0.346575	-0.527788	-0.404640
H106	H	1.008010	-0.527306	-0.861950
O107	O	0.272050	-0.653961	-0.385417
H108	H	0.259446	-0.737476	-0.374608
O109	O	0.135980	-0.370581	-0.219156
H110	H	0.084985	-0.382022	-0.225888
H111	H	0.263334	-0.388635	-0.229692
H112	H	0.666974	-0.388755	-0.229553
