data_functionalizedCrystal
_audit_creation_method	'MofGen! by Chris Wilmer'
_symmetry_space_group_name_H-M	'P1'
_symmetry_Int_Tables_number	1
_symmetry_cell_setting	triclinic
loop_
_symmetry_equiv_pos_as_xyz
  x,y,z
_cell_length_a	14.853567
_cell_length_b	16.992695
_cell_length_c	16.053802
_cell_angle_alpha	87.258926
_cell_angle_beta	92.581881
_cell_angle_gamma	87.151577
loop_
_atom_site_label
_atom_site_type_symbol
_atom_site_fract_x
_atom_site_fract_y
_atom_site_fract_z
O1	O	-1.207156	-0.099085	-0.069372
O2	O	-0.945559	-0.111280	-0.069386
O3	O	-1.075308	0.008961	-0.069373
O4	O	-1.077407	-0.219326	-0.069386
O5	O	-1.068165	0.002370	0.069485
O6	O	-0.938415	-0.117871	0.069472
O7	O	-1.200013	-0.105676	0.069486
Zn8	Zn	-1.068080	-0.112820	0.091526
Zn9	Zn	-1.077492	-0.104136	-0.091426
O10	O	-1.070263	-0.225917	0.069472
C11	C	-0.908359	-0.114023	0.000041
C12	C	-0.808159	-0.112366	0.000036
C13	C	-1.069038	0.034881	0.000056
C14	C	-1.060988	0.121934	0.000055
C15	C	-1.237212	-0.102933	0.000057
C16	C	-1.337413	-0.104589	0.000057
C17	C	-0.390086	-0.033941	0.000059
C18	C	-0.378892	-0.176791	0.000050
C19	C	-0.473036	-0.178348	0.000047
C20	C	-0.525709	-0.107700	0.000049
C21	C	-0.484239	-0.035496	0.000053
C22	C	-0.514514	-0.250550	0.000034
C23	C	-0.608663	-0.252110	0.000030
C24	C	-0.661338	-0.181462	0.000038
C25	C	-0.619862	-0.109255	0.000044
C26	C	-0.672536	-0.038607	0.000045
C27	C	-0.631061	0.033600	0.000057
C28	C	-0.536914	0.035152	0.000061
C29	C	-0.755485	-0.183014	0.000034
C30	C	-0.766689	-0.040162	0.000040
C31	C	-1.076533	-0.251837	0.000042
C32	C	-1.084584	-0.338889	0.000037
N33	N	-1.061662	-0.118746	0.216385
C34	C	-1.138663	0.172090	0.000061
C35	C	-1.131094	0.253885	0.000052
C36	C	-1.045849	0.285523	0.000045
C37	C	-0.968168	0.235361	0.000037
C38	C	-0.975738	0.153568	0.000039
C39	C	-1.014473	0.529155	0.000032
C40	C	-1.006908	0.610955	0.000032
C41	C	-1.169836	0.629474	0.000045
C42	C	-1.177398	0.547678	0.000053
C43	C	-1.099717	0.497523	0.000041
N44	N	-1.038110	0.369130	0.000039
N45	N	-1.107458	0.413918	0.000041
N46	N	-1.083915	-0.098203	-0.216286
C47	C	-1.116894	-0.067601	0.260085
C48	C	-1.112414	-0.071754	0.347491
C49	C	-1.052707	-0.127056	0.391196
C50	C	-0.997469	-0.178203	0.347490
C51	C	-1.001945	-0.174045	0.260086
C52	C	-1.033154	-0.145193	0.652604
C53	C	-1.028684	-0.149348	0.740015
C54	C	-1.143628	-0.042898	0.740010
C55	C	-1.148103	-0.038749	0.652603
C56	C	-1.092862	-0.089893	0.608905
N57	N	-1.048128	-0.131304	0.480539
N58	N	-1.097436	-0.085640	0.519563
H59	H	-0.809569	0.017369	0.000045
Cl60	Cl	-0.312674	-0.265599	0.000036
H61	H	-0.898759	0.261127	0.000026
Cl62	Cl	-1.191964	0.001921	0.205151
Cl63	Cl	-0.697291	0.122411	0.000053
H64	H	-0.471621	-0.308067	0.000024
H65	H	-1.194346	0.294719	0.000058
H66	H	-0.503136	0.093939	0.000091
H67	H	-0.937487	0.636710	0.000039
Cl68	Cl	-0.953617	-0.218878	0.794952
Cl69	Cl	-1.284570	0.507912	0.000035
Cl70	Cl	-1.213066	0.021397	0.794948
H71	H	-1.157387	-0.030108	0.383071
Cl72	Cl	-0.916816	0.466115	0.000014
Cl73	Cl	-1.245834	0.132325	0.000079
Cl74	Cl	-0.337950	0.056829	0.000077
Cl75	Cl	-0.878085	0.090514	0.000030
H76	H	-1.196721	0.006282	0.617020
H77	H	-0.988176	-0.186838	0.617031
Cl78	Cl	-0.922403	-0.247722	0.402432
Cl79	Cl	-0.932504	-0.238342	0.205150
H80	H	-0.789250	-0.241804	0.000026
Cl81	Cl	-0.660794	-0.342883	0.000018
H82	H	-1.233078	0.670318	0.000054
