data_functionalizedCrystal
_audit_creation_method	'MofGen! by Chris Wilmer'
_symmetry_space_group_name_H-M	'P1'
_symmetry_Int_Tables_number	1
_symmetry_cell_setting	triclinic
loop_
_symmetry_equiv_pos_as_xyz
  x,y,z
_cell_length_a	10.268362
_cell_length_b	9.065218
_cell_length_c	9.065218
_cell_angle_alpha	85.015885
_cell_angle_beta	89.996569
_cell_angle_gamma	89.995357
loop_
_atom_site_label
_atom_site_type_symbol
_atom_site_fract_x
_atom_site_fract_y
_atom_site_fract_z
O1	O	0.108298	-1.960402	-0.216358
O2	O	0.441631	-1.627068	0.116975
O3	O	0.774964	-1.293735	0.450309
O4	O	0.108299	-1.531117	-0.234104
O5	O	0.441632	-1.197783	0.099229
O6	O	0.774966	-0.864450	0.432562
O7	O	0.108296	-1.754632	-0.010589
O8	O	0.441629	-1.421299	0.322745
O9	O	0.774962	-1.087966	0.656078
O10	O	0.108301	-1.736886	-0.439874
O11	O	0.441634	-1.403553	-0.106540
O12	O	0.774968	-1.070219	0.226793
O13	O	-0.108305	-1.754613	-0.010579
O14	O	0.225028	-1.421279	0.322754
O15	O	0.558362	-1.087946	0.656087
O16	O	-0.108301	-1.531097	-0.234095
O17	O	0.225032	-1.197764	0.099238
O18	O	0.558365	-0.864430	0.432572
O19	O	-0.108303	-1.960382	-0.216348
O20	O	0.225030	-1.627048	0.116985
O21	O	0.558364	-1.293715	0.450318
Cu22	Cu	-0.128080	-1.745738	-0.225221
Cu23	Cu	0.205254	-1.412404	0.108113
Cu24	Cu	0.538587	-1.079071	0.441446
Cu25	Cu	0.128076	-1.745761	-0.225232
Cu26	Cu	0.461409	-1.412428	0.108101
Cu27	Cu	0.794742	-1.079094	0.441435
O28	O	-0.108300	-1.736866	-0.439864
O29	O	0.225034	-1.403533	-0.106531
O30	O	0.558367	-1.070199	0.226803
C31	C	-0.000001	-1.476120	-0.232394
C32	C	0.333332	-1.142787	0.100939
C33	C	0.666666	-0.809454	0.434273
C34	C	-0.000000	-1.312277	-0.227294
C35	C	0.333333	-0.978944	0.106039
C36	C	0.666666	-0.645611	0.439372
C37	C	-0.000002	-1.752917	0.044403
C38	C	0.333331	-1.419584	0.377736
C39	C	0.666664	-1.086250	0.711069
C40	C	0.000004	-1.747817	0.208245
C41	C	0.333337	-1.414484	0.541579
C42	C	0.666670	-1.081151	0.874912
N43	N	-0.308245	-1.745732	-0.225212
N44	N	0.025088	-1.412399	0.108121
N45	N	0.358421	-1.079065	0.441455
C46	C	-0.573916	-1.745754	-0.225229
C47	C	-0.240583	-1.412420	0.108104
C48	C	0.092751	-1.079087	0.441438
C49	C	-0.426078	-1.745737	-0.225224
C50	C	-0.092745	-1.412403	0.108109
C51	C	0.240589	-1.079070	0.441443
N52	N	0.308242	-1.745778	-0.225229
N53	N	0.641575	-1.412445	0.108104
N54	N	0.974908	-1.079112	0.441437
C55	C	0.000000	-2.015378	-0.218059
C56	C	0.333333	-1.682045	0.115275
C57	C	0.666667	-1.348712	0.448608
C58	C	0.000008	-2.179221	-0.223158
C59	C	0.333341	-1.845888	0.110175
C60	C	0.666675	-1.512555	0.443508
C61	C	0.000002	-1.738582	-0.494855
C62	C	0.333335	-1.405248	-0.161522
C63	C	0.666668	-1.071915	0.171811
C64	C	0.000004	-1.743681	-0.658698
C65	C	0.333337	-1.410348	-0.325365
C66	C	0.666671	-1.077015	0.007968
