data_functionalizedCrystal
_audit_creation_method	'MofGen! by Chris Wilmer'
_symmetry_space_group_name_H-M	'P1'
_symmetry_Int_Tables_number	1
_symmetry_cell_setting	triclinic
loop_
_symmetry_equiv_pos_as_xyz
  x,y,z
_cell_length_a	8.497374
_cell_length_b	18.215407
_cell_length_c	18.215399
_cell_angle_alpha	90.019833
_cell_angle_beta	89.988708
_cell_angle_gamma	89.998459
loop_
_atom_site_label
_atom_site_type_symbol
_atom_site_fract_x
_atom_site_fract_y
_atom_site_fract_z
Zn1	Zn	0.628053	1.125194	0.416201
Zn2	Zn	0.891875	1.125153	0.293171
Zn3	Zn	0.628105	1.002126	0.293148
Zn4	Zn	0.891787	1.002143	0.416195
O5	O	0.759955	1.063654	0.354679
O6	O	0.663065	1.228173	0.399892
O7	O	0.856944	1.108809	0.190183
O8	O	0.407336	1.018461	0.309465
O9	O	0.856894	1.228143	0.309502
O10	O	0.407298	1.108878	0.399871
O11	O	0.663153	1.018422	0.190167
O12	O	0.663068	0.899144	0.309459
O13	O	0.856744	1.018490	0.519181
O14	O	0.856794	0.899157	0.399861
O15	O	0.662980	1.108895	0.519185
O16	O	1.112626	1.108826	0.309497
O17	O	1.112561	1.018451	0.399883
C18	C	0.759928	0.872448	0.354658
C19	C	0.759955	0.790649	0.354666
C20	C	0.860986	0.602481	0.401680
C21	C	0.860991	0.525622	0.401689
C22	C	0.658952	0.525579	0.307694
C23	C	0.658941	0.602437	0.307689
C24	C	0.759967	0.640885	0.354681
C25	C	0.759983	0.487169	0.354695
C26	C	0.759988	0.403836	0.354705
C27	C	0.759960	0.724224	0.354673
C28	C	1.169835	1.063645	0.354690
C29	C	1.348479	1.063664	0.354677
C30	C	0.759846	1.063699	0.546632
C31	C	0.759800	1.063718	0.628431
C32	C	0.759983	1.255607	0.354701
C33	C	0.759995	1.337406	0.354710
C34	C	0.759950	1.063652	0.163473
C35	C	0.759552	1.063775	0.081674
C36	C	0.658813	1.110809	0.816628
C37	C	0.658767	1.110817	0.893487
C38	C	0.860543	1.016679	0.893471
C39	C	0.860580	1.016667	0.816614
C40	C	0.759717	1.063736	0.778194
C41	C	0.759634	1.063757	0.931911
C42	C	0.759585	1.063766	1.015244
C43	C	0.759764	1.063726	0.694855
H44	H	0.943244	0.633783	0.439945
H45	H	0.942666	0.978359	0.924762
C46	C	0.549196	0.644006	0.256578
C47	C	0.460764	0.593886	0.215407
C48	C	0.359668	0.632153	0.168313
H49	H	0.480393	0.674001	0.284694
H50	H	0.609421	0.673961	0.224431
H51	H	0.400544	0.563944	0.247549
H52	H	0.529526	0.563890	0.187276
H53	H	0.419893	0.662108	0.136167
H54	H	0.290875	0.662147	0.196435
H55	H	0.299665	0.598153	0.140369
H56	H	0.942748	0.978330	0.785320
H57	H	0.943250	0.494356	0.439961
C58	C	0.549447	0.483701	0.256703
C59	C	0.571104	0.408172	0.266752
C60	C	0.470268	0.369572	0.219784
H61	H	0.443414	0.496210	0.267501
H62	H	0.572410	0.496234	0.207223
H63	H	0.548130	0.395644	0.316221
H64	H	0.677116	0.395640	0.255950
H65	H	0.493232	0.382105	0.170304
H66	H	0.364242	0.382088	0.230586
H67	H	0.484959	0.318322	0.226591
C68	C	0.549123	1.161932	0.775047
C69	C	0.460715	1.203143	0.825161
C70	C	0.359631	1.250238	0.786886
H71	H	0.609306	1.194059	0.745069
H72	H	0.480315	1.133793	0.745075
H73	H	0.529514	1.231281	0.855120
H74	H	0.400500	1.171036	0.855140
H75	H	0.290823	1.222098	0.756914
H76	H	0.419827	1.282359	0.756909
H77	H	0.299624	1.278200	0.820882
C78	C	0.549011	1.161802	0.935251
C79	C	0.447837	1.120140	0.979346
C80	C	0.346685	1.167082	1.017820
H81	H	0.609153	1.193886	0.965304
H82	H	0.488858	1.189816	0.901381
H83	H	0.507983	1.092140	1.013212
H84	H	0.387660	1.088058	0.949311
H85	H	0.286532	1.195095	0.983950
H86	H	0.406840	1.199164	1.047869
H87	H	0.278017	1.138821	1.047738
