data_functionalizedCrystal
_audit_creation_method	'MofGen! by Chris Wilmer'
_symmetry_space_group_name_H-M	'P1'
_symmetry_Int_Tables_number	1
_symmetry_cell_setting	triclinic
loop_
_symmetry_equiv_pos_as_xyz
  x,y,z
_cell_length_a	12.759394
_cell_length_b	13.033304
_cell_length_c	13.032268
_cell_angle_alpha	89.077769
_cell_angle_beta	82.850556
_cell_angle_gamma	82.816541
loop_
_atom_site_label
_atom_site_type_symbol
_atom_site_fract_x
_atom_site_fract_y
_atom_site_fract_z
Zn1	Zn	-0.326901	-1.498472	0.781530
Zn2	Zn	-0.477882	-1.520222	0.609560
Zn3	Zn	-0.321349	-1.348333	0.587701
Zn4	Zn	-0.521674	-1.326475	0.759595
O5	O	-0.411952	-1.423375	0.684596
O6	O	-0.330926	-1.645275	0.777045
O7	O	-0.436467	-1.515670	0.462752
O8	O	-0.175063	-1.368294	0.613444
O9	O	-0.441851	-1.661254	0.650700
O10	O	-0.179142	-1.478601	0.755849
O11	O	-0.321463	-1.389384	0.446692
O12	O	-0.363927	-1.201516	0.592176
O13	O	-0.516488	-1.331041	0.906413
O14	O	-0.511104	-1.185457	0.718466
O15	O	-0.373389	-1.457407	0.922528
O16	O	-0.630714	-1.494476	0.629431
O17	O	-0.662888	-1.352131	0.739661
C18	C	-0.441666	-1.156170	0.650569
C19	C	-0.454407	-1.041855	0.636036
C20	C	-0.405316	-0.982972	0.692167
C21	C	-0.418483	-0.864821	0.677148
C22	C	-0.684923	-1.423317	0.684564
C23	C	-0.801695	-1.423381	0.684596
C24	C	-0.768142	-1.571691	0.569924
C25	C	-0.806226	-1.645871	0.512604
C26	C	-0.915944	-1.645928	0.512639
C27	C	-0.987585	-1.571799	0.570004
C28	C	-0.949501	-1.497618	0.627325
C29	C	-0.839778	-1.497568	0.627280
C30	C	-0.983054	-1.349315	0.742001
C31	C	-0.873335	-1.349252	0.741961
C32	C	-1.054694	-1.275185	0.799366
C33	C	-1.016611	-1.200999	0.856681
C34	C	-0.906885	-1.200945	0.856642
C35	C	-0.835252	-1.275072	0.799281
C36	C	-0.137915	-1.423459	0.684655
C37	C	-0.021137	-1.423495	0.684680
C38	C	-0.450443	-1.389360	0.952828
C39	C	-0.466845	-1.374864	1.067132
C40	C	-0.382116	-0.691625	0.718750
C41	C	-0.369386	-0.805939	0.733287
C42	C	-0.373528	-1.457318	0.417416
C43	C	-0.356808	-1.472013	0.303138
C44	C	-0.403355	-1.430925	1.126066
C45	C	-0.420306	-1.415944	1.244206
H46	H	-0.470260	-0.827768	0.617968
H47	H	-0.317600	-0.842991	0.792461
N48	N	-0.508943	-1.337678	1.293211
H49	H	-0.548985	-1.302325	1.237651
H50	H	-0.477819	-1.284485	1.331730
H51	H	-0.289892	-1.531097	1.266136
H52	H	-0.678801	-1.571641	0.569875
H53	H	-0.747887	-1.706229	0.465900
N54	N	-0.522982	-0.992784	0.557641
H55	H	-0.522664	-0.915337	0.558022
H56	H	-0.598251	-1.009486	0.575879
H57	H	-0.946950	-1.706336	0.465970
H58	H	-1.076922	-1.571859	0.570038
H59	H	-1.144032	-1.275241	0.799395
N60	N	-1.093875	-1.121057	0.918553
H61	H	-1.169159	-1.132354	0.909883
H62	H	-1.080640	-1.049645	0.893132
H63	H	-0.875885	-1.140542	0.903324
H64	H	-0.745911	-1.275029	0.799236
H65	H	-0.533744	-1.315772	1.104138
H66	H	-0.336447	-1.490007	1.089059
H67	H	-0.353536	-1.020029	0.751338
