data_functionalizedCrystal
_audit_creation_method	'MofGen! by Chris Wilmer'
_symmetry_space_group_name_H-M	'P1'
_symmetry_Int_Tables_number	1
_symmetry_cell_setting	triclinic
loop_
_symmetry_equiv_pos_as_xyz
  x,y,z
_cell_length_a	14.971482
_cell_length_b	12.811415
_cell_length_c	13.448316
_cell_angle_alpha	95.437451
_cell_angle_beta	90.006202
_cell_angle_gamma	83.829015
loop_
_atom_site_label
_atom_site_type_symbol
_atom_site_fract_x
_atom_site_fract_y
_atom_site_fract_z
O1	O	1.187335	0.136766	0.095010
O2	O	0.926980	0.153150	0.096492
O3	O	1.063707	-0.007827	0.081969
O4	O	1.050608	0.297743	0.109533
O5	O	1.063689	-0.007837	-0.083416
O6	O	0.926963	0.153140	-0.068893
O7	O	1.187317	0.136756	-0.070375
Cu8	Cu	1.057139	0.144947	-0.084734
Cu9	Cu	1.057159	0.144959	0.110852
O10	O	1.050591	0.297733	-0.055851
C11	C	0.893645	0.152413	0.013734
C12	C	0.794341	0.150219	0.013538
C13	C	0.747684	0.149181	-0.076707
C14	C	0.654380	0.147103	-0.076896
C15	C	0.607733	0.146071	0.013163
C16	C	0.654397	0.147106	0.103415
C17	C	0.747701	0.149177	0.103602
C18	C	0.459923	0.142794	0.103020
C19	C	0.366613	0.140725	0.102833
C20	C	0.366602	0.140719	-0.077478
C21	C	0.459906	0.142790	-0.077291
C22	C	0.506563	0.143827	0.012962
C23	C	1.062964	-0.046937	-0.004249
C24	C	1.060765	-0.163459	-0.014753
C25	C	1.056635	-0.382392	0.145831
C26	C	1.054569	-0.491875	0.135966
C27	C	1.054560	-0.491906	-0.044348
C28	C	1.056626	-0.382424	-0.034483
C29	C	1.057665	-0.327671	0.060610
C30	C	1.059738	-0.218188	0.070474
C31	C	1.059722	-0.218221	-0.109838
C32	C	1.057656	-0.327703	-0.119704
C33	C	1.220653	0.137493	0.012385
C34	C	1.319956	0.139686	0.012588
C35	C	1.051334	0.336843	0.030369
C36	C	1.053533	0.453365	0.040880
N37	N	1.057131	0.144938	-0.222300
C38	C	1.117692	0.073687	-0.280768
C39	C	1.117698	0.073686	-0.384871
C40	C	1.057145	0.144942	-0.430504
C41	C	0.996578	0.216197	-0.372028
C42	C	0.996568	0.216192	-0.267927
C43	C	0.996602	0.216204	-0.589007
C44	C	0.996612	0.216211	-0.693115
C45	C	1.117732	0.073698	-0.705952
C46	C	1.117722	0.073693	-0.601851
C47	C	1.057155	0.144949	-0.543382
N48	N	1.057174	0.144959	0.248416
H49	H	0.497882	0.143637	-0.150624
F50	F	1.060847	-0.159918	0.171678
H51	H	1.057489	-0.337813	0.223259
F52	F	1.182192	-0.002136	-0.768183
H53	H	1.167011	0.015667	-0.432477
F54	F	0.316970	0.139625	0.198684
F55	F	1.053471	-0.550109	0.226670
F56	F	1.060825	-0.159976	-0.200543
F57	F	0.932128	0.292030	-0.420594
H58	H	0.328610	0.139875	-0.150965
H59	H	1.053707	-0.536504	-0.121767
H60	H	0.785687	0.150025	0.177089
H61	H	1.167033	0.015676	-0.564697
H62	H	1.056806	-0.372297	-0.197125
H63	H	1.167004	0.015666	-0.243622
F64	F	0.932163	0.292050	-0.741673
F65	F	0.604727	0.146012	-0.172946
F66	F	0.932136	0.292041	-0.526784
H67	H	0.785656	0.150030	-0.150043
F68	F	0.509578	0.143894	0.199077
H69	H	0.616411	0.146259	0.176742
F70	F	0.932108	0.292025	-0.205701
