data_functionalizedCrystal
_audit_creation_method	'MofGen! by Chris Wilmer'
_symmetry_space_group_name_H-M	'P1'
_symmetry_Int_Tables_number	1
_symmetry_cell_setting	triclinic
loop_
_symmetry_equiv_pos_as_xyz
  x,y,z
_cell_length_a	14.044191
_cell_length_b	12.503572
_cell_length_c	14.044220
_cell_angle_alpha	86.154684
_cell_angle_beta	93.190327
_cell_angle_gamma	93.837835
loop_
_atom_site_label
_atom_site_type_symbol
_atom_site_fract_x
_atom_site_fract_y
_atom_site_fract_z
O1	O	1.282208	0.089264	0.225146
O2	O	1.782208	0.589264	0.725146
O3	O	1.005536	0.089277	0.216832
O4	O	1.505536	0.589277	0.716832
O5	O	1.139719	0.089266	0.082653
O6	O	1.639719	0.589266	0.582653
O7	O	1.148025	0.089275	0.359324
O8	O	1.648025	0.589275	0.859324
O9	O	1.129629	-0.089375	0.092763
O10	O	1.629629	0.410625	0.592763
O11	O	0.995446	-0.089364	0.226941
O12	O	1.495446	0.410636	0.726941
O13	O	1.272118	-0.089378	0.235255
O14	O	1.772118	0.410622	0.735255
Cu15	Cu	1.132861	-0.105682	0.232021
Cu16	Cu	1.632861	0.394318	0.732021
Cu17	Cu	1.144793	0.105582	0.220066
Cu18	Cu	1.644793	0.605582	0.720066
O19	O	1.137935	-0.089366	0.369434
O20	O	1.637935	0.410634	0.869434
C21	C	0.964869	-0.000041	0.218250
C22	C	1.464869	0.499959	0.718250
C23	C	0.858726	-0.000036	0.207403
C24	C	1.358726	0.499964	0.707403
N25	N	1.124475	-0.254274	0.240430
N26	N	1.624475	0.245726	0.740430
C27	C	0.613267	-0.000045	0.264504
C28	C	1.113267	0.499955	0.764504
C29	C	0.664393	-0.000046	0.187587
C30	C	1.164393	0.499954	0.687587
C31	C	0.772530	-0.000040	0.198615
C32	C	1.272530	0.499960	0.698615
C33	C	0.505120	-0.000050	0.253477
C34	C	1.005120	0.499950	0.753477
C35	C	1.112140	-0.473388	0.252808
C36	C	1.612140	0.026612	0.752808
C37	C	1.165518	-0.526719	0.199275
C38	C	1.665518	-0.026719	0.699275
C39	C	1.158654	-0.648642	0.206162
C40	C	1.658654	-0.148642	0.706162
C41	C	1.119002	-0.351454	0.245922
C42	C	1.619002	0.148546	0.745922
C43	C	1.312785	-0.000056	0.233837
C44	C	1.812785	0.499944	0.733837
C45	C	1.418928	-0.000055	0.244684
C46	C	1.918928	0.499945	0.744684
C47	C	1.131038	-0.000053	0.052086
C48	C	1.631038	0.499947	0.552086
C49	C	1.120194	-0.000050	-0.054057
C50	C	1.620194	0.499950	0.445943
N51	N	1.153186	0.254173	0.211650
N52	N	1.653186	0.754173	0.711650
C53	C	1.146616	-0.000044	0.400001
C54	C	1.646616	0.499956	0.900001
C55	C	1.157461	-0.000041	0.506144
C56	C	1.657461	0.499959	1.006144
C57	C	1.177287	-0.000047	0.700482
C58	C	1.677287	0.499953	1.200482
C59	C	1.100372	-0.000044	0.751610
C60	C	1.600372	0.499956	1.251610
C61	C	1.111404	-0.000047	0.859747
C62	C	1.611404	0.499953	1.359747
C63	C	1.166257	-0.000044	0.592336
C64	C	1.666257	0.499956	1.092336
H65	H	0.626954	0.000027	0.113451
H66	H	1.126954	0.500027	0.613451
H67	H	1.061291	-0.519291	0.303808
H68	H	1.561291	-0.019291	0.803808
N69	N	0.662851	-0.000029	0.362698
N70	N	1.162851	0.499971	0.862698
H71	H	0.700328	-0.066245	0.374448
H72	H	1.200328	0.433755	0.874448
H73	H	0.707742	0.066243	0.366872
H74	H	1.207742	0.566243	0.866872
N75	N	1.232881	-0.465920	0.131715
N76	N	1.732881	0.034080	0.631715
H77	H	1.228302	-0.386178	0.136308
H78	H	1.728302	0.113822	0.636308
H79	H	1.300475	-0.485506	0.149491
H80	H	1.800475	0.014494	0.649491
H81	H	1.251414	-0.000055	0.737922
H82	H	1.751414	0.499945	1.237922
H83	H	1.026238	-0.000041	0.714169
H84	H	1.526238	0.499959	1.214169
