data_functionalizedCrystal
_audit_creation_method	'MofGen! by Chris Wilmer'
_symmetry_space_group_name_H-M	'P1'
_symmetry_Int_Tables_number	1
_symmetry_cell_setting	triclinic
loop_
_symmetry_equiv_pos_as_xyz
  x,y,z
_cell_length_a	12.759401
_cell_length_b	12.759399
_cell_length_c	12.759393
_cell_angle_alpha	90.028113
_cell_angle_beta	90.019465
_cell_angle_gamma	90.012552
loop_
_atom_site_label
_atom_site_type_symbol
_atom_site_fract_x
_atom_site_fract_y
_atom_site_fract_z
Zn1	Zn	-1.606258	0.418254	-0.594035
Zn2	Zn	-1.272924	0.751587	-0.260702
Zn3	Zn	-0.939591	1.084921	0.072631
Zn4	Zn	-1.606153	0.593973	-0.418366
Zn5	Zn	-1.272820	0.927306	-0.085033
Zn6	Zn	-0.939486	1.260640	0.248301
Zn7	Zn	-1.430560	0.418303	-0.418372
Zn8	Zn	-1.097226	0.751637	-0.085038
Zn9	Zn	-0.763893	1.084970	0.248295
Zn10	Zn	-1.430549	0.593886	-0.594004
Zn11	Zn	-1.097216	0.927219	-0.260671
Zn12	Zn	-0.763883	1.260553	0.072662
O13	O	-1.518380	0.506104	-0.506194
O14	O	-1.185047	0.839437	-0.172861
O15	O	-0.851713	1.172771	0.160472
O16	O	-1.753265	0.441579	-0.570743
O17	O	-1.419931	0.774913	-0.237410
O18	O	-1.086598	1.108246	0.095924
O19	O	-1.582821	0.570727	-0.271346
O20	O	-1.249488	0.904060	0.061988
O21	O	-0.916154	1.237394	0.395321
O22	O	-1.453914	0.271276	-0.441689
O23	O	-1.120581	0.604609	-0.108356
O24	O	-0.787248	0.937942	0.224978
O25	O	-1.753188	0.570679	-0.441680
O26	O	-1.419855	0.904013	-0.108346
O27	O	-1.086521	1.237346	0.224987
O28	O	-1.582999	0.271240	-0.570748
O29	O	-1.249666	0.604573	-0.237415
O30	O	-0.916332	0.937906	0.095918
O31	O	-1.453813	0.441663	-0.271350
O32	O	-1.120480	0.774997	0.061984
O33	O	-0.787146	1.108330	0.395317
O34	O	-1.283537	0.441579	-0.441659
O35	O	-0.950204	0.774912	-0.108326
O36	O	-0.616871	1.108245	0.225008
O37	O	-1.453897	0.570531	-0.741030
O38	O	-1.120563	0.903864	-0.407696
O39	O	-0.787230	1.237198	-0.074363
O40	O	-1.283530	0.570579	-0.570696
O41	O	-0.950196	0.903912	-0.237362
O42	O	-0.616863	1.237245	0.095971
O43	O	-1.582989	0.441495	-0.741052
O44	O	-1.249655	0.774828	-0.407719
O45	O	-0.916322	1.108162	-0.074386
O46	O	-1.582811	0.740983	-0.441650
O47	O	-1.249477	1.074316	-0.108316
O48	O	-0.916144	1.407649	0.225017
O49	O	-1.453795	0.740919	-0.570691
O50	O	-1.120462	1.074252	-0.237357
O51	O	-0.787129	1.407585	0.095976
C52	C	-1.245413	0.506075	-0.506175
C53	C	-0.912079	0.839409	-0.172842
C54	C	-0.578746	1.172742	0.160491
C55	C	-1.128636	0.506088	-0.506192
C56	C	-0.795303	0.839422	-0.172859
C57	C	-0.461969	1.172755	0.160475
C58	C	-1.073815	0.438985	-0.573498
C59	C	-0.740481	0.772319	-0.240165
C60	C	-0.407148	1.105652	0.093169
C61	C	-0.964090	0.438992	-0.573503
C62	C	-0.630757	0.772325	-0.240170
C63	C	-0.297424	1.105659	0.093163
C64	C	-0.964019	0.573213	-0.438894
C65	C	-0.630685	0.906547	-0.105560
C66	C	-0.297352	1.239880	0.227773
C67	C	-1.073741	0.573201	-0.438884
C68	C	-0.740408	0.906534	-0.105550
C69	C	-0.407074	1.239868	0.227783
C70	C	-1.518319	0.779071	-0.506189
C71	C	-1.184986	1.112405	-0.172856
C72	C	-0.851653	1.445738	0.160478
C73	C	-1.518389	0.895848	-0.506222
C74	C	-1.185056	1.229181	-0.172889
C75	C	-0.851723	1.562515	0.160445
C76	C	-0.792413	0.506124	-0.506210
C77	C	-0.459080	0.839457	-0.172877
C78	C	-0.125746	1.172791	0.160456
C79	C	-0.909190	0.506107	-0.506207
C80	C	-0.575856	0.839441	-0.172874
C81	C	-0.242523	1.172774	0.160460
C82	C	-1.585707	1.060439	-0.439148
C83	C	-1.252374	1.393773	-0.105815
C84	C	-0.919040	1.727106	0.227518
C85	C	-1.585644	0.950715	-0.439109
C86	C	-1.252310	1.284049	-0.105775
C87	C	-0.918977	1.617382	0.227558
C88	C	-1.451187	0.950710	-0.573372
C89	C	-1.117853	1.284044	-0.240038
C90	C	-0.784520	1.617377	0.093295
C91	C	-1.451246	1.060432	-0.573405
C92	C	-1.117912	1.393766	-0.240072
C93	C	-0.784579	1.727099	0.093261
C94	C	-1.518453	0.505998	-0.780228
C95	C	-1.185120	0.839331	-0.446894
C96	C	-0.851787	1.172664	-0.113561
C97	C	-1.518485	0.505953	-0.897005
C98	C	-1.185151	0.839286	-0.563671
C99	C	-0.851818	1.172619	-0.230338
C100	C	-1.518470	1.232071	-0.506238
C101	C	-1.185137	1.565404	-0.172904
C102	C	-0.851804	1.898737	0.160429
C103	C	-1.518512	1.115294	-0.506295
C104	C	-1.185178	1.448627	-0.172962
C105	C	-0.851845	1.781961	0.160372
C106	C	-1.451334	0.438737	-0.951868
C107	C	-1.118001	0.772070	-0.618535
C108	C	-0.784668	1.105403	-0.285201
C109	C	-1.451359	0.438704	-1.061592
C110	C	-1.118025	0.772038	-0.728259
C111	C	-0.784692	1.105371	-0.394926
C112	C	-1.585693	0.573107	-1.061580
C113	C	-1.252359	0.906440	-0.728246
C114	C	-0.919026	1.239773	-0.394913
C115	C	-1.585662	0.573143	-0.951857
C116	C	-1.252329	0.906477	-0.618524
C117	C	-0.918995	1.239810	-0.285191
C118	C	-1.518367	0.506134	-0.233227
C119	C	-1.185034	0.839467	0.100106
C120	C	-0.851701	1.172801	0.433440
C121	C	-1.518540	0.505883	-0.116451
C122	C	-1.185206	0.839217	0.216882
C123	C	-0.851873	1.172550	0.550216
H124	H	-1.118507	0.384335	-0.628302
H125	H	-0.785173	0.717668	-0.294968
H126	H	-0.451840	1.051001	0.038365
Br127	Br	-1.360040	1.134885	-0.664535
Br128	Br	-1.026706	1.468218	-0.331201
Br129	Br	-0.693373	1.801552	0.002132
H130	H	-1.640387	0.627810	-1.106254
H131	H	-1.307054	0.961144	-0.772921
H132	H	-0.973720	1.294477	-0.439587
Br133	Br	-0.889694	0.347915	-0.664847
Br134	Br	-0.556360	0.681249	-0.331514
Br135	Br	-0.223027	1.014582	0.001819
Br136	Br	-1.360163	0.347552	-0.877428
Br137	Br	-1.026830	0.680885	-0.544094
Br138	Br	-0.693496	1.014219	-0.210761
H139	H	-1.396677	0.383971	-1.106257
H140	H	-1.063344	0.717305	-0.772924
H141	H	-0.730011	1.050638	-0.439591
Br142	Br	-1.676794	0.664380	-0.877392
Br143	Br	-1.343460	0.997713	-0.544059
Br144	Br	-1.010127	1.331046	-0.210726
H145	H	-1.118378	0.627845	-0.384069
H146	H	-0.785044	0.961179	-0.050736
H147	H	-0.451711	1.294512	0.282597
Br148	Br	-0.889512	0.664292	-0.347553
Br149	Br	-0.556179	0.997625	-0.014219
Br150	Br	-0.222845	1.330958	0.319114
H151	H	-1.640479	1.105105	-0.384502
H152	H	-1.307146	1.438438	-0.051169
H153	H	-0.973812	1.771771	0.282164
H154	H	-1.396422	0.906031	-0.628013
H155	H	-1.063088	1.239364	-0.294680
H156	H	-0.729755	1.572698	0.038654
Br157	Br	-1.676839	0.876273	-0.347975
Br158	Br	-1.343506	1.209607	-0.014642
Br159	Br	-1.010173	1.542940	0.318692
