data_functionalizedCrystal
_audit_creation_method	'MofGen! by Chris Wilmer'
_symmetry_space_group_name_H-M	'P1'
_symmetry_Int_Tables_number	1
_symmetry_cell_setting	triclinic
loop_
_symmetry_equiv_pos_as_xyz
  x,y,z
_cell_length_a	10.654551
_cell_length_b	10.654558
_cell_length_c	9.130313
_cell_angle_alpha	89.999661
_cell_angle_beta	90.000320
_cell_angle_gamma	84.486748
loop_
_atom_site_label
_atom_site_type_symbol
_atom_site_fract_x
_atom_site_fract_y
_atom_site_fract_z
O1	O	1.667839	0.176398	-0.121777
O2	O	1.302361	0.193203	-0.121784
O3	O	1.493497	0.002062	-0.121774
O4	O	1.476702	0.367539	-0.121787
O5	O	1.493495	0.002067	0.121825
O6	O	1.302358	0.193208	0.121815
O7	O	1.667836	0.176403	0.121821
Cu8	Cu	1.485097	0.184806	0.144061
Cu9	Cu	1.485100	0.184800	-0.144023
O10	O	1.476699	0.367544	0.121812
C11	C	1.255561	0.191971	0.000014
C12	C	1.116118	0.188279	0.000012
C13	C	0.919585	0.183064	0.132799
C14	C	1.050605	0.186544	0.132800
C15	C	1.050602	0.186545	-0.132785
C16	C	0.919583	0.183074	-0.132784
C17	C	0.854081	0.181317	0.265596
C18	C	0.919587	0.183052	0.398393
C19	C	1.050608	0.186533	0.398394
C20	C	1.116121	0.188278	0.265597
C21	C	1.492261	-0.044734	0.000024
C22	C	1.488565	-0.184176	0.000019
C23	C	1.486825	-0.249687	0.132803
C24	C	1.483363	-0.380710	0.132797
C25	C	1.483376	-0.380699	-0.132788
C26	C	1.486847	-0.249680	-0.132781
C27	C	1.488542	-0.184184	0.265602
C28	C	1.486800	-0.249694	0.398397
C29	C	1.483338	-0.380717	0.398391
C30	C	1.481618	-0.446229	0.265590
C31	C	1.714635	0.177634	0.000020
C32	C	1.854079	0.181327	0.000013
C33	C	1.477936	0.414339	0.000011
C34	C	1.481632	0.553782	0.000005
N35	N	1.485104	0.184809	0.346683
N36	N	1.485102	0.184786	-0.346646
C37	C	1.569761	0.100201	0.423340
C38	C	1.569758	0.100186	0.576676
C39	C	1.400436	0.269399	0.576687
C40	C	1.400434	0.269407	0.423353
C41	C	1.667522	0.002511	0.423335
C42	C	1.667519	0.002496	0.576671
H43	H	0.747397	0.178480	0.265610
Cl44	Cl	1.132954	0.188730	0.565335
H45	H	1.331489	0.338290	0.360941
Cl46	Cl	1.489040	-0.167318	-0.299712
Cl47	Cl	1.280833	0.192665	0.265602
H48	H	1.103954	0.187965	-0.240902
Cl49	Cl	1.816523	0.035708	0.640937
Cl50	Cl	1.492878	-0.019468	0.265619
H51	H	0.866246	0.181663	-0.240911
H52	H	1.331499	0.338274	0.639128
H53	H	1.646076	-0.094021	0.381717
Cl54	Cl	1.808294	0.049753	0.349897
Cl55	Cl	1.481210	-0.463057	-0.299725
H56	H	1.488212	-0.196347	0.506517
H57	H	1.481932	-0.434054	0.506518
Cl58	Cl	1.477286	-0.610947	0.265588
Cl59	Cl	1.620395	-0.138334	0.650097
H60	H	0.866236	0.181642	0.506512
