data_functionalizedCrystal
_audit_creation_method	'MofGen! by Chris Wilmer'
_symmetry_space_group_name_H-M	'P1'
_symmetry_Int_Tables_number	1
_symmetry_cell_setting	triclinic
loop_
_symmetry_equiv_pos_as_xyz
  x,y,z
_cell_length_a	14.446369
_cell_length_b	14.560438
_cell_length_c	14.560438
_cell_angle_alpha	60.000905
_cell_angle_beta	90.001510
_cell_angle_gamma	59.998281
loop_
_atom_site_label
_atom_site_type_symbol
_atom_site_fract_x
_atom_site_fract_y
_atom_site_fract_z
Zr1	Zr	0.891770	1.005228	-0.120475
O2	O	0.743957	1.196839	-0.267125
O3	O	0.937082	0.813624	-0.075521
O4	O	0.937077	1.005228	-0.267122
O5	O	0.743965	1.005233	0.075616
O6	O	1.089414	1.005220	-0.267116
O7	O	0.743961	1.005236	-0.075524
O8	O	1.089423	0.662476	0.075623
O9	O	0.743957	1.347977	-0.267122
O10	O	1.070095	0.892425	-0.056342
O11	O	0.956410	0.892429	0.056449
O12	O	0.956405	1.118018	-0.169136
O13	O	0.842720	1.118022	-0.056346
Zr14	Zr	1.134736	1.005211	0.120586
Zr15	Zr	1.134730	1.005215	-0.120466
Zr16	Zr	0.891776	1.005224	0.120577
Zr17	Zr	0.891770	1.246276	-0.120470
Zr18	Zr	1.134735	0.764163	0.120582
O19	O	1.089424	1.196815	0.075633
O20	O	1.089415	1.196821	-0.267112
O21	O	0.743966	1.196834	0.075620
O22	O	1.282549	0.813600	0.267237
O23	O	1.282540	0.813606	-0.075508
O24	O	0.937091	0.813619	0.267224
O25	O	1.282540	1.005206	-0.075505
O26	O	1.089428	1.005211	0.267233
O27	O	0.937091	1.005219	0.267228
O28	O	1.282544	1.005204	0.075636
O29	O	0.937078	1.347967	-0.267115
O30	O	1.089428	0.662472	0.267227
O31	O	1.282548	0.662462	0.267234
O32	O	1.282543	0.662465	0.075630
O33	O	0.743962	1.347974	-0.075518
O34	O	0.937083	1.347964	-0.075511
O35	O	1.070101	0.892421	0.169248
O36	O	1.183785	0.892417	0.056457
O37	O	1.070095	1.118010	-0.056337
O38	O	0.956411	1.118014	0.056453
C39	C	1.013252	0.703706	0.000050
C40	C	1.013252	0.601375	0.000048
C41	C	0.709347	1.005236	0.000045
C42	C	0.606204	1.005242	0.000041
C43	C	1.072592	0.553296	-0.058827
C44	C	1.072596	0.457137	-0.058817
C45	C	0.953912	0.457147	0.058946
C46	C	0.953915	0.553298	0.058942
C47	C	0.387833	1.147508	-0.070740
C48	C	0.495065	1.147605	-0.071138
C49	C	0.602879	0.934571	-0.051851
C50	C	0.495110	0.935474	-0.052370
C51	C	0.496478	0.932541	0.122804
C52	C	0.602447	0.935222	0.122611
C53	C	1.317159	1.005203	0.000067
C54	C	1.420302	1.005197	0.000071
C55	C	1.013245	1.005225	-0.301464
C56	C	1.013242	1.005226	-0.403797
C57	C	1.013253	1.306733	0.000062
C58	C	1.013254	1.409064	0.000063
C59	C	0.953899	1.122982	-0.510750
C60	C	0.953912	1.122975	-0.606899
C61	C	1.072614	0.887449	-0.489127
C62	C	1.072607	0.887456	-0.392980
C63	C	1.013261	1.005215	0.301575
C64	C	1.013263	1.005213	0.403908
C65	C	1.317158	0.703689	0.000061
C66	C	1.420301	0.601353	0.000063
C67	C	1.013260	0.703701	0.301570
C68	C	1.013262	0.601368	0.403901
C69	C	1.317166	0.703684	0.301581
C70	C	1.420311	0.601346	0.403916
C71	C	0.709340	1.306755	-0.301469
C72	C	0.606194	1.409093	-0.403804
C73	C	0.709347	1.306750	0.000050
C74	C	0.606205	1.409087	0.000049
C75	C	1.013246	1.306739	-0.301458
C76	C	1.013243	1.409071	-0.403789
C77	C	1.409415	0.553276	-0.058813
C78	C	1.506333	0.457128	-0.058815
C79	C	1.625018	0.457137	0.058944
C80	C	1.528102	0.553290	0.058939
C81	C	1.072608	0.553286	0.510856
C82	C	1.072597	0.457142	0.607003
C83	C	0.953894	0.457168	0.489226
C84	C	0.953899	0.553316	0.393081
C85	C	1.528111	0.553263	0.393120
C86	C	1.625024	0.457113	0.489278
C87	C	1.506322	0.457135	0.607024
C88	C	1.409412	0.553289	0.510867
H89	H	1.120910	0.592437	-0.106780
H90	H	1.120918	0.417993	-0.106757
H91	H	0.905565	0.418031	0.480430
Cl92	Cl	1.147202	0.396703	0.741460
H93	H	0.905592	0.592442	0.106890
Cl94	Cl	0.879280	0.613774	0.258612
Cl95	Cl	0.879327	0.396695	0.132986
H96	H	1.497461	0.417994	0.694114
Cl97	Cl	0.492576	1.233209	-0.017402
H98	H	0.681148	0.829896	-0.002759
Cl99	Cl	0.491282	1.233759	-0.210921
Cl100	Cl	1.147230	0.739403	-0.475540
Cl101	Cl	0.606168	1.010357	-0.189969
H102	H	1.536992	0.592390	0.306039
H103	H	1.712797	0.417968	0.480481
H104	H	1.497460	0.417990	-0.106761
H105	H	1.536974	0.592438	0.106883
Cl106	Cl	0.538863	0.770680	0.204641
Cl107	Cl	0.419244	1.002829	0.189738
H108	H	1.321630	0.592443	0.519666
Cl109	Cl	0.601678	1.014755	0.182478
Cl110	Cl	0.304524	1.233749	-0.017278
H111	H	1.120941	0.592411	0.519672
H112	H	0.332846	1.203091	-0.160730
H113	H	0.905560	1.218878	-0.519564
Cl114	Cl	0.417368	1.013030	-0.191810
H115	H	0.521765	0.831063	-0.004129
H116	H	0.681607	0.831360	0.179809
H117	H	1.120937	0.791560	-0.305887
Cl118	Cl	0.879307	1.271018	-0.741355
Cl119	Cl	1.760541	0.396703	0.132962
Cl120	Cl	1.273898	0.613702	-0.132836
