data_functionalizedCrystal
_audit_creation_method	'MofGen! by Chris Wilmer'
_symmetry_space_group_name_H-M	'P1'
_symmetry_Int_Tables_number	1
_symmetry_cell_setting	triclinic
loop_
_symmetry_equiv_pos_as_xyz
  x,y,z
_cell_length_a	11.792241
_cell_length_b	11.792241
_cell_length_c	14.185569
_cell_angle_alpha	103.246816
_cell_angle_beta	76.749757
_cell_angle_gamma	84.193416
loop_
_atom_site_label
_atom_site_type_symbol
_atom_site_fract_x
_atom_site_fract_y
_atom_site_fract_z
O1	O	1.481350	0.181114	0.083323
O2	O	1.151001	0.197154	0.083346
O3	O	1.324194	0.023961	0.083327
O4	O	1.308157	0.354307	0.083342
O5	O	1.375357	-0.027196	-0.083513
O6	O	1.202164	0.145997	-0.083494
O7	O	1.532512	0.129957	-0.083517
Cu8	Cu	1.372010	0.133306	-0.098739
Cu9	Cu	1.311504	0.193805	0.098569
O10	O	1.359319	0.303150	-0.083498
C11	C	1.134291	0.170569	-0.000071
C12	C	1.008274	0.167557	-0.000062
C13	C	0.777571	0.162006	-0.000091
C14	C	0.905952	0.165090	-0.000075
C15	C	1.348768	-0.043908	-0.000093
C16	C	1.345754	-0.169922	-0.000091
C17	C	1.340205	-0.400629	-0.000074
C18	C	1.343288	-0.272246	-0.000084
C19	C	1.549222	0.156542	-0.000098
C20	C	1.675237	0.159556	-0.000100
C21	C	1.334745	0.371020	-0.000076
C22	C	1.337757	0.497035	-0.000071
N23	N	1.414575	0.090753	-0.237515
C24	C	1.143892	0.361319	-0.605135
C25	C	1.176142	0.329093	-0.710160
C26	C	1.329536	0.175789	-0.710138
C27	C	1.297295	0.207997	-0.605111
C28	C	1.204473	0.300764	-0.552617
C29	C	1.357876	0.147443	-0.552593
C30	C	1.325641	0.179653	-0.447575
C31	C	1.232825	0.272419	-0.395075
C32	C	1.172238	0.332975	-0.447599
C33	C	1.450703	0.054682	-0.605089
C34	C	1.511284	-0.005873	-0.552571
C35	C	1.479044	0.026332	-0.447551
C36	C	1.386228	0.119097	-0.395051
C37	C	1.539631	-0.034224	-0.395027
C38	C	1.507396	-0.002013	-0.290008
C39	C	1.353993	0.151308	-0.290032
N40	N	1.268948	0.236349	0.237344
H41	H	1.278401	0.226840	-0.247290
H42	H	1.586864	-0.081402	-0.595324
C43	C	1.197361	0.307858	-0.279557
H44	H	1.133411	0.371784	-0.255818
H45	H	1.174092	0.242499	-0.255797
H46	H	1.262704	0.331180	-0.255790
C47	C	1.641731	-0.136259	-0.452772
H48	H	1.673199	-0.167707	-0.406453
H49	H	1.613195	-0.196346	-0.493751
H50	H	1.701803	-0.107663	-0.493727
C51	C	1.431630	0.073748	-0.767886
H52	H	1.442147	0.063230	-0.837953
H53	H	1.502167	0.091856	-0.750663
H54	H	1.413542	0.003190	-0.750677
H55	H	1.126802	0.378414	-0.752915
H56	H	1.476949	0.028463	-0.690601
H57	H	1.556730	-0.051323	-0.247248
C58	C	1.070133	0.435015	-0.389850
H59	H	1.038668	0.466473	-0.436166
H60	H	1.010070	0.406429	-0.348886
H61	H	1.098684	0.495108	-0.348881
C62	C	1.041787	0.463359	-0.547386
H63	H	1.010321	0.494817	-0.593702
H64	H	0.981724	0.434773	-0.506421
H65	H	1.070337	0.523452	-0.506416
