data_functionalizedCrystal
_audit_creation_method	'MofGen! by Chris Wilmer'
_symmetry_space_group_name_H-M	'P1'
_symmetry_Int_Tables_number	1
_symmetry_cell_setting	triclinic
loop_
_symmetry_equiv_pos_as_xyz
  x,y,z
_cell_length_a	17.699077
_cell_length_b	15.944499
_cell_length_c	16.776229
_cell_angle_alpha	90.003872
_cell_angle_beta	89.994802
_cell_angle_gamma	96.620907
loop_
_atom_site_label
_atom_site_type_symbol
_atom_site_fract_x
_atom_site_fract_y
_atom_site_fract_z
O1	O	-1.004244	0.106197	0.066278
O2	O	-0.783886	0.120022	0.066282
O3	O	-0.900103	-0.009181	0.066274
O4	O	-0.888027	0.235400	0.066287
O5	O	-0.900090	-0.009182	-0.066302
O6	O	-0.783873	0.120022	-0.066294
O7	O	-1.004231	0.106196	-0.066298
Zn8	Zn	-0.894050	0.113109	-0.087345
Zn9	Zn	-0.894067	0.113109	0.087330
O10	O	-0.888014	0.235400	-0.066290
C11	C	-0.755682	0.119527	-0.000005
C12	C	-0.671661	0.118044	-0.000004
C13	C	-0.899602	-0.040475	-0.000014
C14	C	-0.898120	-0.133720	-0.000014
C15	C	-1.032435	0.106691	-0.000009
C16	C	-1.116456	0.108175	-0.000005
C17	C	-0.888515	0.266694	0.000000
C18	C	-0.889997	0.359939	0.000005
C19	C	-0.632185	0.117345	-0.072272
C20	C	-0.553241	0.115937	-0.072273
C21	C	-0.513772	0.115235	-0.000005
C22	C	-0.553254	0.115932	0.072269
C23	C	-0.632198	0.117333	0.072269
C24	C	-0.234882	0.110279	0.072270
C25	C	-0.155932	0.108880	0.072265
C26	C	-0.155925	0.108883	-0.072272
C27	C	-0.234869	0.110284	-0.072272
C28	C	-0.274344	0.110977	0.000001
C29	C	-0.359945	0.112501	0.000002
C30	C	-0.428172	0.113716	-0.000004
C31	C	-0.822478	0.651618	-0.000002
C32	C	-0.857570	0.590514	-0.065372
C33	C	-0.895382	0.695564	-0.000009
C34	C	-0.857602	0.590529	0.065338
C35	C	-0.892732	0.530661	-0.000001
C36	C	-0.930494	0.635688	-0.065433
C37	C	-0.930516	0.635708	0.065336
C38	C	-0.965661	0.574622	-0.000050
C39	C	-0.896906	0.790561	-0.000014
C40	C	-0.891214	0.435665	-0.000001
N41	N	-0.894043	0.113108	-0.206557
C42	C	-0.939937	0.163991	-0.248268
C43	C	-0.939945	0.163988	-0.331721
C44	C	-0.894056	0.113106	-0.373460
C45	C	-0.848160	0.062217	-0.331742
C46	C	-0.848156	0.062216	-0.248291
C47	C	-0.848176	0.062218	-0.668289
C48	C	-0.848181	0.062225	-0.751746
C49	C	-0.939964	0.163990	-0.751718
C50	C	-0.939961	0.163989	-0.668268
C51	C	-0.894069	0.113097	-0.626558
C52	C	-0.894061	0.113100	-0.536069
C53	C	-0.894059	0.113107	-0.463946
N54	N	-0.894079	0.113104	0.206541
H55	H	-0.664314	0.117923	-0.131122
O56	O	-0.803602	0.012866	-0.372406
C57	C	-0.813415	0.023804	-0.455007
H58	H	-0.834953	0.087413	-0.466384
H59	H	-0.756680	0.021760	-0.486704
H60	H	-0.856545	-0.028915	-0.478727
O61	O	-0.273275	0.110812	0.142451
C62	C	-0.327537	0.038913	0.146767
H63	H	-0.309744	-0.012339	0.105756
H64	H	-0.331319	0.014523	0.210686
H65	H	-0.385425	0.056414	0.127352
O66	O	-0.820822	0.566797	0.131329
C67	C	-0.795810	0.638767	0.177205
H68	H	-0.831969	0.691488	0.162698
H69	H	-0.801534	0.622440	0.243251
H70	H	-0.733702	0.660568	0.162766
H71	H	-0.123799	0.108308	0.131118
H72	H	-0.810785	0.020783	-0.214331
H73	H	-1.026216	0.541311	-0.000090
H74	H	-0.977334	0.205426	-0.785689
H75	H	-0.521105	0.115354	-0.131121
O76	O	-0.803713	0.012742	-0.792380
C77	C	-0.849879	-0.044645	-0.840637
H78	H	-0.906028	-0.018575	-0.853125
H79	H	-0.819462	-0.053957	-0.899327
H80	H	-0.861479	-0.107807	-0.808484
O81	O	-0.514863	0.115399	0.142449
C82	C	-0.460604	0.187300	0.146767
H83	H	-0.478393	0.238548	0.105759
H84	H	-0.456830	0.211694	0.210687
H85	H	-0.402713	0.169799	0.127348
H86	H	-0.761976	0.685079	-0.000064
O87	O	-0.273095	0.110926	-0.142545
C88	C	-0.221321	0.110027	-0.206333
H89	H	-0.168186	0.082447	-0.185149
H90	H	-0.248940	0.069665	-0.256878
H91	H	-0.204972	0.177240	-0.228553
H92	H	-0.664338	0.117904	0.131117
O93	O	-0.984542	0.213498	-0.372115
C94	C	-1.025054	0.258397	-0.317381
H95	H	-0.993718	0.263338	-0.257900
H96	H	-1.029732	0.324446	-0.341486
H97	H	-1.084468	0.223715	-0.308498
O98	O	-0.820852	0.566701	-0.131381
C99	C	-0.858664	0.590815	-0.200194
H100	H	-0.892798	0.645086	-0.184962
H101	H	-0.815052	0.612016	-0.248243
H102	H	-0.898716	0.534845	-0.223021
H103	H	-0.977301	0.205430	-0.214291
O104	O	-0.984609	0.213437	-0.627847
C105	C	-1.025105	0.258363	-0.682559
H106	H	-1.029530	0.223586	-0.742049
H107	H	-1.084616	0.263487	-0.658437
H108	H	-0.993918	0.324344	-0.691432
O109	O	-0.117563	0.108050	-0.142461
C110	C	-0.080471	0.034527	-0.146786
H111	H	-0.110265	-0.015878	-0.105778
H112	H	-0.082456	0.010104	-0.210707
H113	H	-0.018700	0.049903	-0.127373
H114	H	-0.961297	0.655601	-0.120758
H115	H	-0.961332	0.655759	0.120601
O116	O	-0.803523	0.012768	-0.627902
C117	C	-0.763034	-0.032152	-0.682640
H118	H	-0.758616	0.002633	-0.742122
H119	H	-0.703520	-0.037279	-0.658541
H120	H	-0.794223	-0.098131	-0.691519
