data_functionalizedCrystal
_audit_creation_method	'MofGen! by Chris Wilmer'
_symmetry_space_group_name_H-M	'P1'
_symmetry_Int_Tables_number	1
_symmetry_cell_setting	triclinic
loop_
_symmetry_equiv_pos_as_xyz
  x,y,z
_cell_length_a	11.792241
_cell_length_b	10.654550
_cell_length_c	9.130313
_cell_angle_alpha	90.000110
_cell_angle_beta	90.003954
_cell_angle_gamma	95.660841
loop_
_atom_site_label
_atom_site_type_symbol
_atom_site_fract_x
_atom_site_fract_y
_atom_site_fract_z
O1	O	1.507300	-0.172130	-0.121653
O2	O	1.177000	-0.189870	-0.121687
O3	O	1.349744	0.001761	-0.121664
O4	O	1.334556	-0.363761	-0.121676
O5	O	1.349742	0.001756	0.121935
O6	O	1.176998	-0.189875	0.121912
O7	O	1.507298	-0.172135	0.121946
Cu8	Cu	1.342148	-0.181006	0.144171
Cu9	Cu	1.342150	-0.180999	-0.143912
O10	O	1.334554	-0.363766	0.121923
C11	C	1.134705	-0.188758	0.000108
C12	C	1.008684	-0.185423	0.000095
C13	C	1.348628	0.048553	0.000134
C14	C	1.345291	0.187987	0.000128
N15	N	1.342154	-0.181009	0.346794
C16	C	0.777958	-0.179290	0.000138
C17	C	0.906351	-0.182697	0.000114
C18	C	1.549592	-0.173247	0.000147
C19	C	1.675614	-0.176582	0.000151
C20	C	1.335670	-0.410558	0.000122
C21	C	1.339006	-0.549992	0.000118
C22	C	1.447000	0.267760	0.000143
C23	C	1.443858	0.398772	0.000133
C24	C	1.237290	0.370224	0.000099
C25	C	1.240433	0.239215	0.000099
C26	C	1.566261	0.284243	0.000169
C27	C	1.563120	0.415255	0.000159
N28	N	1.342152	-0.180986	-0.346535
C29	C	1.418665	-0.096184	0.423456
C30	C	1.418662	-0.096169	0.576793
C31	C	1.265633	-0.265815	0.576792
C32	C	1.265632	-0.265823	0.423458
C33	C	1.507018	0.001757	0.423458
C34	C	1.507015	0.001772	0.576795
H35	H	1.157611	0.174267	0.000066
F36	F	1.621849	0.470007	0.133410
H37	H	1.151917	0.411951	0.000073
H38	H	1.203321	-0.334884	0.361041
H39	H	1.203330	-0.334868	0.639228
F40	F	1.481689	0.127857	0.369051
H41	H	1.612910	0.255019	-0.101765
F42	F	1.615883	0.237805	0.137660
F43	F	1.621020	-0.026022	0.631209
F44	F	1.610229	0.475057	-0.137310
F45	F	1.614723	-0.037933	0.361298
H46	H	1.479439	0.092916	0.624342
