data_functionalizedCrystal
_audit_creation_method	'MofGen! by Chris Wilmer'
_symmetry_space_group_name_H-M	'P1'
_symmetry_Int_Tables_number	1
_symmetry_cell_setting	triclinic
loop_
_symmetry_equiv_pos_as_xyz
  x,y,z
_cell_length_a	23.204082
_cell_length_b	23.204045
_cell_length_c	23.204203
_cell_angle_alpha	89.996178
_cell_angle_beta	60.000155
_cell_angle_gamma	60.000252
loop_
_atom_site_label
_atom_site_type_symbol
_atom_site_fract_x
_atom_site_fract_y
_atom_site_fract_z
O1	O	-0.412476	-0.491206	0.017138
O2	O	-0.294468	-0.407397	-0.017065
O3	O	-0.412471	-0.407401	0.100938
O4	O	-0.294473	-0.491202	-0.100865
O5	O	-0.508316	-0.311553	0.100930
O6	O	-0.390314	-0.311550	-0.017074
O7	O	-0.508321	-0.395358	0.017130
Cu8	Cu	-0.458069	-0.344702	0.000027
Cu9	Cu	-0.344721	-0.458053	0.000037
O10	O	-0.390319	-0.395355	-0.100873
C11	C	-0.285812	-0.206298	-0.024833
C12	C	-0.326272	-0.130277	-0.019932
C13	C	-0.320164	-0.241301	-0.025326
C14	C	-0.181448	-0.310659	-0.024841
C15	C	-0.110322	-0.346223	-0.019948
C16	C	-0.215959	-0.345504	-0.025333
C17	C	-0.285805	-0.310660	-0.024844
C18	C	-0.326257	-0.346226	-0.019956
C19	C	-0.215966	-0.241300	-0.025322
C20	C	-0.694386	-0.554196	0.035853
C21	C	-0.765509	-0.518635	0.030956
C22	C	-0.659871	-0.519353	0.036338
C23	C	-0.590033	-0.658551	0.035862
C24	C	-0.549581	-0.734568	0.030975
C25	C	-0.555676	-0.623550	0.036347
C26	C	-0.590028	-0.554195	0.035853
C27	C	-0.549570	-0.518633	0.030956
C28	C	-0.659876	-0.623551	0.036346
C29	C	-0.516883	-0.489903	0.026999
C30	C	-0.822968	-0.489906	0.026998
C31	C	-0.516899	-0.795982	0.027024
C32	C	-0.475876	-0.453859	0.022035
C33	C	-0.895053	-0.453863	0.022033
C34	C	-0.475898	-0.873029	0.022070
C35	C	-0.108424	-0.658545	-0.445743
C36	C	-0.037304	-0.734560	-0.481297
C37	C	-0.142936	-0.623544	-0.376389
C38	C	-0.212776	-0.554191	-0.445754
C39	C	-0.253229	-0.518631	-0.481321
C40	C	-0.247130	-0.519348	-0.376401
C41	C	-0.212777	-0.554189	-0.341395
C42	C	-0.253232	-0.518628	-0.265380
C43	C	-0.142935	-0.623545	-0.480590
C44	C	-0.285916	-0.489898	-0.203968
C45	C	0.020153	-0.795974	-0.510020
C46	C	-0.285912	-0.489902	-0.510055
C47	C	-0.326919	-0.453855	-0.126923
C48	C	0.092236	-0.873020	-0.546055
C49	C	-0.326914	-0.453861	-0.546103
O50	O	0.083790	-0.395359	0.017138
O51	O	-0.083831	-0.311543	-0.017055
O52	O	-0.083819	-0.311566	0.100944
O53	O	0.083778	-0.395336	-0.100861
O54	O	-0.083813	-0.407420	0.100934
O55	O	-0.083825	-0.407397	-0.017065
O56	O	0.083796	-0.491214	0.017127
Cu57	Cu	-0.000014	-0.458058	0.000030
Cu58	Cu	-0.000021	-0.344699	0.000043
O59	O	0.083784	-0.491191	-0.100872
O60	O	-0.508346	0.100917	0.017170
O61	O	-0.390333	-0.100895	-0.017043
O62	O	-0.508332	0.017090	0.100965
O63	O	-0.390347	-0.017069	-0.100837
O64	O	-0.412484	0.017092	0.100968
O65	O	-0.294485	-0.100894	-0.017039
O66	O	-0.412498	0.100918	0.017174
Cu67	Cu	-0.344740	0.000013	0.000068
Cu68	Cu	-0.458091	0.000010	0.000063
O69	O	-0.294499	-0.017067	-0.100833
O70	O	-0.412463	-0.407408	-0.688422
O71	O	-0.294467	-0.491208	-0.604601
O72	O	-0.412469	-0.491212	-0.604604
O73	O	-0.294461	-0.407404	-0.688419
O74	O	-0.508315	-0.395364	-0.508765
O75	O	-0.390314	-0.395360	-0.508762
O76	O	-0.508309	-0.311560	-0.592582
Cu77	Cu	-0.458063	-0.344708	-0.541921
Cu78	Cu	-0.344713	-0.458060	-0.655262
O79	O	-0.390307	-0.311556	-0.592579
O80	O	0.280993	-1.100878	-0.592493
O81	O	0.113389	-0.899073	-0.508705
O82	O	0.113383	-1.017076	-0.508694
O83	O	0.280998	-0.982876	-0.592503
O84	O	0.113383	-1.017075	-0.604545
O85	O	0.113389	-0.899073	-0.604555
O86	O	0.280992	-1.100878	-0.688343
Cu87	Cu	0.197191	-0.999975	-0.655201
Cu88	Cu	0.197191	-0.999976	-0.541847
O89	O	0.280998	-0.982876	-0.688353
C90	C	-0.621331	-0.206319	0.310679
C91	C	-0.692452	-0.130304	0.346236
C92	C	-0.586818	-0.241321	0.345524
C93	C	-0.516980	-0.310672	0.206330
C94	C	-0.476528	-0.346231	0.130315
C95	C	-0.482625	-0.345516	0.241333
C96	C	-0.516977	-0.310675	0.310687
C97	C	-0.476521	-0.346238	0.346251
C98	C	-0.586821	-0.241318	0.241326
C99	C	-0.285788	-0.310717	0.310679
C100	C	-0.326240	-0.346286	0.346232
C101	C	-0.320147	-0.241362	0.345525
C102	C	-0.181434	-0.310699	0.206333
C103	C	-0.110310	-0.346251	0.130319
C104	C	-0.215951	-0.241345	0.241338
C105	C	-0.285795	-0.206354	0.310690
C106	C	-0.326255	-0.130338	0.346256
C107	C	-0.215944	-0.345550	0.241327
C108	C	-0.516976	0.024833	0.310713
C109	C	-0.476516	0.019933	0.346274
C110	C	-0.586815	0.025313	0.345553
C111	C	-0.516988	0.024853	0.206361
C112	C	-0.476540	0.019974	0.130347
C113	C	-0.586827	0.025333	0.241359
C114	C	-0.621333	0.024831	0.310711
C115	C	-0.692452	0.019929	0.346269
C116	C	-0.482629	0.025334	0.241361
C117	C	0.409968	-0.658488	-0.445746
C118	C	0.450427	-0.734503	-0.481312
C119	C	0.444320	-0.623480	-0.480581
C120	C	0.305607	-0.554143	-0.341389
C121	C	0.234483	-0.518591	-0.265375
C122	C	0.340118	-0.519293	-0.376382
C123	C	0.409962	-0.554126	-0.445734
C124	C	0.450414	-0.518556	-0.481288
C125	C	0.340124	-0.623497	-0.376394
C126	C	0.483097	-0.489820	-0.510010
C127	C	0.483115	-0.795917	-0.510044
C128	C	0.177023	-0.489870	-0.203963
C129	C	0.524097	-0.453769	-0.546045
C130	C	0.524123	-0.872962	-0.546091
C131	C	0.104936	-0.453837	-0.126920
O132	O	-0.412505	0.100863	0.395387
O133	O	-0.294478	-0.100946	0.311578
O134	O	-0.412503	0.017049	0.311588
O135	O	-0.294480	-0.017132	0.395376
O136	O	-0.508330	0.017026	0.407439
O137	O	-0.390305	-0.100969	0.407429
O138	O	-0.508332	0.100839	0.491237
Cu139	Cu	-0.458068	-0.000067	0.458085
Cu140	Cu	-0.344742	-0.000039	0.344731
O141	O	-0.390307	-0.017155	0.491227
C142	C	-0.108484	-0.035710	-0.445709
C143	C	-0.037365	-0.030808	-0.481268
C144	C	-0.143002	-0.036191	-0.480550
C145	C	-0.212829	-0.035731	-0.341358
C146	C	-0.253276	-0.030852	-0.265344
C147	C	-0.247188	-0.036213	-0.376358
C148	C	-0.212842	-0.035712	-0.445710
C149	C	-0.253303	-0.030811	-0.481270
C150	C	-0.142989	-0.036211	-0.376357
C151	C	-0.285992	-0.026851	-0.509998
C152	C	0.020091	-0.026846	-0.509995
C153	C	-0.285954	-0.026909	-0.203932
C154	C	-0.327001	-0.021883	-0.546040
C155	C	0.092173	-0.021877	-0.546035
C156	C	-0.326949	-0.021963	-0.126888
H157	H	-0.187065	-0.402494	-0.026126
H158	H	-0.114043	-0.651642	-0.348291
C159	C	-0.625292	-0.203736	0.203861
C160	C	-0.625576	-0.143362	0.200412
C161	C	-0.660992	-0.108725	0.165895
H162	H	-0.594743	-0.234460	0.157437
H163	H	-0.679684	-0.190459	0.229222
H164	H	-0.571194	-0.156640	0.175050
H165	H	-0.656129	-0.112621	0.246825
H166	H	-0.715384	-0.095448	0.191256
H167	H	-0.630439	-0.139454	0.119474
H168	H	-0.661196	-0.067754	0.163556
H169	H	0.500519	-0.651573	-0.537566
C170	C	-0.395004	-0.203916	-0.026517
C171	C	-0.376831	-0.241448	-0.087240
C172	C	-0.445746	-0.207027	-0.088366
H173	H	-0.438455	-0.201510	0.014144
H174	H	-0.410622	-0.157513	-0.026764
H175	H	-0.361224	-0.287838	-0.086986
H176	H	-0.333392	-0.243855	-0.127911
H177	H	-0.461364	-0.160624	-0.088613
H178	H	-0.489192	-0.204623	-0.047703
H179	H	-0.433423	-0.232483	-0.129569
C180	C	-0.177571	-0.203784	0.203864
C181	C	-0.234189	-0.143398	0.200405
C182	C	-0.198860	-0.108786	0.165883
H183	H	-0.161805	-0.190513	0.229207
H184	H	-0.130969	-0.234538	0.157439
H185	H	-0.280776	-0.112650	0.246823
H186	H	-0.249959	-0.156649	0.175057
H187	H	-0.152258	-0.139540	0.119458
H188	H	-0.183095	-0.095520	0.191229
H189	H	-0.237267	-0.067815	0.163526
C190	C	-0.395007	-0.204022	0.421542
C191	C	-0.376848	-0.241593	0.464080
C192	C	-0.445788	-0.207220	0.534106
H193	H	-0.410670	-0.157622	0.437467
H194	H	-0.438426	-0.201631	0.424263
H195	H	-0.333443	-0.243975	0.461362
H196	H	-0.361195	-0.287991	0.448178
H197	H	-0.489207	-0.204829	0.536827
H198	H	-0.461445	-0.160821	0.550024
H199	H	-0.433479	-0.232710	0.562976
H200	H	-0.499472	-0.651655	0.037129
H201	H	-0.187061	-0.402533	0.213224
C202	C	-0.625259	-0.203787	0.421461
C203	C	-0.625554	-0.143410	0.425238
C204	C	-0.660944	-0.108830	0.495176
H205	H	-0.679641	-0.190511	0.450503
H206	H	-0.594671	-0.234563	0.437294
H207	H	-0.656143	-0.112640	0.409414
H208	H	-0.571183	-0.156666	0.396212
H209	H	-0.630356	-0.139606	0.511009
H210	H	-0.715323	-0.095558	0.524212
H211	H	-0.661142	-0.067864	0.497747
C212	C	-0.698477	-0.443381	0.037344
C213	C	-0.767139	-0.420230	0.037637
C214	C	-0.802715	-0.350254	0.038556
H215	H	-0.714316	-0.414332	0.078486
H216	H	-0.660193	-0.440670	-0.003385
H217	H	-0.805416	-0.422935	0.078362
H218	H	-0.751322	-0.449260	-0.003501
H219	H	-0.764430	-0.347544	-0.002173
H220	H	-0.818549	-0.321212	0.079698
H221	H	-0.849301	-0.334540	0.038748
H222	H	-0.114120	-0.036966	-0.537534
H223	H	-0.303387	-0.037004	-0.348256
H224	H	0.311229	-0.462309	-0.348275
H225	H	-0.426429	0.026123	0.213265
C226	C	-0.104488	-0.037375	-0.338835
C227	C	-0.081342	-0.098086	-0.319447
C228	C	-0.045887	-0.099177	-0.284871
H229	H	-0.057836	-0.037618	-0.369557
H230	H	-0.142802	0.003310	-0.297798
H231	H	-0.043031	-0.138760	-0.360477
H232	H	-0.127980	-0.097856	-0.288717
H233	H	-0.084201	-0.058493	-0.243834
H234	H	0.000762	-0.099418	-0.315597
H235	H	-0.030185	-0.140365	-0.271706
H236	H	-0.615720	0.026133	0.213260
H237	H	-0.187082	-0.213196	-0.026108
C238	C	0.301711	-0.661081	-0.339060
C239	C	0.346911	-0.729435	-0.384583
C240	C	0.311546	-0.764072	-0.350217
H241	H	0.301412	-0.663558	-0.298059
H242	H	0.247359	-0.635735	-0.325879
H243	H	0.401249	-0.754774	-0.397753
H244	H	0.347214	-0.726977	-0.425584
H245	H	0.257193	-0.738727	-0.337037
H246	H	0.311248	-0.766545	-0.309217
H247	H	0.342203	-0.810452	-0.381101
H248	H	-0.688762	-0.651651	0.037128
H249	H	-0.615685	0.026076	0.402533
H250	H	-0.303327	-0.462363	-0.348310
C251	C	-0.104313	-0.660985	-0.556615
C252	C	-0.024221	-0.680367	-0.599177
C253	C	0.011367	-0.714841	-0.669211
H254	H	-0.103957	-0.702015	-0.559401
H255	H	-0.134855	-0.630183	-0.572469
H256	H	0.006313	-0.711168	-0.583327
H257	H	-0.024554	-0.639350	-0.596412
H258	H	-0.019175	-0.684039	-0.685066
H259	H	0.011718	-0.755869	-0.671990
H260	H	0.065710	-0.727991	-0.698099
C261	C	-0.407597	-0.421453	0.203755
C262	C	-0.343772	-0.425198	0.143373
C263	C	-0.274642	-0.495134	0.108739
H264	H	-0.391892	-0.437339	0.234477
H265	H	-0.419703	-0.450468	0.190487
H266	H	-0.331666	-0.396193	0.156643
H267	H	-0.359450	-0.409326	0.112635
H268	H	-0.286747	-0.524148	0.095471
H269	H	-0.258944	-0.511013	0.139466
H270	H	-0.231330	-0.497685	0.067763
