data_functionalizedCrystal
_audit_creation_method	'MofGen! by Chris Wilmer'
_symmetry_space_group_name_H-M	'P1'
_symmetry_Int_Tables_number	1
_symmetry_cell_setting	triclinic
loop_
_symmetry_equiv_pos_as_xyz
  x,y,z
_cell_length_a	13.897449
_cell_length_b	21.295411
_cell_length_c	13.897448
_cell_angle_alpha	89.984179
_cell_angle_beta	90.018519
_cell_angle_gamma	89.973954
loop_
_atom_site_label
_atom_site_type_symbol
_atom_site_fract_x
_atom_site_fract_y
_atom_site_fract_z
Zn1	Zn	1.474728	-0.355962	-0.384104
Zn2	Zn	1.808061	-0.022629	-0.050770
Zn3	Zn	2.141395	0.310705	0.282563
Zn4	Zn	1.474614	-0.250698	-0.545384
Zn5	Zn	1.807948	0.082635	-0.212050
Zn6	Zn	2.141281	0.415969	0.121283
Zn7	Zn	1.313410	-0.250704	-0.384107
Zn8	Zn	1.646743	0.082629	-0.050773
Zn9	Zn	1.980076	0.415963	0.282560
Zn10	Zn	1.313399	-0.355927	-0.545361
Zn11	Zn	1.646732	-0.022594	-0.212027
Zn12	Zn	1.980065	0.310740	0.121306
O13	O	1.394038	-0.303323	-0.464739
O14	O	1.727371	0.030011	-0.131405
O15	O	2.060704	0.363344	0.201928
O16	O	1.609694	-0.342010	-0.405506
O17	O	1.943028	-0.008677	-0.072173
O18	O	2.276361	0.324656	0.261161
O19	O	1.453187	-0.162609	-0.524001
O20	O	1.786521	0.170724	-0.190667
O21	O	2.119854	0.504057	0.142666
O22	O	1.334861	-0.264684	-0.249125
O23	O	1.668194	0.068649	0.084209
O24	O	2.001527	0.401983	0.417542
O25	O	1.609611	-0.264673	-0.523998
O26	O	1.942944	0.068660	-0.190664
O27	O	2.276278	0.401993	0.142669
O28	O	1.453381	-0.342016	-0.249122
O29	O	1.786714	-0.008683	0.084211
O30	O	2.120047	0.324650	0.417544
O31	O	1.334751	-0.162614	-0.405511
O32	O	1.668084	0.170719	-0.072178
O33	O	2.001417	0.504053	0.261155
O34	O	1.178426	-0.264650	-0.405489
O35	O	1.511760	0.068683	-0.072156
O36	O	1.845093	0.402016	0.261178
O37	O	1.334842	-0.444021	-0.523959
O38	O	1.668176	-0.110688	-0.190625
O39	O	2.001509	0.222646	0.142708
O40	O	1.178419	-0.341957	-0.523961
O41	O	1.511752	-0.008624	-0.190628
O42	O	1.845085	0.324710	0.142705
O43	O	1.453370	-0.444047	-0.405484
O44	O	1.786703	-0.110713	-0.072150
O45	O	2.120037	0.222620	0.261183
O46	O	1.453177	-0.264640	-0.680362
O47	O	1.786510	0.068694	-0.347029
O48	O	2.119843	0.402027	-0.013696
O49	O	1.334732	-0.341951	-0.680345
O50	O	1.668066	-0.008618	-0.347012
O51	O	2.001399	0.324716	-0.013679
C52	C	1.143423	-0.303301	-0.464724
C53	C	1.476757	0.030033	-0.131390
C54	C	1.810090	0.363366	0.201943
C55	C	1.036209	-0.303306	-0.464741
C56	C	1.369543	0.030027	-0.131407
C57	C	1.702876	0.363360	0.201926
C58	C	0.949140	-0.303317	-0.464744
C59	C	1.282473	0.030017	-0.131410
C60	C	1.615806	0.363350	0.201923
C61	C	0.839907	-0.303336	-0.464751
C62	C	1.173240	0.029997	-0.131417
C63	C	1.506574	0.363331	0.201916
C64	C	1.394118	-0.467513	-0.464718
C65	C	1.727451	-0.134180	-0.131385
C66	C	2.060784	0.199154	0.201948
C67	C	1.394152	-0.537481	-0.464710
C68	C	1.727485	-0.204148	-0.131376
C69	C	2.060818	0.129185	0.201957
C70	C	1.455867	-0.570362	-0.403017
C71	C	1.789200	-0.237029	-0.069684
C72	C	2.122533	0.096304	0.263650
C73	C	1.455865	-0.636105	-0.402975
C74	C	1.789199	-0.302771	-0.069642
C75	C	2.122532	0.030562	0.263692
C76	C	1.394159	-0.668964	-0.464643
C77	C	1.727493	-0.335630	-0.131310
C78	C	2.060826	-0.002297	0.202024
C79	C	1.332432	-0.636075	-0.526340
C80	C	1.665766	-0.302741	-0.193007
C81	C	1.999099	0.030592	0.140327
C82	C	1.332429	-0.570334	-0.526373
C83	C	1.665762	-0.237000	-0.193040
C84	C	1.999095	0.096333	0.140293
N85	N	1.386736	-0.772185	-0.549025
N86	N	1.720069	-0.438851	-0.215692
N87	N	2.053403	-0.105518	0.117642
N88	N	1.386745	-0.834636	-0.548991
N89	N	1.720079	-0.501303	-0.215657
N90	N	2.053412	-0.167969	0.117676
C91	C	1.394165	-0.867039	-0.464545
C92	C	1.727499	-0.533705	-0.131212
C93	C	2.060832	-0.200372	0.202121
N94	N	1.401595	-0.834630	-0.380134
N95	N	1.734928	-0.501297	-0.046800
N96	N	2.068261	-0.167964	0.286533
N97	N	1.401591	-0.772173	-0.380169
N98	N	1.734924	-0.438840	-0.046836
N99	N	2.068257	-0.105506	0.286498
C100	C	1.394156	-0.740249	-0.464614
C101	C	1.727489	-0.406916	-0.131280
C102	C	2.060823	-0.073583	0.202053
C103	C	1.455882	-0.971205	-0.402802
C104	C	1.789215	-0.637872	-0.069469
C105	C	2.122549	-0.304539	0.263865
C106	C	1.455874	-1.036949	-0.402759
C107	C	1.789207	-0.703616	-0.069425
C108	C	2.122541	-0.370282	0.263908
C109	C	1.332446	-1.036918	-0.526132
C110	C	1.665780	-0.703584	-0.192799
C111	C	1.999113	-0.370251	0.140534
C112	C	1.332449	-0.971175	-0.526167
C113	C	1.665783	-0.637842	-0.192834
C114	C	1.999116	-0.304509	0.140500
C115	C	1.394172	-0.938323	-0.464503
C116	C	1.727506	-0.604990	-0.131170
C117	C	2.060839	-0.271656	0.202163
C118	C	1.645631	-0.303345	-0.464754
C119	C	1.978964	0.029988	-0.131421
C120	C	2.312297	0.363322	0.201913
C121	C	1.752844	-0.303355	-0.464761
C122	C	2.086178	0.029979	-0.131427
C123	C	2.419511	0.363312	0.201906
C124	C	1.393967	-0.303305	-0.715353
C125	C	1.727301	0.030029	-0.382020
C126	C	2.060634	0.363362	-0.048686
C127	C	1.394025	-0.303318	-0.822567
C128	C	1.727359	0.030016	-0.489233
C129	C	2.060692	0.363349	-0.155900
C130	C	1.394013	-0.139771	-0.464689
C131	C	1.727347	0.193562	-0.131356
C132	C	2.060680	0.526895	0.201977
C133	C	1.394166	-0.069803	-0.464426
C134	C	1.727499	0.263530	-0.131093
C135	C	2.060833	0.596863	0.202240
C136	C	1.394127	-0.303357	-1.018862
C137	C	1.727460	0.029976	-0.685529
C138	C	2.060793	0.363309	-0.352195
C139	C	1.394068	-0.303337	-0.909629
C140	C	1.727401	0.029996	-0.576296
C141	C	2.060734	0.363329	-0.242963
C142	C	1.394135	-0.303355	-0.213146
C143	C	1.727468	0.029979	0.120188
C144	C	2.060801	0.363312	0.453521
C145	C	1.394176	-0.303368	-0.105932
C146	C	1.727509	0.029965	0.227402
C147	C	2.060843	0.363298	0.560735
H148	H	1.506125	-0.543618	-0.352804
H149	H	1.839459	-0.210285	-0.019471
H150	H	2.172792	0.123049	0.313862
H151	H	1.282188	-0.662833	-0.576548
H152	H	1.615521	-0.329499	-0.243214
H153	H	1.948855	0.003834	0.090119
Cl154	Cl	1.254864	-0.929837	-0.603732
Cl155	Cl	1.588198	-0.596503	-0.270399
Cl156	Cl	1.921531	-0.263170	0.062934
H157	H	1.282169	-0.543562	-0.576610
H158	H	1.615502	-0.210229	-0.243276
H159	H	1.948835	0.123105	0.090057
H160	H	1.506128	-1.063720	-0.352515
H161	H	1.839461	-0.730386	-0.019182
H162	H	2.172795	-0.397053	0.314151
Cl163	Cl	1.533436	-0.677450	-0.325393
Cl164	Cl	1.866769	-0.344116	0.007940
Cl165	Cl	2.200103	-0.010783	0.341274
H166	H	1.506135	-0.944455	-0.352586
H167	H	1.839468	-0.611122	-0.019253
H168	H	2.172802	-0.277789	0.314080
Cl169	Cl	1.254863	-1.078220	-0.603650
Cl170	Cl	1.588196	-0.744887	-0.270317
Cl171	Cl	1.921530	-0.411553	0.063017
