data_functionalizedCrystal
_audit_creation_method	'MofGen! by Chris Wilmer'
_symmetry_space_group_name_H-M	'P1'
_symmetry_Int_Tables_number	1
_symmetry_cell_setting	triclinic
loop_
_symmetry_equiv_pos_as_xyz
  x,y,z
_cell_length_a	11.026607
_cell_length_b	9.130313
_cell_length_c	11.026607
_cell_angle_alpha	89.997958
_cell_angle_beta	108.586017
_cell_angle_gamma	90.003345
loop_
_atom_site_label
_atom_site_type_symbol
_atom_site_fract_x
_atom_site_fract_y
_atom_site_fract_z
O1	O	1.726730	0.121796	0.533614
O2	O	1.360150	0.121798	0.472851
O3	O	1.513058	0.121792	0.319943
O4	O	1.573822	0.121802	0.686523
O5	O	1.513047	-0.121807	0.319951
O6	O	1.360139	-0.121801	0.472859
O7	O	1.726719	-0.121803	0.533623
Cu8	Cu	1.543428	-0.144044	0.503242
Cu9	Cu	1.543441	0.144039	0.503232
O10	O	1.573811	-0.121797	0.686531
C11	C	1.312485	-0.000001	0.461645
C12	C	1.170471	-0.000000	0.428228
C13	C	1.116821	0.000003	0.520498
C14	C	0.970043	0.000004	0.485962
N15	N	1.543428	-0.346667	0.503251
C16	C	1.637602	-0.423331	0.597461
C17	C	1.637616	-0.576668	0.597441
C18	C	1.449269	-0.576663	0.408995
C19	C	1.449262	-0.423329	0.409011
C20	C	1.731768	-0.346669	0.691701
C21	C	1.825949	-0.423334	0.785920
C22	C	1.825962	-0.576671	0.785900
C23	C	1.731795	-0.653343	0.691661
C24	C	1.774384	-0.000001	0.544828
C25	C	1.916398	0.000008	0.578245
C26	C	1.501843	-0.000006	0.272287
C27	C	1.468426	-0.000000	0.130273
N28	N	1.543449	0.346662	0.503215
C29	C	1.560695	0.000001	0.076624
C30	C	1.526160	0.000007	-0.070155
C31	C	1.585026	0.000004	0.734187
C32	C	1.618443	0.000008	0.876200
H33	H	0.979125	0.000001	0.682816
O34	O	0.886964	-0.000014	0.347444
H35	H	0.907630	0.099263	0.299334
H36	H	1.723013	0.000118	-0.061072
H37	H	1.902656	-0.639087	0.862610
H38	H	1.731765	-0.221815	0.691730
H39	H	1.363863	0.000010	0.067540
H40	H	1.731823	-0.778200	0.691643
H41	H	1.902622	-0.360897	0.862639
O42	O	1.347696	-0.659349	0.307367
H43	H	1.363515	-0.778852	0.323193
H44	H	1.372576	-0.360907	0.332298
O45	O	1.699208	-0.000002	0.159703
H46	H	1.704597	-0.000014	0.261952
H47	H	1.421590	0.000017	-0.132884
H48	H	1.179555	-0.000002	0.625061
O49	O	1.087392	-0.000004	0.289716
H50	H	0.985143	0.000006	0.284327
