data_functionalizedCrystal
_audit_creation_method	'MofGen! by Chris Wilmer'
_symmetry_space_group_name_H-M	'P1'
_symmetry_Int_Tables_number	1
_symmetry_cell_setting	triclinic
loop_
_symmetry_equiv_pos_as_xyz
  x,y,z
_cell_length_a	6.817900
_cell_length_b	10.943624
_cell_length_c	11.102183
_cell_angle_alpha	91.861827
_cell_angle_beta	108.603876
_cell_angle_gamma	108.838799
loop_
_atom_site_label
_atom_site_type_symbol
_atom_site_fract_x
_atom_site_fract_y
_atom_site_fract_z
V1	V	-4.114272	-0.402549	-0.175805
O2	O	-4.073263	-0.394888	0.008482
O3	O	-4.091019	-0.399794	-0.348625
O4	O	-4.092253	-0.578115	-0.173086
O5	O	-4.072021	-0.215332	-0.168272
V6	V	-4.591222	-0.380157	-0.153764
O7	O	-4.389946	-0.451668	-0.224154
O8	O	-4.765745	-0.331037	-0.105415
O9	O	-4.391268	-0.382912	0.019056
O10	O	-4.749628	-0.387817	-0.338052
O11	O	-4.750870	-0.567373	-0.161297
O12	O	-4.390034	-0.204590	-0.156483
C13	C	-3.941284	-0.393443	-0.390755
C14	C	-4.003735	-0.392360	-0.532038
C15	C	-3.881762	-0.155883	-0.495780
C16	C	-3.850113	-0.037141	-0.544025
C17	C	-3.908799	-0.036131	-0.676773
C18	C	-3.999149	-0.153876	-0.761281
C19	C	-4.030799	-0.272618	-0.713036
C20	C	-3.972098	-0.273615	-0.580283
C21	C	-4.152784	-0.509093	-0.749294
C22	C	-4.094085	-0.510105	-0.616546
C23	C	-4.243134	-0.626838	-0.833803
C24	C	-4.274771	-0.745582	-0.785557
C25	C	-4.216076	-0.746588	-0.652800
C26	C	-4.125735	-0.628847	-0.568301
C27	C	-3.942856	-0.620908	-0.166836
C28	C	-4.006304	-0.764435	-0.165756
C29	C	-3.851184	-0.841582	-0.158485
C30	C	-4.039791	-0.947571	-0.266416
C31	C	-3.930775	-0.914187	-0.055914
C32	C	-4.194121	-0.868547	-0.273788
C33	C	-4.085025	-0.835139	-0.063191
C34	C	-4.273769	-0.941098	-0.171152
C35	C	-4.204346	-0.389259	0.061179
C36	C	-4.121135	-0.390350	0.202461
C37	C	-4.202773	-0.161790	-0.162737
C38	C	-4.118563	-0.018263	-0.163811
H39	H	-3.883032	0.060559	-0.716053
H40	H	-3.833911	-0.156692	-0.387686
N41	N	-4.511227	-0.998400	-0.178264
H42	H	-4.529186	-0.955886	-0.102290
H43	H	-4.610759	-0.982176	-0.260589
N44	N	-3.784142	-0.941626	0.066069
H45	H	-3.829330	-1.039044	0.066309
H46	H	-3.625217	-0.905179	0.070667
N47	N	-3.613870	-0.784021	-0.151589
H48	H	-3.571939	-0.686665	-0.151569
H49	H	-3.514273	-0.801606	-0.070123
H50	H	-4.103401	-0.786157	0.022729
N51	N	-4.250214	-0.874669	-0.600782
H52	H	-4.103417	-0.875988	-0.542121
H53	H	-4.353819	-0.884665	-0.550971
H54	H	-4.046954	-0.153044	-0.869371
N55	N	-3.752668	0.089855	-0.452886
H56	H	-3.850758	0.090338	-0.401395
H57	H	-3.600421	0.099012	-0.392687
N58	N	-4.306457	-0.625757	-0.976982
H59	H	-4.272697	-0.532670	-0.994725
H60	H	-4.219365	-0.667629	-1.011588
H61	H	-4.348346	-0.841441	-0.854373
H62	H	-4.077906	-0.629653	-0.460207
N63	N	-4.015338	-1.012408	-0.380217
H64	H	-3.906476	-1.058814	-0.348838
H65	H	-4.163563	-1.077697	-0.435848
H66	H	-4.304862	-0.848001	-0.365969
