data_functionalizedCrystal
_audit_creation_method	'MofGen! by Chris Wilmer'
_symmetry_space_group_name_H-M	'P1'
_symmetry_Int_Tables_number	1
_symmetry_cell_setting	triclinic
loop_
_symmetry_equiv_pos_as_xyz
  x,y,z
_cell_length_a	19.188930
_cell_length_b	11.792254
_cell_length_c	17.666332
_cell_angle_alpha	90.009288
_cell_angle_beta	90.011603
_cell_angle_gamma	83.671689
loop_
_atom_site_label
_atom_site_type_symbol
_atom_site_fract_x
_atom_site_fract_y
_atom_site_fract_z
O1	O	0.095738	1.505475	0.062957
O2	O	0.595738	2.005475	0.562957
O3	O	0.105591	1.174988	0.062960
O4	O	0.605591	1.674988	0.562960
O5	O	-0.000937	1.349769	0.062943
O6	O	0.499063	1.849769	0.562943
O7	O	0.202266	1.330695	0.062973
O8	O	0.702266	1.830695	0.562973
O9	O	-0.000943	1.349738	-0.062953
O10	O	0.499057	1.849738	0.437047
O11	O	0.105585	1.174958	-0.062937
O12	O	0.605585	1.674958	0.437063
O13	O	0.095732	1.505444	-0.062940
O14	O	0.595732	2.005444	0.437060
Cu15	Cu	0.100658	1.340198	-0.074434
Cu16	Cu	0.600658	1.840198	0.425566
Cu17	Cu	0.100665	1.340234	0.074454
Cu18	Cu	0.600665	1.840234	0.574454
O19	O	0.202260	1.330664	-0.062924
O20	O	0.702260	1.830664	0.437076
C21	C	0.104968	1.132692	0.000011
C22	C	0.604968	1.632692	0.500011
C23	C	0.103110	1.006706	0.000012
C24	C	0.603110	1.506706	0.500012
C25	C	0.101600	0.904392	0.000015
C26	C	0.601600	1.404392	0.500015
C27	C	0.099713	0.776034	0.000015
C28	C	0.599713	1.276034	0.500015
C29	C	-0.026954	1.349136	-0.000007
C30	C	0.473046	1.849136	0.499993
C31	C	-0.104469	1.347282	-0.000014
C32	C	0.395531	1.847282	0.499986
C33	C	-0.148809	1.449837	-0.000018
C34	C	0.351191	1.949837	0.499982
C35	C	-0.221643	1.448095	-0.000006
C36	C	0.278357	1.948095	0.499994
C37	C	-0.250134	1.343792	-0.000005
C38	C	0.249866	1.843792	0.499995
C39	C	-0.205784	1.241223	0.000004
C40	C	0.294216	1.741223	0.500004
C41	C	-0.132951	1.242968	-0.000000
C42	C	0.367049	1.742968	0.500000
N43	N	-0.358594	1.264054	-0.042849
N44	N	0.141406	1.764054	0.457151
N45	N	-0.427782	1.262403	-0.042846
N46	N	0.072218	1.762403	0.457154
C47	C	-0.469572	1.338528	0.000011
C48	C	0.030428	1.838528	0.500011
N49	N	-0.439561	1.416383	0.042856
N50	N	0.060439	1.916383	0.542856
N51	N	-0.370367	1.418037	0.042849
N52	N	0.129633	1.918037	0.542849
C53	C	-0.329107	1.341888	0.000001
C54	C	0.170893	1.841888	0.500001
C55	C	-0.592887	1.439202	0.000021
C56	C	-0.092887	1.939202	0.500021
C57	C	-0.665722	1.437455	0.000037
C58	C	-0.165722	1.937455	0.500037
C59	C	-0.649861	1.230580	0.000040
C60	C	-0.149861	1.730580	0.500040
C61	C	-0.577028	1.232330	0.000031
C62	C	-0.077028	1.732330	0.500031
C63	C	-0.548546	1.336643	0.000017
C64	C	-0.048546	1.836643	0.500017
C65	C	0.228278	1.331297	0.000029
C66	C	0.728278	1.831297	0.500029
C67	C	0.305793	1.333151	0.000040
C68	C	0.805793	1.833151	0.500040
C69	C	0.096356	1.547741	0.000010
C70	C	0.596356	2.047741	0.500010
C71	C	0.098214	1.673726	0.000015
C72	C	0.598214	2.173726	0.500015
N73	N	0.100653	1.340181	-0.179153
N74	N	0.600653	1.840181	0.320847
C75	C	0.053506	1.417599	-0.218770
C76	C	0.553506	1.917599	0.281230
C77	C	0.053502	1.417606	-0.298018
C78	C	0.553502	1.917606	0.201982
C79	C	0.100658	1.340205	-0.337645
C80	C	0.600658	1.840205	0.162355
C81	C	0.147809	1.262773	-0.298019
C82	C	0.647809	1.762773	0.201981
C83	C	0.147806	1.262761	-0.218773
C84	C	0.647806	1.762761	0.281227
N85	N	0.162382	1.325452	-0.462055
N86	N	0.662382	1.825452	0.037945
N87	N	0.162382	1.325470	-0.537335
N88	N	0.662382	1.825470	-0.037335
C89	C	0.100668	1.340235	-0.576409
C90	C	0.600668	1.840235	-0.076409
N91	N	0.038952	1.355004	-0.537359
N92	N	0.538952	1.855004	-0.037359
N93	N	0.038952	1.354991	-0.462072
N94	N	0.538952	1.854991	0.037928
C95	C	0.100666	1.340209	-0.423575
C96	C	0.600666	1.840209	0.076425
C97	C	0.053514	1.417664	-0.701956
C98	C	0.553514	1.917664	-0.201956
C99	C	0.053509	1.417663	-0.781205
C100	C	0.553509	1.917663	-0.281205
C101	C	0.147822	1.262836	-0.781204
C102	C	0.647822	1.762836	-0.281204
C103	C	0.147820	1.262832	-0.701957
C104	C	0.647820	1.762832	-0.201957
C105	C	0.100667	1.340252	-0.662337
C106	C	0.600667	1.840252	-0.162337
N107	N	0.100665	1.340261	0.179173
N108	N	0.600665	1.840261	0.679173
H109	H	-0.125624	1.534777	-0.000026
H110	H	0.374376	2.034777	0.499974
C111	C	-0.039698	1.570724	-0.773240
C112	C	0.460302	2.070724	-0.273240
C113	C	0.001683	1.502772	-0.824755
C114	C	0.501683	2.002772	-0.324755
H115	H	-0.071689	1.623273	-0.800129
H116	H	0.428311	2.123273	-0.300129
H117	H	-0.065015	1.523615	-0.742348
H118	H	0.434985	2.023615	-0.242348
H119	H	-0.010453	1.611383	-0.742315
H120	H	0.489547	2.111383	-0.242315
H121	H	-0.027562	1.462106	-0.855676
H122	H	0.472438	1.962106	-0.355676
H123	H	0.027002	1.549887	-0.855660
H124	H	0.527002	2.049887	-0.355660
C125	C	0.189696	1.194060	-0.419499
C126	C	0.689696	1.694060	0.080501
C127	C	0.199646	1.177696	-0.341575
C128	C	0.699646	1.677696	0.158425
H129	H	0.221701	1.141536	-0.446386
H130	H	0.721701	1.641536	0.053614
H131	H	0.143054	1.181970	-0.432498
H132	H	0.643054	1.681970	0.067502
H133	H	0.197597	1.269769	-0.432460
H134	H	0.697597	1.769769	0.067540
H135	H	0.191740	1.101989	-0.328613
H136	H	0.691740	1.601989	0.171387
H137	H	0.246300	1.189777	-0.328570
H138	H	0.746300	1.689777	0.171430
H139	H	-0.540925	1.148818	0.000030
H140	H	-0.040925	1.648818	0.500030
C141	C	-0.722546	1.108626	0.064767
C142	C	-0.222546	1.608626	0.564767
C143	C	-0.681169	1.115926	0.000044
C144	C	-0.181169	1.615926	0.500044
H145	H	-0.741879	1.037843	0.064768
H146	H	-0.241879	1.537843	0.564768
H147	H	-0.694451	1.113615	0.108658
H148	H	-0.194451	1.613615	0.608658
H149	H	-0.759378	1.169462	0.064760
H150	H	-0.259378	1.669462	0.564760
H151	H	-0.644333	1.055095	0.000054
H152	H	-0.144333	1.555095	0.500054
H153	H	-0.709266	1.110926	-0.043858
H154	H	-0.209266	1.610926	0.456142
C155	C	0.241047	1.109808	-0.709919
C156	C	0.741047	1.609808	-0.209919
C157	C	0.199655	1.177743	-0.658405
C158	C	0.699655	1.677743	-0.158405
H159	H	0.273050	1.057279	-0.683030
H160	H	0.773050	1.557279	-0.183030
H161	H	0.211816	1.069136	-0.740840
H162	H	0.711816	1.569136	-0.240840
H163	H	0.266357	1.156939	-0.740815
H164	H	0.766357	1.656939	-0.240815
H165	H	0.174341	1.130612	-0.627512
H166	H	0.674341	1.630612	-0.127512
H167	H	0.228890	1.218418	-0.627471
H168	H	0.728890	1.718418	-0.127471
H169	H	-0.701824	1.520972	0.000038
H170	H	-0.201824	2.020972	0.500038
H171	H	-0.257752	1.531611	-0.000006
H172	H	0.242248	2.031611	0.499994
H173	H	-0.228985	1.156298	0.000007
H174	H	0.271015	1.656298	0.500007
C175	C	-0.041356	1.442865	-0.612783
C176	C	0.458644	1.942865	-0.112783
C177	C	0.001729	1.502791	-0.658367
C178	C	0.501729	2.002791	-0.158367
H179	H	-0.073307	1.495433	-0.585862
H180	H	0.426693	1.995433	-0.085862
H181	H	-0.066717	1.395812	-0.643690
H182	H	0.433283	1.895812	-0.143690
H183	H	-0.013261	1.396722	-0.577872
H184	H	0.486739	1.896722	-0.077872
H185	H	-0.026366	1.548928	-0.693282
H186	H	0.473634	2.048928	-0.193282
H187	H	0.027092	1.549864	-0.627457
H188	H	0.527092	2.049864	-0.127457
H189	H	-0.096849	1.159452	0.000003
H190	H	0.403151	1.659452	0.500003
C191	C	-0.615878	1.643512	0.000037
C192	C	-0.115878	2.143512	0.500037
C193	C	-0.561574	1.553860	0.000024
C194	C	-0.061574	2.053860	0.500024
H195	H	-0.596546	1.714296	0.000047
H196	H	-0.096546	2.214296	0.500047
H197	H	-0.643964	1.638528	-0.043862
H198	H	-0.143964	2.138528	0.456138
H199	H	-0.643946	1.638521	0.043945
H200	H	-0.143946	2.138521	0.543945
H201	H	-0.533509	1.558846	-0.043886
H202	H	-0.033509	2.058846	0.456114
H203	H	-0.533476	1.558846	0.043928
H204	H	-0.033476	2.058846	0.543928
H205	H	0.015109	1.480636	-0.186514
H206	H	0.515109	1.980636	0.313486
H207	H	0.015108	1.480650	-0.330280
H208	H	0.515108	1.980650	0.169720
H209	H	0.186215	1.199811	-0.813469
H210	H	0.686215	1.699811	-0.313469
C211	C	0.241031	1.109726	-0.226734
C212	C	0.741031	1.609726	0.273266
C213	C	0.199640	1.177665	-0.175221
C214	C	0.699640	1.677665	0.324779
H215	H	0.273034	1.057198	-0.199844
H216	H	0.773034	1.557198	0.300156
H217	H	0.211798	1.069052	-0.257653
H218	H	0.711798	1.569052	0.242347
H219	H	0.266341	1.156853	-0.257633
H220	H	0.766341	1.656853	0.242367
H221	H	0.174326	1.130538	-0.144326
H222	H	0.674326	1.630538	0.355674
H223	H	0.228876	1.218342	-0.144290
H224	H	0.728876	1.718342	0.355710
