data_functionalizedCrystal
_audit_creation_method	'MofGen! by Chris Wilmer'
_symmetry_space_group_name_H-M	'P1'
_symmetry_Int_Tables_number	1
_symmetry_cell_setting	triclinic
loop_
_symmetry_equiv_pos_as_xyz
  x,y,z
_cell_length_a	19.121063
_cell_length_b	18.101398
_cell_length_c	18.101390
_cell_angle_alpha	90.008947
_cell_angle_beta	92.404924
_cell_angle_gamma	87.536641
loop_
_atom_site_label
_atom_site_type_symbol
_atom_site_fract_x
_atom_site_fract_y
_atom_site_fract_z
Zn1	Zn	-0.279683	-1.119561	-0.431092
Zn2	Zn	-0.397147	-1.114180	-0.312528
Zn3	Zn	-0.279704	-0.995718	-0.307288
Zn4	Zn	-0.397086	-0.990397	-0.436348
O5	O	-0.338405	-1.054964	-0.371814
O6	O	-0.295281	-1.222479	-0.415358
O7	O	-0.381602	-1.098440	-0.208201
O8	O	-0.181417	-1.016625	-0.319319
O9	O	-0.381581	-1.218526	-0.328249
O10	O	-0.181402	-1.107612	-0.410277
O11	O	-0.295318	-1.011407	-0.204352
O12	O	-0.295259	-0.891380	-0.324415
O13	O	-0.381478	-1.007556	-0.539282
O14	O	-0.381499	-0.887471	-0.419234
O15	O	-0.295222	-1.102452	-0.535421
O16	O	-0.495423	-1.093281	-0.333345
O17	O	-0.495378	-1.002338	-0.424315
C18	C	-0.338375	-0.862555	-0.371827
C19	C	-0.338379	-0.780240	-0.371851
C20	C	-0.338417	-0.481148	-0.371827
C21	C	-0.392939	-0.510026	-0.431214
C22	C	-0.392770	-0.595652	-0.431439
C23	C	-0.338399	-0.629531	-0.371839
C24	C	-0.264420	-0.601800	-0.389844
C25	C	-0.264747	-0.516140	-0.390265
C26	C	-0.357220	-0.511850	-0.294269
C27	C	-0.358845	-0.597427	-0.294759
C28	C	-0.338384	-0.713391	-0.371844
C29	C	-0.338426	-0.397288	-0.371824
C30	C	-0.520884	-1.046668	-0.379985
C31	C	-0.598950	-1.043187	-0.383505
C32	C	-0.635625	-1.088937	-0.337835
C33	C	-0.708976	-1.085668	-0.341150
C34	C	-0.745650	-1.036644	-0.390132
C35	C	-0.708969	-0.990891	-0.435807
C36	C	-0.635620	-0.994165	-0.432495
C37	C	-0.967118	-1.024391	-0.402502
C38	C	-1.040472	-1.021119	-0.405809
C39	C	-1.040473	-1.115897	-0.311153
C40	C	-0.967123	-1.119163	-0.307842
C41	C	-0.930449	-1.073414	-0.353520
C42	C	-0.820626	-1.033299	-0.393520
C43	C	-0.855474	-1.076763	-0.350135
C44	C	-0.155213	-1.063312	-0.363628
C45	C	-0.077148	-1.066870	-0.360139
C46	C	-0.338341	-1.055011	-0.564973
C47	C	-0.338313	-1.055031	-0.647286
C48	C	-0.338432	-0.248124	-0.371806
C49	C	-0.338436	-0.330438	-0.371816
C50	C	-0.338270	-1.055073	-0.946375
C51	C	-0.284191	-1.114959	-0.912629
C52	C	-0.283990	-1.114789	-0.827002
C53	C	-0.338291	-1.055053	-0.797994
C54	C	-0.318176	-0.977939	-0.828178
C55	C	-0.317770	-0.978302	-0.913805
C56	C	-0.412603	-1.071606	-0.918123
C57	C	-0.412224	-1.073336	-0.832456
C58	C	-0.338305	-1.055036	-0.714135
C59	C	-0.338254	-1.055084	-1.030234
C60	C	-0.338418	-1.054962	-0.179404
C61	C	-0.338248	-1.055094	-0.097083
H62	H	-0.248799	-0.496896	-0.446865
H63	H	-0.229431	-1.104431	-0.931709
Br64	Br	-0.449584	-0.627176	-0.272028
Br65	Br	-1.090249	-1.177986	-0.249169
Br66	Br	-0.758741	-0.924364	-0.502290
H67	H	-0.605760	-0.956911	-0.469685
Br68	Br	-0.479761	-0.998837	-0.954889
H69	H	-0.355445	-0.932343	-0.936213
Br70	Br	-0.484212	-0.626542	-0.413300
Br71	Br	-0.297461	-0.635845	-0.217492
H72	H	-0.228923	-1.104108	-0.804058
H73	H	-0.380328	-0.616714	-0.488970
H74	H	-0.222667	-0.497308	-0.348806
H75	H	-0.447977	-0.486939	-0.420469
Br76	Br	-0.372485	-0.475075	-0.526557
H77	H	-0.222696	-0.624038	-0.347792
H78	H	-0.850494	-0.993382	-0.433400
Br79	Br	-0.237356	-0.638788	-0.483119
H80	H	-0.263433	-0.963895	-0.931358
H81	H	-0.296588	-1.172074	-0.806549
Br82	Br	-1.090245	-0.954569	-0.472277
H83	H	-0.317506	-0.493375	-0.250061
Br84	Br	-0.445586	-0.471843	-0.265925
H85	H	-0.605770	-1.128855	-0.297945
H86	H	-0.296633	-1.172440	-0.933780
H87	H	-0.738833	-1.122922	-0.303960
H88	H	-0.937264	-0.987139	-0.439694
H89	H	-0.937264	-1.159083	-0.267957
H90	H	-0.825611	-1.116682	-0.310257
H91	H	-0.356351	-0.932253	-0.809522
Br92	Br	-0.228613	-0.953371	-0.788437
H93	H	-0.430918	-1.126676	-0.940580
Br94	Br	-0.437506	-1.167897	-0.799732
H95	H	-0.454682	-1.032623	-0.812953
