data_functionalizedCrystal
_audit_creation_method	'MofGen! by Chris Wilmer'
_symmetry_space_group_name_H-M	'P1'
_symmetry_Int_Tables_number	1
_symmetry_cell_setting	triclinic
loop_
_symmetry_equiv_pos_as_xyz
  x,y,z
_cell_length_a	16.974800
_cell_length_b	17.019294
_cell_length_c	15.455313
_cell_angle_alpha	88.788101
_cell_angle_beta	90.973911
_cell_angle_gamma	83.640951
loop_
_atom_site_label
_atom_site_type_symbol
_atom_site_fract_x
_atom_site_fract_y
_atom_site_fract_z
O1	O	1.049320	0.100201	-0.005927
O2	O	0.819917	0.112205	-0.022934
O3	O	0.940610	-0.008208	-0.005460
O4	O	0.928628	0.220613	-0.023401
O5	O	0.933708	-0.001351	0.137805
O6	O	0.813015	0.119062	0.120331
O7	O	1.042418	0.107058	0.137338
Cu8	Cu	0.927087	0.113686	0.141916
Cu9	Cu	0.935249	0.105576	-0.027512
O10	O	0.921726	0.227470	0.119864
C11	C	0.787105	0.115051	0.046680
C12	C	0.699619	0.113307	0.040666
C13	C	0.654761	0.116223	0.115936
C14	C	0.572560	0.114572	0.110289
C15	C	0.535219	0.110010	0.029370
C16	C	0.580084	0.107091	-0.045906
C17	C	0.662284	0.108736	-0.040258
C18	C	0.289781	0.104682	0.004103
C19	C	0.207575	0.103039	-0.001540
C20	C	0.200057	0.110519	0.154656
C21	C	0.282259	0.112169	0.160297
C22	C	0.327117	0.109245	0.085021
N23	N	0.451196	0.108324	0.023596
N24	N	0.411139	0.110925	0.090797
C25	C	0.936568	-0.034065	0.068317
C26	C	0.934800	-0.121328	0.074709
C27	C	0.937733	-0.166057	-0.000382
C28	C	0.936066	-0.248049	0.005626
C29	C	0.931471	-0.285311	0.086725
C30	C	0.928536	-0.240575	0.161821
C31	C	0.930197	-0.158584	0.155812
C32	C	0.926262	-0.532683	0.108774
C33	C	0.924603	-0.614680	0.114778
C34	C	0.932132	-0.622149	-0.041418
C35	C	0.933798	-0.540157	-0.047419
C36	C	0.930858	-0.495427	0.027676
C37	C	0.929770	-0.369120	0.092868
C38	C	0.932553	-0.411619	0.021532
C39	C	1.075230	0.104211	0.067722
C40	C	1.162716	0.105955	0.073730
C41	C	0.925767	0.253328	0.046084
C42	C	0.927536	0.340590	0.039687
N43	N	0.921352	0.119389	0.261082
N44	N	0.940990	0.099867	-0.146678
C45	C	0.972644	0.068253	0.313900
C46	C	0.968314	0.072573	0.404081
C47	C	0.912695	0.128035	0.441442
C48	C	0.861397	0.179173	0.388618
C49	C	0.865724	0.174849	0.298439
C50	C	0.894019	0.146681	0.710319
C51	C	0.889698	0.151003	0.800505
C52	C	0.996614	0.044402	0.815962
C53	C	1.000939	0.040085	0.725780
C54	C	0.949639	0.091221	0.672963
N55	N	0.908269	0.132454	0.533621
N56	N	0.954061	0.086798	0.580786
H57	H	0.163525	0.112898	0.215941
C58	C	0.809304	0.231109	0.240339
N59	N	0.766808	0.273487	0.196579
C60	C	0.523217	0.117799	0.193092
N61	N	0.486051	0.120235	0.255462
C62	C	0.939365	-0.297258	-0.076974
N63	N	0.941876	-0.334324	-0.139191
H64	H	0.816107	0.224329	0.419042
H65	H	0.844404	0.196170	0.830919
H66	H	0.685157	0.119945	0.181829
H67	H	0.936289	-0.381277	-0.044499
C68	C	0.938852	-0.499176	-0.136635
N69	N	0.942661	-0.468309	-0.203833
H70	H	0.177174	0.099326	-0.067438
C71	C	0.323328	0.117184	0.249314
N72	N	0.354262	0.120962	0.316364
H73	H	0.934524	-0.658576	-0.102557
C74	C	1.024721	0.016300	0.462177
N75	N	1.067202	-0.026096	0.505935
C76	C	0.837689	0.203035	0.652232
N77	N	0.795295	0.245520	0.608477
C78	C	0.919546	-0.655665	0.203997
N79	N	0.915738	-0.686536	0.271193
H80	H	0.326295	0.102299	-0.057192
H81	H	0.923884	-0.496276	0.169924
H82	H	0.924790	-0.270919	0.227853
C83	C	0.924716	-0.410115	0.182075
N84	N	0.920906	-0.440996	0.249266
C85	C	1.062120	-0.020931	0.684690
N86	N	1.108203	-0.066888	0.653741
C87	C	1.033829	0.007240	0.272811
N88	N	1.079913	-0.038719	0.241866
C89	C	0.942787	-0.125078	-0.089598
N90	N	0.946590	-0.094214	-0.156799
H91	H	0.927798	-0.122164	0.216958
H92	H	1.038380	0.002768	0.858973
H93	H	0.698807	0.106363	-0.101551
C94	C	0.539005	0.102070	-0.134918
N95	N	0.508066	0.098291	-0.201964
