data_functionalizedCrystal
_audit_creation_method	'MofGen! by Chris Wilmer'
_symmetry_space_group_name_H-M	'P1'
_symmetry_Int_Tables_number	1
_symmetry_cell_setting	triclinic
loop_
_symmetry_equiv_pos_as_xyz
  x,y,z
_cell_length_a	19.188879
_cell_length_b	19.188930
_cell_length_c	7.540329
_cell_angle_alpha	89.983165
_cell_angle_beta	90.013373
_cell_angle_gamma	96.865574
loop_
_atom_site_label
_atom_site_type_symbol
_atom_site_fract_x
_atom_site_fract_y
_atom_site_fract_z
O1	O	-0.087169	0.926128	-0.148090
O2	O	-0.098903	0.722814	-0.147974
O3	O	0.008622	0.830356	-0.147980
O4	O	-0.194694	0.818585	-0.148084
O5	O	0.008623	0.830350	0.146985
O6	O	-0.098902	0.722808	0.146991
O7	O	-0.087167	0.926121	0.146875
Cu8	Cu	-0.093035	0.824464	0.173866
Cu9	Cu	-0.093036	0.824471	-0.174965
O10	O	-0.194693	0.818579	0.146881
C11	C	-0.098523	0.696800	-0.000476
C12	C	-0.097382	0.619296	-0.000428
C13	C	-0.160474	0.574360	-0.000489
C14	C	-0.159403	0.501537	-0.000508
C15	C	-0.095235	0.473652	-0.000502
C16	C	-0.032134	0.518597	-0.000432
C17	C	-0.033208	0.591419	-0.000395
N18	N	-0.046187	0.365683	-0.100938
N19	N	-0.045172	0.296504	-0.100976
C20	C	-0.091997	0.254244	-0.000609
N21	N	-0.139886	0.283774	0.099777
N22	N	-0.140904	0.352958	0.099807
C23	C	-0.094064	0.394689	-0.000541
C24	C	-0.153931	0.130344	-0.000687
C25	C	-0.152857	0.057519	-0.000695
C26	C	-0.025587	0.074581	-0.000637
C27	C	-0.026663	0.147404	-0.000611
C28	C	-0.090837	0.175281	-0.000645
C29	C	-0.220705	0.818957	-0.000617
C30	C	-0.298212	0.820084	-0.000660
C31	C	-0.334593	0.820627	0.160134
C32	C	-0.407416	0.821705	0.160164
C33	C	-0.443853	0.822253	-0.000609
C34	C	-0.407463	0.821706	-0.161424
C35	C	-0.334642	0.820621	-0.161450
N36	N	-0.552873	0.863692	-0.120269
N37	N	-0.622050	0.864724	-0.120234
C38	C	-0.663258	0.825520	-0.000541
N39	N	-0.632675	0.785254	0.119141
N40	N	-0.563492	0.784225	0.119111
C41	C	-0.522815	0.823429	-0.000599
C42	C	-0.778603	0.827231	0.160297
C43	C	-0.851427	0.828304	0.160320
C44	C	-0.851472	0.828312	-0.161273
C45	C	-0.778649	0.827232	-0.161292
C46	C	-0.742218	0.826695	-0.000502
C47	C	0.034634	0.829978	-0.000487
C48	C	0.112141	0.828851	-0.000455
C49	C	-0.087548	0.952135	-0.000628
C50	C	-0.088689	1.029640	-0.000686
N51	N	-0.093033	0.824464	0.419214
N52	N	-0.093032	0.824477	-0.420313
H53	H	0.020112	0.495888	-0.000451
N54	N	-0.226026	0.602832	-0.000460
N55	N	-0.240823	0.641533	0.123902
H56	H	-0.287120	0.661642	0.123932
N57	N	-0.219474	0.158836	-0.000715
N58	N	-0.234274	0.197589	-0.125041
H59	H	-0.280564	0.217711	-0.125062
H60	H	-0.204237	0.020933	-0.000734
N61	N	-0.444689	0.822275	-0.325634
N62	N	-0.478724	0.872089	-0.361516
H63	H	-0.505016	0.872489	-0.477493
H64	H	0.018171	0.628006	-0.000347
N65	N	0.039954	0.046095	-0.000599
N66	N	0.040905	-0.018924	-0.000614
H67	H	0.087195	-0.039047	-0.000575
N68	N	-0.297487	0.820080	-0.325725
N69	N	-0.299040	0.869410	-0.433405
H70	H	-0.272799	0.869030	-0.549430
H71	H	0.024714	0.183992	-0.000572
H72	H	-0.304936	0.820189	0.291062
N73	N	-0.444593	0.822248	0.324416
N74	N	-0.443054	0.772921	0.432110
H75	H	-0.469310	0.773304	0.548113
H76	H	-0.748940	0.826787	0.291221
N77	N	-0.888594	0.828844	0.324578
N78	N	-0.887045	0.779517	0.432269
H79	H	-0.913295	0.779897	0.548280
N80	N	-0.223859	0.455635	-0.000559
N81	N	-0.281150	0.480535	-0.000580
H82	H	-0.326674	0.448119	-0.000616
N83	N	-0.888693	0.828866	-0.325486
N84	N	-0.953711	0.829832	-0.325445
H85	H	-0.980003	0.830221	-0.441425
N86	N	-0.741495	0.826696	-0.325564
N87	N	-0.743048	0.876027	-0.433238
H88	H	-0.716809	0.875649	-0.549267
