data_functionalizedCrystal
_audit_creation_method	'MofGen! by Chris Wilmer'
_symmetry_space_group_name_H-M	'P1'
_symmetry_Int_Tables_number	1
_symmetry_cell_setting	triclinic
loop_
_symmetry_equiv_pos_as_xyz
  x,y,z
_cell_length_a	14.971486
_cell_length_b	16.992695
_cell_length_c	14.048226
_cell_angle_alpha	89.993436
_cell_angle_beta	89.998499
_cell_angle_gamma	87.141176
loop_
_atom_site_label
_atom_site_type_symbol
_atom_site_fract_x
_atom_site_fract_y
_atom_site_fract_z
O1	O	1.194127	0.102190	-0.079052
O2	O	1.527460	0.435523	0.254282
O3	O	1.860794	0.768856	0.587615
O4	O	0.934587	0.114427	-0.079078
O5	O	1.267920	0.447760	0.254256
O6	O	1.601253	0.781094	0.587589
O7	O	1.063316	-0.005835	-0.079057
O8	O	1.396650	0.327498	0.254276
O9	O	1.729983	0.660831	0.587610
O10	O	1.065397	0.222452	-0.079072
O11	O	1.398731	0.555785	0.254261
O12	O	1.732064	0.889119	0.587595
O13	O	1.063299	-0.005842	0.079264
O14	O	1.396633	0.327491	0.412598
O15	O	1.729966	0.660824	0.745931
O16	O	0.934570	0.114420	0.079244
O17	O	1.267903	0.447753	0.412577
O18	O	1.601236	0.781087	0.745910
O19	O	1.194110	0.102183	0.079270
O20	O	1.527443	0.435516	0.412603
O21	O	1.860777	0.768849	0.745936
Zn22	Zn	1.064337	0.108300	0.104394
Zn23	Zn	1.397670	0.441633	0.437727
Zn24	Zn	1.731004	0.774967	0.771060
Zn25	Zn	1.064359	0.108310	-0.104201
Zn26	Zn	1.397693	0.441643	0.229132
Zn27	Zn	1.731026	0.774976	0.562465
O28	O	1.065380	0.222445	0.079249
O29	O	1.398714	0.555778	0.412583
O30	O	1.732047	0.889112	0.745916
C31	C	0.901215	0.113876	0.000080
C32	C	1.234548	0.447210	0.333413
C33	C	1.567882	0.780543	0.666747
C34	C	0.801803	0.112236	0.000070
C35	C	1.135136	0.445570	0.333403
C36	C	1.468469	0.778903	0.666737
C37	C	0.749541	0.182887	0.000067
C38	C	1.082875	0.516220	0.333400
C39	C	1.416208	0.849554	0.666734
C40	C	0.656133	0.181341	0.000081
C41	C	0.989467	0.514675	0.333414
C42	C	1.322800	0.848008	0.666748
C43	C	0.614988	0.109144	0.000092
C44	C	0.948322	0.442477	0.333425
C45	C	1.281655	0.775811	0.666759
C46	C	0.667257	0.038488	0.000098
C47	C	1.000590	0.371821	0.333431
C48	C	1.333923	0.705154	0.666765
C49	C	0.760663	0.040034	0.000091
C50	C	1.093996	0.373368	0.333424
C51	C	1.427330	0.706701	0.666757
C52	C	0.472568	0.035269	0.000111
C53	C	0.805901	0.368603	0.333445
C54	C	1.139235	0.701936	0.666778
C55	C	0.379155	0.033723	0.000117
C56	C	0.712489	0.367056	0.333450
C57	C	1.045822	0.700389	0.666784
C58	C	0.368038	0.176577	0.000102
C59	C	0.701372	0.509910	0.333435
C60	C	1.034705	0.843243	0.666769
C61	C	0.461445	0.178123	0.000094
C62	C	0.794778	0.511456	0.333428
C63	C	1.128111	0.844790	0.666761
C64	C	0.513707	0.107466	0.000099
C65	C	0.847040	0.440800	0.333432
C66	C	1.180373	0.774133	0.666765
C67	C	1.060631	-0.035054	0.000103
C68	C	1.393964	0.298279	0.333437
C69	C	1.727298	0.631613	0.666770
C70	C	1.052644	-0.122105	0.000102
C71	C	1.385977	0.211228	0.333435
C72	C	1.719311	0.544561	0.666769
C73	C	1.129708	-0.172274	0.000111
C74	C	1.463042	0.161060	0.333444
C75	C	1.796375	0.494393	0.666778
C76	C	1.122198	-0.254067	0.000101
C77	C	1.455532	0.079266	0.333434
C78	C	1.788865	0.412599	0.666768
C79	C	1.037623	-0.285691	0.000089
C80	C	1.370956	0.047642	0.333423
C81	C	1.704290	0.380975	0.666756
C82	C	0.960553	-0.235517	0.000078
C83	C	1.293886	0.097817	0.333411
C84	C	1.627220	0.431150	0.666744
C85	C	0.968064	-0.153724	0.000081
C86	C	1.301397	0.179609	0.333414
C87	C	1.634730	0.512942	0.666747
C88	C	1.006493	-0.529318	0.000073
C89	C	1.339827	-0.195985	0.333406
C90	C	1.673160	0.137349	0.666740
C91	C	0.998988	-0.611117	0.000073
C92	C	1.332322	-0.277783	0.333406
C93	C	1.665655	0.055550	0.666740
C94	C	1.160634	-0.629662	0.000094
C95	C	1.493968	-0.296328	0.333428
C96	C	1.827301	0.037005	0.666761
C97	C	1.168138	-0.547867	0.000103
C98	C	1.501471	-0.214534	0.333437
C99	C	1.834805	0.118799	0.666770
C100	C	1.091068	-0.497700	0.000087
C101	C	1.424401	-0.164367	0.333420
C102	C	1.757734	0.168967	0.666753
N103	N	1.029945	-0.369297	0.000082
N104	N	1.363278	-0.035964	0.333416
N105	N	1.696611	0.297369	0.666749
N106	N	1.098747	-0.414095	0.000087
N107	N	1.432080	-0.080762	0.333420
N108	N	1.765414	0.252571	0.666753
C109	C	1.227482	0.102733	0.000110
C110	C	1.560815	0.436067	0.333444
C111	C	1.894148	0.769400	0.666777
C112	C	1.326894	0.104373	0.000114
C113	C	1.660227	0.437707	0.333447
C114	C	1.993561	0.771040	0.666780
C115	C	1.068066	0.251664	0.000087
C116	C	1.401399	0.584997	0.333420
C117	C	1.734732	0.918330	0.666754
C118	C	1.076053	0.338715	0.000082
C119	C	1.409386	0.672049	0.333415
C120	C	1.742719	1.005382	0.666748
N121	N	1.064328	0.108293	0.246754
N122	N	1.397662	0.441627	0.580088
N123	N	1.730995	0.774960	0.913421
N124	N	1.064375	0.108310	-0.246562
N125	N	1.397708	0.441644	0.086771
N126	N	1.731042	0.774977	0.420105
C127	C	1.121350	0.055063	0.296581
C128	C	1.454684	0.388396	0.629915
C129	C	1.788017	0.721730	0.963248
C130	C	1.121356	0.055063	0.396239
C131	C	1.454690	0.388396	0.729572
C132	C	1.788023	0.721729	1.062906
C133	C	1.064344	0.108297	0.446068
C134	C	1.397678	0.441630	0.779401
C135	C	1.731011	0.774963	1.112735
C136	C	1.007316	0.161529	0.396234
C137	C	1.340649	0.494863	0.729567
C138	C	1.673982	0.828196	1.062900
C139	C	1.007306	0.161526	0.296578
C140	C	1.340639	0.494859	0.629911
C141	C	1.673972	0.828192	0.963245
C142	C	1.007342	0.161535	0.603948
C143	C	1.340675	0.494869	0.937281
C144	C	1.674009	0.828202	1.270615
C145	C	1.007353	0.161540	0.703611
C146	C	1.340686	0.494874	1.036944
C147	C	1.674019	0.828207	1.370277
C148	C	1.121393	0.055072	0.703609
C149	C	1.454726	0.388406	1.036943
C150	C	1.788059	0.721739	1.370276
C151	C	1.121383	0.055068	0.603953
C152	C	1.454716	0.388402	0.937287
C153	C	1.788049	0.721735	1.270620
C154	C	1.064355	0.108302	0.554126
C155	C	1.397688	0.441636	0.887460
C156	C	1.731022	0.774969	1.220793
H157	H	0.494942	0.236912	0.000077
H158	H	0.828275	0.570246	0.333410
H159	H	1.161609	0.903579	0.666743
H160	H	0.905310	-0.112878	0.000073
H161	H	1.238643	0.220456	0.333407
H162	H	1.571976	0.553789	0.666740
N163	N	1.205320	-0.308175	0.000118
N164	N	1.538653	0.025159	0.333452
N165	N	1.871987	0.358492	0.666785
H166	H	1.205793	-0.342531	0.058806
H167	H	1.539127	-0.009198	0.392139
H168	H	1.872460	0.324135	0.725473
H169	H	1.205771	-0.342465	-0.058612
H170	H	1.539105	-0.009132	0.274721
H171	H	1.872438	0.324202	0.608054
H172	H	0.943737	-0.488481	0.000060
H173	H	1.277070	-0.155148	0.333393
H174	H	1.610404	0.178186	0.666727
H175	H	0.325482	0.234108	0.000103
H176	H	0.658815	0.567441	0.333436
H177	H	0.992149	0.900774	0.666769
H178	H	0.960871	0.204870	0.256010
H179	H	1.294205	0.538203	0.589343
H180	H	1.627538	0.871537	0.922676
H181	H	1.167780	0.011717	0.256017
H182	H	1.501114	0.345050	0.589351
H183	H	1.834447	0.678384	0.922684
H184	H	0.613586	0.238873	0.000077
H185	H	0.946919	0.572206	0.333411
H186	H	1.280252	0.905539	0.666744
N187	N	0.334774	-0.044145	0.000126
N188	N	0.668107	0.289188	0.333460
N189	N	1.001440	0.622522	0.666793
H190	H	0.382053	-0.088671	0.000134
H191	H	0.715386	0.244662	0.333468
H192	H	1.048720	0.577995	0.666801
H193	H	0.296260	-0.047894	0.058819
H194	H	0.629593	0.285440	0.392153
H195	H	0.962926	0.618773	0.725486
H196	H	0.515117	-0.022267	0.000116
H197	H	0.848451	0.311066	0.333450
H198	H	1.181784	0.644400	0.666783
N199	N	0.907764	-0.645228	0.000059
N200	N	1.241097	-0.311894	0.333392
N201	N	1.574431	0.021439	0.666726
H202	H	0.860079	-0.601036	0.000046
H203	H	1.193413	-0.267703	0.333379
H204	H	1.526746	0.065630	0.666713
H205	H	0.901143	-0.678757	-0.058633
H206	H	1.234476	-0.345424	0.274700
H207	H	1.567809	-0.012090	0.608034
N208	N	1.243756	-0.683769	0.000114
N209	N	1.577089	-0.350436	0.333447
N210	N	1.910423	-0.017103	0.666781
H211	H	1.226169	-0.740383	0.000111
H212	H	1.559502	-0.407050	0.333444
H213	H	1.892835	-0.073717	0.666777
H214	H	1.280370	-0.673516	-0.058573
H215	H	1.613703	-0.340183	0.274760
H216	H	1.947036	-0.006850	0.608094
H217	H	0.633749	-0.020297	0.000120
H218	H	0.967082	0.313037	0.333454
H219	H	1.300416	0.646370	0.666787
H220	H	0.803213	-0.017497	0.000093
H221	H	1.136547	0.315836	0.333426
H222	H	1.469880	0.649170	0.666759
H223	H	0.891690	-0.261271	0.000062
H224	H	1.225023	0.072062	0.333396
H225	H	1.558356	0.405396	0.666729
N226	N	1.182891	-0.002323	0.449982
N227	N	1.516225	0.331011	0.783316
N228	N	1.849558	0.664344	1.116649
H229	H	1.219022	-0.036034	0.403294
H230	H	1.552355	0.297300	0.736628
H231	H	1.885688	0.630633	1.069961
H232	H	1.224568	0.027790	0.491300
H233	H	1.557902	0.361124	0.824633
H234	H	1.891235	0.694457	1.157967
H235	H	1.167811	0.011725	0.563383
H236	H	1.501144	0.345059	0.896716
H237	H	1.834477	0.678392	1.230050
N238	N	0.945848	0.218945	0.757355
N239	N	1.279182	0.552279	1.090688
N240	N	1.612515	0.885612	1.424021
H241	H	0.954512	0.210869	0.828047
H242	H	1.287845	0.544203	1.161380
H243	H	1.621179	0.877536	1.494713
H244	H	0.960139	0.274593	0.739926
H245	H	1.293472	0.607926	1.073259
H246	H	1.626806	0.941260	1.406593
H247	H	1.198578	-0.146533	0.000126
H248	H	1.531912	0.186801	0.333460
H249	H	1.865245	0.520134	0.666793
H250	H	1.167826	0.011728	0.744184
H251	H	1.501159	0.345061	1.077518
H252	H	1.834493	0.678394	1.410851
N253	N	0.945834	0.218954	0.550210
N254	N	1.279167	0.552288	0.883544
N255	N	1.612500	0.885621	1.216877
H256	H	0.982492	0.253721	0.508850
H257	H	1.315825	0.587055	0.842184
H258	H	1.649159	0.920388	1.175517
H259	H	0.904093	0.188875	0.508931
H260	H	1.237427	0.522208	0.842264
H261	H	1.570760	0.855541	1.175597
H262	H	0.960891	0.204871	0.436810
H263	H	1.294224	0.538204	0.770143
H264	H	1.627557	0.871538	1.103477
H265	H	0.783034	0.241679	0.000057
H266	H	1.116368	0.575012	0.333391
H267	H	1.449701	0.908345	0.666724
H268	H	1.237008	-0.522126	0.000113
H269	H	1.570341	-0.188792	0.333446
H270	H	1.903674	0.144541	0.666780
