data_functionalizedCrystal
_audit_creation_method	'MofGen! by Chris Wilmer'
_symmetry_space_group_name_H-M	'P1'
_symmetry_Int_Tables_number	1
_symmetry_cell_setting	triclinic
loop_
_symmetry_equiv_pos_as_xyz
  x,y,z
_cell_length_a	25.639239
_cell_length_b	21.295418
_cell_length_c	21.295412
_cell_angle_alpha	89.964379
_cell_angle_beta	89.970930
_cell_angle_gamma	90.054499
loop_
_atom_site_label
_atom_site_type_symbol
_atom_site_fract_x
_atom_site_fract_y
_atom_site_fract_z
Zn1	Zn	-0.207940	0.962270	-0.356243
Zn2	Zn	0.125393	1.295603	-0.022909
Zn3	Zn	0.458726	1.628936	0.310424
Zn4	Zn	-0.295375	0.962172	-0.250972
Zn5	Zn	0.037958	1.295505	0.082361
Zn6	Zn	0.371292	1.628839	0.415695
Zn7	Zn	-0.207980	0.857008	-0.250953
Zn8	Zn	0.125354	1.190341	0.082381
Zn9	Zn	0.458687	1.523674	0.415714
Zn10	Zn	-0.295371	0.856947	-0.356169
Zn11	Zn	0.037963	1.190281	-0.022835
Zn12	Zn	0.371296	1.523614	0.310498
O13	O	-0.251666	0.909599	-0.303584
O14	O	0.081667	1.242932	0.029749
O15	O	0.415000	1.576266	0.363083
O16	O	-0.219524	1.050346	-0.342318
O17	O	0.113809	1.383679	-0.008984
O18	O	0.447142	1.717013	0.324349
O19	O	-0.283800	0.948206	-0.162880
O20	O	0.049533	1.281539	0.170453
O21	O	0.382867	1.614873	0.503787
O22	O	-0.134809	0.871037	-0.264943
O23	O	0.198524	1.204370	0.068391
O24	O	0.531858	1.537704	0.401724
O25	O	-0.283762	1.050274	-0.264976
O26	O	0.049571	1.383608	0.068358
O27	O	0.382905	1.716941	0.401691
O28	O	-0.134780	0.948373	-0.342299
O29	O	0.198553	1.281706	-0.008965
O30	O	0.531886	1.615039	0.324368
O31	O	-0.219591	0.870942	-0.162866
O32	O	0.113743	1.204276	0.170468
O33	O	0.447076	1.537609	0.503801
O34	O	-0.219587	0.768910	-0.264871
O35	O	0.113747	1.102244	0.068463
O36	O	0.447080	1.435577	0.401796
O37	O	-0.283755	0.870934	-0.444268
O38	O	0.049578	1.204267	-0.110934
O39	O	0.382912	1.537601	0.222399
O40	O	-0.283793	0.768866	-0.342172
O41	O	0.049541	1.102199	-0.008839
O42	O	0.382874	1.435532	0.324494
O43	O	-0.219520	0.948314	-0.444322
O44	O	0.113813	1.281647	-0.110989
O45	O	0.447147	1.614981	0.222344
O46	O	-0.368540	0.948147	-0.264904
O47	O	-0.035206	1.281481	0.068430
O48	O	0.298127	1.614814	0.401763
O49	O	-0.368537	0.870839	-0.342191
O50	O	-0.035203	1.204173	-0.008858
O51	O	0.298130	1.537506	0.324476
C52	C	-0.251694	0.746047	-0.303512
C53	C	0.081639	1.079381	0.029822
C54	C	0.414973	1.412714	0.363155
C55	C	-0.251718	0.676079	-0.303495
C56	C	0.081615	1.009413	0.029838
C57	C	0.414948	1.342746	0.363171
C58	C	-0.285195	0.643206	-0.343686
C59	C	0.048139	0.976539	-0.010353
C60	C	0.381472	1.309873	0.322980
C61	C	-0.285182	0.577463	-0.343715
C62	C	0.048152	0.910797	-0.010381
C63	C	0.381485	1.244130	0.322952
C64	C	-0.251698	0.544597	-0.303541
C65	C	0.081635	0.877930	0.029793
C66	C	0.414969	1.211263	0.363126
C67	C	-0.218215	0.577478	-0.263347
C68	C	0.115118	0.910811	0.069986
C69	C	0.448451	1.244145	0.403320
C70	C	-0.218225	0.643219	-0.263325
C71	C	0.115108	0.976553	0.070009
C72	C	0.448441	1.309886	0.403342
N73	N	-0.247613	0.441329	-0.248483
N74	N	0.085720	0.774663	0.084850
N75	N	0.419053	1.107996	0.418184
N76	N	-0.247607	0.378878	-0.248506
N77	N	0.085727	0.712211	0.084827
N78	N	0.419060	1.045545	0.418160
C79	C	-0.251665	0.346522	-0.303608
C80	C	0.081669	0.679856	0.029726
C81	C	0.415002	1.013189	0.363059
N82	N	-0.255740	0.378977	-0.358686
N83	N	0.077594	0.712310	-0.025353
N84	N	0.410927	1.045644	0.307981
N85	N	-0.255749	0.441434	-0.358662
N86	N	0.077584	0.774768	-0.025328
N87	N	0.410918	1.108101	0.308005
C88	C	-0.251683	0.473311	-0.303561
C89	C	0.081650	0.806645	0.029772
C90	C	0.414984	1.139978	0.363106
C91	C	-0.285129	0.242363	-0.343832
C92	C	0.048204	0.575697	-0.010499
C93	C	0.381538	0.909030	0.322834
C94	C	-0.285112	0.176620	-0.343862
C95	C	0.048221	0.509953	-0.010528
C96	C	0.381554	0.843286	0.322805
C97	C	-0.218148	0.176636	-0.263489
C98	C	0.115185	0.509969	0.069845
C99	C	0.448518	0.843302	0.403178
C100	C	-0.218162	0.242378	-0.263465
C101	C	0.115171	0.575711	0.069868
C102	C	0.448504	0.909045	0.403202
C103	C	-0.251655	0.275238	-0.303636
C104	C	0.081678	0.608571	0.029697
C105	C	0.415011	0.941905	0.363031
C106	C	-0.387509	0.909493	-0.303555
C107	C	-0.054176	1.242827	0.029778
C108	C	0.279158	1.576160	0.363111
C109	C	-0.445623	0.909506	-0.303564
C110	C	-0.112290	1.242839	0.029769
C111	C	0.221044	1.576172	0.363103
C112	C	-0.805975	0.949958	-0.263409
C113	C	-0.472642	1.283292	0.069924
C114	C	-0.139308	1.616625	0.403258
C115	C	-0.860579	0.949983	-0.263418
C116	C	-0.527246	1.283316	0.069916
C117	C	-0.193913	1.616650	0.403249
O118	O	-0.888807	0.984268	-0.229245
O119	O	-0.555473	1.317601	0.104088
O120	O	-0.222140	1.650934	0.437422
N121	N	-0.887905	0.909710	-0.303626
N122	N	-0.554572	1.243043	0.029708
N123	N	-0.221239	1.576376	0.363041
C124	C	-0.860624	0.869414	-0.343833
C125	C	-0.527291	1.202747	-0.010499
C126	C	-0.193958	1.536081	0.322834
O127	O	-0.888881	0.835161	-0.378034
O128	O	-0.555548	1.168495	-0.044701
O129	O	-0.222215	1.501828	0.288633
C130	C	-0.806021	0.869393	-0.343827
C131	C	-0.472688	1.202727	-0.010494
C132	C	-0.139354	1.536060	0.322840
C133	C	-0.778698	0.909665	-0.303612
C134	C	-0.445365	1.242998	0.029722
C135	C	-0.112031	1.576331	0.363055
C136	C	-0.778652	0.990227	-0.223198
C137	C	-0.445318	1.323560	0.110136
C138	C	-0.111985	1.656894	0.443469
C139	C	-0.724051	0.990202	-0.223188
C140	C	-0.390718	1.323535	0.110145
C141	C	-0.057385	1.656868	0.443478
C142	C	-0.696774	0.949908	-0.263391
C143	C	-0.363441	1.283241	0.069942
C144	C	-0.030107	1.616574	0.403276
C145	C	-0.724097	0.909639	-0.303603
C146	C	-0.390764	1.242973	0.029731
C147	C	-0.057431	1.576306	0.363064
C148	C	-0.778741	0.829101	-0.384037
C149	C	-0.445408	1.162435	-0.050703
C150	C	-0.112074	1.495768	0.282630
C151	C	-0.724134	0.829084	-0.384028
C152	C	-0.390801	1.162418	-0.050694
C153	C	-0.057467	1.495751	0.282639
C154	C	-0.696811	0.869356	-0.343812
C155	C	-0.363477	1.202689	-0.010479
C156	C	-0.030144	1.536022	0.322854
C157	C	-0.642220	0.869320	-0.343796
C158	C	-0.308886	1.202653	-0.010463
C159	C	0.024447	1.535987	0.322871
N160	N	-0.614893	0.909593	-0.303588
N161	N	-0.281560	1.242926	0.029746
N162	N	0.051773	1.576260	0.363079
C163	C	-0.642171	0.949887	-0.263385
C164	C	-0.308837	1.283220	0.069948
C165	C	0.024496	1.616554	0.403281
C166	C	-0.975295	0.869462	-0.343842
C167	C	-0.641962	1.202795	-0.010509
C168	C	-0.308628	1.536128	0.322824
C169	C	-1.029897	0.869479	-0.343845
C170	C	-0.696564	1.202812	-0.010512
C171	C	-0.363231	1.536145	0.322821
C172	C	-1.029849	0.950048	-0.263431
C173	C	-0.696515	1.283382	0.069902
C174	C	-0.363182	1.616715	0.403236
C175	C	-0.975245	0.950028	-0.263425
C176	C	-0.641912	1.283361	0.069908
C177	C	-0.308579	1.616694	0.403241
C178	C	-0.947969	0.909735	-0.303634
C179	C	-0.614636	1.243068	0.029699
C180	C	-0.281302	1.576401	0.363032
C181	C	-0.527506	0.949830	-0.263369
C182	C	-0.194172	1.283164	0.069965
C183	C	0.139161	1.616497	0.403298
C184	C	-0.472900	0.949799	-0.263361
C185	C	-0.139567	1.283133	0.069972
C186	C	0.193766	1.616466	0.403305
C187	C	-0.472954	0.869232	-0.343778
C188	C	-0.139621	1.202566	-0.010445
C189	C	0.193713	1.535899	0.322889
C190	C	-0.527554	0.869260	-0.343783
C191	C	-0.194221	1.202594	-0.010450
C192	C	0.139112	1.535927	0.322883
C193	C	-0.554829	0.909565	-0.303577
C194	C	-0.221496	1.242898	0.029757
C195	C	0.111838	1.576231	0.363090
O196	O	-0.613957	0.835055	-0.377953
O197	O	-0.280624	1.168388	-0.044620
O198	O	0.052709	1.501721	0.288714
O199	O	-0.613907	0.984140	-0.229195
O200	O	-0.280574	1.317473	0.104138
O201	O	0.052760	1.650807	0.437471
C202	C	-0.115293	0.909723	-0.303627
C203	C	0.218040	1.243056	0.029707
C204	C	0.551373	1.576389	0.363040
C205	C	-0.057179	0.909775	-0.303645
C206	C	0.276154	1.243108	0.029688
C207	C	0.609487	1.576442	0.363022
C208	C	-0.251633	0.909628	-0.467774
C209	C	0.081701	1.242961	-0.134441
C210	C	0.415034	1.576295	0.198892
C211	C	-0.251618	0.909640	-0.537742
C212	C	0.081715	1.242974	-0.204409
C213	C	0.415048	1.576307	0.128924
C214	C	-0.251639	1.073789	-0.303657
C215	C	0.081694	1.407123	0.029676
C216	C	0.415027	1.740456	0.363010
C217	C	-0.251628	1.143758	-0.303688
C218	C	0.081706	1.477091	0.029645
C219	C	0.415039	1.810424	0.362978
C220	C	-0.218088	0.949992	-1.037230
C221	C	0.115245	1.283325	-0.703897
C222	C	0.448578	1.616659	-0.370563
C223	C	-0.218101	0.949987	-0.971488
C224	C	0.115232	1.283320	-0.638154
C225	C	0.448566	1.616654	-0.304821
C226	C	-0.251549	0.909695	-0.938582
C227	C	0.081784	1.243028	-0.605249
C228	C	0.415117	1.576362	-0.271916
C229	C	-0.284997	0.869416	-0.971425
C230	C	0.048337	1.202750	-0.638091
C231	C	0.381670	1.536083	-0.304758
C232	C	-0.284987	0.869427	-1.037166
C233	C	0.048347	1.202760	-0.703833
C234	C	0.381680	1.536094	-0.370499
N235	N	-0.255585	0.854573	-0.835335
N236	N	0.077748	1.187906	-0.502002
N237	N	0.411082	1.521240	-0.168669
N238	N	-0.255591	0.854565	-0.772884
N239	N	0.077742	1.187898	-0.439550
N240	N	0.411075	1.521231	-0.106217
C241	C	-0.251582	0.909662	-0.740507
C242	C	0.081751	1.242995	-0.407174
C243	C	0.415085	1.576329	-0.073841
N244	N	-0.247556	0.964769	-0.772942
N245	N	0.085778	1.298102	-0.439608
N246	N	0.419111	1.631436	-0.106275
N247	N	-0.247547	0.964776	-0.835399
N248	N	0.085787	1.298110	-0.502066
N249	N	0.419120	1.631443	-0.168732
C250	C	-0.251564	0.909680	-0.867297
C251	C	0.081769	1.243013	-0.533963
C252	C	0.415103	1.576346	-0.200630
C253	C	-0.218153	0.949936	-0.636387
C254	C	0.115180	1.283269	-0.303054
C255	C	0.448514	1.616603	0.030280
C256	C	-0.218169	0.949932	-0.570643
C257	C	0.115164	1.283265	-0.237310
C258	C	0.448497	1.616599	0.096023
C259	C	-0.285062	0.869356	-0.570582
C260	C	0.048271	1.202689	-0.237248
C261	C	0.381605	1.536023	0.096085
C262	C	-0.285048	0.869365	-0.636324
C263	C	0.048285	1.202699	-0.302991
C264	C	0.381618	1.536032	0.030342
C265	C	-0.251591	0.909654	-0.669223
C266	C	0.081742	1.242988	-0.335890
C267	C	0.415076	1.576321	-0.002556
C268	C	-0.251662	0.909606	-0.140032
C269	C	0.081671	1.242940	0.193301
C270	C	0.415004	1.576273	0.526634
C271	C	-0.251529	0.909716	-0.070065
C272	C	0.081804	1.243049	0.263269
C273	C	0.415137	1.576383	0.596602
H274	H	-0.312398	0.269119	-0.376545
H275	H	0.020935	0.602453	-0.043212
H276	H	0.354269	0.935786	0.290121
H277	H	-0.190910	0.982741	-0.663175
H278	H	0.142424	1.316075	-0.329841
H279	H	0.475757	1.649408	0.003492
N280	N	-1.057716	0.991204	-0.222358
N281	N	-0.724383	1.324537	0.110976
N282	N	-0.391050	1.657871	0.444309
N283	N	-1.088231	0.969093	-0.182222
N284	N	-0.754897	1.302426	0.151111
N285	N	-0.421564	1.635760	0.484444
H286	H	-1.107914	0.998156	-0.153215
H287	H	-0.774580	1.331490	0.180119
H288	H	-0.441247	1.664823	0.513452
H289	H	-0.800978	0.796305	-0.416781
H290	H	-0.467645	1.129638	-0.083448
H291	H	-0.134312	1.462972	0.249885
N292	N	-0.319196	0.828217	-0.669878
N293	N	0.014138	1.161550	-0.336544
N294	N	0.347471	1.494883	-0.003211
N295	N	-0.319180	0.828229	-0.728574
N296	N	0.014153	1.161562	-0.395241
N297	N	0.347486	1.494896	-0.061908
H298	H	-0.343298	0.799166	-0.752273
H299	H	-0.009965	1.132500	-0.418939
H300	H	0.323368	1.465833	-0.085606
H301	H	-0.312231	0.836611	-0.944629
H302	H	0.021102	1.169945	-0.611296
H303	H	0.354435	1.503278	-0.277962
H304	H	-0.190868	0.982784	-0.944748
H305	H	0.142466	1.316118	-0.611415
H306	H	0.475799	1.649451	-0.278082
H307	H	-0.701928	0.796274	-0.416773
H308	H	-0.368595	1.129607	-0.083440
H309	H	-0.035262	1.462940	0.249894
H310	H	-1.052139	0.836680	-0.376587
H311	H	-0.718806	1.170013	-0.043254
H312	H	-0.385473	1.503346	0.290080
N313	N	-0.184006	0.543919	-0.222310
N314	N	0.149328	0.877252	0.111023
N315	N	0.482661	1.210585	0.444356
N316	N	-0.135766	0.551332	-0.226591
N317	N	0.197567	0.884665	0.106742
N318	N	0.530900	1.217999	0.440076
H319	H	-0.111602	0.527632	-0.197609
H320	H	0.221731	0.860965	0.135724
H321	H	0.555065	1.194299	0.469057
H322	H	-0.190963	0.669984	-0.230596
H323	H	0.142370	1.003318	0.102737
H324	H	0.475703	1.336651	0.436071
H325	H	-0.312219	0.836628	-1.063900
H326	H	0.021114	1.169962	-0.730566
H327	H	0.354447	1.503295	-0.397233
H328	H	-0.312298	0.836552	-0.543791
H329	H	0.021035	1.169885	-0.210458
H330	H	0.354369	1.503218	0.122876
H331	H	-0.549802	0.836470	-0.376532
H332	H	-0.216469	1.169804	-0.043199
H333	H	0.116864	1.503137	0.290135
N334	N	-0.444994	0.990929	-0.222270
N335	N	-0.111660	1.324263	0.111064
N336	N	0.221673	1.657596	0.444397
N337	N	-0.451134	0.986789	-0.164181
N338	N	-0.117801	1.320122	0.169153
N339	N	0.215533	1.653456	0.502486
H340	H	-0.431427	1.015836	-0.135159
H341	H	-0.098094	1.349169	0.198175
H342	H	0.235239	1.682502	0.531508
N343	N	-0.319308	0.143048	-0.384928
N344	N	0.014025	0.476381	-0.051595
N345	N	0.347359	0.809714	0.281739
N346	N	-0.349206	0.172398	-0.420791
N347	N	-0.015873	0.505731	-0.087457
N348	N	0.317460	0.839065	0.245876
H349	H	-0.373358	0.148688	-0.449795
H350	H	-0.040024	0.482021	-0.116462
H351	H	0.293309	0.815355	0.216871
N352	N	-0.696144	1.031327	-0.182099
N353	N	-0.362811	1.364660	0.151235
N354	N	-0.029478	1.697993	0.484568
N355	N	-0.665729	1.009187	-0.141946
N356	N	-0.332395	1.342521	0.191387
N357	N	0.000938	1.675854	0.524721
H358	H	-0.646024	1.038232	-0.112920
H359	H	-0.312691	1.371565	0.220414
H360	H	0.020642	1.704898	0.553747
N361	N	-0.183971	0.275970	-0.222413
N362	N	0.149363	0.609304	0.110920
N363	N	0.482696	0.942637	0.444254
N364	N	-0.150684	0.312723	-0.244621
N365	N	0.182649	0.646056	0.088712
N366	N	0.515982	0.979390	0.422045
H367	H	-0.126534	0.336449	-0.215628
H368	H	0.206800	0.669782	0.117705
H369	H	0.540133	1.003115	0.451039
N370	N	-0.183942	0.143062	-0.222463
N371	N	0.149391	0.476395	0.110871
N372	N	0.482724	0.809728	0.444204
N373	N	-0.183934	0.084365	-0.222491
N374	N	0.149400	0.417698	0.110842
N375	N	0.482733	0.751031	0.444175
H376	H	-0.159772	0.060650	-0.193518
H377	H	0.173561	0.393983	0.139815
H378	H	0.506894	0.727316	0.473148
H379	H	-0.549706	0.982651	-0.230630
H380	H	-0.216373	1.315984	0.102703
H381	H	0.116960	1.649318	0.436037
H382	H	-0.190939	0.982734	-0.543911
H383	H	0.142394	1.316067	-0.210577
H384	H	0.475728	1.649401	0.122756
H385	H	-0.800855	1.023043	-0.190460
H386	H	-0.467522	1.356376	0.142874
H387	H	-0.134188	1.689709	0.476207
H388	H	-0.312467	0.669957	-0.376398
H389	H	0.020867	1.003290	-0.043064
H390	H	0.354200	1.336623	0.290269
H391	H	-0.312442	0.550693	-0.376445
H392	H	0.020891	0.884026	-0.043112
H393	H	0.354225	1.217359	0.290222
H394	H	-0.953002	0.982820	-0.230679
H395	H	-0.619668	1.316154	0.102655
H396	H	-0.286335	1.649487	0.435988
H397	H	-0.953089	0.836645	-0.376584
H398	H	-0.619756	1.169978	-0.043250
H399	H	-0.286423	1.503312	0.290083
N400	N	-0.183924	0.991150	-1.070844
N401	N	0.149409	1.324483	-0.737511
N402	N	0.482742	1.657816	-0.404177
N403	N	-0.183920	0.991158	-1.129541
N404	N	0.149413	1.324491	-0.796207
N405	N	0.482746	1.657824	-0.462874
H406	H	-0.159793	1.020226	-1.153283
H407	H	0.173541	1.353560	-0.819950
H408	H	0.506874	1.686893	-0.486616
H409	H	-0.450736	0.836423	-0.376509
H410	H	-0.117403	1.169757	-0.043175
H411	H	0.215930	1.503090	0.290158
