data_functionalizedCrystal
_audit_creation_method	'MofGen! by Chris Wilmer'
_symmetry_space_group_name_H-M	'P1'
_symmetry_Int_Tables_number	1
_symmetry_cell_setting	triclinic
loop_
_symmetry_equiv_pos_as_xyz
  x,y,z
_cell_length_a	16.992701
_cell_length_b	12.811415
_cell_length_c	15.455313
_cell_angle_alpha	87.254642
_cell_angle_beta	87.136501
_cell_angle_gamma	87.340280
loop_
_atom_site_label
_atom_site_type_symbol
_atom_site_fract_x
_atom_site_fract_y
_atom_site_fract_z
O1	O	1.045352	0.217283	-0.089226
O2	O	0.817050	0.214855	-0.089035
O3	O	0.936378	0.064470	-0.077202
O4	O	0.926024	0.367669	-0.101059
O5	O	0.929554	0.073032	0.066386
O6	O	0.810226	0.223417	0.054553
O7	O	1.038528	0.225845	0.054362
Cu8	Cu	0.923754	0.225413	0.067568
Cu9	Cu	0.931824	0.215288	-0.102241
O10	O	0.919200	0.376230	0.042529
C11	C	0.784403	0.216009	-0.016995
C12	C	0.697294	0.206680	-0.016262
C13	C	0.207895	0.143993	-0.011332
C14	C	0.289742	0.152768	-0.012017
C15	C	0.321979	0.251570	-0.019796
C16	C	0.272362	0.341604	-0.026880
C17	C	0.190516	0.332829	-0.026189
C18	C	0.565831	0.287938	-0.022655
C19	C	0.647684	0.296707	-0.023348
C20	C	0.665058	0.107870	-0.008484
C21	C	0.583210	0.099103	-0.007798
C22	C	0.533600	0.189137	-0.014878
N23	N	0.405640	0.260541	-0.020499
N24	N	0.449940	0.180166	-0.014169
C25	C	0.932177	0.029776	-0.002343
C26	C	0.929816	-0.086359	0.006790
C27	C	0.932805	-0.313914	-0.132607
C28	C	0.930587	-0.423034	-0.124031
C29	C	0.923155	-0.413719	0.032519
C30	C	0.925373	-0.304600	0.023942
C31	C	0.930200	-0.254702	-0.058624
C32	C	0.932424	-0.145581	-0.067200
C33	C	0.924986	-0.136268	0.089349
C34	C	0.922768	-0.245387	0.097926
C35	C	1.071175	0.224691	-0.017680
C36	C	1.158285	0.234020	-0.018419
C37	C	0.923401	0.410925	-0.032332
C38	C	0.925763	0.527059	-0.041470
N39	N	0.918084	0.232534	0.187004
N40	N	0.937501	0.208158	-0.221676
C41	C	0.968796	0.168672	0.237423
C42	C	0.964515	0.174068	0.327806
C43	C	0.909525	0.243332	0.367768
C44	C	0.858807	0.307197	0.317342
C45	C	0.863084	0.301795	0.226961
C46	C	0.891060	0.266621	0.637517
C47	C	0.886788	0.272021	0.727905
C48	C	0.992496	0.138889	0.738363
C49	C	0.996772	0.133498	0.647979
C50	C	0.946051	0.197359	0.597561
N51	N	0.905149	0.248852	0.460154
N52	N	0.950424	0.191833	0.505177
H53	H	0.525448	0.361251	-0.028424
H54	H	0.918835	-0.286029	0.165149
H55	H	0.849763	0.318621	0.596474
H56	H	0.932705	-0.471241	-0.184276
H57	H	0.919219	-0.454365	0.099740
H58	H	0.705459	0.034570	-0.002718
H59	H	0.673926	0.377168	-0.029670
H60	H	1.041550	0.077097	0.615444
H61	H	0.814028	0.363590	0.349885
H62	H	0.821788	0.353797	0.185910
H63	H	0.298615	0.422051	-0.033208
H64	H	0.922868	-0.088045	0.149592
H65	H	0.556969	0.018648	-0.001464
H66	H	0.181655	0.063538	-0.005004
H67	H	1.013579	0.112274	0.204892
H68	H	0.330132	0.079458	-0.006243
H69	H	1.005809	0.122066	0.368858
H70	H	0.842006	0.328428	0.760437
H71	H	1.033790	0.086896	0.779421
H72	H	0.150123	0.406139	-0.031957
H73	H	0.936742	-0.273287	-0.199836
H74	H	0.936356	-0.104955	-0.134429
