data_functionalizedCrystal
_audit_creation_method	'MofGen! by Chris Wilmer'
_symmetry_space_group_name_H-M	'P1'
_symmetry_Int_Tables_number	1
_symmetry_cell_setting	triclinic
loop_
_symmetry_equiv_pos_as_xyz
  x,y,z
_cell_length_a	14.908571
_cell_length_b	16.625546
_cell_length_c	16.625539
_cell_angle_alpha	89.969603
_cell_angle_beta	86.686754
_cell_angle_gamma	86.718495
loop_
_atom_site_label
_atom_site_type_symbol
_atom_site_fract_x
_atom_site_fract_y
_atom_site_fract_z
Zn1	Zn	1.379213	-0.392241	-0.526897
Zn2	Zn	1.379104	-0.527079	-0.392053
Zn3	Zn	1.228346	-0.384477	-0.384311
Zn4	Zn	1.228313	-0.519241	-0.519081
O5	O	1.303744	-0.455759	-0.455585
O6	O	1.505443	-0.416657	-0.515521
O7	O	1.359074	-0.508193	-0.278192
O8	O	1.248418	-0.272677	-0.403256
O9	O	1.505364	-0.515722	-0.416452
O10	O	1.359259	-0.278382	-0.508013
O11	O	1.248313	-0.403424	-0.272504
O12	O	1.102096	-0.395824	-0.395677
O13	O	1.248361	-0.502364	-0.632952
O14	O	1.102072	-0.494835	-0.494692
O15	O	1.359227	-0.409057	-0.638694
O16	O	1.359042	-0.638868	-0.408873
O17	O	1.248256	-0.633110	-0.502200
C18	C	1.069350	-0.443637	-0.443497
C19	C	0.969076	-0.438470	-0.438344
C20	C	0.780672	-0.532021	-0.531628
C21	C	0.686455	-0.527169	-0.526790
C22	C	0.686423	-0.423910	-0.423834
C23	C	0.780640	-0.428762	-0.428672
C24	C	0.827761	-0.482820	-0.482570
C25	C	0.921980	-0.487676	-0.487404
C26	C	0.921946	-0.384414	-0.384453
C27	C	0.827729	-0.379562	-0.379614
C28	C	1.303658	-0.665246	-0.455547
C29	C	1.303704	-0.754869	-0.455562
C30	C	1.303862	-1.083053	-0.455654
C31	C	1.303815	-0.991742	-0.455631
C32	C	1.303782	-0.918964	-0.455608
C33	C	1.303737	-0.827647	-0.455585
C34	C	1.539053	-0.467930	-0.467722
C35	C	1.639327	-0.473116	-0.472893
C36	C	1.303803	-0.455702	-0.665897
C37	C	1.303828	-0.455678	-0.755520
C38	C	1.303854	-0.245456	-0.455643
C39	C	1.303901	-0.155837	-0.455667
C40	C	1.303869	-0.455590	-1.083698
C41	C	1.303855	-0.455617	-0.992389
C42	C	1.303849	-0.455635	-0.919612
C43	C	1.303834	-0.455660	-0.828297
C44	C	1.303737	-0.455761	-0.246094
C45	C	1.303887	-0.455567	-0.156481
H46	H	0.648119	-0.567232	-0.566739
H47	H	0.819039	-0.576042	-0.575509
H48	H	0.789350	-0.335547	-0.335734
H49	H	0.960345	-0.531694	-0.531289
H50	H	0.648041	-0.379894	-0.379958
C51	C	0.973752	-0.330292	-0.330483
N52	N	1.012773	-0.289531	-0.289832
