data_functionalizedCrystal
_audit_creation_method	'MofGen! by Chris Wilmer'
_symmetry_space_group_name_H-M	'P1'
_symmetry_Int_Tables_number	1
_symmetry_cell_setting	triclinic
loop_
_symmetry_equiv_pos_as_xyz
  x,y,z
_cell_length_a	10.654547
_cell_length_b	10.065918
_cell_length_c	10.908937
_cell_angle_alpha	78.583280
_cell_angle_beta	107.713994
_cell_angle_gamma	99.784158
loop_
_atom_site_label
_atom_site_type_symbol
_atom_site_fract_x
_atom_site_fract_y
_atom_site_fract_z
O1	O	1.641663	0.113513	-0.196915
O2	O	1.272457	0.113510	-0.214062
O3	O	1.506000	0.113508	-0.018994
O4	O	1.408120	0.113516	-0.391983
O5	O	1.480073	-0.113481	0.014756
O6	O	1.246530	-0.113479	-0.180312
O7	O	1.615736	-0.113476	-0.163165
Zn8	Zn	1.427017	-0.149517	-0.166380
Zn9	Zn	1.461177	0.149551	-0.210847
O10	O	1.382193	-0.113474	-0.358233
C11	C	1.212970	0.000015	-0.195928
C12	C	1.074346	0.000014	-0.192158
N13	N	1.403713	-0.353623	-0.136032
C14	C	0.842139	0.247503	-0.221851
C15	C	0.921404	0.371235	-0.242021
C16	C	1.051649	0.371231	-0.245572
C17	C	1.102632	0.247482	-0.228947
C18	C	1.023366	0.123750	-0.208777
C19	C	0.893118	0.123767	-0.205232
C20	C	0.995080	-0.123718	-0.171988
C21	C	0.864831	-0.123717	-0.168446
C22	C	1.046062	-0.247467	-0.155364
C23	C	0.966793	-0.371202	-0.135203
C24	C	0.836540	-0.371193	-0.131654
C25	C	0.785566	-0.247449	-0.148277
C26	C	1.453060	-0.421401	-0.200288
C27	C	1.435138	-0.578568	-0.176919
C28	C	1.675224	0.000022	-0.181300
C29	C	1.813849	0.000032	-0.185071
C30	C	1.502185	0.000015	0.045640
C31	C	1.529427	0.000021	0.187948
N32	N	1.484493	0.353657	-0.241185
C33	C	1.386009	0.000022	-0.422868
C34	C	1.358768	0.000026	-0.565177
C35	C	1.458170	0.000025	0.384924
C36	C	1.430011	0.000022	0.237841
H37	H	0.736082	0.247518	-0.218979
H38	H	1.540016	-0.588021	-0.313501
H39	H	1.152119	-0.247461	-0.158248
H40	H	0.879881	0.471989	-0.255551
H41	H	1.635381	0.000018	0.254113
N42	N	1.021772	-0.504665	-0.117273
H43	H	1.101924	-0.510190	-0.038608
H44	H	1.048361	-0.510093	-0.197300
H45	H	1.116189	0.471985	-0.261994
H46	H	1.252820	0.000015	0.368654
N47	N	1.243123	0.247473	-0.232734
H48	H	1.285606	0.344634	-0.248019
H49	H	1.242116	0.198835	-0.305665
N50	N	1.330176	-0.430868	-0.040240
H51	H	1.376957	-0.406068	0.049156
H52	H	1.327816	-0.532169	-0.037234
N53	N	0.751056	-0.504651	-0.109887
H54	H	0.803423	-0.583032	-0.099002
H55	H	0.670105	-0.510456	-0.187328
N56	N	0.645088	-0.247448	-0.144445
H57	H	0.592517	-0.198862	-0.230125
H58	H	0.646136	-0.198894	-0.071444
N59	N	1.361606	-0.655808	-0.081115
H60	H	1.359229	-0.757135	-0.077998
H61	H	1.267976	-0.630927	-0.109504
N62	N	1.598513	0.000009	0.472561
H63	H	1.598734	0.000007	0.565211
H64	H	1.654957	0.084154	0.442975
N65	N	1.289656	-0.000007	0.150215
H66	H	1.289433	-0.000016	0.057567
H67	H	1.252426	0.084136	0.154770
H68	H	1.508583	-0.363072	-0.272596
