data_functionalizedCrystal
_audit_creation_method	'MofGen! by Chris Wilmer'
_symmetry_space_group_name_H-M	'P1'
_symmetry_Int_Tables_number	1
_symmetry_cell_setting	triclinic
loop_
_symmetry_equiv_pos_as_xyz
  x,y,z
_cell_length_a	12.759400
_cell_length_b	12.759401
_cell_length_c	12.759393
_cell_angle_alpha	90.020938
_cell_angle_beta	90.030490
_cell_angle_gamma	90.016209
loop_
_atom_site_label
_atom_site_type_symbol
_atom_site_fract_x
_atom_site_fract_y
_atom_site_fract_z
Zn1	Zn	-0.418173	1.606266	0.594020
Zn2	Zn	-0.593888	1.606158	0.418340
Zn3	Zn	-0.418229	1.430565	0.418355
Zn4	Zn	-0.593815	1.430557	0.593978
O5	O	-0.506026	1.518387	0.506173
O6	O	-0.441489	1.753273	0.570727
O7	O	-0.570641	1.582823	0.271321
O8	O	-0.271200	1.453921	0.441682
O9	O	-0.570587	1.753193	0.441656
O10	O	-0.271159	1.583008	0.570742
O11	O	-0.441584	1.453816	0.271332
O12	O	-0.441513	1.283543	0.441640
O13	O	-0.570461	1.453908	0.741004
O14	O	-0.570516	1.283537	0.570669
O15	O	-0.441418	1.583000	0.741036
O16	O	-0.740900	1.582815	0.441615
O17	O	-0.740846	1.453802	0.570655
C18	C	-0.506013	1.245419	0.506152
C19	C	-0.506033	1.128643	0.506168
C20	C	-0.573307	1.073805	0.573248
C21	C	-0.573311	0.964081	0.573269
C22	C	-0.438764	0.964042	0.439122
C23	C	-0.438756	1.073764	0.439107
C24	C	-0.778994	1.518324	0.506151
C25	C	-0.895770	1.518394	0.506177
C26	C	-0.950625	1.585645	0.439060
C27	C	-1.060349	1.585710	0.439093
C28	C	-1.060353	1.451262	0.573362
C29	C	-0.950631	1.451204	0.573334
C30	C	-0.895764	1.652835	0.371904
C31	C	-0.950619	1.720091	0.304781
C32	C	-1.060343	1.720156	0.304813
C33	C	-1.115212	1.652964	0.371969
C34	C	-0.231993	1.518478	0.506218
C35	C	-0.115216	1.518517	0.506238
C36	C	-0.505925	1.518465	0.780207
C37	C	-0.505882	1.518499	0.896984
C38	C	-0.506040	1.792420	0.506195
C39	C	-0.506046	1.909197	0.506204
C40	C	-0.506051	1.518369	0.233206
C41	C	-0.505798	1.518539	0.116430
C42	C	-0.438679	1.585722	0.951864
C43	C	-0.438633	1.585740	1.061588
C44	C	-0.573004	1.451308	1.061542
C45	C	-0.573044	1.451285	0.951820
H46	H	-0.383991	0.919346	0.384521
O47	O	-1.119515	1.792691	0.232422
H48	H	-1.062929	1.839393	0.185717
H49	H	-1.204557	1.653031	0.371998
O50	O	-0.645521	1.378773	0.892608
H51	H	-0.598488	1.325335	0.842631
O52	O	-0.366192	1.132907	0.366742
H53	H	-0.312783	1.182923	0.413848
O54	O	-0.777420	1.652746	0.371861
H55	H	-0.748395	1.673913	0.451113
O56	O	-0.645438	1.378818	1.120693
H57	H	-0.727905	1.396793	1.099618
O58	O	-0.366243	1.658213	0.892716
H59	H	-0.312810	1.611203	0.842719
H60	H	-0.628090	0.919437	0.627893
H61	H	-0.905940	1.774803	0.250111
O62	O	-1.119534	1.378792	0.645782
H63	H	-1.062955	1.332022	0.692456
H64	H	-0.905968	1.396442	0.627988
O65	O	-0.366151	1.658241	1.120791
H66	H	-0.384191	1.740690	1.099757
O67	O	-0.645853	1.133001	0.645587
H68	H	-0.692625	1.076431	0.692243
