data_functionalizedCrystal
_audit_creation_method	'MofGen! by Chris Wilmer'
_symmetry_space_group_name_H-M	'P1'
_symmetry_Int_Tables_number	1
_symmetry_cell_setting	triclinic
loop_
_symmetry_equiv_pos_as_xyz
  x,y,z
_cell_length_a	23.532407
_cell_length_b	19.288864
_cell_length_c	18.366186
_cell_angle_alpha	90.022894
_cell_angle_beta	89.989089
_cell_angle_gamma	97.007539
loop_
_atom_site_label
_atom_site_type_symbol
_atom_site_fract_x
_atom_site_fract_y
_atom_site_fract_z
O1	O	0.071045	-0.921134	-0.060790
O2	O	0.321045	-0.671134	0.189210
O3	O	0.571045	-0.421134	0.439210
O4	O	0.821045	-0.171134	0.689210
O5	O	0.080629	-0.718843	-0.060742
O6	O	0.330629	-0.468843	0.189258
O7	O	0.580629	-0.218843	0.439258
O8	O	0.830629	0.031157	0.689258
O9	O	-0.007082	-0.826089	-0.060754
O10	O	0.242918	-0.576089	0.189246
O11	O	0.492918	-0.326089	0.439246
O12	O	0.742918	-0.076089	0.689246
O13	O	0.158756	-0.813889	-0.060778
O14	O	0.408756	-0.563889	0.189222
O15	O	0.658756	-0.313889	0.439222
O16	O	0.908756	-0.063889	0.689222
O17	O	-0.007086	-0.826071	0.060345
O18	O	0.242914	-0.576071	0.310345
O19	O	0.492914	-0.326071	0.560345
O20	O	0.742914	-0.076071	0.810345
O21	O	0.080625	-0.718825	0.060358
O22	O	0.330625	-0.468825	0.310358
O23	O	0.580625	-0.218825	0.560358
O24	O	0.830625	0.031175	0.810358
O25	O	0.071041	-0.921116	0.060309
O26	O	0.321041	-0.671116	0.310309
O27	O	0.571041	-0.421116	0.560309
O28	O	0.821041	-0.171116	0.810309
Zn29	Zn	0.075832	-0.819968	0.079560
Zn30	Zn	0.325832	-0.569968	0.329560
Zn31	Zn	0.575832	-0.319968	0.579560
Zn32	Zn	0.825832	-0.069968	0.829560
Zn33	Zn	0.075838	-0.819991	-0.079993
Zn34	Zn	0.325838	-0.569991	0.170007
Zn35	Zn	0.575838	-0.319991	0.420007
Zn36	Zn	0.825838	-0.069991	0.670007
O37	O	0.158752	-0.813870	0.060321
O38	O	0.408752	-0.563870	0.310321
O39	O	0.658752	-0.313870	0.560321
O40	O	0.908752	-0.063870	0.810321
C41	C	-0.028301	-0.825769	-0.000203
C42	C	0.221699	-0.575769	0.249797
C43	C	0.471699	-0.325769	0.499797
C44	C	0.721699	-0.075769	0.749797
C45	C	-0.091520	-0.824835	-0.000197
C46	C	0.158480	-0.574835	0.249803
C47	C	0.408480	-0.324835	0.499803
C48	C	0.658480	-0.074835	0.749803
C49	C	0.080319	-0.692959	-0.000186
C50	C	0.330319	-0.442959	0.249814
C51	C	0.580319	-0.192959	0.499814
C52	C	0.830319	0.057041	0.749814
C53	C	0.079393	-0.615858	-0.000166
C54	C	0.329393	-0.365858	0.249834
C55	C	0.579393	-0.115858	0.499834
C56	C	0.829393	0.134142	0.749834
C57	C	0.071351	-0.947000	-0.000249
C58	C	0.321351	-0.697000	0.249751
C59	C	0.571351	-0.447000	0.499751
C60	C	0.821351	-0.197000	0.749751
C61	C	0.072277	-1.024101	-0.000273
C62	C	0.322277	-0.774101	0.249727
C63	C	0.572277	-0.524101	0.499727
C64	C	0.822277	-0.274101	0.749727
C65	C	-0.490503	-0.882442	-0.000251
C66	C	-0.240503	-0.632442	0.249749
C67	C	0.009497	-0.382442	0.499749
C68	C	0.259497	-0.132442	0.749749
C69	C	-0.549905	-0.881574	-0.000256
C70	C	-0.299905	-0.631574	0.249744
C71	C	-0.049905	-0.381574	0.499744
C72	C	0.200095	-0.131574	0.749744
O73	O	-0.586539	-0.934976	-0.000296
O74	O	-0.336539	-0.684976	0.249704
O75	O	-0.086539	-0.434976	0.499704
O76	O	0.163461	-0.184976	0.749704
N77	N	-0.572664	-0.817817	-0.000240
N78	N	-0.322664	-0.567817	0.249760
N79	N	-0.072664	-0.317817	0.499760
N80	N	0.177336	-0.067817	0.749760
C81	C	-0.536017	-0.754923	-0.000226
C82	C	-0.286017	-0.504923	0.249774
C83	C	-0.036017	-0.254923	0.499774
C84	C	0.213983	-0.004923	0.749774
O85	O	-0.560829	-0.700613	-0.000214
O86	O	-0.310829	-0.450613	0.249786
O87	O	-0.060829	-0.200613	0.499786
O88	O	0.189171	0.049387	0.749786
C89	C	-0.476616	-0.755792	-0.000226
C90	C	-0.226616	-0.505792	0.249774
C91	C	0.023384	-0.255792	0.499774
C92	C	0.273384	-0.005792	0.749774
C93	C	-0.453861	-0.819553	-0.000235
C94	C	-0.203861	-0.569553	0.249765
C95	C	0.046139	-0.319553	0.499765
C96	C	0.296139	-0.069553	0.749765
C97	C	-0.467748	-0.946198	-0.000260
C98	C	-0.217748	-0.696198	0.249740
C99	C	0.032252	-0.446198	0.499740
C100	C	0.282252	-0.196198	0.749740
C101	C	-0.408350	-0.947065	-0.000253
C102	C	-0.158350	-0.697065	0.249747
C103	C	0.091650	-0.447065	0.499747
C104	C	0.341650	-0.197065	0.749747
C105	C	-0.371707	-0.884177	-0.000237
C106	C	-0.121707	-0.634177	0.249763
C107	C	0.128293	-0.384177	0.499763
C108	C	0.378293	-0.134177	0.749763
C109	C	-0.394463	-0.820420	-0.000228
C110	C	-0.144463	-0.570420	0.249772
C111	C	0.105537	-0.320420	0.499772
C112	C	0.355537	-0.070420	0.749772
C113	C	-0.439970	-0.692899	-0.000217
C114	C	-0.189970	-0.442899	0.249783
C115	C	0.060030	-0.192899	0.499783
C116	C	0.310030	0.057101	0.749783
C117	C	-0.380565	-0.693773	-0.000218
C118	C	-0.130565	-0.443773	0.249782
C119	C	0.119435	-0.193773	0.499782
C120	C	0.369435	0.056227	0.749782
C121	C	-0.357810	-0.757534	-0.000226
C122	C	-0.107810	-0.507534	0.249774
C123	C	0.142190	-0.257534	0.499774
C124	C	0.392190	-0.007534	0.749774
C125	C	-0.298422	-0.758399	-0.000205
C126	C	-0.048422	-0.508399	0.249795
C127	C	0.201578	-0.258399	0.499795
C128	C	0.451578	-0.008399	0.749795
N129	N	-0.275664	-0.822156	-0.000221
N130	N	-0.025664	-0.572156	0.249779
N131	N	0.224336	-0.322156	0.499779
N132	N	0.474336	-0.072156	0.749779
C133	C	-0.312307	-0.885045	-0.000237
C134	C	-0.062307	-0.635045	0.249763
C135	C	0.187693	-0.385045	0.499763
C136	C	0.437693	-0.135045	0.749763
C137	C	-0.660763	-0.753104	-0.000228
C138	C	-0.410763	-0.503104	0.249772
C139	C	-0.160763	-0.253104	0.499772
C140	C	0.089237	-0.003104	0.749772
C141	C	-0.720163	-0.752235	-0.000223
C142	C	-0.470163	-0.502235	0.249777
C143	C	-0.220163	-0.252235	0.499777
C144	C	0.029837	-0.002235	0.749777
C145	C	-0.734047	-0.878886	-0.000254
C146	C	-0.484047	-0.628886	0.249746
C147	C	-0.234047	-0.378886	0.499746
C148	C	0.015953	-0.128886	0.749746
C149	C	-0.674647	-0.879755	-0.000254
C150	C	-0.424647	-0.629755	0.249746
C151	C	-0.174647	-0.379755	0.499746
C152	C	0.075353	-0.129755	0.749746
C153	C	-0.638005	-0.816861	-0.000244
C154	C	-0.388005	-0.566861	0.249756
C155	C	-0.138005	-0.316861	0.499756
C156	C	0.111995	-0.066861	0.749756
C157	C	-0.187566	-0.886862	-0.000222
C158	C	0.062434	-0.636862	0.249778
C159	C	0.312434	-0.386862	0.499778
C160	C	0.562434	-0.136862	0.749778
C161	C	-0.128162	-0.887724	-0.000213
C162	C	0.121838	-0.637724	0.249787
C163	C	0.371838	-0.387724	0.499787
C164	C	0.621838	-0.137724	0.749787
C165	C	-0.114283	-0.761073	-0.000185
C166	C	0.135717	-0.511073	0.249815
C167	C	0.385717	-0.261073	0.499815
C168	C	0.635717	-0.011073	0.749815
C169	C	-0.173681	-0.760211	-0.000191
C170	C	0.076319	-0.510211	0.249809
C171	C	0.326319	-0.260211	0.499809
C172	C	0.576319	-0.010211	0.749809
C173	C	-0.210322	-0.823111	-0.000212
C174	C	0.039678	-0.573111	0.249788
C175	C	0.289678	-0.323111	0.499788
C176	C	0.539678	-0.073111	0.749788
O177	O	-0.261754	-0.705025	-0.000168
O178	O	-0.011754	-0.455025	0.249832
O179	O	0.238246	-0.205025	0.499832
O180	O	0.488246	0.044975	0.749832
O181	O	-0.287486	-0.939346	-0.000259
O182	O	-0.037486	-0.689346	0.249741
O183	O	0.212514	-0.439346	0.499741
O184	O	0.462514	-0.189346	0.749741
C185	C	0.179971	-0.814190	-0.000232
C186	C	0.429971	-0.564190	0.249768
C187	C	0.679971	-0.314190	0.499768
C188	C	0.929971	-0.064190	0.749768
C189	C	0.243190	-0.815124	-0.000242
C190	C	0.493190	-0.565124	0.249758
C191	C	0.743190	-0.315124	0.499758
C192	C	0.993190	-0.065124	0.749758
N193	N	0.075828	-0.819956	0.188452
N194	N	0.325828	-0.569956	0.438452
N195	N	0.575828	-0.319956	0.688452
N196	N	0.825828	-0.069956	0.938452
C197	C	0.130858	-0.571003	-0.000185
C198	C	0.380858	-0.321003	0.249815
C199	C	0.630858	-0.071003	0.499815
C200	C	0.880858	0.178997	0.749815
C201	C	0.129988	-0.498559	-0.000193
C202	C	0.379988	-0.248559	0.249807
C203	C	0.629988	0.001441	0.499807
C204	C	0.879988	0.251441	0.749807
C205	C	0.077651	-0.470973	-0.000197
C206	C	0.327651	-0.220973	0.249803
C207	C	0.577651	0.029027	0.499803
C208	C	0.827651	0.279027	0.749803
C209	C	0.026179	-0.515838	-0.000174
C210	C	0.276179	-0.265838	0.249826
C211	C	0.526179	-0.015838	0.499826
C212	C	0.776179	0.234162	0.749826
C213	C	0.027050	-0.588280	-0.000159
C214	C	0.277050	-0.338280	0.249841
C215	C	0.527050	-0.088280	0.499841
C216	C	0.777050	0.161720	0.749841
C217	C	0.036509	-0.362844	-0.042642
C218	C	0.286509	-0.112844	0.207358
C219	C	0.536509	0.137156	0.457358
C220	C	0.786509	0.387156	0.707358
C221	C	0.035640	-0.290402	-0.042662
C222	C	0.285640	-0.040402	0.207338
C223	C	0.535640	0.209598	0.457338
C224	C	0.785640	0.459598	0.707338
C225	C	0.074961	-0.247535	-0.000240
C226	C	0.324961	0.002465	0.249760
C227	C	0.574961	0.252465	0.499760
C228	C	0.824961	0.502465	0.749760
C229	C	0.115162	-0.277118	0.042191
C230	C	0.365162	-0.027118	0.292191
C231	C	0.615162	0.222882	0.542191
C232	C	0.865162	0.472882	0.792191
C233	C	0.116033	-0.349561	0.042206
C234	C	0.366033	-0.099561	0.292206
C235	C	0.616033	0.150439	0.542206
C236	C	0.866033	0.400439	0.792206
C237	C	0.076700	-0.392422	-0.000213
C238	C	0.326700	-0.142422	0.249787
C239	C	0.576700	0.107578	0.499787
C240	C	0.826700	0.357578	0.749787
C241	C	0.125487	-0.124127	-0.000267
C242	C	0.375487	0.125873	0.249733
C243	C	0.625487	0.375873	0.499733
C244	C	0.875487	0.625873	0.749733
C245	C	0.124615	-0.051682	-0.000270
C246	C	0.374615	0.198318	0.249730
C247	C	0.624615	0.448318	0.499730
C248	C	0.874615	0.698318	0.749730
C249	C	0.020805	-0.068962	-0.000258
C250	C	0.270805	0.181038	0.249742
C251	C	0.520805	0.431038	0.499742
C252	C	0.770805	0.681038	0.749742
C253	C	0.021678	-0.141406	-0.000248
C254	C	0.271678	0.108594	0.249752
C255	C	0.521678	0.358594	0.499752
C256	C	0.771678	0.608594	0.749752
C257	C	0.074021	-0.168984	-0.000255
C258	C	0.324021	0.081016	0.249745
C259	C	0.574021	0.331016	0.499745
C260	C	0.824021	0.581016	0.749745
N261	N	0.075837	-0.820008	-0.188884
N262	N	0.325837	-0.570008	0.061116
N263	N	0.575837	-0.320008	0.311116
N264	N	0.825837	-0.070008	0.561116
C265	C	0.037009	-0.867460	0.226546
C266	C	0.287009	-0.617460	0.476546
C267	C	0.537009	-0.367460	0.726546
C268	C	0.787009	-0.117460	0.976546
C269	C	0.037006	-0.867464	0.302774
C270	C	0.287006	-0.617464	0.552774
C271	C	0.537006	-0.367464	0.802774
C272	C	0.787006	-0.117464	1.052774
C273	C	0.075833	-0.819972	0.340904
C274	C	0.325833	-0.569972	0.590904
C275	C	0.575833	-0.319972	0.840904
C276	C	0.825833	-0.069972	1.090904
C277	C	0.114655	-0.772459	0.302800
C278	C	0.364655	-0.522459	0.552800
C279	C	0.614655	-0.272459	0.802800
C280	C	0.864655	-0.022459	1.052800
C281	C	0.114653	-0.772452	0.226574
C282	C	0.364653	-0.522452	0.476574
C283	C	0.614653	-0.272452	0.726574
C284	C	0.864653	-0.022452	0.976574
C285	C	0.127724	-0.810514	0.461659
C286	C	0.377724	-0.560514	0.711659
C287	C	0.627724	-0.310514	0.961659
C288	C	0.877724	-0.060514	1.211659
C289	C	0.127727	-0.810526	0.537884
C290	C	0.377727	-0.560526	0.787884
C291	C	0.627727	-0.310526	1.037884
C292	C	0.877727	-0.060526	1.287884
C293	C	0.075840	-0.819991	0.576012
C294	C	0.325840	-0.569991	0.826012
C295	C	0.575840	-0.319991	1.076012
C296	C	0.825840	-0.069991	1.326012
C297	C	0.023947	-0.829459	0.537906
C298	C	0.273947	-0.579459	0.787906
C299	C	0.523947	-0.329459	1.037906
C300	C	0.773947	-0.079459	1.287906
C301	C	0.023945	-0.829451	0.461679
C302	C	0.273945	-0.579451	0.711679
C303	C	0.523945	-0.329451	0.961679
C304	C	0.773945	-0.079451	1.211679
C305	C	0.075839	-0.819975	0.423559
C306	C	0.325839	-0.569975	0.673559
C307	C	0.575839	-0.319975	0.923559
C308	C	0.825839	-0.069975	1.173559
C309	C	0.037014	-0.867502	0.696762
C310	C	0.287014	-0.617502	0.946762
C311	C	0.537014	-0.367502	1.196762
C312	C	0.787014	-0.117502	1.446762
C313	C	0.037011	-0.867502	0.772991
C314	C	0.287011	-0.617502	1.022991
C315	C	0.537011	-0.367502	1.272991
C316	C	0.787011	-0.117502	1.522991
C317	C	0.114665	-0.772500	0.773015
C318	C	0.364665	-0.522500	1.023015
C319	C	0.614665	-0.272500	1.273015
C320	C	0.864665	-0.022500	1.523015
C321	C	0.114663	-0.772497	0.696788
C322	C	0.364663	-0.522497	0.946788
C323	C	0.614663	-0.272497	1.196788
C324	C	0.864663	-0.022497	1.446788
C325	C	0.075839	-0.820002	0.658665
C326	C	0.325839	-0.570002	0.908665
C327	C	0.575839	-0.320002	1.158665
C328	C	0.825839	-0.070002	1.408665
H329	H	-0.109639	-0.939648	-0.000218
H330	H	0.140361	-0.689648	0.249782
H331	H	0.390361	-0.439648	0.499782
H332	H	0.640361	-0.189648	0.749782
Br333	Br	0.167339	-0.707977	0.174869
Br334	Br	0.417339	-0.457977	0.424869
Br335	Br	0.667339	-0.207977	0.674869
Br336	Br	0.917339	0.042023	0.924869
H337	H	-0.763893	-0.930094	-0.000269
H338	H	-0.513893	-0.680094	0.249731
H339	H	-0.263893	-0.430094	0.499731
H340	H	-0.013893	-0.180094	0.749731
H341	H	-0.738684	-0.700314	-0.000203
H342	H	-0.488684	-0.450314	0.249797
H343	H	-0.238684	-0.200314	0.499797
H344	H	0.011316	0.049686	0.749797
Br345	Br	0.198151	-0.797685	0.589591
Br346	Br	0.448151	-0.547685	0.839591
Br347	Br	0.698151	-0.297685	1.089591
Br348	Br	0.948151	-0.047685	1.339591
H349	H	-0.016435	-0.493372	-0.000187
H350	H	0.233565	-0.243372	0.249813
H351	H	0.483565	0.006628	0.499813
H352	H	0.733565	0.256628	0.749813
H353	H	-0.656124	-0.931675	-0.000261
H354	H	-0.406124	-0.681675	0.249739
H355	H	-0.156124	-0.431675	0.499739
H356	H	0.093876	-0.181675	0.749739
Br357	Br	-0.046476	-0.842293	0.409966
Br358	Br	0.203524	-0.592293	0.659966
Br359	Br	0.453524	-0.342293	0.909966
Br360	Br	0.703524	-0.092293	1.159966
H361	H	-0.192209	-0.708291	-0.000164
H362	H	0.057791	-0.458291	0.249836
H363	H	0.307791	-0.208291	0.499836
H364	H	0.557791	0.041709	0.749836
H365	H	0.146267	-0.733789	0.333850
H366	H	0.396267	-0.483789	0.583850
H367	H	0.646267	-0.233789	0.833850
H368	H	0.896267	0.016211	1.083850
Br369	Br	0.167353	-0.708038	0.824757
Br370	Br	0.417353	-0.458038	1.074757
Br371	Br	0.667353	-0.208038	1.324757
Br372	Br	0.917353	0.041962	1.574757
H373	H	-0.014860	-0.624802	-0.000144
H374	H	0.235140	-0.374802	0.249856
H375	H	0.485140	-0.124802	0.499856
H376	H	0.735140	0.125198	0.749856
H377	H	-0.630931	-0.701886	-0.000213
H378	H	-0.380931	-0.451886	0.249787
H379	H	-0.130931	-0.201886	0.499787
H380	H	0.119069	0.048114	0.749787
H381	H	-0.020230	-0.177928	-0.000236
H382	H	0.229770	0.072072	0.249764
H383	H	0.479770	0.322072	0.499764
H384	H	0.729770	0.572072	0.749764
H385	H	0.005394	-0.906139	0.195509
H386	H	0.255394	-0.656139	0.445509
H387	H	0.505394	-0.406139	0.695509
H388	H	0.755394	-0.156139	0.945509
Br389	Br	-0.046476	-0.842314	0.589641
Br390	Br	0.203524	-0.592314	0.839641
Br391	Br	0.453524	-0.342314	1.089641
Br392	Br	0.703524	-0.092314	1.339641
Br393	Br	0.198150	-0.797736	0.409921
Br394	Br	0.448150	-0.547736	0.659921
Br395	Br	0.698150	-0.297736	0.909921
Br396	Br	0.948150	-0.047736	1.159921
Br397	Br	-0.015678	-0.931970	0.645022
Br398	Br	0.234322	-0.681970	0.895022
Br399	Br	0.484322	-0.431970	1.145022
Br400	Br	0.734322	-0.181970	1.395022
Br401	Br	-0.015683	-0.931938	0.354484
Br402	Br	0.234317	-0.681938	0.604484
Br403	Br	0.484317	-0.431938	0.854484
Br404	Br	0.734317	-0.181938	1.104484
H405	H	-0.458486	-0.640978	-0.000215
H406	H	-0.208486	-0.390978	0.249785
H407	H	0.041514	-0.140978	0.499785
H408	H	0.291514	0.109022	0.749785
Br409	Br	-0.237284	-0.972227	-0.000252
Br410	Br	0.012716	-0.722227	0.249748
Br411	Br	0.262716	-0.472227	0.499748
Br412	Br	0.512716	-0.222227	0.749748
Br413	Br	0.167351	-0.708028	0.645082
Br414	Br	0.417351	-0.458028	0.895082
Br415	Br	0.667351	-0.208028	1.145082
Br416	Br	0.917351	0.041972	1.395082
H417	H	-0.350733	-0.642556	-0.000211
H418	H	-0.100733	-0.392556	0.249789
H419	H	0.149267	-0.142556	0.499789
H420	H	0.399267	0.107444	0.749789
H421	H	-0.389829	-0.998986	-0.000263
H422	H	-0.139829	-0.748986	0.249737
H423	H	0.110171	-0.498986	0.499737
H424	H	0.360171	-0.248986	0.749737
H425	H	-0.497577	-0.997412	-0.000276
H426	H	-0.247577	-0.747412	0.249724
H427	H	0.002423	-0.497412	0.499724
H428	H	0.252423	-0.247412	0.749724
Br429	Br	-0.064543	-0.675728	-0.000163
Br430	Br	0.185457	-0.425728	0.249837
Br431	Br	0.435457	-0.175728	0.499837
Br432	Br	0.685457	0.074272	0.749837
Br433	Br	0.201894	-0.608427	-0.000194
Br434	Br	0.451894	-0.358427	0.249806
Br435	Br	0.701894	-0.108427	0.499806
Br436	Br	0.951894	0.141573	0.749806
Br437	Br	-0.015681	-0.931970	0.824695
Br438	Br	0.234319	-0.681970	1.074695
Br439	Br	0.484319	-0.431970	1.324695
Br440	Br	0.734319	-0.181970	1.574695
H441	H	0.171898	-0.462031	-0.000206
H442	H	0.421898	-0.212031	0.249794
H443	H	0.671898	0.037969	0.499794
H444	H	0.921898	0.287969	0.749794
H445	H	0.166526	-0.015161	-0.000281
H446	H	0.416526	0.234839	0.249719
H447	H	0.666526	0.484839	0.499719
H448	H	0.916526	0.734839	0.749719
H449	H	0.148763	-0.373644	0.076758
H450	H	0.398763	-0.123644	0.326758
H451	H	0.648763	0.126356	0.576758
H452	H	0.898763	0.376356	0.826758
Br453	Br	0.196521	-0.161559	-0.000272
Br454	Br	0.446521	0.088441	0.249728
Br455	Br	0.696521	0.338441	0.499728
Br456	Br	0.946521	0.588441	0.749728
Br457	Br	-0.050226	-0.031532	-0.000251
Br458	Br	0.199774	0.218468	0.249749
Br459	Br	0.449774	0.468468	0.499749
Br460	Br	0.699774	0.718468	0.749749
Br461	Br	-0.018909	-0.250261	-0.100256
Br462	Br	0.231091	-0.000261	0.149744
Br463	Br	0.481091	0.249739	0.399744
Br464	Br	0.731091	0.499739	0.649744
H465	H	0.147181	-0.242217	0.076735
H466	H	0.397181	0.007783	0.326735
H467	H	0.647181	0.257783	0.576735
H468	H	0.897181	0.507783	0.826735
Br469	Br	-0.016862	-0.421014	-0.100217
Br470	Br	0.233138	-0.171014	0.149783
Br471	Br	0.483138	0.078986	0.399783
Br472	Br	0.733138	0.328986	0.649783
