data_functionalizedCrystal
_audit_creation_method	'MofGen! by Chris Wilmer'
_symmetry_space_group_name_H-M	'P1'
_symmetry_Int_Tables_number	1
_symmetry_cell_setting	triclinic
loop_
_symmetry_equiv_pos_as_xyz
  x,y,z
_cell_length_a	16.109301
_cell_length_b	16.109318
_cell_length_c	15.186229
_cell_angle_alpha	89.999617
_cell_angle_beta	89.994299
_cell_angle_gamma	83.465022
loop_
_atom_site_label
_atom_site_type_symbol
_atom_site_fract_x
_atom_site_fract_y
_atom_site_fract_z
O1	O	0.106935	1.103122	-0.073158
O2	O	0.606935	1.603122	0.426842
O3	O	0.120220	0.861062	-0.073176
O4	O	0.620220	1.361062	0.426824
O5	O	-0.007453	0.988742	-0.073158
O6	O	0.492547	1.488742	0.426842
O7	O	0.234608	0.975443	-0.073177
O8	O	0.734608	1.475443	0.426823
O9	O	-0.007456	0.988732	0.073300
O10	O	0.492544	1.488732	0.573300
O11	O	0.120217	0.861052	0.073281
O12	O	0.620217	1.361052	0.573281
O13	O	0.106932	1.103112	0.073299
O14	O	0.606932	1.603112	0.573299
Zn15	Zn	0.113574	0.982081	0.096543
Zn16	Zn	0.613574	1.482081	0.596543
Zn17	Zn	0.113578	0.982094	-0.096420
Zn18	Zn	0.613578	1.482094	0.403580
O19	O	0.234605	0.975433	0.073281
O20	O	0.734605	1.475433	0.573281
C21	C	0.119677	0.830083	0.000050
C22	C	0.619677	1.330083	0.500050
C23	C	0.118057	0.737788	0.000043
C24	C	0.618057	1.237788	0.500043
C25	C	0.112823	0.438720	-0.079774
C26	C	0.612823	0.938720	0.420226
C27	C	0.114341	0.525441	-0.079780
C28	C	0.614341	1.025441	0.420220
C29	C	0.114326	0.525449	0.079896
C30	C	0.614326	1.025449	0.579896
C31	C	0.112803	0.438730	0.079900
C32	C	0.612803	0.938730	0.579900
C33	C	0.112056	0.395367	0.000063
C34	C	0.612056	0.895367	0.500063
C35	C	0.115096	0.568807	0.000052
C36	C	0.615096	1.068807	0.500052
C37	C	0.116742	0.662835	0.000047
C38	C	0.616742	1.162835	0.500047
C39	C	0.110409	0.301334	0.000068
C40	C	0.610409	0.801334	0.500068
C41	C	-0.038430	0.988198	0.000071
C42	C	0.461570	1.488198	0.500071
C43	C	-0.130725	0.986583	0.000072
C44	C	0.369275	1.486583	0.500072
C45	C	-0.352993	1.058590	0.000064
C46	C	0.147007	1.558590	0.500064
C47	C	-0.439713	1.057066	0.000057
C48	C	0.060287	1.557066	0.500057
C49	C	-0.419848	0.905579	0.000049
C50	C	0.080152	1.405579	0.500049
C51	C	-0.333130	0.907104	0.000050
C52	C	0.166870	1.407104	0.500050
C53	C	-0.299704	0.983612	0.000062
C54	C	0.200296	1.483612	0.500062
C55	C	-0.473144	0.980563	0.000053
C56	C	0.026856	1.480563	0.500053
C57	C	-0.567170	0.978910	0.000045
C58	C	-0.067170	1.478910	0.500045
C59	C	-0.205672	0.985265	0.000068
C60	C	0.294328	1.485265	0.500068
C61	C	0.265581	0.975976	0.000050
C62	C	0.765581	1.475976	0.500050
C63	C	0.357877	0.977592	0.000043
C64	C	0.857877	1.477592	0.500043
C65	C	0.107474	1.134092	0.000071
C66	C	0.607474	1.634092	0.500071
C67	C	0.109095	1.226387	0.000072
C68	C	0.609095	1.726387	0.500072
N69	N	0.113571	0.982078	0.228236
N70	N	0.613571	1.482078	0.728236
N71	N	0.113574	0.982103	-0.228113
N72	N	0.613574	1.482103	0.271887
C73	C	0.057056	1.038638	0.546163
C74	C	0.557056	1.538638	1.046163
C75	C	0.057056	1.038635	0.453973
C76	C	0.557056	1.538635	0.953973
C77	C	0.170095	0.925541	0.453967
C78	C	0.670095	1.425541	0.953967
C79	C	0.170098	0.925548	0.546155
C80	C	0.670098	1.425548	1.046155
C81	C	0.113574	0.982095	0.592250
C82	C	0.613574	1.482095	1.092250
C83	C	0.113571	0.982086	0.407873
C84	C	0.613571	1.482086	0.907873
C85	C	0.113572	0.982083	0.307916
C86	C	0.613572	1.482083	0.807916
C87	C	0.113574	0.982099	0.692213
C88	C	0.613574	1.482099	1.192213
H89	H	0.114965	0.560735	-0.144791
H90	H	0.614965	1.060735	0.355209
F91	F	0.230258	0.865368	0.595208
F92	F	0.730258	1.365368	1.095208
F93	F	0.115128	0.571606	0.164860
F94	F	0.615128	1.071606	0.664860
F95	F	-0.496424	1.136869	0.000057
F96	F	0.003576	1.636869	0.500057
H97	H	0.112214	0.403416	-0.144784
H98	H	0.612214	0.903416	0.355216
H99	H	0.011036	1.084678	0.416451
H100	H	0.511036	1.584678	0.916451
F101	F	0.230247	0.865360	0.404903
F102	F	0.730247	1.365360	0.904903
H103	H	-0.447074	0.843288	0.000040
H104	H	0.052926	1.343288	0.500040
F105	F	0.111984	0.392589	0.164879
F106	F	0.611984	0.892589	0.664879
F107	F	-0.317422	1.140017	0.000076
F108	F	0.182578	1.640017	0.500076
H109	H	-0.289740	0.846043	0.000045
H110	H	0.210260	1.346043	0.500045
H111	H	0.011032	1.084683	0.583691
H112	H	0.511032	1.584683	1.083691
