data_functionalizedCrystal
_audit_creation_method	'MofGen! by Chris Wilmer'
_symmetry_space_group_name_H-M	'P1'
_symmetry_Int_Tables_number	1
_symmetry_cell_setting	triclinic
loop_
_symmetry_equiv_pos_as_xyz
  x,y,z
_cell_length_a	11.792241
_cell_length_b	10.654550
_cell_length_c	9.730223
_cell_angle_alpha	89.994659
_cell_angle_beta	90.004274
_cell_angle_gamma	95.660841
loop_
_atom_site_label
_atom_site_type_symbol
_atom_site_fract_x
_atom_site_fract_y
_atom_site_fract_z
O1	O	0.159419	-1.667386	0.114404
O2	O	0.174608	-1.301864	0.114382
O3	O	0.001863	-1.493495	0.114383
O4	O	0.332163	-1.475755	0.114402
O5	O	0.001859	-1.493488	-0.114196
O6	O	0.174603	-1.301857	-0.114198
O7	O	0.159415	-1.667378	-0.114176
Zn8	Zn	0.167008	-1.484617	-0.150479
Zn9	Zn	0.167014	-1.484626	0.150685
O10	O	0.332159	-1.475748	-0.114178
C11	C	-0.040432	-1.492377	0.000094
C12	C	-0.166454	-1.489042	0.000095
C13	C	0.173490	-1.255066	0.000089
C14	C	0.170154	-1.115632	0.000080
C15	C	0.160532	-1.714177	0.000120
C16	C	0.163869	-1.853611	0.000137
C17	C	-0.397180	-1.482908	0.000118
C18	C	-0.268787	-1.486316	0.000105
C19	C	0.374455	-1.476865	0.000114
C20	C	0.500476	-1.480201	0.000122
N21	N	0.167004	-1.484619	-0.356016
C22	C	0.271863	-1.035858	0.000106
C23	C	0.268721	-0.904847	0.000129
C24	C	0.062152	-0.933394	0.000107
C25	C	0.065295	-1.064404	0.000074
C26	C	0.376722	-1.087087	0.000112
C27	C	0.478439	-1.007312	0.000139
C28	C	0.475297	-0.876300	0.000163
C29	C	0.370438	-0.825063	0.000159
C30	C	0.097521	-1.407997	-0.427973
C31	C	0.097526	-1.408000	-0.571856
C32	C	0.236501	-1.561258	-0.571812
C33	C	0.236500	-1.561248	-0.427932
C34	C	0.028024	-1.331369	-0.356057
C35	C	-0.041466	-1.254742	-0.428014
C36	C	-0.041460	-1.254745	-0.571897
C37	C	0.028035	-1.331375	-0.643823
N38	N	0.167010	-1.484633	0.356221
H39	H	0.379291	-1.193762	0.000099
H40	H	-0.098033	-1.192342	-0.630481
H41	H	0.293080	-1.623647	-0.630385
C42	C	0.373862	-1.712748	-0.442329
C43	C	0.312873	-1.645475	-0.348826
H44	H	0.421009	-1.764749	-0.393489
H45	H	0.419885	-1.655274	-0.498452
H46	H	0.322050	-1.763863	-0.498445
H47	H	0.364686	-1.594353	-0.292716
H48	H	0.266847	-1.702957	-0.292679
C49	C	0.103715	-1.414816	-0.849912
C50	C	0.028049	-1.331373	-0.801982
H51	H	0.103724	-1.414809	-0.947551
H52	H	0.080454	-1.497402	-0.817361
H53	H	0.178287	-1.388811	-0.817344
H54	H	-0.046525	-1.357384	-0.834542
H55	H	0.051305	-1.248769	-0.834547
C56	C	0.591592	-0.712439	0.117709
C57	C	0.587099	-0.788608	0.000190
H58	H	0.660615	-0.658299	0.117724
H59	H	0.588524	-0.764163	0.197393
H60	H	0.528692	-0.663181	0.117696
H61	H	0.649995	-0.837873	0.000208
H62	H	0.590178	-0.736878	-0.079514
C63	C	0.574979	-1.195466	0.000129
C64	C	0.593696	-1.063627	0.000147
H65	H	0.646137	-1.230227	0.000143
H66	H	0.533070	-1.222775	-0.079586
H67	H	0.533052	-1.222805	0.079836
H68	H	0.635616	-1.036288	-0.079566
H69	H	0.635623	-1.036307	0.079870
C70	C	-0.061213	-0.802664	0.117651
C71	C	-0.053105	-0.877078	0.000123
H72	H	-0.132373	-0.767906	0.117666
H73	H	-0.001095	-0.736410	0.117659
H74	H	-0.055689	-0.853220	0.197337
H75	H	-0.058620	-0.826521	-0.079564
H76	H	-0.113240	-0.943342	0.000102
C77	C	-0.139206	-1.079473	0.000087
C78	C	-0.046504	-1.152101	0.000063
H79	H	-0.208225	-1.133617	0.000088
H80	H	-0.136144	-1.027764	-0.079608
H81	H	-0.136124	-1.027797	0.079815
H82	H	-0.049581	-1.203770	-0.079670
H83	H	-0.049567	-1.203831	0.079767
C84	C	0.062290	-1.209592	-0.149962
C85	C	0.028022	-1.331358	-0.197900
H86	H	0.062295	-1.209592	-0.052323
H87	H	0.010959	-1.153009	-0.182523
H88	H	0.136869	-1.183606	-0.182514
H89	H	-0.046560	-1.357341	-0.165356
H90	H	0.079355	-1.387961	-0.165325
H91	H	-0.098039	-1.192344	-0.369443
H92	H	0.367888	-0.718383	0.000157
