data_functionalizedCrystal
_audit_creation_method	'MofGen! by Chris Wilmer'
_symmetry_space_group_name_H-M	'P1'
_symmetry_Int_Tables_number	1
_symmetry_cell_setting	triclinic
loop_
_symmetry_equiv_pos_as_xyz
  x,y,z
_cell_length_a	9.065218
_cell_length_b	15.944564
_cell_length_c	14.421503
_cell_angle_alpha	90.010450
_cell_angle_beta	90.005540
_cell_angle_gamma	95.740090
loop_
_atom_site_label
_atom_site_type_symbol
_atom_site_fract_x
_atom_site_fract_y
_atom_site_fract_z
O1	O	1.957510	-0.123168	-0.077117
O2	O	1.527990	-0.133270	-0.077119
O3	O	1.754469	-0.006034	-0.077109
O4	O	1.731030	-0.250404	-0.077127
O5	O	1.754495	-0.006016	0.077115
O6	O	1.528016	-0.133253	0.077105
O7	O	1.957536	-0.123150	0.077106
Cu8	Cu	1.742778	-0.128200	0.091188
Cu9	Cu	1.742747	-0.128221	-0.091200
O10	O	1.731056	-0.250387	0.077097
C11	C	1.473039	-0.132290	-0.000007
C12	C	1.309263	-0.129387	-0.000007
C13	C	1.753506	0.025276	0.000003
C14	C	1.750579	0.118544	0.000004
C15	C	2.012487	-0.124130	-0.000007
C16	C	2.176262	-0.127033	-0.000013
C17	C	1.603194	0.334516	-0.000008
C18	C	1.671634	0.395023	0.076034
C19	C	1.745283	0.289309	-0.000002
C20	C	1.671642	0.394989	-0.076018
C21	C	1.740157	0.454259	-0.000012
C22	C	1.813763	0.348588	0.076102
C23	C	1.813751	0.348547	-0.076018
C24	C	1.882295	0.409036	0.000042
C25	C	1.748232	0.194285	0.000004
C26	C	1.737220	0.549282	-0.000013
C27	C	1.731999	0.718302	-0.000016
C28	C	1.734867	0.625030	-0.000020
N29	N	1.742726	-0.128229	-0.219481
C30	C	1.637804	-0.186942	-0.469133
C31	C	1.609501	-0.110767	-0.530933
C32	C	1.742754	-0.128212	-0.408642
C33	C	1.771016	-0.204372	-0.530937
C34	C	1.742778	-0.128203	-0.591364
C35	C	1.714385	-0.051998	-0.469081
C36	C	1.875958	-0.145653	-0.469080
C37	C	1.847712	-0.069423	-0.530851
C38	C	1.742737	-0.128219	-0.303381
C39	C	1.742797	-0.128188	-0.696623
N40	N	1.742811	-0.128185	0.219469
H41	H	1.485259	0.302102	0.000067
C42	C	2.041688	0.452711	0.000150
H43	H	2.057001	0.486551	-0.053873
H44	H	2.056297	0.487251	0.053695
H45	H	2.110085	0.411294	0.000696
C46	C	1.681919	0.035037	-0.432543
H47	H	1.668428	0.071370	-0.483389
H48	H	1.594441	0.029095	-0.395886
H49	H	1.762878	0.058346	-0.395821
C50	C	1.590468	0.422819	0.162877
H51	H	1.491321	0.397069	0.162785
H52	H	1.639998	0.406167	0.216874
H53	H	1.589982	0.482371	0.162533
C54	C	1.590422	0.422733	-0.162863
H55	H	1.656152	0.459905	-0.198673
H56	H	1.557497	0.374596	-0.198906
H57	H	1.507510	0.450829	-0.144578
H58	H	1.794930	-0.268785	-0.558090
H59	H	1.936481	-0.019698	-0.557780
H60	H	1.873821	0.328150	0.140460
H61	H	1.548983	-0.236554	-0.442033
C62	C	2.028065	-0.165627	-0.432338
H63	H	2.047988	-0.219792	-0.453478
H64	H	2.102820	-0.124458	-0.454387
H65	H	2.027213	-0.164975	-0.366470
C66	C	1.894849	0.320718	-0.162865
H67	H	1.844211	0.336438	-0.216844
H68	H	1.993441	0.347266	-0.163412
H69	H	1.896893	0.261270	-0.161930
H70	H	1.496865	-0.096009	-0.558108
