data_functionalizedCrystal
_audit_creation_method	'MofGen! by Chris Wilmer'
_symmetry_space_group_name_H-M	'P1'
_symmetry_Int_Tables_number	1
_symmetry_cell_setting	triclinic
loop_
_symmetry_equiv_pos_as_xyz
  x,y,z
_cell_length_a	10.967926
_cell_length_b	10.967829
_cell_length_c	15.186229
_cell_angle_alpha	77.868373
_cell_angle_beta	102.125883
_cell_angle_gamma	87.248880
loop_
_atom_site_label
_atom_site_type_symbol
_atom_site_fract_x
_atom_site_fract_y
_atom_site_fract_z
O1	O	1.657160	0.175018	0.151693
O2	O	1.294014	0.191774	0.094041
O3	O	1.483961	0.001817	0.151696
O4	O	1.467212	0.364974	0.094039
O5	O	1.483949	0.001815	0.298151
O6	O	1.294001	0.191771	0.240497
O7	O	1.657147	0.175015	0.298149
Zn8	Zn	1.475572	0.183392	0.292576
Zn9	Zn	1.475589	0.183396	0.099614
O10	O	1.467200	0.364971	0.240494
C11	C	1.247509	0.190553	0.160397
C12	C	1.108957	0.186906	0.139924
C13	C	1.047179	0.185279	0.206665
C14	C	0.903979	0.181510	0.185507
C15	C	1.482735	-0.044684	0.231794
C16	C	1.479086	-0.183240	0.252263
C17	C	1.477466	-0.245005	0.185519
C18	C	1.473695	-0.388210	0.206673
C19	C	1.703652	0.176235	0.231791
C20	C	1.842204	0.179882	0.252258
C21	C	1.468426	0.411473	0.160394
C22	C	1.472075	0.550029	0.139920
N23	N	1.475570	0.183389	0.424269
N24	N	1.475601	0.183390	-0.032076
C25	C	1.559708	0.099306	0.675521
C26	C	1.559711	0.099303	0.767712
C27	C	1.391454	0.267477	0.716663
C28	C	1.391445	0.267473	0.624475
C29	C	1.475579	0.183389	0.603907
C30	C	1.475592	0.183390	0.788286
C31	C	1.475595	0.183388	0.888243
C32	C	1.475574	0.183389	0.503943
H33	H	1.100306	0.186669	0.279470
Cl34	Cl	1.026947	0.184740	0.027520
H35	H	1.322932	0.335945	0.566160
H36	H	1.322956	0.335939	0.733420
H37	H	1.628215	0.030833	0.826020
H38	H	1.478866	-0.191865	0.112716
Cl39	Cl	1.471516	-0.470236	0.319081
Cl40	Cl	1.476907	-0.265271	0.364666
Cl41	Cl	0.821974	0.179343	0.073098
H42	H	1.473465	-0.396837	0.067109
H43	H	0.895324	0.181275	0.325067
Cl44	Cl	1.665471	-0.006405	0.649668
