data_functionalizedCrystal
_audit_creation_method	'MofGen! by Chris Wilmer'
_symmetry_space_group_name_H-M	'P1'
_symmetry_Int_Tables_number	1
_symmetry_cell_setting	triclinic
loop_
_symmetry_equiv_pos_as_xyz
  x,y,z
_cell_length_a	10.654550
_cell_length_b	16.776229
_cell_length_c	10.654551
_cell_angle_alpha	90.004858
_cell_angle_beta	84.485180
_cell_angle_gamma	90.003878
loop_
_atom_site_label
_atom_site_type_symbol
_atom_site_fract_x
_atom_site_fract_y
_atom_site_fract_z
O1	O	1.667846	0.066225	0.176402
O2	O	1.302368	0.066240	0.193208
O3	O	1.493509	0.066230	0.002066
O4	O	1.476705	0.066235	0.367544
O5	O	1.493484	-0.066346	0.002054
O6	O	1.302342	-0.066337	0.193196
O7	O	1.667821	-0.066351	0.176390
Zn8	Zn	1.485077	-0.087393	0.184791
Zn9	Zn	1.485111	0.087282	0.184807
O10	O	1.476679	-0.066342	0.367532
C11	C	1.255557	-0.000047	0.191968
C12	C	1.116114	-0.000041	0.188276
N13	N	1.485064	-0.206605	0.184779
C14	C	1.036629	-0.000042	0.300818
C15	C	0.905608	-0.000056	0.297341
C16	C	0.933570	-0.000065	0.068772
C17	C	1.064589	-0.000056	0.072249
C18	C	1.569727	-0.248326	0.100177
C19	C	1.569734	-0.331778	0.100176
C20	C	1.485083	-0.373508	0.184784
C21	C	1.400410	-0.331781	0.269391
C22	C	1.400398	-0.248330	0.269385
C23	C	1.400455	-0.668328	0.269416
C24	C	1.400476	-0.751784	0.269418
C25	C	1.569792	-0.751776	0.100207
C26	C	1.569780	-0.668325	0.100201
C27	C	1.485103	-0.626605	0.184802
C28	C	1.485095	-0.536117	0.184801
C29	C	1.485096	-0.463994	0.184793
C30	C	1.714632	-0.000063	0.177630
C31	C	1.854075	-0.000063	0.181322
C32	C	1.492262	-0.000057	-0.044738
C33	C	1.488570	-0.000053	-0.184181
N34	N	1.485135	0.206493	0.184809
C35	C	1.486851	0.072216	-0.249679
C36	C	1.483371	0.072216	-0.380699
C37	C	1.483334	-0.072326	-0.380714
C38	C	1.486805	-0.072326	-0.249695
C39	C	1.477926	-0.000053	0.414336
C40	C	1.481619	-0.000052	0.553779
H41	H	1.078576	-0.000036	0.395294
Br42	Br	1.684628	-0.191702	-0.014647
H43	H	1.331538	-0.785759	0.338319
H44	H	0.840896	-0.000059	0.388984
Br45	Br	1.172471	-0.000065	-0.080497
Br46	Br	0.863634	-0.000082	-0.088685
Br47	Br	1.684632	-0.388402	-0.014648
H48	H	1.638715	-0.634352	0.031309
H49	H	1.481900	-0.131168	-0.434071
H50	H	1.331511	-0.634366	0.338304
Br51	Br	1.489118	-0.170411	-0.160795
Br52	Br	1.489242	0.170300	-0.160770
Br53	Br	1.684712	-0.808399	-0.014614
Br54	Br	1.285513	-0.388410	0.384211
H55	H	1.331454	-0.214361	0.338275
Br56	Br	1.481030	0.170299	-0.469583
