data_functionalizedCrystal
_audit_creation_method	'MofGen! by Chris Wilmer'
_symmetry_space_group_name_H-M	'P1'
_symmetry_Int_Tables_number	1
_symmetry_cell_setting	triclinic
loop_
_symmetry_equiv_pos_as_xyz
  x,y,z
_cell_length_a	19.188879
_cell_length_b	19.288840
_cell_length_c	18.366186
_cell_angle_alpha	89.983729
_cell_angle_beta	90.016039
_cell_angle_gamma	96.874955
loop_
_atom_site_label
_atom_site_type_symbol
_atom_site_fract_x
_atom_site_fract_y
_atom_site_fract_z
O1	O	-0.087018	0.921355	-0.060687
O2	O	0.412982	1.421355	0.439313
O3	O	-0.098786	0.719090	-0.060664
O4	O	0.401214	1.219090	0.439336
O5	O	0.008757	0.826078	-0.060653
O6	O	0.508757	1.326078	0.439347
O7	O	-0.194561	0.814367	-0.060697
O8	O	0.305439	1.314367	0.439303
O9	O	0.008762	0.826060	0.060446
O10	O	0.508762	1.326060	0.560446
O11	O	-0.098781	0.719072	0.060436
O12	O	0.401219	1.219072	0.560436
O13	O	-0.087013	0.921336	0.060413
O14	O	0.412987	1.421336	0.560413
Zn15	Zn	-0.092896	0.820201	0.079651
Zn16	Zn	0.407104	1.320201	0.579651
Zn17	Zn	-0.092903	0.820225	-0.079902
Zn18	Zn	0.407097	1.320225	0.420098
O19	O	-0.194556	0.814349	0.060402
O20	O	0.305444	1.314349	0.560402
C21	C	-0.098408	0.693204	-0.000111
C22	C	0.401592	1.193204	0.499889
C23	C	-0.097280	0.616100	-0.000101
C24	C	0.402720	1.116100	0.499899
C25	C	-0.096741	0.579906	-0.066114
C26	C	0.403259	1.079906	0.433886
C27	C	-0.095673	0.507460	-0.066122
C28	C	0.404327	1.007460	0.433878
C29	C	-0.095131	0.471211	-0.000114
C30	C	0.404869	0.971211	0.499886
C31	C	-0.095674	0.507413	0.065907
C32	C	0.404326	1.007413	0.565907
C33	C	-0.096748	0.579857	0.065914
C34	C	0.403252	1.079857	0.565914
C35	C	-0.052529	0.361880	0.050456
C36	C	0.447471	0.861880	0.550456
C37	C	-0.051450	0.289438	0.050447
C38	C	0.448550	0.789438	0.550447
C39	C	-0.091819	0.247768	-0.000133
C40	C	0.408181	0.747768	0.499867
C41	C	-0.133258	0.278551	-0.050715
C42	C	0.366742	0.778551	0.449285
C43	C	-0.134333	0.350995	-0.050708
C44	C	0.365667	0.850995	0.449292
C45	C	-0.093966	0.392657	-0.000114
C46	C	0.406034	0.892657	0.499886
C47	C	-0.090124	0.133019	-0.066160
C48	C	0.409876	0.633019	0.433840
C49	C	-0.089060	0.060570	-0.066165
C50	C	0.410940	0.560570	0.433835
C51	C	-0.089054	0.060526	0.065866
C52	C	0.410946	0.560526	0.565866
C53	C	-0.090124	0.132972	0.065870
C54	C	0.409876	0.632972	0.565870
C55	C	-0.090656	0.169215	-0.000145
C56	C	0.409344	0.669215	0.499855
C57	C	-0.220570	0.814731	-0.000154
C58	C	0.279430	1.314731	0.499846
C59	C	-0.298076	0.815852	-0.000171
C60	C	0.201924	1.315852	0.499829
C61	C	-0.334456	0.816386	0.065843
C62	C	0.165544	1.316386	0.565843
C63	C	-0.407279	0.817458	0.065856
C64	C	0.092721	1.317458	0.565856
C65	C	-0.443717	0.818010	-0.000150
C66	C	0.056283	1.318010	0.499850
C67	C	-0.407330	0.817472	-0.066174
C68	C	0.092670	1.317472	0.433826
C69	C	-0.334509	0.816393	-0.066184
C70	C	0.165491	1.316393	0.433816
N71	N	-0.552732	0.859240	-0.049272
N72	N	-0.052732	1.359240	0.450728
N73	N	-0.621909	0.860267	-0.049258
N74	N	-0.121909	1.360267	0.450742
C75	C	-0.663121	0.821260	-0.000122
C76	C	-0.163121	1.321260	0.499878
N77	N	-0.632544	0.781197	0.049009
N78	N	-0.132544	1.281197	0.549009
N79	N	-0.563361	0.780173	0.048997
N80	N	-0.063361	1.280173	0.548997
C81	C	-0.522679	0.819180	-0.000146
C82	C	-0.022679	1.319180	0.499854
C83	C	-0.778464	0.822956	0.065911
C84	C	-0.278464	1.322956	0.565911
C85	C	-0.851289	0.824024	0.065921
C86	C	-0.351289	1.324024	0.565921
C87	C	-0.851337	0.824045	-0.066111
C88	C	-0.351337	1.324045	0.433889
C89	C	-0.778515	0.822970	-0.066119
C90	C	-0.278515	1.322970	0.433881
C91	C	-0.742082	0.822429	-0.000106
C92	C	-0.242082	1.322429	0.499894
C93	C	0.034771	0.825695	-0.000099
C94	C	0.534771	1.325695	0.499901
C95	C	0.112278	0.824574	-0.000086
C96	C	0.612278	1.324574	0.499914
C97	C	-0.087391	0.947222	-0.000142
C98	C	0.412609	1.447222	0.499858
C99	C	-0.088519	1.024327	-0.000157
C100	C	0.411481	1.524327	0.499843
N101	N	-0.092891	0.820190	0.188542
N102	N	0.407109	1.320190	0.688542
N103	N	-0.092902	0.820242	-0.188793
N104	N	0.407098	1.320242	0.311207
C105	C	-0.045294	0.867580	0.226648
C106	C	0.454706	1.367580	0.726648
C107	C	-0.045291	0.867584	0.302875
C108	C	0.454709	1.367584	0.802875
C109	C	-0.092897	0.820206	0.340995
C110	C	0.407103	1.320206	0.840995
C111	C	-0.140497	0.772807	0.302881
C112	C	0.359503	1.272807	0.802881
C113	C	-0.140494	0.772800	0.226655
C114	C	0.359506	1.272800	0.726655
C115	C	-0.156516	0.810901	0.461742
C116	C	0.343484	1.310901	0.961742
C117	C	-0.156520	0.810913	0.537967
C118	C	0.343480	1.310913	1.037967
C119	C	-0.092905	0.820225	0.576103
C120	C	0.407095	1.320225	1.076103
C121	C	-0.029284	0.829540	0.538004
C122	C	0.470716	1.329540	1.038004
C123	C	-0.029281	0.829532	0.461777
C124	C	0.470719	1.329532	0.961777
C125	C	-0.092905	0.820208	0.423650
C126	C	0.407095	1.320208	0.923650
C127	C	-0.045301	0.867622	0.696863
C128	C	0.454699	1.367622	1.196863
C129	C	-0.045297	0.867622	0.773092
C130	C	0.454703	1.367622	1.273092
C131	C	-0.140509	0.772848	0.773096
C132	C	0.359491	1.272848	1.273096
C133	C	-0.140507	0.772845	0.696868
C134	C	0.359493	1.272845	1.196868
C135	C	-0.092904	0.820236	0.658756
C136	C	0.407096	1.320236	1.158756
H137	H	-0.168075	0.376055	-0.091892
H138	H	0.331925	0.876055	0.408108
H139	H	-0.097188	0.609326	0.119672
H140	H	0.402812	1.109326	0.619672
H141	H	-0.437003	0.817919	-0.119916
H142	H	0.062997	1.317919	0.380084
N143	N	-0.097270	0.616931	-0.133542
N144	N	0.402730	1.116931	0.366458
N145	N	-0.048655	0.663925	-0.148250
N146	N	0.451345	1.163925	0.351750
H147	H	-0.049023	0.690075	-0.195873
H148	H	0.450977	1.190075	0.304127
N149	N	-0.095103	0.470391	0.133333
N150	N	0.404897	0.970391	0.633333
N151	N	-0.046014	0.485038	0.177544
N152	N	0.453986	0.985038	0.677544
H153	H	-0.045613	0.458891	0.225166
H154	H	0.454387	0.958891	0.725166
H155	H	-0.006530	0.906175	0.333906
H156	H	0.493470	1.406175	0.833906
N157	N	-0.009138	0.257999	0.102127
N158	N	0.490862	0.757999	0.602127
N159	N	-0.037114	0.213748	0.146210
N160	N	0.462886	0.713748	0.646210
H161	H	-0.007232	0.191546	0.182714
H162	H	0.492768	0.691546	0.682714
N163	N	0.035706	0.839046	0.422871
N164	N	0.535706	1.339046	0.922871
N165	N	0.092503	0.847362	0.456921
N166	N	0.592503	1.347362	0.956921
H167	H	0.138402	0.854079	0.429445
H168	H	0.638402	1.354079	0.929445
H169	H	-0.436906	0.817880	0.119615
H170	H	0.063094	1.317880	0.619615
N171	N	-0.888451	0.824582	0.133357
N172	N	-0.388451	1.324582	0.633357
N173	N	-0.922470	0.874133	0.148082
N174	N	-0.422470	1.374133	0.648082
H175	H	-0.948717	0.874529	0.195710
H176	H	-0.448717	1.374529	0.695710
H177	H	-0.006537	0.906209	0.665831
H178	H	0.493463	1.406209	1.165831
H179	H	-0.095235	0.477985	-0.119880
H180	H	0.404765	0.977985	0.380120
H181	H	-0.179268	0.734269	0.804133
H182	H	0.320732	1.234269	1.304133
H183	H	-0.304797	0.815945	0.119596
H184	H	0.195203	1.315945	0.619596
H185	H	-0.179268	0.734259	0.665841
H186	H	0.320732	1.234259	1.165841
N187	N	-0.741350	0.822456	-0.133555
N188	N	-0.241350	1.322456	0.366445
N189	N	-0.694117	0.870816	-0.148290
N190	N	-0.194117	1.370816	0.351710
H191	H	-0.667870	0.870456	-0.195921
H192	H	-0.167870	1.370456	0.304079
H193	H	-0.304889	0.815957	-0.119943
H194	H	0.195111	1.315957	0.380057
H195	H	-0.088616	0.031013	0.119611
H196	H	0.411384	0.531013	0.619611
N197	N	-0.090694	0.170039	-0.133590
N198	N	0.409306	0.670039	0.366410
N199	N	-0.140505	0.203895	-0.148322
N200	N	0.359495	0.703895	0.351678
H201	H	-0.140911	0.230038	-0.195946
H202	H	0.359089	0.730038	0.304054
N203	N	-0.221510	0.801408	0.576869
N204	N	0.278490	1.301408	1.076869
N205	N	-0.278303	0.793087	0.542814
N206	N	0.221697	1.293087	1.042814
H207	H	-0.324205	0.786375	0.570286
H208	H	0.175795	1.286375	1.070286
H209	H	-0.179257	0.734230	0.333922
H210	H	0.320743	1.234230	0.833922
N211	N	-0.741255	0.822397	0.133344
N212	N	-0.241255	1.322397	0.633344
N213	N	-0.773751	0.822863	0.192284
N214	N	-0.273751	1.322863	0.692284
H215	H	-0.747475	0.822467	0.239910
H216	H	-0.247475	1.322467	0.739910
N217	N	-0.888561	0.824602	-0.133529
N218	N	-0.388561	1.324602	0.366471
N219	N	-0.953579	0.825563	-0.133512
N220	N	-0.453579	1.325563	0.366488
H221	H	-0.979872	0.825955	-0.181128
H222	H	-0.479872	1.325955	0.318872
N223	N	0.003276	0.916049	0.187730
N224	N	0.503276	1.416049	0.687730
N225	N	0.045732	0.958397	0.221768
N226	N	0.545732	1.458397	0.721768
H227	H	0.080014	0.992651	0.194281
H228	H	0.580014	1.492651	0.694281
N229	N	-0.174489	0.235986	-0.102384
N230	N	0.325511	0.735986	0.397616
N231	N	-0.173528	0.171304	-0.102383
N232	N	0.326472	0.671304	0.397617
H233	H	-0.202644	0.141240	-0.138875
H234	H	0.297356	0.641240	0.361125
N235	N	0.035696	0.839042	0.576958
N236	N	0.535696	1.339042	1.076958
N237	N	0.035688	0.839035	0.645017
N238	N	0.535688	1.339035	1.145017
H239	H	0.081578	0.845743	0.672533
H240	H	0.581578	1.345743	1.172533
H241	H	-0.088626	0.031102	-0.119923
H242	H	0.411374	0.531102	0.380077
N243	N	0.003335	0.916031	0.812007
N244	N	0.503335	1.416031	1.312007
N245	N	0.045832	0.958335	0.777965
N246	N	0.545832	1.458335	1.277965
H247	H	0.080181	0.992525	0.805449
H248	H	0.580181	1.492525	1.305449
N249	N	-0.221508	0.801395	0.422803
N250	N	0.278492	1.301395	0.922803
N251	N	-0.278305	0.793095	0.456825
N252	N	0.221695	1.293095	0.956825
H253	H	-0.324204	0.786386	0.429326
H254	H	0.175796	1.286386	0.929326
N255	N	-0.189129	0.724393	0.187740
N256	N	0.310871	1.224393	0.687740
N257	N	-0.253664	0.725134	0.196236
N258	N	0.246336	1.225134	0.696236
H259	H	-0.288015	0.690947	0.168752
H260	H	0.211985	1.190947	0.668752
N261	N	-0.090669	0.169937	0.133309
N262	N	0.409331	0.669937	0.633309
N263	N	-0.090186	0.137567	0.192241
N264	N	0.409814	0.637567	0.692241
H265	H	-0.090572	0.163673	0.239873
H266	H	0.409428	0.663673	0.739873
H267	H	-0.019654	0.395803	0.091647
H268	H	0.480346	0.895803	0.591647
