data_functionalizedCrystal
_audit_creation_method	'MofGen! by Chris Wilmer'
_symmetry_space_group_name_H-M	'P1'
_symmetry_Int_Tables_number	1
_symmetry_cell_setting	triclinic
loop_
_symmetry_equiv_pos_as_xyz
  x,y,z
_cell_length_a	12.594516
_cell_length_b	19.805407
_cell_length_c	19.805398
_cell_angle_alpha	90.015489
_cell_angle_beta	89.980868
_cell_angle_gamma	89.987797
loop_
_atom_site_label
_atom_site_type_symbol
_atom_site_fract_x
_atom_site_fract_y
_atom_site_fract_z
Zn1	Zn	-0.423894	-1.034760	-0.382745
Zn2	Zn	-0.601882	-1.034702	-0.269570
Zn3	Zn	-0.423906	-0.921582	-0.269570
Zn4	Zn	-0.601819	-0.921558	-0.382717
O5	O	-0.512875	-0.978150	-0.326151
O6	O	-0.447526	-1.129469	-0.367743
O7	O	-0.578305	-1.019682	-0.174853
O8	O	-0.274958	-0.936629	-0.284594
O9	O	-0.578293	-1.129426	-0.284594
O10	O	-0.274949	-1.019780	-0.367743
O11	O	-0.447546	-0.936573	-0.174853
O12	O	-0.447485	-0.826862	-0.284568
O13	O	-0.578185	-0.936589	-0.477438
O14	O	-0.578197	-0.826845	-0.367697
O15	O	-0.447464	-1.019757	-0.477458
O16	O	-0.750819	-1.019660	-0.284568
O17	O	-0.750773	-0.936533	-0.367697
C18	C	-0.512836	-0.802294	-0.326130
C19	C	-0.512845	-0.727062	-0.326137
C20	C	-0.444874	-0.691741	-0.369498
C21	C	-0.444877	-0.621052	-0.369499
C22	C	-0.512858	-0.585687	-0.326142
C23	C	-0.580832	-0.621013	-0.282776
C24	C	-0.580822	-0.691700	-0.282772
C25	C	-0.580871	-0.335940	-0.282790
C26	C	-0.580877	-0.265248	-0.282799
C27	C	-0.444925	-0.265292	-0.369516
C28	C	-0.444916	-0.335979	-0.369512
C29	C	-0.512886	-0.371299	-0.326145
C30	C	-0.512880	-0.447948	-0.326143
C31	C	-0.512870	-0.509040	-0.326146
C32	C	-0.789416	-0.978106	-0.326144
C33	C	-0.907721	-0.978149	-0.326164
C34	C	-0.976988	-0.932932	-0.371346
C35	C	-1.047839	-0.916447	-0.309584
C36	C	-1.047669	-0.994695	-0.387936
C37	C	-0.977015	-0.961632	-0.264369
C38	C	-0.976838	-1.039908	-0.342763
C39	C	-1.047657	-1.023447	-0.280959
C40	C	-0.235254	-0.978213	-0.326172
C41	C	-0.116949	-0.978240	-0.326181
C42	C	-0.512816	-0.978177	-0.502693
C43	C	-0.512791	-0.978188	-0.577925
C44	C	-0.512907	-0.154693	-0.326166
C45	C	-0.512900	-0.229925	-0.326156
C46	C	-0.444536	-1.021576	-1.039728
C47	C	-0.444569	-1.021565	-0.969040
C48	C	-0.512643	-0.978258	-0.933687
C49	C	-0.580696	-0.934963	-0.969027
C50	C	-0.580668	-0.934977	-1.039714
C51	C	-0.580812	-0.934904	-0.683954
C52	C	-0.580832	-0.934891	-0.613261
C53	C	-0.444712	-1.021492	-0.613279
C54	C	-0.444684	-1.021506	-0.683966
C55	C	-0.512741	-0.978214	-0.719300
C56	C	-0.512706	-0.978227	-0.795948
C57	C	-0.512673	-0.978241	-0.857040
C58	C	-0.512857	-0.978163	-0.150295
C59	C	-0.512582	-0.978283	-0.075063
H60	H	-0.636178	-0.592213	-0.247471
N61	N	-0.937670	-1.105361	-0.360378
N62	N	-0.961556	-1.155441	-0.325113
H63	H	-0.933889	-1.201668	-0.337559
N64	N	-0.650173	-0.890758	-1.075816
N65	N	-0.717991	-0.914562	-1.115258
H66	H	-0.767084	-0.883331	-1.140754
H67	H	-1.078492	-1.061725	-0.242713
N68	N	-1.086608	-1.012223	-0.453456
N69	N	-1.143290	-1.063485	-0.460900
H70	H	-1.170789	-1.075860	-0.507174
H71	H	-0.636227	-0.899652	-0.712714
N72	N	-0.374981	-1.065811	-1.075826
N73	N	-0.314230	-1.104462	-1.044265
H74	H	-0.265104	-1.135705	-1.069757
N75	N	-0.375063	-1.065798	-0.932957
N76	N	-0.314288	-1.104461	-0.964529
H77	H	-0.265198	-1.135705	-0.939047
N78	N	-0.375410	-0.584983	-0.413776
N79	N	-0.314705	-0.616567	-0.452476
H80	H	-0.265629	-0.591094	-0.483742
H81	H	-0.389519	-0.720530	-0.404806
H82	H	-0.636171	-0.720458	-0.247463
N83	N	-0.375135	-1.065743	-0.720066
N84	N	-0.314383	-1.104396	-0.688509
H85	H	-0.265263	-1.135641	-0.714003
N86	N	-0.375198	-1.065711	-0.577175
N87	N	-0.375227	-1.065695	-0.514062
H88	H	-0.326131	-1.096921	-0.488564
H89	H	-0.945957	-0.894625	-0.409499
H90	H	-1.079050	-0.864261	-0.295558
H91	H	-0.389563	-0.364770	-0.404820
N92	N	-0.650392	-0.890664	-0.577148
N93	N	-0.718229	-0.914461	-0.537700
H94	H	-0.767353	-0.883228	-0.512194
H95	H	-0.636128	-0.899704	-0.940237
H96	H	-0.636238	-0.236455	-0.247490
N97	N	-0.375500	-0.229202	-0.413813
N98	N	-0.375513	-0.166089	-0.413813
H99	H	-0.326486	-0.140600	-0.445098
H100	H	-0.636217	-0.364689	-0.247478
H101	H	-0.946108	-0.947613	-0.212121
