data_functionalizedCrystal
_audit_creation_method	'MofGen! by Chris Wilmer'
_symmetry_space_group_name_H-M	'P1'
_symmetry_Int_Tables_number	1
_symmetry_cell_setting	triclinic
loop_
_symmetry_equiv_pos_as_xyz
  x,y,z
_cell_length_a	6.817900
_cell_length_b	17.253917
_cell_length_c	12.200875
_cell_angle_alpha	97.954686
_cell_angle_beta	107.143593
_cell_angle_gamma	102.659311
loop_
_atom_site_label
_atom_site_type_symbol
_atom_site_fract_x
_atom_site_fract_y
_atom_site_fract_z
V1	V	-4.070544	-0.111482	-0.368567
O2	O	-4.054936	0.005169	-0.350347
O3	O	-4.023963	-0.220870	-0.376822
O4	O	-4.040235	-0.109850	-0.524395
O5	O	-4.038551	-0.106619	-0.201752
V6	V	-4.551593	-0.097520	-0.347305
O7	O	-4.337231	-0.142111	-0.415206
O8	O	-4.735103	-0.066892	-0.300667
O9	O	-4.374968	0.011868	-0.339051
O10	O	-4.684598	-0.214171	-0.365525
O11	O	-4.700983	-0.102383	-0.514121
O12	O	-4.358696	-0.099152	-0.191477
C13	C	-3.868820	-0.247534	-0.373788
C14	C	-3.912142	-0.336960	-0.381576
C15	C	-3.879811	-0.367431	-0.279057
C16	C	-3.920536	-0.451457	-0.286379
C17	C	-3.993578	-0.505011	-0.396220
C18	C	-4.025916	-0.474535	-0.498747
C19	C	-3.985205	-0.390511	-0.491425
C20	C	-4.120997	-0.757547	-0.429506
C21	C	-4.161701	-0.841576	-0.436820
C22	C	-4.056321	-0.818492	-0.224451
C23	C	-4.015602	-0.734467	-0.217138
C24	C	-4.047955	-0.703999	-0.319665
N25	N	-4.035201	-0.590899	-0.403706
N26	N	-4.006346	-0.618112	-0.312178
C27	C	-3.889576	-0.105916	-0.562031
C28	C	-3.946090	-0.105305	-0.689493
C29	C	-4.049520	-0.104188	-0.922858
C30	C	-3.991956	-0.104809	-0.792997
C31	C	-4.193452	0.038527	-0.342082
C32	C	-4.129369	0.127953	-0.334301
C33	C	-4.172696	-0.103089	-0.153835
C34	C	-4.095420	-0.103696	-0.026372
H35	H	-3.956140	-0.690868	-0.127694
C36	C	-3.885006	-0.484977	-0.173612
H37	H	-3.919747	-0.542689	-0.193702
H38	H	-3.739711	-0.463850	-0.124854
H39	H	-3.973694	-0.469080	-0.132716
C40	C	-4.020770	-0.852011	-0.111683
H41	H	-4.055493	-0.909723	-0.131771
H42	H	-3.875473	-0.830878	-0.062930
H43	H	-4.109458	-0.836119	-0.070783
C44	C	-4.106257	-0.533442	-0.619570
H45	H	-4.125852	-0.587848	-0.609249
H46	H	-4.238215	-0.527036	-0.665920
H47	H	-4.004231	-0.521788	-0.658075
C48	C	-4.020759	-0.356992	-0.604195
H49	H	-4.070071	-0.400919	-0.670661
H50	H	-4.124049	-0.327315	-0.609672
H51	H	-3.890070	-0.322073	-0.601832
H52	H	-4.147317	-0.732750	-0.512990
C53	C	-3.799492	-0.308529	-0.158231
H54	H	-3.786098	-0.338715	-0.098225
H55	H	-3.664439	-0.272644	-0.147028
H56	H	-3.898434	-0.277900	-0.154891
C57	C	-4.242057	-0.900485	-0.557651
H58	H	-4.255513	-0.870306	-0.617666
H59	H	-4.143144	-0.931120	-0.561005
H60	H	-4.377119	-0.936365	-0.568831
