data_functionalizedCrystal
_audit_creation_method	'MofGen! by Chris Wilmer'
_symmetry_space_group_name_H-M	'P1'
_symmetry_Int_Tables_number	1
_symmetry_cell_setting	triclinic
loop_
_symmetry_equiv_pos_as_xyz
  x,y,z
_cell_length_a	14.853567
_cell_length_b	17.699083
_cell_length_c	16.176319
_cell_angle_alpha	90.001389
_cell_angle_beta	89.996997
_cell_angle_gamma	96.541028
loop_
_atom_site_label
_atom_site_type_symbol
_atom_site_fract_x
_atom_site_fract_y
_atom_site_fract_z
O1	O	0.114008	-1.004375	-0.068624
O2	O	0.614008	-0.504375	0.431376
O3	O	0.128841	-0.784035	-0.068650
O4	O	0.628841	-0.284035	0.431350
O5	O	-0.009827	-0.900090	-0.068639
O6	O	0.490173	-0.400090	0.431361
O7	O	0.252676	-0.888319	-0.068635
O8	O	0.752676	-0.388319	0.431365
O9	O	-0.009836	-0.900074	0.068855
O10	O	0.490164	-0.400074	0.568855
O11	O	0.128832	-0.784019	0.068843
O12	O	0.628832	-0.284019	0.568843
O13	O	0.113999	-1.004359	0.068869
O14	O	0.613999	-0.504359	0.568869
Cu15	Cu	0.121415	-0.894187	0.081411
Cu16	Cu	0.621415	-0.394187	0.581411
Cu17	Cu	0.121425	-0.894206	-0.081191
Cu18	Cu	0.621425	-0.394206	0.418809
O19	O	0.252667	-0.888303	0.068858
O20	O	0.752667	-0.388303	0.568858
C21	C	-0.043418	-0.899549	0.000106
C22	C	0.456582	-0.399549	0.500106
C23	C	-0.143496	-0.897951	0.000098
C24	C	0.356504	-0.397951	0.500098
C25	C	0.128305	-0.755828	0.000093
C26	C	0.628305	-0.255828	0.500093
C27	C	0.126711	-0.671806	0.000083
C28	C	0.626711	-0.171806	0.500083
C29	C	0.114535	-1.032565	0.000125
C30	C	0.614535	-0.532565	0.500125
C31	C	0.116130	-1.116587	0.000129
C32	C	0.616130	-0.616587	0.500129
C33	C	-0.555751	-0.822255	0.000105
C34	C	-0.055751	-0.322255	0.500105
C35	C	-0.577539	-0.960131	0.000121
C36	C	-0.077539	-0.460131	0.500121
C37	C	-0.483511	-0.961634	0.000117
C38	C	0.016489	-0.461634	0.500117
C39	C	-0.425598	-0.893446	0.000107
C40	C	0.074402	-0.393446	0.500107
C41	C	-0.461714	-0.823756	0.000103
C42	C	0.038286	-0.323756	0.500103
C43	C	-0.447389	-1.031324	0.000129
C44	C	0.052611	-0.531324	0.500129
C45	C	-0.353355	-1.032829	0.000126
C46	C	0.146645	-0.532829	0.500126
C47	C	-0.295441	-0.964641	0.000111
C48	C	0.204559	-0.464641	0.500111
C49	C	-0.331561	-0.894947	0.000105
C50	C	0.168439	-0.394947	0.500105
C51	C	-0.273648	-0.826759	0.000096
C52	C	0.226352	-0.326759	0.500096
C53	C	-0.309767	-0.757065	0.000084
C54	C	0.190233	-0.257065	0.500084
C55	C	-0.403799	-0.755567	0.000088
C56	C	0.096201	-0.255567	0.500088
C57	C	-0.201409	-0.966139	0.000107
C58	C	0.298591	-0.466139	0.500107
C59	C	-0.179611	-0.828260	0.000094
C60	C	0.320389	-0.328260	0.500094
C61	C	0.286258	-0.888844	0.000112
C62	C	0.786258	-0.388844	0.500112
C63	C	0.386336	-0.890443	0.000114
C64	C	0.886336	-0.390443	0.500114
N65	N	0.121407	-0.894179	0.195776
N66	N	0.621407	-0.394179	0.695776
C67	C	0.208106	-0.623396	0.000084
C68	C	0.708106	-0.123396	0.500084
C69	C	0.206602	-0.544449	0.000095
C70	C	0.706602	-0.044449	0.500095
C71	C	0.123703	-0.513913	0.000098
C72	C	0.623703	-0.013913	0.500098
C73	C	0.042301	-0.562329	0.000099
C74	C	0.542301	-0.062329	0.500099
C75	C	0.043806	-0.641275	0.000095
C76	C	0.543806	-0.141275	0.500095
C77	C	0.036232	-0.243950	0.000120
C78	C	0.536232	0.256050	0.500120
C79	C	0.034734	-0.164999	0.000122
C80	C	0.534734	0.335001	0.500122
C81	C	0.199028	-0.147125	0.000120
C82	C	0.699028	0.352875	0.500120
C83	C	0.200533	-0.226070	0.000115
C84	C	0.700533	0.273930	0.500115
C85	C	0.119132	-0.274479	0.000121
C86	C	0.619132	0.225521	0.500121
C87	C	0.120763	-0.360083	0.000111
C88	C	0.620763	0.139917	0.500111
C89	C	0.122070	-0.428311	0.000102
C90	C	0.622070	0.071689	0.500102
N91	N	0.121426	-0.894220	-0.195556
N92	N	0.621426	-0.394220	0.304444
C93	C	0.060030	-0.945584	0.239045
C94	C	0.560030	-0.445584	0.739045
C95	C	0.060029	-0.945588	0.325592
C96	C	0.560029	-0.445588	0.825592
C97	C	0.121410	-0.894190	0.368868
C98	C	0.621410	-0.394190	0.868868
C99	C	0.182790	-0.842780	0.325593
C100	C	0.682790	-0.342780	0.825593
C101	C	0.182786	-0.842773	0.239048
C102	C	0.682786	-0.342773	0.739048
C103	C	0.182807	-0.842806	0.674621
C104	C	0.682807	-0.342806	1.174621
C105	C	0.182808	-0.842818	0.761173
C106	C	0.682808	-0.342818	1.261173
C107	C	0.060050	-0.945621	0.761166
C108	C	0.560050	-0.445621	1.261166
C109	C	0.060046	-0.945614	0.674620
C110	C	0.560046	-0.445614	1.174620
C111	C	0.121422	-0.894201	0.631353
C112	C	0.621422	-0.394201	1.131353
C113	C	0.121422	-0.894197	0.537508
C114	C	0.621422	-0.394197	1.037508
C115	C	0.121416	-0.894198	0.462711
C116	C	0.621416	-0.394198	0.962711
H117	H	-0.132463	-0.772732	0.000082
H118	H	0.367537	-0.272732	0.500082
H119	H	0.232765	-0.800927	0.360834
H120	H	0.732765	-0.300927	0.860834
C121	C	-0.246057	-0.682063	0.000073
C122	C	0.253943	-0.182063	0.500073
H123	H	-0.184885	-0.692943	0.000070
H124	H	0.315115	-0.192943	0.500070
H125	H	-0.256989	-0.653480	0.048013
H126	H	0.243011	-0.153480	0.548013
H127	H	-0.256983	-0.653500	-0.047887
H128	H	0.243017	-0.153500	0.452113
C129	C	-0.007477	-1.002141	0.373185
C130	C	0.492523	-0.502141	0.873185
H131	H	-0.044024	-1.032758	0.335016
H132	H	0.455976	-0.532758	0.835016
H133	H	-0.044971	-0.974889	0.406955
H134	H	0.455029	-0.474889	0.906955
H135	H	0.024922	-1.033679	0.406936
H136	H	0.524922	-0.533679	0.906936
C137	C	0.250304	-0.786231	0.191452
C138	C	0.750304	-0.286231	0.691452
H139	H	0.286868	-0.755625	0.229619
H140	H	0.786868	-0.255625	0.729619
H141	H	0.217919	-0.754691	0.157697
H142	H	0.717919	-0.254691	0.657697
H143	H	0.287794	-0.813495	0.157684
H144	H	0.787794	-0.313495	0.657684
H145	H	0.010071	-0.987482	0.796404
H146	H	0.510071	-0.487482	1.296404
H147	H	-0.585163	-0.765511	0.000092
H148	H	-0.085163	-0.265511	0.500092
C149	C	-0.007476	-1.002149	0.627021
C150	C	0.492524	-0.502149	1.127021
H151	H	-0.044037	-1.032761	0.665186
H152	H	0.455963	-0.532761	1.165186
H153	H	0.024903	-1.033684	0.593249
H154	H	0.524903	-0.533684	1.093249
H155	H	-0.044967	-0.974876	0.593270
H156	H	0.455033	-0.474876	1.093270
C157	C	-0.007491	-1.002122	0.191448
C158	C	0.492509	-0.502122	0.691448
H159	H	-0.044051	-1.032732	0.229617
H160	H	0.455949	-0.532732	0.729617
H161	H	0.024887	-1.033658	0.157679
H162	H	0.524887	-0.533658	0.657679
H163	H	-0.044985	-0.974851	0.157697
H164	H	0.455015	-0.474851	0.657697
H165	H	-0.624697	-1.015647	0.000135
H166	H	-0.124697	-0.515647	0.500135
H167	H	-0.032777	-0.140140	0.000126
H168	H	0.467223	0.359860	0.500126
C169	C	-0.048886	-0.528742	0.000102
C170	C	0.451114	-0.028742	0.500102
H171	H	-0.038126	-0.474791	0.000096
H172	H	0.461874	0.025209	0.500096
H173	H	-0.082399	-0.545353	0.048047
H174	H	0.417601	-0.045353	0.548047
H175	H	-0.082387	-0.545353	-0.047853
H176	H	0.417613	-0.045353	0.452147
C177	C	0.250314	-0.786264	0.808776
C178	C	0.750314	-0.286264	1.308776
H179	H	0.286858	-0.755635	0.770613
H180	H	0.786858	-0.255635	1.270613
H181	H	0.287811	-0.813517	0.842535
H182	H	0.787811	-0.313517	1.342535
H183	H	0.217908	-0.754737	0.842539
H184	H	0.717908	-0.254737	1.342539
C185	C	0.250326	-0.786261	0.627038
C186	C	0.750326	-0.286261	1.127038
H187	H	0.286888	-0.755659	0.665209
H188	H	0.786888	-0.255659	1.165209
H189	H	0.217945	-0.754718	0.593283
H190	H	0.717945	-0.254718	1.093283
H191	H	0.287816	-0.813525	0.593271
H192	H	0.787816	-0.313525	1.093271
H193	H	-0.172005	-1.022883	0.000122
H194	H	0.327995	-0.522883	0.500122
H195	H	-0.433216	-0.698825	0.000079
H196	H	0.066784	-0.198825	0.500079
C197	C	0.299297	-0.656979	0.000080
C198	C	0.799297	-0.156979	0.500080
H199	H	0.347556	-0.616838	0.000090
H200	H	0.847556	-0.116838	0.500090
H201	H	0.303304	-0.687403	-0.047868
H202	H	0.803304	-0.187403	0.452132
H203	H	0.303295	-0.687404	0.048032
H204	H	0.803295	-0.187404	0.548032
C205	C	-0.511087	-1.106325	0.000139
C206	C	-0.011087	-0.606325	0.500139
H207	H	-0.476111	-1.148046	0.000153
H208	H	0.023889	-0.648046	0.500153
H209	H	-0.548219	-1.108610	-0.047808
H210	H	-0.048219	-0.608610	0.452192
H211	H	-0.548224	-1.108597	0.048092
H212	H	-0.048224	-0.608597	0.548092
C213	C	-0.313628	-1.109486	0.000135
C214	C	0.186372	-0.609486	0.500135
H215	H	-0.249331	-1.100616	0.000137
H216	H	0.250669	-0.600616	0.500137
H217	H	-0.333517	-1.137574	-0.047805
H218	H	0.166483	-0.637574	0.452195
H219	H	-0.333514	-1.137556	0.048095
H220	H	0.166486	-0.637556	0.548095
C221	C	0.296137	-0.491202	0.000094
C222	C	0.796137	0.008798	0.500094
H223	H	0.345723	-0.520695	0.000081
H224	H	0.845723	-0.020695	0.500081
H225	H	0.298967	-0.460036	0.048043
H226	H	0.798967	0.039964	0.548043
H227	H	0.298965	-0.460032	-0.047857
H228	H	0.798965	0.039968	0.452143
C229	C	-0.053305	-0.297190	0.000120
C230	C	0.446695	0.202810	0.500120
H231	H	-0.102889	-0.267695	0.000114
H232	H	0.397111	0.232305	0.500114
H233	H	-0.056139	-0.328359	0.048066
H234	H	0.443861	0.171641	0.548066
H235	H	-0.056133	-0.328357	-0.047834
H236	H	0.443867	0.171643	0.452166
H237	H	0.268038	-0.250928	0.000109
H238	H	0.768038	0.249072	0.500109
C239	C	0.288569	-0.093873	0.000125
C240	C	0.788569	0.406127	0.500125
H241	H	0.275805	-0.042482	0.000138
H242	H	0.775805	0.457518	0.500138
H243	H	0.322571	-0.103136	-0.047823
H244	H	0.822571	0.396864	0.452177
H245	H	0.322565	-0.103143	0.048077
H246	H	0.822565	0.396857	0.548077
C247	C	-0.045729	-0.694526	0.000085
C248	C	0.454271	-0.194526	0.500085
H249	H	-0.095317	-0.665034	0.000079
H250	H	0.404683	-0.165034	0.500079
H251	H	-0.048563	-0.725698	0.048028
H252	H	0.451437	-0.225698	0.548028
H253	H	-0.048550	-0.725689	-0.047871
H254	H	0.451450	-0.225689	0.452129
