data_functionalizedCrystal
_audit_creation_method	'MofGen! by Chris Wilmer'
_symmetry_space_group_name_H-M	'P1'
_symmetry_Int_Tables_number	1
_symmetry_cell_setting	triclinic
loop_
_symmetry_equiv_pos_as_xyz
  x,y,z
_cell_length_a	15.944493
_cell_length_b	15.944493
_cell_length_c	15.021413
_cell_angle_alpha	89.992728
_cell_angle_beta	89.992625
_cell_angle_gamma	83.475044
loop_
_atom_site_label
_atom_site_type_symbol
_atom_site_fract_x
_atom_site_fract_y
_atom_site_fract_z
O1	O	1.114519	0.108097	0.074008
O2	O	0.869960	0.121505	0.074011
O3	O	0.998943	-0.007479	0.074017
O4	O	0.985536	0.237080	0.074003
O5	O	0.998958	-0.007471	-0.074047
O6	O	0.869975	0.121513	-0.074053
O7	O	1.114534	0.108105	-0.074056
Zn8	Zn	0.992257	0.114810	-0.097563
Zn9	Zn	0.992237	0.114800	0.097518
O10	O	0.985551	0.237088	-0.074062
C11	C	0.838673	0.120961	-0.000020
C12	C	0.745424	0.119318	-0.000018
C13	C	0.509649	0.195240	-0.000022
C14	C	0.459106	0.154302	-0.073027
C15	C	0.574704	0.116273	-0.000020
C16	C	0.459096	0.154276	0.072953
C17	C	0.409795	0.113339	-0.000018
C18	C	0.525390	0.075357	-0.073085
C19	C	0.525383	0.075342	0.072960
C20	C	0.474873	0.034346	-0.000062
C21	C	0.669704	0.117966	-0.000022
C22	C	0.314798	0.111640	-0.000022
C23	C	0.998403	-0.038769	-0.000011
C24	C	0.996760	-0.132018	0.000000
C25	C	1.072682	-0.367793	-0.000017
C26	C	1.031733	-0.418357	0.072986
C27	C	0.993716	-0.302738	-0.000011
C28	C	1.031729	-0.418325	-0.072994
C29	C	0.990781	-0.467647	-0.000025
C30	C	0.952787	-0.352073	0.073053
C31	C	0.952795	-0.352038	-0.072992
C32	C	0.911788	-0.402569	0.000029
C33	C	0.995408	-0.207739	-0.000002
C34	C	0.989082	-0.562644	-0.000028
C35	C	1.145821	0.108649	-0.000022
C36	C	1.239069	0.110292	-0.000018
C37	C	0.986091	0.268379	-0.000031
C38	C	0.987734	0.361627	-0.000037
N39	N	0.992276	0.114817	-0.230700
C40	C	1.051930	0.055161	-0.470357
C41	C	0.976032	0.038859	-0.529684
C42	C	0.992257	0.114806	-0.412307
C43	C	1.068137	0.131059	-0.529722
C44	C	0.992245	0.114794	-0.587731
C45	C	0.916320	0.098467	-0.470327
C46	C	1.008475	0.190699	-0.470361
C47	C	0.932522	0.174429	-0.529661
C48	C	0.992265	0.114811	-0.311250
C49	C	0.992228	0.114790	-0.688786
N50	N	0.992224	0.114786	0.230656
H51	H	0.430168	0.187654	-0.134750
O52	O	1.112055	-0.004977	-0.439133
C53	C	1.111735	-0.003673	-0.345281
H54	H	1.082998	0.061031	-0.321034
H55	H	1.072714	-0.054099	-0.319274
C56	C	1.238211	-0.101007	-0.340431
C57	C	1.202922	-0.021534	-0.310650
H58	H	1.294458	-0.112028	-0.319067
H59	H	1.238425	-0.101888	-0.403660
H60	H	1.205685	-0.143019	-0.318755
H61	H	1.235442	0.020477	-0.332334
H62	H	1.202715	-0.020646	-0.247423
O63	O	1.071366	-0.452926	0.146683
C64	C	1.013973	-0.494053	0.197574
H65	H	0.946720	-0.466142	0.181257
H66	H	1.022040	-0.564325	0.181207
C67	C	1.113830	-0.516038	0.317358
C68	C	1.031229	-0.481752	0.297322
H69	H	1.124476	-0.508454	0.378887
H70	H	1.152499	-0.488333	0.283070
H71	H	1.120543	-0.574595	0.303711
H72	H	1.024521	-0.423194	0.310958
H73	H	0.992560	-0.509447	0.331614
O74	O	0.559921	0.035665	-0.146767
C75	C	0.648087	0.037732	-0.145886
H76	H	0.664051	0.092472	-0.102623
H77	H	0.680141	-0.024143	-0.117655
C78	C	0.659920	-0.017605	-0.294633
C79	C	0.679528	0.049632	-0.241504
H80	H	0.679316	-0.010268	-0.353615
H81	H	0.600522	-0.019000	-0.295227
H82	H	0.686634	-0.069160	-0.271097
H83	H	0.652806	0.101185	-0.265034
H84	H	0.738922	0.051037	-0.240916
O85	O	0.424709	0.194058	0.146652
C86	C	0.489024	0.224241	0.197885
H87	H	0.552074	0.186175	0.181678
H88	H	0.492568	0.293620	0.181761
C89	C	0.391884	0.261665	0.317430
C90	C	0.469322	0.214907	0.297529
H91	H	0.379730	0.255911	0.378895
H92	H	0.348553	0.241333	0.282913
H93	H	0.394846	0.319476	0.303986
H94	H	0.466355	0.157095	0.310962
H95	H	0.512652	0.235229	0.332051
H96	H	0.843715	-0.418021	0.000070
H97	H	1.022228	0.254865	-0.444283
H98	H	1.132312	0.144811	-0.555812
O99	O	0.913093	-0.317564	0.146746
C100	C	0.915165	-0.229399	0.145873
H101	H	0.969906	-0.213424	0.102600
H102	H	0.853291	-0.197332	0.117661
C103	C	0.859831	-0.217613	0.294636
C104	C	0.927068	-0.197992	0.241492
H105	H	0.867169	-0.198238	0.353617
H106	H	0.858431	-0.277011	0.295223
H107	H	0.808276	-0.190889	0.271115
H108	H	0.978620	-0.224724	0.265007
H109	H	0.928476	-0.138598	0.240911
H110	H	0.459422	-0.033727	-0.000100
O111	O	0.872363	0.234690	-0.560580
C112	C	0.910755	0.293529	-0.612269
H113	H	0.979852	0.292145	-0.592215
H114	H	0.906608	0.276531	-0.685730
C115	C	0.780091	0.384332	-0.621215
C116	C	0.864955	0.382637	-0.596580
H117	H	0.751838	0.439297	-0.611541
H118	H	0.754224	0.344690	-0.586394
H119	H	0.776646	0.370162	-0.682431
H120	H	0.868399	0.396796	-0.535362
H121	H	0.890822	0.422284	-0.631390
H122	H	0.525258	0.263261	-0.000095
H123	H	0.554330	0.042015	0.134687
O124	O	0.959795	-0.037770	-0.560739
C125	C	1.022848	-0.100470	-0.530512
H126	H	1.082439	-0.070357	-0.513876
H127	H	0.999606	-0.131840	-0.468409
C128	C	0.969430	-0.204249	-0.624293
C129	C	1.042624	-0.167264	-0.603867
H130	H	0.981627	-0.245453	-0.669539
H131	H	0.926948	-0.162008	-0.644655
H132	H	0.950070	-0.230385	-0.572534
H133	H	1.061977	-0.141121	-0.655622
H134	H	1.085110	-0.209503	-0.583515
O135	O	0.913058	-0.317611	-0.146690
C136	C	0.884237	-0.382067	-0.198808
H137	H	0.923066	-0.444776	-0.182882
H138	H	0.814929	-0.386776	-0.183325
C139	C	0.846234	-0.284382	-0.317728
C140	C	0.893930	-0.361402	-0.298173
H141	H	0.852209	-0.271634	-0.379021
H142	H	0.865648	-0.240956	-0.282614
H143	H	0.788482	-0.288317	-0.304819
H144	H	0.951681	-0.357463	-0.311071
H145	H	0.874526	-0.404827	-0.333291
O146	O	1.153829	-0.349167	0.000241
C147	C	1.195155	-0.383108	0.077358
H148	H	1.146366	-0.392440	0.130871
H149	H	1.232384	-0.446482	0.060705
C150	C	1.315834	-0.310505	0.046077
C151	C	1.255912	-0.321960	0.111806
H152	H	1.353315	-0.272789	0.067325
H153	H	1.287994	-0.287641	-0.005880
H154	H	1.346850	-0.363322	0.032206
H155	H	1.224891	-0.269146	0.125668
H156	H	1.283748	-0.344814	0.163766
O157	O	1.071651	-0.452756	-0.146598
C158	C	1.156415	-0.435420	-0.146304
H159	H	1.162518	-0.377349	-0.103567
H160	H	1.198175	-0.491841	-0.117809
C161	C	1.176853	-0.490035	-0.294699
C162	C	1.184348	-0.418707	-0.242214
H163	H	1.194086	-0.479729	-0.353860
H164	H	1.119747	-0.501718	-0.294896
H165	H	1.211653	-0.537046	-0.270942
H166	H	1.149540	-0.371700	-0.265964
H167	H	1.241449	-0.407016	-0.242023
O168	O	0.839678	0.082112	-0.439391
C169	C	0.776846	0.144683	-0.470338
H170	H	0.806739	0.204316	-0.487365
H171	H	0.745847	0.120822	-0.532350
C172	C	0.672989	0.091467	-0.376459
C173	C	0.709704	0.164712	-0.397365
H174	H	0.631570	0.103820	-0.331449
H175	H	0.715319	0.049310	-0.355611
H176	H	0.647163	0.071590	-0.428142
H177	H	0.735538	0.184582	-0.345686
H178	H	0.667376	0.206873	-0.418202
