data_functionalizedCrystal
_audit_creation_method	'MofGen! by Chris Wilmer'
_symmetry_space_group_name_H-M	'P1'
_symmetry_Int_Tables_number	1
_symmetry_cell_setting	triclinic
loop_
_symmetry_equiv_pos_as_xyz
  x,y,z
_cell_length_a	12.837943
_cell_length_b	14.971486
_cell_length_c	14.048226
_cell_angle_alpha	90.006640
_cell_angle_beta	89.994688
_cell_angle_gamma	90.778466
loop_
_atom_site_label
_atom_site_type_symbol
_atom_site_fract_x
_atom_site_fract_y
_atom_site_fract_z
O1	O	1.375745	-0.232554	-0.079149
O2	O	1.073925	-0.221066	-0.079154
O3	O	1.232924	-0.097292	-0.079145
O4	O	1.216745	-0.356328	-0.079159
O5	O	1.232905	-0.097282	0.079177
O6	O	1.073906	-0.221056	0.079167
O7	O	1.375726	-0.232544	0.079172
Zn8	Zn	1.224813	-0.226799	0.104307
Zn9	Zn	1.224838	-0.226811	-0.104289
O10	O	1.216726	-0.356318	0.079163
C11	C	1.035290	-0.217180	0.000006
C12	C	0.920199	-0.205606	0.000005
C13	C	1.232191	-0.063901	0.000016
C14	C	1.230023	0.035579	0.000015
C15	C	1.414361	-0.236430	0.000010
C16	C	1.529452	-0.248004	0.000005
C17	C	1.770238	-0.108862	0.000022
C18	C	1.878377	-0.119732	0.000018
C19	C	1.853872	-0.280615	-0.000001
C20	C	1.745733	-0.269744	0.000003
C21	C	1.703920	-0.183865	0.000013
C22	C	1.595779	-0.172995	0.000011
C23	C	1.571275	-0.333877	-0.000001
C24	C	1.679415	-0.344748	-0.000006
C25	C	1.217459	-0.389709	0.000000
C26	C	1.219628	-0.489189	-0.000005
N27	N	1.224803	-0.226790	0.246667
C28	C	1.323431	0.084929	0.000017
C29	C	1.321387	0.178400	0.000007
C30	C	1.225935	0.222520	0.000002
C31	C	1.132520	0.173164	-0.000003
C32	C	1.134564	0.079694	0.000000
C33	C	1.128265	0.367985	-0.000006
C34	C	1.126220	0.461461	-0.000007
C35	C	1.315088	0.466692	0.000001
C36	C	1.317132	0.373222	0.000004
C37	C	1.223717	0.323871	0.000001
N38	N	1.224856	-0.226814	-0.246649
C39	C	1.295230	-0.172010	0.296489
C40	C	1.295237	-0.172010	0.396147
C41	C	1.224821	-0.226796	0.445981
C42	C	1.154387	-0.281578	0.396152
C43	C	1.154375	-0.281573	0.296496
C44	C	1.154416	-0.281587	0.603866
C45	C	1.154429	-0.281594	0.703529
C46	C	1.295278	-0.172024	0.703517
C47	C	1.295267	-0.172019	0.603861
C48	C	1.224833	-0.226803	0.554039
H49	H	1.561737	-0.103067	0.000016
H50	H	1.887936	-0.350535	-0.000001
H51	H	1.517267	-0.394950	-0.000009
H52	H	1.932370	-0.058656	0.000026
H53	H	1.713474	-0.414669	-0.000011
H54	H	1.397450	0.218577	0.000011
C55	C	1.372724	-0.111757	0.549039
C56	C	1.452033	-0.153510	0.480504
C57	C	1.529488	-0.093246	0.425680
C58	C	1.527633	0.008771	0.439392
C59	C	1.448320	0.050530	0.507930
C60	C	1.370865	-0.009734	0.562753
H61	H	1.453410	-0.229035	0.470352
H62	H	1.588201	-0.124160	0.374944
H63	H	1.584969	0.053382	0.398808
H64	H	1.446944	0.126054	0.518082
H65	H	1.312153	0.021179	0.613490
H66	H	1.401159	0.049013	0.000027
C67	C	1.025509	0.313696	-0.000009
C68	C	0.947329	0.324375	-0.082220
C69	C	0.844577	0.270084	-0.082219
C70	C	0.820006	0.205115	-0.000006
C71	C	0.898188	0.194433	0.082211
C72	C	1.000940	0.248723	0.082210
H73	H	0.965516	0.372472	-0.143085
H74	H	0.786702	0.277992	-0.143082
H75	H	0.743943	0.164926	-0.000005
H76	H	0.880001	0.146336	0.143076
H77	H	1.058815	0.240815	0.143073
C78	C	1.724234	-0.014400	0.000030
C79	C	1.749200	0.050473	0.082246
C80	C	1.703196	0.144936	0.082254
C81	C	1.632226	0.174526	0.000046
C82	C	1.607256	0.109652	-0.082176
C83	C	1.653260	0.015189	-0.082184
H84	H	1.801739	0.028570	0.143107
H85	H	1.721681	0.192960	0.143121
H86	H	1.598172	0.244453	0.000052
H87	H	1.554717	0.131555	-0.143036
H88	H	1.634775	-0.032835	-0.143050
C89	C	1.372691	-0.111743	0.241678
C90	C	1.450154	-0.051482	0.296487
C91	C	1.527614	0.008789	0.241678
C92	C	1.527611	0.008799	0.132061
C93	C	1.450145	-0.051464	0.077245
C94	C	1.372684	-0.111735	0.132054
H95	H	1.450159	-0.051487	0.377638
H96	H	1.584960	0.053400	0.282257
H97	H	1.584952	0.053415	0.091488
H98	H	1.450140	-0.051459	-0.003906
H99	H	1.315339	-0.156346	0.091475
H100	H	1.352583	-0.127403	0.436712
H101	H	1.394858	0.337302	0.000015
C102	C	1.076963	-0.341853	0.758343
C103	C	0.999482	-0.402101	0.703538
C104	C	0.922014	-0.462361	0.758350
C105	C	0.922025	-0.462373	0.867967
C106	C	0.999508	-0.402123	0.922779
C107	C	1.076977	-0.341863	0.867967
H108	H	0.999471	-0.402094	0.622387
H109	H	0.864655	-0.506963	0.717774
H110	H	0.864678	-0.506981	0.908543
H111	H	0.999520	-0.402130	1.003930
H112	H	1.134335	-0.297262	0.908542
H113	H	1.391150	0.506877	0.000001
H114	H	1.097047	-0.326182	0.436732
H115	H	1.048494	0.497381	0.000004
H116	H	1.058502	0.039514	-0.000002
H117	H	1.054801	0.209093	-0.000013
H118	H	1.352627	-0.127417	0.744088
H119	H	1.097058	-0.326195	0.563304
H120	H	1.097025	-0.326179	0.255932
