data_functionalizedCrystal
_audit_creation_method	'MofGen! by Chris Wilmer'
_symmetry_space_group_name_H-M	'P1'
_symmetry_Int_Tables_number	1
_symmetry_cell_setting	triclinic
loop_
_symmetry_equiv_pos_as_xyz
  x,y,z
_cell_length_a	16.120530
_cell_length_b	21.295417
_cell_length_c	21.295396
_cell_angle_alpha	89.894091
_cell_angle_beta	87.031779
_cell_angle_gamma	87.125778
loop_
_atom_site_label
_atom_site_type_symbol
_atom_site_fract_x
_atom_site_fract_y
_atom_site_fract_z
Zn1	Zn	1.274946	-0.298975	-0.404663
Zn2	Zn	1.274712	-0.404373	-0.299379
Zn3	Zn	1.135407	-0.293787	-0.294072
Zn4	Zn	1.135472	-0.398870	-0.399287
O5	O	1.205134	-0.349001	-0.349350
O6	O	1.391585	-0.317430	-0.395168
O7	O	1.256108	-0.389835	-0.210580
O8	O	1.153989	-0.206389	-0.308771
O9	O	1.391413	-0.394865	-0.317816
O10	O	1.256507	-0.210200	-0.390022
O11	O	1.153762	-0.308588	-0.206681
O12	O	1.018746	-0.303253	-0.303558
O13	O	1.154098	-0.385486	-0.488094
O14	O	1.018793	-0.380456	-0.380859
O15	O	1.256569	-0.312094	-0.492044
O16	O	1.256170	-0.491729	-0.312603
O17	O	1.153871	-0.487686	-0.386005
C18	C	0.988518	-0.340695	-0.341050
C19	C	0.895849	-0.337157	-0.337514
C20	C	0.726181	-0.330682	-0.331063
C21	C	0.684928	-0.367367	-0.367683
C22	C	0.590519	-0.363764	-0.364094
C23	C	0.820599	-0.334284	-0.334651
C24	C	1.205025	-0.512549	-0.349311
C25	C	1.205055	-0.582518	-0.349318
C26	C	1.258369	-0.617470	-0.311141
C27	C	1.258408	-0.683214	-0.311157
C28	C	1.205118	-0.714003	-0.349342
C29	C	1.151799	-0.679042	-0.387527
C30	C	1.151768	-0.613299	-0.387515
N31	N	1.132189	-0.814470	-0.351347
N32	N	1.132221	-0.876922	-0.351355
C33	C	1.205211	-0.912081	-0.349382
N34	N	1.278169	-0.882427	-0.347389
N35	N	1.278136	-0.819969	-0.347378
C36	C	1.205147	-0.785289	-0.349360
C37	C	1.258573	-1.018321	-0.311220
C38	C	1.258613	-1.084066	-0.311240
C39	C	1.151997	-1.079892	-0.387607
C40	C	1.151964	-1.014148	-0.387591
C41	C	1.205251	-0.983367	-0.349394
C42	C	1.422596	-0.357340	-0.357683
C43	C	1.515265	-0.360894	-0.361235
C44	C	1.205367	-0.348755	-0.513550
C45	C	1.205466	-0.348650	-0.583522
C46	C	1.205267	-0.184816	-0.349404
C47	C	1.205323	-0.114850	-0.349427
C48	C	1.204950	-0.349202	-0.185791
C49	C	1.205013	-0.349136	-0.115825
C50	C	1.258406	-0.310170	0.381401
C51	C	1.258347	-0.310225	0.315661
C52	C	1.205358	-0.348773	0.285000
C53	C	1.152408	-0.387256	0.320085
C54	C	1.152462	-0.387194	0.385824
N55	N	1.199362	-0.403778	0.182173
N56	N	1.199315	-0.403834	0.119723
C57	C	1.205190	-0.348958	0.086932
N58	N	1.211129	-0.294023	0.118949
N59	N	1.211180	-0.293968	0.181404
C60	C	1.205293	-0.348843	0.213717
C61	C	1.258068	-0.310535	-0.019428
C62	C	1.258004	-0.310589	-0.085169
C63	C	1.152069	-0.387625	-0.080744
C64	C	1.152129	-0.387565	-0.015004
C65	C	1.205133	-0.349021	0.015650
H66	H	1.301826	-0.711678	-0.280068
O67	O	1.309641	-0.273184	0.010377
C68	C	1.363824	-0.310772	0.046366
H69	H	1.369387	-0.360553	0.026471
H70	H	1.338113	-0.312048	0.097216
C71	C	1.443394	-0.221718	0.068295
C72	C	1.450232	-0.282859	0.043857
H73	H	1.496694	-0.204500	0.066751
H74	H	1.406888	-0.196394	0.044052
H75	H	1.421965	-0.222790	0.110669
H76	H	1.471650	-0.281786	0.001483
H77	H	1.486744	-0.308183	0.068094
O78	O	0.727464	-0.407983	-0.408334
C79	C	0.777918	-0.374035	-0.450952
H80	H	0.790852	-0.326812	-0.429325
H81	H	0.744508	-0.365872	-0.496371
C82	C	0.844805	-0.469770	-0.491931
C83	C	0.860697	-0.411772	-0.465366
H84	H	0.895866	-0.493048	-0.500824
H85	H	0.810811	-0.492641	-0.463220
H86	H	0.816962	-0.462959	-0.529776
H87	H	0.888530	-0.418583	-0.427517
H88	H	0.894697	-0.388902	-0.494071
O89	O	1.309510	-0.273189	-0.119150
C90	C	1.356287	-0.239148	-0.077993
H91	H	1.359437	-0.264993	-0.031184
H92	H	1.325350	-0.190311	-0.069907
C93	C	1.441049	-0.201277	-0.164681
C94	C	1.444924	-0.233023	-0.107191
H95	H	1.495723	-0.197496	-0.182692
H96	H	1.409533	-0.224209	-0.192410
H97	H	1.415265	-0.160583	-0.157935
H98	H	1.470698	-0.273718	-0.113939
H99	H	1.476447	-0.210098	-0.079464
O100	O	1.100679	-0.425058	-0.110621
C101	C	1.111968	-0.416851	-0.176166
H102	H	1.176116	-0.398346	-0.187744
H103	H	1.062201	-0.381715	-0.192948
C104	C	1.026084	-0.503074	-0.195236
C105	C	1.104875	-0.480351	-0.209456
H106	H	1.021705	-0.542243	-0.215772
H107	H	1.018475	-0.508603	-0.151077
H108	H	0.984620	-0.473789	-0.209221
H109	H	1.146336	-0.509632	-0.195464
H110	H	1.112490	-0.474829	-0.253613
O111	O	1.100091	-0.579319	-0.424672
C112	C	1.147553	-0.542980	-0.467157
H113	H	1.213229	-0.565253	-0.473607
H114	H	1.150392	-0.493303	-0.447793
C115	C	1.026179	-0.512947	-0.523091
C116	C	1.106842	-0.540306	-0.531017
H117	H	1.001066	-0.511295	-0.562482
H118	H	0.994202	-0.537427	-0.494466
H119	H	1.028557	-0.471552	-0.506952
H120	H	1.104462	-0.581702	-0.547148
H121	H	1.138817	-0.515832	-0.559646
O122	O	0.683698	-0.290079	-0.290376
C123	C	0.633216	-0.324037	-0.247787
H124	H	0.659490	-0.374597	-0.244789
H125	H	0.567294	-0.323742	-0.264793
C126	C	0.599357	-0.231131	-0.186024
C127	C	0.631632	-0.293228	-0.182338
H128	H	0.598377	-0.212126	-0.145652
H129	H	0.633365	-0.208252	-0.214718
H130	H	0.544425	-0.230894	-0.200198
H131	H	0.686567	-0.293464	-0.168172
H132	H	0.597633	-0.316106	-0.153640
O133	O	1.100737	-0.424893	0.019169
C134	C	1.112164	-0.416587	0.083765
H135	H	1.139049	-0.368881	0.091543
H136	H	1.156906	-0.455379	0.100752
C137	C	0.994867	-0.478147	0.111321
C138	C	1.027882	-0.419551	0.120874
H139	H	0.942880	-0.479978	0.134213
H140	H	0.987170	-0.483745	0.067802
H141	H	1.032160	-0.510467	0.125477
H142	H	0.990594	-0.387232	0.106711
H143	H	1.035570	-0.413947	0.164393
H144	H	1.108411	-0.704114	-0.418620
O145	O	1.310414	-0.988515	-0.274103
C146	C	1.357471	-1.033467	-0.240400
H147	H	1.360396	-1.080386	-0.266309
H148	H	1.326925	-1.039411	-0.191405
C149	C	1.442595	-0.953534	-0.202951
C150	C	1.446193	-1.011159	-0.234775
H151	H	1.497321	-0.939773	-0.199478
H152	H	1.410890	-0.923248	-0.225655
H153	H	1.417136	-0.958495	-0.162125
H154	H	1.471641	-1.006195	-0.275603
H155	H	1.477904	-1.041443	-0.212078
O156	O	1.100260	-1.109890	-0.424646
C157	C	1.111738	-1.175413	-0.416486
H158	H	1.139027	-1.185518	-0.368969
H159	H	1.156162	-1.195661	-0.455556
C160	C	0.993884	-1.193573	-0.477343
C161	C	1.027395	-1.205984	-0.418980
H162	H	0.941858	-1.212432	-0.478885
H163	H	0.986152	-1.149429	-0.482843
H164	H	1.030912	-1.210447	-0.509896
H165	H	0.990371	-1.189103	-0.386430
H166	H	1.035118	-1.250126	-0.413475
O167	O	1.310217	-0.587671	-0.274027
C168	C	1.357270	-0.632624	-0.240324
H169	H	1.360182	-0.679545	-0.266228
H170	H	1.326728	-0.638560	-0.191326
C171	C	1.442415	-0.552697	-0.202889
C172	C	1.445997	-0.610325	-0.234707
H173	H	1.497145	-0.538942	-0.199422
H174	H	1.410713	-0.522411	-0.225594
H175	H	1.416959	-0.557652	-0.162061
H176	H	1.471442	-0.605368	-0.275537
H177	H	1.477706	-0.640611	-0.212009
H178	H	1.109261	-0.418639	0.295116
O179	O	1.100086	-0.980286	-0.424687
C180	C	1.053072	-1.021555	-0.458406
H181	H	1.050201	-1.068363	-0.432520
H182	H	1.083620	-1.029598	-0.507407
C183	C	0.967853	-0.935053	-0.495810
C184	C	0.964322	-0.992541	-0.464013
H185	H	0.913109	-0.917155	-0.499272
H186	H	0.999529	-0.907248	-0.473095
H187	H	0.993314	-0.941763	-0.536641
H188	H	0.938871	-0.985829	-0.423181
H189	H	0.932639	-1.020344	-0.486722
H190	H	1.302034	-1.112524	-0.280153
O191	O	1.309912	-0.272666	0.411079
C192	C	1.356641	-0.238725	0.366017
H193	H	1.322435	-0.235467	0.320503
H194	H	1.420155	-0.263875	0.356575
C195	C	1.410105	-0.176079	0.446930
C196	C	1.368089	-0.172073	0.391030
H197	H	1.417171	-0.134966	0.462360
H198	H	1.378626	-0.198947	0.477290
H199	H	1.463029	-0.197040	0.439054
H200	H	1.315162	-0.151120	0.398908
H201	H	1.399560	-0.149200	0.360672
O202	O	1.309660	-0.272777	0.281554
C203	C	1.261816	-0.230590	0.245292
H204	H	1.196136	-0.224511	0.267695
H205	H	1.259068	-0.250016	0.195634
C206	C	1.382657	-0.173943	0.214983
C207	C	1.301990	-0.166472	0.242502
H208	H	1.407439	-0.134393	0.213258
H209	H	1.414891	-0.202366	0.239411
H210	H	1.380355	-0.190133	0.173604
H211	H	1.304293	-0.150289	0.283882
H212	H	1.269756	-0.138044	0.218080
H213	H	1.109348	-0.418529	0.414383
