data_functionalizedCrystal
_audit_creation_method	'MofGen! by Chris Wilmer'
_symmetry_space_group_name_H-M	'P1'
_symmetry_Int_Tables_number	1
_symmetry_cell_setting	triclinic
loop_
_symmetry_equiv_pos_as_xyz
  x,y,z
_cell_length_a	42.795290
_cell_length_b	42.779590
_cell_length_c	42.784893
_cell_angle_alpha	89.989493
_cell_angle_beta	120.000850
_cell_angle_gamma	120.011923
loop_
_atom_site_label
_atom_site_type_symbol
_atom_site_fract_x
_atom_site_fract_y
_atom_site_fract_z
O1	O	0.223590	-0.266463	0.009302
O2	O	0.159615	-0.221000	-0.009250
O3	O	0.223599	-0.221000	0.054750
O4	O	0.159605	-0.266464	-0.054699
O5	O	0.275580	-0.169005	0.054745
O6	O	0.211596	-0.169005	-0.009255
O7	O	0.275571	-0.214468	0.009297
Cu8	Cu	0.248330	-0.186989	0.000021
Cu9	Cu	0.186856	-0.248479	0.000026
O10	O	0.211586	-0.214469	-0.054703
C11	C	0.051002	-0.022785	-0.028109
C12	C	0.069624	-0.041774	-0.028376
C13	C	-0.005599	-0.079399	-0.028113
C14	C	0.013109	-0.098301	-0.028380
C15	C	0.050985	-0.079399	-0.028115
C16	C	0.013126	-0.041773	-0.028375
C17	C	0.095839	0.113737	-0.017851
C18	C	0.116556	0.152399	-0.014951
C19	C	0.155281	0.171793	-0.013496
C20	C	0.177751	0.213715	-0.010345
C21	C	0.173285	0.152522	-0.014944
C22	C	0.152564	0.113862	-0.017850
C23	C	0.113839	0.094469	-0.019303
C24	C	0.152873	-0.113972	-0.017874
C25	C	0.173700	-0.131792	-0.014979
C26	C	0.155811	-0.169076	-0.013526
C27	C	0.178392	-0.188398	-0.010382
C28	C	0.117089	-0.188541	-0.014973
C29	C	0.096259	-0.170725	-0.017875
C30	C	0.114158	-0.133436	-0.019323
C31	C	-0.131817	-0.113971	-0.017867
C32	C	-0.167565	-0.131789	-0.014965
C33	C	-0.185506	-0.169074	-0.013514
C34	C	-0.224265	-0.188395	-0.010367
C35	C	-0.167697	-0.188538	-0.014961
C36	C	-0.131950	-0.170719	-0.017860
C37	C	-0.114014	-0.133435	-0.019317
C38	C	0.091376	0.052549	-0.022450
C39	C	0.073469	0.019135	-0.024959
C40	C	-0.044357	-0.098718	-0.024967
C41	C	-0.075253	-0.114118	-0.022461
C42	C	0.073569	-0.098719	-0.024970
C43	C	0.091571	-0.114118	-0.022465
O44	O	-0.327856	-0.266458	-0.054697
O45	O	-0.236967	-0.221011	0.054753
O46	O	-0.236963	-0.221000	-0.009244
O47	O	-0.327860	-0.266470	0.009300
O48	O	-0.236949	-0.169002	-0.009239
O49	O	-0.236953	-0.169014	0.054758
O50	O	-0.327841	-0.214461	-0.054692
Cu51	Cu	-0.282396	-0.186989	0.000034
Cu52	Cu	-0.282413	-0.248483	0.000028
O53	O	-0.327846	-0.214472	0.009305
C54	C	0.050917	-0.356303	-0.361550
C55	C	0.013039	-0.393926	-0.380444
C56	C	0.050917	-0.356303	-0.304952
C57	C	0.013039	-0.393927	-0.323932
C58	C	-0.005678	-0.412913	-0.361546
C59	C	0.069549	-0.337402	-0.323936
C60	C	0.152837	-0.264603	-0.396117
C61	C	0.173673	-0.246659	-0.413932
C62	C	0.155788	-0.266003	-0.451206
C63	C	0.178382	-0.246551	-0.470522
C64	C	0.117064	-0.303291	-0.470664
C65	C	0.096228	-0.321230	-0.452850
C66	C	0.114116	-0.301885	-0.415575
C67	C	-0.131914	-0.549430	-0.453215
C68	C	-0.167667	-0.588090	-0.471153
C69	C	-0.185602	-0.607485	-0.451813
C70	C	-0.224363	-0.649404	-0.471256
C71	C	-0.167783	-0.588216	-0.414534
C72	C	-0.132037	-0.549556	-0.396600
C73	C	-0.114102	-0.530165	-0.415945
C74	C	0.152835	-0.264605	-0.168471
C75	C	0.173674	-0.246663	-0.129819
C76	C	0.155789	-0.266007	-0.110428
C77	C	0.178382	-0.246556	-0.068519
C78	C	0.117068	-0.303294	-0.129690
C79	C	0.096232	-0.321234	-0.168340
C80	C	0.114118	-0.301885	-0.187729
C81	C	0.091522	-0.321342	-0.396260
C82	C	0.073512	-0.336849	-0.380864
C83	C	0.073511	-0.336850	-0.263044
C84	C	0.091521	-0.321343	-0.229639
C85	C	-0.044440	-0.454832	-0.380992
C86	C	-0.075337	-0.488245	-0.396494
C87	C	0.384206	-0.412671	0.028195
C88	C	0.422080	-0.393685	0.028458
C89	C	0.384216	-0.356061	0.028189
C90	C	0.422091	-0.337160	0.028452
C91	C	0.440801	-0.356061	0.028190
C92	C	0.365581	-0.393684	0.028457
C93	C	0.282279	-0.549187	0.017961
C94	C	0.261440	-0.587847	0.015067
C95	C	0.279317	-0.607241	0.013615
C96	C	0.256719	-0.649161	0.010471
C97	C	0.318038	-0.587971	0.015060
C98	C	0.338877	-0.549313	0.017958
C99	C	0.320996	-0.529921	0.019409
C100	C	0.567016	-0.321494	0.017940
C101	C	0.602765	-0.303676	0.015042
C102	C	0.620703	-0.266395	0.013582
C103	C	0.659460	-0.247075	0.010434
C104	C	0.602892	-0.246930	0.015026
C105	C	0.567149	-0.264745	0.017932
C106	C	0.549212	-0.302031	0.019386
C107	C	0.282322	-0.321491	0.017938
C108	C	0.261490	-0.303674	0.015034
C109	C	0.279378	-0.266391	0.013576
C110	C	0.256792	-0.247071	0.010426
C111	C	0.318095	-0.246928	0.015019
C112	C	0.338924	-0.264747	0.017921
C113	C	0.321036	-0.302028	0.019384
C114	C	0.343594	-0.488003	0.022548
C115	C	0.361608	-0.454589	0.025052
C116	C	0.361630	-0.336743	0.025040
C117	C	0.343626	-0.321344	0.022532
C118	C	0.479558	-0.336744	0.025041
C119	C	0.510452	-0.321346	0.022533
O120	O	0.275486	0.337016	0.009341
O121	O	0.211472	0.227538	-0.009214
O122	O	0.275469	0.291544	0.054788
O123	O	0.211488	0.273010	-0.054661
O124	O	0.223499	0.291545	0.054789
O125	O	0.159501	0.227538	-0.009212
O126	O	0.223516	0.337017	0.009342
Cu127	Cu	0.186763	0.282278	0.000065
Cu128	Cu	0.248224	0.282277	0.000063
O129	O	0.159518	0.273011	-0.054659
O130	O	-0.327957	-0.772703	-0.496796
O131	O	-0.237053	-0.663227	-0.451350
O132	O	-0.237065	-0.727240	-0.451345
O133	O	-0.327945	-0.708689	-0.496801
O134	O	-0.237064	-0.727239	-0.503329
O135	O	-0.237052	-0.663226	-0.503334
O136	O	-0.327956	-0.772701	-0.548780
Cu137	Cu	-0.282504	-0.717963	-0.530803
Cu138	Cu	-0.282505	-0.717965	-0.469327
O139	O	-0.327944	-0.708688	-0.548785
O140	O	0.223600	-0.220999	-0.548571
O141	O	0.159608	-0.266461	-0.503115
O142	O	0.223592	-0.266461	-0.503114
O143	O	0.159616	-0.220999	-0.548572
O144	O	0.275574	-0.214466	-0.451134
O145	O	0.211590	-0.214465	-0.451135
O146	O	0.275582	-0.169003	-0.496591
Cu147	Cu	0.248332	-0.186987	-0.469117
Cu148	Cu	0.186858	-0.248477	-0.530589
O149	O	0.211598	-0.169003	-0.496592
C150	C	0.440622	-0.022797	0.361593
C151	C	0.421904	-0.041784	0.380491
C152	C	0.384026	-0.079408	0.304998
C153	C	0.365394	-0.098309	0.323983
C154	C	0.384026	-0.079408	0.361597
C155	C	0.421904	-0.041785	0.323979
C156	C	0.566857	0.113719	0.396143
C157	C	0.602611	0.152379	0.413955
C158	C	0.620545	0.171773	0.451229
C159	C	0.659306	0.213693	0.470540
C160	C	0.602727	0.152503	0.470691
C161	C	0.566980	0.113845	0.452881
C162	C	0.549045	0.094453	0.415606
C163	C	0.339223	-0.113977	0.453278
C164	C	0.318512	-0.131795	0.471220
C165	C	0.279785	-0.169076	0.451884
C166	C	0.257323	-0.188397	0.471331
C167	C	0.261771	-0.188541	0.414606
C168	C	0.282485	-0.170726	0.396668
C169	C	0.321212	-0.133440	0.416008
C170	C	0.339222	-0.113977	0.168514
C171	C	0.318508	-0.131794	0.129862
C172	C	0.279781	-0.169077	0.110475
C173	C	0.257319	-0.188397	0.068566
C174	C	0.261767	-0.188540	0.129741
C175	C	0.282481	-0.170722	0.168391
C176	C	0.321211	-0.133440	0.187776
C177	C	0.510281	0.052534	0.396295
C178	C	0.479383	0.019121	0.380903
C179	C	0.361567	-0.098726	0.263091
C180	C	0.343667	-0.114124	0.229686
C181	C	0.361568	-0.098726	0.381047
C182	C	0.343667	-0.114124	0.396553
C183	C	0.050985	-0.079204	0.361597
C184	C	0.069624	-0.041581	0.380495
C185	C	-0.005600	-0.079198	0.305004
C186	C	0.013125	-0.041575	0.323988
C187	C	0.051001	-0.022591	0.361602
C188	C	0.013109	-0.098102	0.323983
C189	C	0.095756	-0.170911	0.396145
C190	C	0.116458	-0.188858	0.413955
C191	C	0.155183	-0.169518	0.451228
C192	C	0.177636	-0.188973	0.470539
C193	C	0.173204	-0.132230	0.470691
C194	C	0.152499	-0.114288	0.452882
C195	C	0.113774	-0.133630	0.415607
C196	C	0.152939	0.113921	0.453283
C197	C	0.173782	0.152580	0.471225
C198	C	0.155909	0.171979	0.451890
C199	C	0.178508	0.213897	0.471338
C200	C	0.117187	0.152713	0.414612
C201	C	0.096341	0.114053	0.396674
C202	C	0.114224	0.094659	0.416014
C203	C	-0.131836	-0.170885	0.168520
C204	C	-0.167584	-0.188823	0.129868
C205	C	-0.185510	-0.169476	0.110482
C206	C	-0.224269	-0.188924	0.068573
C207	C	-0.167684	-0.132190	0.129748
C208	C	-0.131936	-0.114253	0.168398
C209	C	-0.114017	-0.133605	0.187783
C210	C	0.091328	-0.114171	0.396298
C211	C	0.073434	-0.098661	0.380906
C212	C	-0.044359	-0.098647	0.263096
C213	C	-0.075255	-0.114151	0.229692
C214	C	0.073603	0.019327	0.381053
C215	C	0.091619	0.052740	0.396558
C216	C	-0.615809	-0.412636	-0.361541
C217	C	-0.634433	-0.393646	-0.380434
C218	C	-0.559209	-0.356030	-0.304942
C219	C	-0.577918	-0.337126	-0.323922
C220	C	-0.615794	-0.356023	-0.361535
C221	C	-0.577933	-0.393653	-0.323927
C222	C	-0.660643	-0.549154	-0.396110
C223	C	-0.681360	-0.587814	-0.413926
C224	C	-0.720086	-0.607204	-0.451200
C225	C	-0.742555	-0.649124	-0.470516
C226	C	-0.738091	-0.587931	-0.470657
C227	C	-0.717371	-0.549273	-0.452842
C228	C	-0.678645	-0.529885	-0.415567
C229	C	-0.717685	-0.321442	-0.453200
C230	C	-0.738513	-0.303621	-0.471136
C231	C	-0.720624	-0.266340	-0.451796
C232	C	-0.743206	-0.247016	-0.471238
C233	C	-0.681902	-0.246879	-0.414518
C234	C	-0.661072	-0.264697	-0.396585
C235	C	-0.678970	-0.301982	-0.415930
C236	C	-0.432988	-0.321475	-0.168464
C237	C	-0.397240	-0.303662	-0.129813
C238	C	-0.379299	-0.266379	-0.110421
C239	C	-0.340540	-0.247064	-0.068512
C240	C	-0.397109	-0.246913	-0.129681
C241	C	-0.432857	-0.264728	-0.168332
C242	C	-0.450792	-0.302009	-0.187721
C243	C	-0.656182	-0.487967	-0.396252
C244	C	-0.638276	-0.454554	-0.380856
C245	C	-0.520450	-0.336716	-0.263035
C246	C	-0.489554	-0.321321	-0.229630
C247	C	-0.638379	-0.336702	-0.380980
C248	C	-0.656382	-0.321302	-0.396481
C249	C	0.384121	0.310377	0.361633
C250	C	0.421990	0.310638	0.380529
C251	C	0.384126	0.310386	0.305037
C252	C	0.421995	0.310647	0.324019
C253	C	0.440706	0.310376	0.361633
C254	C	0.365497	0.310648	0.324020
C255	C	0.282216	0.300123	0.396194
C256	C	0.261381	0.297222	0.414007
C257	C	0.279259	0.295761	0.451281
C258	C	0.256667	0.292609	0.470595
C259	C	0.317974	0.297204	0.470740
C260	C	0.338809	0.300110	0.452928
C261	C	0.320928	0.301569	0.415653
C262	C	0.566903	0.300111	0.453306
C263	C	0.602646	0.297210	0.471244
C264	C	0.620578	0.295757	0.451907
C265	C	0.659328	0.292606	0.471351
C266	C	0.602767	0.297209	0.414628
C267	C	0.567030	0.300117	0.396693
C268	C	0.549098	0.301566	0.416036
C269	C	0.282234	0.300159	0.168556
C270	C	0.261401	0.297262	0.129904
C271	C	0.279283	0.295810	0.110515
C272	C	0.256696	0.292668	0.068606
C273	C	0.317995	0.297252	0.129778
C274	C	0.338825	0.300147	0.168428
C275	C	0.320943	0.301604	0.187816
C276	C	0.343520	0.304716	0.396340
C277	C	0.361529	0.307226	0.380946
C278	C	0.361538	0.307245	0.263130
C279	C	0.343534	0.304743	0.229725
C280	C	0.479456	0.307225	0.381080
C281	C	0.510345	0.304715	0.396583
O282	O	0.223769	0.337202	0.496885
O283	O	0.159747	0.227725	0.451432
O284	O	0.223759	0.291735	0.451439
O285	O	0.159758	0.273192	0.496877
O286	O	0.275718	0.291724	0.503426
O287	O	0.211707	0.227714	0.503418
O288	O	0.275729	0.337191	0.548871
Cu289	Cu	0.248462	0.282452	0.530892
Cu290	Cu	0.187014	0.282464	0.469411
O291	O	0.211717	0.273181	0.548864
C292	C	-0.005472	0.254178	-0.361505
C293	C	0.013244	0.253916	-0.380401
C294	C	0.051108	0.254169	-0.304909
C295	C	0.069737	0.253907	-0.323891
C296	C	0.051113	0.254178	-0.361505
C297	C	0.013239	0.253908	-0.323891
C298	C	-0.131674	0.264434	-0.396064
C299	C	-0.167418	0.267335	-0.413877
C300	C	-0.185344	0.268796	-0.451150
C301	C	-0.224095	0.271949	-0.470464
C302	C	-0.167528	0.267352	-0.470610
C303	C	-0.131791	0.264446	-0.452798
C304	C	-0.113865	0.262987	-0.415523
C305	C	0.095921	0.264442	-0.453178
C306	C	0.116630	0.267342	-0.471117
C307	C	0.155349	0.268795	-0.451780
C308	C	0.177810	0.271946	-0.471224
C309	C	0.173355	0.267343	-0.414502
C310	C	0.152643	0.264435	-0.396566
C311	C	0.113924	0.262987	-0.415908
C312	C	0.095895	0.264396	-0.168427
C313	C	0.116603	0.267293	-0.129776
C314	C	0.155321	0.268744	-0.110387
C315	C	0.177776	0.271887	-0.068478
C316	C	0.173332	0.267302	-0.129650
C317	C	0.152625	0.264407	-0.168300
C318	C	0.113903	0.262951	-0.187687
C319	C	-0.075111	0.259840	-0.396211
C320	C	-0.044222	0.257329	-0.380817
C321	C	0.073559	0.257310	-0.263001
C322	C	0.091455	0.259812	-0.229596
C323	C	0.073570	0.257328	-0.380952
C324	C	0.091470	0.259838	-0.396456
H325	H	-0.002564	-0.129217	-0.028810
H326	H	0.370330	0.301286	0.468774
N327	N	0.621972	-0.324669	0.013478
H328	H	0.654101	-0.309889	0.035812
H329	H	0.605153	-0.350990	0.014827
N330	N	0.215436	-0.206449	-0.109045
H331	H	0.240225	-0.206398	-0.086776
H332	H	0.223563	-0.196940	-0.127221
H333	H	0.064704	-0.351593	-0.184021
H334	H	0.552307	0.301293	0.469058
N335	N	0.219734	-0.324667	0.013480
H336	H	0.224720	-0.309883	0.035816
H337	H	0.194961	-0.327193	-0.011276
N338	N	0.380578	0.301703	0.189205
H339	H	0.388746	0.300345	0.171058
H340	H	0.405342	0.326449	0.211476
H341	H	0.102506	-0.319045	-0.113899
H342	H	0.332557	0.296072	0.113990
N343	N	0.215116	0.268911	-0.393642
H344	H	0.223379	0.267550	-0.367307
H345	H	0.210056	0.246572	-0.408503
H346	H	0.335103	-0.408930	0.028881
N347	N	0.621852	0.295637	0.511445
H348	H	0.653984	0.317976	0.528804
H349	H	0.605038	0.296982	0.520942
H350	H	-0.002406	0.253510	-0.308642
H351	H	0.437756	-0.306247	0.028873
N352	N	0.097789	-0.228754	-0.013407
H353	H	0.066906	-0.246708	-0.037449
H354	H	0.116889	-0.237055	-0.011336
H355	H	0.229861	0.296048	0.398161
N356	N	0.263030	-0.361701	0.019514
H357	H	0.235341	-0.371328	0.018157
H358	H	0.255554	-0.378983	-0.002820
N359	N	-0.007709	-0.414120	-0.421380
H360	H	-0.039050	-0.421742	-0.438100
H361	H	0.009942	-0.396357	-0.430489
N362	N	0.262998	-0.528270	0.019532
H363	H	0.235311	-0.546341	0.018181
H364	H	0.285302	-0.505991	0.044275
H365	H	0.167173	-0.083930	0.468731
N366	N	-0.112816	-0.528775	-0.356395
H367	H	-0.115282	-0.506499	-0.356342
H368	H	-0.129611	-0.546953	-0.346887
H369	H	0.101940	0.268476	-0.114091
N370	N	0.622242	-0.206717	0.013460
H371	H	0.605538	-0.197089	0.014818
H372	H	0.654377	-0.189439	0.035798
H373	H	0.064367	0.263212	-0.184210
H374	H	0.100028	-0.306488	-0.308699
N375	N	0.172223	0.093003	0.474140
H376	H	0.199912	0.111072	0.500476
H377	H	0.149923	0.070721	0.476584
H378	H	0.167397	-0.248845	-0.184258
N379	N	0.172129	-0.243738	-0.355915
H380	H	0.199819	-0.217395	-0.346293
H381	H	0.149834	-0.241296	-0.355940
N382	N	0.110100	0.253341	-0.303707
H383	H	0.119116	0.253213	-0.276947
H384	H	0.103057	0.229608	-0.318366
H385	H	0.617371	0.296031	0.398885
H386	H	0.552532	0.301302	0.366343
N387	N	0.171981	0.093078	-0.019407
H388	H	0.149765	0.070804	-0.044149
H389	H	0.199662	0.111254	-0.018027
N390	N	0.337260	0.295635	0.510941
H391	H	0.318188	0.293577	0.519274
H392	H	0.338369	0.272595	0.511564
H393	H	0.437572	-0.026539	0.411397
H394	H	0.437737	-0.408930	0.028884
H395	H	0.229913	-0.603533	0.013889
H396	H	0.617333	0.168296	0.501039
N397	N	-0.007615	-0.021378	0.303809
H398	H	-0.016705	-0.013759	0.318443
H399	H	0.014484	0.002261	0.302421
N400	N	0.215439	-0.206447	-0.392946
H401	H	0.223609	-0.196916	-0.366629
H402	H	0.240195	-0.206431	-0.390452
H403	H	0.370756	-0.083620	0.184295
N404	N	0.054500	-0.191714	-0.019434
H405	H	0.030862	-0.215871	-0.042468
H406	H	0.060675	-0.198542	0.004627
N407	N	0.097027	-0.229069	0.392962
H408	H	0.116020	-0.237501	0.409900
H409	H	0.066132	-0.246954	0.386112
N410	N	0.337323	-0.608885	0.013501
H411	H	0.318248	-0.636299	0.011447
H412	H	0.338440	-0.608394	-0.009533
H413	H	-0.117082	0.263246	-0.365713
H414	H	-0.002418	0.253495	-0.411306
N415	N	-0.186876	-0.608868	-0.511355
H416	H	-0.184407	-0.631142	-0.511403
H417	H	-0.218996	-0.618643	-0.528691
N418	N	0.172062	0.262873	-0.356361
H419	H	0.149842	0.238125	-0.356309
H420	H	0.199736	0.264251	-0.346852
H421	H	0.552260	0.097933	0.365793
H422	H	0.205309	0.168264	0.501576
H423	H	0.102504	-0.319037	-0.501013
H424	H	0.064698	-0.351589	-0.468696
N425	N	-0.186631	0.268894	-0.392890
H426	H	-0.169851	0.267530	-0.366575
H427	H	-0.184149	0.293645	-0.390393
N428	N	0.109991	-0.021393	0.421434
H429	H	0.119004	-0.039139	0.430575
H430	H	0.135001	0.002262	0.422972
H431	H	-0.629544	-0.248849	-0.366235
H432	H	-0.562283	-0.408904	-0.308688
N433	N	0.219653	0.295714	0.109132
H434	H	0.209171	0.293660	0.081706
H435	H	0.196043	0.272679	0.109676
N436	N	-0.112507	-0.191757	0.189423
H437	H	-0.080373	-0.176921	0.199224
H438	H	-0.115006	-0.194232	0.211681
N439	N	-0.112464	-0.073756	-0.019431
H440	H	-0.114931	-0.073749	-0.044174
H441	H	-0.129176	-0.064149	-0.018055
H442	H	0.102631	0.168506	0.398871
H443	H	0.101895	0.168086	-0.013771
N444	N	-0.186864	0.268925	-0.510810
H445	H	-0.212207	0.270985	-0.519142
H446	H	-0.163335	0.291966	-0.511430
N447	N	0.214971	-0.111369	0.510888
H448	H	0.208888	-0.104523	0.528844
H449	H	0.225335	-0.128409	0.519184
N450	N	-0.112578	0.262888	-0.473785
H451	H	-0.129356	0.264254	-0.500099
H452	H	-0.080446	0.285229	-0.458975
H453	H	0.335024	0.311075	0.308781
N454	N	0.263060	-0.191718	0.356465
H455	H	0.235384	-0.218040	0.346936
H456	H	0.255535	-0.176907	0.339137
H457	H	-0.117316	-0.533643	-0.468969
H458	H	0.205226	-0.115941	-0.013801
N459	N	0.442743	0.311219	0.303831
H460	H	0.474087	0.334951	0.318461
H461	H	0.442882	0.287726	0.302439
H462	H	0.230241	-0.218899	0.398864
H463	H	0.552476	0.098158	0.468729
N464	N	0.054164	0.262881	-0.474037
H465	H	0.045900	0.264241	-0.500373
H466	H	0.029442	0.238132	-0.476482
H467	H	0.370403	-0.533627	0.019136
N468	N	-0.187121	-0.609131	-0.393671
H469	H	-0.212469	-0.636547	-0.410686
H470	H	-0.163593	-0.608636	-0.369523
N471	N	0.172168	-0.073762	-0.019451
H472	H	0.153099	-0.065427	-0.021507
H473	H	0.203055	-0.055831	0.004592
N474	N	0.547672	-0.361706	0.019514
H475	H	0.564380	-0.371331	0.018161
H476	H	0.550140	-0.361679	0.044258
N477	N	0.097213	0.268911	-0.511320
H478	H	0.069544	0.267552	-0.520849
H479	H	0.119464	0.293662	-0.511338
N480	N	0.547942	-0.243752	0.019492
H481	H	0.564728	-0.217430	0.018128
H482	H	0.515812	-0.258563	-0.002844
N483	N	0.324985	-0.139239	0.303783
H484	H	0.315952	-0.148379	0.277016
H485	H	0.331966	-0.155967	0.318416
N486	N	0.380682	-0.243756	0.019478
H487	H	0.388854	-0.217434	0.018115
H488	H	0.405443	-0.241260	0.044222
N489	N	0.172050	0.262852	-0.189076
H490	H	0.199719	0.264210	-0.170930
H491	H	0.149803	0.238106	-0.211348
N492	N	-0.452347	-0.361689	-0.189379
H493	H	-0.449884	-0.361695	-0.211657
H494	H	-0.435638	-0.371301	-0.171290
N495	N	0.337381	-0.206722	0.013428
H496	H	0.318310	-0.198388	0.011366
H497	H	0.368270	-0.188783	0.037466
H498	H	-0.629111	-0.533371	-0.365761
N499	N	0.263059	-0.191717	0.189173
H500	H	0.235386	-0.218040	0.171029
H501	H	0.285307	-0.194210	0.211441
H502	H	-0.002532	-0.026528	-0.028801
H503	H	0.617115	0.168065	0.398106
H504	H	0.437563	-0.026535	0.308734
N505	N	0.262948	0.301728	0.189467
H506	H	0.235262	0.300372	0.171400
H507	H	0.255469	0.279385	0.199270
H508	H	0.204860	0.268484	-0.113861
N509	N	-0.661942	-0.608598	-0.392941
H510	H	-0.684160	-0.630874	-0.390416
H511	H	-0.654387	-0.618371	-0.407736
H512	H	0.100098	-0.026529	-0.028806
N513	N	0.337934	-0.110802	0.109082
H514	H	0.365612	-0.084481	0.127228
H515	H	0.345458	-0.125614	0.099286
N516	N	0.380998	-0.073768	0.474140
H517	H	0.389269	-0.064144	0.500478
H518	H	0.405705	-0.073802	0.476580
H519	H	0.333181	-0.115944	0.501570
N520	N	0.442736	0.311197	0.421466
H521	H	0.425122	0.311318	0.430610
H522	H	0.442903	0.287716	0.422999
H523	H	-0.002624	-0.409169	-0.308689
N524	N	-0.736989	-0.361653	-0.474070
H525	H	-0.714726	-0.361659	-0.476545
H526	H	-0.744501	-0.378945	-0.459226
N527	N	-0.187046	-0.228753	-0.013394
H528	H	-0.219180	-0.246062	-0.035730
H529	H	-0.170308	-0.238345	-0.014738
N530	N	0.220000	-0.228755	0.108835
H531	H	0.209612	-0.237092	0.081428
H532	H	0.226123	-0.246679	0.121806
N533	N	-0.007649	-0.139047	0.303790
H534	H	0.009963	-0.148195	0.321528
H535	H	-0.038991	-0.155741	0.296173
N536	N	-0.557166	-0.296180	-0.303734
H537	H	-0.530286	-0.287038	-0.276974
H538	H	-0.548095	-0.279484	-0.318390
N539	N	-0.779855	-0.608843	-0.510856
H540	H	-0.790250	-0.636258	-0.519190
H541	H	-0.803503	-0.608349	-0.511473
N542	N	-0.452066	-0.243733	-0.189105
H543	H	-0.435276	-0.217412	-0.170957
H544	H	-0.449594	-0.241235	-0.211376
N545	N	-0.112741	-0.191711	-0.019420
H546	H	-0.129531	-0.218034	-0.018061
H547	H	-0.115212	-0.194203	-0.044163
N548	N	-0.186770	-0.110795	-0.013401
H549	H	-0.169982	-0.084473	-0.014763
H550	H	-0.218900	-0.125605	-0.035738
N551	N	-0.378033	-0.324657	-0.109039
H552	H	-0.394819	-0.350977	-0.127188
H553	H	-0.345903	-0.309845	-0.099244
H554	H	-0.732031	-0.533584	-0.468687
H555	H	0.064307	0.097950	-0.019036
H556	H	-0.770040	-0.319469	-0.501487
H557	H	-0.182094	-0.219182	0.114184
N558	N	0.215047	0.173437	-0.013380
H559	H	0.225442	0.200853	-0.011321
H560	H	0.238697	0.172941	0.009653
N561	N	-0.662599	-0.206666	-0.393658
H562	H	-0.681667	-0.198329	-0.410674
H563	H	-0.661480	-0.206044	-0.369507
H564	H	0.064224	-0.186665	0.365795
H565	H	0.064814	0.098369	0.366323
H566	H	-0.117423	-0.083893	0.184082
N567	N	-0.187014	-0.111319	0.108842
H568	H	-0.212366	-0.128338	0.081434
H569	H	-0.198087	-0.104473	0.121811
N570	N	-0.674799	-0.413829	-0.421372
H571	H	-0.683824	-0.440596	-0.430518
H572	H	-0.699803	-0.415192	-0.422909
H573	H	-0.382500	-0.216555	-0.113890
N574	N	0.262932	0.301698	0.355992
H575	H	0.235248	0.300346	0.346369
H576	H	0.285235	0.326449	0.356020
