data_functionalizedCrystal
_audit_creation_method	'MofGen! by Chris Wilmer'
_symmetry_space_group_name_H-M	'P1'
_symmetry_Int_Tables_number	1
_symmetry_cell_setting	triclinic
loop_
_symmetry_equiv_pos_as_xyz
  x,y,z
_cell_length_a	19.188930
_cell_length_b	17.699083
_cell_length_c	16.776229
_cell_angle_alpha	90.007545
_cell_angle_beta	90.021024
_cell_angle_gamma	83.213897
loop_
_atom_site_label
_atom_site_type_symbol
_atom_site_fract_x
_atom_site_fract_y
_atom_site_fract_z
O1	O	-0.926253	-0.094493	-0.066546
O2	O	-0.426253	0.405507	0.433454
O3	O	-0.722956	-0.107213	-0.066492
O4	O	-0.222956	0.392787	0.433508
O5	O	-0.830348	0.009343	-0.066513
O6	O	-0.330348	0.509343	0.433487
O7	O	-0.818861	-0.211050	-0.066524
O8	O	-0.318861	0.288950	0.433476
O9	O	-0.830334	0.009351	0.066063
O10	O	-0.330334	0.509351	0.566063
O11	O	-0.722942	-0.107206	0.066085
O12	O	-0.222942	0.392794	0.566085
O13	O	-0.926239	-0.094486	0.066030
O14	O	-0.426239	0.405514	0.566030
Zn15	Zn	-0.824588	-0.100845	0.087107
Zn16	Zn	-0.324588	0.399155	0.587107
Zn17	Zn	-0.824607	-0.100854	-0.087568
Zn18	Zn	-0.324607	0.399146	0.412432
O19	O	-0.818847	-0.211043	0.066052
O20	O	-0.318847	0.288957	0.566052
C21	C	-0.829930	0.037543	-0.000225
C22	C	-0.329930	0.537543	0.499775
C23	C	-0.828695	0.121560	-0.000224
C24	C	-0.328695	0.621560	0.499776
C25	C	-0.696938	-0.106798	-0.000196
C26	C	-0.196938	0.393202	0.499804
C27	C	-0.619432	-0.105561	-0.000175
C28	C	-0.119432	0.394439	0.499825
C29	C	-0.952258	-0.094902	-0.000267
C30	C	-0.452258	0.405098	0.499733
C31	C	-1.029763	-0.096138	-0.000293
C32	C	-0.529763	0.403862	0.499707
C33	C	-0.574584	-0.173953	-0.000191
C34	C	-0.074584	0.326047	0.499809
C35	C	-0.501759	-0.172791	-0.000200
C36	C	-0.001759	0.327209	0.499800
C37	C	-0.473785	-0.103234	-0.000209
C38	C	0.026215	0.396766	0.499791
C39	C	-0.518642	-0.034833	-0.000188
C40	C	-0.018642	0.465167	0.499812
C41	C	-0.591465	-0.035997	-0.000172
C42	C	-0.091465	0.464003	0.499828
N43	N	-0.365750	-0.050069	-0.045360
N44	N	0.134250	0.449931	0.454640
N45	N	-0.296570	-0.048968	-0.045377
N46	N	0.203430	0.451032	0.454623
C47	C	-0.254372	-0.099724	-0.000257
C48	C	0.245628	0.400276	0.499743
N49	N	-0.283966	-0.151634	0.044871
N50	N	0.216034	0.348366	0.544871
N51	N	-0.353152	-0.152737	0.044885
N52	N	0.146848	0.347263	0.544885
C53	C	-0.394821	-0.101965	-0.000226
C54	C	0.105179	0.398035	0.499774
C55	C	-0.130559	-0.166861	-0.000282
C56	C	0.369441	0.333139	0.499718
C57	C	-0.057733	-0.165696	-0.000285
C58	C	0.442267	0.334304	0.499715
C59	C	-0.074617	-0.027736	-0.000282
C60	C	0.425383	0.472264	0.499718
C61	C	-0.147442	-0.028903	-0.000270
C62	C	0.352558	0.471097	0.499730
C63	C	-0.175408	-0.098467	-0.000274
C64	C	0.324592	0.401533	0.499726
C65	C	-0.819266	-0.239243	-0.000238
C66	C	-0.319266	0.260757	0.499762
C67	C	-0.820500	-0.323259	-0.000244
C68	C	-0.320500	0.176741	0.499756
N69	N	-0.824581	-0.100838	0.206318
N70	N	-0.324581	0.399162	0.706318
C71	C	-0.891732	0.170264	-0.000240
C72	C	-0.391732	0.670264	0.499760
C73	C	-0.890567	0.249206	-0.000247
C74	C	-0.390567	0.749206	0.499753
C75	C	-0.826365	0.279442	-0.000232
C76	C	-0.326365	0.779442	0.499768
C77	C	-0.763323	0.230732	-0.000219
C78	C	-0.263323	0.730732	0.499781
C79	C	-0.764489	0.151791	-0.000218
C80	C	-0.264489	0.651791	0.499782
C81	C	-0.758623	0.549089	-0.000224
C82	C	-0.258623	1.049089	0.499776
C83	C	-0.757463	0.628035	-0.000222
C84	C	-0.257463	1.128035	0.499778
C85	C	-0.884702	0.646503	-0.000253
C86	C	-0.384702	1.146503	0.499747
C87	C	-0.885867	0.567563	-0.000252
C88	C	-0.385867	1.067563	0.499748
C89	C	-0.822826	0.518859	-0.000243
C90	C	-0.322826	1.018859	0.499757
C91	C	-0.824089	0.433262	-0.000237
C92	C	-0.324089	0.933262	0.499763
C93	C	-0.825101	0.365038	-0.000232
C94	C	-0.325101	0.865038	0.499768
N95	N	-0.824620	-0.100855	-0.206779
N96	N	-0.324620	0.399145	0.293221
C97	C	-0.872148	-0.049248	0.248026
C98	C	-0.372148	0.450752	0.748026
C99	C	-0.872152	-0.049247	0.331478
C100	C	-0.372152	0.450753	0.831478
C101	C	-0.824591	-0.100841	0.373221
C102	C	-0.324591	0.399159	0.873221
C103	C	-0.777018	-0.152434	0.331508
C104	C	-0.277018	0.347566	0.831508
C105	C	-0.777012	-0.152430	0.248057
C106	C	-0.277012	0.347570	0.748057
C107	C	-0.777044	-0.152449	0.668055
C108	C	-0.277044	0.347551	1.168055
C109	C	-0.777055	-0.152450	0.751512
C110	C	-0.277055	0.347550	1.251512
C111	C	-0.872184	-0.049266	0.751476
C112	C	-0.372184	0.450734	1.251476
C113	C	-0.872177	-0.049262	0.668025
C114	C	-0.372177	0.450738	1.168025
C115	C	-0.824602	-0.100852	0.626319
C116	C	-0.324602	0.399148	1.126319
C117	C	-0.824598	-0.100851	0.535831
C118	C	-0.324598	0.399149	1.035831
C119	C	-0.824598	-0.100846	0.463708
C120	C	-0.324598	0.399154	0.963708
H121	H	-0.465238	-0.228486	-0.000211
H122	H	0.034762	0.271514	0.499789
H123	H	-0.183958	0.026790	-0.000261
H124	H	0.316042	0.526790	0.499739
H125	H	-0.051841	0.028899	-0.000338
H126	H	0.448159	0.528899	0.499662
H127	H	-0.495860	0.021801	-0.000206
H128	H	0.004140	0.521801	0.499794
H129	H	-0.153330	-0.223504	-0.000273
H130	H	0.346670	0.276496	0.499727
N131	N	-0.923465	0.006390	0.376460
N132	N	-0.423465	0.506390	0.876460
H133	H	-0.916252	-0.001437	0.435660
H134	H	-0.416252	0.498563	0.935660
H135	H	-0.915498	0.060064	0.361886
H136	H	-0.415498	0.560064	0.861886
N137	N	-0.694074	0.263336	-0.000197
N138	N	-0.194074	0.763336	0.499803
H139	H	-0.666467	0.245556	-0.049336
H140	H	-0.166467	0.745556	0.450664
H141	H	-0.702956	0.320730	-0.000166
H142	H	-0.202956	0.820730	0.499834
N143	N	-0.725735	-0.208101	0.623090
N144	N	-0.225735	0.291899	1.123090
H145	H	-0.752350	-0.241542	0.588445
H146	H	-0.252350	0.258458	1.088445
H147	H	-0.694876	-0.179211	0.588536
H148	H	-0.194876	0.320789	1.088536
N149	N	-0.725702	-0.208073	0.203074
N150	N	-0.225702	0.291927	0.703074
H151	H	-0.733647	-0.261772	0.217580
H152	H	-0.233647	0.238228	0.717580
H153	H	-0.732936	-0.200176	0.143889
H154	H	-0.232936	0.299824	0.643889
H155	H	-0.910920	-0.007256	0.785442
H156	H	-0.410920	0.492744	1.285442
N157	N	-0.923478	0.006382	0.623002
N158	N	-0.423478	0.506382	1.123002
H159	H	-0.953612	0.039066	0.662087
H160	H	-0.453612	0.539066	1.162087
H161	H	-0.896804	0.039771	0.588399
H162	H	-0.396804	0.539771	1.088399
N163	N	-0.639842	0.037771	-0.000151
N164	N	-0.139842	0.537771	0.499849
H165	H	-0.611073	0.082014	-0.000154
H166	H	-0.111073	0.582014	0.499846
H167	H	-0.670448	0.040293	-0.049292
H168	H	-0.170448	0.540293	0.450708
N169	N	-0.725751	-0.208095	0.796538
N170	N	-0.225751	0.291905	1.296538
H171	H	-0.695608	-0.240774	0.757455
H172	H	-0.195608	0.259226	1.257455
H173	H	-0.694948	-0.179193	0.831184
H174	H	-0.194948	0.320807	1.331184
H175	H	-0.597349	-0.230598	-0.000196
H176	H	-0.097349	0.269402	0.499804
H177	H	-0.713157	0.112137	-0.000205
H178	H	-0.213157	0.612137	0.499795
H179	H	-0.021218	-0.221391	-0.000294
H180	H	0.478782	0.278609	0.499706
N181	N	-0.725714	-0.208078	0.376526
N182	N	-0.225714	0.291922	0.876526
H183	H	-0.732936	-0.200254	0.435721
H184	H	-0.232936	0.299746	0.935721
H185	H	-0.733682	-0.261750	0.361924
H186	H	-0.233682	0.238250	0.861924
H187	H	-0.944012	0.145652	-0.000247
H188	H	-0.444012	0.645652	0.499753
N189	N	-0.958556	0.301738	-0.000256
N190	N	-0.458556	0.801738	0.499744
H191	H	-0.986584	0.292030	-0.049405
H192	H	-0.486584	0.792030	0.450595
H193	H	-0.986505	0.292018	0.048920
H194	H	-0.486505	0.792018	0.548920
N195	N	-0.955113	0.534950	-0.000261
N196	N	-0.455113	1.034950	0.499739
H197	H	-0.994871	0.577784	-0.000273
H198	H	-0.494871	1.077784	0.499727
H199	H	-0.958372	0.502593	-0.049409
H200	H	-0.458372	1.002593	0.450591
H201	H	-0.936033	0.686167	-0.000264
H202	H	-0.436033	1.186167	0.499736
N203	N	-0.923442	0.006397	0.202995
N204	N	-0.423442	0.506397	0.702995
H205	H	-0.972981	-0.002183	0.217487
H206	H	-0.472981	0.497817	0.717487
H207	H	-0.915434	0.060069	0.217548
H208	H	-0.415434	0.560069	0.717548
N209	N	-0.688213	0.660650	-0.000202
N210	N	-0.188213	1.160650	0.499798
H211	H	-0.648453	0.617818	-0.000197
H212	H	-0.148453	1.117818	0.499803
H213	H	-0.684967	0.692999	-0.049346
H214	H	-0.184967	1.192999	0.450654
H215	H	-0.707291	0.509443	-0.000216
H216	H	-0.207291	1.009443	0.499784
