data_functionalizedCrystal
_audit_creation_method	'MofGen! by Chris Wilmer'
_symmetry_space_group_name_H-M	'P1'
_symmetry_Int_Tables_number	1
_symmetry_cell_setting	triclinic
loop_
_symmetry_equiv_pos_as_xyz
  x,y,z
_cell_length_a	23.532361
_cell_length_b	27.732064
_cell_length_c	22.010155
_cell_angle_alpha	90.008312
_cell_angle_beta	89.995873
_cell_angle_gamma	82.739546
loop_
_atom_site_label
_atom_site_type_symbol
_atom_site_fract_x
_atom_site_fract_y
_atom_site_fract_z
O1	O	0.755160	0.058564	-0.050459
O2	O	0.589275	0.067078	-0.050473
O3	O	0.677365	-0.007568	-0.050468
O4	O	0.667071	0.133210	-0.050464
O5	O	0.677349	-0.007557	0.050582
O6	O	0.589259	0.067089	0.050577
O7	O	0.755144	0.058575	0.050591
Cu8	Cu	0.672200	0.062833	0.059811
Cu9	Cu	0.672219	0.062820	-0.059693
O10	O	0.667055	0.133221	0.050586
C11	C	0.568051	0.066870	0.000050
C12	C	0.504834	0.066229	0.000045
C13	C	0.677139	-0.025569	0.000055
C14	C	0.676484	-0.079225	0.000050
C15	C	0.231605	0.063419	-0.055034
C16	C	0.291003	0.064026	-0.055036
O17	O	0.321736	0.064318	-0.101880
N18	N	0.320700	0.064339	0.000047
C19	C	0.290995	0.064040	0.055135
O20	O	0.321708	0.064361	0.101987
C21	C	0.231598	0.063430	0.055136
C22	C	0.201904	0.063122	0.000050
C23	C	0.201911	0.063111	-0.110116
C24	C	0.142516	0.062505	-0.110114
C25	C	0.112816	0.062208	-0.055031
C26	C	0.142510	0.062516	0.000051
C27	C	0.201895	0.063127	0.110223
C28	C	0.142495	0.062516	0.110219
C29	C	0.112801	0.062209	0.055133
C30	C	0.053415	0.061613	0.055137
N31	N	0.023718	0.061300	0.000054
C32	C	0.053419	0.061598	-0.055030
C33	C	0.415733	0.065321	0.055129
C34	C	0.475128	0.065934	0.055129
C35	C	0.475132	0.065920	-0.055042
C36	C	0.415735	0.065310	-0.055041
C37	C	0.386036	0.065008	0.000046
C38	C	-0.071314	0.060326	-0.055022
C39	C	-0.130714	0.059722	-0.055015
C40	C	-0.130713	0.059734	0.055155
C41	C	-0.071318	0.060340	0.055149
C42	C	-0.041620	0.060634	0.000055
O43	O	0.022645	0.061318	0.101957
O44	O	0.022699	0.061270	-0.101874
C45	C	0.619968	-0.456376	0.000043
C46	C	0.622379	-0.254713	0.000042
O47	O	0.578525	-0.223521	0.000014
N48	N	0.674615	-0.235512	0.000046
C49	C	0.726251	-0.266731	0.000047
O50	O	0.770736	-0.245773	0.000044
C51	C	0.723840	-0.468394	0.000043
C52	C	0.671601	-0.487591	0.000045
C53	C	0.567734	-0.475574	0.000044
C54	C	0.567132	-0.525987	0.000047
C55	C	0.618764	-0.557202	0.000049
C56	C	0.670999	-0.538004	0.000048
C57	C	0.775475	-0.499612	0.000039
C58	C	0.774868	-0.550030	0.000037
C59	C	0.722629	-0.569228	0.000038
C60	C	0.722029	-0.619632	0.000054
N61	N	0.669793	-0.638833	0.000050
C62	C	0.618161	-0.607618	0.000047
C63	C	0.727513	-0.160855	0.000050
C64	C	0.728117	-0.110440	0.000052
C65	C	0.624244	-0.098425	0.000046
C66	C	0.623642	-0.148841	0.000048
C67	C	0.675278	-0.180055	0.000046
C68	C	0.616900	-0.713489	0.000055
C69	C	0.616303	-0.763907	0.000061
C70	C	0.720174	-0.775918	0.000064
C71	C	0.720772	-0.725504	0.000061
C72	C	0.669131	-0.694290	0.000055
O73	O	0.765860	-0.650852	0.000075
O74	O	0.573683	-0.628586	0.000037
C75	C	0.620571	-0.405963	0.000039
C76	C	0.672805	-0.386765	0.000038
C77	C	0.724438	-0.417980	0.000040
C78	C	0.673408	-0.336350	0.000040
C79	C	0.621776	-0.305135	0.000038
C80	C	0.569540	-0.324335	0.000033
C81	C	0.568938	-0.374748	0.000037
C82	C	0.776673	-0.398780	0.000044
C83	C	0.777271	-0.348367	0.000042
C84	C	0.725638	-0.317152	0.000039
C85	C	0.776368	0.058783	0.000067
C86	C	0.839585	0.059424	0.000068
C87	C	0.667280	0.151223	0.000062
C88	C	0.667935	0.204878	0.000063
N89	N	0.672191	0.062842	0.143864
N90	N	0.672233	0.062807	-0.143745
C91	C	0.711227	0.029772	0.563645
C92	C	0.711230	0.029768	0.627253
O93	O	0.744397	0.001657	0.660146
N94	N	0.672219	0.062810	0.659071
C95	C	0.633199	0.095854	0.627278
O96	O	0.600016	0.123958	0.660182
C97	C	0.633194	0.095855	0.563671
C98	C	0.672211	0.062814	0.531857
C99	C	0.750241	-0.003267	0.531830
C100	C	0.750239	-0.003263	0.468227
C101	C	0.711223	0.029780	0.436439
C102	C	0.672209	0.062818	0.468253
C103	C	0.594171	0.128896	0.531879
C104	C	0.594169	0.128893	0.468269
C105	C	0.633187	0.095853	0.436454
C106	C	0.633191	0.095864	0.372862
N107	N	0.672202	0.062823	0.341044
C108	C	0.711218	0.029780	0.372832
C109	C	0.633211	0.095850	0.760855
C110	C	0.633218	0.095852	0.824461
C111	C	0.711249	0.029765	0.824431
C112	C	0.711244	0.029766	0.760825
C113	C	0.672222	0.062808	0.729038
C114	C	0.711211	0.029792	0.239261
C115	C	0.711207	0.029800	0.175652
C116	C	0.633175	0.095884	0.175687
C117	C	0.633180	0.095878	0.239290
C118	C	0.672201	0.062828	0.271076
O119	O	0.600039	0.123960	0.339928
O120	O	0.744390	0.001677	0.339920
H121	H	-0.154889	0.059473	-0.099875
H122	H	0.782013	-0.030176	0.557707
H123	H	0.499298	0.066193	0.099986
O124	O	0.595331	0.128046	0.144828
C125	C	0.604151	0.175859	0.160385
H126	H	0.649744	0.175899	0.177868
H127	H	0.572457	0.190197	0.197308
C128	C	0.539014	0.208616	0.082410
C129	C	0.595013	0.208666	0.103879
H130	H	0.533374	0.228854	0.047556
H131	H	0.533070	0.176404	0.071930
H132	H	0.512608	0.220563	0.113184
H133	H	0.621417	0.196713	0.073107
H134	H	0.600961	0.240877	0.114352
O135	O	-0.042563	0.060637	-0.108593
C136	C	-0.081517	0.060224	-0.157203
H137	H	-0.126349	0.075095	-0.141043
H138	H	-0.081516	0.021374	-0.174146
C139	C	-0.008444	0.073900	-0.229094
C140	C	-0.063507	0.092169	-0.209247
H141	H	0.002666	0.093603	-0.261198
H142	H	0.017801	0.074176	-0.196345
H143	H	-0.008450	0.041526	-0.243208
H144	H	-0.063498	0.124540	-0.195125
H145	H	-0.089751	0.091899	-0.241994
O146	O	0.517521	-0.445325	0.000071
C147	C	0.471296	-0.473091	0.000055
H148	H	0.486101	-0.510788	0.019181
H149	H	0.455266	-0.476611	-0.048424
C150	C	0.404274	-0.401445	0.016197
C151	C	0.422456	-0.447743	0.039693
H152	H	0.374146	-0.385809	0.040645
H153	H	0.435416	-0.382738	0.016206
H154	H	0.390920	-0.404384	-0.024201
H155	H	0.435817	-0.444803	0.080088
H156	H	0.391315	-0.466450	0.039693
H157	H	0.118345	0.062253	-0.154971
H158	H	0.499325	0.066162	-0.099894
O159	O	0.230808	0.063468	-0.163590
C160	C	0.258327	0.105698	-0.166896
H161	H	0.264957	0.119751	-0.119071
H162	H	0.230652	0.134780	-0.194069
C163	C	0.308672	0.076302	-0.257147
C164	C	0.316820	0.093559	-0.198406
H165	H	0.344752	0.068816	-0.276586
H166	H	0.290130	0.047852	-0.254922
H167	H	0.285608	0.100540	-0.279783
H168	H	0.339878	0.069320	-0.175769
H169	H	0.335367	0.122005	-0.200629
H170	H	0.743018	0.002860	0.850325
O171	O	0.386969	0.065057	0.108699
C172	C	0.425924	0.065452	0.157311
H173	H	0.465770	0.081189	0.141154
H174	H	0.438560	0.026735	0.174249
C175	C	0.348641	0.077600	0.229200
C176	C	0.397579	0.096931	0.209357
H177	H	0.331157	0.097015	0.261306
H178	H	0.322396	0.077332	0.196450
H179	H	0.359179	0.045336	0.243311
H180	H	0.387040	0.129192	0.195239
H181	H	0.423821	0.097205	0.242106
O182	O	0.556208	0.160927	0.437364
C183	C	0.521308	0.135198	0.400557
H184	H	0.520685	0.097079	0.419712
H185	H	0.539150	0.132592	0.352347
C186	C	0.460692	0.208929	0.376071
C187	C	0.459923	0.162111	0.399601
H188	H	0.422827	0.225530	0.375479
H189	H	0.484206	0.226263	0.400867
H190	H	0.475563	0.206750	0.335899
H191	H	0.445059	0.164290	0.439776
H192	H	0.436405	0.144777	0.374812
O193	O	0.828070	-0.329802	0.000014
C194	C	0.873509	-0.368170	0.000030
H195	H	0.857849	-0.402348	-0.019094
H196	H	0.889412	-0.375371	0.048509
C197	C	0.942048	-0.312207	-0.016116
C198	C	0.922816	-0.354184	-0.039609
H199	H	0.972465	-0.303579	-0.040565
H200	H	0.911436	-0.286357	-0.016124
H201	H	0.955297	-0.318213	0.024283
H202	H	0.909561	-0.348176	-0.080004
H203	H	0.953427	-0.380033	-0.039608
H204	H	0.818014	-0.483991	0.000037
O205	O	0.519399	-0.293988	-0.000078
C206	C	0.516662	-0.264468	-0.052408
H207	H	0.545956	-0.283081	-0.088982
H208	H	0.531077	-0.227874	-0.040577
C209	C	0.418649	-0.233648	-0.031224
C210	C	0.454625	-0.256512	-0.076147
H211	H	0.380382	-0.228738	-0.045867
H212	H	0.420493	-0.253535	0.004033
H213	H	0.430669	-0.203156	-0.021369
H214	H	0.442609	-0.287006	-0.085996
H215	H	0.452777	-0.236630	-0.111407
H216	H	0.818719	-0.424191	0.000046
O217	O	0.777729	-0.191105	0.000079
C218	C	0.823956	-0.163341	0.000070
H219	H	0.809148	-0.125640	0.019199
H220	H	0.839997	-0.159831	-0.048407
C221	C	0.890970	-0.234986	0.016210
C222	C	0.872785	-0.188683	0.039710
H223	H	0.921092	-0.250619	0.040659
H224	H	0.859827	-0.253692	0.016214
H225	H	0.904334	-0.232055	-0.024187
H226	H	0.859415	-0.191615	0.080103
H227	H	0.903928	-0.169978	0.039714
O228	O	0.824992	-0.580400	0.000116
C229	C	0.827757	-0.609906	0.052460
H230	H	0.782575	-0.612242	0.069909
H231	H	0.853615	-0.593434	0.089105
C232	C	0.912377	-0.658362	0.015132
C233	C	0.856883	-0.661235	0.036561
H234	H	0.930346	-0.690024	0.005327
H235	H	0.910516	-0.638483	-0.020132
H236	H	0.933918	-0.644633	0.045674
H237	H	0.835342	-0.674958	0.006017
H238	H	0.858742	-0.681118	0.071820
H239	H	0.742982	0.002894	0.149751
O240	O	0.749170	-0.002332	0.270037
C241	C	0.783589	-0.031496	0.228307
H242	H	0.784051	-0.011673	0.182974
H243	H	0.765411	-0.067322	0.221531
C244	C	0.844549	-0.066085	0.308791
C245	C	0.845121	-0.041736	0.253114
H246	H	0.882504	-0.072404	0.324094
H247	H	0.821359	-0.046438	0.336906
H248	H	0.829398	-0.095937	0.303137
H249	H	0.860265	-0.011882	0.258771
H250	H	0.868315	-0.061378	0.225001
O251	O	0.595266	0.127969	0.855268
C252	C	0.560842	0.157140	0.813563
H253	H	0.560376	0.137324	0.768218
H254	H	0.579018	0.192967	0.806804
C255	C	0.499889	0.191715	0.894082
C256	C	0.499312	0.167375	0.838391
H257	H	0.461935	0.198031	0.909397
H258	H	0.523081	0.172064	0.922180
H259	H	0.515038	0.221568	0.888442
H260	H	0.484170	0.137520	0.844033
H261	H	0.476115	0.187021	0.810294
H262	H	0.770655	-0.094814	0.000060
H263	H	0.782009	-0.030168	0.442327
H264	H	0.526400	-0.390374	0.000039
H265	H	0.743015	0.002861	0.734925
H266	H	0.601436	0.122760	0.734977
O267	O	0.113635	0.062138	0.163718
C268	C	0.086084	0.019924	0.167008
H269	H	0.108750	-0.009160	0.135745
H270	H	0.039526	0.028929	0.152215
C271	C	0.060427	0.036656	0.271215
C272	C	0.088268	0.000933	0.232821
H273	H	0.061771	0.024943	0.311811
H274	H	0.078986	0.065098	0.268998
H275	H	0.021631	0.044158	0.258879
H276	H	0.127065	-0.006563	0.245152
H277	H	0.069716	-0.027510	0.235042
H278	H	0.391562	0.065059	-0.099897
H279	H	-0.047142	0.060600	0.100005
H280	H	0.562399	0.155800	0.557774
H281	H	0.601414	0.122787	0.265194
O282	O	0.770276	-0.806313	0.000039
C283	C	0.758536	-0.854926	0.000054
H284	H	0.713819	-0.856644	-0.019074
H285	H	0.760823	-0.869512	0.048533
C286	C	0.857949	-0.883892	-0.016084
C287	C	0.803029	-0.886004	-0.039582
H288	H	0.885396	-0.903063	-0.040530
H289	H	0.865859	-0.851141	-0.016092
H290	H	0.859847	-0.896047	0.024315
H291	H	0.801130	-0.873844	-0.079977
H292	H	0.795120	-0.918753	-0.039582
H293	H	0.226062	0.063376	0.155080
H294	H	-0.154906	0.059493	0.100003
O295	O	0.565505	-0.782474	0.000034
C296	C	0.520064	-0.744108	0.000044
H297	H	0.535725	-0.709936	-0.019088
H298	H	0.504153	-0.736889	0.048522
C299	C	0.451531	-0.800081	-0.016088
C300	C	0.470765	-0.758111	-0.039591
H301	H	0.421120	-0.808719	-0.040534
H302	H	0.482145	-0.825929	-0.016093
H303	H	0.438276	-0.794060	0.024310
H304	H	0.484026	-0.764134	-0.079985
H305	H	0.440152	-0.732264	-0.039594
H306	H	0.763309	-0.709873	0.000068
H307	H	0.574849	-0.688080	0.000050
H308	H	0.524593	-0.541613	0.000043
H309	H	0.581105	-0.164468	0.000052
O310	O	0.574140	-0.068029	0.000012
C311	C	0.585881	-0.019416	0.000028
H312	H	0.630604	-0.017704	-0.019092
H313	H	0.583578	-0.004816	0.048506
C314	C	0.486473	0.009547	-0.016128
C315	C	0.541401	0.011650	-0.039617
H316	H	0.459035	0.028711	-0.040580
H317	H	0.478562	-0.023204	-0.016136
H318	H	0.484563	0.021713	0.024270
H319	H	0.543313	-0.000521	-0.080011
H320	H	0.549311	0.044400	-0.039616
