data_functionalizedCrystal
_audit_creation_method	'MofGen! by Chris Wilmer'
_symmetry_space_group_name_H-M	'P1'
_symmetry_Int_Tables_number	1
_symmetry_cell_setting	triclinic
loop_
_symmetry_equiv_pos_as_xyz
  x,y,z
_cell_length_a	9.130313
_cell_length_b	10.654550
_cell_length_c	10.654550
_cell_angle_alpha	95.515069
_cell_angle_beta	90.001126
_cell_angle_gamma	90.002987
loop_
_atom_site_label
_atom_site_type_symbol
_atom_site_fract_x
_atom_site_fract_y
_atom_site_fract_z
O1	O	0.121690	-1.667834	0.176393
O2	O	0.121716	-1.302356	0.193199
O3	O	0.121693	-1.493498	0.002057
O4	O	0.121713	-1.476692	0.367536
O5	O	-0.121906	-1.493495	0.002062
O6	O	-0.121882	-1.302353	0.193205
O7	O	-0.121909	-1.667832	0.176399
Cu8	Cu	-0.144138	-1.485092	0.184802
Cu9	Cu	0.143946	-1.485095	0.184796
O10	O	-0.121886	-1.476689	0.367541
C11	C	-0.000080	-1.255556	0.191968
C12	C	-0.000070	-1.116113	0.188276
N13	N	-0.346761	-1.485099	0.184806
C14	C	-0.000105	-1.492263	-0.044738
C15	C	-0.000103	-1.488571	-0.184181
C16	C	-0.423423	-1.569759	0.100197
C17	C	-0.576760	-1.569756	0.100182
C18	C	-0.576759	-1.400429	0.269395
C19	C	-0.423425	-1.400427	0.269403
C20	C	-0.346759	-1.654431	0.015599
C21	C	-0.423422	-1.739099	-0.069016
C22	C	-0.576759	-1.739095	-0.069031
C23	C	-0.653433	-1.654424	0.015569
N24	N	0.346568	-1.485098	0.184783
C25	C	-0.000110	-1.714631	0.177630
C26	C	-0.000110	-1.854074	0.181322
C27	C	-0.000068	-1.036628	0.300818
C28	C	-0.000093	-0.905607	0.297341
C29	C	-0.000117	-0.933570	0.068772
C30	C	-0.000101	-1.064588	0.072250
C31	C	-0.000111	-1.601112	-0.263667
C32	C	-0.000092	-1.597636	-0.394688
C33	C	-0.000065	-1.369066	-0.366725
C34	C	-0.000073	-1.372544	-0.235706
C35	C	-0.000084	-1.477925	0.414336
C36	C	-0.000077	-1.481617	0.553779
H37	H	-0.221905	-1.654444	0.015606
C38	C	-0.749172	-1.764878	-0.239729
C39	C	-0.661027	-1.832153	-0.162042
H40	H	-0.801185	-1.822335	-0.297153
H41	H	-0.816774	-1.714470	-0.189350
H42	H	-0.689330	-1.712219	-0.285385
H43	H	-0.720871	-1.884806	-0.116378
H44	H	-0.593418	-1.882583	-0.212427
C45	C	-0.000142	-1.823912	-0.409159
C46	C	-0.000111	-1.721346	-0.482059
H47	H	-0.000162	-1.900288	-0.463101
H48	H	0.084797	-1.820522	-0.357472
H49	H	-0.085101	-1.820497	-0.357478
H50	H	0.084853	-1.724756	-0.533733
H51	H	-0.085059	-1.724738	-0.533767
C52	C	0.125173	-1.053102	0.496710
C53	C	-0.000048	-1.093261	0.428354
H54	H	0.125174	-1.088057	0.575451
H55	H	0.210106	-1.080317	0.450325
H56	H	0.125146	-0.963695	0.510730
H57	H	-0.000016	-1.182668	0.414326
H58	H	-0.085003	-1.066053	0.474750
C59	C	-0.623981	-1.183656	0.341110
C60	C	-0.661041	-1.307369	0.362385
H61	H	-0.676021	-1.126208	0.398516
H62	H	-0.521703	-1.171543	0.353232
H63	H	-0.649110	-1.169313	0.257155
H64	H	-0.635901	-1.321715	0.446337
H65	H	-0.763342	-1.319487	0.350273
C66	C	0.125175	-1.232564	-0.497851
C67	C	-0.000048	-1.241537	-0.423371
H68	H	0.125174	-1.153834	-0.532825
H69	H	0.210106	-1.238665	-0.447316
H70	H	0.125154	-1.299101	-0.563937
H71	H	-0.000022	-1.175005	-0.357279
H72	H	-0.085001	-1.235424	-0.473909
H73	H	-0.361006	-1.331488	0.338298
H74	H	-0.000095	-0.840894	0.388984
C75	C	-0.000135	-0.745143	-0.038050
C76	C	-0.000132	-0.876928	-0.058760
H77	H	-0.000132	-0.710180	-0.116787
H78	H	-0.085077	-0.717943	0.008329
H79	H	0.084820	-0.717932	0.008337
H80	H	-0.085094	-0.904140	-0.105139
H81	H	0.084818	-0.904140	-0.105159
H82	H	-0.000107	-1.129309	-0.019401
H83	H	-0.000132	-1.695588	-0.221720
C84	C	-0.188371	-1.814220	-0.144200
C85	C	-0.339147	-1.832112	-0.162058
H86	H	-0.136349	-1.871634	-0.201655
H87	H	-0.163272	-1.730277	-0.158571
H88	H	-0.163234	-1.828637	-0.060267
H89	H	-0.364286	-1.817685	-0.245990
H90	H	-0.364256	-1.916074	-0.147697
H91	H	-0.778290	-1.654420	0.015541
H92	H	-0.000062	-1.280893	-0.170985
