data_functionalizedCrystal
_audit_creation_method	'MofGen! by Chris Wilmer'
_symmetry_space_group_name_H-M	'P1'
_symmetry_Int_Tables_number	1
_symmetry_cell_setting	triclinic
loop_
_symmetry_equiv_pos_as_xyz
  x,y,z
_cell_length_a	14.908993
_cell_length_b	25.639240
_cell_length_c	14.908694
_cell_angle_alpha	93.258804
_cell_angle_beta	89.788153
_cell_angle_gamma	93.334918
loop_
_atom_site_label
_atom_site_type_symbol
_atom_site_fract_x
_atom_site_fract_y
_atom_site_fract_z
Zn1	Zn	1.403871	-0.175502	-0.429136
Zn2	Zn	1.395065	-0.258208	-0.278760
Zn3	Zn	1.244837	-0.176108	-0.287457
Zn4	Zn	1.253441	-0.268231	-0.437729
O5	O	1.324304	-0.219512	-0.358270
O6	O	1.528529	-0.182025	-0.401952
O7	O	1.367851	-0.243377	-0.154092
O8	O	1.266018	-0.102861	-0.306295
O9	O	1.522059	-0.242789	-0.291471
O10	O	1.382859	-0.102416	-0.410385
O11	O	1.257480	-0.183058	-0.160482
O12	O	1.120153	-0.192776	-0.314627
O13	O	1.280682	-0.259871	-0.562410
O14	O	1.126474	-0.260458	-0.425031
O15	O	1.391202	-0.191743	-0.556097
O16	O	1.376194	-0.332704	-0.299803
O17	O	1.272144	-0.340068	-0.416597
C18	C	1.090688	-0.227771	-0.371706
C19	C	0.990748	-0.231317	-0.377475
C20	C	0.796324	-0.167409	-0.273514
C21	C	0.702421	-0.170739	-0.278931
C22	C	0.709036	-0.241311	-0.393723
C23	C	0.802939	-0.237980	-0.388305
C24	C	0.846580	-0.201028	-0.328200
C25	C	0.940485	-0.197695	-0.322787
C26	C	0.947098	-0.268269	-0.437574
C27	C	0.853195	-0.271599	-0.442991
C28	C	1.324173	-0.355357	-0.358207
C29	C	1.324200	-0.413470	-0.358205
C30	C	1.385177	-0.773564	-0.412572
C31	C	1.385205	-0.828168	-0.412589
O32	O	1.436894	-0.856178	-0.458750
N33	N	1.324433	-0.855749	-0.358350
C34	C	1.263624	-0.828725	-0.304098
O35	O	1.211935	-0.857199	-0.257965
C36	C	1.263593	-0.774122	-0.304086
C37	C	1.324375	-0.746543	-0.358322
C38	C	1.445953	-0.745984	-0.466804
C39	C	1.445927	-0.691384	-0.466786
C40	C	1.385124	-0.664363	-0.412536
C41	C	1.324348	-0.691943	-0.358304
C42	C	1.202781	-0.747099	-0.249839
C43	C	1.202754	-0.692493	-0.249833
C44	C	1.263536	-0.664913	-0.304069
C45	C	1.263519	-0.610322	-0.304035
N46	N	1.324290	-0.582740	-0.358274
C47	C	1.385093	-0.609760	-0.412524
C48	C	1.263693	-0.943394	-0.304127
C49	C	1.263728	-0.997996	-0.304133
C50	C	1.385308	-0.997434	-0.412625
C51	C	1.385277	-0.942832	-0.412614
C52	C	1.324465	-0.915812	-0.358366
C53	C	1.385033	-0.495096	-0.412482
C54	C	1.385003	-0.440491	-0.412456
C55	C	1.263421	-0.441057	-0.303967
C56	C	1.263453	-0.495657	-0.303989
C57	C	1.324262	-0.522675	-0.358253
O58	O	1.211853	-0.582276	-0.257901
O59	O	1.436765	-0.581280	-0.458658
C60	C	1.558831	-0.211221	-0.344783
C61	C	1.658773	-0.207688	-0.339035
C62	C	1.337884	-0.226857	-0.592790
C63	C	1.343671	-0.229987	-0.692729
C64	C	1.324461	-0.083136	-0.358352
C65	C	1.324528	-0.025021	-0.358387
C66	C	1.239595	-0.173061	-0.887180
C67	C	1.245029	-0.176001	-0.981082
C68	C	1.359969	-0.238808	-0.974434
C69	C	1.354535	-0.235869	-0.880533
C70	C	1.294346	-0.202994	-0.836909
C71	C	1.288917	-0.200052	-0.743006
C72	C	1.403852	-0.262861	-0.736361
C73	C	1.409286	-0.265801	-0.830262
C74	C	1.310828	-0.212156	-0.124660
C75	C	1.305215	-0.208872	-0.024712
H76	H	0.976016	-0.167603	-0.273851
Br77	Br	0.793960	-0.321754	-0.524546
H78	H	1.239912	-0.173281	-0.707489
Br79	Br	1.157926	-0.128439	-0.827971
H80	H	1.153231	-0.670496	-0.205659
Br81	Br	1.015309	-0.313885	-0.511818
Br82	Br	1.478167	-0.303484	-0.668131
Br83	Br	1.490961	-0.310418	-0.889474
H84	H	1.434815	-1.019445	-0.456801
Br85	Br	1.170715	-0.135380	-1.049305
H86	H	0.673487	-0.271400	-0.442650
Br87	Br	1.467562	-0.531755	-0.486125
H88	H	1.434502	-0.418037	-0.456621
H89	H	1.408959	-0.265581	-1.009970
H90	H	0.831857	-0.137314	-0.224584
H91	H	0.661505	-0.143362	-0.234401
Br92	Br	1.528415	-0.653964	-0.540402
Br93	Br	1.180908	-0.404375	-0.230343
H94	H	1.495466	-0.767979	-0.510987
Br95	Br	1.181250	-1.035417	-0.230508
Br96	Br	1.467768	-0.905408	-0.486222
H97	H	1.214175	-0.921397	-0.259943
H98	H	1.153286	-0.769545	-0.205674
Br99	Br	1.180977	-0.533087	-0.230368
