data_functionalizedCrystal
_audit_creation_method	'MofGen! by Chris Wilmer'
_symmetry_space_group_name_H-M	'P1'
_symmetry_Int_Tables_number	1
_symmetry_cell_setting	triclinic
loop_
_symmetry_equiv_pos_as_xyz
  x,y,z
_cell_length_a	10.654545
_cell_length_b	10.654550
_cell_length_c	9.730223
_cell_angle_alpha	89.999566
_cell_angle_beta	90.002141
_cell_angle_gamma	84.484005
loop_
_atom_site_label
_atom_site_type_symbol
_atom_site_fract_x
_atom_site_fract_y
_atom_site_fract_z
O1	O	1.667841	0.176371	0.114262
O2	O	1.302362	0.193183	0.114266
O3	O	1.493505	0.002037	0.114270
O4	O	1.476699	0.367516	0.114259
O5	O	1.493495	0.002034	-0.114310
O6	O	1.302352	0.193179	-0.114314
O7	O	1.667831	0.176367	-0.114318
Zn8	Zn	1.485090	0.184773	-0.150608
Zn9	Zn	1.485103	0.184777	0.150556
O10	O	1.476688	0.367513	-0.114321
C11	C	1.255559	0.191948	-0.000023
C12	C	1.116115	0.188258	-0.000020
C13	C	1.050605	0.186519	-0.124620
C14	C	0.919586	0.183032	-0.124620
C15	C	0.919597	0.183027	0.124590
C16	C	1.050616	0.186506	0.124589
C17	C	1.492266	-0.044762	-0.000016
C18	C	1.488574	-0.184206	-0.000003
C19	C	1.714634	0.177602	-0.000026
C20	C	1.854078	0.181292	-0.000019
N21	N	1.485090	0.184769	-0.356144
C22	C	1.477927	0.414312	-0.000033
C23	C	1.481619	0.553755	-0.000037
C24	C	1.369078	0.633243	-0.000032
C25	C	1.372554	0.764264	-0.000010
C26	C	1.601124	0.736297	-0.000003
C27	C	1.597646	0.605279	-0.000015
C28	C	1.569763	0.100162	-0.571961
C29	C	1.569755	0.100163	-0.428078
C30	C	1.400436	0.269387	-0.428101
C31	C	1.400451	0.269391	-0.571981
N32	N	1.485113	0.184771	0.356093
H33	H	0.866253	0.181616	-0.226082
O34	O	1.652062	0.018143	-0.641979
C35	C	1.730152	0.086123	-0.725166
H36	H	1.680985	0.183936	-0.746734
H37	H	1.749581	0.033882	-0.826337
H38	H	1.823035	0.095522	-0.669696
O39	O	1.318019	0.351522	-0.358382
C40	C	1.193528	0.329930	-0.393541
H41	H	1.193279	0.281522	-0.498009
H42	H	1.132497	0.423760	-0.398472
H43	H	1.154141	0.267050	-0.312573
H44	H	1.331518	0.338296	-0.630564
O45	O	1.652028	0.017850	-0.358402
C46	C	1.726773	-0.056808	-0.452746
H47	H	1.675278	-0.058702	-0.555315
H48	H	1.745059	-0.156932	-0.411174
H49	H	1.820422	-0.015164	-0.468036
O50	O	0.856167	0.181294	0.245752
C51	C	0.942083	0.183610	0.355727
H52	H	1.040331	0.146387	0.319202
H53	H	0.911673	0.121750	0.442883
H54	H	0.943720	0.284561	0.394027
O55	O	1.114377	0.188370	0.245545
C56	C	1.176854	0.298974	0.253012
H57	H	1.192043	0.335696	0.144827
H58	H	1.271980	0.276998	0.305741
H59	H	1.117065	0.373664	0.314507
H60	H	1.103931	0.187946	-0.226085
H61	H	1.274601	0.591298	-0.000054
O62	O	1.263146	0.841348	0.000173
C63	C	1.192785	0.817844	0.118565
H64	H	1.222759	0.718736	0.158021
H65	H	1.088118	0.826152	0.091932
H66	H	1.210580	0.889635	0.201473
O67	O	1.713719	0.786557	-0.000056
C68	C	1.692659	0.919243	-0.000015
H69	H	1.594916	0.949157	-0.043288
H70	H	1.766965	0.960110	-0.066375
H71	H	1.699068	0.955754	0.109649
H72	H	1.689297	0.540556	-0.000014
