data_functionalizedCrystal
_audit_creation_method	'MofGen! by Chris Wilmer'
_symmetry_space_group_name_H-M	'P1'
_symmetry_Int_Tables_number	1
_symmetry_cell_setting	triclinic
loop_
_symmetry_equiv_pos_as_xyz
  x,y,z
_cell_length_a	10.654543
_cell_length_b	10.654550
_cell_length_c	9.130313
_cell_angle_alpha	90.004369
_cell_angle_beta	89.998857
_cell_angle_gamma	84.483552
loop_
_atom_site_label
_atom_site_type_symbol
_atom_site_fract_x
_atom_site_fract_y
_atom_site_fract_z
O1	O	-1.667844	-0.176358	-0.121641
O2	O	-1.302365	-0.193173	-0.121679
O3	O	-1.493508	-0.002026	-0.121650
O4	O	-1.476702	-0.367505	-0.121670
O5	O	-1.493494	-0.002021	0.121949
O6	O	-1.302352	-0.193168	0.121920
O7	O	-1.667831	-0.176353	0.121957
Cu8	Cu	-1.485090	-0.184760	0.144181
Cu9	Cu	-1.485106	-0.184766	-0.143903
O10	O	-1.476688	-0.367500	0.121929
C11	C	-1.255560	-0.191938	0.000116
C12	C	-1.116116	-0.188249	0.000102
N13	N	-1.485088	-0.184754	0.346804
C14	C	-1.036631	-0.300793	0.000098
C15	C	-0.905609	-0.297319	0.000120
C16	C	-0.933573	-0.068749	0.000144
C17	C	-1.064591	-0.072224	0.000132
C18	C	-0.714635	-0.177595	0.000152
C19	C	-0.854077	-0.181301	0.000135
C20	C	-1.492267	0.044774	0.000148
C21	C	-1.488575	0.184217	0.000146
C22	C	-1.477929	-0.414300	0.000127
C23	C	-1.481621	-0.553744	0.000120
C24	C	-1.601117	0.263706	0.000157
C25	C	-1.597641	0.394726	0.000139
C26	C	-1.369070	0.366758	0.000105
C27	C	-1.372548	0.235740	0.000112
N28	N	-1.485117	-0.184762	-0.346525
C29	C	-1.569755	-0.100150	0.423468
C30	C	-1.569767	-0.100151	0.576805
C31	C	-1.400442	-0.269370	0.576799
C32	C	-1.400424	-0.269363	0.423465
H33	H	-1.078578	-0.395268	0.000084
C34	C	-1.307337	-0.362496	0.339129
N35	N	-1.237246	-0.432660	0.275607
C36	C	-1.241447	0.423445	0.000096
N37	N	-1.145319	0.466141	0.000101
C38	C	-0.876882	0.058872	0.000163
N39	N	-0.834184	0.154999	0.000173
H40	H	-1.331512	-0.338258	0.639233
H41	H	-1.638709	-0.031257	0.639221
C42	C	-1.662878	-0.007069	0.339146
N43	N	-1.733017	0.063047	0.275639
H44	H	-0.840896	-0.388964	0.000119
H45	H	-1.129313	0.019428	0.000140
H46	H	-1.695593	0.221761	0.000181
H47	H	-1.689284	0.459442	0.000144
H48	H	-1.280897	0.171016	0.000099
