data_functionalizedCrystal
_audit_creation_method	'MofGen! by Chris Wilmer'
_symmetry_space_group_name_H-M	'P1'
_symmetry_Int_Tables_number	1
_symmetry_cell_setting	triclinic
loop_
_symmetry_equiv_pos_as_xyz
  x,y,z
_cell_length_a	12.759395
_cell_length_b	13.897448
_cell_length_c	13.897441
_cell_angle_alpha	90.029627
_cell_angle_beta	90.017364
_cell_angle_gamma	90.019229
loop_
_atom_site_label
_atom_site_type_symbol
_atom_site_fract_x
_atom_site_fract_y
_atom_site_fract_z
Zn1	Zn	1.606214	-0.383954	0.545349
Zn2	Zn	1.606105	-0.545273	0.384051
Zn3	Zn	1.430522	-0.383998	0.384071
Zn4	Zn	1.430496	-0.545213	0.545307
O5	O	1.518334	-0.464609	0.464695
O6	O	1.753221	-0.405360	0.523962
O7	O	1.582779	-0.523923	0.249072
O8	O	1.453885	-0.249010	0.405492
O9	O	1.753141	-0.523880	0.405457
O10	O	1.582965	-0.248978	0.523982
O11	O	1.453779	-0.405435	0.249087
O12	O	1.283497	-0.405377	0.405450
O13	O	1.453840	-0.523778	0.680294
O14	O	1.283478	-0.523821	0.523909
O15	O	1.582939	-0.405302	0.680326
O16	O	1.582754	-0.680247	0.405415
O17	O	1.453734	-0.680202	0.523890
C18	C	1.245367	-0.464598	0.464678
C19	C	1.128590	-0.464616	0.464694
C20	C	1.518258	-0.715224	0.464667
C21	C	1.518321	-0.822438	0.464687
C22	C	1.128608	-0.588151	0.587846
C23	C	1.073757	-0.649926	0.649424
C24	C	0.964035	-0.649938	0.649436
C25	C	0.909163	-0.588166	0.587865
C26	C	0.964014	-0.526391	0.526286
C27	C	1.073738	-0.526388	0.526279
C28	C	0.963996	-0.402852	0.403141
C29	C	1.073718	-0.402844	0.403122
C30	C	0.909123	-0.341080	0.341569
C31	C	0.963975	-0.279308	0.279984
C32	C	1.073703	-0.279299	0.279974
C33	C	1.128569	-0.341068	0.341544
C34	C	1.518431	-1.018733	0.464748
C35	C	1.518367	-0.909500	0.464717
C36	C	1.792368	-0.464622	0.464712
C37	C	1.909144	-0.464627	0.464719
C38	C	1.518399	-0.464528	0.716288
C39	C	1.518426	-0.464494	0.823502
C40	C	1.518440	-0.213016	0.464744
C41	C	1.518485	-0.105802	0.464765
C42	C	1.518331	-0.464620	0.214080
C43	C	1.518507	-0.464383	0.106867
C44	C	1.518448	-0.464467	0.910572
C45	C	1.518478	-0.464423	1.019804
H46	H	1.217950	-0.588155	0.587835
H47	H	0.919375	-0.700236	0.699584
Cl48	Cl	0.894989	-0.201654	0.202596
Cl49	Cl	1.142744	-0.727585	0.726818
H50	H	1.118357	-0.228988	0.229836
Cl51	Cl	0.771226	-0.588169	0.587895
H52	H	0.819782	-0.341090	0.341587
H53	H	1.217910	-0.341070	0.341539
