data_functionalizedCrystal
_audit_creation_method	'MofGen! by Chris Wilmer'
_symmetry_space_group_name_H-M	'P1'
_symmetry_Int_Tables_number	1
_symmetry_cell_setting	triclinic
loop_
_symmetry_equiv_pos_as_xyz
  x,y,z
_cell_length_a	19.188930
_cell_length_b	10.540539
_cell_length_c	9.616153
_cell_angle_alpha	90.004826
_cell_angle_beta	89.992615
_cell_angle_gamma	96.164863
loop_
_atom_site_label
_atom_site_type_symbol
_atom_site_fract_x
_atom_site_fract_y
_atom_site_fract_z
O1	O	0.098389	-1.683724	-0.115598
O2	O	0.107659	-1.314107	-0.115617
O3	O	0.001439	-1.509582	-0.115579
O4	O	0.204608	-1.488249	-0.115635
O5	O	0.001441	-1.509555	0.115712
O6	O	0.107661	-1.314080	0.115675
O7	O	0.098391	-1.683697	0.115694
Zn8	Zn	0.103026	-1.498885	0.152407
Zn9	Zn	0.103023	-1.498920	-0.152330
O10	O	0.204610	-1.488222	0.115657
C11	C	0.106965	-1.266806	0.000027
C12	C	0.104885	-1.125904	0.000021
C13	C	-0.024575	-1.508878	0.000070
C14	C	-0.102094	-1.506804	0.000082
C15	C	0.099085	-1.730998	0.000047
C16	C	0.101165	-1.871901	0.000044
C17	C	-0.146253	-1.621502	0.000095
C18	C	-0.219090	-1.619554	0.000072
C19	C	-0.247764	-1.502901	0.000065
C20	C	-0.203595	-1.388187	0.000045
C21	C	-0.130760	-1.390139	0.000053
N22	N	-0.356363	-1.413724	0.078774
N23	N	-0.425554	-1.411878	0.078769
C24	C	-0.467212	-1.497014	0.000037
N25	N	-0.437067	-1.584085	-0.078672
N26	N	-0.367870	-1.585935	-0.078661
C27	C	-0.326741	-1.500772	0.000055
C28	C	-0.590350	-1.609608	0.000023
C29	C	-0.663188	-1.607655	-0.000008
C30	C	-0.647691	-1.376285	-0.000021
C31	C	-0.574855	-1.378241	-0.000004
C32	C	-0.546189	-1.494906	0.000025
C33	C	0.230625	-1.488927	0.000004
C34	C	0.308143	-1.491000	-0.000017
N35	N	0.103028	-1.498870	0.360381
C36	C	0.025184	-0.944233	0.000583
C37	C	0.027292	-1.090805	0.000047
C38	C	0.142224	-1.063423	-0.132063
C39	C	0.139576	-0.916937	-0.132158
C40	C	0.141157	-0.916384	0.130863
C41	C	0.141872	-1.063350	0.132594
N42	N	0.103016	-1.498945	-0.360304
C43	C	0.159658	-1.393992	0.580731
C44	C	0.159870	-1.394216	0.419564
C45	C	0.119601	-1.631228	0.418832
C46	C	0.120002	-1.630655	0.580050
C47	C	0.029640	-1.472715	0.580311
C48	C	0.030115	-1.469658	0.419084
H49	H	-0.122918	-1.716500	0.000113
H50	H	-0.012519	-1.549256	0.618442
H51	H	-0.005341	-0.914709	-0.093599
H52	H	-0.002297	-1.133213	-0.094785
O53	O	-0.015420	-0.907247	0.126060
H54	H	-0.062792	-0.864259	0.091291
H55	H	0.195380	-0.867739	-0.138168
O56	O	-0.028409	-1.564358	0.365745
H57	H	-0.055299	-1.615480	0.454907
O58	O	0.103005	-0.880376	-0.262902
H59	H	0.087372	-0.967283	-0.325462
O60	O	0.217703	-1.091371	-0.138619
H61	H	0.229430	-1.150236	-0.047590
O62	O	-0.559428	-1.735436	0.000026
H63	H	-0.526631	-1.741862	0.094309
O64	O	-0.266733	-1.743267	0.000104
H65	H	-0.234563	-1.824718	0.000137
O66	O	-0.011618	-1.148096	0.125476
H67	H	-0.066892	-1.126235	0.121597
H68	H	-0.226946	-1.293208	0.000036
H69	H	-0.094804	-1.296735	0.000044
H70	H	-0.699142	-1.701060	-0.000005
H71	H	0.116284	-1.106595	-0.230348
O72	O	-0.678606	-1.250460	-0.000022
H73	H	-0.736672	-1.268370	-0.000017
H74	H	0.114594	-1.104902	0.230309
H75	H	-0.538899	-1.284841	-0.000006
O76	O	0.215392	-0.852182	0.132052
H77	H	0.223798	-0.788890	0.039977
H78	H	0.213788	-1.410467	0.621216
O79	O	0.107887	-0.875343	0.263483
H80	H	0.109688	-0.769753	0.265390
O81	O	0.216805	-1.093793	0.143150
H82	H	0.246333	-1.056731	0.049793
O83	O	0.146676	-1.263875	0.367201
H84	H	0.140089	-1.200113	0.457030
H85	H	0.149839	-1.295284	0.619541
H86	H	0.214309	-1.410915	0.380970
H87	H	0.173535	-1.653830	0.617625
H88	H	0.080409	-1.711170	0.619052
O89	O	0.066452	-1.737130	0.368058
H90	H	0.027570	-1.696452	0.300456
H91	H	0.172529	-1.654959	0.378429
H92	H	0.013866	-1.378326	0.621048
O93	O	0.013472	-1.340684	0.368510
H94	H	0.056941	-1.297560	0.301832
