data_functionalizedCrystal
_audit_creation_method	'MofGen! by Chris Wilmer'
_symmetry_space_group_name_H-M	'P1'
_symmetry_Int_Tables_number	1
_symmetry_cell_setting	triclinic
loop_
_symmetry_equiv_pos_as_xyz
  x,y,z
_cell_length_a	14.853567
_cell_length_b	10.723024
_cell_length_c	9.198806
_cell_angle_alpha	90.002012
_cell_angle_beta	90.000973
_cell_angle_gamma	84.051400
loop_
_atom_site_label
_atom_site_type_symbol
_atom_site_fract_x
_atom_site_fract_y
_atom_site_fract_z
O1	O	-1.197224	-0.162914	-0.120788
O2	O	-0.934867	-0.182321	-0.120813
O3	O	-1.072098	0.009020	-0.120795
O4	O	-1.059994	-0.354255	-0.120807
O5	O	-1.072087	0.009021	0.120990
O6	O	-0.934856	-0.182320	0.120972
O7	O	-1.197213	-0.162913	0.120997
Cu8	Cu	-1.066034	-0.172617	0.143061
Cu9	Cu	-1.066047	-0.172617	-0.142877
O10	O	-1.059983	-0.354254	0.120979
C11	C	-1.071211	0.055511	0.000096
C12	C	-1.068576	0.194039	0.000091
C13	C	-0.901269	-0.181441	0.000077
C14	C	-0.801171	-0.178806	0.000067
C15	C	-1.230812	-0.163793	0.000104
C16	C	-1.330910	-0.166428	0.000104
C17	C	-0.387978	-0.054006	0.000104
C18	C	-0.367897	-0.281324	0.000095
C19	C	-0.461944	-0.283802	0.000090
C20	C	-0.519013	-0.171380	0.000090
C21	C	-0.482034	-0.056481	0.000095
C22	C	-0.498930	-0.398699	0.000071
C23	C	-0.592982	-0.401181	0.000064
C24	C	-0.650052	-0.288758	0.000075
C25	C	-0.613068	-0.173854	0.000081
C26	C	-0.670137	-0.061433	0.000081
C27	C	-0.633155	0.053473	0.000098
C28	C	-0.539104	0.055942	0.000105
C29	C	-0.744103	-0.291228	0.000067
C30	C	-0.764192	-0.063907	0.000072
C31	C	-1.060870	-0.400745	0.000085
C32	C	-1.063505	-0.539273	0.000080
N33	N	-1.066031	-0.172616	0.344175
C34	C	-1.145363	0.269798	0.000096
C35	C	-1.142641	0.412974	0.000090
N36	N	-1.066057	-0.172609	-0.343991
C37	C	-1.123650	-0.091925	0.416380
C38	C	-1.123664	-0.091921	0.583792
H39	H	-0.810652	0.027642	0.000077
N40	N	-0.978823	0.248516	0.000100
H41	H	-0.927953	0.178288	0.000101
H42	H	-0.974271	0.301891	-0.089533
H43	H	-1.208376	0.478071	0.000101
N44	N	-1.000701	-0.264114	0.573778
H45	H	-0.962257	-0.317957	0.644981
H46	H	-1.035703	-0.319169	0.510614
N47	N	-1.188961	-0.000386	0.334110
H48	H	-1.179684	-0.013351	0.226178
H49	H	-1.253077	-0.014661	0.360603
H50	H	-1.172998	-0.022843	0.645885
N51	N	-0.437370	-0.519935	0.000024
H52	H	-0.449345	-0.570028	-0.089631
H53	H	-0.372209	-0.500804	0.000078
N54	N	-0.783986	-0.415149	0.000037
H55	H	-0.763229	-0.464415	0.089660
H56	H	-0.852219	-0.399558	-0.000022
N57	N	-0.694710	0.174725	0.000087
H58	H	-0.759900	0.155714	0.000072
H59	H	-0.682667	0.224791	0.089727
N60	N	-0.499218	0.179866	0.000134
H61	H	-0.430978	0.164372	0.000136
H62	H	-0.520039	0.229074	-0.089494
N63	N	-1.000700	-0.264123	0.426451
H64	H	-0.962245	-0.317971	0.355265
H65	H	-0.960487	-0.216359	0.489609
N66	N	-0.348099	0.069923	0.000141
H67	H	-0.279858	0.054439	0.000155
H68	H	-0.368918	0.119131	-0.089488
H69	H	-0.321427	-0.372852	0.000083
N70	N	-0.632867	-0.525106	0.000037
H71	H	-0.582443	-0.595947	0.000033
H72	H	-0.671453	-0.531091	0.089666
H73	H	-1.213118	0.228661	0.000111
N74	N	-0.976428	0.374504	0.000075
H75	H	-0.940113	0.390638	-0.089559
H76	H	-0.940178	0.390691	0.089760
