data_functionalizedCrystal
_audit_creation_method	'MofGen! by Chris Wilmer'
_symmetry_space_group_name_H-M	'P1'
_symmetry_Int_Tables_number	1
_symmetry_cell_setting	triclinic
loop_
_symmetry_equiv_pos_as_xyz
  x,y,z
_cell_length_a	12.759401
_cell_length_b	16.120444
_cell_length_c	12.759393
_cell_angle_alpha	87.136376
_cell_angle_beta	90.018496
_cell_angle_gamma	92.926596
loop_
_atom_site_label
_atom_site_type_symbol
_atom_site_fract_x
_atom_site_fract_y
_atom_site_fract_z
Zn1	Zn	1.584964	-0.331854	0.615151
Zn2	Zn	1.575912	-0.471293	0.448366
Zn3	Zn	1.409263	-0.331898	0.439493
Zn4	Zn	1.400313	-0.471228	0.624004
O5	O	1.492613	-0.401568	0.531754
O6	O	1.730784	-0.350360	0.593035
O7	O	1.553764	-0.452847	0.300171
O8	O	1.440104	-0.215227	0.455376
O9	O	1.724134	-0.452804	0.470499
O10	O	1.569191	-0.215194	0.584432
O11	O	1.431327	-0.350434	0.293652
O12	O	1.261056	-0.350372	0.463960
O13	O	1.424850	-0.452695	0.769848
O14	O	1.254480	-0.452737	0.599519
O15	O	1.560512	-0.350298	0.763344
O16	O	1.545085	-0.587950	0.479083
O17	O	1.416072	-0.587903	0.608123
C18	C	1.219647	-0.401553	0.531738
C19	C	1.102869	-0.401567	0.531758
C20	C	1.044605	-0.454954	0.602238
C21	C	0.934880	-0.454964	0.602250
C22	C	0.941694	-0.348198	0.461293
C23	C	1.051417	-0.348184	0.461287
C24	C	1.040671	-0.516597	0.683615
C25	C	0.930946	-0.516607	0.683627
C26	C	1.478654	-0.618176	0.545550
C27	C	1.472778	-0.710842	0.551487
C28	C	1.523352	-0.921787	0.501181
C29	C	1.462069	-0.880498	0.562338
C30	C	1.468029	-0.786093	0.556298
C31	C	1.517393	-1.016201	0.507218
C32	C	1.766645	-0.401584	0.531770
C33	C	1.883422	-0.401591	0.531776
C34	C	1.492692	-0.401484	0.805782
C35	C	1.492726	-0.401448	0.922556
C36	C	1.506656	-0.184115	0.517927
C37	C	1.512640	-0.091449	0.512035
C38	C	1.492599	-0.401592	0.258788
C39	C	1.492784	-0.401393	0.141999
C40	C	1.563375	-0.348125	0.974033
C41	C	1.563402	-0.348095	1.083755
C42	C	1.422127	-0.454719	1.090515
C43	C	1.422096	-0.454744	0.980794
C44	C	1.644942	-0.286569	0.970132
C45	C	1.644969	-0.286539	1.079854
H46	H	0.897009	-0.581161	0.665813
H47	H	1.720729	-0.309715	0.937572
C48	C	0.887775	-0.485891	0.784898
C49	C	0.971020	-0.465524	0.851974
C50	C	0.931289	-0.437231	0.945273
H51	H	0.848961	-0.438038	0.769611
H52	H	0.843178	-0.528379	0.817985
H53	H	1.015599	-0.423039	0.818893
H54	H	1.009841	-0.513364	0.867290
H55	H	0.886693	-0.479719	0.978360
H56	H	0.892476	-0.389381	0.929975
H57	H	0.987764	-0.423416	0.990799
H58	H	1.070752	-0.577899	0.658241
H59	H	1.071584	-0.499378	0.763924
H60	H	1.580289	-0.886239	0.444290
C61	C	1.751932	-0.309770	1.121001
C62	C	1.773315	-0.389106	1.089363
C63	C	1.871826	-0.410536	1.127263
H64	H	1.804212	-0.270479	1.093720
H65	H	1.751964	-0.309796	1.195462
H66	H	1.773291	-0.389073	1.014917
H67	H	1.721060	-0.428414	1.116642
H68	H	1.871858	-0.410563	1.201724
H69	H	1.924098	-0.371240	1.099980
H70	H	1.886343	-0.464370	1.105811
C71	C	1.611440	-0.204662	1.119839
C72	C	1.589190	-0.150452	1.034487
C73	C	1.558312	-0.075020	1.071282
H74	H	1.550524	-0.214436	1.162344
H75	H	1.666518	-0.180483	1.160182
H76	H	1.534117	-0.174626	0.994161
H77	H	1.650091	-0.140655	0.991974
H78	H	1.613390	-0.050841	1.111625
H79	H	1.497398	-0.084802	1.113787
H80	H	1.543221	-0.038227	1.013377
H81	H	1.098852	-0.304706	0.403902
C82	C	1.386168	-0.928046	0.638093
C83	C	1.395243	-1.013587	0.629071
C84	C	1.325331	-1.057417	0.698824
H85	H	1.402310	-0.913871	0.707852
H86	H	1.316437	-0.913937	0.621754
H87	H	1.464958	-1.027691	0.645416
H88	H	1.379092	-1.027787	0.559327
H89	H	1.255600	-1.043308	0.682486
H90	H	1.341479	-1.043235	0.768579
H91	H	1.331472	-1.115461	0.692706
H92	H	1.364563	-0.498162	0.938886
C93	C	1.345570	-0.512554	1.153935
C94	C	1.360732	-0.501134	1.261043
C95	C	1.290236	-0.554407	1.319495
H96	H	1.275716	-0.500407	1.135303
H97	H	1.357333	-0.568593	1.139572
H98	H	1.348960	-0.445107	1.275399
H99	H	1.430571	-0.513287	1.279706
H100	H	1.302000	-0.610447	1.305132
H101	H	1.220387	-0.542255	1.300854
H102	H	1.300520	-0.546671	1.392174
C103	C	0.885632	-0.290342	0.384820
C104	C	0.777069	-0.301794	0.399891
C105	C	0.725394	-0.248521	0.329449
H106	H	0.907095	-0.234303	0.396670
H107	H	0.902747	-0.302488	0.314955
H108	H	0.759962	-0.289642	0.469740
H109	H	0.755576	-0.357822	0.388033
H110	H	0.742509	-0.260667	0.259584
H111	H	0.746865	-0.192486	0.341305
H112	H	0.651729	-0.256290	0.339658
H113	H	1.627316	-0.222004	0.936257
