data_functionalizedCrystal
_audit_creation_method	'MofGen! by Chris Wilmer'
_symmetry_space_group_name_H-M	'P1'
_symmetry_Int_Tables_number	1
_symmetry_cell_setting	triclinic
loop_
_symmetry_equiv_pos_as_xyz
  x,y,z
_cell_length_a	27.780883
_cell_length_b	27.780835
_cell_length_c	27.780970
_cell_angle_alpha	89.997327
_cell_angle_beta	119.999811
_cell_angle_gamma	120.003262
loop_
_atom_site_label
_atom_site_type_symbol
_atom_site_fract_x
_atom_site_fract_y
_atom_site_fract_z
O1	O	-0.344543	-0.754811	-0.330205
O2	O	-0.245971	-0.586242	-0.260209
O3	O	-0.344540	-0.684808	-0.260207
O4	O	-0.245974	-0.656244	-0.330208
O5	O	-0.424599	-0.684808	-0.340266
O6	O	-0.326030	-0.586242	-0.340268
O7	O	-0.424603	-0.754811	-0.410265
Cu8	Cu	-0.382627	-0.670526	-0.382577
Cu9	Cu	-0.287947	-0.670526	-0.287897
O10	O	-0.326034	-0.656244	-0.410267
C11	C	-0.492844	-0.700437	-0.120432
C12	C	-0.459053	-0.696349	-0.056937
C13	C	-0.464147	-0.700844	-0.149667
C14	C	-0.580009	-0.700437	-0.207598
C15	C	-0.639416	-0.696349	-0.237303
C16	C	-0.551180	-0.700844	-0.236701
C17	C	-0.492842	-0.700437	-0.207597
C18	C	-0.459050	-0.696349	-0.237300
C19	C	-0.551182	-0.700844	-0.149668
C20	C	-0.431748	-0.693045	-0.261297
C21	C	-0.431753	-0.693045	-0.005640
C22	C	-0.687410	-0.693045	-0.261300
C23	C	-0.397498	-0.688901	-0.291402
C24	C	-0.397504	-0.688902	0.058715
C25	C	-0.747621	-0.688901	-0.291407
O26	O	-0.905292	-0.656244	-0.330219
O27	O	-0.765292	-0.684808	-0.260213
O28	O	-0.765287	-0.586241	-0.260217
O29	O	-0.905297	-0.754811	-0.330214
O30	O	-0.765284	-0.586241	-0.340275
O31	O	-0.765289	-0.684808	-0.340271
O32	O	-0.905289	-0.656244	-0.410277
Cu33	Cu	-0.835288	-0.670526	-0.382584
Cu34	Cu	-0.835292	-0.670526	-0.287906
O35	O	-0.905294	-0.754811	-0.410272
C36	C	-0.090571	-0.298166	-0.120427
C37	C	-0.031165	-0.268463	-0.056932
C38	C	-0.119400	-0.269063	-0.149662
C39	C	-0.177735	-0.385331	-0.207594
C40	C	-0.211525	-0.448826	-0.237299
C41	C	-0.206432	-0.356096	-0.236696
C42	C	-0.177738	-0.298166	-0.207593
C43	C	-0.211530	-0.268463	-0.237296
C44	C	-0.119398	-0.356096	-0.149663
C45	C	-0.238832	-0.244467	-0.261292
C46	C	0.016828	-0.244466	-0.005634
C47	C	-0.238825	-0.500124	-0.261297
C48	C	-0.273083	-0.214362	-0.291398
C49	C	0.077039	-0.214361	0.058721
C50	C	-0.273073	-0.564479	-0.291403
C51	C	-0.177739	-0.640616	-0.550050
C52	C	-0.211532	-0.644704	-0.613544
C53	C	-0.119401	-0.640208	-0.520816
C54	C	-0.177737	-0.640616	-0.462883
C55	C	-0.211528	-0.644704	-0.433178
C56	C	-0.119399	-0.640208	-0.433781
C57	C	-0.090572	-0.640616	-0.462885
C58	C	-0.031165	-0.644703	-0.433183
C59	C	-0.206434	-0.640209	-0.520813
C60	C	0.016829	-0.648007	-0.409187
C61	C	-0.238834	-0.648008	-0.664842
C62	C	-0.238828	-0.648007	-0.409180
C63	C	0.077040	-0.652151	-0.379082
C64	C	-0.273085	-0.652152	-0.729197
C65	C	-0.273076	-0.652151	-0.379073
C66	C	-0.492855	-1.042896	-0.462868
C67	C	-0.459065	-1.072600	-0.433164
C68	C	-0.551195	-1.072000	-0.520798
C69	C	-0.492851	-0.955727	-0.462870
C70	C	-0.459057	-0.892230	-0.433169
C71	C	-0.551191	-0.984963	-0.520800
C72	C	-0.580021	-1.042896	-0.550034
C73	C	-0.639430	-1.072601	-0.613528
C74	C	-0.464157	-0.984963	-0.433767
C75	C	-0.687425	-1.096599	-0.664825
C76	C	-0.431765	-1.096597	-0.409166
C77	C	-0.431754	-0.840931	-0.409173
C78	C	-0.747638	-1.126706	-0.729180
C79	C	-0.397517	-1.126704	-0.379059
C80	C	-0.397501	-0.776574	-0.379069
O81	O	-0.326041	-0.245558	-0.340262
O82	O	-0.424619	-0.175568	-0.410254
O83	O	-0.326050	-0.175551	-0.410260
O84	O	-0.424610	-0.245575	-0.340256
O85	O	-0.245991	-0.095492	-0.330201
O86	O	-0.344560	-0.095509	-0.330195
O87	O	-0.245981	-0.165498	-0.260202
Cu88	Cu	-0.287961	-0.123193	-0.287888
Cu89	Cu	-0.382640	-0.217873	-0.382568
O90	O	-0.344551	-0.165515	-0.260196
O91	O	-0.424611	-0.754811	0.150479
O92	O	-0.326038	-0.586242	0.179038
O93	O	-0.424607	-0.684809	0.080477
O94	O	-0.326043	-0.656245	0.249040
O95	O	-0.344547	-0.684809	0.080478
O96	O	-0.245978	-0.586242	0.179039
O97	O	-0.344551	-0.754812	0.150480
Cu98	Cu	-0.287955	-0.670527	0.164759
Cu99	Cu	-0.382635	-0.670527	0.164759
O100	O	-0.245983	-0.656245	0.249041
O101	O	0.094703	-0.245566	0.179043
O102	O	0.234715	-0.175547	0.150486
O103	O	0.234708	-0.175557	0.249047
O104	O	0.094710	-0.245556	0.080483
O105	O	0.234704	-0.095499	0.249047
O106	O	0.234711	-0.095489	0.150486
O107	O	0.094699	-0.165508	0.179043
Cu108	Cu	0.164705	-0.123188	0.164765
Cu109	Cu	0.164709	-0.217867	0.164765
O110	O	0.094706	-0.165498	0.080483
C111	C	-0.492821	-0.298158	-0.207615
C112	C	-0.459028	-0.268455	-0.237319
C113	C	-0.464125	-0.269053	-0.149686
C114	C	-0.579993	-0.385325	-0.207612
C115	C	-0.639403	-0.448822	-0.237314
C116	C	-0.551164	-0.356088	-0.149683
C117	C	-0.492823	-0.298155	-0.120450
C118	C	-0.459031	-0.268449	-0.056956
C119	C	-0.551163	-0.356090	-0.236716
C120	C	-0.431730	-0.244451	-0.005660
C121	C	-0.431725	-0.244458	-0.261316
C122	C	-0.687400	-0.500121	-0.261309
C123	C	-0.397480	-0.214343	0.058694
C124	C	-0.397473	-0.214353	-0.291423
C125	C	-0.747615	-0.564478	-0.291412
C126	C	-1.177770	-1.042889	-0.550054
C127	C	-1.211552	-1.072596	-0.613544
C128	C	-1.206481	-1.071989	-0.520826
C129	C	-1.090604	-0.955721	-0.462890
C130	C	-1.031189	-0.892226	-0.433184
C131	C	-1.119448	-0.984953	-0.433794
C132	C	-1.177793	-1.042883	-0.462900
C133	C	-1.211601	-1.072582	-0.433204
C134	C	-1.119424	-0.984959	-0.520816
C135	C	-1.238915	-1.096576	-0.409214
C136	C	-1.238845	-1.096595	-0.664839
C137	C	-0.983188	-0.840928	-0.409186
C138	C	-1.273180	-1.126677	-0.379117
C139	C	-1.273085	-1.126704	-0.729190
C140	C	-0.922968	-0.776573	-0.379078
C141	C	-0.177720	-0.298156	0.194660
C142	C	-0.211509	-0.268451	0.190571
C143	C	-0.119380	-0.269053	0.195067
C144	C	-0.177726	-0.385326	0.194662
C145	C	-0.211521	-0.448823	0.190576
C146	C	-0.119386	-0.356090	0.195069
C147	C	-0.090554	-0.298158	0.194661
C148	C	-0.031145	-0.268454	0.190573
C149	C	-0.206419	-0.356089	0.195069
C150	C	0.016851	-0.244457	0.187269
C151	C	-0.238808	-0.244453	0.187267
C152	C	-0.238826	-0.500122	0.187273
C153	C	0.077064	-0.214351	0.183124
C154	C	-0.273055	-0.214345	0.183122
C155	C	-0.273079	-0.564479	0.183131
O156	O	-0.325996	-0.175542	0.249026
O157	O	-0.424575	-0.245543	0.080461
O158	O	-0.325990	-0.245527	0.179019
O159	O	-0.424582	-0.175558	0.150467
O160	O	-0.245943	-0.165455	0.179010
O161	O	-0.344529	-0.165471	0.080451
O162	O	-0.245950	-0.095470	0.249016
Cu163	Cu	-0.287930	-0.123159	0.164733
Cu164	Cu	-0.382595	-0.217854	0.164744
O165	O	-0.344535	-0.095486	0.150458
C166	C	-0.580028	-1.042897	0.134857
C167	C	-0.639437	-1.072603	0.138945
C168	C	-0.551200	-1.072000	0.134451
C169	C	-0.492858	-0.955728	0.134856
C170	C	-0.459064	-0.892231	0.138942
C171	C	-0.464162	-0.984963	0.134450
C172	C	-0.492860	-1.042895	0.134858
C173	C	-0.459069	-1.072599	0.138947
C174	C	-0.551198	-0.984965	0.134449
C175	C	-0.431768	-1.096595	0.142252
C176	C	-0.687433	-1.096602	0.142249
C177	C	-0.431761	-0.840931	0.142245
C178	C	-0.397519	-1.126701	0.146397
C179	C	-0.747646	-1.126710	0.146393
C180	C	-0.397510	-0.776574	0.146387
H181	H	-0.417206	-0.701502	-0.126193
F182	F	-0.087843	-0.206839	0.195918
H183	H	-0.095265	-0.379567	0.195722
H184	H	-0.575312	-0.961488	-0.544272
H185	H	-0.575293	-0.379558	-0.284316
F186	F	-0.087875	-0.639364	-0.551500
F187	F	-0.087859	-0.639347	-0.371566
F188	F	-0.582735	-1.134215	0.133600
H189	H	-1.253426	-1.119589	-0.544299
F190	F	-0.267796	-0.639358	-0.551493
F191	F	-1.087880	-0.954280	-0.551491
F192	F	-0.267795	-0.386778	-0.298908
F193	F	-0.582738	-1.134218	-0.551472
H194	H	-0.417221	-0.961489	0.133788
F195	F	-0.402795	-0.954282	-0.371555
F196	F	-0.267781	-0.386769	0.195922
H197	H	-0.575303	-0.701492	-0.126192
H198	H	-0.095269	-0.221463	-0.126189
H199	H	-0.575293	-0.379563	-0.126212
F200	F	-0.402771	-0.206834	-0.119013
H201	H	-0.575325	-0.961495	0.133794
H202	H	-0.575297	-0.701481	-0.284293
F203	F	-0.087863	-0.386775	-0.118984
F204	F	-1.087925	-0.954268	-0.371587
