data_functionalizedCrystal
_audit_creation_method	'MofGen! by Chris Wilmer'
_symmetry_space_group_name_H-M	'P1'
_symmetry_Int_Tables_number	1
_symmetry_cell_setting	triclinic
loop_
_symmetry_equiv_pos_as_xyz
  x,y,z
_cell_length_a	15.944551
_cell_length_b	19.288864
_cell_length_c	17.766277
_cell_angle_alpha	90.023209
_cell_angle_beta	89.992686
_cell_angle_gamma	96.682508
loop_
_atom_site_label
_atom_site_type_symbol
_atom_site_fract_x
_atom_site_fract_y
_atom_site_fract_z
O1	O	0.104784	-0.921629	-0.062837
O2	O	0.604784	-0.421629	0.437163
O3	O	0.118919	-0.719406	-0.062786
O4	O	0.618919	-0.219406	0.437214
O5	O	-0.010445	-0.826040	-0.062806
O6	O	0.489555	-0.326040	0.437194
O7	O	0.234147	-0.814995	-0.062817
O8	O	0.734147	-0.314995	0.437183
O9	O	-0.010451	-0.826021	0.062382
O10	O	0.489549	-0.326021	0.562382
O11	O	0.118912	-0.719387	0.062403
O12	O	0.618912	-0.219387	0.562403
O13	O	0.104777	-0.921610	0.062351
O14	O	0.604777	-0.421610	0.562351
Cu15	Cu	0.111844	-0.820497	0.073808
Cu16	Cu	0.611844	-0.320497	0.573808
Cu17	Cu	0.111852	-0.820519	-0.074242
Cu18	Cu	0.611852	-0.320519	0.425758
O19	O	0.234141	-0.814976	0.062372
O20	O	0.734141	-0.314976	0.562372
C21	C	0.118461	-0.693519	-0.000185
C22	C	0.618461	-0.193519	0.499815
C23	C	0.117095	-0.616411	-0.000165
C24	C	0.617095	-0.116411	0.499835
C25	C	-0.041740	-0.825572	-0.000212
C26	C	0.458260	-0.325572	0.499788
C27	C	-0.134981	-0.824197	-0.000211
C28	C	0.365019	-0.324197	0.499789
N29	N	0.111838	-0.820486	0.177938
N30	N	0.611838	-0.320486	0.677938
C31	C	-0.349571	-0.754815	-0.000204
C32	C	0.150429	-0.254815	0.499796
C33	C	-0.410715	-0.787024	0.061514
C34	C	0.089285	-0.287024	0.561514
C35	C	-0.305697	-0.821710	-0.000216
C36	C	0.194303	-0.321710	0.499784
C37	C	-0.410692	-0.787059	-0.061912
C38	C	0.089308	-0.287059	0.438088
C39	C	-0.470601	-0.819303	-0.000224
C40	C	0.029399	-0.319303	0.499776
C41	C	-0.365614	-0.853938	0.061552
C42	C	0.134386	-0.353938	0.561552
C43	C	-0.365585	-0.853963	-0.061929
C44	C	0.134415	-0.353963	0.438071
C45	C	-0.426712	-0.886222	-0.000197
C46	C	0.073288	-0.386222	0.499803
C47	C	-0.210700	-0.823095	-0.000211
C48	C	0.289300	-0.323095	0.499789
C49	C	-0.565597	-0.817924	-0.000224
C50	C	-0.065597	-0.317924	0.499776
C51	C	0.265436	-0.815444	-0.000225
C52	C	0.765436	-0.315444	0.499775
C53	C	0.358677	-0.816819	-0.000230
C54	C	0.858677	-0.316819	0.499770
C55	C	0.105235	-0.947497	-0.000251
C56	C	0.605235	-0.447497	0.499749
C57	C	0.106600	-1.024605	-0.000276
C58	C	0.606600	-0.524605	0.499724
C59	C	0.193000	-0.571915	-0.000181
C60	C	0.693000	-0.071915	0.499819
C61	C	0.191717	-0.499465	-0.000189
C62	C	0.691717	0.000535	0.499811
C63	C	0.114526	-0.471514	-0.000197
C64	C	0.614526	0.028486	0.499803
C65	C	0.038611	-0.516020	-0.000178
C66	C	0.538611	-0.016020	0.499822
C67	C	0.039896	-0.588469	-0.000162
C68	C	0.539896	-0.088469	0.499838
C69	C	0.053847	-0.363099	-0.044079
C70	C	0.553847	0.136901	0.455921
C71	C	0.052565	-0.290651	-0.044099
C72	C	0.552565	0.209349	0.455901
C73	C	0.110560	-0.248058	-0.000242
C74	C	0.610560	0.251942	0.499758
C75	C	0.169850	-0.277920	0.043625
C76	C	0.669850	0.222080	0.543625
C77	C	0.171135	-0.350369	0.043641
C78	C	0.671135	0.149631	0.543641
C79	C	0.113124	-0.392956	-0.000214
C80	C	0.613124	0.107044	0.499786
C81	C	0.185079	-0.125002	-0.000265
C82	C	0.685079	0.374998	0.499735
C83	C	0.183793	-0.052550	-0.000269
C84	C	0.683793	0.447450	0.499731
C85	C	0.030684	-0.069107	-0.000265
C86	C	0.530684	0.430893	0.499735
C87	C	0.031972	-0.141557	-0.000254
C88	C	0.531972	0.358443	0.499746
C89	C	0.109172	-0.169500	-0.000258
C90	C	0.609172	0.330500	0.499742
N91	N	0.111851	-0.820535	-0.178373
N92	N	0.611851	-0.320535	0.321627
C93	C	0.054584	-0.867719	0.217316
C94	C	0.554584	-0.367719	0.717316
C95	C	0.054580	-0.867723	0.296118
C96	C	0.554580	-0.367723	0.796118
C97	C	0.111845	-0.820501	0.335539
C98	C	0.611845	-0.320501	0.835539
C99	C	0.169103	-0.773259	0.296151
C100	C	0.669103	-0.273259	0.796151
C101	C	0.169100	-0.773252	0.217351
C102	C	0.669100	-0.273252	0.717351
C103	C	0.188378	-0.811404	0.460375
C104	C	0.688378	-0.311404	0.960375
C105	C	0.188382	-0.811416	0.539173
C106	C	0.688382	-0.311416	1.039173
C107	C	0.111855	-0.820520	0.578585
C108	C	0.611855	-0.320520	1.078585
C109	C	0.035319	-0.829626	0.539188
C110	C	0.535319	-0.329626	1.039188
C111	C	0.035316	-0.829618	0.460387
C112	C	0.535316	-0.329618	0.960387
C113	C	0.111854	-0.820503	0.420984
C114	C	0.611854	-0.320503	0.920984
C115	C	0.054592	-0.867759	0.703409
C116	C	0.554592	-0.367759	1.203409
C117	C	0.054587	-0.867759	0.782212
C118	C	0.554587	-0.367759	1.282212
C119	C	0.169117	-0.773298	0.782244
C120	C	0.669117	-0.273298	1.282244
C121	C	0.169115	-0.773295	0.703442
C122	C	0.669115	-0.273295	1.203442
C123	C	0.111853	-0.820530	0.664029
C124	C	0.611853	-0.320530	1.164029
H125	H	-0.316049	-0.699288	-0.000128
H126	H	0.183951	-0.199288	0.499872
N127	N	-0.008707	-0.409033	-0.091388
N128	N	0.491293	0.090967	0.408612
H129	H	0.001100	-0.459460	-0.084720
H130	H	0.501100	0.040540	0.415280
H131	H	-0.068004	-0.402746	-0.074993
H132	H	0.431996	0.097254	0.425007
N133	N	-0.007162	-0.918709	0.824691
N134	N	0.492838	-0.418709	1.324691
H135	H	0.024857	-0.949453	0.857364
H136	H	0.524857	-0.449453	1.357364
H137	H	-0.044260	-0.892125	0.857362
H138	H	0.455740	-0.392125	1.357362
N139	N	0.230881	-0.722355	0.660973
N140	N	0.730881	-0.222355	1.160973
H141	H	0.267990	-0.748892	0.628258
H142	H	0.767990	-0.248892	1.128258
H143	H	0.198818	-0.691609	0.628344
H144	H	0.698818	-0.191609	1.128344
H145	H	-0.430717	-0.758722	0.113705
H146	H	0.069283	-0.258722	0.613705
N147	N	-0.007180	-0.918661	0.174810
N148	N	0.492820	-0.418661	0.674810
H149	H	-0.044293	-0.892119	0.142136
H150	H	0.455707	-0.392119	0.642136
H151	H	0.024886	-0.949396	0.142138
H152	H	0.524886	-0.449396	0.642138
H153	H	-0.345735	-0.882201	0.113786
H154	H	0.154265	-0.382201	0.613786
H155	H	0.007955	-0.906187	0.328185
H156	H	0.507955	-0.406187	0.828185
H157	H	-0.027001	-0.837031	0.428314
H158	H	0.472999	-0.337031	0.928314
N159	N	0.276263	-0.602051	-0.000167
N160	N	0.776263	-0.102051	0.499833
H161	H	0.265562	-0.654699	-0.000153
H162	H	0.765562	-0.154699	0.499847
H163	H	0.309472	-0.585800	-0.046579
H164	H	0.809472	-0.085800	0.453421
N165	N	-0.041980	-0.636461	-0.000144
N166	N	0.458020	-0.136461	0.499856
H167	H	-0.075671	-0.627496	-0.046552
H168	H	0.424329	-0.127496	0.453448
H169	H	-0.029386	-0.686579	-0.000106
H170	H	0.470614	-0.186579	0.499894
H171	H	-0.026997	-0.837039	0.571275
H172	H	0.473003	-0.337039	1.071275
N173	N	0.230857	-0.722303	0.174880
N174	N	0.730857	-0.222303	0.674880
H175	H	0.290450	-0.730300	0.188581
H176	H	0.790450	-0.230300	0.688581
H177	H	0.222096	-0.729488	0.118992
H178	H	0.722096	-0.229488	0.618992
N179	N	0.268342	-0.155141	-0.000259
N180	N	0.768342	0.344859	0.499741
H181	H	0.272284	-0.184809	0.046153
H182	H	0.772284	0.315191	0.546153
H183	H	0.272243	-0.184819	-0.046693
H184	H	0.772243	0.315181	0.453307
H185	H	-0.430657	-0.758764	-0.114093
H186	H	0.069343	-0.258764	0.385907
N187	N	-0.339059	-0.891426	-0.131062
N188	N	0.160941	-0.391426	0.368938
H189	H	-0.355262	-0.866119	-0.177658
H190	H	0.144738	-0.366119	0.322342
H191	H	-0.275883	-0.892464	-0.130215
H192	H	0.224117	-0.392464	0.369785
H193	H	0.250702	-0.804006	0.571244
H194	H	0.750702	-0.304006	1.071244
H195	H	0.245606	-0.016321	-0.000277
H196	H	0.745606	0.483679	0.499723
N197	N	-0.007167	-0.918700	0.660892
N198	N	0.492833	-0.418700	1.160892
H199	H	-0.043444	-0.948619	0.697799
H200	H	0.456556	-0.448619	1.197799
H201	H	-0.044219	-0.892108	0.628214
H202	H	0.455781	-0.392108	1.128214
H203	H	0.215740	-0.734846	0.814340
H204	H	0.715740	-0.234846	1.314340
N205	N	0.270924	-0.801586	0.417870
N206	N	0.770924	-0.301586	0.917870
H207	H	0.319407	-0.795826	0.454783
H208	H	0.819407	-0.295826	0.954783
H209	H	0.275692	-0.843779	0.385153
H210	H	0.775692	-0.343779	0.885153
N211	N	0.273588	-0.451460	-0.000207
N212	N	0.773588	0.048540	0.499793
H213	H	0.322688	-0.480155	-0.000206
H214	H	0.822688	0.019845	0.499794
H215	H	0.276382	-0.421069	-0.046625
H216	H	0.776382	0.078931	0.453375
N217	N	0.230864	-0.722322	0.338664
N218	N	0.730864	-0.222322	0.838664
H219	H	0.222180	-0.729495	0.394559
H220	H	0.722180	-0.229495	0.894559
H221	H	0.290428	-0.730341	0.324875
H222	H	0.790428	-0.230341	0.824875
H223	H	0.219409	-0.374680	0.079362
H224	H	0.719409	0.125320	0.579362
N225	N	-0.470923	-0.959834	-0.000177
N226	N	0.029077	-0.459834	0.499823
H227	H	-0.454549	-0.984997	0.046459
H228	H	0.045451	-0.484997	0.546459
H229	H	-0.534046	-0.958452	-0.000648
H230	H	-0.034046	-0.458452	0.499352
H231	H	0.217075	-0.243242	0.079338
H232	H	0.717075	0.256758	0.579338
H233	H	-0.032167	-0.046351	-0.000319
H234	H	0.467833	0.453649	0.499681
H235	H	-0.029838	-0.177787	-0.000246
H236	H	0.470162	0.322213	0.499754
H237	H	0.004291	-0.266342	-0.079822
H238	H	0.504291	0.233658	0.420178
N239	N	-0.044647	-0.485878	-0.000178
N240	N	0.455353	0.014122	0.499822
H241	H	-0.033944	-0.433230	-0.000191
H242	H	0.466056	0.066770	0.499809
H243	H	-0.077854	-0.502182	-0.046580
H244	H	0.422146	-0.002182	0.453420
