data_functionalizedCrystal
_audit_creation_method	'MofGen! by Chris Wilmer'
_symmetry_space_group_name_H-M	'P1'
_symmetry_Int_Tables_number	1
_symmetry_cell_setting	triclinic
loop_
_symmetry_equiv_pos_as_xyz
  x,y,z
_cell_length_a	17.639054
_cell_length_b	17.640280
_cell_length_c	13.032268
_cell_angle_alpha	87.294217
_cell_angle_beta	84.490606
_cell_angle_gamma	87.823438
loop_
_atom_site_label
_atom_site_type_symbol
_atom_site_fract_x
_atom_site_fract_y
_atom_site_fract_z
Zn1	Zn	1.159129	-0.162985	-0.857787
Zn2	Zn	1.198909	-0.268672	-0.665486
Zn3	Zn	1.047260	-0.165874	-0.652330
Zn4	Zn	1.062548	-0.308402	-0.793045
O5	O	1.116962	-0.226483	-0.742162
O6	O	1.268291	-0.159168	-0.864878
O7	O	1.189043	-0.239617	-0.524372
O8	O	1.039053	-0.061612	-0.701173
O9	O	1.297517	-0.236816	-0.723595
O10	O	1.121243	-0.059489	-0.852121
O11	O	1.077627	-0.164092	-0.514707
O12	O	0.945403	-0.202617	-0.638396
O13	O	1.065110	-0.304531	-0.941002
O14	O	0.956635	-0.307332	-0.741779
O15	O	1.136067	-0.197693	-0.988567
O16	O	1.203867	-0.377821	-0.660818
O17	O	1.103683	-0.407011	-0.754535
C18	C	0.924083	-0.259600	-0.681635
C19	C	0.841571	-0.273788	-0.655761
C20	C	0.740479	-0.334124	-0.545658
C21	C	0.818010	-0.320788	-0.569979
C22	C	0.787604	-0.240109	-0.717259
C23	C	0.710069	-0.253442	-0.692953
C24	C	0.686513	-0.300449	-0.607151
C25	C	0.656103	-0.219767	-0.754446
C26	C	0.578575	-0.233095	-0.730139
C27	C	0.555012	-0.280099	-0.644339
C28	C	0.608985	-0.313778	-0.582844
C29	C	0.679660	-0.172755	-0.840244
C30	C	0.625694	-0.139080	-0.901737
C31	C	0.548165	-0.152413	-0.877434
C32	C	0.524602	-0.199417	-0.791634
C33	C	0.494192	-0.118734	-0.938929
C34	C	0.416664	-0.132063	-0.914622
C35	C	0.447074	-0.212745	-0.767327
C36	C	1.159769	-0.419349	-0.702107
C37	C	1.178148	-0.501850	-0.685026
C38	C	0.977617	-0.849305	-0.872383
C39	C	0.994891	-0.926823	-0.856301
C40	C	1.099262	-0.896367	-0.758861
C41	C	1.081999	-0.818844	-0.774938
C42	C	1.021176	-0.795320	-0.831699
C43	C	1.125558	-0.764859	-0.734255
C44	C	1.108294	-0.687343	-0.750327
C45	C	1.047472	-0.663812	-0.807082
C46	C	1.003912	-0.717804	-0.847771
C47	C	1.186378	-0.788385	-0.677488
C48	C	1.229936	-0.734400	-0.636804
C49	C	1.212676	-0.656882	-0.652882
C50	C	1.151854	-0.633351	-0.709638
C51	C	1.256236	-0.602890	-0.612193
C52	C	1.238972	-0.525374	-0.628265
C53	C	1.134590	-0.555835	-0.725710
C54	C	1.310594	-0.193238	-0.802926
C55	C	1.393108	-0.179071	-0.828820
C56	C	1.097856	-0.255221	-1.001932
C57	C	1.089715	-0.267468	-1.112630
C58	C	1.074005	-0.032863	-0.782402
C59	C	1.055700	0.049647	-0.799549
C60	C	1.121193	-0.220067	-1.185517
C61	C	1.112779	-0.232723	-1.299931
C62	C	1.136023	-0.197796	-0.483427
C63	C	1.144262	-0.185315	-0.372818
H64	H	0.589806	-0.352064	-0.512983
H65	H	1.056530	-0.317415	-1.134932
H66	H	0.427895	-0.251031	-0.697466
H67	H	1.079592	-0.282674	-1.322226
H68	H	1.085066	-0.536682	-0.771939
C69	C	1.028581	-0.579688	-0.824605
C70	C	0.965981	-0.570643	-0.882999
C71	C	0.948551	-0.493160	-0.899150
H72	H	1.071223	-0.555715	-0.860598
H73	H	1.016565	-0.557237	-0.759949
H74	H	0.978001	-0.593084	-0.947644
H75	H	0.923326	-0.594599	-0.847023
H76	H	0.936535	-0.470709	-0.834494
H77	H	0.991197	-0.469194	-0.935141
H78	H	0.906072	-0.487013	-0.938763
C79	C	0.470842	-0.294674	-0.618116
C80	C	0.442473	-0.328634	-0.700888
C81	C	0.364943	-0.342082	-0.676763
H82	H	0.443822	-0.247923	-0.605479
H83	H	0.464516	-0.327525	-0.558243
H84	H	0.448793	-0.295785	-0.760743
H85	H	0.469471	-0.375391	-0.713536
H86	H	0.358616	-0.374933	-0.616890
H87	H	0.337930	-0.295328	-0.664126
H88	H	0.345686	-0.365132	-0.732915
C89	C	1.296051	-0.759993	-0.575356
C90	C	1.349356	-0.802520	-0.637501
C91	C	1.410274	-0.826102	-0.580931
H92	H	1.277706	-0.790370	-0.516748
H93	H	1.319571	-0.716760	-0.553448
H94	H	1.325840	-0.845748	-0.659394
H95	H	1.367722	-0.772159	-0.696108
H96	H	1.433794	-0.782869	-0.559023
H97	H	1.391921	-0.856476	-0.522326
H98	H	1.446452	-0.854953	-0.623091
H99	H	0.742789	-0.161901	-0.860028
H100	H	0.721300	-0.372410	-0.475797
C101	C	0.911536	-0.823908	-0.934014
C102	C	0.877075	-0.887776	-0.966198
C103	C	0.816199	-0.864409	-1.022965
H104	H	0.929895	-0.793594	-0.992675
H105	H	0.875248	-0.795056	-0.892016
H106	H	0.913356	-0.916616	-1.008194
H107	H	0.858699	-0.918097	-0.907558
H108	H	0.779911	-0.835557	-0.980968
H109	H	0.834565	-0.834094	-1.081621
H110	H	0.792805	-0.907739	-1.044801
H111	H	0.861949	-0.348214	-0.519898
H112	H	1.154369	-0.170113	-1.163215
H113	H	0.372722	-0.104638	-0.964692
C114	C	0.813337	-0.189129	-0.810401
C115	C	0.892786	-0.184676	-0.818543
C116	C	0.916517	-0.137730	-0.904343
H117	H	0.790691	-0.139783	-0.802417
H118	H	0.798199	-0.209661	-0.871073
H119	H	0.907917	-0.164141	-0.757886
H120	H	0.915451	-0.234010	-0.826543
H121	H	0.901379	-0.158262	-0.965015
H122	H	0.893866	-0.088387	-0.896352
H123	H	0.970425	-0.134709	-0.909884
C124	C	1.188381	-0.118595	-1.343163
C125	C	1.154061	-0.050702	-1.378583
C126	C	1.194674	0.010777	-1.351277
H127	H	1.239437	-0.122654	-1.373551
H128	H	1.188144	-0.118881	-1.270215
H129	H	1.154307	-0.050416	-1.451517
H130	H	1.103009	-0.046619	-1.348200
H131	H	1.194436	0.010491	-1.278330
H132	H	1.245728	0.006712	-1.381668
H133	H	1.171390	0.056851	-1.375297
H134	H	0.513383	-0.080455	-1.008783
C135	C	0.651428	-0.088100	-0.994879
C136	C	0.730876	-0.083648	-1.003021
C137	C	0.754608	-0.036702	-1.088821
H138	H	0.628782	-0.038754	-0.986895
H139	H	0.636289	-0.108632	-1.055551
H140	H	0.746007	-0.063113	-0.942364
H141	H	0.753542	-0.132981	-1.011021
H142	H	0.739469	-0.057234	-1.149493
H143	H	0.731957	0.012641	-1.080829
H144	H	0.808516	-0.033680	-1.094362
H145	H	0.954388	-0.698651	-0.894001
H146	H	0.959424	-0.970778	-0.889450
H147	H	1.148782	-0.915531	-0.712642
C148	C	1.205193	-0.872552	-0.660252
C149	C	1.222830	-0.905411	-0.755706
C150	C	1.240179	-0.982941	-0.739872
H151	H	1.162526	-0.896546	-0.624358
H152	H	1.247678	-0.878859	-0.620666
H153	H	1.180350	-0.899110	-0.795276
H154	H	1.265501	-0.881440	-0.791615
H155	H	1.282664	-0.989248	-0.700285
H156	H	1.197509	-1.006928	-0.703975
H157	H	1.252155	-1.005245	-0.804633
H158	H	1.274441	-0.481418	-0.595135
C159	C	1.322350	-0.628483	-0.550742
C160	C	1.375656	-0.671012	-0.612884
C161	C	1.436572	-0.694592	-0.556310
H162	H	1.304003	-0.658858	-0.492134
H163	H	1.345869	-0.585249	-0.528835
H164	H	1.352140	-0.714239	-0.634776
H165	H	1.394024	-0.640652	-0.671491
H166	H	1.460092	-0.651358	-0.534403
H167	H	1.418218	-0.724964	-0.497704
H168	H	1.472751	-0.723444	-0.598467
