data_functionalizedCrystal
_audit_creation_method	'MofGen! by Chris Wilmer'
_symmetry_space_group_name_H-M	'P1'
_symmetry_Int_Tables_number	1
_symmetry_cell_setting	triclinic
loop_
_symmetry_equiv_pos_as_xyz
  x,y,z
_cell_length_a	10.654544
_cell_length_b	16.109301
_cell_length_c	14.586319
_cell_angle_alpha	90.005214
_cell_angle_beta	90.004568
_cell_angle_gamma	83.973166
loop_
_atom_site_label
_atom_site_type_symbol
_atom_site_fract_x
_atom_site_fract_y
_atom_site_fract_z
O1	O	-1.666256	-0.116772	-0.076267
O2	O	-1.300627	-0.127898	-0.076264
O3	O	-1.493486	-0.001364	-0.076256
O4	O	-1.473397	-0.243306	-0.076274
O5	O	-1.493472	-0.001362	0.076225
O6	O	-1.300613	-0.127896	0.076217
O7	O	-1.666243	-0.116770	0.076214
Cu8	Cu	-1.483427	-0.122333	0.090138
Cu9	Cu	-1.483443	-0.122335	-0.090188
O10	O	-1.473384	-0.243304	0.076206
C11	C	-1.253833	-0.127080	-0.000023
C12	C	-1.114423	-0.124636	-0.000021
C13	C	-1.713037	-0.117588	-0.000029
C14	C	-1.852447	-0.120032	-0.000036
C15	C	-1.114383	-0.124644	0.166218
C16	C	-1.048869	-0.123502	0.249335
C17	C	-0.917882	-0.121204	0.249331
C18	C	-0.852406	-0.120046	0.166201
C19	C	-0.917920	-0.121188	0.083084
C20	C	-1.048910	-0.123488	0.083097
C21	C	-0.917961	-0.121174	-0.083153
C22	C	-1.048947	-0.123478	-0.083151
C23	C	-0.852485	-0.120016	-0.166282
C24	C	-0.917998	-0.121164	-0.249401
C25	C	-1.048993	-0.123463	-0.249394
C26	C	-1.114461	-0.124620	-0.166268
C27	C	-1.492665	0.029617	-0.000015
C28	C	-1.490226	0.121927	-0.000014
C29	C	-1.474204	-0.274285	-0.000036
C30	C	-1.476644	-0.366595	-0.000044
N31	N	-1.483425	-0.122331	0.216970
C32	C	-1.598992	0.343552	-0.000029
C33	C	-1.596690	0.430286	-0.000037
C34	C	-1.367869	0.411773	-0.000031
C35	C	-1.370173	0.325040	-0.000030
C36	C	-1.485738	0.290933	-0.000025
C37	C	-1.481132	0.464399	-0.000033
C38	C	-1.478635	0.558440	-0.000041
C39	C	-1.488235	0.196886	-0.000018
N40	N	-1.483455	-0.122331	-0.217020
C41	C	-1.568851	-0.066321	0.451980
C42	C	-1.568855	-0.066319	0.547961
C43	C	-1.398019	-0.178344	0.547964
C44	C	-1.398011	-0.178341	0.451984
C45	C	-1.483434	-0.122331	0.403995
C46	C	-1.483446	-0.122331	0.595956
C47	C	-1.483449	-0.122329	0.700023
C48	C	-1.483429	-0.122331	0.299921
H49	H	-1.221038	-0.126526	0.166229
H50	H	-1.688913	0.473127	-0.000042
Br51	Br	-0.674714	-0.116903	-0.166290
Br52	Br	-1.684779	0.009695	0.386855
H53	H	-1.273780	0.439554	-0.000034
Br54	Br	-0.829139	-0.119565	-0.362208
H55	H	-1.221117	-0.126497	-0.166254
Br56	Br	-1.216459	0.253621	-0.000036
H57	H	-1.638408	-0.020710	0.587028
Br58	Br	-1.755829	0.297266	-0.000021
H59	H	-1.328448	-0.223951	0.412912
Br60	Br	-1.282095	-0.254357	0.613095
H61	H	-1.102195	-0.124442	0.317017
Br62	Br	-0.674638	-0.116920	0.166197
Br63	Br	-0.828967	-0.119640	0.362132
H64	H	-1.102327	-0.124391	-0.317078
