data_functionalizedCrystal
_audit_creation_method	'MofGen! by Chris Wilmer'
_symmetry_space_group_name_H-M	'P1'
_symmetry_Int_Tables_number	1
_symmetry_cell_setting	triclinic
loop_
_symmetry_equiv_pos_as_xyz
  x,y,z
_cell_length_a	11.792254
_cell_length_b	11.792254
_cell_length_c	10.868271
_cell_angle_alpha	89.994692
_cell_angle_beta	89.995741
_cell_angle_gamma	84.198598
loop_
_atom_site_label
_atom_site_type_symbol
_atom_site_fract_x
_atom_site_fract_y
_atom_site_fract_z
O1	O	1.506907	0.155636	-0.102322
O2	O	1.176568	0.171654	-0.102325
O3	O	1.349747	-0.001524	-0.102314
O4	O	1.333729	0.328814	-0.102332
O5	O	1.349732	-0.001531	0.102330
O6	O	1.176554	0.171647	0.102320
O7	O	1.506893	0.155629	0.102323
Zn8	Zn	1.341721	0.163637	0.134813
Zn9	Zn	1.341740	0.163646	-0.134815
O10	O	1.333714	0.328807	0.102313
C11	C	1.134271	0.170642	-0.000003
C12	C	1.008257	0.167621	-0.000003
C13	C	0.905921	0.165168	-0.000008
C14	C	0.777534	0.162099	-0.000009
C15	C	1.348730	-0.043818	0.000008
C16	C	1.345710	-0.169832	0.000006
C17	C	1.343256	-0.272168	0.000002
C18	C	1.340188	-0.400555	-0.000009
C19	C	1.549190	0.156642	-0.000002
C20	C	1.675204	0.159662	-0.000009
C21	C	1.334731	0.371102	-0.000012
C22	C	1.337751	0.497115	-0.000019
N23	N	1.341716	0.163630	0.318827
N24	N	1.341753	0.163644	-0.318829
C25	C	1.341734	0.163644	0.569833
C26	C	1.341721	0.163640	0.430156
