data_functionalizedCrystal
_audit_creation_method	'MofGen! by Chris Wilmer'
_symmetry_space_group_name_H-M	'P1'
_symmetry_Int_Tables_number	1
_symmetry_cell_setting	triclinic
loop_
_symmetry_equiv_pos_as_xyz
  x,y,z
_cell_length_a	18.215407
_cell_length_b	13.032721
_cell_length_c	18.215399
_cell_angle_alpha	82.845262
_cell_angle_beta	90.019833
_cell_angle_gamma	97.205008
loop_
_atom_site_label
_atom_site_type_symbol
_atom_site_fract_x
_atom_site_fract_y
_atom_site_fract_z
Zn1	Zn	1.087881	-0.416041	0.453320
Zn2	Zn	1.421214	-0.082708	0.786654
Zn3	Zn	1.754548	0.250626	1.119987
Zn4	Zn	1.072167	-0.590804	0.345882
Zn5	Zn	1.405500	-0.257471	0.679216
Zn6	Zn	1.738833	0.075862	1.012549
Zn7	Zn	0.964810	-0.416075	0.330271
Zn8	Zn	1.298144	-0.082742	0.663604
Zn9	Zn	1.631477	0.250591	0.996937
Zn10	Zn	0.949162	-0.590746	0.468902
Zn11	Zn	1.282495	-0.257413	0.802235
Zn12	Zn	1.615829	0.075920	1.135569
O13	O	1.018505	-0.503417	0.399594
O14	O	1.351838	-0.170083	0.732927
O15	O	1.685172	0.163250	1.066260
O16	O	1.188780	-0.439234	0.439081
O17	O	1.522113	-0.105900	0.772414
O18	O	1.855446	0.227433	1.105748
O19	O	1.057898	-0.567665	0.240831
O20	O	1.391231	-0.234332	0.574164
O21	O	1.724565	0.099002	0.907497
O22	O	0.994261	-0.269831	0.333539
O23	O	1.327595	0.063502	0.666872
O24	O	1.660928	0.396835	1.000206
O25	O	1.177235	-0.567632	0.360147
O26	O	1.510568	-0.234298	0.693480
O27	O	1.843901	0.099035	1.026813
O28	O	1.084681	-0.269806	0.423943
O29	O	1.418014	0.063527	0.757276
O30	O	1.751347	0.396861	1.090610
O31	O	0.979024	-0.439292	0.229361
O32	O	1.312357	-0.105959	0.562694
O33	O	1.645691	0.227375	0.896027
O34	O	0.859751	-0.439236	0.348648
O35	O	1.193085	-0.105902	0.681981
O36	O	1.526418	0.227431	1.015315
O37	O	0.967591	-0.567533	0.569816
O38	O	1.300924	-0.234199	0.903149
O39	O	1.634257	0.099134	1.236483
O40	O	0.848254	-0.567566	0.450500
O41	O	1.181588	-0.234232	0.783833
O42	O	1.514921	0.099101	1.117166
O43	O	1.069507	-0.439177	0.558368
O44	O	1.402840	-0.105844	0.891701
O45	O	1.736174	0.227489	1.225035
O46	O	1.042724	-0.737036	0.375256
O47	O	1.376058	-0.403703	0.708589
O48	O	1.709391	-0.070369	1.041922
O49	O	0.952353	-0.736993	0.465638
O50	O	1.285687	-0.403660	0.798971
O51	O	1.619020	-0.070327	1.132304
C52	C	0.827300	-0.503399	0.399571
C53	C	1.160634	-0.170066	0.732904
C54	C	1.493967	0.163268	1.066238
C55	C	0.745500	-0.503416	0.399581
C56	C	1.078833	-0.170083	0.732914
C57	C	1.412166	0.163250	1.066248
C58	C	0.551329	-0.570343	0.452566
C59	C	0.884663	-0.237010	0.785899
C60	C	1.217996	0.096324	1.119232
C61	C	0.474470	-0.570346	0.452575
C62	C	0.807804	-0.237013	0.785908
C63	C	1.141137	0.096321	1.119242
C64	C	0.486431	-0.436510	0.346640
C65	C	0.819764	-0.103176	0.679973
C66	C	1.153098	0.230157	1.013306
C67	C	0.563289	-0.436502	0.346634
C68	C	0.896622	-0.103168	0.679968
C69	C	1.229956	0.230165	1.013301
C70	C	0.595736	-0.503424	0.399597
C71	C	0.929069	-0.170091	0.732930
C72	C	1.262402	0.163242	1.066263
C73	C	0.442019	-0.503435	0.399612
C74	C	0.775352	-0.170102	0.732945
C75	C	1.108685	0.163231	1.066278
C76	C	0.358685	-0.503438	0.399621
C77	C	0.692018	-0.170105	0.732955
C78	C	1.025351	0.163228	1.066288
C79	C	0.679075	-0.503420	0.399588
C80	C	1.012408	-0.170087	0.732921
C81	C	1.345742	0.163246	1.066254
C82	C	0.994156	-0.774933	0.423847
C83	C	1.327489	-0.441600	0.757181
C84	C	1.660822	-0.108266	1.090514
C85	C	0.983806	-0.891089	0.434248
C86	C	1.317140	-0.557756	0.767581
C87	C	1.650473	-0.224422	1.100915
C88	C	1.023945	-0.942861	0.394199
C89	C	1.357279	-0.609528	0.727532
C90	C	1.690612	-0.276195	1.060866
C91	C	1.013250	-1.062914	0.404947
C92	C	1.346583	-0.729581	0.738281
C93	C	1.679916	-0.396248	1.071614
C94	C	1.210456	-0.503435	0.399617
C95	C	1.543789	-0.170102	0.732950
C96	C	1.877123	0.163231	1.066284
C97	C	1.292254	-0.503443	0.399627
C98	C	1.625588	-0.170110	0.732960
C99	C	1.958921	0.163223	1.066294
C100	C	1.018556	-0.503345	0.591540
C101	C	1.351890	-0.170011	0.924874
C102	C	1.685223	0.163322	1.258207
C103	C	1.018578	-0.503314	0.673337
C104	C	1.351911	-0.169981	1.006670
C105	C	1.685245	0.163353	1.340003
C106	C	1.042969	-0.230840	0.375262
C107	C	1.376303	0.102493	0.708595
C108	C	1.709636	0.435827	1.041928
C109	C	1.053395	-0.114684	0.364893
C110	C	1.386728	0.218649	0.698226
C111	C	1.720061	0.551982	1.031559
C112	C	1.018503	-0.503413	0.208387
C113	C	1.351836	-0.170080	0.541721
C114	C	1.685170	0.163254	0.875054
C115	C	1.018650	-0.503149	0.126565
C116	C	1.351983	-0.169816	0.459899
C117	C	1.685317	0.163517	0.793232
C118	C	1.071668	-0.436417	0.855565
C119	C	1.405002	-0.103084	1.188899
C120	C	1.738335	0.230250	1.522232
C121	C	1.071680	-0.436386	0.932421
C122	C	1.405013	-0.103053	1.265755
C123	C	1.738347	0.230280	1.599088
C124	C	0.965554	-0.570049	0.944331
C125	C	1.298888	-0.236716	1.277665
C126	C	1.632221	0.096617	1.610998
C127	C	0.965540	-0.570074	0.867476
C128	C	1.298873	-0.236740	1.200809
C129	C	1.632207	0.096593	1.534143
C130	C	1.018601	-0.503259	0.823095
C131	C	1.351935	-0.169926	1.156429
C132	C	1.685268	0.163408	1.489762
C133	C	1.018627	-0.503204	0.976807
C134	C	1.351960	-0.169871	1.310140
C135	C	1.685294	0.163462	1.643473
C136	C	1.018639	-0.503172	1.060137
C137	C	1.351972	-0.169838	1.393471
C138	C	1.685306	0.163495	1.726804
C139	C	1.018589	-0.503290	0.739759
C140	C	1.351922	-0.169957	1.073092
C141	C	1.685255	0.163377	1.406426
H142	H	0.577745	-0.624833	0.495693
H143	H	0.911078	-0.291500	0.829026
H144	H	1.244412	0.041834	1.162359
C145	C	0.907196	-0.643549	0.993149
C146	C	1.240529	-0.310216	1.326483
C147	C	1.573862	0.023117	1.659816
H148	H	0.875585	-0.683355	0.962801
H149	H	1.208918	-0.350022	1.296135
H150	H	1.542251	-0.016689	1.629468
H151	H	0.931267	-0.689074	1.027199
H152	H	1.264601	-0.355741	1.360532
H153	H	1.597934	-0.022408	1.693866
H154	H	0.878720	-0.603558	1.019556
H155	H	1.212053	-0.270224	1.352890
H156	H	1.545387	0.063109	1.686223
C157	C	1.130057	-0.362865	0.968136
C158	C	1.463390	-0.029532	1.301469
C159	C	1.796723	0.303802	1.634803
H160	H	1.161657	-0.323085	0.930695
H161	H	1.494990	0.010248	1.264029
H162	H	1.828323	0.343582	1.597362
H163	H	1.106000	-0.317317	0.994048
H164	H	1.439333	0.016016	1.327381
H165	H	1.772667	0.349350	1.660714
H166	H	1.158541	-0.402841	1.001691
H167	H	1.491874	-0.069508	1.335024
H168	H	1.825208	0.263825	1.668358
H169	H	1.095684	-1.070135	0.322648
H170	H	1.429017	-0.736802	0.655981
H171	H	1.762350	-0.403468	0.989314
C172	C	1.081069	-0.882687	0.337129
C173	C	1.414402	-0.549354	0.670462
C174	C	1.747736	-0.216021	1.003795
H175	H	1.104869	-0.930737	0.313400
H176	H	1.438202	-0.597403	0.646733
H177	H	1.771535	-0.264070	0.980066
H178	H	1.056699	-0.840168	0.301258
H179	H	1.390032	-0.506834	0.634592
H180	H	1.723365	-0.173501	0.967925
H181	H	1.116893	-0.840046	0.361525
H182	H	1.450227	-0.506713	0.694859
H183	H	1.783560	-0.173379	1.028192
H184	H	0.922321	-0.624504	0.841039
H185	H	1.255655	-0.291171	1.174372
H186	H	1.588988	0.042163	1.507705
C187	C	0.956126	-1.123085	0.462023
C188	C	1.289459	-0.789751	0.795356
C189	C	1.622793	-0.456418	1.128690
H190	H	0.932334	-1.075035	0.485760
H191	H	1.265667	-0.741702	0.819093
H192	H	1.599000	-0.408368	1.152426
H193	H	0.920305	-1.165734	0.437635
H194	H	1.253638	-0.832400	0.770969
H195	H	1.586972	-0.499067	1.104302
H196	H	0.980505	-1.165596	0.497897
H197	H	1.313839	-0.832263	0.831230
H198	H	1.647172	-0.498929	1.164563
H199	H	0.599447	-0.382002	0.303500
H200	H	0.932780	-0.048669	0.636833
H201	H	1.266113	0.284664	0.970166
C202	C	0.425627	-0.643954	0.510843
C203	C	0.758960	-0.310621	0.844176
C204	C	1.092293	0.022713	1.177509
H205	H	0.455961	-0.683810	0.542380
H206	H	0.789294	-0.350476	0.875713
H207	H	1.122627	-0.017143	1.209046
H208	H	0.399240	-0.604036	0.539390
H209	H	0.732573	-0.270703	0.872723
H210	H	1.065906	0.062631	1.206057
H211	H	0.391552	-0.689445	0.486704
H212	H	0.724886	-0.356111	0.820037
H213	H	1.058219	-0.022778	1.153371
H214	H	0.941526	-0.935643	0.476495
H215	H	1.274859	-0.602310	0.809829
H216	H	1.608193	-0.268977	1.143162
H217	H	0.460003	-0.382025	0.303519
H218	H	0.793336	-0.048692	0.636852
H219	H	1.126670	0.284642	0.970185
H220	H	1.114872	-0.382009	0.819432
H221	H	1.448206	-0.048676	1.152765
H222	H	1.781539	0.284657	1.486099
