data_functionalizedCrystal
_audit_creation_method	'MofGen! by Chris Wilmer'
_symmetry_space_group_name_H-M	'P1'
_symmetry_Int_Tables_number	1
_symmetry_cell_setting	triclinic
loop_
_symmetry_equiv_pos_as_xyz
  x,y,z
_cell_length_a	21.295418
_cell_length_b	29.839131
_cell_length_c	21.295396
_cell_angle_alpha	89.895379
_cell_angle_beta	89.913243
_cell_angle_gamma	90.057233
loop_
_atom_site_label
_atom_site_type_symbol
_atom_site_fract_x
_atom_site_fract_y
_atom_site_fract_z
Zn1	Zn	0.962576	-0.178341	-0.356240
Zn2	Zn	1.462576	0.321659	0.143760
Zn3	Zn	0.962379	-0.253567	-0.250968
Zn4	Zn	1.462379	0.246433	0.249032
Zn5	Zn	0.857220	-0.178472	-0.250950
Zn6	Zn	1.357220	0.321528	0.249050
Zn7	Zn	0.857249	-0.253465	-0.356164
Zn8	Zn	1.357249	0.246535	0.143836
O9	O	0.909856	-0.215961	-0.303581
O10	O	1.409856	0.284039	0.196419
O11	O	1.050639	-0.188307	-0.342315
O12	O	1.550639	0.311693	0.157685
O13	O	0.948335	-0.243703	-0.162876
O14	O	1.448335	0.256297	0.337124
O15	O	0.871266	-0.115588	-0.264941
O16	O	1.371266	0.384412	0.235059
O17	O	1.050495	-0.243575	-0.264972
O18	O	1.550495	0.256425	0.235028
O19	O	0.948671	-0.115491	-0.342298
O20	O	1.448671	0.384509	0.157702
O21	O	0.871075	-0.188532	-0.162862
O22	O	1.371075	0.311468	0.337138
O23	O	0.769134	-0.188433	-0.264867
O24	O	1.269134	0.311567	0.235133
O25	O	0.871315	-0.243402	-0.444264
O26	O	1.371315	0.256598	0.055736
O27	O	0.769155	-0.243530	-0.342168
O28	O	1.269155	0.256470	0.157832
O29	O	0.948698	-0.188209	-0.444320
O30	O	1.448698	0.311791	0.055680
O31	O	0.948363	-0.316421	-0.264898
O32	O	1.448363	0.183579	0.235102
O33	O	0.871124	-0.316346	-0.342186
O34	O	1.371124	0.183654	0.157814
C35	C	0.746304	-0.215985	-0.303508
C36	C	1.246304	0.284015	0.196492
C37	C	0.676336	-0.216006	-0.303492
C38	C	1.176336	0.283994	0.196508
C39	C	0.643497	-0.244733	-0.343682
C40	C	1.143497	0.255267	0.156318
C41	C	0.577754	-0.244722	-0.343711
C42	C	1.077754	0.255278	0.156289
C43	C	0.544854	-0.215989	-0.303537
C44	C	1.044854	0.284011	0.196463
C45	C	0.577701	-0.187256	-0.263344
C46	C	1.077701	0.312744	0.236656
C47	C	0.643442	-0.187265	-0.263321
C48	C	1.143442	0.312735	0.236679
N49	N	0.441537	-0.212530	-0.248479
N50	N	0.941537	0.287470	0.251521
N51	N	0.379086	-0.212524	-0.248503
N52	N	0.879086	0.287476	0.251497
C53	C	0.346779	-0.215960	-0.303604
C54	C	0.846779	0.284040	0.196396
N55	N	0.379283	-0.219410	-0.358682
N56	N	0.879283	0.280590	0.141318
N57	N	0.441740	-0.219418	-0.358658
N58	N	0.941740	0.280582	0.141342
C59	C	0.473568	-0.215976	-0.303558
C60	C	0.973568	0.284024	0.196442
C61	C	0.242654	-0.244676	-0.343828
C62	C	0.742654	0.255324	0.156172
C63	C	0.176911	-0.244662	-0.343858
C64	C	0.676911	0.255338	0.156142
C65	C	0.176859	-0.187198	-0.263486
C66	C	0.676859	0.312802	0.236514
C67	C	0.242601	-0.187210	-0.263462
C68	C	0.742601	0.312790	0.236538
C69	C	0.275495	-0.215952	-0.303632
C70	C	0.775495	0.284048	0.196368
C71	C	0.909742	-0.332684	-0.303549
C72	C	1.409742	0.167316	0.196451
C73	C	0.909751	-0.382618	-0.303557
C74	C	1.409751	0.117382	0.196443
C75	C	0.950148	-0.692288	-0.263396
C76	C	1.450148	-0.192288	0.236604
C77	C	0.950225	-0.879961	-0.263420
C78	C	1.450225	-0.379961	0.236580
O79	O	0.984482	-0.904248	-0.229250
O80	O	1.484482	-0.404248	0.270750
N81	N	0.909987	-0.903403	-0.303628
N82	N	1.409987	-0.403403	0.196372
C83	C	0.869728	-0.879925	-0.343836
C84	C	1.369728	-0.379925	0.156164
O85	O	0.835509	-0.904170	-0.378040
O86	O	1.335509	-0.404170	0.121960
C87	C	0.869654	-0.692253	-0.343814
C88	C	1.369654	-0.192253	0.156186
C89	C	0.909891	-0.668813	-0.303599
C90	C	1.409891	-0.168813	0.196401
C91	C	0.990382	-0.668848	-0.223184
C92	C	1.490382	-0.168848	0.276816
C93	C	0.990359	-0.621932	-0.223176
C94	C	1.490359	-0.121932	0.276824
C95	C	0.950103	-0.598457	-0.263379
C96	C	1.450103	-0.098457	0.236621
C97	C	0.909869	-0.621897	-0.303591
C98	C	1.409869	-0.121897	0.196409
C99	C	0.829400	-0.668775	-0.384024
C100	C	1.329400	-0.168775	0.115976
C101	C	0.829386	-0.621854	-0.384016
C102	C	1.329386	-0.121854	0.115984
C103	C	0.869623	-0.598414	-0.343801
C104	C	1.369623	-0.098414	0.156199
C105	C	0.869590	-0.551506	-0.343786
C106	C	1.369590	-0.051506	0.156214
N107	N	0.909829	-0.528064	-0.303578
N108	N	1.409829	-0.028064	0.196422
C109	C	0.950085	-0.551539	-0.263375
C110	C	1.450085	-0.051539	0.236625
C111	C	0.869769	-0.978455	-0.343843
C112	C	1.369769	-0.478455	0.156157
C113	C	0.869787	-1.025373	-0.343848
C114	C	1.369787	-0.525373	0.156152
C115	C	0.950285	-1.025406	-0.263433
C116	C	1.450285	-0.525406	0.236567
C117	C	0.950264	-0.978487	-0.263426
C118	C	1.450264	-0.478487	0.236574
C119	C	0.910008	-0.955013	-0.303635
C120	C	1.410008	-0.455013	0.196365
C121	C	0.950035	-0.453013	-0.263360
C122	C	1.450035	0.046987	0.236640
C123	C	0.950008	-0.406094	-0.263354
C124	C	1.450008	0.093906	0.236646
C125	C	0.869512	-0.406065	-0.343771
C126	C	1.369512	0.093935	0.156229
C127	C	0.869537	-0.452980	-0.343775
C128	C	1.369537	0.047020	0.156225
C129	C	0.909804	-0.476454	-0.303568
C130	C	1.409804	0.023546	0.196432
O131	O	0.835357	-0.527190	-0.377943
O132	O	1.335357	-0.027190	0.122057
O133	O	0.984309	-0.527286	-0.229185
O134	O	1.484309	-0.027286	0.270815
C135	C	0.950170	-0.739203	-0.263404
C136	C	1.450170	-0.239203	0.236596
C137	C	0.909936	-0.762643	-0.303615
C138	C	1.409936	-0.262643	0.196385
C139	C	0.869679	-0.739168	-0.343818
C140	C	1.369679	-0.239168	0.156182
C141	C	0.909953	-0.809561	-0.303620
C142	C	1.409953	-0.309561	0.196380
C143	C	0.950210	-0.833037	-0.263417
C144	C	1.450210	-0.333037	0.236583
C145	C	0.990449	-0.809594	-0.223209
C146	C	1.490449	-0.309594	0.276791
C147	C	0.990426	-0.762679	-0.223201
C148	C	1.490426	-0.262679	0.276799
C149	C	0.829441	-0.762610	-0.384026
C150	C	1.329441	-0.262610	0.115974
C151	C	0.829466	-0.809526	-0.384030
C152	C	1.329466	-0.309526	0.115970
C153	C	0.869722	-0.833001	-0.343827
C154	C	1.369722	-0.333001	0.156173
C155	C	1.074046	-0.215938	-0.303654
C156	C	1.574046	0.284062	0.196346
C157	C	1.144015	-0.215928	-0.303685
C158	C	1.644015	0.284072	0.196315
C159	C	0.910032	-0.215779	-0.467771
C160	C	1.410032	0.284221	0.032229
C161	C	0.910107	-0.215702	-0.537740
C162	C	1.410107	0.284298	-0.037740
C163	C	0.909987	-0.098783	-0.303626
C164	C	1.409987	0.401217	0.196374
C165	C	0.910043	-0.048848	-0.303645
C166	C	1.410043	0.451152	0.196355
C167	C	0.909717	-0.216110	-0.140028
C168	C	1.409717	0.283890	0.359972
C169	C	0.909764	-0.216061	-0.070061
C170	C	1.409764	0.283939	0.429939
C171	C	0.950085	-0.186785	0.429195
C172	C	1.450085	0.313215	0.929195
C173	C	0.950041	-0.186826	0.363453
C174	C	1.450041	0.313174	0.863453
C175	C	0.910025	-0.215792	0.330778
C176	C	1.410025	0.284208	0.830778
C177	C	0.870038	-0.244711	0.363851
C178	C	1.370038	0.255289	0.863851
C179	C	0.870079	-0.244666	0.429592
C180	C	1.370079	0.255334	0.929592
N181	N	0.905487	-0.255213	0.227722
N182	N	1.405487	0.244787	0.727722
N183	N	0.905452	-0.255254	0.165270
N184	N	1.405452	0.244746	0.665270
C185	C	0.909898	-0.215930	0.132704
C186	C	1.409898	0.284070	0.632704
N187	N	0.914393	-0.176560	0.164948
N188	N	1.414393	0.323440	0.664948
N189	N	0.914431	-0.176519	0.227405
N190	N	1.414431	0.323481	0.727405
C191	C	0.909975	-0.215844	0.259493
C192	C	1.409975	0.284156	0.759493
C193	C	0.949831	-0.187055	0.028354
C194	C	1.449831	0.312945	0.528354
C195	C	0.949782	-0.187095	-0.037390
C196	C	1.449782	0.312905	0.462610
C197	C	0.869782	-0.244984	-0.036991
C198	C	1.369782	0.255016	0.463009
C199	C	0.869828	-0.244940	0.028751
C200	C	1.369828	0.255060	0.528751
C201	C	0.909855	-0.215976	0.061420
C202	C	1.409855	0.284024	0.561420
H203	H	0.551011	-0.268115	-0.376441
H204	H	1.051011	0.231885	0.123559
Br205	Br	0.688013	-0.148274	-0.208774
Br206	Br	1.188013	0.351726	0.291226
Br207	Br	0.774851	-0.841332	-0.438612
Br208	Br	1.274851	-0.341332	0.061388
H209	H	0.837521	-0.268213	0.456513
H210	H	1.337521	0.231787	0.956513
Br211	Br	1.004872	-0.946681	-0.208846
Br212	Br	1.504872	-0.446681	0.291154
Br213	Br	0.774802	-0.730758	-0.438594
Br214	Br	1.274802	-0.230758	0.061406
Br215	Br	0.815725	-0.284020	0.319508
Br216	Br	1.315725	0.215980	0.819508
H217	H	0.269438	-0.268077	-0.376541
H218	H	0.769438	0.231923	0.123459
Br219	Br	0.132341	-0.283649	-0.398412
Br220	Br	0.632341	0.216351	0.101588
H221	H	0.982336	-0.163545	-0.064310
H222	H	1.482336	0.336455	0.435690
Br223	Br	0.533052	-0.148256	-0.208828
Br224	Br	1.033052	0.351744	0.291172
H225	H	0.982420	-0.163468	0.054954
H226	H	1.482420	0.336532	0.554954
Br227	Br	1.004617	-0.374285	-0.208771
Br228	Br	1.504617	0.125715	0.291229
Br229	Br	0.815465	-0.284291	-0.081329
Br230	Br	1.315465	0.215709	0.418671
Br231	Br	0.815569	-0.284188	0.073628
Br232	Br	1.315569	0.215812	0.573628
Br233	Br	0.815168	-1.057179	-0.398418
Br234	Br	1.315168	-0.557179	0.101582
H235	H	0.670275	-0.268136	-0.376393
H236	H	1.170275	0.231864	0.123607
Br237	Br	1.004406	-0.147475	0.473528
Br238	Br	1.504406	0.352525	0.973528
Br239	Br	0.132215	-0.148198	-0.208969
Br240	Br	0.632215	0.351802	0.291031
Br241	Br	1.004683	-0.484862	-0.208793
Br242	Br	1.504683	0.015138	0.291207
Br243	Br	0.287172	-0.148221	-0.208915
Br244	Br	0.787172	0.351779	0.291085
H245	H	1.023126	-0.602850	-0.190432
H246	H	1.523126	-0.102850	0.309568
Br247	Br	1.004286	-0.147568	0.318569
Br248	Br	1.504286	0.352432	0.818569
Br249	Br	1.045024	-0.700698	-0.168617
Br250	Br	1.545024	-0.200698	0.331383
H251	H	0.983063	-1.044528	-0.230698
H252	H	1.483063	-0.544528	0.269302
Br253	Br	0.815131	-0.946604	-0.398419
Br254	Br	1.315131	-0.446604	0.101581
H255	H	0.796606	-0.602743	-0.416762
H256	H	1.296606	-0.102743	0.083238
Br257	Br	0.814915	-0.484793	-0.398338
Br258	Br	1.314915	0.015207	0.101662
H259	H	0.796632	-0.687852	-0.416769
H260	H	1.296632	-0.187852	0.083231
H261	H	0.836734	-0.386944	-0.376502
H262	H	1.336734	0.113056	0.123498
H263	H	1.023191	-0.743597	-0.190454
H264	H	1.523191	-0.243597	0.309546
H265	H	1.023225	-0.828716	-0.190472
H266	H	1.523225	-0.328716	0.309528
