data_functionalizedCrystal
_audit_creation_method	'MofGen! by Chris Wilmer'
_symmetry_space_group_name_H-M	'P1'
_symmetry_Int_Tables_number	1
_symmetry_cell_setting	triclinic
loop_
_symmetry_equiv_pos_as_xyz
  x,y,z
_cell_length_a	27.731988
_cell_length_b	16.992695
_cell_length_c	15.455313
_cell_angle_alpha	87.152573
_cell_angle_beta	92.652844
_cell_angle_gamma	86.643296
loop_
_atom_site_label
_atom_site_type_symbol
_atom_site_fract_x
_atom_site_fract_y
_atom_site_fract_z
O1	O	-0.646951	-0.089581	-0.072018
O2	O	-0.146951	0.410419	0.427982
O3	O	-0.506769	-0.103808	-0.072045
O4	O	-0.006769	0.396192	0.427955
O5	O	-0.576298	0.017441	-0.072025
O6	O	-0.076298	0.517441	0.427975
O7	O	-0.577422	-0.210830	-0.072038
O8	O	-0.077422	0.289170	0.427962
O9	O	-0.572320	0.010536	0.072236
O10	O	-0.072320	0.510536	0.572236
O11	O	-0.502792	-0.110713	0.072216
O12	O	-0.002792	0.389287	0.572216
O13	O	-0.642973	-0.096486	0.072243
O14	O	-0.142973	0.403514	0.572243
Cu15	Cu	-0.572519	-0.104230	0.085402
Cu16	Cu	-0.072519	0.395770	0.585402
Cu17	Cu	-0.577223	-0.096064	-0.085204
Cu18	Cu	-0.077223	0.403936	0.414796
O19	O	-0.573445	-0.217735	0.072223
O20	O	-0.073445	0.282265	0.572223
C21	C	-0.486760	-0.106969	0.000082
C22	C	0.013240	0.393031	0.500082
C23	C	-0.433066	-0.106091	0.000072
C24	C	0.066934	0.393909	0.500072
C25	C	-0.097939	-0.104329	0.078749
C26	C	0.402061	0.395671	0.578749
C27	C	0.103864	-0.100993	0.078762
C28	C	0.603864	0.399007	0.578762
O29	O	0.131801	-0.103729	0.145640
O30	O	0.631801	0.396271	0.645640
N31	N	0.126929	-0.096815	0.000126
N32	N	0.626929	0.403185	0.500126
C33	C	0.099540	-0.093465	-0.078519
C34	C	0.599540	0.406535	0.421481
O35	O	0.123788	-0.089826	-0.145404
O36	O	0.623788	0.410174	0.354596
C37	C	-0.102263	-0.096795	-0.078532
C38	C	0.397737	0.403205	0.421468
C39	C	-0.125324	-0.100982	0.000110
C40	C	0.374676	0.399018	0.500110
C41	C	-0.121001	-0.108514	0.157383
C42	C	0.378999	0.391486	0.657383
C43	C	-0.171449	-0.109352	0.157379
C44	C	0.328551	0.390648	0.657379
C45	C	-0.198834	-0.106005	0.078740
C46	C	0.301166	0.393995	0.578740
C47	C	-0.175772	-0.101820	0.000105
C48	C	0.324228	0.398180	0.500105
C49	C	-0.129651	-0.093440	-0.157176
C50	C	0.370349	0.406560	0.342824
C51	C	-0.180105	-0.094271	-0.157172
C52	C	0.319895	0.405729	0.342828
C53	C	-0.203167	-0.098457	-0.078531
C54	C	0.296833	0.401543	0.421469
C55	C	-0.253605	-0.099311	-0.078538
C56	C	0.246395	0.400689	0.421462
N57	N	-0.276670	-0.103489	0.000098
N58	N	0.223330	0.396511	0.500098
C59	C	-0.249285	-0.106836	0.078737
C60	C	0.250715	0.393164	0.578737
C61	C	0.205489	-0.091719	-0.078507
C62	C	0.705489	0.408281	0.421493
C63	C	0.255940	-0.090887	-0.078504
C64	C	0.755940	0.409113	0.421496
C65	C	0.260261	-0.098414	0.078777
C66	C	0.760261	0.401586	0.578777
C67	C	0.209810	-0.099251	0.078774
C68	C	0.709810	0.400749	0.578774
C69	C	0.182425	-0.095897	0.000129
C70	C	0.682425	0.404103	0.500129
C71	C	-0.355228	-0.108597	0.078723
C72	C	0.144772	0.391403	0.578723
C73	C	-0.405681	-0.109438	0.078712
C74	C	0.094319	0.390562	0.578712
C75	C	-0.409997	-0.101907	-0.078569
C76	C	0.090003	0.398093	0.421431
C77	C	-0.359549	-0.101070	-0.078559
C78	C	0.140451	0.398930	0.421441
C79	C	-0.332166	-0.104413	0.000094
C80	C	0.167834	0.395587	0.500094
O81	O	-0.281572	-0.096568	-0.145380
O82	O	0.218428	0.403432	0.354620
O83	O	-0.273543	-0.110457	0.145612
O84	O	0.226457	0.389543	0.645612
C85	C	-0.047491	-0.103491	0.078753
C86	C	0.452509	0.396509	0.578753
C87	C	-0.024429	-0.099305	0.000118
C88	C	0.475571	0.400695	0.500118
C89	C	-0.051815	-0.095958	-0.078521
C90	C	0.448185	0.404042	0.421479
C91	C	0.026021	-0.098474	0.000121
C92	C	0.526021	0.401526	0.500121
C93	C	0.053407	-0.101821	0.078760
C94	C	0.553407	0.398179	0.578760
C95	C	0.030342	-0.106000	0.157396
C96	C	0.530342	0.394000	0.657396
C97	C	-0.020106	-0.106838	0.157392
C98	C	0.479894	0.393162	0.657392
C99	C	-0.028750	-0.091780	-0.157157
C100	C	0.471250	0.408220	0.342843
C101	C	0.021698	-0.090943	-0.157147
C102	C	0.521698	0.409057	0.342853
C103	C	0.049084	-0.094290	-0.078508
C104	C	0.549084	0.405710	0.421492
C105	C	-0.572863	0.043183	0.000105
C106	C	-0.072863	0.543183	0.500105
C107	C	-0.568549	0.130173	0.000104
C108	C	-0.068549	0.630173	0.500104
C109	C	0.337018	-0.093333	0.000118
C110	C	0.837018	0.406667	0.500118
C111	C	0.283325	-0.094235	0.000135
C112	C	0.783325	0.405765	0.500135
C113	C	-0.576879	-0.243477	0.000091
C114	C	-0.076879	0.256523	0.500091
C115	C	-0.581193	-0.330467	0.000086
C116	C	-0.081193	0.169533	0.500086
N117	N	-0.569215	-0.109973	0.205396
N118	N	-0.069215	0.390027	0.705396
C119	C	-0.610173	0.180932	0.000113
C120	C	-0.110173	0.680932	0.500113
C121	C	-0.606117	0.262669	0.000104
C122	C	-0.106117	0.762669	0.500104
C123	C	-0.560436	0.293644	0.000093
C124	C	-0.060436	0.793644	0.500093
C125	C	-0.518810	0.242879	0.000081
C126	C	-0.018810	0.742879	0.500081
C127	C	-0.522867	0.161145	0.000084
C128	C	-0.022867	0.661145	0.500084
C129	C	-0.543623	0.537033	0.000077
C130	C	-0.043623	1.037033	0.500077
C131	C	-0.539570	0.618774	0.000077
C132	C	-0.039570	1.118774	0.500077
C133	C	-0.626877	0.638558	0.000099
C134	C	-0.126877	1.138558	0.500099
C135	C	-0.630930	0.556821	0.000107
C136	C	-0.130930	1.056821	0.500107
C137	C	-0.589303	0.506063	0.000091
C138	C	-0.089303	1.006063	0.500091
N139	N	-0.556289	0.377192	0.000086
N140	N	-0.056289	0.877192	0.500086
N141	N	-0.593451	0.422518	0.000091
N142	N	-0.093451	0.922518	0.500091
N143	N	-0.580531	-0.090314	-0.205198
N144	N	-0.080531	0.409686	0.294802
C145	C	-0.598765	-0.058481	0.250799
C146	C	-0.098765	0.441519	0.750799
C147	C	-0.596270	-0.062832	0.341606
C148	C	-0.096270	0.437168	0.841606
C149	C	-0.564228	-0.118678	0.387009
C150	C	-0.064228	0.381322	0.887009
C151	C	-0.534675	-0.170173	0.341600
C152	C	-0.034675	0.329827	0.841600
C153	C	-0.537167	-0.165818	0.250794
C154	C	-0.037167	0.334182	0.750794
C155	C	-0.553470	-0.137454	0.658587
C156	C	-0.053470	0.362546	1.158587
C157	C	-0.550981	-0.141807	0.749399
C158	C	-0.050981	0.358193	1.249399
C159	C	-0.612576	-0.034464	0.749399
C160	C	-0.112576	0.465536	1.249399
C161	C	-0.615067	-0.030117	0.658592
C162	C	-0.115067	0.469883	1.158592
C163	C	-0.585513	-0.081609	0.613191
C164	C	-0.085513	0.418391	1.113191
N165	N	-0.561679	-0.123128	0.479828
N166	N	-0.061679	0.376872	0.979828
N167	N	-0.588060	-0.077155	0.520373
N168	N	-0.088060	0.422845	1.020373
H169	H	-0.332939	-0.111326	0.142770
H170	H	0.167061	0.388674	0.642770
N171	N	-0.633316	0.001761	0.201822
N172	N	-0.133316	0.501761	0.701822
H173	H	-0.656899	-0.026128	0.164132
H174	H	-0.156899	0.473872	0.664132
H175	H	-0.651623	0.033712	0.244414
H176	H	-0.151623	0.533712	0.744414
N177	N	0.059888	-0.109604	0.242211
N178	N	0.559888	0.390396	0.742211
H179	H	0.050477	-0.062222	0.276068
H180	H	0.550477	0.437778	0.776068
H181	H	0.053585	-0.159501	0.277045
H182	H	0.553585	0.340499	0.777045
N183	N	-0.500116	-0.230413	0.390561
N184	N	-0.000116	0.269587	0.890561
H185	H	-0.465911	-0.221023	0.374769
H186	H	0.034089	0.278977	0.874769
H187	H	-0.503062	-0.225334	0.454961
H188	H	-0.003062	0.274666	0.954961
H189	H	-0.424455	-0.112850	0.142754
H190	H	0.075545	0.387150	0.642754
N191	N	-0.671774	0.693300	0.000102
N192	N	-0.171774	1.193300	0.500102
H193	H	-0.690090	0.680844	0.053584
H194	H	-0.190090	1.180844	0.553584
H195	H	-0.662238	0.749758	0.000064
H196	H	-0.162238	1.249758	0.500064
N197	N	0.175962	-0.088110	-0.163342
N198	N	0.675962	0.411890	0.336658
H199	H	0.156977	-0.136888	-0.166857
H200	H	0.656977	0.363112	0.333143
H201	H	0.152918	-0.039655	-0.166809
H202	H	0.652918	0.460345	0.333191
N203	N	-0.505293	-0.221351	0.201820
N204	N	-0.005293	0.278649	0.701820
H205	H	-0.484617	-0.257391	0.244360
H206	H	0.015383	0.242609	0.744360
H207	H	-0.526159	-0.253980	0.164130
H208	H	-0.026159	0.246020	0.664130
N209	N	-0.628148	-0.007300	0.390574
N210	N	-0.128148	0.492700	0.890574
H211	H	-0.621707	-0.018529	0.454988
H212	H	-0.121707	0.481471	0.954988
H213	H	-0.620860	0.048996	0.374711
H214	H	-0.120860	0.548996	0.874711
H215	H	-0.481616	0.268106	0.000066
H216	H	0.018384	0.768106	0.500066
N217	N	-0.649628	0.030116	0.609623
N218	N	-0.149628	0.530116	1.109623
H219	H	-0.667969	0.062078	0.652165
H220	H	-0.167969	0.562078	1.152165
H221	H	-0.630828	0.066357	0.571957
H222	H	-0.130828	0.566357	1.071957
H223	H	-0.509728	0.495716	0.000065
H224	H	-0.009728	0.995716	0.500065
N225	N	-0.644451	0.021071	0.798366
N226	N	-0.144451	0.521071	1.298366
H227	H	-0.638012	0.009841	0.862780
H228	H	-0.138012	0.509841	1.362780
H229	H	-0.637159	0.077366	0.782504
H230	H	-0.137159	0.577366	1.282504
N231	N	-0.477973	0.106394	0.000069
N232	N	0.022027	0.606394	0.500069
H233	H	-0.448419	0.138418	0.000063
H234	H	0.051581	0.638418	0.500063
H235	H	-0.476279	0.069492	0.053548
H236	H	0.023721	0.569492	0.553548
H237	H	-0.340771	-0.097674	-0.142595
H238	H	0.159229	0.402326	0.357405
H239	H	-0.524887	-0.187287	0.786362
H240	H	-0.024887	0.312713	1.286362
H241	H	-0.640011	0.303994	0.000113
H242	H	-0.140011	0.803994	0.500113
N243	N	0.289804	-0.102026	0.163596
N244	N	0.789804	0.397974	0.663596
H245	H	0.325302	-0.101942	0.151660
H246	H	0.825302	0.398058	0.651660
H247	H	0.280350	-0.054645	0.197419
H248	H	0.780350	0.445355	0.697419
N249	N	-0.521592	-0.192985	0.609626
N250	N	-0.021592	0.307015	1.109626
H251	H	-0.500917	-0.229023	0.652170
H252	H	-0.000917	0.270977	1.152170
H253	H	-0.542455	-0.225616	0.571934
H254	H	-0.042455	0.274384	1.071934
H255	H	-0.190221	-0.112757	0.221417
H256	H	0.309779	0.387243	0.721417
H257	H	-0.098709	-0.111238	0.221424
H258	H	0.401291	0.388762	0.721424
H259	H	0.191036	-0.102661	0.142810
H260	H	0.691036	0.397339	0.642810
N261	N	-0.044976	-0.111356	0.242212
N262	N	0.455024	0.388644	0.742212
H263	H	-0.019966	-0.113349	0.292023
H264	H	0.480034	0.386651	0.792023
H265	H	-0.067858	-0.063265	0.245648
H266	H	0.432142	0.436735	0.745648
H267	H	-0.051042	-0.089052	-0.221196
H268	H	0.448958	0.410948	0.278804
N269	N	0.280812	-0.086384	-0.163324
N270	N	0.780812	0.413616	0.336676
H271	H	0.255803	-0.084388	-0.213137
H272	H	0.755803	0.415612	0.286863
H273	H	0.299605	-0.037272	-0.166746
H274	H	0.799605	0.462728	0.333254
H275	H	-0.110883	-0.090030	-0.221214
H276	H	0.389117	0.409970	0.278786
N277	N	-0.209642	-0.090648	-0.241998
N278	N	0.290358	0.409352	0.258002
H279	H	-0.187374	-0.087869	-0.291810
H280	H	0.312626	0.412131	0.208190
H281	H	-0.228624	-0.139432	-0.245436
H282	H	0.271376	0.360568	0.254564
H283	H	-0.432304	-0.099185	-0.142595
H284	H	0.067696	0.400815	0.357405
N285	N	0.046570	-0.086421	-0.241971
N286	N	0.546570	0.413579	0.258029
H287	H	0.069452	-0.134502	-0.245493
H288	H	0.569452	0.365498	0.254507
H289	H	0.021532	-0.084397	-0.291736
H290	H	0.521532	0.415603	0.208264
H291	H	-0.647370	0.155718	0.000128
H292	H	-0.147370	0.655718	0.500128
H293	H	-0.502369	0.643990	0.000082
H294	H	-0.002369	1.143990	0.500082
N295	N	-0.680199	0.523412	0.000124
N296	N	-0.180199	1.023412	0.500124
H297	H	-0.705953	0.567971	0.000129
H298	H	-0.205953	1.067971	0.500129
H299	H	-0.685259	0.492485	-0.053352
H300	H	-0.185259	0.992485	0.446648
