data_functionalizedCrystal
_audit_creation_method	'MofGen! by Chris Wilmer'
_symmetry_space_group_name_H-M	'P1'
_symmetry_Int_Tables_number	1
_symmetry_cell_setting	triclinic
loop_
_symmetry_equiv_pos_as_xyz
  x,y,z
_cell_length_a	8.497374
_cell_length_b	8.497374
_cell_length_c	29.839134
_cell_angle_alpha	90.004043
_cell_angle_beta	90.013693
_cell_angle_gamma	90.004389
loop_
_atom_site_label
_atom_site_type_symbol
_atom_site_fract_x
_atom_site_fract_y
_atom_site_fract_z
Zn1	Zn	0.892593	0.628533	0.686809
Zn2	Zn	0.628859	0.892282	0.686805
Zn3	Zn	0.628767	0.628486	0.611702
Zn4	Zn	0.892537	0.892241	0.611692
O5	O	0.760689	0.760385	0.649252
O6	O	0.857670	0.663556	0.749675
O7	O	0.408084	0.857287	0.676845
O8	O	0.663749	0.407730	0.621671
O9	O	0.663905	0.857332	0.749672
O10	O	0.857581	0.407764	0.676852
O11	O	0.408017	0.663477	0.621668
O12	O	0.663695	0.663437	0.548834
O13	O	1.113307	0.857261	0.621654
O14	O	0.857485	0.857216	0.548826
O15	O	1.113348	0.663516	0.676842
O16	O	0.663851	1.113039	0.676835
O17	O	0.857574	1.113009	0.621650
C18	C	0.760575	0.760318	0.532529
C19	C	0.760564	0.760328	0.482595
C20	C	1.350809	0.760411	0.649255
C21	C	1.172165	0.760403	0.649250
C22	C	0.760712	1.170265	0.649246
C23	C	0.760686	1.348909	0.649258
C24	C	0.861472	0.861435	0.172957
C25	C	0.861542	0.861480	-0.014716
O26	O	0.947271	0.947371	-0.038976
N27	N	0.760808	0.760443	-0.038190
C28	C	0.660056	0.659381	-0.014743
O29	O	0.574388	0.573433	-0.039016
C30	C	0.659995	0.659330	0.172929
C31	C	0.760724	0.760384	0.196401
C32	C	0.962195	0.962481	0.196429
C33	C	0.962170	0.962474	0.243345
C34	C	0.861423	0.861423	0.266788
C35	C	0.760700	0.760378	0.243316
C36	C	0.559252	0.558261	0.196375
C37	C	0.559248	0.558254	0.243296
C38	C	0.659978	0.659309	0.266768
C39	C	0.659928	0.659321	0.313675
N40	N	0.760662	0.760358	0.337150
C41	C	0.861410	0.861409	0.313706
C42	C	0.660093	0.659417	-0.113274
C43	C	0.660106	0.659432	-0.160192
C44	C	0.861595	0.861529	-0.160161
C45	C	0.861572	0.861521	-0.113242
C46	C	0.760827	0.760454	-0.089800
C47	C	0.861349	0.861389	0.412232
C48	C	0.861311	0.861379	0.459151
C49	C	0.659829	0.659277	0.459117
C50	C	0.659860	0.659292	0.412201
C51	C	0.760634	0.760354	0.388760
O52	O	0.574257	0.573463	0.337964
O53	O	0.947089	0.947320	0.337987
C54	C	0.861497	0.861442	0.126042
C55	C	0.760774	0.760397	0.102570
C56	C	0.660026	0.659345	0.126014
C57	C	0.760787	0.760411	0.055652
C58	C	0.861534	0.861462	0.032209
C59	C	0.962269	0.962499	0.055683
C60	C	0.962244	0.962493	0.102598
C61	C	0.559292	0.558309	0.102539
C62	C	0.559323	0.558324	0.055624
C63	C	0.660071	0.659375	0.032180
C64	C	0.760804	0.760454	0.766430
C65	C	0.760853	0.760483	0.816365
H66	H	0.943339	0.943676	0.478260
H67	H	0.477222	0.475975	0.177272
H68	H	1.044296	1.044783	0.036587
C69	C	0.983858	1.174743	0.155366
C70	C	1.072981	1.073566	0.128394
H71	H	1.052232	1.243321	0.171287
H72	H	0.923877	1.114569	0.176046
H73	H	0.915041	1.234976	0.137054
H74	H	1.141790	1.013324	0.146707
H75	H	1.132989	1.133746	0.107712
H76	H	0.578046	0.577114	-0.094191
C77	C	1.060736	1.061278	-0.117936
C78	C	0.972312	0.972587	-0.087444
H79	H	1.129114	1.129837	-0.102010
H80	H	0.991912	1.121518	-0.136236
H81	H	1.121173	0.992621	-0.136235
H82	H	0.911866	1.041244	-0.069147
H83	H	1.041145	0.912342	-0.069137
C84	C	0.469813	0.468619	-0.016307
C85	C	0.448550	0.447275	0.029826
H86	H	0.401416	0.400075	-0.032231
H87	H	0.575823	0.445664	-0.023989
H88	H	0.446594	0.574593	-0.023989
H89	H	0.471781	0.341304	0.037508
H90	H	0.342516	0.470219	0.037511
H91	H	1.044198	1.044760	0.262451
H92	H	0.577798	0.577008	0.478213
C93	C	0.347081	0.536053	0.155272
C94	C	0.448533	0.447233	0.128305
H95	H	0.278701	0.467475	0.171179
H96	H	0.286664	0.604690	0.136963
H97	H	0.407080	0.596210	0.175969
H98	H	0.388535	0.387083	0.107606
H99	H	0.508956	0.378567	0.146615
C100	C	1.060506	1.061159	0.416988
C101	C	0.972117	0.972479	0.386470
H102	H	1.128877	1.129749	0.401082
H103	H	1.120933	0.992510	0.435290
H104	H	0.991647	1.121381	0.435282
H105	H	1.040976	0.912248	0.368177
H106	H	0.911686	1.041137	0.368159
C107	C	0.951083	0.951249	-0.232073
C108	C	0.972352	0.972595	-0.185936
H109	H	1.019471	1.019800	-0.247986
H110	H	0.845070	0.974193	-0.239767
H111	H	0.974312	0.845277	-0.239756
H112	H	0.949112	1.078564	-0.178253
H113	H	1.078389	0.949662	-0.178239
H114	H	1.044244	1.044769	0.177346
H115	H	0.578066	0.577159	-0.179298
C116	C	0.360081	0.358492	0.238550
C117	C	0.448487	0.447170	0.269064
H118	H	0.291693	0.289927	0.254458
H119	H	0.428916	0.298257	0.220258
H120	H	0.299657	0.427156	0.220243
H121	H	0.508921	0.378506	0.287368
H122	H	0.379643	0.507409	0.287363
H123	H	0.577835	0.577009	0.393090
