data_functionalizedCrystal
_audit_creation_method	'MofGen! by Chris Wilmer'
_symmetry_space_group_name_H-M	'P1'
_symmetry_Int_Tables_number	1
_symmetry_cell_setting	triclinic
loop_
_symmetry_equiv_pos_as_xyz
  x,y,z
_cell_length_a	16.109295
_cell_length_b	16.109301
_cell_length_c	15.186229
_cell_angle_alpha	89.996650
_cell_angle_beta	90.000628
_cell_angle_gamma	96.539666
loop_
_atom_site_label
_atom_site_type_symbol
_atom_site_fract_x
_atom_site_fract_y
_atom_site_fract_z
O1	O	-0.106866	1.103128	-0.073222
O2	O	0.393134	1.603128	0.426778
O3	O	-0.120166	0.861066	-0.073223
O4	O	0.379834	1.361066	0.426777
O5	O	0.007515	0.988749	-0.073224
O6	O	0.507515	1.488749	0.426776
O7	O	-0.234547	0.975445	-0.073222
O8	O	0.265453	1.475445	0.426778
O9	O	0.007517	0.988741	0.073233
O10	O	0.507517	1.488741	0.573233
O11	O	-0.120164	0.861058	0.073234
O12	O	0.379836	1.361058	0.573234
O13	O	-0.106865	1.103120	0.073235
O14	O	0.393135	1.603120	0.573235
Zn15	Zn	-0.113514	0.982087	0.096488
Zn16	Zn	0.386486	1.482087	0.596488
Zn17	Zn	-0.113516	0.982099	-0.096476
Zn18	Zn	0.386484	1.482099	0.403524
O19	O	-0.234546	0.975437	0.073236
O20	O	0.265454	1.475437	0.573236
C21	C	-0.119626	0.830087	0.000005
C22	C	0.380374	1.330087	0.500005
C23	C	-0.118011	0.737792	0.000005
C24	C	0.381989	1.237792	0.500005
C25	C	0.038491	0.988207	0.000003
C26	C	0.538491	1.488207	0.500003
C27	C	0.130787	0.986594	-0.000004
C28	C	0.630787	1.486594	0.499996
C29	C	0.353060	1.058606	-0.000036
C30	C	0.853060	1.558606	0.499964
C31	C	0.439780	1.057084	-0.000050
C32	C	0.939780	1.557084	0.499950
C33	C	0.419906	0.905595	-0.000047
C34	C	0.919906	1.405595	0.499953
C35	C	0.333187	0.907118	-0.000038
C36	C	0.833187	1.407118	0.499962
C37	C	0.299766	0.983626	-0.000029
C38	C	0.799766	1.483626	0.499971
C39	C	0.473206	0.980580	-0.000051
C40	C	0.973206	1.480580	0.499949
C41	C	0.567232	0.978929	-0.000067
C42	C	1.067232	1.478929	0.499933
C43	C	0.205734	0.985277	-0.000014
C44	C	0.705734	1.485277	0.499986
C45	C	-0.107404	1.134099	0.000005
C46	C	0.392596	1.634099	0.500005
C47	C	-0.109019	1.226394	-0.000000
C48	C	0.390981	1.726394	0.500000
C49	C	0.734479	0.975984	-0.000014
C50	C	1.234479	1.475984	0.499986
C51	C	0.642186	0.977612	-0.000076
C52	C	1.142186	1.477612	0.499924
N53	N	-0.113512	0.982086	0.228181
N54	N	0.386488	1.482086	0.728181
C55	C	-0.037011	1.448668	0.000003
C56	C	0.462989	1.948668	0.500003
C57	C	-0.038535	1.535389	0.000006
C58	C	0.461465	2.035389	0.500006
C59	C	-0.190025	1.515511	0.000004
C60	C	0.309975	2.015511	0.500004
C61	C	-0.188500	1.428792	0.000007
C62	C	0.311500	1.928792	0.500007
C63	C	-0.111991	1.395374	0.000002
C64	C	0.388009	1.895374	0.500002
C65	C	-0.115040	1.568813	0.000002
C66	C	0.384960	2.068813	0.500002
C67	C	-0.116693	1.662839	0.000005
C68	C	0.383307	2.162839	0.500005
C69	C	-0.110337	1.301342	0.000000
C70	C	0.389663	1.801342	0.500000
N71	N	-0.113512	0.982107	-0.228169
N72	N	0.386488	1.482107	0.271831
C73	C	-0.056994	1.038643	0.453903
C74	C	0.443006	1.538643	0.953903
C75	C	-0.056992	1.038646	0.546093
C76	C	0.443008	1.538646	1.046093
C77	C	-0.170033	0.925543	0.546102
C78	C	0.329967	1.425543	1.046102
C79	C	-0.170030	0.925538	0.453914
C80	C	0.329970	1.425538	0.953914
C81	C	-0.113511	0.982092	0.407817
C82	C	0.386489	1.482092	0.907817
C83	C	-0.113512	0.982101	0.592195
C84	C	0.386488	1.482101	1.092195
C85	C	-0.113510	0.982103	0.692151
C86	C	0.386490	1.482103	1.192151
C87	C	-0.113512	0.982089	0.307855
C88	C	0.386488	1.482089	0.807855
H89	H	0.483169	1.118140	-0.000058
H90	H	0.983169	1.618140	0.499942
H91	H	-0.216050	0.879499	0.583644
H92	H	0.283950	1.379499	1.083644
N93	N	-0.230984	0.864534	0.404199
N94	N	0.269016	1.364534	0.904199
H95	H	-0.266792	0.828710	0.447389
H96	H	0.233208	1.328710	0.947389
H97	H	-0.267748	0.896344	0.365939
H98	H	0.232252	1.396344	0.865939
H99	H	0.289793	0.846056	-0.000035
H100	H	0.789793	1.346056	0.499965
H101	H	0.325852	1.120904	-0.000030
H102	H	0.825852	1.620904	0.499970
H103	H	-0.010972	1.084692	0.416373
H104	H	0.489028	1.584692	0.916373
N105	N	0.455961	0.823083	-0.000045
N106	N	0.955961	1.323083	0.499955
H107	H	0.436527	0.790234	0.054250
H108	H	0.936527	1.290234	0.554250
H109	H	0.436514	0.790299	-0.054369
H110	H	0.936514	1.290299	0.445631
N111	N	0.045505	1.412621	0.000001
N112	N	0.545505	1.912621	0.500001
H113	H	0.092772	1.459545	0.000004
H114	H	0.592772	1.959545	0.500004
H115	H	0.049435	1.377072	0.054296
H116	H	0.549435	1.877072	0.554296
H117	H	0.022520	1.578778	0.000009
H118	H	0.522520	2.078778	0.500009
H119	H	-0.252316	1.542732	0.000005
H120	H	0.247684	2.042732	0.500005
N121	N	-0.269388	1.371324	0.000013
N122	N	0.230612	1.871324	0.500013
H123	H	-0.272146	1.334896	-0.054273
H124	H	0.227854	1.834896	0.445727
H125	H	-0.272087	1.334960	0.054346
H126	H	0.227913	1.834960	0.554346
N127	N	0.003955	1.099651	0.595801
N128	N	0.503955	1.599651	1.095801
H129	H	0.039753	1.135479	0.552607
H130	H	0.539753	1.635479	1.052607
H131	H	-0.027901	1.136390	0.634038
H132	H	0.472099	1.636390	1.134038
