data_functionalizedCrystal
_audit_creation_method	'MofGen! by Chris Wilmer'
_symmetry_space_group_name_H-M	'P1'
_symmetry_Int_Tables_number	1
_symmetry_cell_setting	triclinic
loop_
_symmetry_equiv_pos_as_xyz
  x,y,z
_cell_length_a	8.559649
_cell_length_b	10.654550
_cell_length_c	7.681481
_cell_angle_alpha	84.203385
_cell_angle_beta	94.913240
_cell_angle_gamma	77.131784
loop_
_atom_site_label
_atom_site_type_symbol
_atom_site_fract_x
_atom_site_fract_y
_atom_site_fract_z
O1	O	2.104699	-0.029228	-0.146401
O2	O	1.640212	0.035560	-0.146409
O3	O	1.883136	-0.180677	-0.146398
O4	O	1.861776	0.187009	-0.146412
O5	O	1.913035	-0.207346	0.146461
O6	O	1.670112	0.008891	0.146450
O7	O	2.134598	-0.055897	0.146458
Zn8	Zn	1.907102	-0.027737	0.192952
Zn9	Zn	1.867709	0.007400	-0.192903
O10	O	1.891675	0.160340	0.146447
C11	C	1.595686	0.027135	0.000019
C12	C	1.418468	0.041750	0.000016
C13	C	1.896517	-0.240647	0.000029
C14	C	1.891824	-0.379605	0.000023
C15	C	2.034854	-0.473866	0.000031
C16	C	2.030434	-0.604430	0.000018
C17	C	1.739944	-0.546457	-0.000002
C18	C	1.744364	-0.415896	-0.000003
C19	C	2.182315	-0.437576	0.000056
C20	C	2.325356	-0.531840	0.000066
C21	C	2.320937	-0.662403	0.000054
C22	C	2.173475	-0.698703	0.000032
C23	C	2.179124	-0.047472	0.000026
C24	C	2.356341	-0.062085	0.000018
C25	C	1.878293	0.220311	0.000016
C26	C	1.882985	0.359270	0.000011
N27	N	1.933999	-0.051719	0.456287
N28	N	1.840824	0.031371	-0.456238
H29	H	2.185930	-0.331269	0.000072
H30	H	2.169886	-0.805017	0.000003
H31	H	2.445409	-0.502271	0.000040
C32	C	2.608516	-0.706586	0.000088
C33	C	2.478161	-0.766018	0.000062
H34	H	2.705583	-0.770557	0.000110
H35	H	2.593781	-0.645158	-0.102031
H36	H	2.614603	-0.663754	0.102223
H37	H	2.472068	-0.808842	-0.102080
H38	H	2.492900	-0.827469	0.102191
H39	H	1.336070	0.141835	0.000003
C40	C	1.559637	0.137005	0.486719
C41	C	1.712414	0.145865	0.442257
H42	H	1.480366	0.207696	0.424052
H43	H	1.538185	0.057722	0.456588
H44	H	1.556745	0.139612	0.609673
H45	H	1.715311	0.143248	0.319304
H46	H	1.733872	0.225169	0.472376
H47	H	1.619888	-0.576025	-0.000018
H48	H	1.438728	-0.162163	0.000012
H49	H	1.627896	-0.339145	-0.000007
H50	H	2.029129	-0.136528	0.531497
