data_functionalizedCrystal
_audit_creation_method	'MofGen! by Chris Wilmer'
_symmetry_space_group_name_H-M	'P1'
_symmetry_Int_Tables_number	1
_symmetry_cell_setting	triclinic
loop_
_symmetry_equiv_pos_as_xyz
  x,y,z
_cell_length_a	12.759401
_cell_length_b	12.759399
_cell_length_c	19.076919
_cell_angle_alpha	92.274423
_cell_angle_beta	92.282708
_cell_angle_gamma	90.016641
loop_
_atom_site_label
_atom_site_type_symbol
_atom_site_fract_x
_atom_site_fract_y
_atom_site_fract_z
Zn1	Zn	1.582342	-0.442111	-0.397932
Zn2	Zn	1.589307	-0.610747	-0.280243
Zn3	Zn	1.413715	-0.435088	-0.280254
Zn4	Zn	1.406633	-0.617752	-0.397902
O5	O	1.497999	-0.526425	-0.339083
O6	O	1.730286	-0.464489	-0.382328
O7	O	1.571892	-0.581575	-0.181755
O8	O	1.436133	-0.289000	-0.295881
O9	O	1.735403	-0.588385	-0.295862
O10	O	1.560022	-0.294160	-0.382338
O11	O	1.442886	-0.452519	-0.181763
O12	O	1.265755	-0.459311	-0.295852
O13	O	1.424063	-0.600324	-0.496395
O14	O	1.260552	-0.593513	-0.382288
O15	O	1.553155	-0.471281	-0.496417
O16	O	1.565026	-0.758696	-0.295834
O17	O	1.430816	-0.763843	-0.382278
C18	C	1.225033	-0.526411	-0.339069
C19	C	1.108255	-0.526431	-0.339079
C20	C	1.050716	-0.596408	-0.384016
C21	C	0.940991	-0.596413	-0.384030
C22	C	0.946355	-0.456461	-0.294165
C23	C	1.056078	-0.456452	-0.294155
C24	C	0.786107	-0.639103	-0.467003
C25	C	0.728564	-0.709096	-0.511934
C26	C	0.763519	-0.812270	-0.522616
C27	C	0.856015	-0.845471	-0.488359
C28	C	0.913553	-0.775483	-0.443424
C29	C	0.878599	-0.672295	-0.432754
C30	C	1.210964	-0.413772	-0.211180
C31	C	1.268503	-0.343789	-0.166241
C32	C	1.233551	-0.240613	-0.155551
C33	C	1.141052	-0.207415	-0.189796
C34	C	1.083512	-0.277399	-0.234735
C35	C	1.118472	-0.380574	-0.245426
C36	C	1.497936	-0.799391	-0.339067
C37	C	1.498003	-0.916169	-0.339083
C38	C	1.567960	-0.968319	-0.294123
C39	C	1.568026	-1.078044	-0.294147
C40	C	1.428170	-1.083460	-0.384093
C41	C	1.428110	-0.973736	-0.384072
C42	C	1.693540	-1.226413	-0.269101
C43	C	1.763488	-1.278567	-0.224130
C44	C	1.783779	-1.238895	-0.155458
C45	C	1.734107	-1.147071	-0.131744
C46	C	1.664152	-1.094923	-0.176711
C47	C	1.643880	-1.134593	-0.245393
C48	C	1.302594	-0.825365	-0.409111
C49	C	1.232633	-0.773215	-0.454075
C50	C	1.212331	-0.812885	-0.522748
C51	C	1.261985	-0.904712	-0.546459
C52	C	1.331946	-0.956862	-0.501495
C53	C	1.352249	-0.917185	-0.432823
C54	C	1.772031	-0.526439	-0.339097
C55	C	1.888808	-0.526445	-0.339103
C56	C	1.487042	-0.537367	-0.522657
C57	C	1.482373	-0.542030	-0.600886
C58	C	1.498090	-0.252393	-0.339114
C59	C	1.498129	-0.135617	-0.339128
C60	C	1.547388	-0.477039	-0.637650
C61	C	1.542988	-0.481416	-0.711155
C62	C	1.473578	-0.550791	-0.747893
C63	C	1.408556	-0.615786	-0.711123
C64	C	1.412951	-0.611402	-0.637621
C65	C	1.453220	-0.571101	-0.967721
C66	C	1.448832	-0.575481	-1.041229
C67	C	1.583263	-0.441110	-1.041255
C68	C	1.587656	-0.436737	-0.967751
C69	C	1.522631	-0.501727	-0.930988
N70	N	1.469081	-0.555270	-0.823026
N71	N	1.527123	-0.497243	-0.855856
C72	C	1.508974	-0.515449	-0.156222
C73	C	1.513846	-0.510490	-0.077994
H74	H	1.239437	-0.497784	-0.219887
H75	H	0.903858	-0.399487	-0.257588
N76	N	1.383104	-0.641188	-0.928059
H77	H	1.336262	-0.596656	-0.897567
H78	H	1.338527	-0.685801	-0.962519
N79	N	0.701463	-0.887758	-0.571083
H80	H	0.737640	-0.958160	-0.572652
H81	H	0.628594	-0.896008	-0.553198
H82	H	1.343821	-0.370828	-0.138356
N83	N	1.653377	-0.371010	-1.080914
H84	H	1.637845	-0.295182	-1.068127
H85	H	1.729177	-0.386651	-1.068115
N86	N	1.643345	-0.906226	-0.245605
H87	H	1.687674	-0.955917	-0.217129
H88	H	1.690193	-0.862351	-0.274276
N89	N	1.385500	-1.055906	-0.527071
H90	H	1.428580	-1.040367	-0.568724
H91	H	1.432843	-1.082876	-0.488124
N92	N	1.610574	-0.995894	-0.151143
H93	H	1.634037	-0.978675	-0.100813
H94	H	1.629756	-0.936181	-0.181417
N95	N	1.671658	-1.269195	-0.343173
H96	H	1.739093	-1.271809	-0.369170
H97	H	1.641381	-1.342201	-0.341852
N98	N	1.817073	-1.377591	-0.249710
H99	H	1.864461	-1.404610	-0.210800
H100	H	1.762427	-1.432403	-0.264119
H101	H	1.392307	-0.631977	-1.071140
H102	H	1.603912	-0.420549	-0.607743
N103	N	0.628803	-0.673294	-0.548881
H104	H	0.615393	-0.597307	-0.535303
H105	H	0.636154	-0.681121	-0.601345
H106	H	1.245455	-0.937012	-0.602379
H107	H	1.155360	-0.770414	-0.559356
H108	H	1.644180	-0.380247	-0.937844
N109	N	0.748405	-0.527819	-0.455482
H110	H	0.744522	-0.491937	-0.501760
H111	H	0.676556	-0.528538	-0.435122
H112	H	1.359999	-0.664315	-0.607688
N113	N	1.333667	-0.690589	-0.750744
H114	H	1.340743	-0.683502	-0.802887
H115	H	1.350742	-0.764864	-0.737894
H116	H	1.093196	-0.653388	-0.420598
N117	N	1.013306	-0.811278	-0.406471
H118	H	1.026718	-0.887264	-0.420053
H119	H	1.073956	-0.766961	-0.420625
H120	H	1.192209	-0.698439	-0.434764
N121	N	1.755980	-1.104290	-0.057671
H122	H	1.807834	-1.151258	-0.032783
H123	H	1.786176	-1.031250	-0.058988
H124	H	1.840733	-1.281366	-0.118843
N125	N	1.352783	-1.145550	-0.432611
H126	H	1.363432	-1.222973	-0.425801
H127	H	1.278409	-1.125783	-0.421608
H128	H	1.319128	-0.793051	-0.353193
H129	H	0.884462	-0.929489	-0.497055
N130	N	1.103343	-0.096133	-0.178269
H131	H	1.031475	-0.096765	-0.157930
H132	H	1.153899	-0.056901	-0.144623
N133	N	1.613089	-0.411298	-0.750808
H134	H	1.657725	-0.366683	-0.716382
H135	H	1.659875	-0.455867	-0.781314
H136	H	1.008199	-0.250358	-0.262624
H137	H	1.280406	-0.183636	-0.118951
