data_functionalizedCrystal
_audit_creation_method	'MofGen! by Chris Wilmer'
_symmetry_space_group_name_H-M	'P1'
_symmetry_Int_Tables_number	1
_symmetry_cell_setting	triclinic
loop_
_symmetry_equiv_pos_as_xyz
  x,y,z
_cell_length_a	21.295417
_cell_length_b	15.298114
_cell_length_c	15.296720
_cell_angle_alpha	69.221067
_cell_angle_beta	80.361834
_cell_angle_gamma	80.369168
loop_
_atom_site_label
_atom_site_type_symbol
_atom_site_fract_x
_atom_site_fract_y
_atom_site_fract_z
Zn1	Zn	-0.444829	1.330561	0.279302
Zn2	Zn	-0.534561	1.357364	0.123793
Zn3	Zn	-0.413823	1.201980	0.150766
Zn4	Zn	-0.534550	1.175004	0.306215
O5	O	-0.481941	1.266227	0.215019
O6	O	-0.469713	1.464246	0.236122
O7	O	-0.505573	1.359258	-0.002766
O8	O	-0.329858	1.219109	0.167841
O9	O	-0.535639	1.483938	0.121870
O10	O	-0.352639	1.313577	0.262276
O11	O	-0.416867	1.245099	0.017051
O12	O	-0.416856	1.068272	0.193938
O13	O	-0.535620	1.173132	0.432782
O14	O	-0.505554	1.048453	0.308146
O15	O	-0.469703	1.287419	0.413009
O16	O	-0.622637	1.333101	0.147967
O17	O	-0.622629	1.199122	0.281991
C18	C	-0.457840	1.024621	0.256889
C19	C	-0.447547	0.921257	0.274824
C20	C	-0.555534	0.670963	0.087067
C21	C	-0.565204	0.768080	0.070210
C22	C	-0.535790	0.806379	0.121362
C23	C	-0.496706	0.747552	0.189374
C24	C	-0.487031	0.650426	0.206228
C25	C	-0.467288	0.785842	0.240523
C26	C	-0.428203	0.727015	0.308535
C27	C	-0.418531	0.629899	0.325386
C28	C	-0.447944	0.591600	0.274234
C29	C	-0.476962	0.882968	0.223669
C30	C	-0.408459	0.862431	0.342830
C31	C	-0.398790	0.765314	0.359687
C32	C	-0.645475	1.266114	0.214988
C33	C	-0.715447	1.266146	0.214992
C34	C	-0.748308	1.335951	0.145257
C35	C	-0.814057	1.335991	0.145270
C36	C	-0.846940	1.266211	0.215012
C37	C	-0.814072	1.196399	0.284759
C38	C	-0.748325	1.196367	0.284749
N39	N	-0.942803	1.183635	0.236199
N40	N	-1.005259	1.183669	0.236203
C41	C	-1.045030	1.266306	0.215047
N42	N	-1.019985	1.348911	0.193869
N43	N	-0.957522	1.348877	0.193861
C44	C	-0.918231	1.266239	0.215030
C45	C	-1.149184	1.336160	0.145322
C46	C	-1.214935	1.336200	0.145342
C47	C	-1.214947	1.196601	0.284827
C48	C	-1.149198	1.196568	0.284811
C49	C	-1.116320	1.266347	0.215054
C50	C	-0.317772	1.266363	0.215065
C51	C	-0.247813	1.266420	0.215085
C52	C	-0.506119	1.224277	0.457582
C53	C	-0.516423	1.206400	0.560948
C54	C	-0.506136	1.508777	0.172985
C55	C	-0.516447	1.612137	0.155073
C56	C	-0.457816	1.308068	-0.026610
C57	C	-0.447353	1.326125	-0.130007
C58	C	-0.408194	1.394029	0.811139
C59	C	-0.398515	1.410831	0.714021
C60	C	-0.427990	1.359725	0.675748
C61	C	-0.467148	1.291814	0.734603
C62	C	-0.476831	1.275016	0.831730
C63	C	-0.496628	1.240711	0.696338
C64	C	-0.535785	1.172800	0.755194
C65	C	-0.545467	1.156004	0.852311
C66	C	-0.515991	1.207111	0.890584
C67	C	-0.486944	1.257509	0.599211
C68	C	-0.555582	1.138496	0.619802
C69	C	-0.565261	1.121694	0.716920
H70	H	-0.386700	0.582005	0.380760
H71	H	-1.241690	1.393049	0.088556
H72	H	-0.384507	0.893614	0.384480
H73	H	-0.366966	0.717404	0.415063
C74	C	-0.588541	1.081308	0.917048
H75	H	-0.604705	1.053270	0.880349
H76	H	-0.623291	1.110301	0.948765
H77	H	-0.564192	1.034257	0.961963
H78	H	-0.455062	1.312802	0.551301
C79	C	-0.608336	1.047000	0.781662
H80	H	-0.624502	1.018961	0.744965
H81	H	-0.643084	1.075996	0.813378
H82	H	-0.583987	0.999949	0.826575
C83	C	-0.355444	1.485524	0.649288
H84	H	-0.339272	1.513549	0.685991
H85	H	-0.379786	1.532573	0.604373
H86	H	-0.320691	1.456524	0.617575
H87	H	-1.122440	1.139723	0.341592
H88	H	-1.241720	1.139788	0.341615
C89	C	-0.850237	1.119643	0.361475
H90	H	-0.821248	1.078067	0.403012
H91	H	-0.868334	1.085322	0.332892
H92	H	-0.883436	1.148190	0.395869
H93	H	-0.543666	0.885456	0.107633
C94	C	-0.526638	1.188631	0.997415
H95	H	-0.503475	1.228796	1.011775
H96	H	-0.511958	1.124831	1.029787
H97	H	-0.571051	1.200885	1.016587
C98	C	-0.608196	0.832785	-0.004591
H99	H	-0.609740	0.896112	-0.007309
H100	H	-0.650263	0.814512	0.011667
H101	H	-0.591100	0.827662	-0.064289
C102	C	-0.588006	1.082273	0.577713
H103	H	-0.576625	1.101996	0.511443
H104	H	-0.633239	1.093091	0.591255
H105	H	-0.574142	1.017044	0.604461
H106	H	-0.420108	1.373409	0.596669
C107	C	-0.375774	1.450235	0.853242
H108	H	-0.387147	1.430498	0.919513
H109	H	-0.389629	1.515461	0.826497
H110	H	-0.330537	1.439406	0.839701
C111	C	-0.712175	1.119574	0.361456
H112	H	-0.741173	1.078017	0.402993
H113	H	-0.694075	1.148086	0.395839
H114	H	-0.678980	1.085227	0.332854
C115	C	-0.712148	1.412713	0.068536
H116	H	-0.741141	1.454297	0.027011
H117	H	-0.678947	1.384179	0.034142
H118	H	-0.694056	1.447034	0.097130
H119	H	-1.122415	1.392980	0.088524
C120	C	-0.519954	0.947669	0.148867
H121	H	-0.521501	1.010997	0.146147
H122	H	-0.562020	0.929394	0.165124
H123	H	-0.502857	0.942545	0.089170
H124	H	-0.579473	0.639771	0.045420
H125	H	-0.440075	0.512520	0.287958
H126	H	-0.840819	1.392838	0.088484
