data_functionalizedCrystal
_audit_creation_method	'MofGen! by Chris Wilmer'
_symmetry_space_group_name_H-M	'P1'
_symmetry_Int_Tables_number	1
_symmetry_cell_setting	triclinic
loop_
_symmetry_equiv_pos_as_xyz
  x,y,z
_cell_length_a	16.120444
_cell_length_b	21.295420
_cell_length_c	16.120256
_cell_angle_alpha	92.878456
_cell_angle_beta	95.616860
_cell_angle_gamma	92.922386
loop_
_atom_site_label
_atom_site_type_symbol
_atom_site_fract_x
_atom_site_fract_y
_atom_site_fract_z
Zn1	Zn	-0.356856	0.929939	-0.489469
Zn2	Zn	-0.106856	1.179939	-0.239469
Zn3	Zn	0.143144	1.429939	0.010531
Zn4	Zn	0.393144	1.679939	0.260531
Zn5	Zn	-0.489542	0.929858	-0.356780
Zn6	Zn	-0.239542	1.179858	-0.106780
Zn7	Zn	0.010458	1.429858	0.143220
Zn8	Zn	0.260458	1.679858	0.393220
Zn9	Zn	-0.349778	0.830293	-0.349713
Zn10	Zn	-0.099778	1.080293	-0.099713
Zn11	Zn	0.150222	1.330293	0.150287
Zn12	Zn	0.400222	1.580293	0.400287
Zn13	Zn	-0.496577	0.819020	-0.496503
Zn14	Zn	-0.246577	1.069020	-0.246503
Zn15	Zn	0.003423	1.319020	0.003497
Zn16	Zn	0.253423	1.569020	0.253497
O17	O	-0.423188	0.877277	-0.423116
O18	O	-0.173188	1.127277	-0.173116
O19	O	0.076812	1.377277	0.076884
O20	O	0.326812	1.627277	0.326884
O21	O	-0.374475	1.018016	-0.471881
O22	O	-0.124475	1.268016	-0.221881
O23	O	0.125525	1.518016	0.028119
O24	O	0.375525	1.768016	0.278119
O25	O	-0.465096	0.921334	-0.238880
O26	O	-0.215096	1.171334	0.011120
O27	O	0.034904	1.421334	0.261120
O28	O	0.284904	1.671334	0.511120
O29	O	-0.233751	0.848263	-0.362351
O30	O	0.016249	1.098263	-0.112351
O31	O	0.266249	1.348263	0.137649
O32	O	0.516249	1.598263	0.387649
O33	O	-0.471959	1.017957	-0.374396
O34	O	-0.221959	1.267957	-0.124396
O35	O	0.028041	1.517957	0.125604
O36	O	0.278041	1.767957	0.375604
O37	O	-0.238951	0.921472	-0.465029
O38	O	0.011049	1.171472	-0.215029
O39	O	0.261049	1.421472	0.034971
O40	O	0.511049	1.671472	0.284971
O41	O	-0.362412	0.848184	-0.233688
O42	O	-0.112412	1.098184	0.016312
O43	O	0.137588	1.348184	0.266312
O44	O	0.387588	1.598184	0.516312
O45	O	-0.369233	0.740709	-0.369171
O46	O	-0.119233	0.990709	-0.119171
O47	O	0.130767	1.240709	0.130829
O48	O	0.380767	1.490709	0.380829
O49	O	-0.483949	0.829050	-0.612532
O50	O	-0.233949	1.079050	-0.362532
O51	O	0.016051	1.329050	-0.112532
O52	O	0.266051	1.579050	0.137468
O53	O	-0.477085	0.732427	-0.477017
O54	O	-0.227085	0.982427	-0.227017
O55	O	0.022915	1.232427	0.022983
O56	O	0.272915	1.482427	0.272983
O57	O	-0.381296	0.910541	-0.607365
O58	O	-0.131296	1.160541	-0.357365
O59	O	0.118704	1.410541	-0.107365
O60	O	0.368704	1.660541	0.142635
O61	O	-0.607441	0.910403	-0.381216
O62	O	-0.357441	1.160403	-0.131216
O63	O	-0.107441	1.410403	0.118784
O64	O	0.142559	1.660403	0.368784
O65	O	-0.612609	0.828971	-0.483870
O66	O	-0.362609	1.078971	-0.233870
O67	O	-0.112609	1.328971	0.016130
O68	O	0.137391	1.578971	0.266130
C69	C	-0.423155	0.713728	-0.423091
C70	C	-0.173155	0.963728	-0.173091
C71	C	0.076845	1.213728	0.076909
C72	C	0.326845	1.463728	0.326909
C73	C	-0.423162	0.643759	-0.423101
C74	C	-0.173162	0.893759	-0.173101
C75	C	0.076838	1.143759	0.076899
C76	C	0.326838	1.393759	0.326899
C77	C	-0.372559	0.144321	-0.473983
C78	C	-0.122559	0.394321	-0.223983
C79	C	0.127441	0.644321	0.026017
C80	C	0.377441	0.894321	0.276017
C81	C	-0.372553	0.210064	-0.473983
C82	C	-0.122553	0.460064	-0.223983
C83	C	0.127447	0.710064	0.026017
C84	C	0.377447	0.960064	0.276017
C85	C	-0.423214	0.242916	-0.423137
C86	C	-0.173214	0.492916	-0.173137
C87	C	0.076786	0.742916	0.076863
C88	C	0.326786	0.992916	0.326863
C89	C	-0.473902	0.210020	-0.372304
C90	C	-0.223902	0.460020	-0.122304
C91	C	0.026098	0.710020	0.127696
C92	C	0.276098	0.960020	0.377696
C93	C	-0.473913	0.144278	-0.372312
C94	C	-0.223913	0.394278	-0.122312
C95	C	0.026087	0.644278	0.127688
C96	C	0.276087	0.894278	0.377688
N97	N	-0.425801	0.348802	-0.350270
N98	N	-0.175801	0.598802	-0.100270
N99	N	0.074199	0.848802	0.149730
N100	N	0.324199	1.098802	0.399730
N101	N	-0.425786	0.411254	-0.350264
N102	N	-0.175786	0.661254	-0.100264
N103	N	0.074214	0.911254	0.149736
N104	N	0.324214	1.161254	0.399736
C105	C	-0.423186	0.440993	-0.423111
C106	C	-0.173186	0.690993	-0.173111
C107	C	0.076814	0.940993	0.076889
C108	C	0.326814	1.190993	0.326889
N109	N	-0.420585	0.405921	-0.495965
N110	N	-0.170585	0.655921	-0.245965
N111	N	0.079415	0.905921	0.004035
N112	N	0.329415	1.155921	0.254035
N113	N	-0.420596	0.343463	-0.495969
N114	N	-0.170596	0.593463	-0.245969
N115	N	0.079404	0.843463	0.004031
N116	N	0.329404	1.093463	0.254031
C117	C	-0.423209	0.314202	-0.423123
C118	C	-0.173209	0.564202	-0.173123
C119	C	0.076791	0.814202	0.076877
C120	C	0.326791	1.064202	0.326877
C121	C	-0.372499	0.545167	-0.473945
C122	C	-0.122499	0.795167	-0.223945
C123	C	0.127501	1.045167	0.026055
C124	C	0.377501	1.295167	0.276055
C125	C	-0.372499	0.610911	-0.473946
C126	C	-0.122499	0.860911	-0.223946
C127	C	0.127501	1.110911	0.026054
C128	C	0.377501	1.360911	0.276054
C129	C	-0.473843	0.610866	-0.372260
C130	C	-0.223843	0.860866	-0.122260
C131	C	0.026157	1.110866	0.127740
C132	C	0.276157	1.360866	0.377740
C133	C	-0.473848	0.545123	-0.372266
C134	C	-0.223848	0.795123	-0.122266
C135	C	0.026152	1.045123	0.127734
C136	C	0.276152	1.295123	0.377734
C137	C	-0.423172	0.512278	-0.423107
C138	C	-0.173172	0.762278	-0.173107
C139	C	0.076828	1.012278	0.076893
C140	C	0.326828	1.262278	0.326893
C141	C	-0.640354	0.868471	-0.434091
C142	C	-0.390354	1.118471	-0.184091
C143	C	-0.140354	1.368471	0.065909
C144	C	0.109646	1.618471	0.315909
C145	C	-0.733259	0.864761	-0.438814
C146	C	-0.483259	1.114761	-0.188814
C147	C	-0.233259	1.364761	0.061186
C148	C	0.016741	1.614761	0.311186
C149	C	-0.942171	0.896674	-0.398795
C150	C	-0.692171	1.146674	-0.148795
C151	C	-0.442171	1.396674	0.101205
C152	C	-0.192171	1.646674	0.351205
C153	C	-0.903354	0.857997	-0.447446
C154	C	-0.653354	1.107997	-0.197446
C155	C	-0.403354	1.357997	0.052554
C156	C	-0.153354	1.607997	0.302554
C157	C	-0.808705	0.861761	-0.442642
C158	C	-0.558705	1.111761	-0.192642
C159	C	-0.308705	1.361761	0.057358
C160	C	-0.058705	1.611761	0.307358
C161	C	-1.036829	0.892910	-0.403598
C162	C	-0.786829	1.142910	-0.153598
C163	C	-0.536829	1.392910	0.096402
C164	C	-0.286829	1.642910	0.346402
C165	C	-0.205175	0.886134	-0.412117
C166	C	0.044825	1.136134	-0.162117
C167	C	0.294825	1.386134	0.087883
C168	C	0.544825	1.636134	0.337883
C169	C	-0.112271	0.889908	-0.407429
C170	C	0.137729	1.139908	-0.157429
C171	C	0.387729	1.389908	0.092571
C172	C	0.637729	1.639908	0.342571
C173	C	-0.434197	0.868547	-0.641123
C174	C	-0.184197	1.118547	-0.391123
C175	C	0.065803	1.368547	-0.141123
C176	C	0.315803	1.618547	0.108877
C177	C	-0.438888	0.864827	-0.734025
C178	C	-0.188888	1.114827	-0.484025
C179	C	0.061112	1.364827	-0.234025
C180	C	0.311112	1.614827	0.015975
C181	C	-0.423222	1.041465	-0.423142
C182	C	-0.173222	1.291465	-0.173142
C183	C	0.076778	1.541465	0.076858
C184	C	0.326778	1.791465	0.326858
C185	C	-0.423236	1.111432	-0.423153
C186	C	-0.173236	1.361432	-0.173153
C187	C	0.076764	1.611432	0.076847
C188	C	0.326764	1.861432	0.326847
C189	C	-0.398702	0.896678	-0.942951
C190	C	-0.148702	1.146678	-0.692951
C191	C	0.101298	1.396678	-0.442951
C192	C	0.351298	1.646678	-0.192951
C193	C	-0.447418	0.858014	-0.904110
C194	C	-0.197418	1.108014	-0.654110
C195	C	0.052582	1.358014	-0.404110
C196	C	0.302582	1.608014	-0.154110
C197	C	-0.442671	0.861806	-0.809466
C198	C	-0.192671	1.111806	-0.559466
C199	C	0.057329	1.361806	-0.309466
C200	C	0.307329	1.611806	-0.059466
C201	C	-0.403449	0.892888	-1.037603
C202	C	-0.153449	1.142888	-0.787603
C203	C	0.096551	1.392888	-0.537603
C204	C	0.346551	1.642888	-0.287603
C205	C	-0.412162	0.886012	-0.205954
C206	C	-0.162162	1.136012	0.044046
C207	C	0.087838	1.386012	0.294046
C208	C	0.337838	1.636012	0.544046
C209	C	-0.407235	0.889864	-0.113041
C210	C	-0.157235	1.139864	0.136959
C211	C	0.092765	1.389864	0.386959
C212	C	0.342765	1.639864	0.636959
H213	H	-0.331298	0.117582	-0.515385
H214	H	-0.081298	0.367582	-0.265385
H215	H	0.168702	0.617582	-0.015385
H216	H	0.418702	0.867582	0.234615
H217	H	-0.492686	0.822063	-0.941937
H218	H	-0.242686	1.072063	-0.691937
H219	H	0.007314	1.322063	-0.441937
H220	H	0.257314	1.572063	-0.191937
N221	N	-0.338749	0.944302	-0.892851
N222	N	-0.088749	1.194302	-0.642851
N223	N	0.161251	1.444302	-0.392851
N224	N	0.411251	1.694302	-0.142851
H225	H	-0.306898	0.969581	-0.931956
H226	H	-0.056898	1.219581	-0.681956
H227	H	0.193102	1.469581	-0.431956
H228	H	0.443102	1.719581	-0.181956
H229	H	-0.298279	0.921677	-0.854658
H230	H	-0.048279	1.171677	-0.604658
H231	H	0.201721	1.421677	-0.354658
H232	H	0.451721	1.671677	-0.104658
N233	N	-0.317893	0.245547	-0.528809
N234	N	-0.067893	0.495547	-0.278809
N235	N	0.182107	0.745547	-0.028809
N236	N	0.432107	0.995547	0.221191
H237	H	-0.285794	0.214764	-0.561018
H238	H	-0.035794	0.464764	-0.311018
H239	H	0.214206	0.714764	-0.061018
H240	H	0.464206	0.964764	0.188982
H241	H	-0.277446	0.275744	-0.492880
H242	H	-0.027446	0.525744	-0.242880
H243	H	0.222554	0.775744	0.007120
H244	H	0.472554	1.025744	0.257120
H245	H	-0.515153	0.236772	-0.330908
H246	H	-0.265153	0.486772	-0.080908
H247	H	-0.015153	0.736772	0.169092
H248	H	0.234847	0.986772	0.419092
N249	N	-0.953493	0.810385	-0.507387
N250	N	-0.703493	1.060385	-0.257387
N251	N	-0.453493	1.310385	-0.007387
N252	N	-0.203493	1.560385	0.242613
H253	H	-0.937751	0.766529	-0.493591
H254	H	-0.687751	1.016529	-0.243591
H255	H	-0.437751	1.266529	0.006409
H256	H	-0.187751	1.516529	0.256409
H257	H	-0.941322	0.818372	-0.566344
H258	H	-0.691322	1.068372	-0.316344
H259	H	-0.441322	1.318372	-0.066344
H260	H	-0.191322	1.568372	0.183656
H261	H	-0.331234	0.637687	-0.515344
H262	H	-0.081234	0.887687	-0.265344
H263	H	0.168766	1.137687	-0.015344
H264	H	0.418766	1.387687	0.234656
N265	N	-0.528494	0.509649	-0.317427
N266	N	-0.278494	0.759649	-0.067427
N267	N	-0.028494	1.009649	0.182573
N268	N	0.221506	1.259649	0.432573
H269	H	-0.520814	0.463017	-0.325146
H270	H	-0.270814	0.713017	-0.075146
H271	H	-0.020814	0.963017	0.174854
H272	H	0.229186	1.213017	0.424854
H273	H	-0.588860	0.518210	-0.333355
H274	H	-0.338860	0.768210	-0.083355
H275	H	-0.088860	1.018210	0.166645
H276	H	0.161140	1.268210	0.416645
H277	H	-0.515182	0.117500	-0.330919
H278	H	-0.265182	0.367500	-0.080919
H279	H	-0.015182	0.617500	0.169081
H280	H	0.234818	0.867500	0.419081
N281	N	-0.892042	0.944278	-0.338846
N282	N	-0.642042	1.194278	-0.088846
N283	N	-0.392042	1.444278	0.161154
N284	N	-0.142042	1.694278	0.411154
H285	H	-0.830555	0.940250	-0.343871
H286	H	-0.580555	1.190250	-0.093871
H287	H	-0.330555	1.440250	0.156129
H288	H	-0.080555	1.690250	0.406129
H289	H	-0.904267	0.936311	-0.279899
H290	H	-0.654267	1.186311	-0.029899
H291	H	-0.404267	1.436311	0.220101
H292	H	-0.154267	1.686311	0.470101
H293	H	-0.331235	0.518423	-0.515342
H294	H	-0.081235	0.768423	-0.265342
H295	H	0.168765	1.018423	-0.015342
H296	H	0.418765	1.268423	0.234658
H297	H	-0.515099	0.637614	-0.330867
H298	H	-0.265099	0.887614	-0.080867
H299	H	-0.015099	1.137614	0.169133
H300	H	0.234901	1.387614	0.419133
