data_functionalizedCrystal
_audit_creation_method	'MofGen! by Chris Wilmer'
_symmetry_space_group_name_H-M	'P1'
_symmetry_Int_Tables_number	1
_symmetry_cell_setting	triclinic
loop_
_symmetry_equiv_pos_as_xyz
  x,y,z
_cell_length_a	10.489741
_cell_length_b	10.540539
_cell_length_c	9.616153
_cell_angle_alpha	90.004826
_cell_angle_beta	89.998052
_cell_angle_gamma	95.467667
loop_
_atom_site_label
_atom_site_type_symbol
_atom_site_fract_x
_atom_site_fract_y
_atom_site_fract_z
O1	O	0.179760	-1.685914	-0.115579
O2	O	0.196697	-1.316503	-0.115596
O3	O	0.002629	-1.509614	-0.115579
O4	O	0.373827	-1.492802	-0.115596
O5	O	0.002633	-1.509587	0.115712
O6	O	0.196701	-1.316476	0.115695
O7	O	0.179764	-1.685887	0.115712
Zn8	Zn	0.188233	-1.501177	0.152426
Zn9	Zn	0.188228	-1.501212	-0.152310
O10	O	0.373831	-1.492776	0.115695
C11	C	-0.044900	-1.508331	0.000066
C12	C	-0.186529	-1.504532	0.000063
C13	C	0.195429	-1.269186	0.000047
C14	C	0.191629	-1.128238	0.000041
C15	C	0.181032	-1.733203	0.000066
C16	C	0.184832	-1.874152	0.000063
C17	C	-0.254654	-1.381661	0.000047
C18	C	-0.346782	-1.439691	0.114088
C19	C	-0.346760	-1.439746	-0.113947
C20	C	-0.276791	-1.562613	0.114199
C21	C	-0.276760	-1.562651	-0.113939
C22	C	-0.368860	-1.620770	0.000130
C23	C	0.421361	-1.494059	0.000047
C24	C	0.562990	-1.497858	0.000041
N25	N	0.188236	-1.501163	0.360401
C26	C	0.046011	-0.944793	0.000588
C27	C	0.049864	-1.091412	0.000052
C28	C	0.259850	-1.066588	-0.132036
C29	C	0.255011	-0.920043	-0.132132
C30	C	0.257900	-0.919525	0.130890
C31	C	0.259206	-1.066507	0.132621
N32	N	0.188215	-1.501237	-0.360285
C33	C	0.291701	-1.397545	0.580761
C34	C	0.292088	-1.397773	0.419594
C35	C	0.218515	-1.633890	0.418855
C36	C	0.219248	-1.633325	0.580073
C37	C	0.054153	-1.473374	0.580317
C38	C	0.055022	-1.470328	0.419090
H39	H	-0.204991	-1.280637	0.000157
H40	H	-0.377785	-1.387690	0.210498
H41	H	0.145199	-1.712936	0.380509
C42	C	-0.049911	-1.575488	0.631827
H43	H	-0.130699	-1.558148	0.595587
H44	H	-0.052830	-1.574227	0.730546
H45	H	-0.030404	-1.657092	0.601105
H46	H	-0.377720	-1.387752	-0.210369
H47	H	0.025335	-1.378634	0.621051
H48	H	-0.245964	-1.614546	0.210720
C49	C	-0.022651	-1.148963	0.127950
H50	H	-0.054741	-1.082740	0.180701
H51	H	0.033961	-1.192363	0.183818
H52	H	-0.091934	-1.207276	0.098232
C53	C	0.400486	-1.096808	-0.138698
H54	H	0.418888	-1.147417	-0.060806
H55	H	0.455088	-1.019555	-0.137471
H56	H	0.414237	-1.142122	-0.221924
C57	C	0.398836	-1.099229	0.143393
H58	H	0.437261	-1.060721	0.224384
H59	H	0.445063	-1.068100	0.063524
H60	H	0.400327	-1.189062	0.148935
H61	H	-0.418297	-1.721885	0.000198
C62	C	-0.234817	-1.632836	-0.244181
H63	H	-0.258513	-1.589069	-0.325137
H64	H	-0.275501	-1.717298	-0.244999
H65	H	-0.144545	-1.635410	-0.242776
C66	C	0.195929	-0.876889	0.266135
H67	H	0.124904	-0.831016	0.244074
H68	H	0.256993	-0.823667	0.317698
H69	H	0.167627	-0.949692	0.320057
H70	H	0.146910	-1.712959	0.619068
C71	C	0.396227	-0.855750	0.132091
H72	H	0.409438	-0.801726	0.053300
H73	H	0.454419	-0.919453	0.129181
H74	H	0.410150	-0.806702	0.214523
C75	C	-0.029648	-0.906147	0.128541
H76	H	0.022739	-0.846577	0.182788
H77	H	-0.054621	-0.979565	0.182921
H78	H	-0.103736	-0.868426	0.098849
H79	H	0.032071	-1.372687	0.380886
H80	H	0.273870	-1.299154	0.380075
C81	C	-0.054012	-1.565597	0.364685
H82	H	-0.019563	-1.625697	0.305207
H83	H	-0.113632	-1.521004	0.314356
H84	H	-0.096091	-1.608894	0.440943
H85	H	0.315218	-1.658799	0.378461
H86	H	-0.009758	-0.914590	-0.093600
C87	C	-0.023144	-1.147826	-0.128074
H88	H	-0.021044	-1.237731	-0.128835
H89	H	0.016094	-1.112581	-0.210225
H90	H	-0.109536	-1.127983	-0.124196
C91	C	0.186883	-0.881935	-0.265489
H92	H	0.162413	-0.955984	-0.319092
H93	H	0.243345	-0.824888	-0.318295
H94	H	0.112837	-0.841443	-0.241346
H95	H	0.212456	-1.109182	-0.230326
H96	H	0.273762	-1.298618	0.619569
C97	C	0.392734	-0.855252	-0.140273
H98	H	0.451390	-0.918527	-0.143517
H99	H	0.409870	-0.803073	-0.060636
H100	H	0.401911	-0.804202	-0.221726
C101	C	0.191880	-1.121807	0.264622
H102	H	0.122878	-1.182270	0.239058
H103	H	0.159943	-1.054966	0.316498
H104	H	0.251287	-1.162336	0.319737
H105	H	0.390600	-1.415224	0.621256
C106	C	0.426441	-1.421994	0.367454
H107	H	0.427139	-1.422212	0.268661
H108	H	0.447682	-1.502143	0.400842
H109	H	0.487390	-1.356557	0.400676
C110	C	0.351378	-1.666225	0.630854
H111	H	0.404105	-1.679802	0.552955
H112	H	0.341316	-1.741374	0.685847
H113	H	0.390244	-1.597772	0.685068
