data_functionalizedCrystal
_audit_creation_method	'MofGen! by Chris Wilmer'
_symmetry_space_group_name_H-M	'P1'
_symmetry_Int_Tables_number	1
_symmetry_cell_setting	triclinic
loop_
_symmetry_equiv_pos_as_xyz
  x,y,z
_cell_length_a	10.967926
_cell_length_b	10.967829
_cell_length_c	14.048226
_cell_angle_alpha	77.865708
_cell_angle_beta	102.122801
_cell_angle_gamma	87.248880
loop_
_atom_site_label
_atom_site_type_symbol
_atom_site_fract_x
_atom_site_fract_y
_atom_site_fract_z
O1	O	1.657149	0.175009	0.163981
O2	O	2.157149	0.675009	0.663981
O3	O	1.294007	0.191768	0.101659
O4	O	1.794007	0.691768	0.601659
O5	O	1.483951	0.001808	0.163984
O6	O	1.983951	0.501808	0.663984
O7	O	1.467206	0.364969	0.101656
O8	O	1.967206	0.864969	0.601656
O9	O	1.483928	0.001797	0.322303
O10	O	1.983928	0.501797	0.822303
O11	O	1.293984	0.191757	0.259978
O12	O	1.793984	0.691757	0.759978
O13	O	1.657126	0.174998	0.322301
O14	O	2.157126	0.674998	0.822301
Zn15	Zn	1.475551	0.183375	0.316276
Zn16	Zn	1.975551	0.683375	0.816276
Zn17	Zn	1.475582	0.183390	0.107683
Zn18	Zn	1.975582	0.683390	0.607683
O19	O	1.467183	0.364957	0.259976
O20	O	1.967183	0.864957	0.759976
C21	C	1.247497	0.190544	0.173390
C22	C	1.747497	0.690544	0.673390
C23	C	1.108947	0.186898	0.151259
C24	C	1.608947	0.686898	0.651259
C25	C	1.047165	0.185267	0.223406
C26	C	1.547165	0.685267	0.723406
C27	C	0.903966	0.181499	0.200534
C28	C	1.403966	0.681499	0.700534
C29	C	1.482719	-0.044698	0.250570
C30	C	1.982719	0.455302	0.750570
C31	C	1.479069	-0.183255	0.272697
C32	C	1.979069	0.316745	0.772697
C33	C	1.477453	-0.245016	0.200547
C34	C	1.977453	0.254984	0.700547
C35	C	1.473680	-0.388222	0.223414
C36	C	1.973680	0.111778	0.723414
C37	C	1.703636	0.176222	0.250567
C38	C	2.203636	0.676222	0.750567
C39	C	1.842186	0.179867	0.272692
C40	C	2.342186	0.679867	0.772692
C41	C	1.468414	0.411463	0.173387
C42	C	1.968414	0.911463	0.673387
C43	C	1.472065	0.550020	0.151254
C44	C	1.972065	1.050020	0.651254
N45	N	1.475540	0.183364	0.458637
N46	N	1.975540	0.683364	0.958637
N47	N	1.475603	0.183392	-0.034674
N48	N	1.975603	0.683392	0.465326
C49	C	1.559674	0.099285	0.536051
C50	C	2.059674	0.599285	1.036051
C51	C	1.559682	0.099285	0.635710
C52	C	2.059682	0.599285	1.135710
C53	C	1.475562	0.183370	0.657953
C54	C	1.975562	0.683370	1.157953
C55	C	1.391419	0.267453	0.580529
C56	C	1.891419	0.767453	1.080529
C57	C	1.391405	0.267446	0.480872
C58	C	1.891405	0.767446	0.980872
C59	C	1.391455	0.267462	0.788248
C60	C	1.891455	0.767462	1.288248
C61	C	1.391470	0.267470	0.887912
C62	C	1.891470	0.767470	1.387912
C63	C	1.559732	0.099300	0.943086
C64	C	2.059732	0.599300	1.443086
C65	C	1.559718	0.099294	0.843429
C66	C	2.059718	0.599294	1.343429
C67	C	1.475576	0.183379	0.766012
C68	C	1.975576	0.683379	1.266012
H69	H	1.478858	-0.191872	0.121846
H70	H	1.978858	0.308128	0.621846
F71	F	1.471828	-0.457672	0.326287
F72	F	1.971828	0.042328	0.826287
H73	H	1.473460	-0.396841	0.072546
H74	H	1.973460	0.103159	0.572546
F75	F	1.649214	0.009794	0.512390
F76	F	2.149214	0.509794	1.012390
H77	H	1.477650	-0.236398	0.351395
H78	H	1.977650	0.263602	0.851395
H79	H	1.628189	0.030821	0.698742
H80	H	2.128189	0.530821	1.198742
H81	H	1.628221	0.030832	0.825321
H82	H	2.128221	0.530832	1.325321
H83	H	1.055827	0.185502	0.072559
H84	H	1.555827	0.685502	0.572559
F85	F	1.649282	0.009814	1.025481
F86	F	2.149282	0.509814	1.525481
F87	F	1.301935	0.356964	0.911575
F88	F	1.801935	0.856964	1.411575
H89	H	1.322893	0.335910	0.417840
H90	H	1.822893	0.835910	0.917840
H91	H	1.322933	0.335929	0.725216
H92	H	1.822933	0.835929	1.225216
H93	H	1.100286	0.186653	0.302108
H94	H	1.600286	0.686653	0.802108
F95	F	0.834546	0.179669	0.097661
F96	F	1.334546	0.679669	0.597661
H97	H	0.895301	0.181256	0.351399
H98	H	1.395301	0.681256	0.851399
F99	F	1.301884	0.356938	0.604202
F100	F	1.801884	0.856938	1.104202
