data_functionalizedCrystal
_audit_creation_method	'MofGen! by Chris Wilmer'
_symmetry_space_group_name_H-M	'P1'
_symmetry_Int_Tables_number	1
_symmetry_cell_setting	triclinic
loop_
_symmetry_equiv_pos_as_xyz
  x,y,z
_cell_length_a	10.967926
_cell_length_b	26.210047
_cell_length_c	11.026607
_cell_angle_alpha	89.999771
_cell_angle_beta	96.380754
_cell_angle_gamma	77.887200
loop_
_atom_site_label
_atom_site_type_symbol
_atom_site_fract_x
_atom_site_fract_y
_atom_site_fract_z
O1	O	1.693901	-0.106511	0.170512
O2	O	1.334296	-0.074891	0.186835
O3	O	1.484295	-0.088082	0.001773
O4	O	1.543902	-0.093320	0.355575
O5	O	1.484234	-0.172935	0.001772
O6	O	1.334235	-0.159744	0.186834
O7	O	1.693840	-0.191364	0.170511
Cu8	Cu	1.514032	-0.183301	0.178673
Cu9	Cu	1.514104	-0.082953	0.178674
O10	O	1.543842	-0.178172	0.355574
C11	C	1.287513	-0.113207	0.185647
C12	C	1.148201	-0.100957	0.182094
N13	N	1.513991	-0.253882	0.178671
C14	C	1.086060	-0.139452	0.180509
C15	C	0.942073	-0.126793	0.176837
C16	C	1.606473	-0.614527	0.253072
C17	C	1.606510	-0.828189	0.253072
O18	O	1.685110	-0.862721	0.316316
N19	N	1.514131	-0.846788	0.178662
C20	C	1.421741	-0.811968	0.104241
O21	O	1.343175	-0.832691	0.040941
C22	C	1.421710	-0.598308	0.104236
C23	C	1.514088	-0.579711	0.178660
C24	C	1.698844	-0.595930	0.327489
C25	C	1.698830	-0.542517	0.327493
C26	C	1.606445	-0.507702	0.253081
C27	C	1.514074	-0.526299	0.178664
C28	C	1.329326	-0.563490	0.029809
C29	C	1.329329	-0.510072	0.029812
C30	C	1.421707	-0.491476	0.104236
C31	C	1.421675	-0.438071	0.104256
N32	N	1.514054	-0.419471	0.178666
C33	C	1.606439	-0.454287	0.253078
C34	C	1.421762	-0.924144	0.104250
C35	C	1.421768	-0.977558	0.104253
C36	C	1.606539	-0.993775	0.253083
C37	C	1.606527	-0.940359	0.253086
C38	C	1.514141	-0.905544	0.178660
C39	C	1.606402	-0.342116	0.253082
C40	C	1.606376	-0.288697	0.253084
C41	C	1.421610	-0.272485	0.104250
C42	C	1.421631	-0.325899	0.104253
C43	C	1.514037	-0.360714	0.178673
O44	O	1.343124	-0.403510	0.041034
O45	O	1.685009	-0.433555	0.316348
C46	C	1.606487	-0.667940	0.253068
C47	C	1.514116	-0.686537	0.178651
C48	C	1.421731	-0.651721	0.104238
C49	C	1.514122	-0.739952	0.178654
C50	C	1.606507	-0.774767	0.253066
C51	C	1.698887	-0.756168	0.327476
C52	C	1.698872	-0.702755	0.327480
C53	C	1.329352	-0.670321	0.029828
C54	C	1.329373	-0.723734	0.029831
C55	C	1.421758	-0.758549	0.104244
C56	C	1.740624	-0.153047	0.171699
C57	C	1.879936	-0.165293	0.175252
C58	C	1.473268	-0.129541	-0.043530
C59	C	1.440487	-0.126657	-0.178517
N60	N	1.514153	-0.012374	0.178666
C61	C	1.531001	-0.134615	-0.251570
C62	C	1.497122	-0.131634	-0.391086
C63	C	1.554868	-0.136713	0.400877
C64	C	1.587649	-0.139593	0.535863
H65	H	1.139455	-0.181781	0.181865
H66	H	1.394542	-0.122611	-0.431825
C67	C	0.951343	-0.221707	0.177130
C68	C	1.079963	-0.223050	0.180437
C69	C	1.145782	-0.275008	0.182182
H70	H	0.923704	-0.238332	0.105833
H71	H	0.936397	-0.239415	0.247388
H72	H	1.094901	-0.205350	0.110186
H73	H	1.107638	-0.206436	0.251730
H74	H	1.130836	-0.292716	0.252441
H75	H	1.118133	-0.291629	0.110884
H76	H	1.233058	-0.275927	0.184438
C77	C	0.871115	-0.070312	0.174969
C78	C	0.956347	-0.037251	0.177115
C79	C	0.891024	0.014780	0.175381
H80	H	0.826423	-0.064415	0.244421
H81	H	0.813690	-0.063339	0.102865
H82	H	1.013749	-0.044222	0.249212
H83	H	1.001042	-0.043132	0.107668
H84	H	0.833599	0.021754	0.103276
H85	H	0.846334	0.020673	0.244834
H86	H	0.948842	0.037219	0.176825
H87	H	1.681602	-0.273559	0.313694
H88	H	1.094805	-0.058628	0.180729
H89	H	1.681648	-0.370456	0.313681
H90	H	1.690230	-0.148575	-0.423399
H91	H	1.774058	-0.527382	0.388092
C92	C	1.799224	-0.633638	0.408425
C93	C	1.880086	-0.605905	0.473607
C94	C	1.972560	-0.640619	0.548202
H95	H	1.845721	-0.658560	0.359262
H96	H	1.760599	-0.651070	0.463994
H97	H	1.918708	-0.588481	0.418044
H98	H	1.833625	-0.580985	0.522793
H99	H	1.933935	-0.658052	0.603771
H100	H	2.019047	-0.665540	0.499029
H101	H	2.027429	-0.621808	0.592445
C102	C	1.706972	-0.920276	0.333922
C103	C	1.787889	-0.962206	0.399065
C104	C	1.880449	-0.943730	0.473532
H105	H	1.668466	-0.896055	0.389523
H106	H	1.753396	-0.903528	0.284636
H107	H	1.741471	-0.978946	0.448347
H108	H	1.826425	-0.986431	0.343494
H109	H	1.926873	-0.926982	0.424246
H110	H	1.841931	-0.919510	0.529126
H111	H	1.935368	-0.972177	0.517732
H112	H	1.681759	-1.022131	0.313677
H113	H	1.346533	-0.992693	0.043664
H114	H	1.774105	-0.784524	0.388072
H115	H	1.346526	-0.895801	0.043641
H116	H	1.254104	-0.578621	-0.030797
C117	C	1.228976	-0.472205	-0.050789
C118	C	1.160873	-0.435555	0.022170
C119	C	1.068428	-0.400662	-0.052033
H120	H	1.173844	-0.490866	-0.095129
H121	H	1.267604	-0.454728	-0.106268
H122	H	1.122246	-0.453031	0.077627
H123	H	1.215970	-0.416883	0.066509
H124	H	1.107056	-0.383184	-0.107512
H125	H	1.013305	-0.419326	-0.096370
H126	H	1.022216	-0.375788	-0.002542
H127	H	1.337913	-0.117634	-0.219262
H128	H	1.346397	-0.341039	0.043666
C129	C	1.321133	-0.234690	0.023619
C130	C	1.202679	-0.237268	0.056038
C131	C	1.110099	-0.202452	-0.018208
H132	H	1.325520	-0.243803	-0.059398
H133	H	1.334288	-0.200204	0.034299
H134	H	1.189528	-0.271746	0.045348
H135	H	1.198252	-0.228149	0.139043
H136	H	1.123254	-0.167967	-0.007528
H137	H	1.114497	-0.211569	-0.101221
H138	H	1.029719	-0.204193	0.003785
C139	C	1.229000	-0.743823	-0.051109
C140	C	1.148116	-0.701898	-0.116298
C141	C	1.055660	-0.720384	-0.190889
H142	H	1.182517	-0.760586	-0.001943
H143	H	1.267639	-0.768037	-0.106675
H144	H	1.109479	-0.677693	-0.060739
H145	H	1.194563	-0.685131	-0.165487
H146	H	1.094299	-0.744598	-0.246455
H147	H	1.009186	-0.737147	-0.141713
H148	H	1.000776	-0.691942	-0.235137
C149	C	1.229209	-0.632508	-0.051102
C150	C	1.286476	-0.606870	-0.132794
C151	C	1.194248	-0.572038	-0.207366
H152	H	1.182819	-0.607564	-0.001910
H153	H	1.174200	-0.651220	-0.095485
H154	H	1.341464	-0.588159	-0.088415
H155	H	1.332859	-0.631801	-0.182013
H156	H	1.139239	-0.590750	-0.251749
H157	H	1.147863	-0.547097	-0.158164
H158	H	1.233090	-0.554642	-0.262810
C159	C	1.667702	-0.146662	-0.197020
C160	C	1.674127	-0.147241	-0.069485
C161	C	1.800037	-0.158344	-0.019198
H162	H	1.708299	-0.120648	-0.223177
H163	H	1.708153	-0.179823	-0.223250
H164	H	1.633692	-0.114084	-0.043266
H165	H	1.633556	-0.173255	-0.043295
H166	H	1.840489	-0.191505	-0.045427
H167	H	1.840624	-0.132328	-0.045363
H168	H	1.804413	-0.158743	0.067339
H169	H	1.774096	-0.687619	0.388084
