data_functionalizedCrystal
_audit_creation_method	'MofGen! by Chris Wilmer'
_symmetry_space_group_name_H-M	'P1'
_symmetry_Int_Tables_number	1
_symmetry_cell_setting	triclinic
loop_
_symmetry_equiv_pos_as_xyz
  x,y,z
_cell_length_a	14.586319
_cell_length_b	10.654550
_cell_length_c	16.109301
_cell_angle_alpha	96.026808
_cell_angle_beta	89.994786
_cell_angle_gamma	90.007032
loop_
_atom_site_label
_atom_site_type_symbol
_atom_site_fract_x
_atom_site_fract_y
_atom_site_fract_z
O1	O	-0.076319	-1.666255	0.116773
O2	O	-0.076305	-1.300626	0.127898
O3	O	-0.076303	-1.493485	0.001364
O4	O	-0.076321	-1.473397	0.243307
O5	O	0.076178	-1.493472	0.001362
O6	O	0.076176	-1.300613	0.127896
O7	O	0.076162	-1.666242	0.116771
Cu8	Cu	0.090092	-1.483426	0.122333
Cu9	Cu	-0.090234	-1.483442	0.122336
O10	O	0.076160	-1.473383	0.243305
C11	C	-0.000062	-1.253832	0.127080
C12	C	-0.000056	-1.114422	0.124636
N13	N	0.216923	-1.483424	0.122331
N14	N	-0.217066	-1.483454	0.122331
C15	C	0.451931	-1.568850	0.066321
C16	C	0.547912	-1.568854	0.066319
C17	C	0.547920	-1.398019	0.178344
C18	C	0.451940	-1.398010	0.178341
C19	C	0.403948	-1.483433	0.122331
C20	C	0.595909	-1.483445	0.122332
C21	C	0.699976	-1.483448	0.122330
C22	C	0.299874	-1.483428	0.122331
C23	C	-0.000062	-1.492665	-0.029616
C24	C	-0.000061	-1.490225	-0.121926
C25	C	-0.000083	-1.713036	0.117589
C26	C	-0.000094	-1.852446	0.120033
C27	C	-0.000075	-1.033926	0.199138
C28	C	-0.000091	-0.902936	0.196836
C29	C	-0.000073	-0.932952	0.045526
C30	C	-0.000050	-1.063939	0.047828
C31	C	-0.000090	-1.016595	0.286496
C32	C	-0.000105	-0.885606	0.284194
C33	C	-0.000079	-1.598991	-0.343552
C34	C	-0.000087	-1.596689	-0.430286
C35	C	-0.000074	-1.367868	-0.411772
C36	C	-0.000073	-1.370172	-0.325040
C37	C	-0.000071	-1.485737	-0.290932
C38	C	-0.000080	-1.481131	-0.464399
C39	C	-0.000088	-1.478634	-0.558440
C40	C	-0.000065	-1.488234	-0.196885
C41	C	-0.000083	-1.474204	0.274286
C42	C	-0.000090	-1.476643	0.366595
H43	H	0.586977	-1.638407	0.020710
N44	N	-0.000063	-0.878490	-0.037310
H45	H	-0.056593	-0.824835	-0.041640
H46	H	-0.000011	-0.949429	-0.084111
N47	N	-0.000084	-1.723632	-0.306765
H48	H	-0.000078	-1.707910	-0.243836
H49	H	0.056440	-1.773182	-0.325977
N50	N	0.087078	-0.824599	0.319169
H51	H	0.118521	-0.780015	0.274717
H52	H	0.129154	-0.891530	0.337769
H53	H	0.587005	-1.328471	0.223948
N54	N	0.400188	-1.305865	0.238753
H55	H	0.416876	-1.320298	0.297853
H56	H	0.332119	-1.318860	0.230178
H57	H	-0.000074	-1.273779	-0.439553
N58	N	-0.000091	-1.718838	-0.487045
H59	H	-0.056615	-1.769264	-0.475990
H60	H	0.056472	-1.769148	-0.475978
H61	H	-0.000022	-1.129476	-0.012838
N62	N	-0.000071	-1.248014	-0.268277
H63	H	-0.000066	-1.174454	-0.303044
H64	H	0.056455	-1.243984	-0.231891
H65	H	0.063724	-1.045457	0.320660
N66	N	0.400166	-1.660978	0.005912
H67	H	0.445130	-1.715088	-0.029571
H68	H	0.360354	-1.612916	-0.031139
N69	N	-0.087292	-1.063350	0.323336
H70	H	-0.129441	-0.989596	0.339445
H71	H	-0.072067	-1.106603	0.374470
H72	H	-0.063926	-0.843432	0.317110
