data_functionalizedCrystal
_audit_creation_method	'MofGen! by Chris Wilmer'
_symmetry_space_group_name_H-M	'P1'
_symmetry_Int_Tables_number	1
_symmetry_cell_setting	triclinic
loop_
_symmetry_equiv_pos_as_xyz
  x,y,z
_cell_length_a	12.759401
_cell_length_b	12.759399
_cell_length_c	12.759393
_cell_angle_alpha	89.969094
_cell_angle_beta	89.979062
_cell_angle_gamma	90.016641
loop_
_atom_site_label
_atom_site_type_symbol
_atom_site_fract_x
_atom_site_fract_y
_atom_site_fract_z
Zn1	Zn	1.606263	-0.418173	-0.594017
Zn2	Zn	1.606153	-0.593888	-0.418336
Zn3	Zn	1.430562	-0.418229	-0.418352
Zn4	Zn	1.430553	-0.593815	-0.593973
O5	O	1.518383	-0.506026	-0.506170
O6	O	1.753270	-0.441489	-0.570724
O7	O	1.582818	-0.570641	-0.271317
O8	O	1.453919	-0.271200	-0.441680
O9	O	1.753189	-0.570587	-0.441652
O10	O	1.583006	-0.271159	-0.570740
O11	O	1.453812	-0.441584	-0.271329
O12	O	1.283540	-0.441513	-0.441637
O13	O	1.453903	-0.570461	-0.741000
O14	O	1.283533	-0.570516	-0.570665
O15	O	1.582997	-0.441418	-0.741032
O16	O	1.582809	-0.740900	-0.441609
O17	O	1.453796	-0.740846	-0.570649
C18	C	1.245415	-0.506013	-0.506149
C19	C	1.128639	-0.506033	-0.506165
C20	C	1.073801	-0.573307	-0.573244
C21	C	0.964077	-0.573311	-0.573265
C22	C	0.964038	-0.438764	-0.439118
C23	C	1.073760	-0.438756	-0.439104
C24	C	1.518318	-0.778994	-0.506146
C25	C	1.518387	-0.895770	-0.506171
C26	C	1.585641	-0.950625	-0.439056
C27	C	1.585708	-1.060349	-0.439091
C28	C	1.451259	-1.060353	-0.573359
C29	C	1.451198	-0.950631	-0.573328
C30	C	1.792416	-0.506040	-0.506191
C31	C	1.909193	-0.506046	-0.506200
C32	C	1.518461	-0.505925	-0.780203
C33	C	1.518495	-0.505882	-0.896980
C34	C	1.518476	-0.231993	-0.506217
C35	C	1.518516	-0.115216	-0.506237
C36	C	1.585719	-0.438679	-0.951860
C37	C	1.585737	-0.438633	-1.061584
C38	C	1.451303	-0.573004	-1.061538
C39	C	1.451281	-0.573044	-0.951816
C40	C	1.518365	-0.506051	-0.233202
C41	C	1.518535	-0.505798	-0.116426
H42	H	1.118411	-0.383967	-0.384480
H43	H	1.640352	-0.905960	-0.384374
O44	O	1.386102	-1.113602	-0.638736
C45	C	1.408977	-1.086669	-0.743460
H46	H	1.492890	-1.056431	-0.748830
H47	H	1.399941	-1.158793	-0.795375
H48	H	1.352600	-1.023006	-0.770858
H49	H	1.640474	-1.105007	-0.384441
O50	O	1.385924	-0.638283	-1.114645
C51	C	1.326604	-0.697626	-1.042674
H52	H	1.322962	-0.654618	-0.964469
H53	H	1.243830	-0.708821	-1.074363
H54	H	1.365049	-0.777424	-1.030992
H55	H	1.396432	-0.905965	-0.627986
H56	H	1.396532	-0.627768	-0.907131
O57	O	1.651034	-0.373335	-0.898754
C58	C	1.710388	-0.314028	-0.970728
H59	H	1.667371	-0.310362	-1.048934
H60	H	1.721617	-0.231261	-0.939044
H61	H	1.790171	-0.352500	-0.982404
H62	H	0.919432	-0.628090	-0.627889
O63	O	1.650937	-0.373383	-1.115057
C64	C	1.636562	-0.387759	-1.223660
H65	H	1.555474	-0.422159	-1.238626
H66	H	1.643720	-0.309044	-1.265370
H67	H	1.698867	-0.443695	-1.254805
O68	O	1.127064	-0.638537	-0.638543
C69	C	1.100288	-0.615716	-0.743295
H70	H	1.070147	-0.531792	-0.748745
H71	H	1.172468	-0.624821	-0.795177
H72	H	1.036600	-0.672079	-0.770670
O73	O	0.910565	-0.373515	-0.374010
C74	C	0.801962	-0.387928	-0.388424
H75	H	0.786974	-0.469052	-0.422688
H76	H	0.760223	-0.380703	-0.309748
H77	H	0.770868	-0.325683	-0.444491
