data_functionalizedCrystal
_audit_creation_method	'MofGen! by Chris Wilmer'
_symmetry_space_group_name_H-M	'P1'
_symmetry_Int_Tables_number	1
_symmetry_cell_setting	triclinic
loop_
_symmetry_equiv_pos_as_xyz
  x,y,z
_cell_length_a	19.288864
_cell_length_b	19.288859
_cell_length_c	13.448316
_cell_angle_alpha	89.992367
_cell_angle_beta	90.028391
_cell_angle_gamma	96.865013
loop_
_atom_site_label
_atom_site_type_symbol
_atom_site_fract_x
_atom_site_fract_y
_atom_site_fract_z
O1	O	-0.086629	0.921353	-0.082759
O2	O	0.413371	1.421353	0.417241
O3	O	-0.098322	0.719092	-0.082763
O4	O	0.401678	1.219092	0.417237
O5	O	0.008655	0.826067	-0.082699
O6	O	0.508655	1.326067	0.417301
O7	O	-0.193606	0.814378	-0.082822
O8	O	0.306394	1.314378	0.417178
O9	O	0.008661	0.826053	0.082685
O10	O	0.508661	1.326053	0.582685
O11	O	-0.098316	0.719078	0.082621
O12	O	0.401684	1.219078	0.582621
O13	O	-0.086622	0.921340	0.082625
O14	O	0.413378	1.421340	0.582625
Cu15	Cu	-0.092468	0.820208	0.097724
Cu16	Cu	0.407532	1.320208	0.597724
Cu17	Cu	-0.092476	0.820224	-0.097862
Cu18	Cu	0.407524	1.320224	0.402138
O19	O	-0.193599	0.814365	0.082562
O20	O	0.306401	1.314365	0.582562
C21	C	-0.097943	0.693209	-0.000070
C22	C	0.402057	1.193209	0.499930
C23	C	-0.096816	0.616105	-0.000069
C24	C	0.403184	1.116105	0.499931
C25	C	-0.151959	0.052064	-0.000104
C26	C	0.348041	0.552064	0.499896
C27	C	-0.153025	0.124511	-0.000110
C28	C	0.346975	0.624511	0.499890
C29	C	-0.090255	0.169217	-0.000069
C30	C	0.409745	0.669217	0.499931
C31	C	-0.026416	0.141472	-0.000049
C32	C	0.473584	0.641472	0.499951
C33	C	-0.025353	0.069027	-0.000053
C34	C	0.474647	0.569027	0.499947
C35	C	-0.043440	0.290483	0.057904
C36	C	0.456560	0.790483	0.557904
C37	C	-0.044506	0.362927	0.057914
C38	C	0.455494	0.862927	0.557914
C39	C	-0.093533	0.392663	-0.000061
C40	C	0.406467	0.892663	0.499939
C41	C	-0.141505	0.349946	-0.058034
C42	C	0.358495	0.849946	0.441966
C43	C	-0.140442	0.277500	-0.058038
C44	C	0.359558	0.777500	0.441962
C45	C	-0.091402	0.247773	-0.000066
C46	C	0.408598	0.747773	0.499934
C47	C	-0.158523	0.498955	-0.000095
C48	C	0.341477	0.998955	0.499905
C49	C	-0.159586	0.571403	-0.000107
C50	C	0.340414	1.071403	0.499893
C51	C	-0.032976	0.588364	-0.000037
C52	C	0.467024	1.088364	0.499963
C53	C	-0.031915	0.515917	-0.000035
C54	C	0.468085	1.015917	0.499965
C55	C	-0.094691	0.471216	-0.000059
C56	C	0.405309	0.971216	0.499941
C57	C	-0.219479	0.814747	-0.000146
C58	C	0.280521	1.314747	0.499854
C59	C	-0.296583	0.815876	-0.000193
C60	C	0.203417	1.315876	0.499807
C61	C	-0.341280	0.753108	-0.000175
C62	C	0.158720	1.253108	0.499825
C63	C	-0.413727	0.754169	-0.000152
C64	C	0.086273	1.254169	0.499848
C65	C	-0.441474	0.818001	-0.000129
C66	C	0.058526	1.318001	0.499871
C67	C	-0.396766	0.880778	-0.000153
C68	C	0.103234	1.380778	0.499847
C69	C	-0.324321	0.879715	-0.000185
C70	C	0.175679	1.379715	0.499815
C71	C	-0.549720	0.868176	0.057866
C72	C	-0.049720	1.368176	0.557866
C73	C	-0.622165	0.869236	0.057905
C74	C	-0.122165	1.369236	0.557905
C75	C	-0.664919	0.821281	-0.000033
C76	C	-0.164919	1.321281	0.499967
C77	C	-0.635222	0.772255	-0.057996
C78	C	-0.135222	1.272255	0.442004
C79	C	-0.562776	0.771192	-0.058029
C80	C	-0.062776	1.271192	0.441971
C81	C	-0.520028	0.819161	-0.000094
C82	C	-0.020028	1.319161	0.499906
C83	C	-0.788173	0.759659	0.000009
C84	C	-0.288173	1.259659	0.500009
C85	C	-0.860621	0.760722	0.000025
C86	C	-0.360621	1.260722	0.500025
C87	C	-0.843658	0.887333	0.000034
C88	C	-0.343658	1.387333	0.500034
C89	C	-0.771211	0.886267	0.000008
C90	C	-0.271211	1.386267	0.500008
C91	C	-0.743473	0.822429	0.000000
C92	C	-0.243473	1.322429	0.500000
C93	C	0.034535	0.825684	0.000006
C94	C	0.534535	1.325684	0.500006
C95	C	0.111638	0.824555	0.000047
C96	C	0.611638	1.324555	0.500047
C97	C	-0.087001	0.947223	-0.000069
C98	C	0.412999	1.447223	0.499931
C99	C	-0.088128	1.024327	-0.000078
C100	C	0.411872	1.524327	0.499922
N101	N	-0.092463	0.820202	0.235288
N102	N	0.407537	1.320202	0.735288
N103	N	-0.092476	0.820235	-0.235426
N104	N	0.407524	1.320235	0.264574
C105	C	-0.045112	0.867585	0.287357
C106	C	0.454888	1.367585	0.787357
C107	C	-0.045112	0.867589	0.391460
C108	C	0.454888	1.367589	0.891460
C109	C	-0.092465	0.820213	0.443493
C110	C	0.407535	1.320213	0.943493
C111	C	-0.139818	0.772825	0.391417
C112	C	0.360182	1.272825	0.891417
C113	C	-0.139814	0.772818	0.287316
C114	C	0.360186	1.272818	0.787316
C115	C	-0.139822	0.772844	0.608397
C116	C	0.360178	1.272844	1.108397
C117	C	-0.139827	0.772852	0.712506
C118	C	0.360173	1.272852	1.212506
C119	C	-0.045120	0.867616	0.712541
C120	C	0.454880	1.367616	1.212541
C121	C	-0.045116	0.867609	0.608440
C122	C	0.454884	1.367609	1.108440
C123	C	-0.092470	0.820221	0.556372
C124	C	0.407530	1.320221	1.056372
H125	H	-0.209639	0.462558	-0.000117
H126	H	0.290361	0.962558	0.499883
N127	N	0.034728	0.636572	-0.000004
N128	N	0.534728	1.136572	0.499996
H129	H	0.024370	0.686676	-0.000009
H130	H	0.524370	1.186676	0.499991
H131	H	0.062563	0.627608	0.061319
H132	H	0.562563	1.127608	0.561319
N133	N	-0.681326	0.720532	-0.120499
N134	N	-0.181326	1.220532	0.379501
H135	H	-0.667883	0.726825	-0.192800
H136	H	-0.167883	1.226825	0.307200
H137	H	-0.675237	0.671497	-0.098795
H138	H	-0.175237	1.171497	0.401205
N139	N	-0.426691	0.949625	-0.000119
N140	N	0.073309	1.449625	0.499881
H141	H	-0.410337	0.977108	0.061184
H142	H	0.089663	1.477108	0.561184
H143	H	-0.410404	0.977065	-0.061472
H144	H	0.089596	1.477065	0.438528
N145	N	0.041285	0.189689	0.000007
N146	N	0.541285	0.689689	0.500007
H147	H	0.081885	0.161122	0.000024
H148	H	0.581885	0.661122	0.500024
H149	H	0.043598	0.220127	-0.061296
H150	H	0.543598	0.720127	0.438704
N151	N	0.043496	0.039105	-0.000024
N152	N	0.543496	0.539105	0.499976
H153	H	0.083101	0.078417	-0.000003
H154	H	0.583101	0.578417	0.499997
H155	H	0.046699	0.009412	0.061288
H156	H	0.546699	0.509412	0.561288
H157	H	-0.318701	0.701126	-0.000190
H158	H	0.181299	1.201126	0.499810
H159	H	-0.866248	0.939306	-0.000019
H160	H	-0.366248	1.439306	0.499981
N161	N	-0.190905	0.721762	0.768631
N162	N	0.309095	1.221762	1.268631
H163	H	-0.220902	0.691739	0.719851
H164	H	0.279098	1.191739	1.219851
H165	H	-0.164395	0.691147	0.811863
H166	H	0.335605	1.191147	1.311863
H167	H	-0.179501	0.242723	-0.105244
H168	H	0.320499	0.742723	0.394756
H169	H	-0.006555	0.906172	0.433854
H170	H	0.493445	1.406172	0.933854
N171	N	-0.461957	0.686472	-0.000102
N172	N	0.038043	1.186472	0.499898
H173	H	-0.492435	0.684088	-0.061388
H174	H	0.007565	1.184088	0.438612
H175	H	-0.433351	0.645904	-0.000069
H176	H	0.066649	1.145904	0.499931
H177	H	-0.514914	0.907232	0.105045
H178	H	-0.014914	1.407232	0.605045
H179	H	-0.205005	0.147099	-0.000121
H180	H	0.294995	0.647099	0.499879
N181	N	0.005968	0.918671	0.231229
N182	N	0.505968	1.418671	0.731229
H183	H	-0.020489	0.949338	0.188000
H184	H	0.479511	1.449338	0.688000
H185	H	0.035959	0.948641	0.280068
H186	H	0.535959	1.448641	0.780068
N187	N	0.007230	0.408989	0.120451
N188	N	0.507230	0.908989	0.620451
H189	H	0.056284	0.402933	0.098840
H190	H	0.556284	0.902933	0.598840
H191	H	-0.000943	0.459375	0.111645
H192	H	0.499057	0.959375	0.611645
N193	N	-0.190886	0.721716	0.231147
N194	N	0.309114	1.221716	0.731147
H195	H	-0.164418	0.691046	0.187990
H196	H	0.335582	1.191046	0.687990
H197	H	-0.220875	0.691752	0.279964
H198	H	0.279125	1.191752	0.779964
H199	H	-0.178380	0.734254	0.566006
H200	H	0.321620	1.234254	1.066006
H201	H	-0.003513	0.266279	0.105117
H202	H	0.496487	0.766279	0.605117
N203	N	-0.530744	0.718313	-0.120530
N204	N	-0.030744	1.218313	0.379470
H205	H	-0.568817	0.688090	-0.157227
H206	H	-0.068817	1.188090	0.342773
H207	H	-0.497286	0.743430	-0.170034
H208	H	0.002714	1.243430	0.329966
H209	H	-0.287927	0.930830	-0.000202
H210	H	0.212073	1.430830	0.499798
H211	H	-0.006561	0.906189	0.566075
H212	H	0.493439	1.406189	1.066075
N213	N	0.005953	0.918735	0.768685
N214	N	0.505953	1.418735	1.268685
H215	H	0.036650	0.892308	0.811910
H216	H	0.536650	1.392308	1.311910
H217	H	0.035894	0.948734	0.719853
H218	H	0.535894	1.448734	1.219853
N219	N	-0.219664	0.003852	-0.000044
N220	N	0.280336	0.503852	0.499956
H221	H	-0.260263	0.032421	-0.000032
H222	H	0.239737	0.532421	0.499968
H223	H	-0.222032	-0.026599	-0.061328
H224	H	0.277968	0.473401	0.438672
N225	N	-0.194392	0.382006	-0.120566
N226	N	0.305608	0.882006	0.379434
H227	H	-0.187787	0.434381	-0.111772
H228	H	0.312213	0.934381	0.388228
H229	H	-0.187719	0.370217	-0.192834
H230	H	0.312281	0.870217	0.307166
N231	N	-0.758248	0.690809	-0.000005
N232	N	-0.258248	1.190809	0.499995
H233	H	-0.797561	0.651205	0.000002
H234	H	-0.297561	1.151205	0.500002
H235	H	-0.728590	0.687617	-0.061326
H236	H	-0.228590	1.187617	0.438674
H237	H	-0.897014	0.709607	0.000034
H238	H	-0.397014	1.209607	0.500034
N239	N	-0.190891	0.721730	0.447542
N240	N	0.309109	1.221730	0.947542
H241	H	-0.240168	0.729569	0.429382
H242	H	0.259832	1.229569	0.929382
H243	H	-0.182956	0.672481	0.429432
H244	H	0.317044	1.172481	0.929432
N245	N	-0.228436	0.601323	-0.000154
N246	N	0.271564	1.101323	0.499846
H247	H	-0.268039	0.562010	-0.000171
H248	H	0.231961	1.062010	0.499829
H249	H	-0.231631	0.631010	0.061151
H250	H	0.268369	1.131010	0.561151
H251	H	0.020063	0.493333	-0.000007
H252	H	0.520063	0.993333	0.499993
H253	H	-0.734817	0.937380	-0.000001
H254	H	-0.234817	1.437380	0.499999
H255	H	-0.646339	0.909153	0.105106
H256	H	-0.146339	1.409153	0.605106
