data_functionalizedCrystal
_audit_creation_method	'MofGen! by Chris Wilmer'
_symmetry_space_group_name_H-M	'P1'
_symmetry_Int_Tables_number	1
_symmetry_cell_setting	triclinic
loop_
_symmetry_equiv_pos_as_xyz
  x,y,z
_cell_length_a	12.594517
_cell_length_b	12.594516
_cell_length_c	12.594509
_cell_angle_alpha	90.026548
_cell_angle_beta	89.978673
_cell_angle_gamma	89.973469
loop_
_atom_site_label
_atom_site_type_symbol
_atom_site_fract_x
_atom_site_fract_y
_atom_site_fract_z
Zn1	Zn	1.627188	0.423716	-0.601872
Zn2	Zn	1.627046	0.601726	-0.423899
Zn3	Zn	1.449192	0.423761	-0.423901
Zn4	Zn	1.449141	0.601652	-0.601829
O5	O	1.538142	0.512714	-0.512876
O6	O	1.776115	0.447341	-0.578281
O7	O	1.603415	0.578169	-0.274954
O8	O	1.472884	0.274809	-0.447529
O9	O	1.776010	0.578124	-0.447525
O10	O	1.603657	0.274776	-0.578283
O11	O	1.472746	0.447419	-0.274955
O12	O	1.300239	0.447347	-0.447487
O13	O	1.472797	0.577998	-0.750781
O14	O	1.300202	0.578043	-0.578209
O15	O	1.603608	0.447269	-0.750813
O16	O	1.603365	0.750662	-0.447483
O17	O	1.472659	0.750608	-0.578207
C18	C	1.261601	0.512692	-0.512844
C19	C	1.143295	0.512709	-0.512856
C20	C	1.074032	0.441527	-0.441891
C21	C	1.003202	0.538615	-0.415714
C22	C	1.003325	0.415668	-0.539051
C23	C	1.074024	0.609849	-0.486628
C24	C	1.074153	0.486836	-0.610010
C25	C	1.003356	0.583991	-0.583870
C26	C	1.538020	0.789255	-0.512863
C27	C	1.538066	0.907560	-0.512894
C28	C	1.466955	0.976822	-0.583944
C29	C	1.441008	1.047688	-0.486821
C30	C	1.564070	1.047494	-0.610033
C31	C	1.512068	0.976867	-0.415719
C32	C	1.635175	0.976667	-0.538996
C33	C	1.609265	1.047500	-0.441806
C34	C	1.815762	0.512736	-0.512908
C35	C	1.934068	0.512745	-0.512921
C36	C	1.538213	0.512621	-0.790497
C37	C	1.538243	0.512581	-0.908802
C38	C	1.538246	1.235093	-0.512909
C39	C	1.538170	1.116787	-0.512920
C40	C	1.467118	0.583644	-0.978038
C41	C	1.564234	0.609650	-1.048829
C42	C	1.441203	0.486510	-1.048810
C43	C	1.635410	0.538638	-0.978035
C44	C	1.512314	0.415453	-0.978010
C45	C	1.609497	0.441422	-1.048769
C46	C	1.538132	0.512730	-0.236335
C47	C	1.538308	0.512470	-0.118030
H48	H	0.972214	0.333597	-0.561143
O49	O	1.590589	0.707585	-1.085830
C50	C	1.692241	0.735561	-1.048250
H51	H	1.710652	0.688500	-0.973179
H52	H	1.694161	0.824114	-1.029562
H53	H	1.754105	0.716693	-1.111619
O54	O	1.485789	0.940198	-0.317625
C55	C	1.467445	1.026792	-0.249030
H56	H	1.510563	1.099854	-0.280519
H57	H	1.498332	1.006850	-0.166334
H58	H	1.378611	1.043694	-0.244767
O59	O	0.966380	0.655819	-0.655489
C60	C	0.854441	0.654463	-0.655335
H61	H	0.825305	0.574796	-0.623818
H62	H	0.824028	0.666455	-0.739727
H63	H	0.823472	0.721040	-0.602340
H64	H	1.717526	0.560736	-0.947077
O65	O	1.681214	0.369543	-1.085633
C66	C	1.628480	0.292379	-1.147242
H67	H	1.541238	0.289198	-1.123309
H68	H	1.666586	0.211448	-1.133362
H69	H	1.634974	0.314093	-1.234869
H70	H	1.717230	0.945451	-0.561098
O71	O	1.486265	0.317518	-0.940810
C72	C	1.570651	0.277307	-0.879235
H73	H	1.647751	0.318058	-0.903431
H74	H	1.578147	0.188127	-0.892859
H75	H	1.554294	0.293219	-0.791625
H76	H	1.406728	0.945788	-0.643943
O77	O	0.966066	0.564576	-0.317669
C78	C	1.002088	0.489328	-0.243051
H79	H	1.022004	0.411874	-0.285503
H80	H	0.937279	0.474342	-0.181654
H81	H	1.076108	0.520920	-0.201656
O82	O	1.343190	0.460376	-1.085775
C83	C	1.268434	0.535586	-1.049759
H84	H	1.299924	0.576170	-0.975233
H85	H	1.190424	0.493862	-1.030679
H86	H	1.254504	0.597541	-1.114238
H87	H	1.358935	1.078907	-0.464765
O88	O	1.110884	0.369768	-0.370138
C89	C	1.024420	0.320125	-0.319257
H90	H	0.951504	0.373513	-0.324643
H91	H	1.044827	0.305687	-0.232274
H92	H	1.007011	0.241033	-0.359709
O93	O	1.111035	0.707793	-0.460259
C94	C	1.173416	0.747884	-0.544117
H95	H	1.204393	0.679150	-0.594270
H96	H	1.243277	0.794342	-0.510192
H97	H	1.123023	0.802579	-0.595699
O98	O	1.111320	0.460485	-0.707933
C99	C	1.075341	0.358056	-0.735223
H100	H	1.055420	0.312047	-0.659882
H101	H	1.140178	0.314443	-0.780981
H102	H	1.001333	0.364849	-0.786873
H103	H	1.669446	1.078339	-0.381662
H104	H	1.586023	1.078518	-0.692172
H105	H	1.407016	0.643833	-0.946982
