data_functionalizedCrystal
_audit_creation_method	'MofGen! by Chris Wilmer'
_symmetry_space_group_name_H-M	'P1'
_symmetry_Int_Tables_number	1
_symmetry_cell_setting	triclinic
loop_
_symmetry_equiv_pos_as_xyz
  x,y,z
_cell_length_a	8.597340
_cell_length_b	14.853567
_cell_length_c	13.930277
_cell_angle_alpha	89.998611
_cell_angle_beta	82.305271
_cell_angle_gamma	84.488815
loop_
_atom_site_label
_atom_site_type_symbol
_atom_site_fract_x
_atom_site_fract_y
_atom_site_fract_z
O1	O	2.082685	0.134564	-0.092446
O2	O	1.625785	0.144886	-0.054653
O3	O	1.866440	0.008594	-0.074556
O4	O	1.842031	0.270856	-0.072543
O5	O	1.866405	0.008597	-0.234215
O6	O	1.625750	0.144888	-0.214312
O7	O	2.082650	0.134567	-0.252105
Zn8	Zn	1.854195	0.139728	-0.258558
Zn9	Zn	1.854241	0.139725	-0.048200
O10	O	1.841996	0.270858	-0.232202
C11	C	1.567295	0.143778	-0.129646
C12	C	1.393066	0.140464	-0.115233
C13	C	1.865316	-0.025002	-0.154291
C14	C	1.862002	-0.125113	-0.154009
C15	C	1.705038	-0.538918	-0.141044
C16	C	1.990941	-0.557884	-0.164692
C17	C	1.994057	-0.463825	-0.164945
C18	C	1.852662	-0.407308	-0.153247
C19	C	1.708150	-0.444850	-0.141298
C20	C	2.138566	-0.426275	-0.176903
C21	C	2.141688	-0.332211	-0.177157
C22	C	2.000291	-0.275692	-0.165453
C23	C	1.855774	-0.313240	-0.153502
C24	C	1.714378	-0.256723	-0.141805
C25	C	1.569859	-0.294268	-0.129847
C26	C	1.566753	-0.388331	-0.129594
C27	C	2.003397	-0.181630	-0.165706
C28	C	1.717490	-0.162655	-0.142060
C29	C	2.141140	0.135674	-0.177110
C30	C	2.315370	0.138989	-0.191516
C31	C	1.843119	0.304455	-0.152464
C32	C	1.846433	0.404565	-0.152741
N33	N	1.854174	0.139730	-0.402122
C34	C	1.758881	0.084179	-0.444502
C35	C	1.949488	0.195277	-0.460249
C36	C	1.949508	0.195276	-0.560747
C37	C	1.854214	0.139725	-0.603126
C38	C	1.758901	0.084174	-0.545008
C39	C	2.044831	0.250819	-0.618873
C40	C	2.044856	0.250820	-0.719377
C41	C	1.949552	0.195273	-0.761757
C42	C	1.854234	0.139721	-0.703633
C43	C	1.758940	0.084169	-0.746012
C44	C	1.663612	0.028621	-0.687889
C45	C	1.663597	0.028627	-0.587389
C46	C	1.949567	0.195267	-0.862257
C47	C	1.758960	0.084165	-0.846519
N48	N	1.854273	0.139716	0.095363
H49	H	1.326286	0.139191	-0.038890
H50	H	1.681262	0.038955	-0.397173
Br51	Br	2.078947	0.270637	-0.941136
H52	H	1.382143	0.140255	-0.267854
H53	H	1.586031	-0.016612	-0.722408
Br54	Br	2.174165	0.326197	-0.561356
Br55	Br	1.525585	-0.085960	-0.126172
Br56	Br	2.078824	0.270655	-0.402735
Br57	Br	1.534238	-0.046753	-0.508503
H58	H	1.454735	-0.248240	-0.120330
H59	H	2.122476	0.296051	-0.766693
Br60	Br	2.330448	-0.502979	-0.192803
Br61	Br	1.370638	-0.439291	-0.113361
H62	H	2.106058	-0.603905	-0.174223
Br63	Br	1.508914	-0.589868	-0.124802
Br64	Br	2.337816	-0.281264	-0.193370
Br65	Br	2.199513	-0.130677	-0.181956
H66	H	1.681352	0.038932	-0.881016
