data_functionalizedCrystal
_audit_creation_method	'MofGen! by Chris Wilmer'
_symmetry_space_group_name_H-M	'P1'
_symmetry_Int_Tables_number	1
_symmetry_cell_setting	triclinic
loop_
_symmetry_equiv_pos_as_xyz
  x,y,z
_cell_length_a	29.839135
_cell_length_b	29.839131
_cell_length_c	13.032268
_cell_angle_alpha	97.140540
_cell_angle_beta	97.158781
_cell_angle_gamma	90.043950
loop_
_atom_site_label
_atom_site_type_symbol
_atom_site_fract_x
_atom_site_fract_y
_atom_site_fract_z
Zn1	Zn	0.654465	-0.211069	-0.590908
Zn2	Zn	0.663936	-0.276664	-0.416157
Zn3	Zn	0.588885	-0.201553	-0.416176
Zn4	Zn	0.579299	-0.286172	-0.590831
O5	O	0.621646	-0.243865	-0.503518
O6	O	0.718587	-0.219774	-0.567751
O7	O	0.661955	-0.258738	-0.269932
O8	O	0.597632	-0.139950	-0.439395
O9	O	0.725545	-0.267966	-0.439363
O10	O	0.645813	-0.146942	-0.567770
O11	O	0.606816	-0.203555	-0.269946
O12	O	0.524748	-0.212775	-0.439320
O13	O	0.581295	-0.284172	-0.737069
O14	O	0.517705	-0.274944	-0.567638
O15	O	0.636518	-0.228994	-0.737125
O16	O	0.652660	-0.340790	-0.439288
O17	O	0.590478	-0.347776	-0.567620
C18	C	0.504926	-0.243859	-0.503473
C19	C	0.454991	-0.243868	-0.503479
C20	C	0.141714	-0.218820	-0.570468
C21	C	-0.045961	-0.218825	-0.570498
O22	O	-0.073312	-0.197515	-0.627405
N23	N	-0.065798	-0.243867	-0.503556
C24	C	-0.038714	-0.268908	-0.436597
O25	O	-0.059892	-0.290204	-0.379652
C26	C	0.148961	-0.268900	-0.436563
C27	C	0.168795	-0.243860	-0.503517
C28	C	0.161549	-0.193781	-0.637416
C29	C	0.208465	-0.193782	-0.637412
C30	C	0.235546	-0.218822	-0.570460
C31	C	0.215711	-0.243861	-0.503513
C32	C	0.176044	-0.293938	-0.369600
C33	C	0.222966	-0.293933	-0.369595
C34	C	0.242800	-0.268893	-0.436549
C35	C	0.289707	-0.268902	-0.436557
N36	N	0.309545	-0.243859	-0.503499
C37	C	0.282464	-0.218819	-0.570451
C38	C	-0.137245	-0.268911	-0.436622
C39	C	-0.184164	-0.268913	-0.436631
C40	C	-0.191407	-0.218829	-0.570531
C41	C	-0.144489	-0.218830	-0.570526
C42	C	-0.117408	-0.243868	-0.503563
C43	C	0.380990	-0.218824	-0.570438
C44	C	0.427910	-0.218829	-0.570431
C45	C	0.435150	-0.268910	-0.436528
C46	C	0.388234	-0.268908	-0.436538
C47	C	0.361155	-0.243861	-0.503496
O48	O	0.317087	-0.290197	-0.379672
O49	O	0.303652	-0.197518	-0.627371
C50	C	0.094799	-0.218819	-0.570473
C51	C	0.074964	-0.243858	-0.503525
C52	C	0.102044	-0.268898	-0.436574
C53	C	0.028045	-0.243860	-0.503535
C54	C	0.000964	-0.218821	-0.570486
C55	C	0.020802	-0.193778	-0.637428
C56	C	0.067718	-0.193779	-0.637424
C57	C	0.082207	-0.293940	-0.369632
C58	C	0.035291	-0.293937	-0.369642
C59	C	0.008210	-0.268898	-0.436594
C60	C	0.621568	-0.360584	-0.503466
C61	C	0.621574	-0.410520	-0.503479
C62	C	0.654071	-0.716520	-0.436793
C63	C	0.654124	-0.904195	-0.436834
O64	O	0.681693	-0.925361	-0.380095
N65	N	0.621735	-0.931311	-0.503597
C66	C	0.589332	-0.911505	-0.570359
O67	O	0.561787	-0.938876	-0.627154
C68	C	0.589281	-0.723831	-0.570323
C69	C	0.621670	-0.696717	-0.503548
C70	C	0.686458	-0.689407	-0.370025
C71	C	0.686442	-0.642490	-0.370011
C72	C	0.654041	-0.622688	-0.436766
C73	C	0.621654	-0.649801	-0.503535
C74	C	0.556880	-0.704027	-0.637090
C75	C	0.556871	-0.657105	-0.637077
C76	C	0.589260	-0.629991	-0.570302
C77	C	0.589238	-0.583082	-0.570277
N78	N	0.621627	-0.555967	-0.503513
C79	C	0.654029	-0.575770	-0.436758
C80	C	0.589360	-1.010037	-0.570372
C81	C	0.589372	-1.056955	-0.570380
C82	C	0.654166	-1.049642	-0.436856
C83	C	0.654151	-1.002722	-0.436843
C84	C	0.621750	-0.982921	-0.503609
C85	C	0.653994	-0.477242	-0.436734
C86	C	0.653975	-0.430322	-0.436724
C87	C	0.589183	-0.437640	-0.570252
C88	C	0.589201	-0.484556	-0.570259
C89	C	0.621610	-0.504356	-0.503497
O90	O	0.561687	-0.561887	-0.626994
O91	O	0.681576	-0.548393	-0.379989
C92	C	0.654086	-0.763436	-0.436807
C93	C	0.621700	-0.790550	-0.503575
C94	C	0.589298	-0.770747	-0.570331
C95	C	0.621712	-0.837468	-0.503583
C96	C	0.654114	-0.857271	-0.436828
C97	C	0.686503	-0.830155	-0.370065
C98	C	0.686488	-0.783239	-0.370052
C99	C	0.556909	-0.797863	-0.637094
C100	C	0.556926	-0.844779	-0.637101
C101	C	0.589328	-0.864581	-0.570346
C102	C	0.738822	-0.243871	-0.503563
C103	C	0.788755	-0.243874	-0.503583
C104	C	0.606781	-0.258705	-0.776072
C105	C	0.600446	-0.265029	-0.892218
C106	C	0.621736	-0.126690	-0.503593
C107	C	0.621774	-0.076758	-0.503625
C108	C	0.624945	-0.240548	-0.944028
C109	C	0.618399	-0.247084	-1.064072
C110	C	0.636480	-0.229049	-0.232024
C111	C	0.642901	-0.222599	-0.115879
H112	H	0.372084	-0.289304	-0.382031
H113	H	0.712884	-0.846286	-0.315708
N114	N	0.568045	-0.297386	-0.948055
N115	N	0.536132	-0.284867	-1.008972
H116	H	0.513246	-0.307719	-1.048406
N117	N	-0.219075	-0.193257	-0.638933
N118	N	-0.248889	-0.212730	-0.705457
H119	H	-0.268431	-0.194668	-0.753761
H120	H	0.530486	-0.640986	-0.691450
N121	N	0.675304	-0.190239	-1.060049
N122	N	0.716100	-0.193878	-1.072167
H123	H	0.738984	-0.171025	-1.032736
N124	N	0.448162	-0.193249	-0.638837
N125	N	0.423974	-0.170894	-0.698608
H126	H	0.438275	-0.152828	-0.746918
H127	H	0.562974	-0.993918	-0.624742
H128	H	0.358948	-0.198427	-0.624958
H129	H	-0.001256	-0.173391	-0.691946
N130	N	0.687056	-0.402628	-0.368494
N131	N	0.689367	-0.402643	-0.272068
H132	H	0.712730	-0.383086	-0.223879
H133	H	0.224610	-0.173391	-0.691931
N134	N	0.657337	-0.208178	-0.888210
N135	N	0.653732	-0.167379	-0.900346
H136	H	0.676609	-0.144516	-0.860927
N137	N	0.586001	-0.279444	-1.119917
N138	N	0.580727	-0.284706	-1.217353
H139	H	0.557847	-0.307560	-1.256797
H140	H	0.457208	-0.289298	-0.382020
N141	N	0.133898	-0.168196	-0.705812
N142	N	0.151623	-0.145843	-0.765572
H143	H	0.132097	-0.127773	-0.813886
H144	H	-0.128343	-0.198438	-0.625043
N145	N	0.556121	-0.512253	-0.638478
N146	N	0.568281	-0.542028	-0.705117
H147	H	0.544920	-0.561587	-0.753307
N148	N	0.687259	-1.069881	-0.368668
N149	N	0.687261	-1.111773	-0.368694
H150	H	0.710633	-1.126070	-0.320543
N151	N	-0.204415	-0.294502	-0.368249
N152	N	-0.180225	-0.316856	-0.308480
H153	H	-0.194525	-0.334928	-0.260179
H154	H	0.530524	-0.781743	-0.691455
H155	H	-0.115200	-0.289302	-0.382090
N156	N	0.109859	-0.319520	-0.301229
N157	N	0.092136	-0.341875	-0.241468
H158	H	0.111663	-0.359944	-0.193157
H159	H	0.159904	-0.314328	-0.315078
H160	H	0.712845	-0.705525	-0.315664
N161	N	0.250629	-0.319503	-0.301179
N162	N	0.250639	-0.311205	-0.204772
H163	H	0.270175	-0.329263	-0.156452
N164	N	0.087967	-0.168199	-0.705826
N165	N	0.063775	-0.145847	-0.765594
H166	H	0.078073	-0.127779	-0.813907
N167	N	0.687242	-0.975029	-0.368653
N168	N	0.713844	-0.950821	-0.405476
H169	H	0.737216	-0.931263	-0.357316
N170	N	0.719569	-0.755549	-0.301826
N171	N	0.721879	-0.755565	-0.205401
H172	H	0.745244	-0.736012	-0.157210
H173	H	0.562801	-0.421509	-0.624600
H174	H	0.019146	-0.314333	-0.315122
N175	N	0.687101	-0.497456	-0.368531
N176	N	0.716012	-0.473235	-0.308923
H177	H	0.739392	-0.487509	-0.260748
N178	N	0.523833	-0.872471	-0.705299
N179	N	0.482762	-0.866893	-0.698276
H180	H	0.459392	-0.886450	-0.746443
N181	N	0.719531	-0.614805	-0.301796
N182	N	0.748457	-0.632500	-0.242206
H183	H	0.771828	-0.612950	-0.194027
N184	N	0.556278	-1.084640	-0.638579
N185	N	0.527352	-1.066948	-0.698173
H186	H	0.503979	-1.086499	-0.746344
N187	N	0.523792	-0.731708	-0.705307
N188	N	0.494870	-0.714012	-0.764904
H189	H	0.471499	-0.733562	-0.813088
