data_functionalizedCrystal
_audit_creation_method	'MofGen! by Chris Wilmer'
_symmetry_space_group_name_H-M	'P1'
_symmetry_Int_Tables_number	1
_symmetry_cell_setting	triclinic
loop_
_symmetry_equiv_pos_as_xyz
  x,y,z
_cell_length_a	17.038272
_cell_length_b	15.995350
_cell_length_c	15.072220
_cell_angle_alpha	89.998899
_cell_angle_beta	89.989222
_cell_angle_gamma	92.698035
loop_
_atom_site_label
_atom_site_type_symbol
_atom_site_fract_x
_atom_site_fract_y
_atom_site_fract_z
O1	O	1.037421	-0.181819	-0.073740
O2	O	1.537421	0.318181	0.426260
O3	O	0.809790	-0.178931	-0.073749
O4	O	1.309790	0.321069	0.426251
O5	O	0.929828	-0.058931	-0.073744
O6	O	1.429828	0.441069	0.426256
O7	O	0.917383	-0.301819	-0.073746
O8	O	1.417383	0.198181	0.426254
O9	O	0.929798	-0.058936	0.073822
O10	O	1.429798	0.441064	0.573822
O11	O	0.809760	-0.178936	0.073816
O12	O	1.309760	0.321064	0.573816
O13	O	1.037391	-0.181824	0.073825
O14	O	1.537391	0.318176	0.573825
Zn15	Zn	0.923571	-0.180381	0.097250
Zn16	Zn	1.423571	0.319619	0.597250
Zn17	Zn	0.923610	-0.180374	-0.097174
Zn18	Zn	1.423610	0.319626	0.402826
O19	O	0.917353	-0.301824	0.073819
O20	O	1.417353	0.198176	0.573819
C21	C	0.780646	-0.176308	0.000032
C22	C	1.280646	0.323692	0.500032
C23	C	0.693851	-0.168474	0.000028
C24	C	1.193851	0.331526	0.500028
C25	C	0.929298	-0.027702	0.000037
C26	C	1.429298	0.472298	0.500037
C27	C	0.927756	0.065359	0.000032
C28	C	1.427756	0.565359	0.500032
C29	C	1.066535	-0.184447	0.000042
C30	C	1.566535	0.315553	0.500042
C31	C	1.153330	-0.192281	0.000040
C32	C	1.653330	0.307719	0.500040
C33	C	1.203426	-0.120353	0.000038
C34	C	1.703426	0.379647	0.500038
C35	C	1.284979	-0.127719	0.000041
C36	C	1.784979	0.372281	0.500041
C37	C	1.316433	-0.207014	0.000040
C38	C	1.816433	0.292986	0.500040
C39	C	1.266330	-0.278948	0.000045
C40	C	1.766330	0.221052	0.500045
C41	C	1.184779	-0.271581	0.000048
C42	C	1.684779	0.228419	0.500048
C43	C	1.562197	-0.233041	0.000036
C44	C	2.062197	0.266959	0.500036
C45	C	1.643754	-0.240402	0.000030
C46	C	2.143754	0.259598	0.500030
C47	C	1.662398	-0.089172	0.000028
C48	C	2.162398	0.410828	0.500028
C49	C	1.580844	-0.081812	0.000026
C50	C	2.080844	0.418188	0.500026
C51	C	1.530749	-0.153746	0.000035
C52	C	2.030749	0.346254	0.500035
C53	C	1.399792	-0.214546	0.000040
C54	C	1.899792	0.285454	0.500040
C55	C	1.447391	-0.146214	0.000041
C56	C	1.947391	0.353786	0.500041
C57	C	0.917883	-0.333053	0.000037
C58	C	1.417883	0.166947	0.500037
C59	C	0.919425	-0.426114	0.000036
C60	C	1.419425	0.073886	0.500036
N61	N	0.923550	-0.180385	0.229938
N62	N	1.423550	0.319615	0.729938
C63	C	0.922217	0.403501	0.000035
C64	C	1.422217	0.903501	0.500035
C65	C	0.836728	0.362156	-0.000300
C66	C	1.336728	0.862156	0.499700
C67	C	0.838270	0.265356	0.000033
C68	C	1.338270	0.765356	0.500033
C69	C	0.924964	0.235744	0.000033
C70	C	1.424964	0.735744	0.500033
C71	C	0.967114	0.273815	0.084300
C72	C	1.467114	0.773815	0.584300
C73	C	0.964966	0.370604	0.084371
C74	C	1.464966	0.870604	0.584371
C75	C	0.966766	0.370842	-0.083438
C76	C	1.466766	0.870842	0.416562
C77	C	0.966746	0.273898	-0.084552
C78	C	1.466746	0.773898	0.415448
C79	C	0.926522	0.140936	0.000035
C80	C	1.426522	0.640936	0.500035
C81	C	0.920662	0.498309	0.000039
C82	C	1.420662	0.998309	0.500039
N83	N	0.923637	-0.180364	-0.229863
N84	N	1.423637	0.319636	0.270137
C85	C	0.923608	-0.180371	0.589140
C86	C	1.423608	0.319629	1.089140
C87	C	0.859163	-0.244335	0.551530
C88	C	1.359163	0.255665	1.051530
C89	C	0.859310	-0.244596	0.448704
C90	C	1.359310	0.255404	0.948704
C91	C	0.923579	-0.180378	0.410936
C92	C	1.423579	0.319622	0.910936
C93	C	1.005158	-0.205271	0.448230
C94	C	1.505158	0.294729	0.948230
C95	C	1.004797	-0.205732	0.551088
C96	C	1.504797	0.294268	1.051088
C97	C	0.907202	-0.091363	0.551240
C98	C	1.407202	0.408637	1.051240
C99	C	0.905331	-0.091815	0.448377
C100	C	1.405331	0.408185	0.948377
C101	C	0.923567	-0.180381	0.310222
C102	C	1.423567	0.319619	0.810222
C103	C	0.923625	-0.180370	0.689853
C104	C	1.423625	0.319630	1.189853
H105	H	1.177823	-0.055782	0.000033
H106	H	1.677823	0.444218	0.500033
Cl107	Cl	1.065448	0.245004	0.089144
Cl108	Cl	1.565448	0.745004	0.589144
Cl109	Cl	1.305873	-0.378635	0.000045
Cl110	Cl	1.805873	0.121365	0.500045
H111	H	1.555241	-0.017241	0.000027
H112	H	2.055241	0.482759	0.500027
Cl113	Cl	0.786731	0.225995	0.093449
Cl114	Cl	1.286731	0.725995	0.593449
Cl115	Cl	0.784042	0.396513	0.092201
Cl116	Cl	1.284042	0.896513	0.592201
H117	H	1.143991	-0.330154	0.000053
H118	H	1.643991	0.169846	0.500053
H119	H	0.798327	-0.228819	0.576289
H120	H	1.298327	0.271181	1.076289
H121	H	1.669361	-0.304977	0.000042
H122	H	2.169361	0.195023	0.500042
Cl123	Cl	1.064079	0.412948	-0.084316
Cl124	Cl	1.564079	0.912948	0.415684
Cl125	Cl	1.064356	0.243225	-0.092414
Cl126	Cl	1.564356	0.743225	0.407586
H127	H	1.325765	-0.069147	0.000043
H128	H	1.825765	0.430853	0.500043
H129	H	1.421777	-0.081652	0.000032
H130	H	1.921777	0.418348	0.500032
Cl131	Cl	1.439342	-0.314229	0.000029
Cl132	Cl	1.939342	0.185771	0.500029
H133	H	0.949221	-0.041536	0.422670
H134	H	1.449221	0.458464	0.922670
Cl135	Cl	0.979760	-0.017766	0.588790
Cl136	Cl	1.479760	0.482234	1.088790
H137	H	1.019254	-0.270823	0.575070
H138	H	1.519254	0.229177	1.075070
H139	H	0.845320	-0.073059	0.424002
H140	H	1.345320	0.426941	0.924002
H141	H	1.703194	-0.030608	0.000021
H142	H	2.203194	0.469392	0.500021
H143	H	1.521419	-0.291615	0.000040
H144	H	2.021419	0.208385	0.500040
Cl145	Cl	1.080971	-0.135632	0.410462
Cl146	Cl	1.580971	0.364368	0.910462
Cl147	Cl	0.765673	-0.220428	0.409773
Cl148	Cl	1.265673	0.279572	0.909773
H149	H	0.805137	0.239297	-0.060373
H150	H	1.305137	0.739297	0.439627
Cl151	Cl	1.080990	-0.136920	0.589502
Cl152	Cl	1.580990	0.363080	1.089502
Cl153	Cl	0.783987	0.394527	-0.093599
Cl154	Cl	1.283987	0.894527	0.406401
H155	H	0.935929	0.248848	-0.146891
H156	H	1.435929	0.748848	0.353109
H157	H	0.869494	-0.309888	0.577368
H158	H	1.369494	0.190112	1.077368
Cl159	Cl	0.875454	-0.346395	0.410695
Cl160	Cl	1.375454	0.153605	0.910695
Cl161	Cl	1.028015	-0.304676	0.408449
Cl162	Cl	1.528015	0.195324	0.908449
H163	H	0.934206	0.391094	0.147362
H164	H	1.434206	0.891094	0.647362
Cl165	Cl	1.061865	0.413494	0.090287
Cl166	Cl	1.561865	0.913494	0.590287
Cl167	Cl	0.921879	0.233219	0.181120
Cl168	Cl	1.421879	0.733219	0.681120
H169	H	0.938828	0.393375	-0.147308
H170	H	1.438828	0.893375	0.352692
Cl171	Cl	0.817337	-0.056648	0.591332
Cl172	Cl	1.317337	0.443352	1.091332
