data_functionalizedCrystal
_audit_creation_method	'MofGen! by Chris Wilmer'
_symmetry_space_group_name_H-M	'P1'
_symmetry_Int_Tables_number	1
_symmetry_cell_setting	triclinic
loop_
_symmetry_equiv_pos_as_xyz
  x,y,z
_cell_length_a	20.016444
_cell_length_b	14.560438
_cell_length_c	14.560438
_cell_angle_alpha	89.999908
_cell_angle_beta	59.999887
_cell_angle_gamma	60.002988
loop_
_atom_site_label
_atom_site_type_symbol
_atom_site_fract_x
_atom_site_fract_y
_atom_site_fract_z
Zr1	Zr	0.731260	-0.120483	0.884755
O2	O	0.870629	-0.267118	0.738111
O3	O	0.591888	-0.075538	0.929709
O4	O	0.731259	-0.267129	0.929712
O5	O	0.731260	0.075612	0.738108
O6	O	0.731261	-0.267131	1.080850
O7	O	0.731258	-0.075526	0.738109
O8	O	0.481953	0.075591	1.080846
O9	O	0.980568	-0.267110	0.738112
O10	O	0.649216	-0.056362	1.061675
O11	O	0.649216	0.056432	0.948881
O12	O	0.813307	-0.169143	0.948884
O13	O	0.813307	-0.056349	0.836090
Zr14	Zr	0.731266	0.120563	1.125801
Zr15	Zr	0.731263	-0.120485	1.125803
Zr16	Zr	0.731263	0.120566	0.884753
Zr17	Zr	0.906601	-0.120470	0.884756
Zr18	Zr	0.555925	0.120551	1.125800
O19	O	0.870638	0.075618	1.080847
O20	O	0.870633	-0.267121	1.080850
O21	O	0.870633	0.075622	0.738108
O22	O	0.591897	0.267198	1.272445
O23	O	0.591893	-0.075541	1.272448
O24	O	0.591892	0.267202	0.929706
O25	O	0.731266	-0.075532	1.272449
O26	O	0.731267	0.267210	1.080845
O27	O	0.731265	0.267211	0.929707
O28	O	0.731267	0.075607	1.272447
O29	O	0.980571	-0.267112	0.929712
O30	O	0.481955	0.267192	1.080844
O31	O	0.481958	0.267191	1.272445
O32	O	0.481955	0.075589	1.272447
O33	O	0.980571	-0.075509	0.738110
O34	O	0.980573	-0.075511	0.929711
O35	O	0.649219	0.169223	1.061673
O36	O	0.649219	0.056429	1.174466
O37	O	0.813310	-0.056351	1.061675
O38	O	0.813310	0.056443	0.948882
C39	C	0.511938	0.000025	1.005277
C40	C	0.437501	0.000020	1.005277
C41	C	0.731259	0.000043	0.703764
C42	C	0.731257	0.000044	0.601433
C43	C	0.731267	0.301555	1.005275
C44	C	0.731268	0.403886	1.005274
C45	C	0.266231	-0.058839	1.064158
C46	C	0.196284	-0.058830	1.064161
C47	C	0.196297	0.058926	0.946396
C48	C	0.266239	0.058924	0.946400
C49	C	0.301207	0.000034	1.005279
C50	C	0.161318	0.000046	1.005278
C51	C	0.085478	0.000056	1.005281
C52	C	0.377051	0.000026	1.005277
C53	C	0.950588	0.000055	1.005279
C54	C	1.025025	0.000061	1.005279
C55	C	0.731259	-0.301474	1.005281
C56	C	0.731258	-0.403805	1.005282
C57	C	0.816920	0.393094	0.946404
C58	C	0.816915	0.489249	0.946404
C59	C	0.645599	0.606984	1.064154
C60	C	0.645605	0.510830	1.064147
C61	C	0.915828	0.325121	0.878426
C62	C	0.915823	0.421276	0.878426
C63	C	0.731257	0.083310	0.553361
C64	C	0.731266	0.083304	0.457203
C65	C	0.731272	-0.083238	0.457200
C66	C	0.731270	-0.083236	0.553352
C67	C	0.731249	0.179465	0.553364
C68	C	0.731258	0.179459	0.457206
C69	C	0.731267	0.000037	1.306792
C70	C	0.731268	0.000036	1.409123
C71	C	0.511942	0.000022	1.306792
C72	C	0.437507	0.000016	1.409122
C73	C	0.511942	0.301539	1.005275
C74	C	0.437506	0.403866	1.005273
C75	C	0.511946	0.301536	1.306789
C76	C	0.437512	0.403861	1.409119
C77	C	0.950580	-0.301456	0.703768
C78	C	1.025014	-0.403781	0.601438
C79	C	0.950584	0.000058	0.703765
C80	C	1.025019	0.000065	0.601434
C81	C	0.950584	-0.301459	1.005282
C82	C	1.025020	-0.403785	1.005283
C83	C	0.402550	-0.058873	1.398302
C84	C	0.332619	-0.058901	1.494444
C85	C	0.297643	-0.000033	1.601404
C86	C	0.332607	0.058857	1.612223
C87	C	0.402541	0.058878	1.516082
C88	C	0.402552	0.510805	1.064149
C89	C	0.332622	0.606961	1.064143
C90	C	0.297642	0.596174	1.005269
C91	C	0.332603	0.489223	0.946386
C92	C	0.402537	0.393070	0.946385
C93	C	0.402557	0.393037	1.516061
C94	C	0.332628	0.489173	1.612220
C95	C	0.297650	0.596132	1.601434
C96	C	0.332612	0.606955	1.494480
C97	C	0.402545	0.510820	1.398324
C98	C	1.059978	-0.392957	0.494495
C99	C	1.129928	-0.489093	0.398336
C100	C	1.164910	-0.596052	0.409122
C101	C	1.129943	-0.606874	0.516076
C102	C	1.059998	-0.510739	0.612232
C103	C	1.059984	0.058944	0.612254
C104	C	1.129933	0.058945	0.516113
C105	C	1.164912	0.000074	0.409152
C106	C	1.129945	-0.058812	0.398334
C107	C	1.060001	-0.058820	0.494474
C108	C	1.059977	-0.392962	1.064169
C109	C	1.129908	-0.489099	1.064193
C110	C	1.164885	-0.596058	1.005322
C111	C	1.129920	-0.606878	0.946434
C112	C	1.059986	-0.510742	0.946418
H113	H	0.294700	-0.106788	1.112102
H114	H	0.799107	0.162667	0.380751
H115	H	1.158368	-0.480267	1.112145
H116	H	0.430996	0.519649	1.311250
H117	H	1.031532	-0.519566	0.699307
H118	H	1.221863	-0.674322	0.330816
H119	H	0.946526	0.429999	0.791371
H120	H	1.221830	-0.674329	1.005344
H121	H	0.167818	0.106870	0.898459
H122	H	1.031531	-0.519570	0.898461
H123	H	0.431027	-0.106824	1.311218
H124	H	0.304123	0.694054	1.485715
H125	H	0.663393	0.255916	0.629827
H126	H	0.431025	0.519609	1.112092
H127	H	1.158434	-0.693972	0.524845
H128	H	0.304169	0.480342	1.699298
H129	H	1.158409	-0.693977	0.898503
H130	H	0.304160	-0.106857	1.485613
H131	H	0.240697	-0.000059	1.679679
H132	H	0.294715	0.106870	0.898453
H133	H	0.665499	0.261569	0.476308
H134	H	1.158386	-0.480259	0.311259
H135	H	0.430988	0.305999	0.898446
H136	H	0.167807	-0.106768	1.112108
H137	H	0.431025	0.305954	1.524865
H138	H	0.240706	0.674403	1.679740
H139	H	0.953796	0.421273	0.916251
H140	H	0.731282	-0.151046	0.592483
H141	H	1.031510	-0.305880	1.112109
H142	H	0.575859	0.519626	1.112073
H143	H	0.304119	0.106785	1.699323
H144	H	0.304165	0.694035	1.112097
H145	H	0.575856	0.694068	1.112084
H146	H	0.953808	0.272930	0.788397
H147	H	0.731283	-0.151043	0.418042
H148	H	1.031509	0.106891	0.699339
H149	H	0.946515	0.274207	0.923288
H150	H	0.796987	0.171234	0.534273
H151	H	0.430994	0.106839	1.524908
H152	H	1.158392	0.106902	0.524943
H153	H	1.221865	0.000090	0.330877
H154	H	0.240698	0.674477	1.005278
H155	H	1.158436	-0.106744	0.311233
H156	H	1.031535	-0.106763	0.485648
H157	H	0.304112	0.480457	0.898451
H158	H	1.031500	-0.305874	0.485692
