data_functionalizedCrystal
_audit_creation_method	'MofGen! by Chris Wilmer'
_symmetry_space_group_name_H-M	'P1'
_symmetry_Int_Tables_number	1
_symmetry_cell_setting	triclinic
loop_
_symmetry_equiv_pos_as_xyz
  x,y,z
_cell_length_a	19.188930
_cell_length_b	13.330367
_cell_length_c	14.853559
_cell_angle_alpha	89.997552
_cell_angle_beta	83.388118
_cell_angle_gamma	89.978569
loop_
_atom_site_label
_atom_site_type_symbol
_atom_site_fract_x
_atom_site_fract_y
_atom_site_fract_z
O1	O	0.926521	-0.083741	0.112553
O2	O	0.723260	-0.083672	0.127704
O3	O	0.830323	-0.083707	-0.011132
O4	O	0.819458	-0.083706	0.251389
O5	O	0.830307	0.083140	-0.011135
O6	O	0.723244	0.083175	0.127701
O7	O	0.926505	0.083106	0.112550
Cu8	Cu	0.824873	0.098375	0.120125
Cu9	Cu	0.824892	-0.098941	0.120129
O10	O	0.819442	0.083141	0.251386
C11	C	0.697239	-0.000240	0.127212
C12	C	0.619730	-0.000213	0.125739
N13	N	0.824865	0.237156	0.120122
N14	N	0.824905	-0.237723	0.120125
C15	C	0.575076	-0.000228	0.207204
C16	C	0.502247	-0.000240	0.205820
C17	C	0.474076	-0.000255	0.122967
C18	C	0.518740	-0.000235	0.041492
C19	C	0.591567	-0.000213	0.042878
N20	N	0.365892	-0.057082	0.059637
N21	N	0.296709	-0.057104	0.058326
C22	C	0.254654	-0.000317	0.118786
N23	N	0.284394	0.056481	0.180620
N24	N	0.353583	0.056498	0.181934
C25	C	0.395109	-0.000278	0.121455
C26	C	0.131030	-0.000343	0.198756
C27	C	0.058201	-0.000347	0.197368
C28	C	0.074696	-0.000353	0.033038
C29	C	0.147523	-0.000338	0.034427
C30	C	0.175686	-0.000337	0.117289
C31	C	0.952526	-0.000329	0.113042
C32	C	1.030035	-0.000362	0.114515
C33	C	0.829824	-0.000286	-0.044720
C34	C	0.828352	-0.000291	-0.144796
C35	C	0.777482	0.709795	0.181581
C36	C	0.872320	0.709732	0.058669
C37	C	0.872312	0.604713	0.058666
C38	C	0.824889	0.552231	0.120123
C39	C	0.777474	0.604767	0.181582
C40	C	0.919731	0.552169	-0.002786
C41	C	0.919726	0.447145	-0.002791
C42	C	0.872299	0.394660	0.058663
C43	C	0.824881	0.447203	0.120124
C44	C	0.777458	0.394721	0.181580
C45	C	0.730037	0.447261	0.243038
C46	C	0.730047	0.552283	0.243035
C47	C	0.872288	0.289639	0.058665
C48	C	0.777450	0.289692	0.181581
C49	C	0.822115	-0.091237	-0.567934
C50	C	0.822098	0.090666	-0.567932
C51	C	0.823487	0.090667	-0.473907
C52	C	0.824189	-0.000286	-0.426891
C53	C	0.823502	-0.091240	-0.473900
C54	C	0.824167	0.181618	-0.426889
C55	C	0.825555	0.181622	-0.332858
C56	C	0.826262	0.090668	-0.285841
C57	C	0.825576	-0.000289	-0.332856
C58	C	0.826278	-0.091241	-0.285840
C59	C	0.825597	-0.182199	-0.332854
C60	C	0.824209	-0.182193	-0.426883
C61	C	0.827650	0.090662	-0.191812
C62	C	0.827665	-0.091244	-0.191805
C63	C	0.819941	-0.000283	0.284973
C64	C	0.821413	-0.000284	0.385049
H65	H	0.598001	-0.000230	0.274676
H66	H	0.153961	-0.000328	0.266226
O67	O	0.923466	0.766338	-0.007610
H68	H	0.977900	0.746147	0.003709
O69	O	0.044316	-0.000365	-0.056324
H70	H	0.062217	0.067649	-0.095450
O71	O	0.828422	-0.189349	-0.141102
H72	H	0.829503	-0.174074	-0.067819
H73	H	0.021843	-0.000354	0.263709
O74	O	0.488360	-0.000244	-0.047872
H75	H	0.506324	-0.068237	-0.087012
O76	O	0.726302	0.233086	0.247870
H77	H	0.693336	0.287267	0.290605
H78	H	0.691439	0.595068	0.293073
H79	H	0.821522	0.164716	-0.606218
H80	H	0.826163	-0.256253	-0.294560
H81	H	0.823654	-0.256246	-0.465170
O82	O	0.195689	-0.000333	-0.053442
H83	H	0.229232	0.067686	-0.056744
H84	H	0.691427	0.404518	0.293081
H85	H	0.738870	0.752576	0.231617
O86	O	0.970880	0.608769	-0.069067
H87	H	0.962912	0.690624	-0.058749
H88	H	0.821563	-0.165293	-0.606218
H89	H	0.465883	-0.000249	0.272160
O90	O	0.639737	-0.000202	-0.044990
H91	H	0.607917	-0.000217	-0.102839
H92	H	0.958338	0.404373	-0.052833
O93	O	0.923426	0.232966	-0.007614
H94	H	0.956402	0.287104	-0.050350
O95	O	0.823427	0.279714	-0.477597
H96	H	0.822364	0.264432	-0.550883
O97	O	0.826305	0.279719	-0.282153
H98	H	0.825591	0.342963	-0.330646
H99	H	0.828188	0.164719	-0.153534
