data_functionalizedCrystal
_audit_creation_method	'MofGen! by Chris Wilmer'
_symmetry_space_group_name_H-M	'P1'
_symmetry_Int_Tables_number	1
_symmetry_cell_setting	triclinic
loop_
_symmetry_equiv_pos_as_xyz
  x,y,z
_cell_length_a	15.944551
_cell_length_b	12.996460
_cell_length_c	14.519709
_cell_angle_alpha	89.992910
_cell_angle_beta	83.589442
_cell_angle_gamma	89.998907
loop_
_atom_site_label
_atom_site_type_symbol
_atom_site_fract_x
_atom_site_fract_y
_atom_site_fract_z
O1	O	1.114698	-0.085462	0.118943
O2	O	1.448031	0.247872	0.452277
O3	O	1.781365	0.581205	0.785610
O4	O	0.870170	-0.085488	0.133608
O5	O	1.203503	0.247846	0.466941
O6	O	1.536836	0.581179	0.800274
O7	O	0.998917	-0.085465	-0.007974
O8	O	1.332250	0.247869	0.325359
O9	O	1.665584	0.581202	0.658692
O10	O	0.985950	-0.085485	0.260525
O11	O	1.319284	0.247849	0.593859
O12	O	1.652617	0.581182	0.927192
O13	O	0.998904	0.085669	-0.007982
O14	O	1.332237	0.419002	0.325351
O15	O	1.665570	0.752336	0.658684
O16	O	0.870156	0.085646	0.133600
O17	O	1.203489	0.418980	0.466933
O18	O	1.536823	0.752313	0.800266
O19	O	1.114684	0.085672	0.118935
O20	O	1.448018	0.419005	0.452269
O21	O	1.781351	0.752339	0.785602
Cu22	Cu	0.992419	0.101285	0.126267
Cu23	Cu	1.325752	0.434618	0.459600
Cu24	Cu	1.659086	0.767952	0.792934
Cu25	Cu	0.992435	-0.101101	0.126276
Cu26	Cu	1.325768	0.232233	0.459609
Cu27	Cu	1.659102	0.565566	0.792943
O28	O	0.985937	0.085649	0.260517
O29	O	1.319270	0.418983	0.593851
O30	O	1.652604	0.752316	0.927184
C31	C	0.838868	0.000076	0.132995
C32	C	1.172201	0.333409	0.466328
C33	C	1.505535	0.666743	0.799661
C34	C	0.745619	0.000066	0.131170
C35	C	1.078953	0.333400	0.464503
C36	C	1.412286	0.666733	0.797836
N37	N	0.992414	0.243632	0.126260
N38	N	1.325747	0.576965	0.459593
N39	N	1.659081	0.910299	0.792926
N40	N	0.992447	-0.243448	0.126276
N41	N	1.325780	0.089886	0.459609
N42	N	1.659113	0.423219	0.792943
C43	C	0.530629	0.000093	0.039048
C44	C	0.863962	0.333427	0.372382
C45	C	1.197296	0.666760	0.705715
C46	C	0.469678	-0.084288	0.081830
C47	C	0.803011	0.249045	0.415164
C48	C	1.136344	0.582379	0.748497
C49	C	0.574889	0.000079	0.127868
C50	C	0.908222	0.333412	0.461201
C51	C	1.241555	0.666746	0.794535
C52	C	0.469687	0.084437	0.081844
C53	C	0.803020	0.417770	0.415177
C54	C	1.136353	0.751103	0.748510
C55	C	0.409971	0.000095	0.124672
C56	C	0.743305	0.333429	0.458005
C57	C	1.076638	0.666762	0.791339
C58	C	0.515165	-0.084372	0.170674
C59	C	0.848499	0.248961	0.504008
C60	C	1.181832	0.582295	0.837341
C61	C	0.515181	0.084428	0.170675
C62	C	0.848514	0.417762	0.504009
C63	C	1.181847	0.751095	0.837342
C64	C	0.454247	0.000027	0.213522
C65	C	0.787580	0.333360	0.546855
C66	C	1.120914	0.666693	0.880188
C67	C	0.669894	0.000069	0.129706
C68	C	1.003227	0.333402	0.463040
C69	C	1.336560	0.666735	0.796373
C70	C	0.314967	0.000098	0.122840
C71	C	0.648301	0.333432	0.456174
C72	C	0.981634	0.666765	0.789507
C73	C	1.145986	0.000106	0.119548
C74	C	1.479319	0.333439	0.452881
C75	C	1.812653	0.666773	0.786215
C76	C	1.239235	0.000109	0.121373
C77	C	1.572568	0.333442	0.454707
C78	C	1.905901	0.666776	0.788040
C79	C	0.998306	0.000102	-0.042337
C80	C	1.331639	0.333436	0.290996
C81	C	1.664973	0.666769	0.624330
C82	C	0.996495	0.000103	-0.144715
C83	C	1.329828	0.333436	0.188618
C84	C	1.663162	0.666769	0.521952
C85	C	0.992434	0.663446	0.126277
C86	C	1.325767	0.996780	0.459610
C87	C	1.659100	1.330113	0.792944
C88	C	0.992426	0.546641	0.126275
C89	C	1.325759	0.879975	0.459609
C90	C	1.659092	1.213308	0.792942
C91	C	0.992424	0.453543	0.126269
C92	C	1.325758	0.786876	0.459602
C93	C	1.659091	1.120210	0.792936
C94	C	0.992415	0.336730	0.126266
C95	C	1.325749	0.670064	0.459599
C96	C	1.659082	1.003397	0.792933
C97	C	0.989829	0.000075	-0.519599
C98	C	1.323162	0.333409	-0.186266
C99	C	1.656495	0.666742	0.147067
C100	C	0.991680	0.000083	-0.415295
C101	C	1.325013	0.333417	-0.081961
C102	C	1.658347	0.666750	0.251372
C103	C	0.993162	0.000090	-0.332161
C104	C	1.326495	0.333423	0.001173
C105	C	1.659828	0.666757	0.334506
C106	C	0.995013	0.000096	-0.227849
C107	C	1.328347	0.333429	0.105484
C108	C	1.661680	0.666763	0.438817
C109	C	0.986548	0.000080	0.294880
C110	C	1.319881	0.333413	0.628213
C111	C	1.653215	0.666747	0.961547
C112	C	0.988359	0.000073	0.397258
C113	C	1.321692	0.333406	0.730591
C114	C	1.655025	0.666739	1.063925
H115	H	0.449518	-0.155621	0.044266
H116	H	0.782852	0.177712	0.377600
H117	H	1.116185	0.511046	0.710933
H118	H	0.535213	-0.155788	0.208217
H119	H	0.868546	0.177546	0.541550
H120	H	1.201880	0.510879	0.874883
H121	H	0.449540	0.155772	0.044257
H122	H	0.782874	0.489105	0.377590
H123	H	1.116207	0.822439	0.710923
H124	H	0.563855	-0.000006	-0.034665
H125	H	0.897188	0.333328	0.298668
H126	H	1.230522	0.666661	0.632002
H127	H	0.421196	-0.000026	0.287311
H128	H	0.754529	0.333307	0.620644
H129	H	1.087862	0.666641	0.953978
H130	H	0.535361	0.155765	0.208208
H131	H	0.868694	0.489098	0.541541
H132	H	1.202028	0.822431	0.874875
