data_functionalizedCrystal
_audit_creation_method	'MofGen! by Chris Wilmer'
_symmetry_space_group_name_H-M	'P1'
_symmetry_Int_Tables_number	1
_symmetry_cell_setting	triclinic
loop_
_symmetry_equiv_pos_as_xyz
  x,y,z
_cell_length_a	10.654545
_cell_length_b	11.792254
_cell_length_c	9.730223
_cell_angle_alpha	89.995422
_cell_angle_beta	89.997167
_cell_angle_gamma	84.340838
loop_
_atom_site_label
_atom_site_type_symbol
_atom_site_fract_x
_atom_site_fract_y
_atom_site_fract_z
O1	O	1.667399	0.159394	-0.114277
O2	O	2.167399	0.659394	0.385723
O3	O	1.301878	0.174588	-0.114283
O4	O	1.801878	0.674588	0.385717
O5	O	1.493501	0.001842	-0.114270
O6	O	1.993501	0.501842	0.385730
O7	O	1.475777	0.332140	-0.114290
O8	O	1.975777	0.832140	0.385710
O9	O	1.493488	0.001837	0.114310
O10	O	1.993488	0.501837	0.614310
O11	O	1.301866	0.174583	0.114297
O12	O	1.801866	0.674583	0.614297
O13	O	1.667387	0.159390	0.114303
O14	O	2.167387	0.659390	0.614303
Zn15	Zn	1.484624	0.166986	0.150592
Zn16	Zn	1.984624	0.666986	0.650592
Zn17	Zn	1.484641	0.166992	-0.150572
Zn18	Zn	1.984641	0.666992	0.349428
O19	O	1.475765	0.332136	0.114290
O20	O	1.975765	0.832136	0.614290
C21	C	1.255077	0.173471	0.000007
C22	C	1.755077	0.673471	0.500007
C23	C	1.115643	0.170137	0.000005
C24	C	1.615643	0.670137	0.500005
C25	C	1.050136	0.168564	0.124604
C26	C	1.550136	0.668564	0.624604
C27	C	0.919125	0.165412	0.124605
C28	C	1.419125	0.665412	0.624605
C29	C	0.919139	0.165410	-0.124606
C30	C	1.419139	0.665410	0.375394
C31	C	1.050149	0.168554	-0.124605
C32	C	1.550149	0.668554	0.375395
C33	C	1.492378	-0.040454	0.000020
C34	C	1.992378	0.459546	0.500020
C35	C	1.489036	-0.166474	0.000018
C36	C	1.989036	0.333526	0.500018
C37	C	1.486321	-0.268817	0.000013
C38	C	1.986321	0.231183	0.500013
C39	C	1.482926	-0.397212	0.000001
C40	C	1.982926	0.102788	0.500001
C41	C	1.714188	0.160506	0.000011
C42	C	2.214188	0.660506	0.500011
C43	C	1.853623	0.163841	0.000004
C44	C	2.353623	0.663841	0.500004
C45	C	1.476887	0.374431	-0.000002
C46	C	1.976887	0.874431	0.499998
C47	C	1.480229	0.500452	-0.000010
C48	C	1.980229	1.000452	0.499990
N49	N	1.484622	0.166981	0.356128
N50	N	1.984622	0.666981	0.856128
N51	N	1.484653	0.166988	-0.356108
N52	N	1.984653	0.666988	0.143892
C53	C	1.569502	0.090521	0.428060
C54	C	2.069502	0.590521	0.928060
C55	C	1.569515	0.090522	0.571943
C56	C	2.069515	0.590522	1.071943
C57	C	1.399764	0.243451	0.571950
C58	C	1.899764	0.743451	1.071950
C59	C	1.399746	0.243444	0.428070
C60	C	1.899746	0.743444	0.928070
H61	H	0.865798	0.164122	-0.226058
H62	H	1.365798	0.664122	0.273942
N63	N	1.656133	0.012394	0.354527
N64	N	2.156133	0.512394	0.854527
N65	N	1.615733	-0.058369	0.274267
N66	N	2.115733	0.441631	0.774267
H67	H	1.676901	-0.113553	0.222319
H68	H	2.176901	0.386447	0.722319
H69	H	1.103457	0.169853	0.226069
H70	H	1.603457	0.669853	0.726069
H71	H	1.330661	0.305708	0.630539
H72	H	1.830661	0.805708	1.130539
H73	H	1.330621	0.305707	0.369499
H74	H	1.830621	0.805707	0.869499
N75	N	0.852232	0.163799	0.251893
N76	N	1.352232	0.663799	0.751893
N77	N	0.910731	0.165205	0.363134
N78	N	1.410731	0.665205	0.863134
H79	H	0.863490	0.164063	0.453039
H80	H	1.363490	0.664063	0.953039
N81	N	1.117053	0.170148	-0.251900
N82	N	1.617053	0.670148	0.248100
N83	N	1.058564	0.168740	-0.363147
N84	N	1.558564	0.668740	0.136853
H85	H	1.105816	0.169861	-0.453047
H86	H	1.605816	0.669861	0.046953
H87	H	1.638629	0.028260	0.630506
H88	H	2.138629	0.528260	1.130506
