data_functionalizedCrystal
_audit_creation_method	'MofGen! by Chris Wilmer'
_symmetry_space_group_name_H-M	'P1'
_symmetry_Int_Tables_number	1
_symmetry_cell_setting	triclinic
loop_
_symmetry_equiv_pos_as_xyz
  x,y,z
_cell_length_a	18.215407
_cell_length_b	25.639240
_cell_length_c	18.215399
_cell_angle_alpha	89.960373
_cell_angle_beta	89.985195
_cell_angle_gamma	90.027271
loop_
_atom_site_label
_atom_site_type_symbol
_atom_site_fract_x
_atom_site_fract_y
_atom_site_fract_z
Zn1	Zn	1.125010	-0.208220	-0.416029
Zn2	Zn	1.458343	0.125113	-0.082695
Zn3	Zn	1.791676	0.458446	0.250638
Zn4	Zn	1.124908	-0.295660	-0.292943
Zn5	Zn	1.458241	0.037673	0.040391
Zn6	Zn	1.791574	0.371007	0.373724
Zn7	Zn	1.001949	-0.208232	-0.292980
Zn8	Zn	1.335282	0.125101	0.040353
Zn9	Zn	1.668615	0.458435	0.373686
Zn10	Zn	1.001891	-0.295618	-0.415972
Zn11	Zn	1.335225	0.037715	-0.082638
Zn12	Zn	1.668558	0.371049	0.250695
O13	O	1.063439	-0.251933	-0.354481
O14	O	1.396773	0.081401	-0.021148
O15	O	1.730106	0.414734	0.312186
O16	O	1.227980	-0.219832	-0.399709
O17	O	1.561314	0.113501	-0.066376
O18	O	1.894647	0.446835	0.266958
O19	O	1.108578	-0.284085	-0.189963
O20	O	1.441912	0.049248	0.143370
O21	O	1.775245	0.382582	0.476703
O22	O	1.018340	-0.135065	-0.309343
O23	O	1.351673	0.198268	0.023991
O24	O	1.685007	0.531601	0.357324
O25	O	1.227906	-0.284074	-0.309278
O26	O	1.561239	0.049260	0.024055
O27	O	1.894572	0.382593	0.357389
O28	O	1.108752	-0.135057	-0.399746
O29	O	1.442086	0.198277	-0.066412
O30	O	1.775419	0.531610	0.266921
O31	O	1.018241	-0.219852	-0.189991
O32	O	1.351574	0.113481	0.143342
O33	O	1.684908	0.446815	0.476676
O34	O	0.898957	-0.219811	-0.309288
O35	O	1.232290	0.113522	0.024046
O36	O	1.565624	0.446855	0.357379
O37	O	1.018242	-0.284002	-0.518964
O38	O	1.351575	0.049331	-0.185630
O39	O	1.684909	0.382664	0.147703
O40	O	0.898915	-0.284014	-0.399649
O41	O	1.232248	0.049320	-0.066315
O42	O	1.565581	0.382653	0.267018
O43	O	1.108697	-0.219791	-0.519006
O44	O	1.442030	0.113542	-0.185672
O45	O	1.775363	0.446875	0.147661
O46	O	1.108523	-0.368820	-0.309223
O47	O	1.441856	-0.035486	0.024110
O48	O	1.775189	0.297847	0.357444
O49	O	1.018143	-0.368789	-0.399612
O50	O	1.351476	-0.035456	-0.066279
O51	O	1.684810	0.297878	0.267055
C52	C	0.872233	-0.251910	-0.354467
C53	C	1.205566	0.081424	-0.021133
C54	C	1.538900	0.414757	0.312200
C55	C	0.790434	-0.251912	-0.354478
C56	C	1.123768	0.081421	-0.021144
C57	C	1.457101	0.414754	0.312189
C58	C	1.063335	-0.387775	-0.354423
C59	C	1.396669	-0.054442	-0.021090
C60	C	1.730002	0.278891	0.312243
C61	C	1.063358	-0.445889	-0.354423
C62	C	1.396692	-0.112556	-0.021090
C63	C	1.730025	0.220777	0.312243
C64	C	0.525410	-0.218546	-0.401643
C65	C	0.858743	0.114787	-0.068310
C66	C	1.192077	0.448120	0.265023
C67	C	0.602269	-0.218538	-0.401641
C68	C	0.935602	0.114795	-0.068308
C69	C	1.268935	0.448129	0.265026
C70	C	0.602210	-0.285336	-0.307335
C71	C	0.935543	0.047998	0.025999
C72	C	1.268877	0.381331	0.359332
C73	C	0.525353	-0.285346	-0.307341
C74	C	0.858686	0.047987	0.025992
C75	C	1.192019	0.381320	0.359326
C76	C	0.486955	-0.251949	-0.354494
C77	C	0.820288	0.081385	-0.021161
C78	C	1.153621	0.414718	0.312172
C79	C	0.640671	-0.251930	-0.354486
C80	C	0.974004	0.081404	-0.021152
C81	C	1.307337	0.414737	0.312181
C82	C	0.724004	-0.251921	-0.354483
C83	C	1.057338	0.081413	-0.021149
C84	C	1.390671	0.414746	0.312184
C85	C	0.403616	-0.251958	-0.354498
C86	C	0.736949	0.081375	-0.021165
C87	C	1.070282	0.414708	0.312168
C88	C	1.110541	-0.806209	-0.401639
C89	C	1.443874	-0.472876	-0.068305
C90	C	1.777207	-0.139543	0.265028
C91	C	1.110562	-0.860814	-0.401654
C92	C	1.443896	-0.527480	-0.068320
C93	C	1.777229	-0.194147	0.265013
O94	O	1.150555	-0.889014	-0.441739
O95	O	1.483888	-0.555680	-0.108405
O96	O	1.817221	-0.222347	0.224928
N97	N	1.063542	-0.888172	-0.354552
N98	N	1.396875	-0.554838	-0.021219
N99	N	1.730208	-0.221505	0.312115
C100	C	1.016491	-0.860923	-0.307438
C101	C	1.349824	-0.527589	0.025896
C102	C	1.683157	-0.194256	0.359229
O103	O	0.976498	-0.889207	-0.267376
O104	O	1.309831	-0.555873	0.065957
O105	O	1.643164	-0.222540	0.399291
C106	C	1.016466	-0.806319	-0.307427
C107	C	1.349799	-0.472986	0.025906
C108	C	1.683133	-0.139653	0.359240
C109	C	1.063495	-0.778964	-0.354526
C110	C	1.396828	-0.445631	-0.021193
C111	C	1.730162	-0.112297	0.312140
C112	C	1.157565	-0.778854	-0.448735
C113	C	1.490898	-0.445521	-0.115402
C114	C	1.824232	-0.112187	0.217932
C115	C	1.157544	-0.724253	-0.448719
C116	C	1.490878	-0.390920	-0.115385
C117	C	1.824211	-0.057587	0.217948
C118	C	1.110499	-0.697008	-0.401606
C119	C	1.443832	-0.363675	-0.068273
C120	C	1.777165	-0.030342	0.265060
C121	C	1.063474	-0.724363	-0.354510
C122	C	1.396807	-0.391030	-0.021177
C123	C	1.730141	-0.057697	0.312156
C124	C	0.969412	-0.779071	-0.260317
C125	C	1.302745	-0.445738	0.073017
C126	C	1.636079	-0.112404	0.406350
C127	C	0.969391	-0.724464	-0.260311
C128	C	1.302724	-0.391131	0.073023
C129	C	1.636057	-0.057797	0.406356
C130	C	1.016420	-0.697109	-0.307410
C131	C	1.349753	-0.363776	0.025923
C132	C	1.683087	-0.030442	0.359257
C133	C	1.016408	-0.642518	-0.307382
C134	C	1.349741	-0.309184	0.025951
C135	C	1.683074	0.024149	0.359285
N136	N	1.063428	-0.615160	-0.354483
N137	N	1.396762	-0.281826	-0.021150
N138	N	1.730095	0.051507	0.312183
C139	C	1.110474	-0.642405	-0.401596
C140	C	1.443807	-0.309072	-0.068262
C141	C	1.777140	0.024262	0.265071
C142	C	1.016546	-0.975593	-0.307465
C143	C	1.349879	-0.642260	0.025869
C144	C	1.683212	-0.308926	0.359202
C145	C	1.016574	-1.030195	-0.307471
C146	C	1.349907	-0.696862	0.025862
C147	C	1.683240	-0.363529	0.359196
C148	C	1.110644	-1.030083	-0.401688
C149	C	1.443978	-0.696749	-0.068355
C150	C	1.777311	-0.363416	0.264978
C151	C	1.110620	-0.975479	-0.401678
C152	C	1.443953	-0.642146	-0.068344
C153	C	1.777286	-0.308813	0.264989
C154	C	1.063566	-0.948235	-0.354566
C155	C	1.396900	-0.614902	-0.021233
C156	C	1.730233	-0.281568	0.312100
C157	C	1.110427	-0.527740	-0.401558
C158	C	1.443760	-0.194407	-0.068225
C159	C	1.777093	0.138927	0.265109
C160	C	1.110404	-0.473134	-0.401535
C161	C	1.443737	-0.139801	-0.068202
C162	C	1.777070	0.193532	0.265131
C163	C	1.016331	-0.473252	-0.307321
C164	C	1.349664	-0.139919	0.026012
C165	C	1.682997	0.193415	0.359345
C166	C	1.016356	-0.527853	-0.307341
C167	C	1.349689	-0.194519	0.025993
C168	C	1.683023	0.138814	0.359326
C169	C	1.063407	-0.555095	-0.354465
C170	C	1.396740	-0.221762	-0.021132
C171	C	1.730073	0.111571	0.312202
O172	O	0.976434	-0.614283	-0.267319
O173	O	1.309767	-0.280949	0.066014
O174	O	1.643100	0.052384	0.399347
O175	O	1.150453	-0.614114	-0.441658
O176	O	1.483787	-0.280781	-0.108324
O177	O	1.817120	0.052553	0.225009
C178	C	1.255392	-0.251956	-0.354496
C179	C	1.588726	0.081377	-0.021162
C180	C	1.922059	0.414711	0.312171
C181	C	1.337191	-0.251966	-0.354502
C182	C	1.670525	0.081367	-0.021169
C183	C	2.003858	0.414701	0.312165
C184	C	1.063474	-0.251891	-0.546434
C185	C	1.396808	0.081442	-0.213101
C186	C	1.730141	0.414776	0.120233
C187	C	1.063489	-0.251873	-0.628233
C188	C	1.396822	0.081460	-0.294900
C189	C	1.730156	0.414794	0.038434
C190	C	1.063564	-0.115560	-0.354555
C191	C	1.396897	0.217774	-0.021222
C192	C	1.730231	0.551107	0.312112
C193	C	1.063617	-0.057446	-0.354586
C194	C	1.396950	0.275888	-0.021253
C195	C	1.730284	0.609221	0.312080
C196	C	1.016490	-0.218404	-0.816442
C197	C	1.349823	0.114929	-0.483109
C198	C	1.683157	0.448262	-0.149776
C199	C	1.016503	-0.218394	-0.893301
C200	C	1.349836	0.114939	-0.559968
C201	C	1.683170	0.448273	-0.226634
C202	C	1.110576	-0.285279	-0.893261
C203	C	1.443909	0.048054	-0.559928
C204	C	1.777243	0.381387	-0.226595
C205	C	1.110559	-0.285292	-0.816404
C206	C	1.443892	0.048041	-0.483071
C207	C	1.777226	0.381375	-0.149737
C208	C	1.063517	-0.251852	-0.777996
C209	C	1.396850	0.081482	-0.444663
C210	C	1.730184	0.414815	-0.111330
C211	C	1.063547	-0.251828	-0.931713
C212	C	1.396880	0.081505	-0.598379
C213	C	1.730214	0.414838	-0.265046
C214	C	1.063561	-0.251817	-1.015046
C215	C	1.396894	0.081516	-0.681713
C216	C	1.730228	0.414849	-0.348380
C217	C	1.063502	-0.251863	-0.694657
C218	C	1.396835	0.081470	-0.361324
C219	C	1.730168	0.414803	-0.027991
C220	C	1.063447	-0.251936	-0.163275
C221	C	1.396780	0.081397	0.170059
C222	C	1.730114	0.414730	0.503392
C223	C	1.063575	-0.251807	-0.081476
C224	C	1.396908	0.081526	0.251857
C225	C	1.730242	0.414860	0.585190
H226	H	0.494149	-0.191352	-0.440038
H227	H	0.827482	0.141982	-0.106705
H228	H	1.160815	0.475315	0.226628
H229	H	0.978029	-0.451060	-0.268961
H230	H	1.311362	-0.117727	0.064373
H231	H	1.644696	0.215606	0.397706
Br232	Br	1.174493	-1.067069	-0.465627
Br233	Br	1.507827	-0.733736	-0.132293
Br234	Br	1.841160	-0.400402	0.201040
Br235	Br	0.473158	-0.330683	-0.243350
Br236	Br	0.806491	0.002651	0.089983
Br237	Br	1.139825	0.335984	0.423316
H238	H	0.978208	-0.191158	-0.924600
H239	H	1.311541	0.142175	-0.591267
H240	H	1.644875	0.475509	-0.257934
H241	H	1.148876	-0.312505	-0.924542
H242	H	1.482210	0.020828	-0.591209
H243	H	1.815543	0.354162	-0.257875
Br244	Br	1.174236	-0.436013	-0.465458
Br245	Br	1.507569	-0.102679	-0.132124
Br246	Br	1.840903	0.230654	0.201209
Br247	Br	0.654456	-0.173207	-0.465636
Br248	Br	0.987789	0.160126	-0.132303
Br249	Br	1.321122	0.493459	0.201031
Br250	Br	0.654326	-0.330657	-0.243342
Br251	Br	0.987659	0.002676	0.089991
Br252	Br	1.320993	0.336009	0.423325
H253	H	0.978185	-0.191175	-0.785173
H254	H	1.311519	0.142158	-0.451840
H255	H	1.644852	0.475492	-0.118506
Br256	Br	1.174282	-0.564703	-0.465512
Br257	Br	1.507616	-0.231370	-0.132178
Br258	Br	1.840949	0.101963	0.201155
Br259	Br	0.952685	-0.938624	-0.243518
Br260	Br	1.286019	-0.605291	0.089816
Br261	Br	1.619352	-0.271958	0.423149
Br262	Br	1.221368	-0.687137	-0.512648
Br263	Br	1.554701	-0.353804	-0.179315
Br264	Br	1.888034	-0.020470	0.154019
Br265	Br	1.174381	-0.330692	-0.764222
Br266	Br	1.507714	0.002641	-0.430889
Br267	Br	1.841047	0.335975	-0.097556
Br268	Br	0.952542	-0.564979	-0.243408
Br269	Br	1.285876	-0.231646	0.089925
Br270	Br	1.619209	0.101688	0.423258
Br271	Br	0.905528	-0.687493	-0.196371
Br272	Br	1.238861	-0.354160	0.136962
Br273	Br	1.572194	-0.020826	0.470295
H274	H	1.195875	-0.801031	-0.487104
H275	H	1.529208	-0.467698	-0.153770
H276	H	1.862542	-0.134365	0.179563
H277	H	0.978286	-1.052464	-0.269110
H278	H	1.311619	-0.719130	0.064223
H279	H	1.644953	-0.385797	0.397557
Br280	Br	1.174447	-0.938360	-0.465600
Br281	Br	1.507780	-0.605027	-0.132267
Br282	Br	1.841113	-0.271694	0.201067
Br283	Br	0.905581	-0.816182	-0.196393
Br284	Br	1.238914	-0.482849	0.136940
Br285	Br	1.572248	-0.149516	0.470273
