data_functionalizedCrystal
_audit_creation_method	'MofGen! by Chris Wilmer'
_symmetry_space_group_name_H-M	'P1'
_symmetry_Int_Tables_number	1
_symmetry_cell_setting	triclinic
loop_
_symmetry_equiv_pos_as_xyz
  x,y,z
_cell_length_a	10.654554
_cell_length_b	17.699103
_cell_length_c	9.730223
_cell_angle_alpha	89.993717
_cell_angle_beta	89.999030
_cell_angle_gamma	83.888951
loop_
_atom_site_label
_atom_site_type_symbol
_atom_site_fract_x
_atom_site_fract_y
_atom_site_fract_z
O1	O	1.665982	0.106315	-0.114331
O2	O	1.300328	0.116439	-0.114330
O3	O	1.493473	0.001255	-0.114304
O4	O	1.472837	0.221500	-0.114357
O5	O	1.493471	0.001258	0.114276
O6	O	1.300326	0.116442	0.114250
O7	O	1.665980	0.106318	0.114249
Zn8	Zn	1.483153	0.111381	0.150541
Zn9	Zn	1.483155	0.111377	-0.150623
O10	O	1.472835	0.221503	0.114223
C11	C	1.253542	0.115697	-0.000040
C12	C	1.114138	0.113470	-0.000038
C13	C	0.932828	0.041465	-0.000039
C14	C	1.063813	0.043557	-0.000025
C15	C	1.033470	0.181297	-0.000050
C16	C	0.902487	0.179205	-0.000054
C17	C	0.950348	-0.038058	-0.000030
C18	C	1.081333	-0.035967	-0.000017
C19	C	1.492728	-0.026945	-0.000011
C20	C	1.490497	-0.110977	0.000001
C21	C	1.476853	-0.626777	-0.124688
C22	C	1.478947	-0.547820	-0.124676
C23	C	1.479991	-0.508353	-0.000069
C24	C	1.478952	-0.547848	0.124535
C25	C	1.476867	-0.626804	0.124521
C26	C	1.487364	-0.229428	0.124592
C27	C	1.489446	-0.150467	0.124596
C28	C	1.489445	-0.150444	-0.124605
C29	C	1.487359	-0.229400	-0.124618
C30	C	1.486328	-0.268889	-0.000016
C31	C	1.484059	-0.354502	-0.000031
C32	C	1.482250	-0.422740	-0.000053
C33	C	1.712766	0.107061	-0.000045
C34	C	1.852170	0.109287	-0.000055
C35	C	1.473580	0.249703	-0.000074
C36	C	1.475811	0.333734	-0.000094
N37	N	1.483160	0.111383	0.356078
N38	N	1.483158	0.111369	-0.356159
C39	C	1.568706	0.060397	0.428015
C40	C	1.568703	0.060387	0.571898
C41	C	1.397603	0.162357	0.571893
C42	C	1.397601	0.162362	0.428013
C43	C	1.667492	0.001527	0.428019
C44	C	1.667489	0.001518	0.571902
H45	H	0.915161	-0.063382	-0.098721
C46	C	1.490599	-0.107001	-0.261672
N47	N	1.491469	-0.074281	-0.364907
H48	H	1.327932	0.203873	0.369443
C49	C	1.486210	-0.272854	0.261658
N50	N	1.485334	-0.305565	0.364904
H51	H	1.647061	-0.056646	0.388979
C52	C	1.475716	-0.670242	0.261584
N53	N	1.474853	-0.702958	0.364824
H54	H	0.921525	-0.069159	0.095631
C55	C	1.143559	-0.068432	0.133323
N56	N	1.190429	-0.092883	0.233753
H57	H	1.123612	-0.065928	-0.095672
C58	C	1.475718	-0.670183	-0.261768
N59	N	1.474873	-0.702876	-0.365021
C60	C	1.480092	-0.504385	-0.261739
N61	N	1.480956	-0.471671	-0.364981
C62	C	1.486262	-0.272812	-0.261696
N63	N	1.485460	-0.305512	-0.364945
C64	C	1.490603	-0.107056	0.261680
N65	N	1.491476	-0.074358	0.364927
C66	C	1.480094	-0.504432	0.261604
N67	N	1.480946	-0.471730	0.364848
H68	H	1.327943	0.203863	0.630479
H69	H	1.758356	0.019961	0.383388
H70	H	1.637932	-0.053455	0.616531
C71	C	1.797533	0.019095	0.624659
N72	N	1.895466	0.032357	0.664395
H73	H	0.836819	0.234433	-0.000051
H74	H	1.074454	0.238223	-0.000048
