data_functionalizedCrystal
_audit_creation_method	'MofGen! by Chris Wilmer'
_symmetry_space_group_name_H-M	'P1'
_symmetry_Int_Tables_number	1
_symmetry_cell_setting	triclinic
loop_
_symmetry_equiv_pos_as_xyz
  x,y,z
_cell_length_a	14.519731
_cell_length_b	14.519709
_cell_length_c	16.776229
_cell_angle_alpha	89.992406
_cell_angle_beta	89.992771
_cell_angle_gamma	83.684499
loop_
_atom_site_label
_atom_site_type_symbol
_atom_site_fract_x
_atom_site_fract_y
_atom_site_fract_z
O1	O	1.223859	0.120987	-0.066292
O2	O	1.723859	0.620987	0.433708
O3	O	0.955384	0.135203	-0.066293
O4	O	1.455384	0.635203	0.433707
O5	O	1.096740	-0.006143	-0.066285
O6	O	1.596740	0.493857	0.433715
O7	O	1.082503	0.262333	-0.066300
O8	O	1.582503	0.762333	0.433700
O9	O	1.096721	-0.006152	0.066291
O10	O	1.596721	0.493848	0.566291
O11	O	0.955366	0.135194	0.066283
O12	O	1.455366	0.635194	0.566283
O13	O	1.223840	0.120978	0.066285
O14	O	1.723840	0.620978	0.566285
Zn15	Zn	1.089600	0.128085	0.087333
Zn16	Zn	1.589600	0.628085	0.587333
Zn17	Zn	1.089625	0.128096	-0.087342
Zn18	Zn	1.589625	0.628096	0.412658
O19	O	1.082485	0.262324	0.066277
O20	O	1.582485	0.762324	0.566277
C21	C	0.921016	0.134532	-0.000005
C22	C	1.421016	0.634532	0.499995
C23	C	0.818635	0.132536	-0.000005
C24	C	1.318635	0.632536	0.499995
C25	C	0.735491	0.130915	-0.000008
C26	C	1.235491	0.630915	0.499992
C27	C	0.631182	0.128888	-0.000009
C28	C	1.131182	0.628888	0.499991
C29	C	0.548043	0.127280	-0.000008
C30	C	1.048043	0.627280	0.499992
C31	C	0.443728	0.125253	-0.000010
C32	C	0.943728	0.625253	0.499990
C33	C	1.096067	-0.040507	0.000003
C34	C	1.596067	0.459493	0.500003
C35	C	1.094079	-0.142889	0.000004
C36	C	1.594079	0.357111	0.500004
C37	C	1.086759	-0.517785	-0.000017
C38	C	1.586759	-0.017785	0.499983
C39	C	1.088792	-0.413477	-0.000011
C40	C	1.588792	0.086523	0.499989
C41	C	1.090419	-0.330340	-0.000006
C42	C	1.590419	0.169660	0.499994
C43	C	1.092452	-0.226025	-0.000001
C44	C	1.592452	0.273975	0.499999
C45	C	1.258209	0.121649	-0.000005
C46	C	1.758209	0.621649	0.499995
C47	C	1.360589	0.123645	-0.000010
C48	C	1.860589	0.623645	0.499990
C49	C	1.083157	0.296688	-0.000013
C50	C	1.583157	0.796688	0.499987
C51	C	1.085146	0.399070	-0.000019
C52	C	1.585146	0.899070	0.499981
N53	N	1.089590	0.128076	0.206545
N54	N	1.589590	0.628076	0.706545
N55	N	1.089642	0.128097	-0.206553
N56	N	1.589642	0.628097	0.293447
C57	C	1.152201	0.065514	0.248265
C58	C	1.652201	0.565514	0.748265
C59	C	1.152206	0.065513	0.331718
C60	C	1.652206	0.565513	0.831718
C61	C	1.089604	0.128080	0.373448
C62	C	1.589604	0.628080	0.873448
C63	C	1.026986	0.190645	0.331721
C64	C	1.526986	0.690645	0.831721
C65	C	1.026977	0.190641	0.248271
C66	C	1.526977	0.690641	0.748271
C67	C	1.027019	0.190663	0.668268
C68	C	1.527019	0.690663	1.168268
C69	C	1.027034	0.190665	0.751725
C70	C	1.527034	0.690665	1.251725
C71	C	1.152248	0.065536	0.751715
C72	C	1.652248	0.565536	1.251715
C73	C	1.152239	0.065532	0.668265
C74	C	1.652239	0.565532	1.168265
C75	C	1.089619	0.128093	0.626546
C76	C	1.589619	0.628093	1.126546
C77	C	1.089613	0.128092	0.536057
C78	C	1.589613	0.628092	1.036057
C79	C	1.089613	0.128086	0.463934
C80	C	1.589613	0.628086	0.963934
H81	H	1.203183	0.014569	0.214294
H82	H	1.703183	0.514569	0.714294
C83	C	1.221105	-0.003298	0.622366
C84	C	1.721105	0.496702	1.122366
N85	N	1.272972	-0.055146	0.587797
N86	N	1.772972	0.444854	1.087797
C87	C	1.221061	-0.003332	0.377606
C88	C	1.721061	0.496668	0.877606
N89	N	1.272918	-0.055198	0.412169
N90	N	1.772918	0.444802	0.912169
H91	H	1.203235	0.014592	0.785692
H92	H	1.703235	0.514592	1.285692
H93	H	0.976052	0.241616	0.785700
H94	H	1.476052	0.741616	1.285700
H95	H	0.976033	0.241605	0.634307
H96	H	1.476033	0.741605	1.134307
C97	C	0.958113	0.259461	0.377627
C98	C	1.458113	0.759461	0.877627
N99	N	0.906237	0.311294	0.412203
N100	N	1.406237	0.811294	0.912203
H101	H	0.975991	0.241584	0.214302
H102	H	1.475991	0.741584	0.714302
