data_functionalizedCrystal
_audit_creation_method	'MofGen! by Chris Wilmer'
_symmetry_space_group_name_H-M	'P1'
_symmetry_Int_Tables_number	1
_symmetry_cell_setting	triclinic
loop_
_symmetry_equiv_pos_as_xyz
  x,y,z
_cell_length_a	19.188925
_cell_length_b	19.188925
_cell_length_c	10.868271
_cell_angle_alpha	89.995220
_cell_angle_beta	89.994733
_cell_angle_gamma	83.142549
loop_
_atom_site_label
_atom_site_type_symbol
_atom_site_fract_x
_atom_site_fract_y
_atom_site_fract_z
O1	O	0.926145	0.087150	-0.102348
O2	O	0.722833	0.098888	-0.102344
O3	O	0.830358	-0.008637	-0.102339
O4	O	0.818620	0.194675	-0.102353
O5	O	0.830350	-0.008641	0.102305
O6	O	0.722824	0.098884	0.102300
O7	O	0.926136	0.087146	0.102297
Zn8	Zn	0.824479	0.093014	0.134790
Zn9	Zn	0.824491	0.093020	-0.134838
O10	O	0.818611	0.194671	0.102292
C11	C	0.696818	0.098507	-0.000022
C12	C	0.619313	0.097368	-0.000020
C13	C	0.057542	0.152832	-0.000027
C14	C	0.130365	0.153908	-0.000033
C15	C	0.175301	0.090816	-0.000027
C16	C	0.147408	0.026642	-0.000045
C17	C	0.074586	0.025568	-0.000051
N18	N	0.295976	0.045138	0.069639
N19	N	0.365153	0.046163	0.069647
C20	C	0.394710	0.094050	-0.000013
N21	N	0.352474	0.140883	-0.069665
N22	N	0.283291	0.139860	-0.069667
C23	C	0.254265	0.091974	-0.000022
C24	C	0.501557	0.159387	-0.000010
C25	C	0.574382	0.160461	-0.000025
C26	C	0.591424	0.033193	-0.000024
C27	C	0.518600	0.032121	-0.000022
C28	C	0.473671	0.095220	-0.000009
C29	C	0.829974	-0.034650	-0.000018
C30	C	0.828835	-0.112155	-0.000020
C31	C	0.884299	-0.673926	-0.000052
C32	C	0.885376	-0.601103	-0.000041
C33	C	0.822284	-0.556167	-0.000040
C34	C	0.758110	-0.584060	-0.000019
C35	C	0.757035	-0.656882	-0.000018
N36	N	0.776610	-0.435484	-0.069695
N37	N	0.777636	-0.366307	-0.069699
C38	C	0.825518	-0.336758	-0.000041
N39	N	0.872347	-0.379001	0.069605
N40	N	0.871323	-0.448185	0.069603
C41	C	0.823442	-0.477203	-0.000041
C42	C	0.890854	-0.229910	-0.000042
C43	C	0.891928	-0.157085	-0.000023
C44	C	0.764661	-0.140044	-0.000013
C45	C	0.763589	-0.212867	-0.000020
C46	C	0.826688	-0.257797	-0.000040
C47	C	0.952152	0.087528	-0.000029
C48	C	1.029657	0.088667	-0.000038
C49	C	0.818995	0.220684	-0.000032
C50	C	0.820134	0.298189	-0.000038
N51	N	0.824476	0.093010	0.318804
N52	N	0.824499	0.093018	-0.318852
C53	C	0.824487	0.093018	0.569810
C54	C	0.824479	0.093016	0.430133
H55	H	0.495897	-0.020129	-0.000024
O56	O	0.958909	-0.278373	-0.000044
H57	H	0.961454	-0.311966	0.083361
H58	H	0.597084	0.212714	-0.000025
H59	H	0.937628	-0.578394	-0.000052
H60	H	0.711338	-0.235571	-0.000017
H61	H	0.713290	-0.103458	-0.000002
O62	O	0.044505	-0.043642	-0.000057
H63	H	0.011727	-0.047175	0.083350
H64	H	0.020964	0.204212	-0.000022
H65	H	0.628010	-0.018178	-0.000028
H66	H	0.706740	-0.547469	-0.000015
O67	O	0.687826	-0.686965	-0.000011
H68	H	0.644133	-0.643487	-0.000012
H69	H	0.464974	0.210766	-0.000002
O70	O	0.961141	-0.127010	-0.000053
H71	H	0.991457	-0.145085	0.083338
O72	O	0.160455	0.223117	-0.000003
H73	H	0.116978	0.266812	0.000015
H74	H	0.183999	-0.024728	-0.000044
H75	H	0.935680	-0.710503	-0.000062
