data_functionalizedCrystal
_audit_creation_method	'MofGen! by Chris Wilmer'
_symmetry_space_group_name_H-M	'P1'
_symmetry_Int_Tables_number	1
_symmetry_cell_setting	triclinic
loop_
_symmetry_equiv_pos_as_xyz
  x,y,z
_cell_length_a	12.759401
_cell_length_b	25.639240
_cell_length_c	12.759393
_cell_angle_alpha	89.955765
_cell_angle_beta	89.981433
_cell_angle_gamma	90.031802
loop_
_atom_site_label
_atom_site_type_symbol
_atom_site_fract_x
_atom_site_fract_y
_atom_site_fract_z
Zn1	Zn	1.606124	-0.208133	-0.593891
Zn2	Zn	1.605962	-0.295580	-0.418172
Zn3	Zn	1.430425	-0.208159	-0.418230
Zn4	Zn	1.430359	-0.295538	-0.593813
O5	O	1.518218	-0.251853	-0.506027
O6	O	1.753123	-0.219740	-0.570590
O7	O	1.582638	-0.284012	-0.271159
O8	O	1.453828	-0.134990	-0.441588
O9	O	1.753005	-0.283987	-0.441490
O10	O	1.582912	-0.134971	-0.570646
O11	O	1.453671	-0.219784	-0.271201
O12	O	1.283396	-0.219743	-0.441513
O13	O	1.453714	-0.283915	-0.740845
O14	O	1.283347	-0.283940	-0.570514
O15	O	1.582847	-0.219699	-0.740902
O16	O	1.582573	-0.368740	-0.441415
O17	O	1.453558	-0.368709	-0.570457
C18	C	1.245250	-0.251840	-0.506012
C19	C	1.128474	-0.251848	-0.506031
C20	C	1.073666	-0.218458	-0.573357
C21	C	0.963942	-0.218468	-0.573364
C22	C	0.963843	-0.285262	-0.438714
C23	C	1.073565	-0.285249	-0.438703
C24	C	1.073723	-0.179896	-0.651099
C25	C	0.963999	-0.179906	-0.651105
C26	C	1.518069	-0.387695	-0.505944
C27	C	1.518102	-0.445809	-0.505944
C28	C	1.585465	-0.806124	-0.573348
C29	C	1.585496	-0.860728	-0.573369
O30	O	1.642595	-0.888924	-0.630594
N31	N	1.518363	-0.888092	-0.506128
C32	C	1.451188	-0.860848	-0.438869
O33	O	1.394088	-0.889137	-0.381678
C34	C	1.451152	-0.806245	-0.438853
C35	C	1.518297	-0.778884	-0.506091
C36	C	1.652604	-0.778763	-0.640581
C37	C	1.652574	-0.724163	-0.640558
C38	C	1.585406	-0.696923	-0.573302
C39	C	1.518267	-0.724283	-0.506068
C40	C	1.383972	-0.779002	-0.371600
C41	C	1.383941	-0.724395	-0.371591
C42	C	1.451086	-0.697034	-0.438829
C43	C	1.451069	-0.642443	-0.438789
N44	N	1.518202	-0.615080	-0.506030
C45	C	1.585370	-0.642320	-0.573287
C46	C	1.451266	-0.975518	-0.438907
C47	C	1.451306	-1.030121	-0.438916
C48	C	1.585614	-1.029997	-0.573419
C49	C	1.585578	-0.975394	-0.573403
C50	C	1.518399	-0.948155	-0.506148
C51	C	1.585303	-0.527655	-0.573233
C52	C	1.585270	-0.473049	-0.573201
C53	C	1.450959	-0.473177	-0.438703
C54	C	1.450995	-0.527778	-0.438730
C55	C	1.518171	-0.555015	-0.506004
O56	O	1.393996	-0.614213	-0.381597
O57	O	1.642450	-0.614024	-0.630478
C58	C	1.792251	-0.251865	-0.506042
C59	C	1.909027	-0.251871	-0.506048
C60	C	1.518291	-0.251800	-0.780060
C61	C	1.518323	-0.251777	-0.896837
C62	C	1.518395	-0.115480	-0.506132
C63	C	1.518471	-0.057365	-0.506177
C64	C	1.585572	-0.218337	-0.951730
C65	C	1.585597	-0.218318	-1.061454
C66	C	1.451120	-0.285185	-1.061382
C67	C	1.451091	-0.285200	-0.951660
C68	C	1.663214	-0.179734	-0.951773
C69	C	1.663239	-0.179715	-1.061497
C70	C	1.518205	-0.251867	-0.233059
C71	C	1.518377	-0.251743	-0.116283
H72	H	1.103515	-0.139385	-0.629463
Cl73	Cl	1.142462	-0.327212	-0.354030
H74	H	1.107779	-0.194443	-0.728330
Cl75	Cl	1.366529	-0.327233	-0.882654
Cl76	Cl	0.911469	-0.120495	-0.606356
Cl77	Cl	1.366606	-0.327200	-1.130310
H78	H	1.329295	-0.801269	-0.316847
H79	H	0.919122	-0.312457	-0.383899
Cl80	Cl	1.629644	-0.117221	-0.905851
H81	H	1.634149	-0.141242	-1.095562
Cl82	Cl	1.299482	-0.690155	-0.287036
Cl83	Cl	1.669689	-0.438656	-0.657733
H84	H	0.934247	-0.190802	-0.732437
Cl85	Cl	1.366597	-0.562175	-0.354188
H86	H	1.396274	-0.450990	-0.383940
Cl87	Cl	1.736981	-0.689775	-0.725100
H88	H	1.639996	-0.549825	-0.628020
H89	H	1.740476	-0.194250	-0.917730
Cl90	Cl	1.788857	-0.196452	-1.107473
Cl91	Cl	1.669989	-0.941004	-0.657936
Cl92	Cl	1.670053	-1.064252	-0.657972
Cl93	Cl	1.737053	-0.812998	-0.725147
Cl94	Cl	1.366906	-1.064510	-0.354371
H95	H	1.396564	-0.953343	-0.384131
