data_functionalizedCrystal
_audit_creation_method	'MofGen! by Chris Wilmer'
_symmetry_space_group_name_H-M	'P1'
_symmetry_Int_Tables_number	1
_symmetry_cell_setting	triclinic
loop_
_symmetry_equiv_pos_as_xyz
  x,y,z
_cell_length_a	10.723024
_cell_length_b	19.288865
_cell_length_c	18.366186
_cell_angle_alpha	90.011479
_cell_angle_beta	89.991271
_cell_angle_gamma	96.197942
loop_
_atom_site_label
_atom_site_type_symbol
_atom_site_fract_x
_atom_site_fract_y
_atom_site_fract_z
O1	O	1.655151	-0.097418	-0.060554
O2	O	2.155151	0.402582	0.439446
O3	O	1.291802	-0.106743	-0.060558
O4	O	1.791802	0.393257	0.439442
O5	O	1.483976	-0.001018	-0.060541
O6	O	1.983976	0.498982	0.439459
O7	O	1.462978	-0.203142	-0.060570
O8	O	1.962978	0.296858	0.439430
O9	O	1.483943	-0.001013	0.060558
O10	O	1.983943	0.498987	0.560558
O11	O	1.291770	-0.106737	0.060542
O12	O	1.791770	0.393263	0.560542
O13	O	1.655118	-0.097413	0.060545
O14	O	2.155118	0.402587	0.560545
Zn15	Zn	1.473439	-0.102074	0.079771
Zn16	Zn	1.973439	0.397926	0.579771
Zn17	Zn	1.473482	-0.102081	-0.079783
Zn18	Zn	1.973482	0.397919	0.420217
O19	O	1.462945	-0.203137	0.060529
O20	O	1.962945	0.296863	0.560529
C21	C	1.483284	0.024865	0.000010
C22	C	1.983284	0.524865	0.500010
C23	C	1.481256	0.101982	0.000017
C24	C	1.981256	0.601982	0.500017
C25	C	1.245301	-0.106061	-0.000008
C26	C	1.745301	0.393939	0.499992
C27	C	1.106789	-0.104031	-0.000009
C28	C	1.606789	0.395969	0.499991
N29	N	1.473419	-0.102069	0.188662
N30	N	1.973419	0.397931	0.688662
C31	C	1.030564	-0.163189	-0.000018
C32	C	1.530564	0.336811	0.499982
C33	C	0.887405	-0.161092	-0.000018
C34	C	1.387405	0.338908	0.499982
C35	C	1.701620	-0.098094	-0.000006
C36	C	2.201620	0.401906	0.499994
C37	C	1.840131	-0.100124	-0.000010
C38	C	2.340131	0.399876	0.499990
C39	C	1.463637	-0.229020	-0.000025
C40	C	1.963637	0.270980	0.499975
C41	C	1.465665	-0.306137	-0.000036
C42	C	1.965665	0.193863	0.499964
C43	C	1.594014	0.145945	0.000021
C44	C	2.094014	0.645945	0.500021
C45	C	1.592109	0.218404	0.000010
C46	C	2.092109	0.718404	0.500010
C47	C	1.477438	0.246898	0.000008
C48	C	1.977438	0.746898	0.500008
C49	C	1.364665	0.202925	-0.000000
C50	C	1.864665	0.702925	0.500000
C51	C	1.366574	0.130468	0.000004
C52	C	1.866574	0.630468	0.500004
C53	C	1.387282	0.355774	0.042426
C54	C	1.887282	0.855774	0.542426
C55	C	1.385379	0.428230	0.042426
C56	C	1.885379	0.928230	0.542426
C57	C	1.471547	0.470382	-0.000008
C58	C	1.971547	0.970382	0.499992
C59	C	1.559640	0.440069	-0.042433
C60	C	2.059640	0.940069	0.457567
C61	C	1.561548	0.367611	-0.042429
C62	C	2.061548	0.867611	0.457571
C63	C	1.475356	0.325465	0.000003
C64	C	1.975356	0.825465	0.500003
C65	C	1.582247	0.592914	-0.000017
C66	C	2.082247	1.092914	0.499983
C67	C	1.580336	0.665374	-0.000033
C68	C	2.080336	1.165374	0.499967
C69	C	1.352890	0.649894	-0.000036
C70	C	1.852890	1.149894	0.499964
C71	C	1.354803	0.577435	-0.000027
C72	C	1.854803	1.077435	0.499973
C73	C	1.469485	0.548949	-0.000014
C74	C	1.969485	1.048949	0.499986
N75	N	1.473512	-0.102081	-0.188674
N76	N	1.973512	0.397919	0.311326
C77	C	1.558541	-0.055277	0.226769
C78	C	2.058541	0.444723	0.726769
C79	C	1.558549	-0.055274	0.302997
C80	C	2.058549	0.444726	0.802997
C81	C	1.473446	-0.102075	0.341114
C82	C	1.973446	0.397925	0.841114
C83	C	1.388308	-0.148870	0.302998
C84	C	1.888308	0.351130	0.802998
C85	C	1.388295	-0.148867	0.226771
C86	C	1.888295	0.351133	0.726771
C87	C	1.456743	-0.165254	0.461866
C88	C	1.956743	0.334746	0.961866
C89	C	1.456765	-0.165258	0.538091
C90	C	1.956765	0.334742	1.038091
C91	C	1.473482	-0.102084	0.576222
C92	C	1.973482	0.397916	1.076222
C93	C	1.490202	-0.038903	0.538119
C94	C	1.990202	0.461097	1.038119
C95	C	1.490188	-0.038900	0.461893
C96	C	1.990188	0.461100	0.961893
C97	C	1.473451	-0.102083	0.423769
C98	C	1.973451	0.397917	0.923769
C99	C	1.558617	-0.055285	0.696984
C100	C	2.058617	0.444715	1.196984
C101	C	1.558616	-0.055281	0.773214
C102	C	2.058616	0.444719	1.273214
C103	C	1.388382	-0.148882	0.773213
C104	C	1.888382	0.351118	1.273213
C105	C	1.388377	-0.148880	0.696985
C106	C	1.888377	0.351120	1.196985
C107	C	1.473501	-0.102082	0.658875
C108	C	1.973501	0.397918	1.158875
H109	H	1.071290	-0.215388	-0.000021
H110	H	1.571290	0.284612	0.499979
H111	H	1.675628	0.569720	-0.000010
H112	H	2.175628	1.069720	0.499990
H113	H	0.821909	-0.211735	-0.000029
H114	H	1.321909	0.288265	0.499971
H115	H	1.443159	-0.216703	0.569108
H116	H	1.943159	0.283297	1.069108
H117	H	1.313643	0.452905	0.076967
H118	H	1.813643	0.952905	0.576967
C119	C	0.928603	-0.031701	0.000002
C120	C	1.428603	0.468299	0.500002
N121	N	0.995250	0.019835	0.000013
N122	N	1.495250	0.519835	0.500013
H123	H	1.066063	-0.051832	-0.000020
H124	H	1.566063	0.448168	0.499980
C125	C	1.294769	-0.200364	0.815137
C126	C	1.794769	0.299636	1.315137
N127	N	1.224256	-0.239141	0.846719
N128	N	1.724256	0.260859	1.346719
H129	H	1.319015	-0.186974	0.334037
H130	H	1.819015	0.313026	0.834037
C131	C	1.652205	-0.003805	0.344924
C132	C	2.152205	0.496195	0.844924
N133	N	1.722753	0.034959	0.376501
N134	N	2.222753	0.534959	0.876501
H135	H	1.633274	0.342933	-0.076974
H136	H	2.133274	0.842933	0.423026
C137	C	1.438353	-0.234755	0.419929
C138	C	1.938353	0.265245	0.919929
N139	N	1.424502	-0.287102	0.388343
N140	N	1.924502	0.212898	0.888343
H141	H	1.687397	0.122757	0.000029
H142	H	2.187397	0.622757	0.500029
H143	H	1.683933	0.254205	0.000011
H144	H	2.183933	0.754205	0.500011
C145	C	1.654428	0.486430	-0.089118
C146	C	2.154428	0.986430	0.410882
N147	N	1.725821	0.521352	-0.124279
N148	N	2.225821	1.021352	0.375721
H149	H	1.503799	0.012544	0.430872
H150	H	2.003799	0.512544	0.930872
C151	C	1.226750	0.681233	-0.000040
C152	C	1.726750	1.181233	0.499960
N153	N	1.131739	0.704840	-0.000045
N154	N	1.631739	1.204840	0.499955
C155	C	1.652241	-0.003792	0.815132
C156	C	2.152241	0.496208	1.315132
N157	N	1.722756	0.034994	0.846705
N158	N	2.222756	0.534994	1.346705
H159	H	1.672162	0.701169	-0.000033
H160	H	2.172162	1.201169	0.499967
H161	H	1.262983	0.541639	-0.000027
H162	H	1.762983	1.041639	0.499973
C163	C	1.294704	-0.200373	0.184852
C164	C	1.794704	0.299627	0.684852
N165	N	1.224230	-0.239181	0.153277
N166	N	1.724230	0.260819	0.653277
C167	C	1.242525	0.082106	0.000001
C168	C	1.742525	0.582106	0.500001
N169	N	1.149089	0.045680	0.000000
N170	N	1.649089	0.545680	0.500000
H171	H	1.317111	0.321459	0.076985
H172	H	1.817111	0.821459	0.576985
H173	H	1.319068	-0.186985	0.665956
H174	H	1.819068	0.313015	1.165956
C175	C	1.238527	0.234270	0.000003
C176	C	1.738527	0.734270	0.500003
N177	N	1.143516	0.257878	0.000006
N178	N	1.643516	0.757878	0.500006
C179	C	1.652168	-0.003791	0.184853
C180	C	2.152168	0.496209	0.684853
N181	N	1.722685	0.034990	0.153281
N182	N	2.222685	0.534990	0.653281
C183	C	1.508588	0.030595	0.580058
C184	C	2.008588	0.530595	1.080058
N185	N	1.522438	0.082938	0.611649
N186	N	2.022438	0.582938	1.111649
H187	H	1.627927	-0.017177	0.665954
H188	H	2.127927	0.482823	1.165954
