data_functionalizedCrystal
_audit_creation_method	'MofGen! by Chris Wilmer'
_symmetry_space_group_name_H-M	'P1'
_symmetry_Int_Tables_number	1
_symmetry_cell_setting	triclinic
loop_
_symmetry_equiv_pos_as_xyz
  x,y,z
_cell_length_a	8.597339
_cell_length_b	9.130313
_cell_length_c	10.654550
_cell_angle_alpha	90.004307
_cell_angle_beta	95.088566
_cell_angle_gamma	97.699531
loop_
_atom_site_label
_atom_site_type_symbol
_atom_site_fract_x
_atom_site_fract_y
_atom_site_fract_z
O1	O	-2.084438	-0.141195	0.187493
O2	O	-1.627668	-0.083562	0.201868
O3	O	-1.866555	-0.113709	0.011997
O4	O	-1.845551	-0.111048	0.377364
O5	O	-1.866552	-0.357308	0.011987
O6	O	-1.627664	-0.327161	0.201858
O7	O	-2.084435	-0.384793	0.187483
Cu8	Cu	-1.856049	-0.378220	0.194670
Cu9	Cu	-1.856053	-0.090136	0.194682
O10	O	-1.845547	-0.354647	0.377354
C11	C	-1.569178	-0.197982	0.200318
C12	C	-1.394904	-0.175993	0.195699
C13	C	-1.865011	-0.235312	-0.034814
C14	C	-1.860397	-0.234725	-0.174282
C15	C	-1.142925	-0.270378	0.189027
C16	C	-1.317202	-0.292378	0.193630
N17	N	-1.856057	0.112486	0.194681
N18	N	-1.856058	-0.580843	0.194660
C19	C	-1.962035	0.175764	0.110774
C20	C	-1.962040	0.329100	0.110766
C21	C	-1.750075	0.355869	0.278577
C22	C	-1.750079	0.202534	0.278590
C23	C	-2.084407	0.160311	0.013885
C24	C	-2.084412	0.313647	0.013878
C25	C	-2.001050	-0.252476	-0.253019
C26	C	-1.996705	-0.251917	-0.384063
C27	C	-1.711042	-0.215861	-0.357620
C28	C	-1.715388	-0.216409	-0.226578
C29	C	-2.165975	-0.273299	-0.268287
C30	C	-2.161630	-0.272741	-0.399331
C31	C	-1.847091	-0.233040	0.424165
C32	C	-1.851705	-0.233618	0.563633
H33	H	-1.328105	-0.059520	0.193926
H34	H	-2.198291	0.346846	0.045233
C35	C	-1.406224	-0.447738	0.195726
C36	C	-1.383012	-0.524952	0.086881
C37	C	-1.465011	-0.668062	0.088759
H38	H	-1.368361	-0.497725	0.267979
H39	H	-1.515473	-0.442449	0.198558
H40	H	-1.273786	-0.530248	0.084061
H41	H	-1.420881	-0.475010	0.014611
H42	H	-1.574260	-0.662773	0.091592
H43	H	-1.427141	-0.718035	0.161016
H44	H	-1.449285	-0.720465	0.014905
C45	C	-2.228270	-0.141084	-0.460040
C46	C	-2.357184	-0.191405	-0.545923
C47	C	-2.418592	-0.070169	-0.601887
H48	H	-2.261397	-0.081893	-0.396808
H49	H	-2.149349	-0.083912	-0.503000
H50	H	-2.436091	-0.248553	-0.502963
H51	H	-2.324098	-0.250581	-0.609178
H52	H	-2.339670	-0.012997	-0.644848
H53	H	-2.451709	-0.010986	-0.538647
H54	H	-2.506056	-0.104295	-0.660173
H55	H	-1.663797	0.151014	0.346924
C56	C	-2.244463	-0.419248	-0.454342
C57	C	-2.299474	-0.509422	-0.356985
C58	C	-2.375762	-0.644396	-0.407611
H59	H	-2.330843	-0.402025	-0.511853
H60	H	-2.172497	-0.466878	-0.497200
H61	H	-2.371435	-0.461803	-0.314147
H62	H	-2.213126	-0.526687	-0.299466
H63	H	-2.303796	-0.692026	-0.450468
H64	H	-2.462135	-0.627159	-0.465121
H65	H	-2.413084	-0.705601	-0.341561
H66	H	-2.057829	0.358597	-0.082856
C67	C	-2.245288	0.084729	0.043496
C68	C	-2.360369	0.121535	-0.048007
C69	C	-2.508586	0.051953	-0.020762
H70	H	-2.245520	-0.019337	0.043476
H71	H	-2.267547	0.116653	0.124070
H72	H	-2.338116	0.089603	-0.128560
H73	H	-2.360187	0.225589	-0.048001
H74	H	-2.530845	0.083877	0.059811
H75	H	-2.508802	-0.052110	-0.020783
H76	H	-2.586688	0.076927	-0.082836
C77	C	-1.635194	0.453539	0.369874
C78	C	-1.661720	0.412941	0.493685
C79	C	-1.555934	0.502891	0.577823
H80	H	-1.530279	0.441707	0.354910
H81	H	-1.650379	0.553936	0.357938
H82	H	-1.646522	0.312569	0.505615
H83	H	-1.766615	0.424779	0.508688
H84	H	-1.571119	0.603288	0.565887
H85	H	-1.451025	0.491053	0.562848
H86	H	-1.573927	0.475367	0.661837
H87	H	-1.592980	-0.200948	-0.400216
C88	C	-2.033916	0.103506	-0.108220
C89	C	-2.000440	0.222177	-0.189119
C90	C	-1.953954	0.169900	-0.301622
H91	H	-1.942443	0.056498	-0.090559
H92	H	-2.116587	0.034563	-0.147336
H93	H	-1.917776	0.291094	-0.150011
H94	H	-2.091891	0.269197	-0.206816
H95	H	-2.036625	0.100958	-0.340738
H96	H	-1.862484	0.122892	-0.283948
H97	H	-1.931249	0.250407	-0.356530
C98	C	-2.252240	-0.148435	-0.228613
C99	C	-2.384165	-0.207218	-0.167877
C100	C	-2.463673	-0.092241	-0.131325
H101	H	-2.183730	-0.083063	-0.172638
H102	H	-2.285223	-0.095951	-0.301005
H103	H	-2.351180	-0.259677	-0.095496
H104	H	-2.452712	-0.272577	-0.223829
H105	H	-2.496656	-0.039757	-0.203717
H106	H	-2.395151	-0.026876	-0.075355
H107	H	-2.553201	-0.132110	-0.090123
H108	H	-1.600855	-0.201934	-0.162474
H109	H	-2.218492	-0.385107	-0.232385
