data_functionalizedCrystal
_audit_creation_method	'MofGen! by Chris Wilmer'
_symmetry_space_group_name_H-M	'P1'
_symmetry_Int_Tables_number	1
_symmetry_cell_setting	triclinic
loop_
_symmetry_equiv_pos_as_xyz
  x,y,z
_cell_length_a	19.077068
_cell_length_b	12.759393
_cell_length_c	12.759401
_cell_angle_alpha	89.981425
_cell_angle_beta	92.327351
_cell_angle_gamma	92.261180
loop_
_atom_site_label
_atom_site_type_symbol
_atom_site_fract_x
_atom_site_fract_y
_atom_site_fract_z
Zn1	Zn	-0.280150	-0.610736	1.589361
Zn2	Zn	-0.397866	-0.442095	1.582157
Zn3	Zn	-0.280188	-0.435078	1.413661
Zn4	Zn	-0.397812	-0.617733	1.406557
O5	O	-0.339004	-0.526410	1.497934
O6	O	-0.295772	-0.588374	1.735426
O7	O	-0.382294	-0.294145	1.559764
O8	O	-0.181692	-0.452514	1.442956
O9	O	-0.382258	-0.464474	1.730133
O10	O	-0.181665	-0.581570	1.572042
O11	O	-0.295836	-0.288990	1.435971
O12	O	-0.295784	-0.459298	1.265698
O13	O	-0.382166	-0.763824	1.430848
O14	O	-0.382202	-0.593495	1.260478
O15	O	-0.295720	-0.758683	1.565153
O16	O	-0.496350	-0.471259	1.552875
O17	O	-0.496310	-0.600299	1.423862
C18	C	-0.338992	-0.526395	1.224967
C19	C	-0.339004	-0.526414	1.108190
C20	C	-0.521867	-0.537323	1.486845
C21	C	-0.600097	-0.542026	1.482197
C22	C	-0.338933	-0.800440	1.498012
C23	C	-0.338903	-0.917215	1.498045
C24	C	-0.636847	-0.477107	1.547235
C25	C	-0.710352	-0.481537	1.542870
C26	C	-0.747106	-0.550882	1.473460
C27	C	-0.710351	-0.615808	1.408418
C28	C	-0.636847	-0.611382	1.412790
C29	C	-0.966939	-0.571321	1.453182
C30	C	-1.040447	-0.575739	1.448813
C31	C	-1.040443	-0.441469	1.583267
C32	C	-0.966938	-0.437046	1.587627
C33	C	-0.930190	-0.501975	1.522590
N34	N	-0.822240	-0.555409	1.468993
N35	N	-0.855057	-0.497452	1.527062
C36	C	-0.155427	-0.515479	1.509095
C37	C	-0.077197	-0.510820	1.513852
C38	C	-0.293876	-0.969391	1.433610
C39	C	-0.293854	-1.079114	1.433636
C40	C	-0.383888	-1.084474	1.562540
C41	C	-0.383913	-0.974754	1.562508
C42	C	-0.339024	-0.253444	1.497920
C43	C	-0.338856	-0.136658	1.498103
C44	C	-0.294052	-0.591037	1.056080
C45	C	-0.294059	-0.591045	0.946355
C46	C	-0.383976	-0.461803	0.940861
C47	C	-0.383964	-0.461791	1.050583
C48	C	-0.339017	-0.526427	1.771967
C49	C	-0.339022	-0.526434	1.888743
H50	H	-0.606926	-0.420635	1.603752
Br51	Br	-0.232756	-1.149922	1.346166
H52	H	-0.420582	-0.932271	1.614981
H53	H	-0.257440	-0.643654	1.102980
Br54	Br	-0.232793	-0.891305	1.346123
H55	H	-0.420570	-0.409162	1.093012
Br56	Br	-0.233048	-0.678747	0.875638
Br57	Br	-0.444992	-0.374106	0.862674
H58	H	-0.740282	-0.672274	1.351908
Br59	Br	-0.444970	-1.162569	1.650022
H60	H	-0.606926	-0.664248	1.359830
H61	H	-0.740270	-0.428673	1.595830
H62	H	-1.070372	-0.388609	1.636218
Br63	Br	-0.917062	-0.342945	1.681844
H64	H	-0.937024	-0.624187	1.400224
Br65	Br	-1.090328	-0.669838	1.354589
