data_functionalizedCrystal
_audit_creation_method	'MofGen! by Chris Wilmer'
_symmetry_space_group_name_H-M	'P1'
_symmetry_Int_Tables_number	1
_symmetry_cell_setting	triclinic
loop_
_symmetry_equiv_pos_as_xyz
  x,y,z
_cell_length_a	12.827892
_cell_length_b	12.827893
_cell_length_c	12.827885
_cell_angle_alpha	90.021379
_cell_angle_beta	89.970214
_cell_angle_gamma	89.986399
loop_
_atom_site_label
_atom_site_type_symbol
_atom_site_fract_x
_atom_site_fract_y
_atom_site_fract_z
Zn1	Zn	-0.416032	-1.597672	-0.590902
Zn2	Zn	-0.082699	-1.264338	-0.257569
Zn3	Zn	0.250634	-0.931005	0.075765
Zn4	Zn	-0.590810	-1.597565	-0.416162
Zn5	Zn	-0.257476	-1.264232	-0.082829
Zn6	Zn	0.075857	-0.930898	0.250504
Zn7	Zn	-0.416078	-1.422912	-0.416170
Zn8	Zn	-0.082744	-1.089579	-0.082837
Zn9	Zn	0.250589	-0.756246	0.250497
Zn10	Zn	-0.590727	-1.422898	-0.590857
Zn11	Zn	-0.257393	-1.089565	-0.257523
Zn12	Zn	0.075940	-0.756232	0.075810
O13	O	-0.503412	-1.510262	-0.503523
O14	O	-0.170078	-1.176928	-0.170189
O15	O	0.163255	-0.843595	0.163144
O16	O	-0.439233	-1.743893	-0.567738
O17	O	-0.105899	-1.410560	-0.234405
O18	O	0.227434	-1.077227	0.098928
O19	O	-0.567685	-1.574358	-0.269927
O20	O	-0.234352	-1.241025	0.063406
O21	O	0.098982	-0.907692	0.396739
O22	O	-0.269836	-1.446145	-0.439371
O23	O	0.063498	-1.112812	-0.106037
O24	O	0.396831	-0.779478	0.227296
O25	O	-0.567641	-1.743815	-0.439358
O26	O	-0.234308	-1.410482	-0.106025
O27	O	0.099026	-1.077149	0.227309
O28	O	-0.269802	-1.574540	-0.567746
O29	O	0.063531	-1.241207	-0.234412
O30	O	0.396864	-0.907873	0.098921
O31	O	-0.439310	-1.446042	-0.269933
O32	O	-0.105977	-1.112708	0.063401
O33	O	0.227356	-0.779375	0.396734
O34	O	-0.439230	-1.276674	-0.439327
O35	O	-0.105896	-0.943341	-0.105993
O36	O	0.227437	-0.610008	0.227340
O37	O	-0.567499	-1.446121	-0.737099
O38	O	-0.234166	-1.112788	-0.403765
O39	O	0.099167	-0.779454	-0.070432
O40	O	-0.567543	-1.276664	-0.567668
O41	O	-0.234210	-0.943331	-0.234335
O42	O	0.099123	-0.609997	0.098999
O43	O	-0.439152	-1.574526	-0.737132
O44	O	-0.105819	-1.241193	-0.403799
O45	O	0.227515	-0.907859	-0.070466
O46	O	-0.737035	-1.574345	-0.439314
O47	O	-0.403701	-1.241011	-0.105980
O48	O	-0.070368	-0.907678	0.227353
O49	O	-0.736974	-1.446018	-0.567661
O50	O	-0.403640	-1.112684	-0.234327
O51	O	-0.070307	-0.779351	0.099006
C52	C	-0.503383	-1.238752	-0.503494
C53	C	-0.170050	-0.905419	-0.170160
C54	C	0.163284	-0.572085	0.163173
C55	C	-0.503396	-1.122599	-0.503506
C56	C	-0.170063	-0.789265	-0.170173
C57	C	0.163271	-0.455932	0.163161
C58	C	-0.439967	-1.070853	-0.567130
C59	C	-0.106633	-0.737519	-0.233797
C60	C	0.226700	-0.404186	0.099537
C61	C	-0.439979	-0.950802	-0.567144
C62	C	-0.106645	-0.617469	-0.233811
C63	C	0.226688	-0.284136	0.099522
C64	C	-0.774922	-1.510196	-0.503504
C65	C	-0.441588	-1.176863	-0.170171
C66	C	-0.108255	-0.843530	0.163162
C67	C	-0.891075	-1.510264	-0.503531
C68	C	-0.557741	-1.176931	-0.170198
C69	C	-0.224408	-0.843597	0.163135
C70	C	-0.942855	-1.573840	-0.440092
C71	C	-0.609522	-1.240506	-0.106758
C72	C	-0.276188	-0.907173	0.226575
C73	C	-1.062905	-1.573911	-0.440118
C74	C	-0.729572	-1.240578	-0.106785
C75	C	-0.396239	-0.907244	0.226548
C76	C	-0.230841	-1.510356	-0.503564
C77	C	0.102492	-1.177023	-0.170231
C78	C	0.435825	-0.843689	0.163103
C79	C	-0.114688	-1.510396	-0.503582
C80	C	0.218645	-1.177063	-0.170248
C81	C	0.551978	-0.843729	0.163085
C82	C	-0.503311	-1.510334	-0.776093
C83	C	-0.169978	-1.177001	-0.442760
C84	C	0.163355	-0.843667	-0.109426
C85	C	-0.503269	-1.510365	-0.892246
C86	C	-0.169935	-1.177031	-0.558913
C87	C	0.163398	-0.843698	-0.225580
C88	C	-0.503432	-0.782832	-0.503544
C89	C	-0.170099	-0.449499	-0.170211
C90	C	0.163234	-0.116165	0.163123
C91	C	-0.503419	-0.898985	-0.503532
C92	C	-0.170086	-0.565652	-0.170198
C93	C	0.163247	-0.232318	0.163135
C94	C	-0.439732	-1.446890	-0.944034
C95	C	-0.106399	-1.113556	-0.610700
C96	C	0.226935	-0.780223	-0.277367
C97	C	-0.439687	-1.446920	-1.064084
C98	C	-0.106353	-1.113587	-0.730751
C99	C	0.226980	-0.780253	-0.397418
C100	C	-0.503436	-1.510250	-0.232013
C101	C	-0.170103	-1.176917	0.101321
C102	C	0.163231	-0.843584	0.434654
C103	C	-0.503185	-1.510422	-0.115860
C104	C	-0.169851	-1.177089	0.217473
C105	C	0.163482	-0.843755	0.550806
H106	H	-0.385650	-1.115427	-0.621587
H107	H	-0.052316	-0.782094	-0.288253
H108	H	0.281017	-0.448761	0.045080
H109	H	-0.557579	-1.564772	-1.071331
H110	H	-0.224246	-1.231439	-0.737998
H111	H	0.109088	-0.898105	-0.404664
H112	H	-0.385286	-1.392581	-1.108620
H113	H	-0.051953	-1.059248	-0.775287
H114	H	0.281380	-0.725915	-0.441954
H115	H	-0.557732	-0.943479	-0.449064
H116	H	-0.224399	-0.610146	-0.115730
H117	H	0.108934	-0.276812	0.217603
Br118	Br	-0.593890	-1.600974	-0.966471
Br119	Br	-0.260557	-1.267641	-0.633137
Br120	Br	0.072777	-0.934308	-0.299804
H121	H	-0.557707	-1.078024	-0.449044
H122	H	-0.224374	-0.744691	-0.115710
H123	H	0.108960	-0.411357	0.217623
Br124	Br	-0.965309	-1.419636	-0.594104
Br125	Br	-0.631976	-1.086303	-0.260771
Br126	Br	-0.298642	-0.752969	0.072563
Br127	Br	-0.349471	-0.876639	-0.657948
Br128	Br	-0.016137	-0.543306	-0.324614
Br129	Br	0.317196	-0.209972	0.008719
H130	H	-0.898312	-1.628221	-0.385762
H131	H	-0.564978	-1.294888	-0.052429
H132	H	-0.231645	-0.961555	0.280905
H133	H	-1.107435	-1.628338	-0.385802
H134	H	-0.774102	-1.295004	-0.052469
H135	H	-0.440769	-0.961671	0.280864
H136	H	-0.385374	-1.392520	-0.899494
H137	H	-0.052041	-1.059187	-0.566161
H138	H	0.281292	-0.725853	-0.232827
H139	H	-1.070166	-1.455959	-0.557894
H140	H	-0.736833	-1.122626	-0.224561
H141	H	-0.403500	-0.789293	0.108773
