data_functionalizedCrystal
_audit_creation_method	'MofGen! by Chris Wilmer'
_symmetry_space_group_name_H-M	'P1'
_symmetry_Int_Tables_number	1
_symmetry_cell_setting	triclinic
loop_
_symmetry_equiv_pos_as_xyz
  x,y,z
_cell_length_a	10.654558
_cell_length_b	10.654551
_cell_length_c	15.186229
_cell_angle_alpha	89.999082
_cell_angle_beta	89.997265
_cell_angle_gamma	84.486839
loop_
_atom_site_label
_atom_site_type_symbol
_atom_site_fract_x
_atom_site_fract_y
_atom_site_fract_z
O1	O	1.667834	0.176447	-0.073210
O2	O	2.167834	0.676447	0.426790
O3	O	1.302357	0.193242	-0.073214
O4	O	1.802357	0.693242	0.426786
O5	O	1.493498	0.002106	-0.073213
O6	O	1.993498	0.502106	0.426787
O7	O	1.476693	0.367583	-0.073212
O8	O	1.976693	0.867583	0.426788
O9	O	1.493485	0.002103	0.073245
O10	O	1.993485	0.502103	0.573245
O11	O	1.302344	0.193239	0.073243
O12	O	1.802344	0.693239	0.573243
O13	O	1.667821	0.176444	0.073247
O14	O	2.167821	0.676444	0.573247
Zn15	Zn	1.485080	0.184841	0.096498
Zn16	Zn	1.985080	0.684841	0.596498
Zn17	Zn	1.485097	0.184845	-0.096465
Zn18	Zn	1.985097	0.684845	0.403535
O19	O	1.476680	0.367581	0.073245
O20	O	1.976680	0.867581	0.573245
C21	C	1.255553	0.192005	0.000014
C22	C	1.755553	0.692005	0.500014
C23	C	1.116110	0.188309	0.000012
C24	C	1.616110	0.688309	0.500012
C25	C	1.492257	-0.044694	0.000014
C26	C	1.992257	0.455306	0.500014
C27	C	1.488565	-0.184137	0.000008
C28	C	1.988565	0.315863	0.500008
C29	C	0.919578	0.183115	-0.079822
C30	C	1.419578	0.683115	0.420178
C31	C	1.050601	0.186577	-0.079823
C32	C	1.550601	0.686577	0.420177
C33	C	1.050591	0.186567	0.079853
C34	C	1.550591	0.686567	0.579853
C35	C	0.919572	0.183096	0.079853
C36	C	1.419572	0.683096	0.579853
C37	C	0.854075	0.181396	-0.159662
C38	C	1.354075	0.681396	0.340338
C39	C	0.919585	0.183135	-0.239503
C40	C	1.419585	0.683135	0.260497
C41	C	1.050608	0.186597	-0.239504
C42	C	1.550608	0.686597	0.260496
C43	C	1.116120	0.188319	-0.159664
C44	C	1.616120	0.688319	0.340336
C45	C	1.486839	-0.249648	-0.079824
C46	C	1.986839	0.250352	0.420176
C47	C	1.483359	-0.380668	-0.079820
C48	C	1.983359	0.119332	0.420180
C49	C	1.483335	-0.380657	0.079856
C50	C	1.983335	0.119343	0.579856
C51	C	1.486806	-0.249638	0.079851
C52	C	1.986806	0.250362	0.579851
C53	C	1.488598	-0.184147	-0.159667
C54	C	1.988598	0.315853	0.340333
C55	C	1.486874	-0.249658	-0.239506
C56	C	1.986874	0.250342	0.260494
C57	C	1.483394	-0.380679	-0.239502
C58	C	1.983394	0.119321	0.260498
C59	C	1.481638	-0.446188	-0.159659
C60	C	1.981638	0.053812	0.340341
C61	C	1.714625	0.177681	0.000017
C62	C	2.214625	0.677681	0.500017
C63	C	1.854068	0.181377	0.000013
C64	C	2.354068	0.681377	0.500013
C65	C	1.477921	0.414380	0.000017
C66	C	1.977921	0.914380	0.500017
C67	C	1.481613	0.553823	0.000017
C68	C	1.981613	1.053823	0.500017
N69	N	1.485078	0.184838	0.228191
N70	N	1.985078	0.684838	0.728191
N71	N	1.485110	0.184838	-0.228158
N72	N	1.985110	0.684838	0.271842
C73	C	1.569744	0.100232	0.453915
C74	C	2.069744	0.600232	0.953915
C75	C	1.569748	0.100229	0.546104
C76	C	2.069748	0.600229	1.046104
C77	C	1.400434	0.269448	0.546112
C78	C	1.900434	0.769448	1.046112
C79	C	1.400425	0.269444	0.453924
C80	C	1.900425	0.769444	0.953924
C81	C	1.485087	0.184838	0.407828
C82	C	1.985087	0.684838	0.907828
C83	C	1.485100	0.184839	0.592205
C84	C	1.985100	0.684839	1.092205
C85	C	1.485104	0.184836	0.692161
C86	C	1.985104	0.684836	1.192161
C87	C	1.485083	0.184838	0.307865
C88	C	1.985083	0.684838	0.807865
H89	H	0.747389	0.178581	-0.159670
H90	H	1.247389	0.678581	0.340330
H91	H	1.488184	-0.196294	0.144857
H92	H	1.988184	0.303706	0.644857
Br93	Br	1.684638	-0.014604	0.608649
Br94	Br	2.184638	0.485396	1.108649
H95	H	1.481906	-0.434005	0.144860
H96	H	1.981906	0.065995	0.644860
Br97	Br	1.493333	-0.006336	-0.159677
Br98	Br	1.993333	0.493664	0.340323
Br99	Br	1.481036	-0.469582	-0.347851
Br100	Br	1.981036	0.030418	0.152149
Br101	Br	1.489250	-0.160756	-0.347858
Br102	Br	1.989250	0.339244	0.152142
H103	H	1.103944	0.188002	-0.304514
H104	H	1.603944	0.688002	0.195486
Br105	Br	1.476897	-0.624001	-0.159655
Br106	Br	1.976897	-0.124001	0.340345
H107	H	1.638680	0.031338	0.416385
H108	H	2.138680	0.531338	0.916385
H109	H	0.866229	0.181704	0.144861
H110	H	1.366229	0.681704	0.644861
H111	H	1.331481	0.338341	0.416397
H112	H	1.831481	0.838341	0.916397
Br113	Br	0.830684	0.180762	-0.347852
Br114	Br	1.330684	0.680762	0.152148
Br115	Br	1.293941	0.192992	-0.159667
Br116	Br	1.793941	0.692992	0.340333
Br117	Br	1.285542	0.384270	0.608674
Br118	Br	1.785542	0.884270	1.108674
H119	H	1.103941	0.187971	0.144855
H120	H	1.603941	0.687971	0.644855
