data_functionalizedCrystal
_audit_creation_method	'MofGen! by Chris Wilmer'
_symmetry_space_group_name_H-M	'P1'
_symmetry_Int_Tables_number	1
_symmetry_cell_setting	triclinic
loop_
_symmetry_equiv_pos_as_xyz
  x,y,z
_cell_length_a	18.101395
_cell_length_b	12.759401
_cell_length_c	12.759393
_cell_angle_alpha	90.022423
_cell_angle_beta	89.966350
_cell_angle_gamma	89.967863
loop_
_atom_site_label
_atom_site_type_symbol
_atom_site_fract_x
_atom_site_fract_y
_atom_site_fract_z
Zn1	Zn	-0.294764	-1.606124	-0.594109
Zn2	Zn	-0.418626	-1.605972	-0.418423
Zn3	Zn	-0.294805	-1.430430	-0.418433
Zn4	Zn	-0.418570	-1.430364	-0.594049
O5	O	-0.356691	-1.518222	-0.506254
O6	O	-0.311201	-1.753125	-0.570825
O7	O	-0.402241	-1.582649	-0.271403
O8	O	-0.191167	-1.453827	-0.441766
O9	O	-0.402202	-1.753013	-0.441749
O10	O	-0.191137	-1.582909	-0.570834
O11	O	-0.311271	-1.453679	-0.271411
O12	O	-0.311217	-1.283400	-0.441708
O13	O	-0.402107	-1.453716	-0.741078
O14	O	-0.402147	-1.283352	-0.570732
O15	O	-0.311147	-1.582846	-0.741122
O16	O	-0.522252	-1.582586	-0.441692
O17	O	-0.522211	-1.453568	-0.570723
C18	C	-0.356681	-1.245255	-0.506215
C19	C	-0.356694	-1.128478	-0.506224
C20	C	-0.404111	-0.963894	-0.573330
C21	C	-0.404111	-1.073618	-0.573306
C22	C	-0.309280	-1.073609	-0.439154
C23	C	-0.309284	-0.963887	-0.439174
C24	C	-0.458859	-0.963900	-0.650785
C25	C	-0.458859	-1.073624	-0.650761
C26	C	-0.549102	-1.518082	-0.506223
C27	C	-0.631416	-1.518118	-0.506245
C28	C	-0.930507	-1.518348	-0.506301
C29	C	-0.899187	-1.437362	-0.587686
C30	C	-0.813569	-1.436977	-0.587431
C31	C	-0.782124	-1.518234	-0.506274
C32	C	-0.813285	-1.488256	-0.395546
C33	C	-0.898930	-1.487733	-0.396033
C34	C	-0.898847	-1.629490	-0.534669
C35	C	-0.813196	-1.628837	-0.537098
C36	C	-0.698265	-1.518171	-0.506252
C37	C	-1.014366	-1.518409	-0.506316
C38	C	-0.163529	-1.518392	-0.506308
C39	C	-0.081215	-1.518464	-0.506331
C40	C	-0.356616	-1.518291	-0.780287
C41	C	-0.356584	-1.518320	-0.897064
C42	C	-0.356701	-0.792256	-0.506282
C43	C	-0.356699	-0.909032	-0.506268
C44	C	-0.309207	-1.451194	-0.951936
C45	C	-0.309185	-1.451225	-1.061660
C46	C	-0.403919	-1.585519	-1.061631
C47	C	-0.403944	-1.585481	-0.951909
C48	C	-0.254510	-1.373663	-0.951953
C49	C	-0.254488	-1.373695	-1.061677
C50	C	-0.356713	-1.518215	-0.233286
C51	C	-0.356537	-1.518389	-0.116510
H52	H	-0.792498	-1.455733	-0.669535
H53	H	-0.442534	-1.640126	-0.907236
Cl54	Cl	-0.170411	-1.418724	-0.899434
Cl55	Cl	-0.278227	-1.248001	-0.905958
H56	H	-0.442478	-1.640199	-1.106299
H57	H	-0.791903	-1.407872	-0.371086
Cl58	Cl	-0.165896	-1.407264	-1.107697
Cl59	Cl	-0.547386	-0.917838	-0.616937
Cl60	Cl	-0.930926	-1.574840	-0.299213
Cl61	Cl	-0.286200	-1.254354	-1.114208
Cl62	Cl	-0.542977	-1.126087	-0.605690
H63	H	-0.792919	-1.545386	-0.333255
H64	H	-0.919728	-1.455932	-0.670055
Cl65	Cl	-0.249685	-0.894921	-0.354853
Cl66	Cl	-0.249675	-1.142576	-0.354813
Cl67	Cl	-0.932103	-1.671688	-0.657207
H68	H	-0.438378	-0.929927	-0.728135
Cl69	Cl	-0.782035	-1.309786	-0.558424
H70	H	-0.920776	-1.355482	-0.569131
Cl71	Cl	-0.435238	-1.119699	-0.776434
Cl72	Cl	-0.781747	-1.663745	-0.662911
Cl73	Cl	-0.929883	-1.362299	-0.358935
Cl74	Cl	-0.780138	-1.726931	-0.452257
H75	H	-0.919101	-1.689828	-0.475394
