data_functionalizedCrystal
_audit_creation_method	'MofGen! by Chris Wilmer'
_symmetry_space_group_name_H-M	'P1'
_symmetry_Int_Tables_number	1
_symmetry_cell_setting	triclinic
loop_
_symmetry_equiv_pos_as_xyz
  x,y,z
_cell_length_a	19.188905
_cell_length_b	19.188924
_cell_length_c	9.130313
_cell_angle_alpha	89.996698
_cell_angle_beta	89.992651
_cell_angle_gamma	83.138260
loop_
_atom_site_label
_atom_site_type_symbol
_atom_site_fract_x
_atom_site_fract_y
_atom_site_fract_z
O1	O	0.926150	0.087082	-0.122047
O2	O	0.722836	0.098834	-0.121998
O3	O	0.830363	-0.008699	-0.122007
O4	O	0.818623	0.194614	-0.122039
O5	O	0.830361	-0.008696	0.121592
O6	O	0.722834	0.098837	0.121601
O7	O	0.926148	0.087084	0.121552
Cu8	Cu	0.824491	0.092961	0.143819
Cu9	Cu	0.824493	0.092958	-0.144265
O10	O	0.818622	0.194617	0.121560
C11	C	0.696824	0.098458	-0.000192
C12	C	0.619318	0.097324	-0.000173
C13	C	0.582927	0.096778	-0.132962
C14	C	0.510104	0.095705	-0.132980
C15	C	0.473676	0.095164	-0.000201
C16	C	0.510075	0.095714	0.132606
C17	C	0.582896	0.096794	0.132620
N18	N	0.364656	0.053737	0.098620
N19	N	0.295479	0.052709	0.098597
C20	C	0.254269	0.091911	-0.000236
N21	N	0.284851	0.132171	-0.099068
N22	N	0.354035	0.133196	-0.099050
C23	C	0.394713	0.093993	-0.000202
C24	C	0.138914	0.090203	-0.133054
C25	C	0.066089	0.089134	-0.133067
C26	C	0.066063	0.089136	0.132523
C27	C	0.138886	0.090212	0.132532
C28	C	0.175308	0.090742	-0.000261
C29	C	0.829982	-0.034708	-0.000206
C30	C	0.828844	-0.112213	-0.000202
C31	C	0.828313	-0.148613	-0.132988
C32	C	0.827233	-0.221436	-0.132999
C33	C	0.826698	-0.257857	-0.000216
C34	C	0.827225	-0.221448	0.132587
C35	C	0.828298	-0.148625	0.132595
N36	N	0.864746	-0.377523	0.098602
N37	N	0.863728	-0.446701	0.098586
C38	C	0.823464	-0.477266	-0.000229
N39	N	0.784265	-0.436041	-0.099051
N40	N	0.785286	-0.366857	-0.099039
C41	C	0.825534	-0.336821	-0.000209
C42	C	0.821761	-0.592629	-0.133036
C43	C	0.820677	-0.665452	-0.133042
C44	C	0.820676	-0.665463	0.132548
C45	C	0.821753	-0.592641	0.132550
C46	C	0.822299	-0.556228	-0.000246
C47	C	0.952160	0.087461	-0.000258
C48	C	1.029666	0.088594	-0.000287
C49	C	0.819002	0.220627	-0.000244
C50	C	0.820141	0.298132	-0.000258
N51	N	0.824495	0.092963	0.346441
N52	N	0.824494	0.092950	-0.346888
C53	C	0.872120	0.045363	0.423089
C54	C	0.872118	0.045355	0.576426
C55	C	0.776865	0.140552	0.576453
C56	C	0.776864	0.140556	0.423119
C57	C	0.927116	-0.009596	0.423075
C58	C	0.927114	-0.009604	0.576412
H59	H	0.612578	0.097210	-0.241093
C60	C	0.822408	-0.552971	-0.277055
C61	C	0.823497	-0.481409	-0.248630
C62	C	0.824113	-0.444860	-0.381264
H63	H	0.781544	-0.559355	-0.331750
H64	H	0.862962	-0.570331	-0.331606
H65	H	0.782946	-0.464054	-0.194102
H66	H	0.864357	-0.475004	-0.193957
H67	H	0.864668	-0.462220	-0.435815
H68	H	0.783249	-0.451250	-0.435948
H69	H	0.824858	-0.396303	-0.361996
C70	C	0.912195	-0.080995	0.367485
C71	C	0.968769	-0.110753	0.282363
C72	C	0.955048	-0.176524	0.231140
H73	H	0.870770	-0.075651	0.309604
H74	H	0.905948	-0.110773	0.448372
H75	H	0.975008	-0.080981	0.201487
H76	H	1.010201	-0.116114	0.340212
H77	H	0.948801	-0.206303	0.312027
H78	H	0.913622	-0.171174	0.173265
H79	H	0.993434	-0.196727	0.173391
C80	C	0.994513	0.012258	0.359907
C81	C	1.039160	0.026738	0.474360
C82	C	1.101254	0.046865	0.416225
H83	H	0.983833	0.053060	0.301371
H84	H	1.017036	-0.024724	0.301384
H85	H	1.016641	0.063718	0.532859
H86	H	1.049859	-0.014054	0.532906
H87	H	1.123777	0.009882	0.357702
H88	H	1.090567	0.087665	0.357690
H89	H	1.131557	0.056686	0.493872
H90	H	0.738078	0.179310	0.360714
H91	H	0.480411	0.095276	0.240715
C92	C	0.819999	-0.704869	-0.277332
C93	C	0.760223	-0.679092	-0.357471
C94	C	0.759583	-0.715379	-0.490410
H95	H	0.819245	-0.753462	-0.258537
H96	H	0.860867	-0.698366	-0.331960
H97	H	0.719365	-0.685601	-0.302855
H98	H	0.760964	-0.630505	-0.376306
H99	H	0.800451	-0.708876	-0.545038
H100	H	0.758831	-0.763970	-0.471600
H101	H	0.719029	-0.697890	-0.544807
H102	H	0.828755	-0.118971	-0.241121
C103	C	0.178516	0.090645	-0.277181
C104	C	0.228360	0.031199	-0.284953
C105	C	0.264844	0.031578	-0.417710
H106	H	0.201532	0.131725	-0.282842
H107	H	0.146434	0.090134	-0.356310
H108	H	0.260437	0.031715	-0.205845
H109	H	0.205363	-0.009891	-0.279317
H110	H	0.232762	0.031068	-0.496839
H111	H	0.287856	0.072661	-0.423359
H112	H	0.298663	-0.008758	-0.423006
H113	H	0.820235	-0.695116	0.240663
C114	C	0.470713	0.095079	-0.277312
C115	C	0.518198	0.095760	-0.393601
C116	C	0.481940	0.095175	-0.526579
H117	H	0.436847	0.135353	-0.283053
H118	H	0.447780	0.053934	-0.282903
H119	H	0.541119	0.136900	-0.388013
H120	H	0.552065	0.055489	-0.387909
H121	H	0.459008	0.054031	-0.532169
H122	H	0.448075	0.135450	-0.532304
H123	H	0.514154	0.095631	-0.605496
C124	C	0.622394	0.097236	0.276845
C125	C	0.612735	0.036911	0.356947
C126	C	0.649118	0.037287	0.489806
H127	H	0.605036	0.137720	0.331575
H128	H	0.670993	0.097916	0.257898
H129	H	0.564146	0.036238	0.375898
H130	H	0.630096	-0.003582	0.302261
H131	H	0.697717	0.037967	0.470859
H132	H	0.631757	0.077773	0.544523
H133	H	0.642575	-0.003646	0.544165
H134	H	0.036460	0.088694	-0.241205
C135	C	0.822376	-0.553248	0.276875
C136	C	0.821696	-0.600730	0.393162
C137	C	0.822278	-0.564468	0.526141
H138	H	0.782101	-0.519383	0.282622
H139	H	0.863519	-0.530313	0.282460
H140	H	0.780557	-0.623653	0.387579
H141	H	0.861968	-0.634595	0.387463
H142	H	0.863422	-0.541534	0.531726
H143	H	0.782003	-0.530605	0.531873
H144	H	0.821824	-0.596680	0.605057
C145	C	0.725042	0.192144	0.659633
C146	C	0.656472	0.180980	0.622375
C147	C	0.608714	0.228488	0.698982
H148	H	0.732380	0.238756	0.634572
H149	H	0.731815	0.185319	0.761945
H150	H	0.649703	0.187811	0.520086
H151	H	0.649112	0.134377	0.647439
H152	H	0.615487	0.221663	0.801294
H153	H	0.616059	0.275098	0.673916
H154	H	0.562185	0.220916	0.673724
H155	H	0.036403	0.088700	0.240634
H156	H	0.168516	0.090652	0.240663
H157	H	0.826796	-0.251078	-0.241132
H158	H	0.826787	-0.251106	0.240700
H159	H	0.828727	-0.118988	0.240728
C160	C	0.905418	-0.076968	0.640067
C161	C	0.960050	-0.109905	0.726312
C162	C	0.940086	-0.171953	0.785003
H163	H	0.895587	-0.107439	0.562746
H164	H	0.864650	-0.066241	0.698725
H165	H	1.000805	-0.120634	0.667657
H166	H	0.969888	-0.079454	0.803656
H167	H	0.899318	-0.161226	0.843661
H168	H	0.930255	-0.202418	0.707672
H169	H	0.977148	-0.194305	0.843537
H170	H	0.980633	0.001724	0.618013
