data_functionalizedCrystal
_audit_creation_method	'MofGen! by Chris Wilmer'
_symmetry_space_group_name_H-M	'P1'
_symmetry_Int_Tables_number	1
_symmetry_cell_setting	triclinic
loop_
_symmetry_equiv_pos_as_xyz
  x,y,z
_cell_length_a	11.792241
_cell_length_b	11.026607
_cell_length_c	10.065875
_cell_angle_alpha	79.268236
_cell_angle_beta	98.803625
_cell_angle_gamma	96.389716
loop_
_atom_site_label
_atom_site_type_symbol
_atom_site_fract_x
_atom_site_fract_y
_atom_site_fract_z
O1	O	-1.552943	-0.148821	-0.113353
O2	O	-1.052943	0.351179	0.386647
O3	O	-1.226014	-0.165980	-0.113384
O4	O	-0.726014	0.334020	0.386616
O5	O	-1.362382	0.019430	-0.113366
O6	O	-0.862382	0.519430	0.386634
O7	O	-1.416574	-0.334231	-0.113371
O8	O	-0.916574	0.165769	0.386629
O9	O	-1.336408	-0.016068	0.113619
O10	O	-0.836408	0.483932	0.613619
O11	O	-1.200039	-0.201479	0.113601
O12	O	-0.700039	0.298521	0.613601
O13	O	-1.526968	-0.184319	0.113632
O14	O	-1.026968	0.315681	0.613632
Zn15	Zn	-1.359380	-0.198535	0.149655
Zn16	Zn	-0.859380	0.301465	0.649655
Zn17	Zn	-1.393602	-0.151764	-0.149407
Zn18	Zn	-0.893602	0.348236	0.350593
O19	O	-1.390600	-0.369730	0.113614
O20	O	-0.890600	0.130270	0.613614
C21	C	-1.170522	-0.182651	0.000104
C22	C	-0.670522	0.317349	0.500104
C23	C	-1.043869	-0.179422	0.000092
C24	C	-0.543869	0.320578	0.500092
C25	C	-1.339398	0.046958	0.000124
C26	C	-0.839398	0.546958	0.500124
C27	C	-1.309596	0.181870	0.000116
C28	C	-0.809596	0.681870	0.500116
C29	C	-1.582461	-0.167648	0.000141
C30	C	-1.082461	0.332352	0.500141
C31	C	-1.709115	-0.170876	0.000144
C32	C	-1.209115	0.329124	0.500144
C33	C	-0.811974	-0.173493	0.000132
C34	C	-0.311974	0.326507	0.500132
C35	C	-0.941016	-0.176787	0.000110
C36	C	-0.441016	0.323213	0.500110
C37	C	-1.413585	-0.397257	0.000121
C38	C	-0.913585	0.102743	0.500121
C39	C	-1.443387	-0.532167	0.000120
C40	C	-0.943387	-0.032167	0.500120
N41	N	-1.336032	-0.230453	0.353758
N42	N	-0.836032	0.269547	0.853758
C43	C	-1.391885	0.255133	0.000122
C44	C	-0.891885	0.755133	0.500122
C45	C	-1.361086	0.394571	0.000114
C46	C	-0.861086	0.894571	0.500114
N47	N	-1.416957	-0.119836	-0.353510
N48	N	-0.916957	0.380164	0.146490
C49	C	-1.385470	-0.162862	0.421543
C50	C	-0.885470	0.337138	0.921543
C51	C	-1.367512	-0.187437	0.578708
C52	C	-0.867512	0.312563	1.078708
H53	H	-1.485137	0.214625	0.000139
H54	H	-0.985137	0.714625	0.500139
C55	C	-1.183612	0.236585	0.000106
C56	C	-0.683612	0.736585	0.500106
N57	N	-1.088717	0.277794	0.000102
N58	N	-0.588717	0.777794	0.500102
H59	H	-1.280406	-0.306510	0.412077
H60	H	-0.780406	0.193490	0.912077
H61	H	-1.267828	0.435073	0.000096
H62	H	-0.767828	0.935073	0.500096
C63	C	-1.292360	-0.290195	0.657484
C64	C	-0.792360	0.209805	1.157484
N65	N	-1.235757	-0.367591	0.716821
N66	N	-0.735757	0.132409	1.216821
C67	C	-1.569378	0.413125	0.000134
C68	C	-1.069378	0.913125	0.500134
N69	N	-1.664272	0.371918	0.000146
N70	N	-1.164272	0.871918	0.500146
H71	H	-1.441086	-0.086796	0.363226
H72	H	-0.941086	0.413204	0.863226
C73	C	-1.492110	-0.017078	0.567717
C74	C	-0.992110	0.482922	1.067717
N75	N	-1.548719	0.060314	0.508384
N76	N	-1.048719	0.560314	1.008384
