data_functionalizedCrystal
_audit_creation_method	'MofGen! by Chris Wilmer'
_symmetry_space_group_name_H-M	'P1'
_symmetry_Int_Tables_number	1
_symmetry_cell_setting	triclinic
loop_
_symmetry_equiv_pos_as_xyz
  x,y,z
_cell_length_a	11.792254
_cell_length_b	15.538191
_cell_length_c	14.750712
_cell_angle_alpha	97.569089
_cell_angle_beta	102.730153
_cell_angle_gamma	114.264654
loop_
_atom_site_label
_atom_site_type_symbol
_atom_site_fract_x
_atom_site_fract_y
_atom_site_fract_z
O1	O	1.419861	-0.149161	-0.079814
O2	O	1.083958	-0.162427	-0.079815
O3	O	1.317294	-0.019002	-0.079819
O4	O	1.186525	-0.292586	-0.079810
O5	O	1.383251	0.021536	0.079831
O6	O	1.149915	-0.121889	0.079834
O7	O	1.485818	-0.108623	0.079836
Zn8	Zn	1.328338	-0.108820	0.105183
Zn9	Zn	1.241438	-0.162231	-0.105162
O10	O	1.252482	-0.252048	0.079839
C11	C	1.074996	-0.141323	0.000010
C12	C	0.950032	-0.138822	0.000009
C13	C	0.848546	-0.136790	0.000005
C14	C	0.721225	-0.134249	0.000004
C15	C	1.363953	0.036291	0.000003
C16	C	1.404705	0.140653	-0.000007
C17	C	1.494779	-0.129728	0.000009
C18	C	1.619741	-0.132231	0.000004
C19	C	1.205822	-0.307342	0.000016
C20	C	1.165068	-0.411705	0.000019
N21	N	1.387654	-0.072368	0.248738
C22	C	0.999823	0.430531	0.000013
C23	C	1.038148	0.528600	0.000015
C24	C	1.253712	0.549934	0.000015
C25	C	1.215403	0.451864	0.000008
C26	C	1.088457	0.392170	0.000008
C27	C	1.304037	0.413502	0.000004
C28	C	1.265733	0.315442	0.000002
C29	C	1.138795	0.255742	0.000004
C30	C	1.050153	0.294109	0.000006
C31	C	1.430985	0.473200	0.000011
C32	C	1.519619	0.434838	0.000006
C33	C	1.481313	0.336774	-0.000003
C34	C	1.354374	0.277075	0.000000
C35	C	1.569954	0.298407	-0.000004
C36	C	1.531650	0.200347	-0.000006
C37	C	1.316070	0.179014	-0.000002
C38	C	1.016468	-0.300453	0.600562
C39	C	1.058039	-0.274916	0.701060
C40	C	1.264670	-0.147960	0.701019
C41	C	1.223114	-0.173484	0.600519
C42	C	1.099013	-0.249731	0.550298
C43	C	1.305659	-0.122762	0.550255
C44	C	1.264109	-0.148287	0.449764
C45	C	1.140014	-0.224534	0.399536
C46	C	1.057462	-0.275256	0.449806
C47	C	1.429764	-0.046519	0.600478
C48	C	1.512308	0.004202	0.550214
C49	C	1.470755	-0.021318	0.449721
C50	C	1.346660	-0.097564	0.399493
C51	C	1.553306	0.029405	0.399450
C52	C	1.511756	0.003880	0.298958
C53	C	1.305110	-0.123089	0.299001
N54	N	1.182116	-0.198686	0.751283
H55	H	1.212696	0.130405	-0.000009
H56	H	1.107612	0.175897	0.000008
N57	N	0.913246	0.229707	0.000025
H58	H	0.868098	0.173514	-0.059152
H59	H	0.862993	0.268949	0.000067
N60	N	0.968985	-0.329631	0.755263
H61	H	0.950890	-0.282838	0.796964
H62	H	1.012402	-0.360908	0.796896
H63	H	1.603826	0.169113	-0.000009
H64	H	0.956401	-0.337338	0.408914
H65	H	1.462164	0.553044	0.000004
H66	H	1.204048	-0.185171	0.258109
H67	H	0.915407	-0.362535	0.559670
H68	H	0.896449	0.381923	0.000005
N69	N	0.942535	0.569971	0.000011
H70	H	0.986060	0.641151	0.000013
H71	H	0.913224	0.563198	0.059196
N72	N	1.095176	-0.252077	0.291148
H73	H	1.156451	-0.272339	0.266920
H74	H	1.094991	-0.194237	0.267013
H75	H	1.622980	0.483455	0.000010
N76	N	1.390630	0.614322	0.000025
H77	H	1.401450	0.682266	0.000030
H78	H	1.406554	0.586817	-0.059161
N79	N	1.600756	0.058577	0.244720
H80	H	1.683889	0.051745	0.262181
H81	H	1.622325	0.129783	0.262217
H82	H	1.365717	-0.085881	0.741921
H83	H	1.673317	0.347027	0.000005
N84	N	1.646159	0.086434	0.604383
H85	H	1.659959	0.094907	0.675672
H86	H	1.653287	0.148731	0.586817
N87	N	1.474582	-0.018993	0.708866
H88	H	1.413307	0.001274	0.733089
H89	H	1.565742	0.036974	0.732976
N90	N	1.687161	0.111630	0.453621
H91	H	1.700960	0.120099	0.524910
H92	H	1.694301	0.173932	0.436061
