data_functionalizedCrystal
_audit_creation_method	'MofGen! by Chris Wilmer'
_symmetry_space_group_name_H-M	'P1'
_symmetry_Int_Tables_number	1
_symmetry_cell_setting	triclinic
loop_
_symmetry_equiv_pos_as_xyz
  x,y,z
_cell_length_a	10.654550
_cell_length_b	12.503572
_cell_length_c	10.654550
_cell_angle_alpha	86.442489
_cell_angle_beta	84.484931
_cell_angle_gamma	93.549232
loop_
_atom_site_label
_atom_site_type_symbol
_atom_site_fract_x
_atom_site_fract_y
_atom_site_fract_z
O1	O	1.675014	0.089240	0.169203
O2	O	2.175014	0.589240	0.669203
O3	O	1.309537	0.089259	0.186007
O4	O	1.809537	0.589259	0.686007
O5	O	1.500678	0.089242	-0.005133
O6	O	2.000678	0.589242	0.494867
O7	O	1.483873	0.089257	0.360344
O8	O	1.983873	0.589257	0.860344
O9	O	1.486303	-0.089398	0.009266
O10	O	1.986303	0.410602	0.509266
O11	O	1.295162	-0.089381	0.200406
O12	O	1.795162	0.410619	0.700406
O13	O	1.660639	-0.089401	0.183602
O14	O	2.160639	0.410599	0.683602
Cu15	Cu	1.476588	-0.105702	0.193319
Cu16	Cu	1.976588	0.394298	0.693319
Cu17	Cu	1.493588	0.105561	0.176291
Cu18	Cu	1.993588	0.605561	0.676291
O19	O	1.469498	-0.089384	0.374743
O20	O	1.969498	0.410616	0.874743
C21	C	1.255552	-0.000058	0.191973
C22	C	1.755552	0.499942	0.691973
C23	C	1.116109	-0.000051	0.188280
C24	C	1.616109	0.499949	0.688280
N25	N	1.464640	-0.254294	0.205295
N26	N	1.964640	0.245706	0.705295
C27	C	1.036624	-0.000050	0.300822
C28	C	1.536624	0.499950	0.800822
C29	C	0.905601	-0.000068	0.297347
C30	C	1.405601	0.499932	0.797347
C31	C	0.933563	-0.000086	0.068779
C32	C	1.433563	0.499914	0.568779
C33	C	1.064582	-0.000074	0.072256
C34	C	1.564582	0.499926	0.572256
C35	C	1.447065	-0.473407	0.222923
C36	C	1.947065	0.026593	0.722923
C37	C	1.523117	-0.526741	0.146681
C38	C	2.023117	-0.026741	0.646681
C39	C	1.513337	-0.648663	0.156489
C40	C	2.013337	-0.148663	0.656489
C41	C	1.456843	-0.351474	0.213116
C42	C	1.956843	0.148526	0.713116
C43	C	1.714624	-0.000081	0.177636
C44	C	2.214624	0.499919	0.677636
C45	C	1.854068	-0.000081	0.181328
C46	C	2.354068	0.499919	0.681328
C47	C	1.492256	-0.000077	-0.044732
C48	C	1.992256	0.499923	0.455268
C49	C	1.488565	-0.000075	-0.184175
C50	C	1.988565	0.499925	0.315825
N51	N	1.505545	0.254152	0.164304
N52	N	2.005545	0.754152	0.664304
C53	C	1.601106	-0.000081	-0.263661
C54	C	2.101106	0.499919	0.236339
C55	C	1.597630	-0.000068	-0.394682
C56	C	2.097630	0.499932	0.105318
C57	C	1.369063	-0.000048	-0.366721
C58	C	1.869063	0.499952	0.133279
C59	C	1.372540	-0.000053	-0.235702
C60	C	1.872540	0.499947	0.264298
C61	C	1.477920	-0.000062	0.414341
C62	C	1.977920	0.499938	0.914341
C63	C	1.481612	-0.000057	0.553784
C64	C	1.981612	0.499943	1.053784
H65	H	1.078571	-0.000039	0.395297
H66	H	1.578571	0.499961	0.895297
H67	H	0.840888	-0.000070	0.388990
H68	H	1.340888	0.499930	0.888990
H69	H	1.595571	-0.480835	0.074042
H70	H	2.095571	0.019165	0.574042
H71	H	0.891593	-0.000111	-0.025684
H72	H	1.391593	0.499889	0.474316
F73	F	1.724589	-0.000103	-0.208826
F74	F	2.224589	0.499897	0.291174
F75	F	1.149182	-0.000083	-0.047533
F76	F	1.649182	0.499917	0.452467
H77	H	1.374617	-0.519308	0.295559
H78	H	1.874617	-0.019308	0.795559
H79	H	1.689273	-0.000070	-0.459395
H80	H	2.189273	0.499930	0.040605
F81	F	1.245587	-0.000024	-0.421571
F82	F	1.745587	0.499976	0.078429
F83	F	1.252752	-0.000039	-0.151103
F84	F	1.752752	0.499961	0.348897
