data_functionalizedCrystal
_audit_creation_method	'MofGen! by Chris Wilmer'
_symmetry_space_group_name_H-M	'P1'
_symmetry_Int_Tables_number	1
_symmetry_cell_setting	triclinic
loop_
_symmetry_equiv_pos_as_xyz
  x,y,z
_cell_length_a	11.792241
_cell_length_b	10.654541
_cell_length_c	10.868271
_cell_angle_alpha	90.002963
_cell_angle_beta	89.999850
_cell_angle_gamma	95.661328
loop_
_atom_site_label
_atom_site_type_symbol
_atom_site_fract_x
_atom_site_fract_y
_atom_site_fract_z
O1	O	-0.159408	1.667393	0.102270
O2	O	0.340592	2.167393	0.602270
O3	O	-0.174599	1.301871	0.102279
O4	O	0.325401	1.801871	0.602279
O5	O	-0.001853	1.493502	0.102281
O6	O	0.498147	1.993502	0.602281
O7	O	-0.332153	1.475761	0.102267
O8	O	0.167847	1.975761	0.602267
O9	O	-0.001846	1.493486	-0.102363
O10	O	0.498154	1.993486	0.397637
O11	O	-0.174592	1.301855	-0.102366
O12	O	0.325408	1.801855	0.397634
O13	O	-0.159401	1.667377	-0.102375
O14	O	0.340599	2.167377	0.397625
Zn15	Zn	-0.166995	1.484613	-0.134862
Zn16	Zn	0.333005	1.984613	0.365138
Zn17	Zn	-0.167004	1.484634	0.134766
Zn18	Zn	0.332996	1.984634	0.634766
O19	O	-0.332146	1.475746	-0.102378
O20	O	0.167854	1.975746	0.397622
C21	C	-0.173481	1.255068	-0.000042
C22	C	0.326519	1.755068	0.499958
C23	C	-0.170145	1.115634	-0.000038
C24	C	0.329855	1.615634	0.499962
C25	C	-0.376710	1.087078	-0.000031
C26	C	0.123290	1.587078	0.499969
C27	C	-0.478420	1.007297	-0.000023
C28	C	0.021580	1.507297	0.499977
C29	C	-0.475279	0.876287	-0.000022
C30	C	0.024721	1.376287	0.499978
C31	C	-0.370416	0.825059	-0.000032
C32	C	0.129584	1.325059	0.499968
C33	C	-0.268706	0.904841	-0.000041
C34	C	0.231294	1.404841	0.499959
C35	C	-0.271858	1.035851	-0.000038
C36	C	0.228142	1.535851	0.499962
C37	C	-0.062144	0.933396	-0.000056
C38	C	0.437856	1.433396	0.499944
C39	C	-0.065282	1.064405	-0.000048
C40	C	0.434718	1.564405	0.499952
C41	C	0.042719	0.882167	-0.000066
C42	C	0.542719	1.382167	0.499934
C43	C	0.144432	0.961949	-0.000066
C44	C	0.644432	1.461949	0.499934
C45	C	0.141286	1.092966	-0.000066
C46	C	0.641286	1.592966	0.499934
C47	C	0.036428	1.144187	-0.000057
C48	C	0.536428	1.644187	0.499943
C49	C	-0.374443	1.476868	-0.000057
C50	C	0.125557	1.976868	0.499943
C51	C	-0.500465	1.480203	-0.000062
C52	C	-0.000465	1.980203	0.499938
C53	C	-0.731191	1.486336	-0.000032
C54	C	-0.231191	1.986336	0.499968
C55	C	-0.602798	1.482929	-0.000049
C56	C	-0.102798	1.982929	0.499951
C57	C	0.040444	1.492380	-0.000036
C58	C	0.540444	1.992380	0.499964
C59	C	0.166465	1.489044	-0.000023
C60	C	0.666465	1.989044	0.499977
C61	C	-0.160519	1.714180	-0.000051
C62	C	0.339481	2.214180	0.499949
C63	C	-0.163854	1.853614	-0.000048
C64	C	0.336146	2.353614	0.499952
N65	N	-0.166988	1.484608	-0.318876
N66	N	0.333012	1.984608	0.181124
C67	C	-0.167002	1.484628	-0.569882
C68	C	0.332998	1.984628	-0.069882
C69	C	-0.166998	1.484613	-0.430205
C70	C	0.333002	1.984613	0.069795
N71	N	-0.167002	1.484649	0.318780
N72	N	0.332998	1.984649	0.818780
H73	H	0.045269	0.775491	-0.000072
H74	H	0.545269	1.275491	0.499928
H75	H	-0.563797	1.049022	-0.000018
H76	H	-0.063797	1.549022	0.499982
H77	H	-0.558101	0.811328	-0.000024
H78	H	-0.058101	1.311328	0.499976
H79	H	0.229803	0.920227	-0.000074
H80	H	0.729803	1.420227	0.499926
H81	H	0.224112	1.157918	-0.000077
H82	H	0.724112	1.657918	0.499923
H83	H	-0.379277	1.193752	-0.000005
H84	H	0.120723	1.693752	0.499995
H85	H	-0.367868	0.718383	-0.000046
H86	H	0.132132	1.218383	0.499954
F87	F	0.033072	1.283617	-0.000049
F88	F	0.533072	1.783617	0.499951
