data_functionalizedCrystal
_audit_creation_method	'MofGen! by Chris Wilmer'
_symmetry_space_group_name_H-M	'P1'
_symmetry_Int_Tables_number	1
_symmetry_cell_setting	triclinic
loop_
_symmetry_equiv_pos_as_xyz
  x,y,z
_cell_length_a	11.169417
_cell_length_b	12.759394
_cell_length_c	11.169417
_cell_angle_alpha	90.005934
_cell_angle_beta	90.003400
_cell_angle_gamma	90.015105
loop_
_atom_site_label
_atom_site_type_symbol
_atom_site_fract_x
_atom_site_fract_y
_atom_site_fract_z
Zn1	Zn	1.834742	-0.418425	0.678528
Zn2	Zn	2.334742	0.081575	1.178528
Zn3	Zn	1.834676	-0.594069	0.477843
Zn4	Zn	2.334676	-0.094069	0.977843
Zn5	Zn	1.634084	-0.418408	0.477864
Zn6	Zn	2.134084	0.081592	0.977864
Zn7	Zn	1.634023	-0.594067	0.678489
Zn8	Zn	2.134023	-0.094067	1.178489
O9	O	1.734381	-0.506242	0.578181
O10	O	2.234381	-0.006242	1.078181
O11	O	2.002683	-0.441733	0.651915
O12	O	2.502683	0.058267	1.151915
O13	O	1.808065	-0.570760	0.309896
O14	O	2.308065	-0.070760	0.809896
O15	O	1.660756	-0.271389	0.504507
O16	O	2.160756	0.228611	1.004507
O17	O	2.002634	-0.570777	0.504472
O18	O	2.502634	-0.070777	1.004472
O19	O	1.808178	-0.271402	0.651934
O20	O	2.308178	0.228598	1.151934
O21	O	1.660691	-0.441703	0.309911
O22	O	2.160691	0.058297	0.809911
O23	O	1.466127	-0.441701	0.504469
O24	O	1.966127	0.058299	1.004469
O25	O	1.660651	-0.570774	0.846444
O26	O	2.160651	-0.070774	1.346444
O27	O	1.466082	-0.570757	0.651868
O28	O	1.966082	-0.070757	1.151868
O29	O	1.808118	-0.441731	0.846473
O30	O	2.308118	0.058269	1.346473
O31	O	1.808005	-0.741089	0.504435
O32	O	2.308005	-0.241089	1.004435
O33	O	1.660587	-0.741088	0.651848
O34	O	2.160587	-0.241088	1.151848
C35	C	1.422557	-0.506228	0.578167
C36	C	1.922557	-0.006228	1.078167
C37	C	1.289157	-0.506247	0.578190
C38	C	1.789157	-0.006247	1.078190
C39	C	1.734315	-0.779210	0.578161
C40	C	2.234315	-0.279210	1.078161
C41	C	1.734396	-0.895986	0.578193
C42	C	2.234396	-0.395986	1.078193
C43	C	1.887792	-0.895841	0.731824
C44	C	2.387792	-0.395841	1.231824
C45	C	1.964528	-0.950630	0.808649
C46	C	2.464528	-0.450630	1.308649
C47	C	1.964599	-1.060351	0.808675
C48	C	2.464599	-0.560351	1.308675
C49	C	1.887924	-1.115287	0.731870
C50	C	2.387924	-0.615287	1.231870
C51	C	1.811188	-1.060499	0.655046
C52	C	2.311188	-0.560499	1.155046
C53	C	1.811127	-0.950775	0.655025
C54	C	2.311127	-0.450775	1.155025
C55	C	1.657788	-1.060644	0.501422
C56	C	2.157788	-0.560644	1.001422
C57	C	1.657721	-0.950922	0.501388
C58	C	2.157721	-0.450922	1.001388
C59	C	1.581112	-1.115579	0.424618
C60	C	2.081112	-0.615579	0.924618
C61	C	1.504381	-1.060791	0.347785
C62	C	2.004381	-0.560791	0.847785
C63	C	1.504314	-0.951063	0.347762
C64	C	2.004314	-0.451063	0.847762
C65	C	1.580985	-0.896134	0.424564
C66	C	2.080985	-0.396134	0.924564
C67	C	2.047424	-0.506257	0.578196
C68	C	2.547424	-0.006257	1.078196
C69	C	2.180824	-0.506263	0.578202
C70	C	2.680824	-0.006263	1.078202
C71	C	1.734385	-0.506254	0.891223
C72	C	2.234385	-0.006254	1.391223
C73	C	1.734387	-0.506259	1.024623
C74	C	2.234387	-0.006259	1.524623
C75	C	1.734481	-0.232209	0.578227
C76	C	2.234481	0.267791	1.078227
C77	C	1.734523	-0.115432	0.578247
C78	C	2.234523	0.384568	1.078247
C79	C	1.734372	-0.506257	1.266356
C80	C	2.234372	-0.006257	1.766356
C81	C	1.734383	-0.506263	1.132956
C82	C	2.234383	-0.006263	1.632956
H83	H	1.887753	-0.806500	0.731799
H84	H	2.387753	-0.306500	1.231799
H85	H	2.026954	-0.905891	0.871185
H86	H	2.526954	-0.405891	1.371185
F87	F	2.046265	-1.118663	0.890443
F88	F	2.546265	-0.618663	1.390443
H89	H	1.580943	-0.806793	0.424547
H90	H	2.080943	-0.306793	0.924547
H91	H	1.887978	-1.204628	0.731908
H92	H	2.387978	-0.704628	1.231908
H93	H	1.441821	-0.906460	0.285207
H94	H	1.941821	-0.406460	0.785207
F95	F	1.581318	-1.232355	0.424520
F96	F	2.081318	-0.732355	0.924520
H97	H	1.441952	-1.105528	0.285263
H98	H	1.941952	-0.605528	0.785263
