data_functionalizedCrystal
_audit_creation_method	'MofGen! by Chris Wilmer'
_symmetry_space_group_name_H-M	'P1'
_symmetry_Int_Tables_number	1
_symmetry_cell_setting	triclinic
loop_
_symmetry_equiv_pos_as_xyz
  x,y,z
_cell_length_a	27.732064
_cell_length_b	27.731996
_cell_length_c	26.210047
_cell_angle_alpha	90.010646
_cell_angle_beta	90.008789
_cell_angle_gamma	82.635407
loop_
_atom_site_label
_atom_site_type_symbol
_atom_site_fract_x
_atom_site_fract_y
_atom_site_fract_z
O1	O	0.640920	0.057556	0.042344
O2	O	1.140920	0.557556	0.542344
O3	O	0.500126	0.066293	0.042366
O4	O	1.000126	0.566293	0.542366
O5	O	0.574908	-0.008474	0.042344
O6	O	1.074908	0.491526	0.542344
O7	O	0.566137	0.132322	0.042367
O8	O	1.066137	0.632322	0.542367
O9	O	0.574885	-0.008474	-0.042514
O10	O	1.074885	0.491526	0.457486
O11	O	0.500102	0.066293	-0.042492
O12	O	1.000102	0.566293	0.457508
O13	O	0.640896	0.057556	-0.042514
O14	O	1.140896	0.557556	0.457486
Cu15	Cu	0.570497	0.061924	-0.050251
Cu16	Cu	1.070497	0.561924	0.449749
Cu17	Cu	0.570525	0.061924	0.050104
Cu18	Cu	1.070525	0.561924	0.550104
O19	O	0.566113	0.132322	-0.042491
O20	O	1.066113	0.632322	0.457509
C21	C	0.482107	0.066108	-0.000060
C22	C	0.982107	0.566108	0.499940
C23	C	0.428453	0.065552	-0.000052
C24	C	0.928453	0.565552	0.499948
C25	C	0.574717	-0.026482	-0.000087
C26	C	1.074717	0.473518	0.499913
C27	C	0.574174	-0.080138	-0.000092
C28	C	1.074174	0.419862	0.499908
C29	C	0.051389	0.017584	-0.000089
C30	C	0.551389	0.517584	0.499911
C31	C	0.253049	0.019630	-0.000076
C32	C	0.753049	0.519630	0.499924
O33	O	0.284309	-0.017592	-0.000101
O34	O	0.784309	0.482408	0.499899
N35	N	0.272168	0.063966	-0.000066
N36	N	0.772168	0.563966	0.499934
C37	C	0.240869	0.107793	-0.000063
C38	C	0.740869	0.607793	0.499937
O39	O	0.261758	0.145549	-0.000060
O40	O	0.761758	0.645549	0.499940
C41	C	0.039210	0.105746	-0.000080
C42	C	0.539210	0.605746	0.499920
C43	C	0.020094	0.061407	-0.000085
C44	C	0.520094	0.561407	0.499915
C45	C	0.032272	-0.026751	-0.000094
C46	C	0.532272	0.473249	0.499906
C47	C	-0.018140	-0.027262	-0.000095
C48	C	0.481860	0.472738	0.499905
C49	C	-0.049435	0.016562	-0.000090
C50	C	0.450565	0.516562	0.499910
C51	C	-0.030318	0.060896	-0.000085
C52	C	0.469682	0.560896	0.499915
C53	C	0.007912	0.149572	-0.000081
C54	C	0.507912	0.649572	0.499919
C55	C	-0.042506	0.149057	-0.000087
C56	C	0.457494	0.649057	0.499913
C57	C	-0.061622	0.104718	-0.000091
C58	C	0.438378	0.604718	0.499909
C59	C	-0.112026	0.104209	-0.000082
C60	C	0.387974	0.604209	0.499918
N61	N	-0.131145	0.059873	-0.000091
N62	N	0.368855	0.559873	0.499909
C63	C	-0.099849	0.016050	-0.000096
C64	C	0.400151	0.516050	0.499904
C65	C	0.346743	0.108864	-0.000053
C66	C	0.846743	0.608864	0.499947
C67	C	0.397158	0.109376	-0.000048
C68	C	0.897158	0.609376	0.499952
C69	C	0.409334	0.021213	-0.000061
C70	C	0.909334	0.521213	0.499939
C71	C	0.358919	0.020702	-0.000063
C72	C	0.858919	0.520702	0.499937
C73	C	0.327624	0.064529	-0.000063
C74	C	0.827624	0.564529	0.499937
C75	C	-0.205719	0.014980	-0.000096
C76	C	0.294281	0.514980	0.499904
C77	C	-0.256136	0.014473	-0.000095
C78	C	0.243864	0.514473	0.499905
C79	C	-0.268308	0.102635	-0.000084
C80	C	0.231692	0.602635	0.499916
C81	C	-0.217895	0.103142	-0.000083
C82	C	0.282105	0.603142	0.499917
C83	C	-0.186601	0.059311	-0.000091
C84	C	0.313399	0.559311	0.499909
O85	O	-0.143313	0.141411	-0.000062
O86	O	0.356687	0.641411	0.499938
O87	O	-0.120748	-0.021702	-0.000110
O88	O	0.379252	0.478298	0.499890
C89	C	0.101801	0.018095	-0.000089
C90	C	0.601801	0.518095	0.499911
C91	C	0.120918	0.062430	-0.000083
C92	C	0.620918	0.562430	0.499917
C93	C	0.089623	0.106253	-0.000079
C94	C	0.589623	0.606253	0.499921
C95	C	0.171332	0.062941	-0.000078
C96	C	0.671332	0.562941	0.499922
C97	C	0.202628	0.019118	-0.000083
C98	C	0.702628	0.519118	0.499917
C99	C	0.183508	-0.025218	-0.000092
C100	C	0.683508	0.474782	0.499908
C101	C	0.133096	-0.025729	-0.000093
C102	C	0.633096	0.474271	0.499907
C103	C	0.108742	0.150589	-0.000069
C104	C	0.608742	0.650589	0.499931
C105	C	0.159154	0.151096	-0.000068
C106	C	0.659154	0.651096	0.499932
C107	C	0.190450	0.107273	-0.000073
C108	C	0.690450	0.607273	0.499927
C109	C	0.570772	-0.412854	0.046189
C110	C	1.070772	0.087146	0.546189
C111	C	0.568711	-0.614513	0.046199
C112	C	1.068711	-0.114513	0.546199
O113	O	0.568434	-0.640583	0.085538
O114	O	1.068434	-0.140583	0.585538
N115	N	0.568442	-0.639730	-0.000057
N116	N	1.068442	-0.139730	0.499943
C117	C	0.568686	-0.614529	-0.046318
C118	C	1.068686	-0.114529	0.453682
O119	O	0.568405	-0.640604	-0.085661
O120	O	1.068405	-0.140604	0.414339
C121	C	0.570743	-0.412871	-0.046327
C122	C	1.070743	0.087129	0.453673
C123	C	0.571017	-0.387657	-0.000068
C124	C	1.071017	0.112343	0.499932
C125	C	0.571045	-0.387640	0.092444
C126	C	1.071045	0.112360	0.592444
C127	C	0.571563	-0.337229	0.092442
C128	C	1.071563	0.162771	0.592442
C129	C	0.571808	-0.312032	0.046184
C130	C	1.071808	0.187968	0.546184
C131	C	0.571535	-0.337246	-0.000071
C132	C	1.071535	0.162754	0.499929
C133	C	0.570983	-0.387670	-0.092588
C134	C	1.070983	0.112330	0.407412
C135	C	0.571496	-0.337253	-0.092586
C136	C	1.071496	0.162747	0.407414
C137	C	0.571770	-0.312039	-0.046327
C138	C	1.071770	0.187961	0.453673
C139	C	0.572297	-0.261637	-0.046332
C140	C	1.072297	0.238363	0.453668
N141	N	0.572566	-0.236420	-0.000076
N142	N	1.072566	0.263580	0.499924
C143	C	0.572321	-0.261618	0.046182
C144	C	1.072321	0.238382	0.546182
C145	C	0.567606	-0.720402	-0.046310
C146	C	1.067606	-0.220402	0.453690
C147	C	0.567093	-0.770817	-0.046308
C148	C	1.067093	-0.270817	0.453692
C149	C	0.567117	-0.770797	0.046209
C150	C	1.067117	-0.270797	0.546209
C151	C	0.567634	-0.720382	0.046206
C152	C	1.067634	-0.220382	0.546206
C153	C	0.567875	-0.695185	-0.000055
C154	C	1.067875	-0.195185	0.499945
C155	C	0.573409	-0.155750	0.046172
C156	C	1.073409	0.344250	0.546172
C157	C	0.573929	-0.105335	0.046166
C158	C	1.073929	0.394665	0.546166
C159	C	0.573902	-0.105359	-0.046351
C160	C	1.073902	0.394641	0.453649
C161	C	0.573385	-0.155770	-0.046345
C162	C	1.073385	0.344230	0.453655
C163	C	0.573137	-0.180964	-0.000079
C164	C	1.073137	0.319036	0.499921
O165	O	0.572568	-0.235535	-0.085650
O166	O	1.072568	0.264465	0.414350
O167	O	0.572591	-0.235532	0.085519
O168	O	1.072591	0.264468	0.585519
C169	C	0.570254	-0.463265	0.046192
C170	C	1.070254	0.036735	0.546192
C171	C	0.569981	-0.488479	-0.000063
C172	C	1.069981	0.011521	0.499937
C173	C	0.570226	-0.463282	-0.046320
C174	C	1.070226	0.036718	0.453680
C175	C	0.569467	-0.538894	-0.000061
C176	C	1.069467	-0.038894	0.499939
C177	C	0.569223	-0.564091	0.046197
C178	C	1.069223	-0.064091	0.546197
C179	C	0.569491	-0.538874	0.092453
C180	C	1.069491	-0.038874	0.592453
C181	C	0.570009	-0.488463	0.092450
C182	C	1.070009	0.011537	0.592450
C183	C	0.569957	-0.488499	-0.092576
C184	C	1.069957	0.011501	0.407424
C185	C	0.569440	-0.538911	-0.092569
C186	C	1.069440	-0.038911	0.407431
C187	C	0.569195	-0.564108	-0.046312
C188	C	1.069195	-0.064108	0.453688
C189	C	0.658915	0.057740	-0.000086
C190	C	1.158915	0.557740	0.499914
C191	C	0.712569	0.058296	-0.000091
C192	C	1.212569	0.558296	0.499909
C193	C	0.566305	0.150330	-0.000059
C194	C	1.066305	0.650330	0.499941
C195	C	0.566848	0.203986	-0.000051
C196	C	1.066848	0.703986	0.499949
N197	N	0.570481	0.061924	-0.120835
N198	N	1.070481	0.561924	0.379165
C199	C	0.599611	0.091037	-0.473349
C200	C	1.099611	0.591037	0.026651
C201	C	0.599625	0.091037	-0.687007
C202	C	1.099625	0.591037	-0.187007
O203	O	0.624381	0.115785	-0.714629
O204	O	1.124381	0.615785	-0.214629
N205	N	0.570536	0.061919	-0.713729
N206	N	1.070536	0.561919	-0.213729
C207	C	0.541444	0.032797	-0.687032
C208	C	1.041444	0.532797	-0.187032
O209	O	0.516706	0.008027	-0.714663
O210	O	1.016706	0.508027	-0.214663
C211	C	0.541433	0.032795	-0.473375
C212	C	1.041433	0.532795	0.026625
C213	C	0.570520	0.061919	-0.446656
C214	C	1.070520	0.561919	0.053344
C215	C	0.628696	0.120158	-0.446630
C216	C	1.128696	0.620158	0.053370
C217	C	0.628690	0.120160	-0.393218
C218	C	1.128690	0.620160	0.106782
C219	C	0.599599	0.091041	-0.366526
C220	C	1.099599	0.591041	0.133474
C221	C	0.570514	0.061920	-0.393244
C222	C	1.070514	0.561920	0.106756
C223	C	0.512343	0.003671	-0.446679
C224	C	1.012343	0.503671	0.053321
C225	C	0.512344	0.003672	-0.393261
C226	C	1.012344	0.503672	0.106739
C227	C	0.541431	0.032795	-0.366543
C228	C	1.041431	0.532795	0.133457
C229	C	0.541417	0.032803	-0.313140
C230	C	1.041417	0.532803	0.186860
N231	N	0.570506	0.061921	-0.286419
N232	N	1.070506	0.561921	0.213581
C233	C	0.599597	0.091040	-0.313111
C234	C	1.099597	0.591040	0.186889
C235	C	0.541451	0.032801	-0.799206
C236	C	1.041451	0.532801	-0.299206
C237	C	0.541453	0.032802	-0.852620
C238	C	1.041453	0.532802	-0.352620
C239	C	0.599636	0.091041	-0.852591
C240	C	1.099636	0.591041	-0.352591
C241	C	0.599630	0.091042	-0.799176
C242	C	1.099630	0.591042	-0.299176
C243	C	0.570540	0.061919	-0.772484
C244	C	1.070540	0.561919	-0.272484
C245	C	0.599582	0.091042	-0.200944
C246	C	1.099582	0.591042	0.299056
C247	C	0.599572	0.091043	-0.147527
C248	C	1.099572	0.591043	0.352473
C249	C	0.541392	0.032802	-0.147561
C250	C	1.041392	0.532802	0.352439
C251	C	0.541400	0.032803	-0.200972
C252	C	1.041400	0.532803	0.299028
C253	C	0.570499	0.061924	-0.227662
C254	C	1.070499	0.561924	0.272338
O255	O	0.516678	0.008064	-0.285486
O256	O	1.016678	0.508064	0.214514
O257	O	0.624340	0.115798	-0.285471
O258	O	1.124340	0.615798	0.214529
C259	C	0.599617	0.091036	-0.526760
C260	C	1.099617	0.591036	-0.026760
C261	C	0.570532	0.061915	-0.553479
C262	C	1.070532	0.561915	-0.053479
C263	C	0.541440	0.032796	-0.526786
C264	C	1.041440	0.532796	-0.026786
C265	C	0.570534	0.061916	-0.606893
C266	C	1.070534	0.561916	-0.106893
C267	C	0.599625	0.091035	-0.633586
C268	C	1.099625	0.591035	-0.133586
C269	C	0.628714	0.120153	-0.606864
C270	C	1.128714	0.620153	-0.106864
C271	C	0.628708	0.120154	-0.553453
C272	C	1.128708	0.620154	-0.053453
C273	C	0.512351	0.003678	-0.553508
C274	C	1.012351	0.503678	-0.053508
C275	C	0.512359	0.003679	-0.606919
C276	C	1.012359	0.503679	-0.106919
C277	C	0.541450	0.032798	-0.633612
C278	C	1.041450	0.532798	-0.133612
N279	N	0.570545	0.061921	0.120688
N280	N	1.070545	0.561921	0.620688
H281	H	-0.271697	-0.021635	-0.000097
H282	H	0.228303	0.478365	0.499903
H283	H	0.566877	-0.791342	-0.083977
H284	H	1.066877	-0.291342	0.416023
H285	H	0.623259	0.114761	-0.125775
H286	H	1.123259	0.614761	0.374225
H287	H	0.174713	0.187204	-0.000061
H288	H	0.674713	0.687204	0.499939
Cl289	Cl	0.570261	-0.456830	-0.150735
Cl290	Cl	1.070261	0.043170	0.349265
H291	H	-0.180245	-0.020712	-0.000103
H292	H	0.319755	0.479288	0.499897
H293	H	0.321266	0.144555	-0.000052
H294	H	0.821266	0.644555	0.499948
Cl295	Cl	0.573098	-0.187416	0.104336
Cl296	Cl	1.073098	0.312584	0.604336
H297	H	0.623316	0.114758	-0.777425
H298	H	1.123316	0.614758	-0.277425
Cl299	Cl	0.475767	-0.032924	-0.519959
Cl300	Cl	0.975767	0.467076	-0.019959
H301	H	0.652394	0.143870	-0.531703
H302	H	1.152394	0.643870	-0.031703
Cl303	Cl	-0.042163	-0.083005	-0.000096
Cl304	Cl	0.457837	0.416995	0.499904
Cl305	Cl	0.222861	-0.080309	-0.000096
Cl306	Cl	0.722861	0.419691	0.499904
H307	H	-0.293798	0.138315	-0.000078
H308	H	0.206202	0.638315	0.499922
Cl309	Cl	0.071607	-0.081851	-0.000100
Cl310	Cl	0.571607	0.418149	0.499900
Cl311	Cl	0.334893	-0.035040	-0.000071
Cl312	Cl	0.834893	0.464960	0.499929
Cl313	Cl	0.448686	-0.033879	-0.000067
Cl314	Cl	0.948686	0.466121	0.499933
Cl315	Cl	0.574274	-0.073641	0.104324
Cl316	Cl	1.074274	0.426359	0.604324
Cl317	Cl	-0.193863	0.158882	-0.000071
Cl318	Cl	0.306137	0.658882	0.499929
Cl319	Cl	0.570636	-0.419355	-0.150745
Cl320	Cl	1.070636	0.080645	0.349255
H321	H	0.571685	-0.316739	-0.130258
H322	H	1.071685	0.183261	0.369742
H323	H	0.652399	0.143865	-0.628607
H324	H	1.152399	0.643865	-0.128607
H325	H	0.412717	0.145480	-0.000037
H326	H	0.912717	0.645480	0.499963
H327	H	0.652388	0.143870	-0.468357
H328	H	1.152388	0.643870	0.031643
H329	H	0.023467	0.185677	-0.000075
H330	H	0.523467	0.685677	0.499925
H331	H	-0.067984	0.184746	-0.000089
H332	H	0.432016	0.684746	0.499911
H333	H	0.117537	-0.061833	-0.000097
H334	H	0.617537	0.438167	0.499903
H335	H	0.083265	0.186276	-0.000066
H336	H	0.583265	0.686276	0.499934
Cl337	Cl	0.571902	-0.305539	0.150599
Cl338	Cl	1.071902	0.194461	0.650599
H339	H	0.488668	-0.020035	-0.628669
H340	H	0.988668	0.479965	-0.128669
H341	H	0.567856	-0.699856	0.083874
H342	H	1.067856	-0.199856	0.583874
Cl343	Cl	0.570738	-0.419308	0.150605
Cl344	Cl	1.070738	0.080692	0.650605
H345	H	0.623278	0.114755	-0.222668
H346	H	1.123278	0.614755	0.277332
Cl347	Cl	0.569098	-0.570602	-0.150730
Cl348	Cl	1.069098	-0.070602	0.349270
H349	H	0.652378	0.143873	-0.371469
H350	H	1.152378	0.643873	0.128531
H351	H	0.517762	0.009092	-0.874370
H352	H	1.017762	0.509092	-0.374370
Cl353	Cl	0.636209	0.127646	-0.886157
Cl354	Cl	1.136209	0.627646	-0.386157
Cl355	Cl	0.566807	-0.802482	0.104361
Cl356	Cl	1.066807	-0.302482	0.604361
Cl357	Cl	0.573050	-0.187470	-0.104499
Cl358	Cl	1.073050	0.312530	0.395501
Cl359	Cl	0.567907	-0.688733	-0.104473
Cl360	Cl	1.067907	-0.188733	0.395527
H361	H	0.488658	-0.020045	-0.468425
H362	H	0.988658	0.479955	0.031575
Cl363	Cl	0.504867	-0.003806	-0.765658
Cl364	Cl	1.004867	0.496194	-0.265658
Cl365	Cl	0.475775	-0.032947	-0.359710
Cl366	Cl	0.975775	0.467053	0.140290
H367	H	0.517709	0.009094	-0.222728
H368	H	1.017709	0.509094	0.277272
Cl369	Cl	0.504822	-0.003802	-0.113994
Cl370	Cl	1.004822	0.496198	0.386006
H371	H	0.574104	-0.084834	-0.084013
H372	H	1.074104	0.415166	0.415987
H373	H	0.569294	-0.559399	0.130117
H374	H	1.069294	-0.059399	0.630117
Cl375	Cl	0.570352	-0.456773	0.150607
Cl376	Cl	1.070352	0.043227	0.650607
