data_functionalizedCrystal
_audit_creation_method	'MofGen! by Chris Wilmer'
_symmetry_space_group_name_H-M	'P1'
_symmetry_Int_Tables_number	1
_symmetry_cell_setting	triclinic
loop_
_symmetry_equiv_pos_as_xyz
  x,y,z
_cell_length_a	16.992694
_cell_length_b	13.339070
_cell_length_c	16.053802
_cell_angle_alpha	93.267614
_cell_angle_beta	87.249047
_cell_angle_gamma	103.148759
loop_
_atom_site_label
_atom_site_type_symbol
_atom_site_fract_x
_atom_site_fract_y
_atom_site_fract_z
O1	O	1.090314	0.214289	-0.069315
O2	O	0.861508	0.211892	-0.069340
O3	O	0.949651	0.063704	-0.069328
O4	O	1.002170	0.362477	-0.069327
O5	O	0.944792	0.071825	0.069530
O6	O	0.856649	0.220013	0.069518
O7	O	1.085454	0.222410	0.069543
Zn8	Zn	0.970280	0.222501	0.091577
Zn9	Zn	0.976682	0.211801	-0.091374
O10	O	0.997311	0.370598	0.069531
C11	C	0.829196	0.212871	0.000086
C12	C	0.740151	0.203676	0.000076
C13	C	0.709211	0.292389	0.000077
C14	C	0.625543	0.283745	0.000089
C15	C	0.572817	0.186385	0.000093
C16	C	0.603763	0.097665	0.000095
C17	C	0.687429	0.106311	0.000090
C18	C	0.321423	0.150552	0.000116
C19	C	0.237752	0.141912	0.000119
C20	C	0.259538	0.327993	0.000114
C21	C	0.343205	0.336630	0.000103
C22	C	0.374143	0.247910	0.000109
N23	N	0.487295	0.177547	0.000103
N24	N	0.459663	0.256750	0.000106
C25	C	0.938350	0.029358	0.000099
C26	C	0.911906	-0.085082	0.000093
C27	C	1.117519	-0.433251	0.000116
C28	C	1.142367	-0.325729	0.000126
C29	C	1.084754	-0.265562	0.000118
C30	C	1.002289	-0.312928	0.000099
C31	C	0.977439	-0.420460	0.000095
C32	C	0.944673	-0.252771	0.000097
C33	C	0.862209	-0.300136	0.000078
C34	C	0.837363	-0.407658	0.000074
C35	C	0.894976	-0.467825	0.000082
C36	C	0.969524	-0.145239	0.000101
C37	C	0.829443	-0.132447	0.000080
C38	C	0.804596	-0.239970	0.000070
C39	C	1.117767	0.221431	0.000115
C40	C	1.206811	0.230626	0.000120
C41	C	1.008612	0.404944	0.000102
C42	C	1.035056	0.519384	0.000103
N43	N	0.965916	0.229803	0.216437
N44	N	0.981051	0.204492	-0.216234
C45	C	1.003445	0.166774	0.260136
C46	C	1.000402	0.171892	0.347543
C47	C	0.959834	0.240045	0.391248
C48	C	0.922300	0.303076	0.347543
C49	C	0.925339	0.297952	0.260138
C50	C	0.946555	0.262399	0.652656
C51	C	0.943522	0.267520	0.740067
C52	C	1.021623	0.136334	0.740060
C53	C	1.024662	0.131221	0.652654
C54	C	0.987124	0.194248	0.608956
N55	N	0.956725	0.245281	0.480592
N56	N	0.990229	0.189006	0.519615
H57	H	0.386130	0.415909	0.000090
Cl58	Cl	1.189936	-0.508891	0.000142
H59	H	0.915992	0.313720	0.617084
Cl60	Cl	0.878153	0.377189	0.205203
Cl61	Cl	0.757010	-0.056816	0.000075
H62	H	1.057695	0.075725	0.617071
H63	H	0.910485	0.323023	0.775648
Cl64	Cl	0.171467	0.019509	0.000143
H65	H	1.036667	-0.106684	0.000116
H66	H	0.560826	0.018394	0.000111
H67	H	0.737452	-0.278550	0.000055
H68	H	0.889264	0.358564	0.383133
H69	H	0.712618	0.034071	0.000088
H70	H	0.752136	0.371670	0.000073
H71	H	1.104990	-0.178013	0.000126
H72	H	0.346602	0.078309	0.000121
H73	H	0.874749	-0.555379	0.000071
H74	H	1.030961	0.120569	0.383122
Cl75	Cl	1.054453	0.081096	0.205201
H76	H	0.234339	0.400223	0.000111
Cl77	Cl	0.733692	-0.467201	0.000063
Cl78	Cl	0.586651	0.395276	0.000085
H79	H	1.209509	-0.287171	0.000142
Cl80	Cl	1.068806	0.057100	0.794998
