data_functionalizedCrystal
_audit_creation_method	'MofGen! by Chris Wilmer'
_symmetry_space_group_name_H-M	'P1'
_symmetry_Int_Tables_number	1
_symmetry_cell_setting	triclinic
loop_
_symmetry_equiv_pos_as_xyz
  x,y,z
_cell_length_a	14.044220
_cell_length_b	15.072220
_cell_length_c	15.995350
_cell_angle_alpha	89.998899
_cell_angle_beta	88.340626
_cell_angle_gamma	90.007881
loop_
_atom_site_label
_atom_site_type_symbol
_atom_site_fract_x
_atom_site_fract_y
_atom_site_fract_z
O1	O	1.257718	0.073680	0.201858
O2	O	1.757718	0.573680	0.701858
O3	O	0.981749	0.073703	0.194574
O4	O	1.481749	0.573703	0.694574
O5	O	1.127278	0.073690	0.076892
O6	O	1.627278	0.573690	0.576892
O7	O	1.112190	0.073693	0.319541
O8	O	1.612190	0.573693	0.819541
O9	O	1.127242	-0.073875	0.076897
O10	O	1.627242	0.426125	0.576897
O11	O	0.981713	-0.073862	0.194579
O12	O	1.481713	0.426138	0.694579
O13	O	1.257682	-0.073885	0.201863
O14	O	1.757682	0.426115	0.701863
Zn15	Zn	1.119692	-0.097303	0.198222
Zn16	Zn	1.619692	0.402697	0.698222
Zn17	Zn	1.119740	0.097121	0.198216
Zn18	Zn	1.619740	0.597121	0.698216
O19	O	1.112154	-0.073872	0.319545
O20	O	1.612154	0.426128	0.819545
C21	C	0.946417	-0.000077	0.191388
C22	C	1.446417	0.499923	0.691388
C23	C	0.841191	-0.000068	0.181877
C24	C	1.341191	0.499932	0.681877
N25	N	1.119667	-0.229992	0.198226
N26	N	1.619667	0.270008	0.698226
C27	C	0.648530	-0.000086	0.164489
C28	C	1.148530	0.499914	0.664489
C29	C	0.590896	-0.000089	0.231945
C30	C	1.090896	0.499911	0.731945
C31	C	0.483693	-0.000099	0.222270
C32	C	0.983693	0.499901	0.722270
C33	C	0.755743	-0.000076	0.174162
C34	C	1.255743	0.499924	0.674162
C35	C	1.119738	-0.589193	0.198212
C36	C	1.619738	-0.089193	0.698212
C37	C	1.041607	-0.551579	0.260931
C38	C	1.541607	-0.051579	0.760931
C39	C	1.041786	-0.448754	0.261195
C40	C	1.541786	0.051246	0.761195
C41	C	1.119702	-0.410989	0.198219
C42	C	1.619702	0.089011	0.698219
C43	C	1.218604	-0.448288	0.224687
C44	C	1.718604	0.051712	0.724687
C45	C	1.218166	-0.551146	0.225142
C46	C	1.718166	-0.051146	0.725142
C47	C	1.099848	-0.551292	0.108887
C48	C	1.599848	-0.051292	0.608887
C49	C	1.097578	-0.448429	0.109304
C50	C	1.597578	0.051571	0.609304
C51	C	1.119688	-0.310276	0.198221
C52	C	1.619688	0.189724	0.698221
C53	C	1.119758	-0.689907	0.198212
C54	C	1.619758	-0.189907	0.698212
C55	C	1.293015	-0.000104	0.205049
C56	C	1.793015	0.499896	0.705049
C57	C	1.398241	-0.000107	0.214560
C58	C	1.898241	0.499893	0.714560
C59	C	1.126636	-0.000091	0.045653
C60	C	1.626636	0.499909	0.545653
C61	C	1.124766	-0.000086	-0.047437
C62	C	1.624766	0.499914	0.452563
N63	N	1.119772	0.229809	0.198206
N64	N	1.619772	0.729809	0.698206
C65	C	1.118050	-0.000088	-0.385686
C66	C	1.618050	0.499912	0.114314
C67	C	1.014408	0.000251	-0.345993
C68	C	1.514408	0.500251	0.154007
C69	C	1.016278	-0.000081	-0.249163
C70	C	1.516278	0.499919	0.250837
C71	C	1.121381	-0.000086	-0.217877
C72	C	1.621381	0.499914	0.282123
C73	C	1.172481	-0.084356	-0.255134
C74	C	1.672481	0.415644	0.244866
C75	C	1.169877	-0.084426	-0.351964
C76	C	1.669877	0.415574	0.148036
C77	C	1.172059	0.083383	-0.352167
C78	C	1.672059	0.583383	0.147833
C79	C	1.172035	0.084496	-0.255224
C80	C	1.672035	0.584496	0.244776
C81	C	1.123269	-0.000088	-0.123038
C82	C	1.623269	0.499912	0.376962
C83	C	1.116165	-0.000092	-0.480525
C84	C	1.616165	0.499908	0.019475
C85	C	1.112796	-0.000089	0.350784
C86	C	1.612796	0.499911	0.850784
C87	C	1.114666	-0.000089	0.443874
C88	C	1.614666	0.499911	0.943874
H89	H	0.622068	-0.000084	0.296962
H90	H	1.122068	0.499916	0.796962
Br91	Br	0.596579	-0.000092	0.056128
Br92	Br	1.096579	0.499908	0.556128
Br93	Br	1.194812	-0.591830	0.030949
Br94	Br	1.694812	-0.091830	0.530949
Br95	Br	1.299422	0.084323	-0.395590
Br96	Br	1.799422	0.584323	0.104410
Br97	Br	0.919235	-0.406719	0.233151
Br98	Br	1.419235	0.093281	0.733151
H99	H	1.236550	-0.422520	0.289358
H100	H	1.736550	0.077480	0.789358
Br101	Br	0.918668	-0.592813	0.233100
Br102	Br	1.418668	-0.092813	0.733100
H103	H	1.054133	-0.577418	0.326684
H104	H	1.554133	-0.077418	0.826684
H105	H	1.150788	-0.422725	0.059872
H106	H	1.650788	0.077275	0.559872
Br107	Br	0.982234	-0.594570	0.069536
Br108	Br	1.482234	-0.094570	0.569536
H109	H	1.054487	-0.424140	0.327328
H110	H	1.554487	0.075860	0.827328
Br111	Br	1.110288	0.188419	-0.213885
Br112	Br	1.610288	0.688419	0.286115
H113	H	1.235693	-0.575129	0.290512
H114	H	1.735693	-0.075129	0.790512
H115	H	1.248682	0.089581	-0.234137
H116	H	1.748682	0.589581	0.265863
H117	H	0.973152	-0.059837	-0.368666
H118	H	1.473152	0.440163	0.131334
Br119	Br	1.317882	-0.592621	0.152440
Br120	Br	1.817882	-0.092621	0.652440
H121	H	1.245969	-0.088253	-0.378528
H122	H	1.745969	0.411747	0.121472
H123	H	1.278133	-0.423825	0.180530
H124	H	1.778133	0.076175	0.680530
H125	H	1.024825	-0.424051	0.089389
H126	H	1.524825	0.075949	0.589389
H127	H	0.976109	0.060327	-0.223744
H128	H	1.476109	0.560327	0.276256
Br129	Br	0.945381	0.100977	-0.382036
Br130	Br	1.445381	0.600977	0.117964
Br131	Br	0.948821	-0.100923	-0.207745
Br132	Br	1.448821	0.399077	0.292255
H133	H	1.132585	-0.147415	-0.373048
H134	H	1.632585	0.352585	0.126952
H135	H	1.249697	-0.087493	-0.235241
H136	H	1.749697	0.412507	0.264759
Br137	Br	1.113281	-0.188875	-0.212250
Br138	Br	1.613281	0.311125	0.287750
Br139	Br	1.115598	0.189840	-0.390610
Br140	Br	1.615598	0.689840	0.109390
