data_functionalizedCrystal
_audit_creation_method	'MofGen! by Chris Wilmer'
_symmetry_space_group_name_H-M	'P1'
_symmetry_Int_Tables_number	1
_symmetry_cell_setting	triclinic
loop_
_symmetry_equiv_pos_as_xyz
  x,y,z
_cell_length_a	13.897449
_cell_length_b	16.120484
_cell_length_c	13.897441
_cell_angle_alpha	87.133502
_cell_angle_beta	90.018596
_cell_angle_gamma	92.926780
loop_
_atom_site_label
_atom_site_type_symbol
_atom_site_fract_x
_atom_site_fract_y
_atom_site_fract_z
Zn1	Zn	1.455161	-0.331860	0.564824
Zn2	Zn	1.446859	-0.471289	0.411694
Zn3	Zn	1.293854	-0.331897	0.403545
Zn4	Zn	1.285633	-0.471237	0.572944
O5	O	1.370376	-0.401571	0.488252
O6	O	1.589041	-0.350362	0.544524
O7	O	1.426528	-0.452836	0.275634
O8	O	1.322166	-0.215227	0.418130
O9	O	1.582941	-0.452800	0.432020
O10	O	1.440678	-0.215199	0.536621
O11	O	1.314116	-0.350426	0.269646
O12	O	1.157782	-0.350375	0.426003
O13	O	1.308155	-0.452711	0.706846
O14	O	1.151742	-0.452747	0.550460
O15	O	1.432706	-0.350311	0.700881
O16	O	1.418557	-0.587948	0.439893
O17	O	1.300105	-0.587910	0.558363
C18	C	1.119763	-0.401560	0.488229
C19	C	1.012548	-0.401575	0.488243
C20	C	0.816253	-0.401578	0.488269
C21	C	0.925485	-0.401574	0.488252
C22	C	1.357564	-0.618179	0.500914
C23	C	1.352171	-0.710845	0.506364
C24	C	1.342330	-0.880506	0.516333
C25	C	1.398595	-0.921795	0.460187
C26	C	1.393120	-1.016201	0.465733
C27	C	1.347805	-0.786092	0.510787
C28	C	1.621969	-0.401583	0.488275
C29	C	1.729182	-0.401588	0.488285
C30	C	1.370439	-0.401501	0.739841
C31	C	1.370466	-0.401471	0.847053
C32	C	1.383265	-0.184117	0.475561
C33	C	1.388757	-0.091451	0.470153
C34	C	1.370372	-0.401581	0.237638
C35	C	1.370546	-0.401376	0.130412
C36	C	1.370488	-0.401448	0.934121
C37	C	1.370517	-0.401410	1.043352
H38	H	1.450876	-0.886242	0.407952
Br39	Br	1.255195	-0.939759	0.603388
